data_PCOD8312882
_publ_section_title
;
Structure prediction by ZEFSAII (Michael W. Deem and Ramdas Pophale) SiO2 
 PCOD8312882
Probable space group: P 4/M M M
;
_chemical_formula_sum "Si O2"
_cell_formula_units_Z 72
_cell_length_a 13.611078
_cell_length_b 13.611078
_cell_length_c 22.809015
_cell_angle_alpha 90.000000
_cell_angle_beta 90.000000
_cell_angle_gamma 90.000000
_cell_volume 4225.631062
_symmetry_space_group_name_H-M "P 4/M M M"
_symmetry_group_IT_number 123
_symmetry_cell_setting 'tetragonal'
loop_
_space_group_symop_operation_xyz
x,y,z
-y,x,z
-x,-y,z
y,-x,z
x,-y,-z
-x,y,-z
y,x,-z
-y,-x,-z
-x,-y,-z
y,-x,-z
x,y,-z
-y,x,-z
-x,y,z
x,-y,z
-y,-x,z
y,x,z
loop_
_atom_site_type_symbol
_atom_site_label
_atom_site_fract_x
_atom_site_fract_y
_atom_site_fract_z
Si Si1 0.892178 0.617139 0.000000
Si Si2 0.767973 0.388011 0.107830
Si Si3 0.387111 0.228572 0.432496
Si Si4 0.613849 0.225830 0.760257
Si Si5 0.885053 0.276269 0.337066
O O1 0.840783 0.656492 0.059130
O O2 0.896713 0.500000 0.000000
O O3 0.000000 0.663358 0.000000
O O4 0.745842 0.500000 0.093347
O O5 0.663676 0.336325 0.103022
O O6 0.812649 0.374208 0.172953
O O7 0.377768 0.196818 0.500000
O O8 0.500000 0.244116 0.414017
O O9 0.331150 0.331150 0.420134
O O10 0.338446 0.141914 0.394876
O O11 0.500000 0.245213 0.744823
O O12 0.672134 0.327867 0.749790
O O13 0.658030 0.140995 0.719460
O O14 0.826643 0.173358 0.335814
O O15 0.000000 0.252142 0.337296
#
# Coordination Sequence:
#
# PCOD8312882 Si02
#       5
#     8  16  16  16  16
#     4   9  17  28  41  59  85 117 153 191 227 262
#     4   9  17  29  45  66  93 122 151 184 222 269
#     4   9  18  32  50  74 103 132 161 192 227 272
#     4   9  18  31  47  70  98 126 156 189 228 278
#     4  10  21  36  52  70  93 121 157 202 246 286
#
# _framework density 17.038875999999998
#
# number of rings (size 3 to 8) (size 9 to 14) (size 15 to 20)
#    0.000    2.778    0.000    1.000    0.000    4.000 
#    0.000    6.667    0.000    6.000    0.000    3.111 
#    0.000    3.556    0.000    0.000    0.000    0.667 
#
# Total GULP energy -892648.291955 kJ/mol
# GULP energy per Si atom -12397.892944 kJ/mol
# Density = 1.700009 g / cm^3
# Si number density = 17.038876 Si / 1000 Ang^3
#
#
#
# Elastic Constant Matrix: (Units=GPa)
#
#
# Indices 1 2 3 4 5 6 
#
# 1 111.1663 47.0732 55.8340 0.0000 0.0000 0.0000
# 2 47.0732 111.1663 55.8340 0.0000 0.0000 0.0000
# 3 55.8340 55.8340 113.9835 0.0000 0.0000 0.0000
# 4 0.0000 0.0000 0.0000 22.5395 0.0000 0.0000
# 5 0.0000 0.0000 0.0000 0.0000 22.5395 0.0000
# 6 0.0000 0.0000 0.0000 0.0000 0.0000 10.9809
#
#
#
# Elastic Compliance Matrix: (Units=1/GPa)
#
#
# Indices 1 2 3 4 5 6 
#
# 1 0.012630 -0.002972 -0.004731 0.000000 0.000000 0.000000
# 2 -0.002972 0.012630 -0.004731 0.000000 0.000000 0.000000
# 3 -0.004731 -0.004731 0.013408 0.000000 0.000000 0.000000
# 4 0.000000 0.000000 0.000000 0.044367 0.000000 0.000000
# 5 0.000000 0.000000 0.000000 0.000000 0.044367 0.000000
# 6 0.000000 0.000000 0.000000 0.000000 0.000000 0.091067
#
#
# Mechanical properties :
#
#
# Convention : Reuss Voigt Hill
#
# Bulk Modulus (GPa) = 72.46139 72.64429 72.55284
# Shear Modulus (GPa) = 20.16644 23.05031 21.60837
#
# Velocity S-wave (km/s) = 3.44401 3.68204 3.56502
# Velocity P-wave (km/s) = 7.64424 7.79766 7.72133
#
# Compressibility (1/GPa) = 0.01380045
#
# Stress axis : x y z
#
# Youngs Moduli (GPa) = 79.17526 79.17526 74.58203
#
# Poissons Ratio (x) = 0.23532 0.35284
# Poissons Ratio (y) = 0.23532 0.35284
# Poissons Ratio (z) = 0.37458 0.37458
#
# Static dielectric constant tensor:
#      x y z
#    x 3.016460 0.000000 0.000000 
#    y 0.000000 3.016460 0.000000 
#    z 0.000000 0.000000 3.520820 
# 
# 
# High freq. dielectric constant tensor:
#      x y z
#    x 1.637540 0.000000 0.000000 
#    y 0.000000 1.637540 0.000000 
#    z 0.000000 0.000000 1.679170 
# 
# From -- ./inp_files/7863.got.cif
#   From: 2010.03.12/outbox.cif.g09.slc.cpg/sg123_4_cif.got.tgz:7863.got - 2010.04.06 16:26:55.
