data_PCOD8312638
_publ_section_title
;
Structure prediction by ZEFSAII (Michael W. Deem and Ramdas Pophale) SiO2 
 PCOD8312638
Probable space group: P 4/M M M
;
_chemical_formula_sum "Si O2"
_cell_formula_units_Z 56
_cell_length_a 18.217158
_cell_length_b 18.217158
_cell_length_c 8.959377
_cell_angle_alpha 90.000000
_cell_angle_beta 90.000000
_cell_angle_gamma 90.000000
_cell_volume 2973.302265
_symmetry_space_group_name_H-M "P 4/M M M"
_symmetry_group_IT_number 123
_symmetry_cell_setting 'tetragonal'
loop_
_space_group_symop_operation_xyz
x,y,z
-y,x,z
-x,-y,z
y,-x,z
x,-y,-z
-x,y,-z
y,x,-z
-y,-x,-z
-x,-y,-z
y,-x,-z
x,y,-z
-y,x,-z
-x,y,z
x,-y,z
-y,-x,z
y,x,z
loop_
_atom_site_type_symbol
_atom_site_label
_atom_site_fract_x
_atom_site_fract_y
_atom_site_fract_z
Si Si1 0.000000 0.582307 0.177235
Si Si2 0.196066 0.803935 0.322832
Si Si3 0.418948 0.697595 0.176200
Si Si4 0.919012 0.919012 0.322514
Si Si5 0.653692 0.847792 0.824362
O O1 0.073892 0.622911 0.232988
O O2 0.000000 0.500000 0.243066
O O3 0.000000 0.578839 0.000000
O O4 0.197918 0.802083 0.500000
O O5 0.138218 0.861783 0.256383
O O6 0.273639 0.829380 0.263826
O O7 0.500000 0.678407 0.239895
O O8 0.358041 0.641960 0.246298
O O9 0.402741 0.782479 0.215217
O O10 0.418292 0.687455 0.000000
O O11 0.917792 0.917792 0.500000
O O12 0.000000 0.897590 0.264643
O O13 0.670475 0.849930 0.000000
#
# Coordination Sequence:
#
# PCOD8312638 Si02
#       5
#     8   8  16   8  16
#     4   9  18  32  55  85 110 137 174 216 266 326
#     4  11  22  33  52  78 103 135 176 218 257 304
#     4   9  16  27  46  72 101 131 164 205 251 299
#     4   8  16  32  51  70  94 127 167 207 247 294
#     4  10  19  34  53  76 106 138 171 211 259 312
#
# _framework density 18.834278000000001
#
# number of rings (size 3 to 8) (size 9 to 14) (size 15 to 20)
#    0.000    2.571    1.429    1.714    2.000    3.714 
#    0.000    1.429    0.000    4.286    0.000    4.000 
#    0.000    1.143    0.000    0.000    0.000    0.000 
#
# Total GULP energy -694103.445975 kJ/mol
# GULP energy per Si atom -12394.704392 kJ/mol
# Density = 1.879141 g / cm^3
# Si number density = 18.834278 Si / 1000 Ang^3
#
#
#
# Elastic Constant Matrix: (Units=GPa)
#
#
# Indices 1 2 3 4 5 6 
#
# 1 166.1467 94.5128 24.2696 0.0000 0.0000 0.0000
# 2 94.5128 166.1463 24.2694 0.0000 0.0000 0.0000
# 3 24.2696 24.2694 21.8259 0.0000 0.0000 0.0000
# 4 0.0000 0.0000 0.0000 3.7399 0.0000 0.0000
# 5 0.0000 0.0000 0.0000 0.0000 3.7400 0.0000
# 6 0.0000 0.0000 0.0000 0.0000 0.0000 38.0356
#
#
#
# Elastic Compliance Matrix: (Units=1/GPa)
#
#
# Indices 1 2 3 4 5 6 
#
# 1 0.009399 -0.004561 -0.005380 0.000000 0.000000 0.000000
# 2 -0.004561 0.009399 -0.005380 0.000000 0.000000 0.000000
# 3 -0.005380 -0.005380 0.057782 0.000000 0.000000 0.000000
# 4 0.000000 0.000000 0.000000 0.267386 0.000000 0.000000
# 5 0.000000 0.000000 0.000000 0.000000 0.267380 0.000000
# 6 0.000000 0.000000 0.000000 0.000000 0.000000 0.026291
#
#
# Mechanical properties :
#
#
# Convention : Reuss Voigt Hill
#
# Bulk Modulus (GPa) = 21.76827 71.13582 46.45205
# Shear Modulus (GPa) = 7.31431 23.17424 15.24428
#
# Velocity S-wave (km/s) = 1.97280 3.51155 2.84806
# Velocity P-wave (km/s) = 4.09538 7.36836 5.96091
#
# Compressibility (1/GPa) = 0.04593843
#
# Stress axis : x y z
#
# Youngs Moduli (GPa) = 106.39327 106.39326 17.30652
#
# Poissons Ratio (x) = 0.48524 0.09311
# Poissons Ratio (y) = 0.48524 0.09311
# Poissons Ratio (z) = 0.57240 0.57238
#
# Static dielectric constant tensor:
#      x y z
#    x 3.821880 0.000000 0.000000 
#    y 0.000000 3.821880 0.000000 
#    z 0.000000 0.000000 2.824210 
# 
# 
# High freq. dielectric constant tensor:
#      x y z
#    x 1.747570 0.000000 0.000000 
#    y 0.000000 1.747570 0.000000 
#    z 0.000000 0.000000 1.663480 
# 
# From -- ./inp_files/633.got.cif
#   From: 2010.03.12/outbox.cif.g09.slc.cpg/sg123_1_cif.got.tgz:633.got - 2010.04.06 16:26:55.
