data_PCOD8312827
_publ_section_title
;
Structure prediction by ZEFSAII (Michael W. Deem and Ramdas Pophale) SiO2 
 PCOD8312827
Probable space group: P 4/M M M
;
_chemical_formula_sum "Si O2"
_cell_formula_units_Z 88
_cell_length_a 12.796951
_cell_length_b 12.796951
_cell_length_c 29.607127
_cell_angle_alpha 90.000000
_cell_angle_beta 90.000000
_cell_angle_gamma 90.000000
_cell_volume 4848.520996
_symmetry_space_group_name_H-M "P 4/M M M"
_symmetry_group_IT_number 123
_symmetry_cell_setting 'tetragonal'
loop_
_space_group_symop_operation_xyz
x,y,z
-y,x,z
-x,-y,z
y,-x,z
x,-y,-z
-x,y,-z
y,x,-z
-y,-x,-z
-x,-y,-z
y,-x,-z
x,y,-z
-y,x,-z
-x,y,z
x,-y,z
-y,-x,z
y,x,z
loop_
_atom_site_type_symbol
_atom_site_label
_atom_site_fract_x
_atom_site_fract_y
_atom_site_fract_z
Si Si1 0.711786 0.118137 0.364782
Si Si2 0.288019 0.879719 0.808270
Si Si3 0.619429 0.210830 0.721975
Si Si4 0.623869 0.000000 0.050925
Si Si5 0.211291 0.380209 0.449376
Si Si6 0.378025 0.793716 0.896242
O O1 0.819803 0.180198 0.363291
O O2 0.632266 0.160872 0.327359
O O3 0.657362 0.124817 0.413787
O O4 0.741020 0.000000 0.354308
O O5 0.174355 0.825646 0.808990
O O6 0.339822 0.871198 0.759041
O O7 0.364558 0.822846 0.843728
O O8 0.272960 0.000000 0.821154
O O9 0.500000 0.238006 0.730451
O O10 0.681009 0.318992 0.726550
O O11 0.662541 0.893815 0.075172
O O12 0.500000 0.000000 0.051955
O O13 0.667694 0.000000 0.000000
O O14 0.167456 0.360500 0.500000
O O15 0.239352 0.500000 0.441512
O O16 0.318509 0.318509 0.440824
O O17 0.500000 0.767193 0.905740
O O18 0.307112 0.692889 0.909203
#
# Coordination Sequence:
#
# PCOD8312827 Si02
#       6
#    16  16  16   8  16  16
#     4  10  21  36  52  72  98 127 164 208 252 300
#     4  10  20  34  53  78 107 140 179 221 265 313
#     4  10  21  35  52  76 104 135 170 208 252 304
#     4   9  18  34  56  79 105 141 183 224 264 312
#     4   9  18  32  50  73 100 129 162 201 245 295
#     4  10  20  34  54  81 111 144 182 224 271 323
#
# _framework density 18.149865999999999
#
# number of rings (size 3 to 8) (size 9 to 14) (size 15 to 20)
#    0.000    2.273    0.909    1.636    0.000    4.909 
#    0.000    1.818    0.000   10.091    0.000    5.727 
#    0.000    0.000    0.000    0.000    0.000    0.000 
#
# Total GULP energy -1091273.831246 kJ/mol
# GULP energy per Si atom -12400.838991 kJ/mol
# Density = 1.810856 g / cm^3
# Si number density = 18.149866 Si / 1000 Ang^3
#
#
#
# Elastic Constant Matrix: (Units=GPa)
#
#
# Indices 1 2 3 4 5 6 
#
# 1 104.2896 56.1014 30.4423 0.0000 0.0000 0.0000
# 2 56.1014 104.2896 30.4423 0.0000 0.0000 0.0000
# 3 30.4423 30.4423 85.8586 0.0000 0.0000 0.0000
# 4 0.0000 0.0000 0.0000 22.0899 0.0000 0.0000
# 5 0.0000 0.0000 0.0000 0.0000 22.0899 0.0000
# 6 0.0000 0.0000 0.0000 0.0000 0.0000 13.9979
#
#
#
# Elastic Compliance Matrix: (Units=1/GPa)
#
#
# Indices 1 2 3 4 5 6 
#
# 1 0.013978 -0.006774 -0.002554 0.000000 0.000000 0.000000
# 2 -0.006774 0.013978 -0.002554 0.000000 0.000000 0.000000
# 3 -0.002554 -0.002554 0.013458 0.000000 0.000000 0.000000
# 4 0.000000 0.000000 0.000000 0.045270 0.000000 0.000000
# 5 0.000000 0.000000 0.000000 0.000000 0.045270 0.000000
# 6 0.000000 0.000000 0.000000 0.000000 0.000000 0.071439
#
#
# Mechanical properties :
#
#
# Convention : Reuss Voigt Hill
#
# Bulk Modulus (GPa) = 56.65842 58.71218 57.68530
# Shear Modulus (GPa) = 21.45538 23.46564 22.46051
#
# Velocity S-wave (km/s) = 3.44193 3.59957 3.52163
# Velocity P-wave (km/s) = 6.86153 7.04944 6.95612
#
# Compressibility (1/GPa) = 0.01764963
#
# Stress axis : x y z
#
# Youngs Moduli (GPa) = 71.53997 71.53997 74.30265
#
# Poissons Ratio (x) = 0.48460 0.18980
# Poissons Ratio (y) = 0.48460 0.18980
# Poissons Ratio (z) = 0.18274 0.18274
#
# Static dielectric constant tensor:
#      x y z
#    x 3.193780 0.000000 0.000000 
#    y 0.000000 3.193780 0.000000 
#    z 0.000000 0.000000 3.578290 
# 
# 
# High freq. dielectric constant tensor:
#      x y z
#    x 1.692600 0.000000 0.000000 
#    y 0.000000 1.692600 0.000000 
#    z 0.000000 0.000000 1.716320 
# 
# From -- ./inp_files/8433.got.cif
#   From: 2010.03.12/outbox.cif.g09.slc.cpg/sg123_5_cif.got.tgz:8433.got - 2010.04.06 16:26:55.
