data_PCOD8312742
_publ_section_title
;
Structure prediction by ZEFSAII (Michael W. Deem and Ramdas Pophale) SiO2 
 PCOD8312742
Probable space group: P 4/M M M
;
_chemical_formula_sum "Si O2"
_cell_formula_units_Z 72
_cell_length_a 13.722908
_cell_length_b 13.722908
_cell_length_c 23.167265
_cell_angle_alpha 90.000000
_cell_angle_beta 90.000000
_cell_angle_gamma 90.000000
_cell_volume 4362.817736
_symmetry_space_group_name_H-M "P 4/M M M"
_symmetry_group_IT_number 123
_symmetry_cell_setting 'tetragonal'
loop_
_space_group_symop_operation_xyz
x,y,z
-y,x,z
-x,-y,z
y,-x,z
x,-y,-z
-x,y,-z
y,x,-z
-y,-x,-z
-x,-y,-z
y,-x,-z
x,y,-z
-y,x,-z
-x,y,z
x,-y,z
-y,-x,z
y,x,z
loop_
_atom_site_type_symbol
_atom_site_label
_atom_site_fract_x
_atom_site_fract_y
_atom_site_fract_z
Si Si1 0.385386 0.772350 0.655633
Si Si2 0.384560 0.892077 0.766382
Si Si3 0.226882 0.386319 0.124814
Si Si4 0.111779 0.269484 0.566677
Si Si5 0.389967 0.233650 0.000000
O O1 0.500000 0.751377 0.654955
O O2 0.330762 0.669239 0.649590
O O3 0.349312 0.823539 0.714445
O O4 0.358674 0.843601 0.602861
O O5 0.500000 0.899533 0.765158
O O6 0.348504 0.849017 0.827479
O O7 0.338999 0.000000 0.759283
O O8 0.251505 0.500000 0.134715
O O9 0.327493 0.327493 0.131119
O O10 0.177673 0.368117 0.060784
O O11 0.121357 0.299153 0.500000
O O12 0.169837 0.169837 0.580200
O O13 0.000000 0.251985 0.584367
O O14 0.500000 0.267827 0.000000
O O15 0.333908 0.333908 0.000000
#
# Coordination Sequence:
#
# PCOD8312742 Si02
#       5
#    16  16  16  16   8
#     4  10  20  33  49  69  93 121 154 191 230 275
#     4   9  17  29  44  61  82 110 144 180 218 262
#     4   9  16  26  40  59  84 113 145 180 218 261
#     4   9  18  32  50  73  99 126 158 196 236 276
#     4   8  14  23  35  53  79 111 144 178 215 255
#
# _framework density 16.503094999999998
#
# number of rings (size 3 to 8) (size 9 to 14) (size 15 to 20)
#    0.000    2.889    0.000    1.333    0.000    2.556 
#    0.000    5.000    0.000    7.333    0.000    3.111 
#    0.000    4.000    0.000    0.000    0.000   24.889 
#
# Total GULP energy -892234.486123 kJ/mol
# GULP energy per Si atom -12392.145641 kJ/mol
# Density = 1.646553 g / cm^3
# Si number density = 16.503095 Si / 1000 Ang^3
#
#
#
# Elastic Constant Matrix: (Units=GPa)
#
#
# Indices 1 2 3 4 5 6 
#
# 1 78.5423 33.7726 46.7970 0.0000 0.0000 0.0000
# 2 33.7726 78.5423 46.7970 0.0000 0.0000 0.0000
# 3 46.7970 46.7970 115.7999 0.0000 0.0000 0.0000
# 4 0.0000 0.0000 0.0000 21.8669 0.0000 0.0000
# 5 0.0000 0.0000 0.0000 0.0000 21.8669 0.0000
# 6 0.0000 0.0000 0.0000 0.0000 0.0000 9.5061
#
#
#
# Elastic Compliance Matrix: (Units=1/GPa)
#
#
# Indices 1 2 3 4 5 6 
#
# 1 0.017880 -0.004456 -0.005425 0.000000 0.000000 0.000000
# 2 -0.004456 0.017880 -0.005425 0.000000 0.000000 0.000000
# 3 -0.005425 -0.005425 0.013020 0.000000 0.000000 0.000000
# 4 0.000000 0.000000 0.000000 0.045731 0.000000 0.000000
# 5 0.000000 0.000000 0.000000 0.000000 0.045731 0.000000
# 6 0.000000 0.000000 0.000000 0.000000 0.000000 0.105195
#
#
# Mechanical properties :
#
#
# Convention : Reuss Voigt Hill
#
# Bulk Modulus (GPa) = 55.03934 58.62418 56.83176
# Shear Modulus (GPa) = 17.72373 20.34917 19.03645
#
# Velocity S-wave (km/s) = 3.28069 3.51529 3.40002
# Velocity P-wave (km/s) = 6.91187 7.21642 7.06578
#
# Compressibility (1/GPa) = 0.01816882
#
# Stress axis : x y z
#
# Youngs Moduli (GPa) = 55.92713 55.92713 76.80308
#
# Poissons Ratio (x) = 0.24922 0.41666
# Poissons Ratio (y) = 0.24922 0.41666
# Poissons Ratio (z) = 0.30341 0.30341
#
# Static dielectric constant tensor:
#      x y z
#    x 2.931070 0.000000 0.000000 
#    y 0.000000 2.931070 0.000000 
#    z 0.000000 0.000000 3.573640 
# 
# 
# High freq. dielectric constant tensor:
#      x y z
#    x 1.610320 0.000000 0.000000 
#    y 0.000000 1.610320 0.000000 
#    z 0.000000 0.000000 1.659310 
# 
# From -- ./inp_files/6265.got.cif
#   From: 2010.03.12/outbox.cif.g09.slc.cpg/sg123_4_cif.got.tgz:6265.got - 2010.04.06 16:26:55.
