data_PCOD8312116
_publ_section_title
;
Structure prediction by ZEFSAII (Michael W. Deem and Ramdas Pophale) SiO2 
 PCOD8312116
Probable space group: I -4 2 D
;
_chemical_formula_sum "Si O2"
_cell_formula_units_Z 48
_cell_length_a 8.760462
_cell_length_b 8.760462
_cell_length_c 23.702546
_cell_angle_alpha 90.000000
_cell_angle_beta 90.000000
_cell_angle_gamma 90.000000
_cell_volume 1819.068353
_symmetry_space_group_name_H-M "I -4 2 D"
_symmetry_group_IT_number 122
_symmetry_cell_setting 'tetragonal'
loop_
_space_group_symop_operation_xyz
x,y,z
y,-x,-z
-x,-y,z
-y,x,-z
x,1/2-y,1/4-z
-x,1/2+y,1/4-z
-y,1/2-x,1/4+z
y,1/2+x,1/4+z
1/2+x,1/2+y,1/2+z
1/2+y,1/2-x,1/2-z
1/2-x,1/2-y,1/2+z
1/2-y,1/2+x,1/2-z
1/2+x,-y,3/4-z
1/2-x,y,3/4-z
1/2-y,-x,3/4+z
1/2+y,x,3/4+z
loop_
_atom_site_type_symbol
_atom_site_label
_atom_site_fract_x
_atom_site_fract_y
_atom_site_fract_z
Si Si1 0.750000 0.283029 0.875000
Si Si2 0.664142 0.459248 0.286460
Si Si3 0.000000 0.500000 0.668974
Si Si4 0.250565 0.210638 0.442023
O O1 0.753473 0.173048 0.929537
O O2 0.602920 0.392813 0.878189
O O3 0.500000 0.500000 0.314138
O O4 0.757737 0.615090 0.287424
O O5 0.638072 0.398241 0.222574
O O6 0.111919 0.600838 0.709535
O O7 0.250000 0.197997 0.375000
#
# Coordination Sequence:
#
# PCOD8312116 Si02
#       4
#     8  16   8  16
#     4  12  28  52  86 130 184 230 304 374 450 538
#     4  12  30  52  85 126 178 231 301 376 446 538
#     4  12  28  51  88 126 176 230 300 365 446 540
#     4  12  30  51  85 126 174 235 298 365 455 531
#
# _framework density 26.387136000000002
#
# number of rings (size 3 to 8) (size 9 to 14) (size 15 to 20)
#    0.000    0.000    6.667    0.000   11.667    2.000 
#    0.000    0.000    0.000    0.000    0.000    0.000 
#    0.000    0.000    0.000    0.000    0.000    0.000 
#
# Total GULP energy -297499.457161 kJ/mol
# GULP energy per Si atom -12395.810715 kJ/mol
# Density = 2.632708 g / cm^3
# Si number density = 26.387136 Si / 1000 Ang^3
#
#
#
# Elastic Constant Matrix: (Units=GPa)
#
#
# Indices 1 2 3 4 5 6 
#
# 1 170.0068 59.7342 42.1417 0.0000 0.0000 0.0000
# 2 59.7342 170.0068 42.1417 0.0000 0.0000 0.0000
# 3 42.1417 42.1417 123.3685 0.0000 0.0000 0.0000
# 4 0.0000 0.0000 0.0000 40.9780 0.0000 0.0000
# 5 0.0000 0.0000 0.0000 0.0000 40.9780 0.0000
# 6 0.0000 0.0000 0.0000 0.0000 0.0000 57.5876
#
#
#
# Elastic Compliance Matrix: (Units=1/GPa)
#
#
# Indices 1 2 3 4 5 6 
#
# 1 0.007022 -0.002046 -0.001700 0.000000 0.000000 0.000000
# 2 -0.002046 0.007022 -0.001700 0.000000 0.000000 0.000000
# 3 -0.001700 -0.001700 0.009267 0.000000 0.000000 0.000000
# 4 0.000000 0.000000 0.000000 0.024403 0.000000 0.000000
# 5 0.000000 0.000000 0.000000 0.000000 0.024403 0.000000
# 6 0.000000 0.000000 0.000000 0.000000 0.000000 0.017365
#
#
# Mechanical properties :
#
#
# Convention : Reuss Voigt Hill
#
# Bulk Modulus (GPa) = 80.51334 83.49082 82.00208
# Shear Modulus (GPa) = 47.83993 49.19967 48.51980
#
# Velocity S-wave (km/s) = 4.26256 4.32271 4.29274
# Velocity P-wave (km/s) = 7.40300 7.52488 7.46419
#
# Compressibility (1/GPa) = 0.01242030
#
# Stress axis : x y z
#
# Youngs Moduli (GPa) = 142.40160 142.40160 107.90829
#
# Poissons Ratio (x) = 0.29136 0.18343
# Poissons Ratio (y) = 0.29136 0.18343
# Poissons Ratio (z) = 0.24207 0.24207
#
# Static dielectric constant tensor:
#      x y z
#    x 5.261740 0.000000 0.000000 
#    y 0.000000 5.261740 0.000000 
#    z 0.000000 0.000000 4.464960 
# 
# 
# High freq. dielectric constant tensor:
#      x y z
#    x 2.070930 0.000000 0.000000 
#    y 0.000000 2.070930 0.000000 
#    z 0.000000 0.000000 2.051580 
# 
# From -- ./inp_files/9132.got.cif
#   From: 2010.03.12/outbox.cif.g09.slc.cpg/sg122_5_cif.got.tgz:9132.got - 2010.04.06 16:17:16.
