data_PCOD8312023
_publ_section_title
;
Structure prediction by ZEFSAII (Michael W. Deem and Ramdas Pophale) SiO2 
 PCOD8312023
Probable space group: I -4 2 D
;
_chemical_formula_sum "Si O2"
_cell_formula_units_Z 80
_cell_length_a 17.120209
_cell_length_b 17.120209
_cell_length_c 11.825233
_cell_angle_alpha 90.000000
_cell_angle_beta 90.000000
_cell_angle_gamma 90.000000
_cell_volume 3465.994195
_symmetry_space_group_name_H-M "I -4 2 D"
_symmetry_group_IT_number 122
_symmetry_cell_setting 'tetragonal'
loop_
_space_group_symop_operation_xyz
x,y,z
y,-x,-z
-x,-y,z
-y,x,-z
x,1/2-y,1/4-z
-x,1/2+y,1/4-z
-y,1/2-x,1/4+z
y,1/2+x,1/4+z
1/2+x,1/2+y,1/2+z
1/2+y,1/2-x,1/2-z
1/2-x,1/2-y,1/2+z
1/2-y,1/2+x,1/2-z
1/2+x,-y,3/4-z
1/2-x,y,3/4-z
1/2-y,-x,3/4+z
1/2+y,x,3/4+z
loop_
_atom_site_type_symbol
_atom_site_label
_atom_site_fract_x
_atom_site_fract_y
_atom_site_fract_z
Si Si1 0.433330 0.293062 0.458165
Si Si2 0.631087 0.091388 0.115681
Si Si3 0.347469 0.089908 0.150480
Si Si4 0.400470 0.709525 0.514204
Si Si5 0.984882 0.676458 0.542002
O O1 0.393208 0.207216 0.462830
O O2 0.507502 0.304041 0.540652
O O3 0.372999 0.357891 0.499223
O O4 0.471430 0.294625 0.333820
O O5 0.629506 0.147002 0.226451
O O6 0.556318 0.115228 0.041729
O O7 0.629237 0.001427 0.157307
O O8 0.407001 0.130737 0.067869
O O9 0.262152 0.108220 0.098746
O O10 0.363359 0.750000 0.625000
O O11 0.000645 0.750000 0.625000
#
# Coordination Sequence:
#
# PCOD8312023 Si02
#       5
#    16  16  16  16  16
#     4  11  26  47  67  99 141 184 231 284 339 415
#     4  11  23  42  72 107 134 172 229 293 355 406
#     4  11  21  41  73 102 139 171 222 291 350 411
#     4  11  25  47  69  96 138 185 231 274 340 415
#     4  12  22  41  70 107 138 171 226 285 356 408
#
# _framework density 23.081401
#
# number of rings (size 3 to 8) (size 9 to 14) (size 15 to 20)
#    0.000    0.800    6.000    1.800    0.000    4.400 
#    3.600    5.000    0.000    0.000    0.000    0.000 
#    0.000    0.000    0.000    0.000    0.000    0.000 
#
# Total GULP energy -495869.748143 kJ/mol
# GULP energy per Si atom -12396.743704 kJ/mol
# Density = 2.302887 g / cm^3
# Si number density = 23.081401 Si / 1000 Ang^3
#
#
#
# Elastic Constant Matrix: (Units=GPa)
#
#
# Indices 1 2 3 4 5 6 
#
# 1 328.2525 -138.1095 9.0742 0.0000 0.0000 0.0000
# 2 -138.1095 328.2525 9.0742 0.0000 0.0000 0.0000
# 3 9.0742 9.0742 33.6306 0.0000 0.0000 0.0000
# 4 0.0000 0.0000 0.0000 31.1899 0.0000 0.0000
# 5 0.0000 0.0000 0.0000 0.0000 31.1899 0.0000
# 6 0.0000 0.0000 0.0000 0.0000 0.0000 31.5801
#
#
#
# Elastic Compliance Matrix: (Units=1/GPa)
#
#
# Indices 1 2 3 4 5 6 
#
# 1 0.003771 0.001627 -0.001457 0.000000 0.000000 0.000000
# 2 0.001627 0.003771 -0.001457 0.000000 0.000000 0.000000
# 3 -0.001457 -0.001457 0.030521 0.000000 0.000000 0.000000
# 4 0.000000 0.000000 0.000000 0.032062 0.000000 0.000000
# 5 0.000000 0.000000 0.000000 0.000000 0.032062 0.000000
# 6 0.000000 0.000000 0.000000 0.000000 0.000000 0.031666
#
#
# Mechanical properties :
#
#
# Convention : Reuss Voigt Hill
#
# Bulk Modulus (GPa) = 28.17608 50.02370 39.09989
# Shear Modulus (GPa) = 33.72574 72.79843 53.26209
#
# Velocity S-wave (km/s) = 3.82667 5.62213 4.80893
# Velocity P-wave (km/s) = 5.63545 7.99151 6.91457
#
# Compressibility (1/GPa) = 0.03549109
#
# Stress axis : x y z
#
# Youngs Moduli (GPa) = 265.16474 265.16474 32.76449
#
# Poissons Ratio (x) = -0.43142 0.04772
# Poissons Ratio (y) = -0.43142 0.04772
# Poissons Ratio (z) = 0.38623 0.38623
#
# Static dielectric constant tensor:
#      x y z
#    x 4.303650 0.000000 0.000000 
#    y 0.000000 4.303650 0.000000 
#    z 0.000000 0.000000 4.220550 
# 
# 
# High freq. dielectric constant tensor:
#      x y z
#    x 1.915960 0.000000 0.000000 
#    y 0.000000 1.915960 0.000000 
#    z 0.000000 0.000000 1.910390 
# 
# From -- ./inp_files/5318.got.cif
#   From: 2010.03.12/outbox.cif.g09.slc.cpg/sg122_3_cif.got.tgz:5318.got - 2010.04.06 16:17:16.
