data_PCOD8312104
_publ_section_title
;
Structure prediction by ZEFSAII (Michael W. Deem and Ramdas Pophale) SiO2 
 PCOD8312104
Probable space group: I -4 2 D
;
_chemical_formula_sum "Si O2"
_cell_formula_units_Z 48
_cell_length_a 9.612360
_cell_length_b 9.612360
_cell_length_c 23.962951
_cell_angle_alpha 90.000000
_cell_angle_beta 90.000000
_cell_angle_gamma 90.000000
_cell_volume 2214.115921
_symmetry_space_group_name_H-M "I -4 2 D"
_symmetry_group_IT_number 122
_symmetry_cell_setting 'tetragonal'
loop_
_space_group_symop_operation_xyz
x,y,z
y,-x,-z
-x,-y,z
-y,x,-z
x,1/2-y,1/4-z
-x,1/2+y,1/4-z
-y,1/2-x,1/4+z
y,1/2+x,1/4+z
1/2+x,1/2+y,1/2+z
1/2+y,1/2-x,1/2-z
1/2-x,1/2-y,1/2+z
1/2-y,1/2+x,1/2-z
1/2+x,-y,3/4-z
1/2-x,y,3/4-z
1/2-y,-x,3/4+z
1/2+y,x,3/4+z
loop_
_atom_site_type_symbol
_atom_site_label
_atom_site_fract_x
_atom_site_fract_y
_atom_site_fract_z
Si Si1 0.735371 0.227689 0.741466
Si Si2 0.487461 0.165865 0.067313
Si Si3 0.504472 0.660691 0.575927
O O1 0.702518 0.346598 0.785758
O O2 0.647112 0.231682 0.684071
O O3 0.684529 0.084201 0.768512
O O4 0.895938 0.222366 0.724941
O O5 0.493487 0.250000 0.125000
O O6 0.500000 0.000000 0.078642
O O7 0.500000 0.500000 0.594034
O O8 0.576865 0.750000 0.625000
#
# Coordination Sequence:
#
# PCOD8312104 Si02
#       3
#    16  16  16
#     4  12  25  47  70 104 150 182 238 300 356 434
#     4  12  28  48  75 110 146 192 243 296 365 430
#     4  12  24  44  73 104 136 186 239 298 363 430
#
# _framework density 21.679084
#
# number of rings (size 3 to 8) (size 9 to 14) (size 15 to 20)
#    0.000    0.000    6.667    2.000    9.333    0.000 
#    0.000    0.000    0.000    0.000    0.000    0.000 
#    0.000    0.000    0.000    0.000    0.000    0.000 
#
# Total GULP energy -297604.351709 kJ/mol
# GULP energy per Si atom -12400.181321 kJ/mol
# Density = 2.162974 g / cm^3
# Si number density = 21.679084 Si / 1000 Ang^3
#
#
#
# Elastic Constant Matrix: (Units=GPa)
#
#
# Indices 1 2 3 4 5 6 
#
# 1 114.9633 41.3146 51.6016 0.0000 0.0000 0.0000
# 2 41.3146 114.9633 51.6016 0.0000 0.0000 0.0000
# 3 51.6016 51.6016 105.0672 0.0000 0.0000 0.0000
# 4 0.0000 0.0000 0.0000 -12.5121 0.0000 0.0000
# 5 0.0000 0.0000 0.0000 0.0000 -12.5120 0.0000
# 6 0.0000 0.0000 0.0000 0.0000 0.0000 31.0973
#
#
#
# Elastic Compliance Matrix: (Units=1/GPa)
#
#
# Indices 1 2 3 4 5 6 
#
# 1 0.011524 -0.002054 -0.004651 0.000000 0.000000 0.000000
# 2 -0.002054 0.011524 -0.004651 0.000000 0.000000 0.000000
# 3 -0.004651 -0.004651 0.014086 0.000000 0.000000 0.000000
# 4 0.000000 0.000000 0.000000 -0.079923 0.000000 0.000000
# 5 0.000000 0.000000 0.000000 0.000000 -0.079923 0.000000
# 6 0.000000 0.000000 0.000000 0.000000 0.000000 0.032157
#
#
# Mechanical properties :
#
#
# Convention : Reuss Voigt Hill
#
# Bulk Modulus (GPa) = 69.33640 69.33661 69.33651
# Shear Modulus (GPa) = -79.32172 13.91305 -32.70434
#
# Velocity S-wave (km/s) = -6.05545 2.53607 -3.88824
# Velocity P-wave (km/s) = 4.10351 6.37402 3.44887
#
# Compressibility (1/GPa) = 0.01442244
#
# Stress axis : x y z
#
# Youngs Moduli (GPa) = 86.77387 86.77387 70.99032
#
# Poissons Ratio (x) = 0.17821 0.33019
# Poissons Ratio (y) = 0.17821 0.33019
# Poissons Ratio (z) = 0.40360 0.40360
#
# Static dielectric constant tensor:
#      x y z
#    x 4.053010 0.000000 0.000000 
#    y 0.000000 4.053010 0.000000 
#    z 0.000000 0.000000 3.733100 
# 
# 
# High freq. dielectric constant tensor:
#      x y z
#    x 1.862680 0.000000 0.000000 
#    y 0.000000 1.862680 0.000000 
#    z 0.000000 0.000000 1.861540 
# 
# From -- ./inp_files/9023.got.cif
#   From: 2010.03.12/outbox.cif.g09.slc.cpg/sg122_5_cif.got.tgz:9023.got - 2010.04.06 16:17:16.
