data_PCOD8312085
_publ_section_title
;
Structure prediction by ZEFSAII (Michael W. Deem and Ramdas Pophale) SiO2 
 PCOD8312085
Probable space group: I -4 2 D
;
_chemical_formula_sum "Si O2"
_cell_formula_units_Z 40
_cell_length_a 13.562190
_cell_length_b 13.562190
_cell_length_c 8.453979
_cell_angle_alpha 90.000000
_cell_angle_beta 90.000000
_cell_angle_gamma 90.000000
_cell_volume 1554.965699
_symmetry_space_group_name_H-M "I -4 2 D"
_symmetry_group_IT_number 122
_symmetry_cell_setting 'tetragonal'
loop_
_space_group_symop_operation_xyz
x,y,z
y,-x,-z
-x,-y,z
-y,x,-z
x,1/2-y,1/4-z
-x,1/2+y,1/4-z
-y,1/2-x,1/4+z
y,1/2+x,1/4+z
1/2+x,1/2+y,1/2+z
1/2+y,1/2-x,1/2-z
1/2-x,1/2-y,1/2+z
1/2-y,1/2+x,1/2-z
1/2+x,-y,3/4-z
1/2-x,y,3/4-z
1/2-y,-x,3/4+z
1/2+y,x,3/4+z
loop_
_atom_site_type_symbol
_atom_site_label
_atom_site_fract_x
_atom_site_fract_y
_atom_site_fract_z
Si Si1 0.905839 0.615529 0.319643
Si Si2 0.891391 0.900550 0.562784
Si Si3 0.750000 0.731989 0.875000
O O1 0.862625 0.510434 0.262666
O O2 0.920370 0.617702 0.507243
O O3 0.827384 0.700134 0.278087
O O4 0.799281 0.835512 0.509293
O O5 0.984264 0.867467 0.456858
#
# Coordination Sequence:
#
# PCOD8312085 Si02
#       3
#    16  16   8
#     4  11  27  52  80 118 162 207 265 336 399 475
#     4  11  27  51  82 115 163 210 266 332 397 480
#     4  12  30  48  84 118 156 216 266 322 402 474
#
# _framework density 25.724041
#
# number of rings (size 3 to 8) (size 9 to 14) (size 15 to 20)
#    0.000    0.800    0.000    6.000   11.200    9.600 
#    0.000    0.000    0.000    0.000    0.000    0.000 
#    0.000    0.000    0.000    0.000    0.000    0.000 
#
# Total GULP energy -248131.842779 kJ/mol
# GULP energy per Si atom -12406.592139 kJ/mol
# Density = 2.566549 g / cm^3
# Si number density = 25.724041 Si / 1000 Ang^3
#
#
#
# Elastic Constant Matrix: (Units=GPa)
#
#
# Indices 1 2 3 4 5 6 
#
# 1 113.1116 81.0722 38.1380 0.0000 0.0000 0.0000
# 2 81.0722 113.1116 38.1380 0.0000 0.0000 0.0000
# 3 38.1380 38.1380 87.6012 0.0000 0.0000 0.0000
# 4 0.0000 0.0000 0.0000 43.8255 0.0000 0.0000
# 5 0.0000 0.0000 0.0000 0.0000 43.8255 0.0000
# 6 0.0000 0.0000 0.0000 0.0000 0.0000 71.0562
#
#
#
# Elastic Compliance Matrix: (Units=1/GPa)
#
#
# Indices 1 2 3 4 5 6 
#
# 1 0.018712 -0.012500 -0.002704 0.000000 0.000000 0.000000
# 2 -0.012500 0.018712 -0.002704 0.000000 0.000000 0.000000
# 3 -0.002704 -0.002704 0.013770 0.000000 0.000000 0.000000
# 4 0.000000 0.000000 0.000000 0.022818 0.000000 0.000000
# 5 0.000000 0.000000 0.000000 0.000000 0.022818 0.000000
# 6 0.000000 0.000000 0.000000 0.000000 0.000000 0.014073
#
#
# Mechanical properties :
#
#
# Convention : Reuss Voigt Hill
#
# Bulk Modulus (GPa) = 65.03461 69.83567 67.43514
# Shear Modulus (GPa) = 32.92814 42.17318 37.55066
#
# Velocity S-wave (km/s) = 3.58166 4.05340 3.82481
# Velocity P-wave (km/s) = 6.51467 7.00812 6.76589
#
# Compressibility (1/GPa) = 0.01537643
#
# Stress axis : x y z
#
# Youngs Moduli (GPa) = 53.44208 53.44208 72.62049
#
# Poissons Ratio (x) = 0.66801 0.19640
# Poissons Ratio (y) = 0.66801 0.19640
# Poissons Ratio (z) = 0.14453 0.14453
#
# Static dielectric constant tensor:
#      x y z
#    x 5.037440 0.000000 0.000000 
#    y 0.000000 5.037440 0.000000 
#    z 0.000000 0.000000 4.409880 
# 
# 
# High freq. dielectric constant tensor:
#      x y z
#    x 2.040770 0.000000 0.000000 
#    y 0.000000 2.040770 0.000000 
#    z 0.000000 0.000000 2.036250 
# 
# From -- ./inp_files/1850.got.cif
#   From: 2010.03.12/outbox.cif.g09.slc.cpg/sg122_1_cif.got.tgz:1850.got - 2010.04.06 16:17:16.
