data_PCOD8312541
_publ_section_title
;
Structure prediction by ZEFSAII (Michael W. Deem and Ramdas Pophale) SiO2 
 PCOD8312541
Probable space group: P 4/M M M
;
_chemical_formula_sum "Si O2"
_cell_formula_units_Z 96
_cell_length_a 20.967035
_cell_length_b 20.967035
_cell_length_c 12.445419
_cell_angle_alpha 90.000000
_cell_angle_beta 90.000000
_cell_angle_gamma 90.000000
_cell_volume 5471.212247
_symmetry_space_group_name_H-M "P 4/M M M"
_symmetry_group_IT_number 123
_symmetry_cell_setting 'tetragonal'
loop_
_space_group_symop_operation_xyz
x,y,z
-y,x,z
-x,-y,z
y,-x,z
x,-y,-z
-x,y,-z
y,x,-z
-y,-x,-z
-x,-y,-z
y,-x,-z
x,y,-z
-y,x,-z
-x,y,z
x,-y,z
-y,-x,z
y,x,z
loop_
_atom_site_type_symbol
_atom_site_label
_atom_site_fract_x
_atom_site_fract_y
_atom_site_fract_z
Si Si1 0.672465 0.573335 0.272438
Si Si2 0.681841 0.107186 0.124924
Si Si3 0.575935 0.860927 0.500000
Si Si4 0.248822 0.354423 0.119719
Si Si5 0.571812 0.927612 0.285080
Si Si6 0.720661 0.425054 0.500000
Si Si7 0.824062 0.927638 0.127352
O O1 0.655317 0.500000 0.263130
O O2 0.611924 0.611924 0.226476
O O3 0.735810 0.588388 0.202562
O O4 0.682771 0.595839 0.394534
O O5 0.678276 0.182206 0.143931
O O6 0.622332 0.076753 0.187926
O O7 0.751572 0.085536 0.168669
O O8 0.674086 0.087934 0.000000
O O9 0.500000 0.863589 0.500000
O O10 0.600487 0.892871 0.390067
O O11 0.606075 0.790428 0.500000
O O12 0.299668 0.299668 0.136873
O O13 0.250972 0.383400 0.000000
O O14 0.500000 0.901921 0.252728
O O15 0.564664 0.000000 0.319357
O O16 0.731110 0.500000 0.500000
O O17 0.876084 0.876084 0.173522
O O18 0.843642 0.000000 0.161839
O O19 0.823640 0.921190 0.000000
#
# Coordination Sequence:
#
# PCOD8312541 Si02
#       7
#    16  16   8  16  16   8  16
#     4  10  20  33  49  69  93 121 154 195 244 294
#     4  10  19  31  48  70  98 130 161 195 241 293
#     4   9  17  31  50  68  88 119 159 200 242 285
#     4   9  18  32  49  68  90 118 154 195 235 278
#     4  10  20  32  46  66  94 128 164 199 235 279
#     4   9  17  30  48  68  88 110 143 187 232 283
#     4   9  17  29  46  69  98 132 168 204 242 288
#
# _framework density 17.546385999999998
#
# number of rings (size 3 to 8) (size 9 to 14) (size 15 to 20)
#    0.000    2.500    0.000    2.500    0.000    7.000 
#    0.000    3.333    0.000    1.500    0.000    2.333 
#    0.000    0.000    0.000    0.000    0.000    5.167 
#
# Total GULP energy -1189718.468024 kJ/mol
# GULP energy per Si atom -12392.900709 kJ/mol
# Density = 1.750645 g / cm^3
# Si number density = 17.546386 Si / 1000 Ang^3
#
#
#
# Elastic Constant Matrix: (Units=GPa)
#
#
# Indices 1 2 3 4 5 6 
#
# 1 95.9648 43.3298 30.5460 0.0000 0.0000 0.0000
# 2 43.3298 95.9648 30.5460 0.0000 0.0000 0.0000
# 3 30.5460 30.5460 52.1584 0.0000 0.0000 0.0000
# 4 0.0000 0.0000 0.0000 45.8738 0.0000 0.0000
# 5 0.0000 0.0000 0.0000 0.0000 45.8738 0.0000
# 6 0.0000 0.0000 0.0000 0.0000 0.0000 22.2813
#
#
#
# Elastic Compliance Matrix: (Units=1/GPa)
#
#
# Indices 1 2 3 4 5 6 
#
# 1 0.014330 -0.004669 -0.005657 0.000000 0.000000 0.000000
# 2 -0.004669 0.014330 -0.005657 0.000000 0.000000 0.000000
# 3 -0.005657 -0.005657 0.025799 0.000000 0.000000 0.000000
# 4 0.000000 0.000000 0.000000 0.021799 0.000000 0.000000
# 5 0.000000 0.000000 0.000000 0.000000 0.021799 0.000000
# 6 0.000000 0.000000 0.000000 0.000000 0.000000 0.044881
#
#
# Mechanical properties :
#
#
# Convention : Reuss Voigt Hill
#
# Bulk Modulus (GPa) = 44.46498 50.32574 47.39536
# Shear Modulus (GPa) = 27.41213 32.11687 29.76450
#
# Velocity S-wave (km/s) = 3.95684 4.28296 4.12312
# Velocity P-wave (km/s) = 6.80234 7.29398 7.05244
#
# Compressibility (1/GPa) = 0.02248961
#
# Stress axis : x y z
#
# Youngs Moduli (GPa) = 69.78604 69.78604 38.76151
#
# Poissons Ratio (x) = 0.32585 0.21929
# Poissons Ratio (y) = 0.32585 0.21929
# Poissons Ratio (z) = 0.39481 0.39481
#
# Static dielectric constant tensor:
#      x y z
#    x 3.311630 0.000000 0.000000 
#    y 0.000000 3.311630 0.000000 
#    z 0.000000 0.000000 3.173990 
# 
# 
# High freq. dielectric constant tensor:
#      x y z
#    x 1.676610 0.000000 0.000000 
#    y 0.000000 1.676610 0.000000 
#    z 0.000000 0.000000 1.652280 
# 
# From -- ./inp_files/3212.got.cif
#   From: 2010.03.12/outbox.cif.g09.slc.cpg/sg123_2_cif.got.tgz:3212.got - 2010.04.06 16:26:55.
