data_PCOD8312943
_publ_section_title
;
Structure prediction by ZEFSAII (Michael W. Deem and Ramdas Pophale) SiO2 
 PCOD8312943
Probable space group: P 4/M M M
;
_chemical_formula_sum "Si O2"
_cell_formula_units_Z 120
_cell_length_a 28.097560
_cell_length_b 28.097560
_cell_length_c 7.814134
_cell_angle_alpha 90.000000
_cell_angle_beta 90.000000
_cell_angle_gamma 90.000000
_cell_volume 6169.046858
_symmetry_space_group_name_H-M "P 4/M M M"
_symmetry_group_IT_number 123
_symmetry_cell_setting 'tetragonal'
loop_
_space_group_symop_operation_xyz
x,y,z
-y,x,z
-x,-y,z
y,-x,z
x,-y,-z
-x,y,-z
y,x,-z
-y,-x,-z
-x,-y,-z
y,-x,-z
x,y,-z
-y,x,-z
-x,y,z
x,-y,z
-y,-x,z
y,x,z
loop_
_atom_site_type_symbol
_atom_site_label
_atom_site_fract_x
_atom_site_fract_y
_atom_site_fract_z
Si Si1 0.793052 0.055095 0.799392
Si Si2 0.641127 0.195077 0.804712
Si Si3 0.553041 0.628502 0.299601
Si Si4 0.446881 0.139258 0.699654
Si Si5 0.298934 0.109895 0.806080
Si Si6 0.052749 0.614637 0.302117
Si Si7 0.625988 0.298504 0.202794
Si Si8 0.866057 0.944944 0.500000
O O1 0.749978 0.088709 0.729461
O O2 0.836934 0.066582 0.674033
O O3 0.777564 0.000000 0.778508
O O4 0.806028 0.065208 0.000000
O O5 0.588218 0.173849 0.800091
O O6 0.679780 0.158569 0.716733
O O7 0.638115 0.246852 0.715175
O O8 0.656622 0.201539 0.000000
O O9 0.549353 0.620741 0.500000
O O10 0.500000 0.625370 0.218345
O O11 0.587143 0.587143 0.219428
O O12 0.575029 0.680704 0.261952
O O13 0.443971 0.151569 0.500000
O O14 0.500000 0.146419 0.771031
O O15 0.431464 0.084901 0.734598
O O16 0.339506 0.069913 0.801956
O O17 0.287525 0.122552 0.000000
O O18 0.054880 0.629284 0.500000
O O19 0.000000 0.601039 0.241983
O O20 0.666518 0.333483 0.272802
O O21 0.625723 0.294808 0.000000
O O22 0.913271 0.913271 0.500000
O O23 0.881757 0.000000 0.500000
#
# Coordination Sequence:
#
# PCOD8312943 Si02
#       8
#    16  16  16  16  16  16  16   8
#     4   9  18  33  55  83 113 146 182 222 271 322
#     4   9  18  32  49  69  92 122 161 203 248 294
#     4   9  18  32  50  72  96 121 150 187 234 289
#     4   9  18  31  44  61  88 122 159 200 246 291
#     4   9  17  30  48  72 100 129 164 208 257 306
#     4   9  17  27  42  65  90 122 163 205 249 296
#     4   9  18  33  51  69  91 120 154 190 227 275
#     4  10  22  39  60  86 116 150 185 223 263 309
#
# _framework density 19.45195
#
# number of rings (size 3 to 8) (size 9 to 14) (size 15 to 20)
#    0.000    2.933    0.000    0.400    0.933    3.133 
#    0.000    5.333    0.000    2.400    0.000    7.467 
#    0.000    0.000    0.000    0.000    0.000    0.000 
#
# Total GULP energy -1486878.838183 kJ/mol
# GULP energy per Si atom -12390.656985 kJ/mol
# Density = 1.940768 g / cm^3
# Si number density = 19.451950 Si / 1000 Ang^3
#
#
#
# Elastic Constant Matrix: (Units=GPa)
#
#
# Indices 1 2 3 4 5 6 
#
# 1 139.4035 69.3316 19.4211 0.0000 0.0000 0.0000
# 2 69.3316 139.4035 19.4211 0.0000 0.0000 0.0000
# 3 19.4211 19.4211 36.4850 0.0000 0.0000 0.0000
# 4 0.0000 0.0000 0.0000 20.8350 0.0000 0.0000
# 5 0.0000 0.0000 0.0000 0.0000 20.8350 0.0000
# 6 0.0000 0.0000 0.0000 0.0000 0.0000 21.2529
#
#
#
# Elastic Compliance Matrix: (Units=1/GPa)
#
#
# Indices 1 2 3 4 5 6 
#
# 1 0.009794 -0.004477 -0.002831 0.000000 0.000000 0.000000
# 2 -0.004477 0.009794 -0.002831 0.000000 0.000000 0.000000
# 3 -0.002831 -0.002831 0.030422 0.000000 0.000000 0.000000
# 4 0.000000 0.000000 0.000000 0.047996 0.000000 0.000000
# 5 0.000000 0.000000 0.000000 0.000000 0.047996 0.000000
# 6 0.000000 0.000000 0.000000 0.000000 0.000000 0.047052
#
#
# Mechanical properties :
#
#
# Convention : Reuss Voigt Hill
#
# Bulk Modulus (GPa) = 33.63064 59.07109 46.35086
# Shear Modulus (GPa) = 22.39718 26.39246 24.39482
#
# Velocity S-wave (km/s) = 3.39693 3.68748 3.54518
# Velocity P-wave (km/s) = 5.71945 6.96876 6.37478
#
# Compressibility (1/GPa) = 0.02973479
#
# Stress axis : x y z
#
# Youngs Moduli (GPa) = 102.10063 102.10063 32.87105
#
# Poissons Ratio (x) = 0.45708 0.09304
# Poissons Ratio (y) = 0.45708 0.09304
# Poissons Ratio (z) = 0.28900 0.28900
#
# Static dielectric constant tensor:
#      x y z
#    x 3.671690 0.000000 0.000000 
#    y 0.000000 3.671690 0.000000 
#    z 0.000000 0.000000 3.349430 
# 
# 
# High freq. dielectric constant tensor:
#      x y z
#    x 1.747430 0.000000 0.000000 
#    y 0.000000 1.747430 0.000000 
#    z 0.000000 0.000000 1.740270 
# 
# From -- ./inp_files/2010.got.cif
#   From: 2010.03.12/outbox.cif.g09.slc.cpg/sg123_2_cif.got.tgz:2010.got - 2010.04.06 16:26:55.
