data_PCOD8312534
_publ_section_title
;
Structure prediction by ZEFSAII (Michael W. Deem and Ramdas Pophale) SiO2 
 PCOD8312534
Probable space group: P 4/M M M
;
_chemical_formula_sum "Si O2"
_cell_formula_units_Z 128
_cell_length_a 18.636090
_cell_length_b 18.636090
_cell_length_c 23.595687
_cell_angle_alpha 90.000000
_cell_angle_beta 90.000000
_cell_angle_gamma 90.000000
_cell_volume 8194.872950
_symmetry_space_group_name_H-M "P 4/M M M"
_symmetry_group_IT_number 123
_symmetry_cell_setting 'tetragonal'
loop_
_space_group_symop_operation_xyz
x,y,z
-y,x,z
-x,-y,z
y,-x,z
x,-y,-z
-x,y,-z
y,x,-z
-y,-x,-z
-x,-y,-z
y,-x,-z
x,y,-z
-y,x,-z
-x,y,z
x,-y,z
-y,-x,z
y,x,z
loop_
_atom_site_type_symbol
_atom_site_label
_atom_site_fract_x
_atom_site_fract_y
_atom_site_fract_z
Si Si1 0.919609 0.803756 0.763635
Si Si2 0.918640 0.330104 0.839685
Si Si3 0.083757 0.701380 0.665227
Si Si4 0.806376 0.691277 0.063521
Si Si5 0.693817 0.581376 0.904666
Si Si6 0.917517 0.199869 0.564917
Si Si7 0.583422 0.852674 0.736595
Si Si8 0.420126 0.304885 0.772962
O O1 0.871683 0.871683 0.778004
O O2 0.916606 0.750233 0.816287
O O3 0.890112 0.763267 0.708087
O O4 0.000000 0.831853 0.753118
O O5 0.872523 0.328882 0.896673
O O6 0.888936 0.386059 0.793502
O O7 0.000000 0.352831 0.854666
O O8 0.102142 0.729796 0.602161
O O9 0.122361 0.626420 0.680331
O O10 0.000000 0.687017 0.674167
O O11 0.760774 0.760774 0.085325
O O12 0.753964 0.623000 0.060353
O O13 0.835400 0.705523 0.000000
O O14 0.691531 0.500000 0.925733
O O15 0.615595 0.615595 0.915814
O O16 0.713926 0.588953 0.838757
O O17 0.905922 0.222815 0.500000
O O18 0.867769 0.132232 0.581123
O O19 0.000000 0.176591 0.576478
O O20 0.500000 0.873945 0.730477
O O21 0.593881 0.767447 0.738493
O O22 0.500000 0.334832 0.761425
O O23 0.364323 0.364323 0.751601
#
# Coordination Sequence:
#
# PCOD8312534 Si02
#       8
#    16  16  16  16  16  16  16  16
#     4   9  17  28  43  64  89 115 143 176 215 262
#     4  10  20  32  47  66  86 110 141 181 227 268
#     4   9  18  30  43  63  90 120 154 190 228 265
#     4  10  20  33  49  66  85 113 145 176 216 266
#     4   9  17  30  46  65  88 111 137 167 201 245
#     4   9  17  29  45  66  94 127 162 198 233 271
#     4  10  19  31  48  69  91 116 149 188 227 271
#     4   9  17  28  44  66  90 116 143 172 210 256
#
# _framework density 15.619522
#
# number of rings (size 3 to 8) (size 9 to 14) (size 15 to 20)
#    0.000    2.625    1.250    1.875    0.000    4.500 
#    0.000    1.875    0.000    2.625    0.000    5.250 
#    0.000    0.000    0.000   11.625    0.000    0.000 
#
# Total GULP energy -1586881.433308 kJ/mol
# GULP energy per Si atom -12397.511198 kJ/mol
# Density = 1.558397 g / cm^3
# Si number density = 15.619522 Si / 1000 Ang^3
#
#
#
# Elastic Constant Matrix: (Units=GPa)
#
#
# Indices 1 2 3 4 5 6 
#
# 1 93.7418 54.2420 38.3922 0.0000 0.0000 0.0000
# 2 54.2420 93.7418 38.3922 0.0000 0.0000 0.0000
# 3 38.3922 38.3922 71.2958 0.0000 0.0000 0.0000
# 4 0.0000 0.0000 0.0000 17.2364 0.0000 0.0000
# 5 0.0000 0.0000 0.0000 0.0000 17.2364 0.0000
# 6 0.0000 0.0000 0.0000 0.0000 0.0000 24.8377
#
#
#
# Elastic Compliance Matrix: (Units=1/GPa)
#
#
# Indices 1 2 3 4 5 6 
#
# 1 0.017347 -0.007969 -0.005050 0.000000 0.000000 0.000000
# 2 -0.007969 0.017347 -0.005050 0.000000 0.000000 0.000000
# 3 -0.005050 -0.005050 0.019465 0.000000 0.000000 0.000000
# 4 0.000000 0.000000 0.000000 0.058017 0.000000 0.000000
# 5 0.000000 0.000000 0.000000 0.000000 0.058017 0.000000
# 6 0.000000 0.000000 0.000000 0.000000 0.000000 0.040261
#
#
# Mechanical properties :
#
#
# Convention : Reuss Voigt Hill
#
# Bulk Modulus (GPa) = 55.49151 57.87026 56.68088
# Shear Modulus (GPa) = 19.79422 20.37895 20.08658
#
# Velocity S-wave (km/s) = 3.56374 3.61600 3.58996
# Velocity P-wave (km/s) = 7.24830 7.38676 7.31786
#
# Compressibility (1/GPa) = 0.01802078
#
# Stress axis : x y z
#
# Youngs Moduli (GPa) = 57.64642 57.64642 51.37518
#
# Poissons Ratio (x) = 0.45941 0.25944
# Poissons Ratio (y) = 0.45941 0.25944
# Poissons Ratio (z) = 0.29110 0.29110
#
# Static dielectric constant tensor:
#      x y z
#    x 2.962960 0.000000 0.000000 
#    y 0.000000 2.962960 0.000000 
#    z 0.000000 0.000000 2.822680 
# 
# 
# High freq. dielectric constant tensor:
#      x y z
#    x 1.595440 0.000000 0.000000 
#    y 0.000000 1.595440 0.000000 
#    z 0.000000 0.000000 1.574590 
# 
# From -- ./inp_files/7649.got.cif
#   From: 2010.03.12/outbox.cif.g09.slc.cpg/sg123_4_cif.got.tgz:7649.got - 2010.04.06 16:26:55.
