data_PCOD8312918
_publ_section_title
;
Structure prediction by ZEFSAII (Michael W. Deem and Ramdas Pophale) SiO2 
 PCOD8312918
Probable space group: P 4/M M M
;
_chemical_formula_sum "Si O2"
_cell_formula_units_Z 96
_cell_length_a 23.211943
_cell_length_b 23.211943
_cell_length_c 8.928394
_cell_angle_alpha 90.000000
_cell_angle_beta 90.000000
_cell_angle_gamma 90.000000
_cell_volume 4810.567776
_symmetry_space_group_name_H-M "P 4/M M M"
_symmetry_group_IT_number 123
_symmetry_cell_setting 'tetragonal'
loop_
_space_group_symop_operation_xyz
x,y,z
-y,x,z
-x,-y,z
y,-x,z
x,-y,-z
-x,y,-z
y,x,-z
-y,-x,-z
-x,-y,-z
y,-x,-z
x,y,-z
-y,x,-z
-x,y,z
x,-y,z
-y,-x,z
y,x,z
loop_
_atom_site_type_symbol
_atom_site_label
_atom_site_fract_x
_atom_site_fract_y
_atom_site_fract_z
Si Si1 0.934788 0.328201 0.675313
Si Si2 0.565617 0.657842 0.174561
Si Si3 0.153113 0.935681 0.333140
Si Si4 0.236044 0.144695 0.174590
Si Si5 0.228972 0.431817 0.667132
Si Si6 0.112773 0.565996 0.176693
O O1 0.925189 0.334224 0.500000
O O2 0.879974 0.291805 0.738268
O O3 0.933654 0.391902 0.747770
O O4 0.000000 0.302846 0.708419
O O5 0.500000 0.645262 0.222185
O O6 0.601595 0.601595 0.218881
O O7 0.592597 0.712317 0.261460
O O8 0.570004 0.672229 0.000000
O O9 0.182442 0.930696 0.500000
O O10 0.088754 0.911247 0.342844
O O11 0.187839 0.902371 0.207043
O O12 0.148983 0.000000 0.277078
O O13 0.207814 0.207814 0.223119
O O14 0.251260 0.146546 0.000000
O O15 0.221046 0.406661 0.500000
O O16 0.233686 0.500000 0.663783
O O17 0.175609 0.413156 0.769265
O O18 0.100112 0.500000 0.226142
O O19 0.109386 0.572330 0.000000
#
# Coordination Sequence:
#
# PCOD8312918 Si02
#       6
#    16  16  16  16  16  16
#     4  11  24  40  60  88 121 156 192 231 278 333
#     4   9  17  29  46  70 102 141 186 237 293 353
#     4   9  17  29  46  69  98 133 173 217 265 317
#     4  10  21  37  57  80 107 142 185 232 279 325
#     4   9  17  31  52  75 100 133 174 220 270 326
#     4  10  21  38  61  87 115 148 185 227 278 336
#
# _framework density 19.956063
#
# number of rings (size 3 to 8) (size 9 to 14) (size 15 to 20)
#    0.000    2.333    0.000    2.500    0.000    8.667 
#    0.000    4.167    0.000    5.000    0.000    4.667 
#    0.000    0.000    0.000    0.000    0.000    0.000 
#
# Total GULP energy -1189483.501189 kJ/mol
# GULP energy per Si atom -12390.453137 kJ/mol
# Density = 1.991064 g / cm^3
# Si number density = 19.956063 Si / 1000 Ang^3
#
#
#
# Elastic Constant Matrix: (Units=GPa)
#
#
# Indices 1 2 3 4 5 6 
#
# 1 88.0230 35.0707 37.4448 0.0000 0.0000 0.0000
# 2 35.0707 88.0230 37.4448 0.0000 0.0000 0.0000
# 3 37.4448 37.4448 85.9261 0.0000 0.0000 0.0000
# 4 0.0000 0.0000 0.0000 29.2088 0.0000 0.0000
# 5 0.0000 0.0000 0.0000 0.0000 29.2088 0.0000
# 6 0.0000 0.0000 0.0000 0.0000 0.0000 26.1861
#
#
#
# Elastic Compliance Matrix: (Units=1/GPa)
#
#
# Indices 1 2 3 4 5 6 
#
# 1 0.014970 -0.003915 -0.004817 0.000000 0.000000 0.000000
# 2 -0.003915 0.014970 -0.004817 0.000000 0.000000 0.000000
# 3 -0.004817 -0.004817 0.015837 0.000000 0.000000 0.000000
# 4 0.000000 0.000000 0.000000 0.034236 0.000000 0.000000
# 5 0.000000 0.000000 0.000000 0.000000 0.034236 0.000000
# 6 0.000000 0.000000 0.000000 0.000000 0.000000 0.038188
#
#
# Mechanical properties :
#
#
# Convention : Reuss Voigt Hill
#
# Bulk Modulus (GPa) = 53.54352 53.54364 53.54358
# Shear Modulus (GPa) = 26.91607 27.05484 26.98546
#
# Velocity S-wave (km/s) = 3.67654 3.68601 3.68128
# Velocity P-wave (km/s) = 6.70161 6.70854 6.70508
#
# Compressibility (1/GPa) = 0.01867640
#
# Stress axis : x y z
#
# Youngs Moduli (GPa) = 66.80084 66.80084 63.14481
#
# Poissons Ratio (x) = 0.26153 0.30420
# Poissons Ratio (y) = 0.26153 0.30420
# Poissons Ratio (z) = 0.32181 0.32181
#
# Static dielectric constant tensor:
#      x y z
#    x 3.691850 0.000000 0.000000 
#    y 0.000000 3.691850 0.000000 
#    z 0.000000 0.000000 3.649330 
# 
# 
# High freq. dielectric constant tensor:
#      x y z
#    x 1.769100 0.000000 0.000000 
#    y 0.000000 1.769100 0.000000 
#    z 0.000000 0.000000 1.778320 
# 
# From -- ./inp_files/1605.got.cif
#   From: 2010.03.12/outbox.cif.g09.slc.cpg/sg123_1_cif.got.tgz:1605.got - 2010.04.06 16:26:55.
