data_PCOD8312070
_publ_section_title
;
Structure prediction by ZEFSAII (Michael W. Deem and Ramdas Pophale) SiO2 
 PCOD8312070
Probable space group: I -4 2 D
;
_chemical_formula_sum "Si O2"
_cell_formula_units_Z 64
_cell_length_a 10.469206
_cell_length_b 10.469206
_cell_length_c 24.839242
_cell_angle_alpha 90.000000
_cell_angle_beta 90.000000
_cell_angle_gamma 90.000000
_cell_volume 2722.487093
_symmetry_space_group_name_H-M "I -4 2 D"
_symmetry_group_IT_number 122
_symmetry_cell_setting 'tetragonal'
loop_
_space_group_symop_operation_xyz
x,y,z
y,-x,-z
-x,-y,z
-y,x,-z
x,1/2-y,1/4-z
-x,1/2+y,1/4-z
-y,1/2-x,1/4+z
y,1/2+x,1/4+z
1/2+x,1/2+y,1/2+z
1/2+y,1/2-x,1/2-z
1/2-x,1/2-y,1/2+z
1/2-y,1/2+x,1/2-z
1/2+x,-y,3/4-z
1/2-x,y,3/4-z
1/2-y,-x,3/4+z
1/2+y,x,3/4+z
loop_
_atom_site_type_symbol
_atom_site_label
_atom_site_fract_x
_atom_site_fract_y
_atom_site_fract_z
Si Si1 0.534853 0.640420 0.582258
Si Si2 0.113505 0.348015 0.770787
Si Si3 0.058857 0.750000 0.625000
Si Si4 0.232620 0.406295 0.517055
Si Si5 0.000000 0.500000 0.932016
O O1 0.500000 0.500000 0.605212
O O2 0.505903 0.750000 0.625000
O O3 0.450982 0.672075 0.529704
O O4 0.683714 0.635579 0.568083
O O5 0.152458 0.458299 0.727579
O O6 0.181562 0.357867 0.828715
O O7 0.147469 0.212339 0.748183
O O8 0.976948 0.868740 0.648459
O O9 0.130256 0.517416 0.532941
#
# Coordination Sequence:
#
# PCOD8312070 Si02
#       5
#    16  16   8  16   8
#     4  12  29  49  79 109 153 207 262 325 403 470
#     4  11  25  46  74 110 157 202 259 328 392 466
#     4  12  26  46  76 114 152 206 262 320 400 472
#     4  12  26  52  71 111 158 196 260 337 383 478
#     4  12  28  46  77 112 150 201 260 320 402 468
#
# _framework density 23.507916999999999
#
# number of rings (size 3 to 8) (size 9 to 14) (size 15 to 20)
#    0.000    0.250    5.000    3.000    5.250    0.000 
#    0.000    0.000    0.000    0.000    0.000    0.000 
#    0.000    0.000    0.000    0.000    0.000    0.000 
#
# Total GULP energy -396657.770049 kJ/mol
# GULP energy per Si atom -12395.555314 kJ/mol
# Density = 2.345441 g / cm^3
# Si number density = 23.507917 Si / 1000 Ang^3
#
#
#
# Elastic Constant Matrix: (Units=GPa)
#
#
# Indices 1 2 3 4 5 6 
#
# 1 141.4711 24.4594 38.9285 0.0000 0.0000 0.0000
# 2 24.4594 141.4711 38.9285 0.0000 0.0000 0.0000
# 3 38.9285 38.9285 105.8146 0.0000 0.0000 0.0000
# 4 0.0000 0.0000 0.0000 18.5388 0.0000 0.0000
# 5 0.0000 0.0000 0.0000 0.0000 18.5388 0.0000
# 6 0.0000 0.0000 0.0000 0.0000 0.0000 31.5390
#
#
#
# Elastic Compliance Matrix: (Units=1/GPa)
#
#
# Indices 1 2 3 4 5 6 
#
# 1 0.007915 -0.000631 -0.002680 0.000000 0.000000 0.000000
# 2 -0.000631 0.007915 -0.002680 0.000000 0.000000 0.000000
# 3 -0.002680 -0.002680 0.011422 0.000000 0.000000 0.000000
# 4 0.000000 0.000000 0.000000 0.053941 0.000000 0.000000
# 5 0.000000 0.000000 0.000000 0.000000 0.053941 0.000000
# 6 0.000000 0.000000 0.000000 0.000000 0.000000 0.031707
#
#
# Mechanical properties :
#
#
# Convention : Reuss Voigt Hill
#
# Bulk Modulus (GPa) = 65.48250 65.93217 65.70733
# Shear Modulus (GPa) = 27.18682 32.81934 30.00308
#
# Velocity S-wave (km/s) = 3.40442 3.74049 3.57641
# Velocity P-wave (km/s) = 6.58555 6.83833 6.71313
#
# Compressibility (1/GPa) = 0.01527126
#
# Stress axis : x y z
#
# Youngs Moduli (GPa) = 126.34130 126.34130 87.54883
#
# Poissons Ratio (x) = 0.07973 0.23461
# Poissons Ratio (y) = 0.07973 0.23461
# Poissons Ratio (z) = 0.33856 0.33856
#
# Static dielectric constant tensor:
#      x y z
#    x 4.330690 0.000000 0.000000 
#    y 0.000000 4.330690 0.000000 
#    z 0.000000 0.000000 4.359480 
# 
# 
# High freq. dielectric constant tensor:
#      x y z
#    x 1.943420 0.000000 0.000000 
#    y 0.000000 1.943420 0.000000 
#    z 0.000000 0.000000 1.915620 
# 
# From -- ./inp_files/7892.got.cif
#   From: 2010.03.12/outbox.cif.g09.slc.cpg/sg122_4_cif.got.tgz:7892.got - 2010.04.06 16:17:16.
