data_PCOD8312304
_publ_section_title
;
Structure prediction by ZEFSAII (Michael W. Deem and Ramdas Pophale) SiO2 
 PCOD8312304
Probable space group: P 4/M M M
;
_chemical_formula_sum "Si O2"
_cell_formula_units_Z 96
_cell_length_a 13.857548
_cell_length_b 13.857548
_cell_length_c 30.718794
_cell_angle_alpha 90.000000
_cell_angle_beta 90.000000
_cell_angle_gamma 90.000000
_cell_volume 5898.980285
_symmetry_space_group_name_H-M "P 4/M M M"
_symmetry_group_IT_number 123
_symmetry_cell_setting 'tetragonal'
loop_
_space_group_symop_operation_xyz
x,y,z
-y,x,z
-x,-y,z
y,-x,z
x,-y,-z
-x,y,-z
y,x,-z
-y,-x,-z
-x,-y,-z
y,-x,-z
x,y,-z
-y,x,-z
-x,y,z
x,-y,z
-y,-x,z
y,x,z
loop_
_atom_site_type_symbol
_atom_site_label
_atom_site_fract_x
_atom_site_fract_y
_atom_site_fract_z
Si Si1 0.766820 0.610737 0.050552
Si Si2 0.892949 0.385443 0.292151
Si Si3 0.765987 0.385815 0.372120
Si Si4 0.114099 0.729907 0.885099
Si Si5 0.607121 0.885436 0.196623
Si Si6 0.107713 0.385506 0.548123
O O1 0.751742 0.500000 0.064806
O O2 0.668058 0.668058 0.061267
O O3 0.856287 0.657382 0.076285
O O4 0.793455 0.618494 0.000000
O O5 0.900004 0.500000 0.294422
O O6 0.823028 0.347386 0.329833
O O7 0.851982 0.355667 0.244431
O O8 0.000000 0.341662 0.299706
O O9 0.753110 0.500000 0.372221
O O10 0.659971 0.340030 0.371701
O O11 0.821289 0.346392 0.414796
O O12 0.167487 0.832514 0.890180
O O13 0.149107 0.681949 0.839883
O O14 0.000000 0.748256 0.886978
O O15 0.500000 0.842713 0.186894
O O16 0.599624 0.000000 0.196582
O O17 0.143996 0.353334 0.500000
O O18 0.104184 0.500000 0.550988
O O19 0.000000 0.344827 0.556485
#
# Coordination Sequence:
#
# PCOD8312304 Si02
#       6
#    16  16  16  16  16  16
#     4   9  18  32  50  73  98 121 146 178 219 268
#     4   8  14  26  44  64  84 105 134 178 227 265
#     4  10  19  28  39  57  83 116 148 172 197 236
#     4  10  20  32  46  65  90 121 156 191 225 262
#     4   8  14  26  45  67  87 106 133 175 227 277
#     4   8  14  26  44  62  77  95 124 168 219 256
#
# _framework density 16.273999
#
# number of rings (size 3 to 8) (size 9 to 14) (size 15 to 20)
#    0.000    3.167    0.000    2.500    0.000    4.833 
#    0.000    1.667    0.000    0.000    0.000    4.667 
#    0.000    9.333    0.000    7.333    0.000    0.667 
#
# Total GULP energy -1189801.544172 kJ/mol
# GULP energy per Si atom -12393.766085 kJ/mol
# Density = 1.623696 g / cm^3
# Si number density = 16.273999 Si / 1000 Ang^3
#
#
#
# Elastic Constant Matrix: (Units=GPa)
#
#
# Indices 1 2 3 4 5 6 
#
# 1 71.6235 38.7441 46.6330 0.0000 0.0000 0.0000
# 2 38.7441 71.6235 46.6330 0.0000 0.0000 0.0000
# 3 46.6330 46.6330 110.8840 0.0000 0.0000 0.0000
# 4 0.0000 0.0000 0.0000 15.5310 0.0000 0.0000
# 5 0.0000 0.0000 0.0000 0.0000 15.5310 0.0000
# 6 0.0000 0.0000 0.0000 0.0000 0.0000 12.7308
#
#
#
# Elastic Compliance Matrix: (Units=1/GPa)
#
#
# Indices 1 2 3 4 5 6 
#
# 1 0.022235 -0.008179 -0.005911 0.000000 0.000000 0.000000
# 2 -0.008179 0.022235 -0.005911 0.000000 0.000000 0.000000
# 3 -0.005911 -0.005911 0.013991 0.000000 0.000000 0.000000
# 4 0.000000 0.000000 0.000000 0.064387 0.000000 0.000000
# 5 0.000000 0.000000 0.000000 0.000000 0.064387 0.000000
# 6 0.000000 0.000000 0.000000 0.000000 0.000000 0.078550
#
#
# Mechanical properties :
#
#
# Convention : Reuss Voigt Hill
#
# Bulk Modulus (GPa) = 54.17948 57.57235 55.87592
# Shear Modulus (GPa) = 16.02868 16.89996 16.46432
#
# Velocity S-wave (km/s) = 3.14176 3.22602 3.18417
# Velocity P-wave (km/s) = 6.82094 7.02353 6.92297
#
# Compressibility (1/GPa) = 0.01845717
#
# Stress axis : x y z
#
# Youngs Moduli (GPa) = 44.97397 44.97397 71.47678
#
# Poissons Ratio (x) = 0.36785 0.42252
# Poissons Ratio (y) = 0.36785 0.42252
# Poissons Ratio (z) = 0.26586 0.26586
#
# Static dielectric constant tensor:
#      x y z
#    x 2.816110 0.000000 0.000000 
#    y 0.000000 2.816110 0.000000 
#    z 0.000000 0.000000 3.527180 
# 
# 
# High freq. dielectric constant tensor:
#      x y z
#    x 1.595240 0.000000 0.000000 
#    y 0.000000 1.595240 0.000000 
#    z 0.000000 0.000000 1.645800 
# 
# From -- ./inp_files/8628.got.cif
#   From: 2010.03.12/outbox.cif.g09.slc.cpg/sg123_5_cif.got.tgz:8628.got - 2010.04.06 16:26:55.
