data_PCOD8312694
_publ_section_title
;
Structure prediction by ZEFSAII (Michael W. Deem and Ramdas Pophale) SiO2 
 PCOD8312694
Probable space group: P 4/M M M
;
_chemical_formula_sum "Si O2"
_cell_formula_units_Z 88
_cell_length_a 13.395869
_cell_length_b 13.395869
_cell_length_c 28.730350
_cell_angle_alpha 90.000000
_cell_angle_beta 90.000000
_cell_angle_gamma 90.000000
_cell_volume 5155.641376
_symmetry_space_group_name_H-M "P 4/M M M"
_symmetry_group_IT_number 123
_symmetry_cell_setting 'tetragonal'
loop_
_space_group_symop_operation_xyz
x,y,z
-y,x,z
-x,-y,z
y,-x,z
x,-y,-z
-x,y,-z
y,x,-z
-y,-x,-z
-x,-y,-z
y,-x,-z
x,y,-z
-y,x,-z
-x,y,z
x,-y,z
-y,-x,z
y,x,z
loop_
_atom_site_type_symbol
_atom_site_label
_atom_site_fract_x
_atom_site_fract_y
_atom_site_fract_z
Si Si1 0.228985 0.614552 0.050851
Si Si2 0.889211 0.618470 0.862647
Si Si3 0.381637 0.222360 0.330220
Si Si4 0.618057 0.111520 0.238917
Si Si5 0.717819 0.117683 0.586587
Si Si6 0.217892 0.381785 0.500000
O O1 0.246907 0.500000 0.061644
O O2 0.337560 0.662441 0.049838
O O3 0.167783 0.665134 0.093090
O O4 0.175941 0.629908 0.000000
O O5 0.891137 0.500000 0.867688
O O6 0.844043 0.649141 0.811985
O O7 0.000000 0.662118 0.865030
O O8 0.500000 0.237972 0.334215
O O9 0.328546 0.328546 0.340194
O O10 0.345749 0.184909 0.279493
O O11 0.344248 0.139889 0.366713
O O12 0.500000 0.102121 0.241453
O O13 0.663282 0.000000 0.245706
O O14 0.823273 0.176728 0.585896
O O15 0.647962 0.152781 0.544515
O O16 0.740624 0.000000 0.582988
O O17 0.239574 0.500000 0.500000
O O18 0.324142 0.324142 0.500000
#
# Coordination Sequence:
#
# PCOD8312694 Si02
#       6
#    16  16  16  16  16   8
#     4   9  17  27  38  54  78 109 143 176 210 253
#     4   8  14  25  41  60  80 103 135 177 223 266
#     4  10  20  32  47  69  96 127 163 199 234 275
#     4   8  14  26  44  63  82 107 141 181 224 268
#     4  10  21  36  54  77 102 128 162 203 247 295
#     4  10  21  36  54  78 106 136 171 206 240 282
#
# _framework density 17.068681999999999
#
# number of rings (size 3 to 8) (size 9 to 14) (size 15 to 20)
#    0.000    2.909    0.000    2.455    0.000    4.273 
#    0.000    2.727    0.000    4.909    0.000    5.091 
#    0.000    0.364    0.000    6.000    0.000    4.909 
#
# Total GULP energy -1090298.152793 kJ/mol
# GULP energy per Si atom -12389.751736 kJ/mol
# Density = 1.702983 g / cm^3
# Si number density = 17.068682 Si / 1000 Ang^3
#
#
#
# Elastic Constant Matrix: (Units=GPa)
#
#
# Indices 1 2 3 4 5 6 
#
# 1 79.4196 39.0765 45.4201 0.0000 0.0000 0.0000
# 2 39.0765 79.4196 45.4201 0.0000 0.0000 0.0000
# 3 45.4201 45.4201 150.1574 0.0000 0.0000 0.0000
# 4 0.0000 0.0000 0.0000 22.7434 0.0000 0.0000
# 5 0.0000 0.0000 0.0000 0.0000 22.7434 0.0000
# 6 0.0000 0.0000 0.0000 0.0000 0.0000 9.7006
#
#
#
# Elastic Compliance Matrix: (Units=1/GPa)
#
#
# Indices 1 2 3 4 5 6 
#
# 1 0.017887 -0.006900 -0.003323 0.000000 0.000000 0.000000
# 2 -0.006900 0.017887 -0.003323 0.000000 0.000000 0.000000
# 3 -0.003323 -0.003323 0.008670 0.000000 0.000000 0.000000
# 4 0.000000 0.000000 0.000000 0.043969 0.000000 0.000000
# 5 0.000000 0.000000 0.000000 0.000000 0.043969 0.000000
# 6 0.000000 0.000000 0.000000 0.000000 0.000000 0.103087
#
#
# Mechanical properties :
#
#
# Convention : Reuss Voigt Hill
#
# Bulk Modulus (GPa) = 57.63536 63.20335 60.41935
# Shear Modulus (GPa) = 18.63265 22.97614 20.80439
#
# Velocity S-wave (km/s) = 3.30756 3.67290 3.49501
# Velocity P-wave (km/s) = 6.95893 7.42268 7.19454
#
# Compressibility (1/GPa) = 0.01735046
#
# Stress axis : x y z
#
# Youngs Moduli (GPa) = 55.90625 55.90625 115.33792
#
# Poissons Ratio (x) = 0.38577 0.38330
# Poissons Ratio (y) = 0.38577 0.38330
# Poissons Ratio (z) = 0.18579 0.18579
#
# Static dielectric constant tensor:
#      x y z
#    x 2.951070 0.000000 0.000000 
#    y 0.000000 2.951070 0.000000 
#    z 0.000000 0.000000 3.771590 
# 
# 
# High freq. dielectric constant tensor:
#      x y z
#    x 1.629080 0.000000 0.000000 
#    y 0.000000 1.629080 0.000000 
#    z 0.000000 0.000000 1.688510 
# 
# From -- ./inp_files/8493.got.cif
#   From: 2010.03.12/outbox.cif.g09.slc.cpg/sg123_5_cif.got.tgz:8493.got - 2010.04.06 16:26:55.
