data_PCOD8312262
_publ_section_title
;
Structure prediction by ZEFSAII (Michael W. Deem and Ramdas Pophale) SiO2 
 PCOD8312262
Probable space group: P 4/M M M
;
_chemical_formula_sum "Si O2"
_cell_formula_units_Z 96
_cell_length_a 17.106659
_cell_length_b 17.106659
_cell_length_c 19.665926
_cell_angle_alpha 90.000000
_cell_angle_beta 90.000000
_cell_angle_gamma 90.000000
_cell_volume 5754.992968
_symmetry_space_group_name_H-M "P 4/M M M"
_symmetry_group_IT_number 123
_symmetry_cell_setting 'tetragonal'
loop_
_space_group_symop_operation_xyz
x,y,z
-y,x,z
-x,-y,z
y,-x,z
x,-y,-z
-x,y,-z
y,x,-z
-y,-x,-z
-x,-y,-z
y,-x,-z
x,y,-z
-y,x,-z
-x,y,z
x,-y,z
-y,-x,z
y,x,z
loop_
_atom_site_type_symbol
_atom_site_label
_atom_site_fract_x
_atom_site_fract_y
_atom_site_fract_z
Si Si1 0.290199 0.413623 0.100283
Si Si2 0.294770 0.164689 0.075624
Si Si3 0.910484 0.219036 0.802037
Si Si4 0.412093 0.091218 0.578901
Si Si5 0.585834 0.293677 0.259991
Si Si6 0.173309 0.300393 0.681928
O O1 0.296696 0.500000 0.067645
O O2 0.357937 0.357937 0.068947
O O3 0.204032 0.380007 0.083304
O O4 0.301933 0.419876 0.180048
O O5 0.233497 0.233497 0.087540
O O6 0.278145 0.100699 0.133944
O O7 0.286675 0.127205 0.000000
O O8 0.858193 0.141808 0.811138
O O9 0.890757 0.262346 0.731491
O O10 0.000000 0.192196 0.799724
O O11 0.400286 0.110214 0.500000
O O12 0.500000 0.117902 0.601310
O O13 0.342440 0.134825 0.617672
O O14 0.403094 0.000000 0.593572
O O15 0.500000 0.290388 0.293596
O O16 0.631392 0.368609 0.290793
O O17 0.633036 0.215390 0.274621
O O18 0.234222 0.234222 0.656278
#
# Coordination Sequence:
#
# PCOD8312262 Si02
#       6
#    16  16  16  16  16  16
#     4   9  16  27  43  64  91 122 158 197 235 274
#     4   9  17  31  49  66  88 121 158 192 229 277
#     4  10  20  34  52  74  96 118 148 186 232 286
#     4   9  18  32  49  70  97 127 158 195 238 278
#     4   9  16  26  42  64  91 122 155 192 229 264
#     4  10  18  30  49  71  97 126 157 192 226 273
#
# _framework density 16.681166999999999
#
# number of rings (size 3 to 8) (size 9 to 14) (size 15 to 20)
#    0.000    2.667    1.667    1.500    0.000    1.500 
#    0.000    1.667    0.000    1.500    0.000    5.833 
#    0.000    0.000    0.000   31.000    0.000    0.167 
#
# Total GULP energy -1189783.525887 kJ/mol
# GULP energy per Si atom -12393.578395 kJ/mol
# Density = 1.664320 g / cm^3
# Si number density = 16.681167 Si / 1000 Ang^3
#
#
#
# Elastic Constant Matrix: (Units=GPa)
#
#
# Indices 1 2 3 4 5 6 
#
# 1 96.6480 48.8760 39.4330 0.0000 0.0000 0.0000
# 2 48.8760 96.6480 39.4330 0.0000 0.0000 0.0000
# 3 39.4330 39.4330 72.0393 0.0000 0.0000 0.0000
# 4 0.0000 0.0000 0.0000 5.3102 0.0000 0.0000
# 5 0.0000 0.0000 0.0000 0.0000 5.3102 0.0000
# 6 0.0000 0.0000 0.0000 0.0000 0.0000 19.1969
#
#
#
# Elastic Compliance Matrix: (Units=1/GPa)
#
#
# Indices 1 2 3 4 5 6 
#
# 1 0.015351 -0.005581 -0.005348 0.000000 0.000000 0.000000
# 2 -0.005581 0.015351 -0.005348 0.000000 0.000000 0.000000
# 3 -0.005348 -0.005348 0.019736 0.000000 0.000000 0.000000
# 4 0.000000 0.000000 0.000000 0.188318 0.000000 0.000000
# 5 0.000000 0.000000 0.000000 0.000000 0.188318 0.000000
# 6 0.000000 0.000000 0.000000 0.000000 0.000000 0.052092
#
#
# Mechanical properties :
#
#
# Convention : Reuss Voigt Hill
#
# Bulk Modulus (GPa) = 55.91484 57.86879 56.89182
# Shear Modulus (GPa) = 9.65844 15.13634 12.39739
#
# Velocity S-wave (km/s) = 2.40886 3.01556 2.72912
# Velocity P-wave (km/s) = 6.42879 6.84772 6.64156
#
# Compressibility (1/GPa) = 0.01788434
#
# Stress axis : x y z
#
# Youngs Moduli (GPa) = 65.14075 65.14075 50.66880
#
# Poissons Ratio (x) = 0.36357 0.27097
# Poissons Ratio (y) = 0.36357 0.27097
# Poissons Ratio (z) = 0.34837 0.34837
#
# Static dielectric constant tensor:
#      x y z
#    x 3.124690 0.000000 0.000000 
#    y 0.000000 3.124690 0.000000 
#    z 0.000000 0.000000 2.992730 
# 
# 
# High freq. dielectric constant tensor:
#      x y z
#    x 1.632030 0.000000 0.000000 
#    y 0.000000 1.632030 0.000000 
#    z 0.000000 0.000000 1.631220 
# 
# From -- ./inp_files/5481.got.cif
#   From: 2010.03.12/outbox.cif.g09.slc.cpg/sg123_3_cif.got.tgz:5481.got - 2010.04.06 16:26:55.
