data_PCOD8312632
_publ_section_title
;
Structure prediction by ZEFSAII (Michael W. Deem and Ramdas Pophale) SiO2 
 PCOD8312632
Probable space group: P 4/M M M
;
_chemical_formula_sum "Si O2"
_cell_formula_units_Z 120
_cell_length_a 17.951182
_cell_length_b 17.951182
_cell_length_c 19.253610
_cell_angle_alpha 90.000000
_cell_angle_beta 90.000000
_cell_angle_gamma 90.000000
_cell_volume 6204.378307
_symmetry_space_group_name_H-M "P 4/M M M"
_symmetry_group_IT_number 123
_symmetry_cell_setting 'tetragonal'
loop_
_space_group_symop_operation_xyz
x,y,z
-y,x,z
-x,-y,z
y,-x,z
x,-y,-z
-x,y,-z
y,x,-z
-y,-x,-z
-x,-y,-z
y,-x,-z
x,y,-z
-y,x,-z
-x,y,z
x,-y,z
-y,-x,z
y,x,z
loop_
_atom_site_type_symbol
_atom_site_label
_atom_site_fract_x
_atom_site_fract_y
_atom_site_fract_z
Si Si1 0.854223 0.267242 0.705922
Si Si2 0.911698 0.338684 0.577298
Si Si3 0.311863 0.813134 0.921653
Si Si4 0.081290 0.500000 0.582819
Si Si5 0.703956 0.584988 0.423428
Si Si6 0.705872 0.416418 0.153366
Si Si7 0.788443 0.583860 0.709143
Si Si8 0.085341 0.793186 0.840066
O O1 0.774882 0.225119 0.704506
O O2 0.888627 0.271799 0.628449
O O3 0.845662 0.352187 0.734209
O O4 0.909562 0.224258 0.757687
O O5 0.882870 0.318763 0.500000
O O6 0.878246 0.420891 0.602954
O O7 0.000000 0.348201 0.576205
O O8 0.249920 0.750080 0.919907
O O9 0.385133 0.779926 0.884799
O O10 0.278824 0.884806 0.881803
O O11 0.332136 0.836795 0.000000
O O12 0.073965 0.500000 0.500000
O O13 0.000000 0.500000 0.617717
O O14 0.741714 0.593793 0.500000
O O15 0.687159 0.500000 0.405177
O O16 0.625227 0.625227 0.422320
O O17 0.757379 0.616928 0.363913
O O18 0.690526 0.500000 0.125460
O O19 0.633583 0.366418 0.137242
O O20 0.721301 0.419276 0.235623
O O21 0.824404 0.500000 0.701742
O O22 0.133226 0.866775 0.858741
O O23 0.000000 0.808707 0.860415
#
# Coordination Sequence:
#
# PCOD8312632 Si02
#       8
#    16  16  16   8  16  16  16  16
#     4  11  21  33  52  76 106 143 183 225 269 323
#     4   9  18  32  49  70  99 134 173 220 275 333
#     4   9  18  35  59  84 111 147 186 218 258 320
#     4   7  12  26  46  66  90 124 164 208 268 334
#     4   9  17  28  41  59  86 123 170 224 280 334
#     4  10  19  33  54  80 112 150 195 243 290 336
#     4  10  20  33  50  70  97 137 183 232 285 332
#     4  10  21  38  61  89 119 147 177 215 261 319
#
# _framework density 19.341180999999999
#
# number of rings (size 3 to 8) (size 9 to 14) (size 15 to 20)
#    0.000    2.467    1.333    2.400    0.933    1.733 
#    0.000    0.667    0.000    3.600    0.000    4.667 
#    0.000    0.000    0.000   12.400    0.000    0.000 
#
# Total GULP energy -1487208.212937 kJ/mol
# GULP energy per Si atom -12393.401774 kJ/mol
# Density = 1.929716 g / cm^3
# Si number density = 19.341181 Si / 1000 Ang^3
#
#
#
# Elastic Constant Matrix: (Units=GPa)
#
#
# Indices 1 2 3 4 5 6 
#
# 1 91.5150 33.6098 29.2975 0.0000 0.0000 0.0000
# 2 33.6098 91.5150 29.2975 0.0000 0.0000 0.0000
# 3 29.2975 29.2975 98.6455 0.0000 0.0000 0.0000
# 4 0.0000 0.0000 0.0000 17.9488 0.0000 0.0000
# 5 0.0000 0.0000 0.0000 0.0000 17.9488 0.0000
# 6 0.0000 0.0000 0.0000 0.0000 0.0000 19.7590
#
#
#
# Elastic Compliance Matrix: (Units=1/GPa)
#
#
# Indices 1 2 3 4 5 6 
#
# 1 0.013276 -0.003993 -0.002757 0.000000 0.000000 0.000000
# 2 -0.003993 0.013276 -0.002757 0.000000 0.000000 0.000000
# 3 -0.002757 -0.002757 0.011775 0.000000 0.000000 0.000000
# 4 0.000000 0.000000 0.000000 0.055714 0.000000 0.000000
# 5 0.000000 0.000000 0.000000 0.000000 0.055714 0.000000
# 6 0.000000 0.000000 0.000000 0.000000 0.000000 0.050610
#
#
# Mechanical properties :
#
#
# Convention : Reuss Voigt Hill
#
# Bulk Modulus (GPa) = 51.77861 51.78721 51.78291
# Shear Modulus (GPa) = 22.14173 23.76271 22.95222
#
# Velocity S-wave (km/s) = 3.38716 3.50895 3.44859
# Velocity P-wave (km/s) = 6.49048 6.57653 6.53365
#
# Compressibility (1/GPa) = 0.01931300
#
# Stress axis : x y z
#
# Youngs Moduli (GPa) = 75.32180 75.32180 84.92578
#
# Poissons Ratio (x) = 0.30078 0.23415
# Poissons Ratio (y) = 0.30078 0.23415
# Poissons Ratio (z) = 0.20767 0.20767
#
# Static dielectric constant tensor:
#      x y z
#    x 3.393400 0.000000 0.000000 
#    y 0.000000 3.393400 0.000000 
#    z 0.000000 0.000000 3.714540 
# 
# 
# High freq. dielectric constant tensor:
#      x y z
#    x 1.735240 0.000000 0.000000 
#    y 0.000000 1.735240 0.000000 
#    z 0.000000 0.000000 1.752840 
# 
# From -- ./inp_files/6816.got.cif
#   From: 2010.03.12/outbox.cif.g09.slc.cpg/sg123_4_cif.got.tgz:6816.got - 2010.04.06 16:26:55.
