data_PCOD8312098
_publ_section_title
;
Structure prediction by ZEFSAII (Michael W. Deem and Ramdas Pophale) SiO2 
 PCOD8312098
Probable space group: I -4 2 D
;
_chemical_formula_sum "Si O2"
_cell_formula_units_Z 36
_cell_length_a 7.713147
_cell_length_b 7.713147
_cell_length_c 24.981461
_cell_angle_alpha 90.000000
_cell_angle_beta 90.000000
_cell_angle_gamma 90.000000
_cell_volume 1486.212982
_symmetry_space_group_name_H-M "I -4 2 D"
_symmetry_group_IT_number 122
_symmetry_cell_setting 'tetragonal'
loop_
_space_group_symop_operation_xyz
x,y,z
y,-x,-z
-x,-y,z
-y,x,-z
x,1/2-y,1/4-z
-x,1/2+y,1/4-z
-y,1/2-x,1/4+z
y,1/2+x,1/4+z
1/2+x,1/2+y,1/2+z
1/2+y,1/2-x,1/2-z
1/2-x,1/2-y,1/2+z
1/2-y,1/2+x,1/2-z
1/2+x,-y,3/4-z
1/2-x,y,3/4-z
1/2-y,-x,3/4+z
1/2+y,x,3/4+z
loop_
_atom_site_type_symbol
_atom_site_label
_atom_site_fract_x
_atom_site_fract_y
_atom_site_fract_z
Si Si1 0.479289 0.299121 0.066593
Si Si2 0.612208 0.653729 0.717153
Si Si3 0.500000 0.500000 0.500000
O O1 0.500000 0.500000 0.052051
O O2 0.552565 0.250000 0.125000
O O3 0.272210 0.271661 0.066740
O O4 0.579493 0.178441 0.024458
O O5 0.500000 0.500000 0.689050
O O6 0.480161 0.816592 0.719454
#
# Coordination Sequence:
#
# PCOD8312098 Si02
#       3
#    16  16   4
#     4  12  24  45  73 102 142 199 243 302 382 440
#     4  12  23  47  72 104 148 187 242 309 368 448
#     4  12  24  40  76 104 132 188 236 292 372 428
#
# _framework density 24.222640999999999
#
# number of rings (size 3 to 8) (size 9 to 14) (size 15 to 20)
#    0.000    0.000    8.889    1.333    0.000    0.000 
#    4.000    2.222    0.000    0.000    0.000    0.000 
#    0.000    0.000    0.000    0.000    0.000    0.000 
#
# Total GULP energy -223055.323374 kJ/mol
# GULP energy per Si atom -12391.962410 kJ/mol
# Density = 2.416751 g / cm^3
# Si number density = 24.222641 Si / 1000 Ang^3
#
#
#
# Elastic Constant Matrix: (Units=GPa)
#
#
# Indices 1 2 3 4 5 6 
#
# 1 141.0325 25.5896 -3.7474 0.0000 0.0000 0.0000
# 2 25.5896 141.0326 -3.7474 0.0000 0.0000 0.0000
# 3 -3.7474 -3.7474 73.6566 0.0000 0.0000 0.0000
# 4 0.0000 0.0000 0.0000 15.6899 0.0000 0.0000
# 5 0.0000 0.0000 0.0000 0.0000 15.6899 0.0000
# 6 0.0000 0.0000 0.0000 0.0000 0.0000 55.7096
#
#
#
# Elastic Compliance Matrix: (Units=1/GPa)
#
#
# Indices 1 2 3 4 5 6 
#
# 1 0.007339 -0.001323 0.000306 0.000000 0.000000 0.000000
# 2 -0.001323 0.007339 0.000306 0.000000 0.000000 0.000000
# 3 0.000306 0.000306 0.013608 0.000000 0.000000 0.000000
# 4 0.000000 0.000000 0.000000 0.063735 0.000000 0.000000
# 5 0.000000 0.000000 0.000000 0.000000 0.063735 0.000000
# 6 0.000000 0.000000 0.000000 0.000000 0.000000 0.017950
#
#
# Mechanical properties :
#
#
# Convention : Reuss Voigt Hill
#
# Bulk Modulus (GPa) = 37.22653 43.54570 40.38612
# Shear Modulus (GPa) = 27.16166 39.92635 33.54400
#
# Velocity S-wave (km/s) = 3.35226 4.06434 3.72535
# Velocity P-wave (km/s) = 5.51230 6.32783 5.93409
#
# Compressibility (1/GPa) = 0.02686256
#
# Stress axis : x y z
#
# Youngs Moduli (GPa) = 136.26153 136.26161 73.48805
#
# Poissons Ratio (x) = 0.18034 -0.02249
# Poissons Ratio (y) = 0.18034 -0.02249
# Poissons Ratio (z) = -0.04170 -0.04170
#
# Static dielectric constant tensor:
#      x y z
#    x 5.012900 0.000000 0.000000 
#    y 0.000000 5.012900 0.000000 
#    z 0.000000 0.000000 3.785200 
# 
# 
# High freq. dielectric constant tensor:
#      x y z
#    x 1.983690 0.000000 0.000000 
#    y 0.000000 1.983690 0.000000 
#    z 0.000000 0.000000 1.907570 
# 
# From -- ./inp_files/6637.got.cif
#   From: 2010.03.12/outbox.cif.g09.slc.cpg/sg122_4_cif.got.tgz:6637.got - 2010.04.06 16:17:16.
