data_PCOD8312213
_publ_section_title
;
Structure prediction by ZEFSAII (Michael W. Deem and Ramdas Pophale) SiO2 
 PCOD8312213
Probable space group: P 4/M M M
;
_chemical_formula_sum "Si O2"
_cell_formula_units_Z 96
_cell_length_a 22.490709
_cell_length_b 22.490709
_cell_length_c 13.761433
_cell_angle_alpha 90.000000
_cell_angle_beta 90.000000
_cell_angle_gamma 90.000000
_cell_volume 6960.973058
_symmetry_space_group_name_H-M "P 4/M M M"
_symmetry_group_IT_number 123
_symmetry_cell_setting 'tetragonal'
loop_
_space_group_symop_operation_xyz
x,y,z
-y,x,z
-x,-y,z
y,-x,z
x,-y,-z
-x,y,-z
y,x,-z
-y,-x,-z
-x,-y,-z
y,-x,-z
x,y,-z
-y,x,-z
-x,y,z
x,-y,z
-y,-x,z
y,x,z
loop_
_atom_site_type_symbol
_atom_site_label
_atom_site_fract_x
_atom_site_fract_y
_atom_site_fract_z
Si Si1 0.065629 0.332158 0.888801
Si Si2 0.067151 0.567602 0.736412
Si Si3 0.567413 0.663395 0.889461
Si Si4 0.180494 0.568567 0.612961
Si Si5 0.183456 0.724432 0.110847
Si Si6 0.356784 0.739373 0.248020
O O1 0.081830 0.390241 0.827017
O O2 0.112657 0.278861 0.868901
O O3 0.000000 0.307468 0.862375
O O4 0.068520 0.353137 0.000000
O O5 0.074117 0.500000 0.773523
O O6 0.113834 0.581278 0.651079
O O7 0.000000 0.578738 0.696937
O O8 0.500000 0.649575 0.861835
O O9 0.602412 0.602412 0.873038
O O10 0.591264 0.714443 0.819587
O O11 0.574142 0.686061 0.000000
O O12 0.180575 0.583652 0.500000
O O13 0.198526 0.500000 0.632589
O O14 0.227972 0.612703 0.661623
O O15 0.208631 0.791370 0.128612
O O16 0.214614 0.679417 0.183325
O O17 0.197437 0.704781 0.000000
O O18 0.313173 0.686828 0.286044
#
# Coordination Sequence:
#
# PCOD8312213 Si02
#       6
#    16  16  16  16  16  16
#     4   9  16  26  41  61  85 110 134 161 193 230
#     4   9  17  29  43  58  79 106 134 165 199 233
#     4   9  17  28  42  60  80 101 125 154 191 239
#     4  10  20  32  44  58  76  98 131 173 208 238
#     4   9  16  26  41  61  84 108 132 157 188 229
#     4  10  18  29  44  59  78 102 128 159 198 242
#
# _framework density 13.791175000000001
#
# number of rings (size 3 to 8) (size 9 to 14) (size 15 to 20)
#    0.000    2.667    1.667    1.000    0.000    3.167 
#    0.000    4.167    0.000    0.000    0.000    0.000 
#    0.000    0.333    0.000   20.167    0.000    0.167 
#
# Total GULP energy -1189852.718399 kJ/mol
# GULP energy per Si atom -12394.299150 kJ/mol
# Density = 1.375979 g / cm^3
# Si number density = 13.791175 Si / 1000 Ang^3
#
#
#
# Elastic Constant Matrix: (Units=GPa)
#
#
# Indices 1 2 3 4 5 6 
#
# 1 91.1674 54.7088 48.6835 0.0000 0.0000 0.0000
# 2 54.7088 91.1674 48.6835 0.0000 0.0000 0.0000
# 3 48.6835 48.6835 73.8325 0.0000 0.0000 0.0000
# 4 0.0000 0.0000 0.0000 18.5912 0.0000 0.0000
# 5 0.0000 0.0000 0.0000 0.0000 18.5912 0.0000
# 6 0.0000 0.0000 0.0000 0.0000 0.0000 19.6252
#
#
#
# Elastic Compliance Matrix: (Units=1/GPa)
#
#
# Indices 1 2 3 4 5 6 
#
# 1 0.019836 -0.007592 -0.008073 0.000000 0.000000 0.000000
# 2 -0.007592 0.019836 -0.008073 0.000000 0.000000 0.000000
# 3 -0.008073 -0.008073 0.024191 0.000000 0.000000 0.000000
# 4 0.000000 0.000000 0.000000 0.053789 0.000000 0.000000
# 5 0.000000 0.000000 0.000000 0.000000 0.053789 0.000000
# 6 0.000000 0.000000 0.000000 0.000000 0.000000 0.050955
#
#
# Mechanical properties :
#
#
# Convention : Reuss Voigt Hill
#
# Bulk Modulus (GPa) = 61.03038 62.25768 61.64403
# Shear Modulus (GPa) = 18.15972 18.30097 18.23034
#
# Velocity S-wave (km/s) = 3.63266 3.64676 3.63972
# Velocity P-wave (km/s) = 7.87047 7.93555 7.90308
#
# Compressibility (1/GPa) = 0.01638528
#
# Stress axis : x y z
#
# Youngs Moduli (GPa) = 50.41335 50.41335 41.33801
#
# Poissons Ratio (x) = 0.38275 0.33373
# Poissons Ratio (y) = 0.38275 0.33373
# Poissons Ratio (z) = 0.40700 0.40700
#
# Static dielectric constant tensor:
#      x y z
#    x 2.806800 0.000000 0.000000 
#    y 0.000000 2.806800 0.000000 
#    z 0.000000 0.000000 2.592060 
# 
# 
# High freq. dielectric constant tensor:
#      x y z
#    x 1.518350 0.000000 0.000000 
#    y 0.000000 1.518350 0.000000 
#    z 0.000000 0.000000 1.512490 
# 
# From -- ./inp_files/3247.got.cif
#   From: 2010.03.12/outbox.cif.g09.slc.cpg/sg123_2_cif.got.tgz:3247.got - 2010.04.06 16:26:55.
