data_PCOD8312368
_publ_section_title
;
Structure prediction by ZEFSAII (Michael W. Deem and Ramdas Pophale) SiO2 
 PCOD8312368
Probable space group: P 4/M M M
;
_chemical_formula_sum "Si O2"
_cell_formula_units_Z 104
_cell_length_a 15.874992
_cell_length_b 15.874992
_cell_length_c 25.185952
_cell_angle_alpha 90.000000
_cell_angle_beta 90.000000
_cell_angle_gamma 90.000000
_cell_volume 6347.247037
_symmetry_space_group_name_H-M "P 4/M M M"
_symmetry_group_IT_number 123
_symmetry_cell_setting 'tetragonal'
loop_
_space_group_symop_operation_xyz
x,y,z
-y,x,z
-x,-y,z
y,-x,z
x,-y,-z
-x,y,-z
y,x,-z
-y,-x,-z
-x,-y,-z
y,-x,-z
x,y,-z
-y,x,-z
-x,y,z
x,-y,z
-y,-x,z
y,x,z
loop_
_atom_site_type_symbol
_atom_site_label
_atom_site_fract_x
_atom_site_fract_y
_atom_site_fract_z
Si Si1 0.906380 0.771398 0.197129
Si Si2 0.830148 0.697153 0.901207
Si Si3 0.593170 0.722615 0.822998
Si Si4 0.403918 0.099388 0.000000
Si Si5 0.665716 0.802825 0.724558
Si Si6 0.097235 0.596578 0.372577
Si Si7 0.235448 0.096664 0.562569
O O1 0.855469 0.855469 0.186610
O O2 0.901116 0.716875 0.143043
O O3 0.873352 0.724771 0.249453
O O4 0.000000 0.798260 0.209535
O O5 0.782159 0.782159 0.921245
O O6 0.762221 0.639547 0.872735
O O7 0.870604 0.646616 0.948924
O O8 0.500000 0.709259 0.841928
O O9 0.632220 0.632220 0.809974
O O10 0.598846 0.777329 0.769492
O O11 0.500000 0.134627 0.000000
O O12 0.406266 0.000000 0.000000
O O13 0.723489 0.723489 0.706207
O O14 0.612969 0.841235 0.676566
O O15 0.114385 0.500000 0.393968
O O16 0.117185 0.670756 0.415062
O O17 0.000000 0.603044 0.354518
O O18 0.243270 0.105814 0.500000
O O19 0.163583 0.163583 0.583491
O O20 0.208917 0.000000 0.577753
#
# Coordination Sequence:
#
# PCOD8312368 Si02
#       7
#    16  16  16   8  16  16  16
#     4   9  17  29  45  64  86 113 144 178 217 258
#     4   9  18  32  47  61  81 111 141 167 201 251
#     4   9  17  29  45  64  85 109 137 170 209 251
#     4  11  21  30  44  66  87 105 130 170 214 249
#     4   9  17  29  45  63  86 118 150 181 217 259
#     4  10  19  29  44  67  93 122 155 190 229 271
#     4   9  18  32  49  69  94 124 157 194 234 275
#
# _framework density 16.385057
#
# number of rings (size 3 to 8) (size 9 to 14) (size 15 to 20)
#    0.000    2.692    0.000    4.385    0.000    0.769 
#    0.000    2.308    0.000    7.385    0.000    2.154 
#    0.000   13.846    0.000    6.769    0.000    0.308 
#
# Total GULP energy -1288519.929875 kJ/mol
# GULP energy per Si atom -12389.614710 kJ/mol
# Density = 1.634776 g / cm^3
# Si number density = 16.385057 Si / 1000 Ang^3
#
#
#
# Elastic Constant Matrix: (Units=GPa)
#
#
# Indices 1 2 3 4 5 6 
#
# 1 89.7272 34.0272 19.6259 0.0000 0.0000 0.0000
# 2 34.0272 89.7272 19.6259 0.0000 0.0000 0.0000
# 3 19.6259 19.6259 40.2645 0.0000 0.0000 0.0000
# 4 0.0000 0.0000 0.0000 4.5792 0.0000 0.0000
# 5 0.0000 0.0000 0.0000 0.0000 4.5792 0.0000
# 6 0.0000 0.0000 0.0000 0.0000 0.0000 17.7012
#
#
#
# Elastic Compliance Matrix: (Units=1/GPa)
#
#
# Indices 1 2 3 4 5 6 
#
# 1 0.013756 -0.004198 -0.004659 0.000000 0.000000 0.000000
# 2 -0.004198 0.013756 -0.004659 0.000000 0.000000 0.000000
# 3 -0.004659 -0.004659 0.029377 0.000000 0.000000 0.000000
# 4 0.000000 0.000000 0.000000 0.218379 0.000000 0.000000
# 5 0.000000 0.000000 0.000000 0.000000 0.218379 0.000000
# 6 0.000000 0.000000 0.000000 0.000000 0.000000 0.056493
#
#
# Mechanical properties :
#
#
# Convention : Reuss Voigt Hill
#
# Bulk Modulus (GPa) = 33.49153 40.69744 37.09449
# Shear Modulus (GPa) = 8.51609 15.13458 11.82534
#
# Velocity S-wave (km/s) = 2.28227 3.04251 2.68939
# Velocity P-wave (km/s) = 5.23733 6.10201 5.68613
#
# Compressibility (1/GPa) = 0.02985829
#
# Stress axis : x y z
#
# Youngs Moduli (GPa) = 72.69685 72.69685 34.03971
#
# Poissons Ratio (x) = 0.30515 0.15859
# Poissons Ratio (y) = 0.30515 0.15859
# Poissons Ratio (z) = 0.33869 0.33869
#
# Static dielectric constant tensor:
#      x y z
#    x 3.210730 0.000000 0.000000 
#    y 0.000000 3.210730 0.000000 
#    z 0.000000 0.000000 2.994300 
# 
# 
# High freq. dielectric constant tensor:
#      x y z
#    x 1.627840 0.000000 0.000000 
#    y 0.000000 1.627840 0.000000 
#    z 0.000000 0.000000 1.620620 
# 
# From -- ./inp_files/7477.got.cif
#   From: 2010.03.12/outbox.cif.g09.slc.cpg/sg123_4_cif.got.tgz:7477.got - 2010.04.06 16:26:55.
