data_PCOD8312053
_publ_section_title
;
Structure prediction by ZEFSAII (Michael W. Deem and Ramdas Pophale) SiO2 
 PCOD8312053
Probable space group: I -4 2 D
;
_chemical_formula_sum "Si O2"
_cell_formula_units_Z 16
_cell_length_a 7.031187
_cell_length_b 7.031187
_cell_length_c 17.076042
_cell_angle_alpha 90.000000
_cell_angle_beta 90.000000
_cell_angle_gamma 90.000000
_cell_volume 844.198374
_symmetry_space_group_name_H-M "I -4 2 D"
_symmetry_group_IT_number 122
_symmetry_cell_setting 'tetragonal'
loop_
_space_group_symop_operation_xyz
x,y,z
y,-x,-z
-x,-y,z
-y,x,-z
x,1/2-y,1/4-z
-x,1/2+y,1/4-z
-y,1/2-x,1/4+z
y,1/2+x,1/4+z
1/2+x,1/2+y,1/2+z
1/2+y,1/2-x,1/2-z
1/2-x,1/2-y,1/2+z
1/2-y,1/2+x,1/2-z
1/2+x,-y,3/4-z
1/2-x,y,3/4-z
1/2-y,-x,3/4+z
1/2+y,x,3/4+z
loop_
_atom_site_type_symbol
_atom_site_label
_atom_site_fract_x
_atom_site_fract_y
_atom_site_fract_z
Si Si1 0.986844 0.280557 0.034970
O O1 0.932317 0.250000 0.125000
O O2 0.000000 0.500000 0.012113
O O3 0.187730 0.178795 0.017694
#
# Coordination Sequence:
#
# PCOD8312053 Si02
#       1
#    16
#     4  11  23  44  67  95 134 168 215 271 320 380
#
# _framework density 18.952893
#
# number of rings (size 3 to 8) (size 9 to 14) (size 15 to 20)
#    0.000    1.000   10.000    0.000    0.000    6.000 
#    0.000    0.000    0.000    0.000    0.000    0.000 
#    0.000    0.000    0.000    0.000    0.000    0.000 
#
# Total GULP energy -99237.331626 kJ/mol
# GULP energy per Si atom -12404.666453 kJ/mol
# Density = 1.890976 g / cm^3
# Si number density = 18.952893 Si / 1000 Ang^3
#
#
#
# Elastic Constant Matrix: (Units=GPa)
#
#
# Indices 1 2 3 4 5 6 
#
# 1 165.5626 46.8988 4.2854 0.0000 0.0000 0.0000
# 2 46.8988 165.5626 4.2854 0.0000 0.0000 0.0000
# 3 4.2854 4.2854 67.3213 0.0000 0.0000 0.0000
# 4 0.0000 0.0000 0.0000 26.4129 0.0000 0.0000
# 5 0.0000 0.0000 0.0000 0.0000 26.4129 0.0000
# 6 0.0000 0.0000 0.0000 0.0000 0.0000 19.1488
#
#
#
# Elastic Compliance Matrix: (Units=1/GPa)
#
#
# Indices 1 2 3 4 5 6 
#
# 1 0.006573 -0.001854 -0.000300 0.000000 0.000000 0.000000
# 2 -0.001854 0.006573 -0.000300 0.000000 0.000000 0.000000
# 3 -0.000300 -0.000300 0.014892 0.000000 0.000000 0.000000
# 4 0.000000 0.000000 0.000000 0.037860 0.000000 0.000000
# 5 0.000000 0.000000 0.000000 0.000000 0.037860 0.000000
# 6 0.000000 0.000000 0.000000 0.000000 0.000000 0.052223
#
#
# Mechanical properties :
#
#
# Convention : Reuss Voigt Hill
#
# Bulk Modulus (GPa) = 43.23661 56.59842 49.91752
# Shear Modulus (GPa) = 29.65584 37.26005 33.45795
#
# Velocity S-wave (km/s) = 3.95994 4.43869 4.20613
# Velocity P-wave (km/s) = 6.61591 7.49645 7.06991
#
# Compressibility (1/GPa) = 0.02312855
#
# Stress axis : x y z
#
# Youngs Moduli (GPa) = 152.13724 152.13723 67.14845
#
# Poissons Ratio (x) = 0.28209 0.02017
# Poissons Ratio (y) = 0.28209 0.02017
# Poissons Ratio (z) = 0.04570 0.04570
#
# Static dielectric constant tensor:
#      x y z
#    x 3.551210 0.000000 0.000000 
#    y 0.000000 3.551210 0.000000 
#    z 0.000000 0.000000 3.526190 
# 
# 
# High freq. dielectric constant tensor:
#      x y z
#    x 1.737760 0.000000 0.000000 
#    y 0.000000 1.737760 0.000000 
#    z 0.000000 0.000000 1.746510 
# 
# From -- ./inp_files/3164.got.cif
#   From: 2010.03.12/outbox.cif.g09.slc.cpg/sg122_2_cif.got.tgz:3164.got - 2010.04.06 16:17:16.
