data_PCOD8312974
_publ_section_title
;
Structure prediction by ZEFSAII (Michael W. Deem and Ramdas Pophale) SiO2 
 PCOD8312974
Probable space group: P 4/M M M
;
_chemical_formula_sum "Si O2"
_cell_formula_units_Z 128
_cell_length_a 18.500800
_cell_length_b 18.500800
_cell_length_c 23.550215
_cell_angle_alpha 90.000000
_cell_angle_beta 90.000000
_cell_angle_gamma 90.000000
_cell_volume 8060.758185
_symmetry_space_group_name_H-M "P 4/M M M"
_symmetry_group_IT_number 123
_symmetry_cell_setting 'tetragonal'
loop_
_space_group_symop_operation_xyz
x,y,z
-y,x,z
-x,-y,z
y,-x,z
x,-y,-z
-x,y,-z
y,x,-z
-y,-x,-z
-x,-y,-z
y,-x,-z
x,y,-z
-y,x,-z
-x,y,z
x,-y,z
-y,-x,z
y,x,z
loop_
_atom_site_type_symbol
_atom_site_label
_atom_site_fract_x
_atom_site_fract_y
_atom_site_fract_z
Si Si1 0.417403 0.699614 0.350685
Si Si2 0.583099 0.173391 0.265058
Si Si3 0.168088 0.713660 0.817639
Si Si4 0.082572 0.330311 0.350937
Si Si5 0.309137 0.421166 0.933661
Si Si6 0.789942 0.326625 0.565643
Si Si7 0.081577 0.801249 0.730950
Si Si8 0.312047 0.808619 0.061335
O O1 0.500000 0.678593 0.361900
O O2 0.373534 0.626467 0.339641
O O3 0.408475 0.749593 0.295471
O O4 0.388583 0.741569 0.405844
O O5 0.500000 0.158922 0.246974
O O6 0.634316 0.174313 0.209938
O O7 0.607520 0.110484 0.308427
O O8 0.245702 0.754299 0.812972
O O9 0.106853 0.761222 0.788033
O O10 0.142491 0.706412 0.883741
O O11 0.130236 0.325809 0.407648
O O12 0.089237 0.252596 0.321583
O O13 0.000000 0.348022 0.367570
O O14 0.311747 0.500000 0.904454
O O15 0.370582 0.370582 0.905001
O O16 0.229386 0.388408 0.924729
O O17 0.325291 0.427587 0.000000
O O18 0.798046 0.346274 0.500000
O O19 0.751050 0.248951 0.574614
O O20 0.128664 0.871337 0.717391
O O21 0.000000 0.827124 0.740158
O O22 0.253859 0.746142 0.054003
O O23 0.315461 0.850989 0.000000
#
# Coordination Sequence:
#
# PCOD8312974 Si02
#       8
#    16  16  16  16  16  16  16  16
#     4   9  17  29  44  61  82 108 140 180 223 264
#     4   9  17  28  42  61  84 110 141 176 215 257
#     4   9  16  27  44  63  83 109 141 174 208 250
#     4   9  17  29  45  65  89 115 143 175 206 238
#     4   8  13  20  29  43  66  96 129 165 204 244
#     4   9  17  29  45  64  87 116 146 174 207 247
#     4   9  17  29  46  68  92 115 138 166 201 242
#     4   8  14  24  37  54  76 101 131 170 211 245
#
# _framework density 15.879401
#
# number of rings (size 3 to 8) (size 9 to 14) (size 15 to 20)
#    0.000    3.250    0.000    1.500    0.000    4.625 
#    0.000    0.625    0.000    0.375    0.000    5.250 
#    0.000    3.000    0.000   26.000    0.000    0.875 
#
# Total GULP energy -1586301.598248 kJ/mol
# GULP energy per Si atom -12392.981236 kJ/mol
# Density = 1.584326 g / cm^3
# Si number density = 15.879401 Si / 1000 Ang^3
#
#
#
# Elastic Constant Matrix: (Units=GPa)
#
#
# Indices 1 2 3 4 5 6 
#
# 1 87.7210 34.8692 24.7655 0.0000 0.0000 0.0000
# 2 34.8692 87.7210 24.7655 0.0000 0.0000 0.0000
# 3 24.7655 24.7655 78.6230 0.0000 0.0000 0.0000
# 4 0.0000 0.0000 0.0000 14.7759 0.0000 0.0000
# 5 0.0000 0.0000 0.0000 0.0000 14.7759 0.0000
# 6 0.0000 0.0000 0.0000 0.0000 0.0000 14.7978
#
#
#
# Elastic Compliance Matrix: (Units=1/GPa)
#
#
# Indices 1 2 3 4 5 6 
#
# 1 0.014134 -0.004787 -0.002944 0.000000 0.000000 0.000000
# 2 -0.004787 0.014134 -0.002944 0.000000 0.000000 0.000000
# 3 -0.002944 -0.002944 0.014574 0.000000 0.000000 0.000000
# 4 0.000000 0.000000 0.000000 0.067678 0.000000 0.000000
# 5 0.000000 0.000000 0.000000 0.000000 0.067678 0.000000
# 6 0.000000 0.000000 0.000000 0.000000 0.000000 0.067578
#
#
# Mechanical properties :
#
#
# Convention : Reuss Voigt Hill
#
# Bulk Modulus (GPa) = 46.53180 46.98504 46.75842
# Shear Modulus (GPa) = 18.22899 20.18092 19.20495
#
# Velocity S-wave (km/s) = 3.39184 3.56882 3.48145
# Velocity P-wave (km/s) = 6.68628 6.82897 6.75800
#
# Compressibility (1/GPa) = 0.02149068
#
# Stress axis : x y z
#
# Youngs Moduli (GPa) = 70.75230 70.75230 68.61684
#
# Poissons Ratio (x) = 0.33869 0.20202
# Poissons Ratio (y) = 0.33869 0.20202
# Poissons Ratio (z) = 0.20831 0.20831
#
# Static dielectric constant tensor:
#      x y z
#    x 2.956840 0.000000 0.000000 
#    y 0.000000 2.956840 0.000000 
#    z 0.000000 0.000000 3.024090 
# 
# 
# High freq. dielectric constant tensor:
#      x y z
#    x 1.594040 0.000000 0.000000 
#    y 0.000000 1.594040 0.000000 
#    z 0.000000 0.000000 1.599680 
# 
# From -- ./inp_files/7681.got.cif
#   From: 2010.03.12/outbox.cif.g09.slc.cpg/sg123_4_cif.got.tgz:7681.got - 2010.04.06 16:26:55.
