data_PCOD8312519
_publ_section_title
;
Structure prediction by ZEFSAII (Michael W. Deem and Ramdas Pophale) SiO2 
 PCOD8312519
Probable space group: P 4/M M M
;
_chemical_formula_sum "Si O2"
_cell_formula_units_Z 104
_cell_length_a 18.262013
_cell_length_b 18.262013
_cell_length_c 18.389230
_cell_angle_alpha 90.000000
_cell_angle_beta 90.000000
_cell_angle_gamma 90.000000
_cell_volume 6132.828779
_symmetry_space_group_name_H-M "P 4/M M M"
_symmetry_group_IT_number 123
_symmetry_cell_setting 'tetragonal'
loop_
_space_group_symop_operation_xyz
x,y,z
-y,x,z
-x,-y,z
y,-x,z
x,-y,-z
-x,y,-z
y,x,-z
-y,-x,-z
-x,-y,-z
y,-x,-z
x,y,-z
-y,x,-z
-x,y,z
x,-y,z
-y,-x,z
y,x,z
loop_
_atom_site_type_symbol
_atom_site_label
_atom_site_fract_x
_atom_site_fract_y
_atom_site_fract_z
Si Si1 0.307300 0.812602 0.083236
Si Si2 0.916176 0.694484 0.706024
Si Si3 0.083888 0.201794 0.164132
Si Si4 0.358538 0.171319 0.415293
Si Si5 0.500000 0.919244 0.414413
Si Si6 0.583931 0.821835 0.791544
Si Si7 0.298203 0.584299 0.670946
O O1 0.261265 0.738736 0.095143
O O2 0.258744 0.881868 0.107190
O O3 0.381116 0.806217 0.129904
O O4 0.330445 0.823372 0.000000
O O5 0.908088 0.767392 0.754017
O O6 0.865587 0.705490 0.633535
O O7 0.888576 0.625124 0.752504
O O8 0.000000 0.681098 0.682818
O O9 0.123931 0.123931 0.160284
O O10 0.000000 0.189699 0.142242
O O11 0.338540 0.164762 0.500000
O O12 0.429468 0.125455 0.389585
O O13 0.374791 0.255235 0.394830
O O14 0.500000 0.926515 0.500000
O O15 0.500000 0.000000 0.378700
O O16 0.500000 0.844989 0.802031
O O17 0.591456 0.747927 0.744665
O O18 0.312856 0.500000 0.649980
O O19 0.375951 0.624050 0.681465
#
# Coordination Sequence:
#
# PCOD8312519 Si02
#       7
#    16  16  16  16   8  16  16
#     4   9  17  30  49  71  96 126 155 184 226 281
#     4   9  18  30  46  68  96 127 154 186 229 281
#     4   9  18  33  51  71  95 123 157 196 236 278
#     4  10  19  31  46  68  95 121 155 194 237 288
#     4   9  16  26  42  64  91 119 144 180 229 278
#     4   9  18  31  47  69  95 123 158 195 230 271
#     4  10  20  34  50  66  89 121 158 204 248 285
#
# _framework density 16.957916000000001
#
# number of rings (size 3 to 8) (size 9 to 14) (size 15 to 20)
#    0.000    2.692    0.769    0.923    1.077    6.154 
#    0.000    0.000    0.000    0.000    0.000    7.538 
#    0.000    0.000    0.000   17.692    0.000    0.000 
#
# Total GULP energy -1289442.106681 kJ/mol
# GULP energy per Si atom -12398.481795 kJ/mol
# Density = 1.691932 g / cm^3
# Si number density = 16.957916 Si / 1000 Ang^3
#
#
#
# Elastic Constant Matrix: (Units=GPa)
#
#
# Indices 1 2 3 4 5 6 
#
# 1 70.1232 28.7041 23.2604 0.0000 0.0000 0.0000
# 2 28.7041 70.1232 23.2604 0.0000 0.0000 0.0000
# 3 23.2604 23.2604 104.1903 0.0000 0.0000 0.0000
# 4 0.0000 0.0000 0.0000 18.0364 0.0000 0.0000
# 5 0.0000 0.0000 0.0000 0.0000 18.0364 0.0000
# 6 0.0000 0.0000 0.0000 0.0000 0.0000 29.6047
#
#
#
# Elastic Compliance Matrix: (Units=1/GPa)
#
#
# Indices 1 2 3 4 5 6 
#
# 1 0.017725 -0.006418 -0.002524 0.000000 0.000000 0.000000
# 2 -0.006418 0.017725 -0.002524 0.000000 0.000000 0.000000
# 3 -0.002524 -0.002524 0.010725 0.000000 0.000000 0.000000
# 4 0.000000 0.000000 0.000000 0.055443 0.000000 0.000000
# 5 0.000000 0.000000 0.000000 0.000000 0.055443 0.000000
# 6 0.000000 0.000000 0.000000 0.000000 0.000000 0.033778
#
#
# Mechanical properties :
#
#
# Convention : Reuss Voigt Hill
#
# Bulk Modulus (GPa) = 43.02616 43.87627 43.45122
# Shear Modulus (GPa) = 22.57120 24.41629 23.49374
#
# Velocity S-wave (km/s) = 3.65226 3.79861 3.72615
# Velocity P-wave (km/s) = 6.57364 6.72079 6.64762
#
# Compressibility (1/GPa) = 0.02324168
#
# Stress axis : x y z
#
# Youngs Moduli (GPa) = 56.41694 56.41694 93.24090
#
# Poissons Ratio (x) = 0.36210 0.23536
# Poissons Ratio (y) = 0.36210 0.23536
# Poissons Ratio (z) = 0.14241 0.14241
#
# Static dielectric constant tensor:
#      x y z
#    x 3.123430 0.000000 0.000000 
#    y 0.000000 3.123430 0.000000 
#    z 0.000000 0.000000 3.173040 
# 
# 
# High freq. dielectric constant tensor:
#      x y z
#    x 1.641600 0.000000 0.000000 
#    y 0.000000 1.641600 0.000000 
#    z 0.000000 0.000000 1.651000 
# 
# From -- ./inp_files/5590.got.cif
#   From: 2010.03.12/outbox.cif.g09.slc.cpg/sg123_3_cif.got.tgz:5590.got - 2010.04.06 16:26:55.
