data_PCOD8312481
_publ_section_title
;
Structure prediction by ZEFSAII (Michael W. Deem and Ramdas Pophale) SiO2 
 PCOD8312481
Probable space group: P 4/M M M
;
_chemical_formula_sum "Si O2"
_cell_formula_units_Z 120
_cell_length_a 18.006777
_cell_length_b 18.006777
_cell_length_c 21.301744
_cell_angle_alpha 90.000000
_cell_angle_beta 90.000000
_cell_angle_gamma 90.000000
_cell_volume 6906.963063
_symmetry_space_group_name_H-M "P 4/M M M"
_symmetry_group_IT_number 123
_symmetry_cell_setting 'tetragonal'
loop_
_space_group_symop_operation_xyz
x,y,z
-y,x,z
-x,-y,z
y,-x,z
x,-y,-z
-x,y,-z
y,x,-z
-y,-x,-z
-x,-y,-z
y,-x,-z
x,y,-z
-y,x,-z
-x,y,z
x,-y,z
-y,-x,z
y,x,z
loop_
_atom_site_type_symbol
_atom_site_label
_atom_site_fract_x
_atom_site_fract_y
_atom_site_fract_z
Si Si1 0.202333 0.675416 0.606957
Si Si2 0.585202 0.296909 0.157820
Si Si3 0.590301 0.284260 0.500000
Si Si4 0.793665 0.913817 0.611738
Si Si5 0.586931 0.160166 0.928975
Si Si6 0.083815 0.798003 0.759946
Si Si7 0.084740 0.645750 0.816734
Si Si8 0.802500 0.417054 0.270290
O O1 0.265458 0.734543 0.620922
O O2 0.233256 0.613797 0.558853
O O3 0.129026 0.721058 0.582790
O O4 0.183558 0.636455 0.671901
O O5 0.500000 0.318940 0.155086
O O6 0.629355 0.370646 0.142584
O O7 0.604950 0.237964 0.104015
O O8 0.606553 0.267617 0.227426
O O9 0.500000 0.298949 0.500000
O O10 0.636873 0.363128 0.500000
O O11 0.869652 0.869652 0.592297
O O12 0.783233 0.910719 0.686053
O O13 0.797558 0.000000 0.587971
O O14 0.500000 0.141902 0.927121
O O15 0.630939 0.096525 0.890754
O O16 0.616871 0.161703 0.000000
O O17 0.132157 0.867844 0.780896
O O18 0.114970 0.726913 0.797300
O O19 0.000000 0.816239 0.779941
O O20 0.126853 0.583755 0.776006
O O21 0.000000 0.639375 0.797878
O O22 0.791864 0.500000 0.296284
#
# Coordination Sequence:
#
# PCOD8312481 Si02
#       8
#    16  16   8  16  16  16  16  16
#     4  10  19  33  54  76 102 137 175 215 257 305
#     4   9  18  31  47  68  92 118 152 193 239 294
#     4  10  22  39  59  83 108 138 178 222 266 312
#     4   9  17  30  50  76 105 138 173 210 254 299
#     4   9  19  34  48  64  90 124 160 199 244 292
#     4   9  17  29  46  70  99 128 159 198 241 287
#     4  10  19  30  46  71  99 125 159 200 242 290
#     4  10  19  30  47  70  96 128 162 200 246 298
#
# _framework density 17.373773
#
# number of rings (size 3 to 8) (size 9 to 14) (size 15 to 20)
#    0.000    2.533    1.333    2.000    0.000    4.200 
#    0.000    2.333    0.000    1.600    0.000    3.733 
#    0.000    2.667    0.000    2.933    0.000    0.133 
#
# Total GULP energy -1487305.671580 kJ/mol
# GULP energy per Si atom -12394.213930 kJ/mol
# Density = 1.733423 g / cm^3
# Si number density = 17.373773 Si / 1000 Ang^3
#
#
#
# Elastic Constant Matrix: (Units=GPa)
#
#
# Indices 1 2 3 4 5 6 
#
# 1 78.9316 40.2570 22.5567 0.0000 0.0000 0.0000
# 2 40.2570 78.9316 22.5567 0.0000 0.0000 0.0000
# 3 22.5567 22.5567 62.9255 0.0000 0.0000 0.0000
# 4 0.0000 0.0000 0.0000 17.0250 0.0000 0.0000
# 5 0.0000 0.0000 0.0000 0.0000 17.0252 0.0000
# 6 0.0000 0.0000 0.0000 0.0000 0.0000 24.7924
#
#
#
# Elastic Compliance Matrix: (Units=1/GPa)
#
#
# Indices 1 2 3 4 5 6 
#
# 1 0.017782 -0.008075 -0.003480 0.000000 0.000000 0.000000
# 2 -0.008075 0.017782 -0.003480 0.000000 0.000000 0.000000
# 3 -0.003480 -0.003480 0.018387 0.000000 0.000000 0.000000
# 4 0.000000 0.000000 0.000000 0.058737 0.000000 0.000000
# 5 0.000000 0.000000 0.000000 0.000000 0.058736 0.000000
# 6 0.000000 0.000000 0.000000 0.000000 0.000000 0.040335
#
#
# Mechanical properties :
#
#
# Convention : Reuss Voigt Hill
#
# Bulk Modulus (GPa) = 41.87246 43.50327 42.68787
# Shear Modulus (GPa) = 20.01699 20.79642 20.40671
#
# Velocity S-wave (km/s) = 3.39800 3.46352 3.43092
# Velocity P-wave (km/s) = 6.28876 6.41004 6.34969
#
# Compressibility (1/GPa) = 0.02388204
#
# Stress axis : x y z
#
# Youngs Moduli (GPa) = 56.23680 56.23684 54.38772
#
# Poissons Ratio (x) = 0.45410 0.18925
# Poissons Ratio (y) = 0.45410 0.18925
# Poissons Ratio (z) = 0.19569 0.19569
#
# Static dielectric constant tensor:
#      x y z
#    x 3.265530 0.000000 0.000000 
#    y 0.000000 3.265530 0.000000 
#    z 0.000000 0.000000 3.236020 
# 
# 
# High freq. dielectric constant tensor:
#      x y z
#    x 1.667020 0.000000 0.000000 
#    y 0.000000 1.667020 0.000000 
#    z 0.000000 0.000000 1.656130 
# 
# From -- ./inp_files/6787.got.cif
#   From: 2010.03.12/outbox.cif.g09.slc.cpg/sg123_4_cif.got.tgz:6787.got - 2010.04.06 16:26:55.
