data_PCOD8312878
_publ_section_title
;
Structure prediction by ZEFSAII (Michael W. Deem and Ramdas Pophale) SiO2 
 PCOD8312878
Probable space group: P 4/M M M
;
_chemical_formula_sum "Si O2"
_cell_formula_units_Z 56
_cell_length_a 13.792156
_cell_length_b 13.792156
_cell_length_c 17.981631
_cell_angle_alpha 90.000000
_cell_angle_beta 90.000000
_cell_angle_gamma 90.000000
_cell_volume 3420.529992
_symmetry_space_group_name_H-M "P 4/M M M"
_symmetry_group_IT_number 123
_symmetry_cell_setting 'tetragonal'
loop_
_space_group_symop_operation_xyz
x,y,z
-y,x,z
-x,-y,z
y,-x,z
x,-y,-z
-x,y,-z
y,x,-z
-y,-x,-z
-x,-y,-z
y,-x,-z
x,y,-z
-y,x,-z
-x,y,z
x,-y,z
-y,-x,z
y,x,z
loop_
_atom_site_type_symbol
_atom_site_label
_atom_site_fract_x
_atom_site_fract_y
_atom_site_fract_z
Si Si1 0.384995 0.107700 0.918595
Si Si2 0.115138 0.724792 0.500000
Si Si3 0.237180 0.389756 0.212013
Si Si4 0.228454 0.612941 0.379534
O O1 0.500000 0.102755 0.910237
O O2 0.340477 0.168966 0.850471
O O3 0.341447 0.000000 0.912271
O O4 0.357444 0.151701 0.000000
O O5 0.172422 0.827579 0.500000
O O6 0.143834 0.661081 0.428227
O O7 0.000000 0.745076 0.500000
O O8 0.255832 0.500000 0.191332
O O9 0.341755 0.341755 0.209033
O O10 0.192046 0.377537 0.294319
O O11 0.244555 0.500000 0.401039
O O12 0.329926 0.670075 0.392961
#
# Coordination Sequence:
#
# PCOD8312878 Si02
#       4
#    16   8  16  16
#     4   8  14  25  40  57  78 106 142 184 225 259
#     4  10  21  36  52  70  92 116 145 184 228 274
#     4   9  17  28  42  62  89 119 148 177 210 252
#     4   9  18  31  46  67  94 122 153 186 220 262
#
# _framework density 16.371732000000002
#
# number of rings (size 3 to 8) (size 9 to 14) (size 15 to 20)
#    0.000    3.143    0.000    1.286    0.000    3.571 
#    0.000    5.714    0.000    2.571    0.000    4.000 
#    0.000    0.571    0.000    3.143    0.000    0.286 
#
# Total GULP energy -693885.784480 kJ/mol
# GULP energy per Si atom -12390.817580 kJ/mol
# Density = 1.633447 g / cm^3
# Si number density = 16.371732 Si / 1000 Ang^3
#
#
#
# Elastic Constant Matrix: (Units=GPa)
#
#
# Indices 1 2 3 4 5 6 
#
# 1 81.6219 36.4909 50.7320 0.0000 0.0000 0.0000
# 2 36.4909 81.6221 50.7319 0.0000 0.0000 0.0000
# 3 50.7320 50.7319 128.0455 0.0000 0.0000 0.0000
# 4 0.0000 0.0000 0.0000 24.1567 0.0000 0.0000
# 5 0.0000 0.0000 0.0000 0.0000 24.1570 0.0000
# 6 0.0000 0.0000 0.0000 0.0000 0.0000 9.3807
#
#
#
# Elastic Compliance Matrix: (Units=1/GPa)
#
#
# Indices 1 2 3 4 5 6 
#
# 1 0.017496 -0.004661 -0.005085 0.000000 0.000000 0.000000
# 2 -0.004661 0.017496 -0.005085 0.000000 0.000000 0.000000
# 3 -0.005085 -0.005085 0.011839 0.000000 0.000000 0.000000
# 4 0.000000 0.000000 0.000000 0.041396 0.000000 0.000000
# 5 0.000000 0.000000 0.000000 0.000000 0.041396 0.000000
# 6 0.000000 0.000000 0.000000 0.000000 0.000000 0.106601
#
#
# Mechanical properties :
#
#
# Convention : Reuss Voigt Hill
#
# Bulk Modulus (GPa) = 58.24725 63.02212 60.63468
# Shear Modulus (GPa) = 18.40862 21.76120 20.08491
#
# Velocity S-wave (km/s) = 3.35687 3.64977 3.50638
# Velocity P-wave (km/s) = 7.11898 7.50594 7.31502
#
# Compressibility (1/GPa) = 0.01716819
#
# Stress axis : x y z
#
# Youngs Moduli (GPa) = 57.15491 57.15509 84.46469
#
# Poissons Ratio (x) = 0.26642 0.42952
# Poissons Ratio (y) = 0.26642 0.42952
# Poissons Ratio (z) = 0.29065 0.29064
#
# Static dielectric constant tensor:
#      x y z
#    x 2.914180 0.000000 0.000000 
#    y 0.000000 2.914180 0.000000 
#    z 0.000000 0.000000 3.512600 
# 
# 
# High freq. dielectric constant tensor:
#      x y z
#    x 1.600510 0.000000 0.000000 
#    y 0.000000 1.600510 0.000000 
#    z 0.000000 0.000000 1.653610 
# 
# From -- ./inp_files/4857.got.cif
#   From: 2010.03.12/outbox.cif.g09.slc.cpg/sg123_3_cif.got.tgz:4857.got - 2010.04.06 16:26:55.
