data_PCOD8312633
_publ_section_title
;
Structure prediction by ZEFSAII (Michael W. Deem and Ramdas Pophale) SiO2 
 PCOD8312633
Probable space group: P 4/M M M
;
_chemical_formula_sum "Si O2"
_cell_formula_units_Z 68
_cell_length_a 12.769461
_cell_length_b 12.769461
_cell_length_c 23.657680
_cell_angle_alpha 90.000000
_cell_angle_beta 90.000000
_cell_angle_gamma 90.000000
_cell_volume 3857.600819
_symmetry_space_group_name_H-M "P 4/M M M"
_symmetry_group_IT_number 123
_symmetry_cell_setting 'tetragonal'
loop_
_space_group_symop_operation_xyz
x,y,z
-y,x,z
-x,-y,z
y,-x,z
x,-y,-z
-x,y,-z
y,x,-z
-y,-x,-z
-x,-y,-z
y,-x,-z
x,y,-z
-y,x,-z
-x,y,z
x,-y,z
-y,-x,z
y,x,z
loop_
_atom_site_type_symbol
_atom_site_label
_atom_site_fract_x
_atom_site_fract_y
_atom_site_fract_z
Si Si1 0.259151 0.259151 0.937119
Si Si2 0.379808 0.117853 0.856912
Si Si3 0.000000 0.375805 0.563775
Si Si4 0.207053 0.621364 0.629112
Si Si5 0.879937 0.879937 0.000000
Si Si6 0.715157 0.121073 0.263832
O O1 0.354311 0.205437 0.903840
O O2 0.296926 0.296926 0.000000
O O3 0.169950 0.169950 0.943586
O O4 0.500000 0.129257 0.840806
O O5 0.315416 0.141162 0.800680
O O6 0.356113 0.000000 0.879522
O O7 0.106213 0.336814 0.594207
O O8 0.000000 0.500000 0.565259
O O9 0.000000 0.332209 0.500000
O O10 0.233794 0.500000 0.615879
O O11 0.307662 0.692339 0.612746
O O12 0.179010 0.632239 0.695432
O O13 0.000000 0.853289 0.000000
O O14 0.830155 0.169846 0.273608
O O15 0.718799 0.000000 0.279546
#
# Coordination Sequence:
#
# PCOD8312633 Si02
#       6
#     8  16   8  16   4  16
#     4  10  21  34  50  73 104 134 170 215 259 314
#     4  10  20  34  54  78 103 134 172 217 265 317
#     4   9  18  34  56  81 111 149 192 229 265 320
#     4  10  20  34  55  83 114 149 187 232 281 328
#     4   9  18  32  50  70 100 135 162 200 258 321
#     4  10  19  33  54  81 112 143 177 220 271 327
#
# _framework density 17.627535999999999
#
# number of rings (size 3 to 8) (size 9 to 14) (size 15 to 20)
#    0.353    1.824    2.353    1.412    0.000    2.353 
#    0.000    1.176    0.000    0.706    0.000    4.941 
#    0.000    0.000    0.000    0.000    0.000    0.000 
#
# Total GULP energy -842915.922830 kJ/mol
# GULP energy per Si atom -12395.822395 kJ/mol
# Density = 1.758741 g / cm^3
# Si number density = 17.627536 Si / 1000 Ang^3
#
#
#
# Elastic Constant Matrix: (Units=GPa)
#
#
# Indices 1 2 3 4 5 6 
#
# 1 79.5098 51.0261 22.9947 0.0000 0.0000 0.0000
# 2 51.0261 79.5098 22.9947 0.0000 0.0000 0.0000
# 3 22.9947 22.9947 77.1390 0.0000 0.0000 0.0000
# 4 0.0000 0.0000 0.0000 15.8740 0.0000 0.0000
# 5 0.0000 0.0000 0.0000 0.0000 15.8740 0.0000
# 6 0.0000 0.0000 0.0000 0.0000 0.0000 26.4163
#
#
#
# Elastic Compliance Matrix: (Units=1/GPa)
#
#
# Indices 1 2 3 4 5 6 
#
# 1 0.021834 -0.013274 -0.002552 0.000000 0.000000 0.000000
# 2 -0.013274 0.021834 -0.002552 0.000000 0.000000 0.000000
# 3 -0.002552 -0.002552 0.014485 0.000000 0.000000 0.000000
# 4 0.000000 0.000000 0.000000 0.062996 0.000000 0.000000
# 5 0.000000 0.000000 0.000000 0.000000 0.062996 0.000000
# 6 0.000000 0.000000 0.000000 0.000000 0.000000 0.037855
#
#
# Mechanical properties :
#
#
# Convention : Reuss Voigt Hill
#
# Bulk Modulus (GPa) = 46.73368 47.79883 47.26625
# Shear Modulus (GPa) = 18.80498 20.90907 19.85702
#
# Velocity S-wave (km/s) = 3.26973 3.44780 3.35995
# Velocity P-wave (km/s) = 6.38938 6.55932 6.47490
#
# Compressibility (1/GPa) = 0.02139785
#
# Stress axis : x y z
#
# Youngs Moduli (GPa) = 45.80075 45.80075 69.03770
#
# Poissons Ratio (x) = 0.60796 0.17616
# Poissons Ratio (y) = 0.60796 0.17616
# Poissons Ratio (z) = 0.11686 0.11686
#
# Static dielectric constant tensor:
#      x y z
#    x 3.126860 0.000000 0.000000 
#    y 0.000000 3.126860 0.000000 
#    z 0.000000 0.000000 3.290260 
# 
# 
# High freq. dielectric constant tensor:
#      x y z
#    x 1.669670 0.000000 0.000000 
#    y 0.000000 1.669670 0.000000 
#    z 0.000000 0.000000 1.682680 
# 
# From -- ./inp_files/7934.got.cif
#   From: 2010.03.12/outbox.cif.g09.slc.cpg/sg123_4_cif.got.tgz:7934.got - 2010.04.06 16:26:55.
