data_PCOD8312603
_publ_section_title
;
Structure prediction by ZEFSAII (Michael W. Deem and Ramdas Pophale) SiO2 
 PCOD8312603
Probable space group: P 4/M M M
;
_chemical_formula_sum "Si O2"
_cell_formula_units_Z 64
_cell_length_a 21.688072
_cell_length_b 21.688072
_cell_length_c 7.639898
_cell_angle_alpha 90.000000
_cell_angle_beta 90.000000
_cell_angle_gamma 90.000000
_cell_volume 3593.597670
_symmetry_space_group_name_H-M "P 4/M M M"
_symmetry_group_IT_number 123
_symmetry_cell_setting 'tetragonal'
loop_
_space_group_symop_operation_xyz
x,y,z
-y,x,z
-x,-y,z
y,-x,z
x,-y,-z
-x,y,-z
y,x,-z
-y,-x,-z
-x,-y,-z
y,-x,-z
x,y,-z
-y,x,-z
-x,y,z
x,-y,z
-y,-x,z
y,x,z
loop_
_atom_site_type_symbol
_atom_site_label
_atom_site_fract_x
_atom_site_fract_y
_atom_site_fract_z
Si Si1 0.332626 0.430485 0.702617
Si Si2 0.840090 0.260130 0.201856
Si Si3 0.393124 0.797888 0.807687
Si Si4 0.297277 0.929083 0.500000
Si Si5 0.119470 0.567882 0.500000
O O1 0.317663 0.418489 0.500000
O O2 0.354176 0.500000 0.737004
O O3 0.387536 0.387536 0.770770
O O4 0.271782 0.415938 0.810941
O O5 0.799665 0.200336 0.252706
O O6 0.797985 0.320212 0.234574
O O7 0.899171 0.266471 0.327617
O O8 0.862374 0.255768 0.000000
O O9 0.431189 0.837903 0.670807
O O10 0.405091 0.826427 0.000000
O O11 0.372450 0.925118 0.500000
O O12 0.278467 0.000000 0.500000
O O13 0.085707 0.500000 0.500000
#
# Coordination Sequence:
#
# PCOD8312603 Si02
#       5
#    16  16  16   8   8
#     4  10  20  32  45  62  86 116 151 194 246 306
#     4   9  18  33  54  79 104 131 165 206 253 301
#     4  10  19  32  52  75  96 118 152 205 264 308
#     4  10  21  34  50  75 107 144 177 207 247 290
#     4  10  20  34  50  71  99 132 173 212 246 292
#
# _framework density 17.809450999999999
#
# number of rings (size 3 to 8) (size 9 to 14) (size 15 to 20)
#    0.000    2.250    1.250    1.875    0.000    4.500 
#    0.000    1.250    0.000    0.000    0.000    8.750 
#    0.000    4.000    0.000   11.000    0.000    0.000 
#
# Total GULP energy -793455.680117 kJ/mol
# GULP energy per Si atom -12397.745002 kJ/mol
# Density = 1.776892 g / cm^3
# Si number density = 17.809451 Si / 1000 Ang^3
#
#
#
# Elastic Constant Matrix: (Units=GPa)
#
#
# Indices 1 2 3 4 5 6 
#
# 1 81.2249 26.5051 33.3108 0.0000 0.0000 0.0000
# 2 26.5051 81.2249 33.3108 0.0000 0.0000 0.0000
# 3 33.3108 33.3108 95.5603 0.0000 0.0000 0.0000
# 4 0.0000 0.0000 0.0000 5.5187 0.0000 0.0000
# 5 0.0000 0.0000 0.0000 0.0000 5.5187 0.0000
# 6 0.0000 0.0000 0.0000 0.0000 0.0000 10.8204
#
#
#
# Elastic Compliance Matrix: (Units=1/GPa)
#
#
# Indices 1 2 3 4 5 6 
#
# 1 0.015054 -0.003221 -0.004125 0.000000 0.000000 0.000000
# 2 -0.003221 0.015054 -0.004125 0.000000 0.000000 0.000000
# 3 -0.004125 -0.004125 0.013340 0.000000 0.000000 0.000000
# 4 0.000000 0.000000 0.000000 0.181202 0.000000 0.000000
# 5 0.000000 0.000000 0.000000 0.000000 0.181202 0.000000
# 6 0.000000 0.000000 0.000000 0.000000 0.000000 0.092418
#
#
# Mechanical properties :
#
#
# Convention : Reuss Voigt Hill
#
# Bulk Modulus (GPa) = 48.76289 49.36263 49.06276
# Shear Modulus (GPa) = 9.46882 15.36377 12.41629
#
# Velocity S-wave (km/s) = 2.30831 2.94032 2.64327
# Velocity P-wave (km/s) = 5.87743 6.26934 6.07654
#
# Compressibility (1/GPa) = 0.02050740
#
# Stress axis : x y z
#
# Youngs Moduli (GPa) = 66.42686 66.42686 74.96038
#
# Poissons Ratio (x) = 0.21395 0.30921
# Poissons Ratio (y) = 0.21395 0.30921
# Poissons Ratio (z) = 0.27401 0.27401
#
# Static dielectric constant tensor:
#      x y z
#    x 3.020680 0.000000 0.000000 
#    y 0.000000 3.020680 0.000000 
#    z 0.000000 0.000000 3.466200 
# 
# 
# High freq. dielectric constant tensor:
#      x y z
#    x 1.660210 0.000000 0.000000 
#    y 0.000000 1.660210 0.000000 
#    z 0.000000 0.000000 1.704330 
# 
# From -- ./inp_files/904.got.cif
#   From: 2010.03.12/outbox.cif.g09.slc.cpg/sg123_1_cif.got.tgz:904.got - 2010.04.06 16:26:55.
