data_PCOD8312614
_publ_section_title
;
Structure prediction by ZEFSAII (Michael W. Deem and Ramdas Pophale) SiO2 
 PCOD8312614
Probable space group: P 4/M M M
;
_chemical_formula_sum "Si O2"
_cell_formula_units_Z 72
_cell_length_a 13.005497
_cell_length_b 13.005497
_cell_length_c 24.543718
_cell_angle_alpha 90.000000
_cell_angle_beta 90.000000
_cell_angle_gamma 90.000000
_cell_volume 4151.396921
_symmetry_space_group_name_H-M "P 4/M M M"
_symmetry_group_IT_number 123
_symmetry_cell_setting 'tetragonal'
loop_
_space_group_symop_operation_xyz
x,y,z
-y,x,z
-x,-y,z
y,-x,z
x,-y,-z
-x,y,-z
y,x,-z
-y,-x,-z
-x,-y,-z
y,-x,-z
x,y,-z
-y,x,-z
-x,y,z
x,-y,z
-y,-x,z
y,x,z
loop_
_atom_site_type_symbol
_atom_site_label
_atom_site_fract_x
_atom_site_fract_y
_atom_site_fract_z
Si Si1 0.881470 0.383907 0.265315
Si Si2 0.500000 0.878366 0.438219
Si Si3 0.116653 0.283332 0.060802
Si Si4 0.220434 0.383057 0.155016
Si Si5 0.878659 0.290074 0.379508
O O1 0.846289 0.500000 0.280803
O O2 0.823738 0.341304 0.212179
O O3 0.860376 0.308224 0.315534
O O4 0.000000 0.385157 0.249774
O O5 0.500000 0.837782 0.500000
O O6 0.605859 0.840471 0.409985
O O7 0.500000 0.000000 0.434568
O O8 0.182802 0.182802 0.074143
O O9 0.139784 0.370625 0.105537
O O10 0.000000 0.247780 0.065822
O O11 0.140291 0.326454 0.000000
O O12 0.251015 0.500000 0.161386
O O13 0.323521 0.323521 0.139859
O O14 0.807375 0.192626 0.397614
O O15 0.000000 0.266561 0.391913
#
# Coordination Sequence:
#
# PCOD8312614 Si02
#       5
#    16   8  16  16  16
#     4   9  16  29  50  74  98 126 165 207 245 289
#     4   9  18  34  54  75  99 133 178 215 244 287
#     4   9  18  32  49  70  95 121 152 192 239 293
#     4  10  20  32  47  68  94 126 164 205 248 291
#     4  10  19  32  52  78 108 139 171 210 255 304
#
# _framework density 17.34356
#
# number of rings (size 3 to 8) (size 9 to 14) (size 15 to 20)
#    0.000    2.556    1.111    1.333    0.000    2.889 
#    0.000    2.222    0.000    0.333    0.000   10.111 
#    0.000    0.000    0.000    0.000    0.000    0.000 
#
# Total GULP energy -892410.369003 kJ/mol
# GULP energy per Si atom -12394.588458 kJ/mol
# Density = 1.730409 g / cm^3
# Si number density = 17.343560 Si / 1000 Ang^3
#
#
#
# Elastic Constant Matrix: (Units=GPa)
#
#
# Indices 1 2 3 4 5 6 
#
# 1 77.6853 41.2246 37.9743 0.0000 0.0000 0.0000
# 2 41.2246 77.6853 37.9743 0.0000 0.0000 0.0000
# 3 37.9743 37.9743 99.7352 0.0000 0.0000 0.0000
# 4 0.0000 0.0000 0.0000 20.7245 0.0000 0.0000
# 5 0.0000 0.0000 0.0000 0.0000 20.7245 0.0000
# 6 0.0000 0.0000 0.0000 0.0000 0.0000 21.2770
#
#
#
# Elastic Compliance Matrix: (Units=1/GPa)
#
#
# Indices 1 2 3 4 5 6 
#
# 1 0.019269 -0.008157 -0.004231 0.000000 0.000000 0.000000
# 2 -0.008157 0.019269 -0.004231 0.000000 0.000000 0.000000
# 3 -0.004231 -0.004231 0.013248 0.000000 0.000000 0.000000
# 4 0.000000 0.000000 0.000000 0.048252 0.000000 0.000000
# 5 0.000000 0.000000 0.000000 0.000000 0.048252 0.000000
# 6 0.000000 0.000000 0.000000 0.000000 0.000000 0.046999
#
#
# Mechanical properties :
#
#
# Convention : Reuss Voigt Hill
#
# Bulk Modulus (GPa) = 53.91183 54.38358 54.14770
# Shear Modulus (GPa) = 21.30273 21.74073 21.52173
#
# Velocity S-wave (km/s) = 3.50848 3.54437 3.52647
# Velocity P-wave (km/s) = 6.89672 6.94080 6.91880
#
# Compressibility (1/GPa) = 0.01854881
#
# Stress axis : x y z
#
# Youngs Moduli (GPa) = 51.89564 51.89564 75.48070
#
# Poissons Ratio (x) = 0.42333 0.31935
# Poissons Ratio (y) = 0.42333 0.31935
# Poissons Ratio (z) = 0.21957 0.21957
#
# Static dielectric constant tensor:
#      x y z
#    x 3.047730 0.000000 0.000000 
#    y 0.000000 3.047730 0.000000 
#    z 0.000000 0.000000 3.437790 
# 
# 
# High freq. dielectric constant tensor:
#      x y z
#    x 1.651680 0.000000 0.000000 
#    y 0.000000 1.651680 0.000000 
#    z 0.000000 0.000000 1.681360 
# 
# From -- ./inp_files/7823.got.cif
#   From: 2010.03.12/outbox.cif.g09.slc.cpg/sg123_4_cif.got.tgz:7823.got - 2010.04.06 16:26:55.
