data_PCOD8312558
_publ_section_title
;
Structure prediction by ZEFSAII (Michael W. Deem and Ramdas Pophale) SiO2 
 PCOD8312558
Probable space group: P 4/M M M
;
_chemical_formula_sum "Si O2"
_cell_formula_units_Z 48
_cell_length_a 19.235032
_cell_length_b 19.235032
_cell_length_c 7.570571
_cell_angle_alpha 90.000000
_cell_angle_beta 90.000000
_cell_angle_gamma 90.000000
_cell_volume 2801.008734
_symmetry_space_group_name_H-M "P 4/M M M"
_symmetry_group_IT_number 123
_symmetry_cell_setting 'tetragonal'
loop_
_space_group_symop_operation_xyz
x,y,z
-y,x,z
-x,-y,z
y,-x,z
x,-y,-z
-x,y,-z
y,x,-z
-y,-x,-z
-x,-y,-z
y,-x,-z
x,y,-z
-y,x,-z
-x,y,z
x,-y,z
-y,-x,z
y,x,z
loop_
_atom_site_type_symbol
_atom_site_label
_atom_site_fract_x
_atom_site_fract_y
_atom_site_fract_z
Si Si1 0.922036 0.701656 0.500000
Si Si2 0.770240 0.656328 0.500000
Si Si3 0.188323 0.922557 0.199854
Si Si4 0.420269 0.691125 0.798285
O O1 0.854393 0.652826 0.500000
O O2 0.914299 0.745639 0.322857
O O3 0.000000 0.665792 0.500000
O O4 0.733695 0.733695 0.500000
O O5 0.748289 0.615382 0.675259
O O6 0.128462 0.871539 0.266623
O O7 0.157447 0.000000 0.213190
O O8 0.211771 0.905200 0.000000
O O9 0.500000 0.681048 0.743294
O O10 0.383141 0.616860 0.770997
O O11 0.412962 0.717047 0.000000
#
# Coordination Sequence:
#
# PCOD8312558 Si02
#       4
#     8   8  16  16
#     4  10  20  33  47  64  88 120 161 208 251 285
#     4  10  19  31  49  72  97 127 163 202 242 284
#     4   9  17  28  42  61  85 113 146 187 238 296
#     4   9  18  32  51  77 106 133 159 186 222 274
#
# _framework density 17.136683999999999
#
# number of rings (size 3 to 8) (size 9 to 14) (size 15 to 20)
#    0.000    2.667    0.000    2.000    0.000    2.000 
#    0.000    6.667    0.000    8.000    0.000    2.333 
#    0.000    0.000    0.000    0.000    0.000    0.000 
#
# Total GULP energy -594889.966263 kJ/mol
# GULP energy per Si atom -12393.540964 kJ/mol
# Density = 1.709768 g / cm^3
# Si number density = 17.136684 Si / 1000 Ang^3
#
#
#
# Elastic Constant Matrix: (Units=GPa)
#
#
# Indices 1 2 3 4 5 6 
#
# 1 110.5399 53.5112 40.3543 0.0000 0.0000 0.0000
# 2 53.5112 110.5399 40.3543 0.0000 0.0000 0.0000
# 3 40.3543 40.3543 81.1229 0.0000 0.0000 0.0000
# 4 0.0000 0.0000 0.0000 20.9072 0.0000 0.0000
# 5 0.0000 0.0000 0.0000 0.0000 20.9072 0.0000
# 6 0.0000 0.0000 0.0000 0.0000 0.0000 20.2181
#
#
#
# Elastic Compliance Matrix: (Units=1/GPa)
#
#
# Indices 1 2 3 4 5 6 
#
# 1 0.012803 -0.004732 -0.004015 0.000000 0.000000 0.000000
# 2 -0.004732 0.012803 -0.004015 0.000000 0.000000 0.000000
# 3 -0.004015 -0.004015 0.016321 0.000000 0.000000 0.000000
# 4 0.000000 0.000000 0.000000 0.047830 0.000000 0.000000
# 5 0.000000 0.000000 0.000000 0.000000 0.047830 0.000000
# 6 0.000000 0.000000 0.000000 0.000000 0.000000 0.049461
#
#
# Mechanical properties :
#
#
# Convention : Reuss Voigt Hill
#
# Bulk Modulus (GPa) = 60.96180 63.40471 62.18326
# Shear Modulus (GPa) = 22.93158 23.60536 23.26847
#
# Velocity S-wave (km/s) = 3.66205 3.71546 3.68885
# Velocity P-wave (km/s) = 7.31655 7.44889 7.38302
#
# Compressibility (1/GPa) = 0.01640371
#
# Stress axis : x y z
#
# Youngs Moduli (GPa) = 78.10716 78.10716 61.26976
#
# Poissons Ratio (x) = 0.36961 0.24599
# Poissons Ratio (y) = 0.36961 0.24599
# Poissons Ratio (z) = 0.31358 0.31358
#
# Static dielectric constant tensor:
#      x y z
#    x 3.080590 0.000000 0.000000 
#    y 0.000000 3.080590 0.000000 
#    z 0.000000 0.000000 3.497970 
# 
# 
# High freq. dielectric constant tensor:
#      x y z
#    x 1.638880 0.000000 0.000000 
#    y 0.000000 1.638880 0.000000 
#    z 0.000000 0.000000 1.685400 
# 
# From -- ./inp_files/432.got.cif
#   From: 2010.03.12/outbox.cif.g09.slc.cpg/sg123_1_cif.got.tgz:432.got - 2010.04.06 16:26:55.
