data_PCOD8312239
_publ_section_title
;
Structure prediction by ZEFSAII (Michael W. Deem and Ramdas Pophale) SiO2 
 PCOD8312239
Probable space group: P 4/M M M
;
_chemical_formula_sum "Si O2"
_cell_formula_units_Z 104
_cell_length_a 15.264517
_cell_length_b 15.264517
_cell_length_c 25.769054
_cell_angle_alpha 90.000000
_cell_angle_beta 90.000000
_cell_angle_gamma 90.000000
_cell_volume 6004.330777
_symmetry_space_group_name_H-M "P 4/M M M"
_symmetry_group_IT_number 123
_symmetry_cell_setting 'tetragonal'
loop_
_space_group_symop_operation_xyz
x,y,z
-y,x,z
-x,-y,z
y,-x,z
x,-y,-z
-x,y,-z
y,x,-z
-y,-x,-z
-x,-y,-z
y,-x,-z
x,y,-z
-y,x,-z
-x,y,z
x,-y,z
-y,-x,z
y,x,z
loop_
_atom_site_type_symbol
_atom_site_label
_atom_site_fract_x
_atom_site_fract_y
_atom_site_fract_z
Si Si1 0.902147 0.601633 0.632568
Si Si2 0.097886 0.649256 0.254763
Si Si3 0.269105 0.406980 0.793308
Si Si4 0.600924 0.743980 0.000000
Si Si5 0.904213 0.761902 0.160823
Si Si6 0.830173 0.599319 0.892365
Si Si7 0.742374 0.600447 0.439630
O O1 0.890637 0.500000 0.648754
O O2 0.888528 0.662056 0.683568
O O3 0.830437 0.629238 0.590158
O O4 0.000000 0.616925 0.609516
O O5 0.174556 0.586829 0.234134
O O6 0.106384 0.740110 0.222337
O O7 0.000000 0.609046 0.245271
O O8 0.316397 0.500000 0.782727
O O9 0.329235 0.329235 0.770893
O O10 0.254905 0.394742 0.854932
O O11 0.624361 0.802471 0.950270
O O12 0.500000 0.715470 0.000000
O O13 0.655343 0.655343 0.000000
O O14 0.830734 0.830734 0.143222
O O15 0.898867 0.671831 0.127703
O O16 0.000000 0.802953 0.150492
O O17 0.869742 0.500000 0.890428
O O18 0.762988 0.612650 0.500000
O O19 0.716585 0.500000 0.427045
O O20 0.661417 0.661417 0.421974
#
# Coordination Sequence:
#
# PCOD8312239 Si02
#       7
#    16  16  16   8  16  16  16
#     4   9  17  29  46  69  94 119 152 194 238 282
#     4   9  17  30  49  70  90 114 147 189 235 278
#     4  10  19  30  44  63  91 124 156 190 225 266
#     4  10  18  29  47  69  96 128 160 196 237 284
#     4  10  20  34  52  73  98 126 156 191 232 281
#     4   9  18  32  50  71  93 120 155 195 238 279
#     4   9  18  31  46  66  93 126 162 196 230 269
#
# _framework density 17.320830999999998
#
# number of rings (size 3 to 8) (size 9 to 14) (size 15 to 20)
#    0.000    2.615    0.000    3.231    0.000    3.923 
#    0.000    7.308    0.000    4.154    0.000    2.154 
#    0.000    2.154    0.000    1.692    0.000    1.385 
#
# Total GULP energy -1288590.072708 kJ/mol
# GULP energy per Si atom -12390.289161 kJ/mol
# Density = 1.728141 g / cm^3
# Si number density = 17.320831 Si / 1000 Ang^3
#
#
#
# Elastic Constant Matrix: (Units=GPa)
#
#
# Indices 1 2 3 4 5 6 
#
# 1 96.7934 59.5266 44.4352 0.0000 0.0000 0.0000
# 2 59.5266 96.7934 44.4352 0.0000 0.0000 0.0000
# 3 44.4352 44.4352 86.3366 0.0000 0.0000 0.0000
# 4 0.0000 0.0000 0.0000 18.2472 0.0000 0.0000
# 5 0.0000 0.0000 0.0000 0.0000 18.2472 0.0000
# 6 0.0000 0.0000 0.0000 0.0000 0.0000 13.4224
#
#
#
# Elastic Compliance Matrix: (Units=1/GPa)
#
#
# Indices 1 2 3 4 5 6 
#
# 1 0.017938 -0.008895 -0.004654 0.000000 0.000000 0.000000
# 2 -0.008895 0.017938 -0.004654 0.000000 0.000000 0.000000
# 3 -0.004654 -0.004654 0.016373 0.000000 0.000000 0.000000
# 4 0.000000 0.000000 0.000000 0.054803 0.000000 0.000000
# 5 0.000000 0.000000 0.000000 0.000000 0.054803 0.000000
# 6 0.000000 0.000000 0.000000 0.000000 0.000000 0.074502
#
#
# Mechanical properties :
#
#
# Convention : Reuss Voigt Hill
#
# Bulk Modulus (GPa) = 63.12072 64.07969 63.60021
# Shear Modulus (GPa) = 17.98263 18.75182 18.36723
#
# Velocity S-wave (km/s) = 3.22562 3.29388 3.25993
# Velocity P-wave (km/s) = 7.09887 7.17930 7.13920
#
# Compressibility (1/GPa) = 0.01584266
#
# Stress axis : x y z
#
# Youngs Moduli (GPa) = 55.74659 55.74659 61.07454
#
# Poissons Ratio (x) = 0.49587 0.28426
# Poissons Ratio (y) = 0.49587 0.28426
# Poissons Ratio (z) = 0.25946 0.25946
#
# Static dielectric constant tensor:
#      x y z
#    x 3.102440 0.000000 0.000000 
#    y 0.000000 3.102440 0.000000 
#    z 0.000000 0.000000 3.219190 
# 
# 
# High freq. dielectric constant tensor:
#      x y z
#    x 1.652690 0.000000 0.000000 
#    y 0.000000 1.652690 0.000000 
#    z 0.000000 0.000000 1.660030 
# 
# From -- ./inp_files/7505.got.cif
#   From: 2010.03.12/outbox.cif.g09.slc.cpg/sg123_4_cif.got.tgz:7505.got - 2010.04.06 16:26:55.
