data_PCOD8312846
_publ_section_title
;
Structure prediction by ZEFSAII (Michael W. Deem and Ramdas Pophale) SiO2 
 PCOD8312846
Probable space group: P 4/M M M
;
_chemical_formula_sum "Si O2"
_cell_formula_units_Z 68
_cell_length_a 12.607077
_cell_length_b 12.607077
_cell_length_c 24.059043
_cell_angle_alpha 90.000000
_cell_angle_beta 90.000000
_cell_angle_gamma 90.000000
_cell_volume 3823.905571
_symmetry_space_group_name_H-M "P 4/M M M"
_symmetry_group_IT_number 123
_symmetry_cell_setting 'tetragonal'
loop_
_space_group_symop_operation_xyz
x,y,z
-y,x,z
-x,-y,z
y,-x,z
x,-y,-z
-x,y,-z
y,x,-z
-y,-x,-z
-x,-y,-z
y,-x,-z
x,y,-z
-y,x,-z
-x,y,z
x,-y,z
-y,-x,z
y,x,z
loop_
_atom_site_type_symbol
_atom_site_label
_atom_site_fract_x
_atom_site_fract_y
_atom_site_fract_z
Si Si1 0.684961 0.500000 0.500000
Si Si2 0.208813 0.383723 0.893656
Si Si3 0.708167 0.883266 0.000000
Si Si4 0.500000 0.124405 0.410301
Si Si5 0.289709 0.119712 0.789489
Si Si6 0.705454 0.879180 0.335847
O O1 0.606036 0.606036 0.500000
O O2 0.772306 0.500000 0.450437
O O3 0.256158 0.500000 0.899840
O O4 0.308179 0.308179 0.895231
O O5 0.146622 0.378386 0.835060
O O6 0.130729 0.361945 0.944880
O O7 0.806729 0.806729 0.000000
O O8 0.756047 0.000000 0.000000
O O9 0.395455 0.140128 0.374098
O O10 0.500000 0.000000 0.434739
O O11 0.184984 0.184984 0.803491
O O12 0.332090 0.143837 0.727367
O O13 0.253382 0.000000 0.795255
O O14 0.801072 0.801072 0.353685
O O15 0.747150 0.000000 0.341993
#
# Coordination Sequence:
#
# PCOD8312846 Si02
#       6
#     4  16   8   8  16  16
#     4  11  23  38  58  82 109 145 182 216 258 305
#     4  10  21  35  51  71  96 127 166 212 257 304
#     4  10  21  36  52  74 100 126 161 202 250 308
#     4  10  20  35  56  81 109 140 177 219 260 304
#     4   9  18  31  48  73 101 131 167 205 250 304
#     4   9  18  32  51  76 106 139 175 216 262 311
#
# _framework density 17.782867
#
# number of rings (size 3 to 8) (size 9 to 14) (size 15 to 20)
#    0.000    2.412    0.000    1.941    1.647    3.176 
#    0.000    2.353    0.000    6.353    0.000    0.000 
#    0.000    8.471    0.000    0.000    0.000    0.000 
#
# Total GULP energy -842463.586960 kJ/mol
# GULP energy per Si atom -12389.170396 kJ/mol
# Density = 1.774239 g / cm^3
# Si number density = 17.782867 Si / 1000 Ang^3
#
#
#
# Elastic Constant Matrix: (Units=GPa)
#
#
# Indices 1 2 3 4 5 6 
#
# 1 104.6534 58.9141 56.1322 0.0000 0.0000 0.0000
# 2 58.9141 104.6534 56.1322 0.0000 0.0000 0.0000
# 3 56.1322 56.1322 104.5822 0.0000 0.0000 0.0000
# 4 0.0000 0.0000 0.0000 1.3407 0.0000 0.0000
# 5 0.0000 0.0000 0.0000 0.0000 1.3407 0.0000
# 6 0.0000 0.0000 0.0000 0.0000 0.0000 13.4679
#
#
#
# Elastic Compliance Matrix: (Units=1/GPa)
#
#
# Indices 1 2 3 4 5 6 
#
# 1 0.015771 -0.006092 -0.005195 0.000000 0.000000 0.000000
# 2 -0.006092 0.015771 -0.005195 0.000000 0.000000 0.000000
# 3 -0.005195 -0.005195 0.015139 0.000000 0.000000 0.000000
# 4 0.000000 0.000000 0.000000 0.745873 0.000000 0.000000
# 5 0.000000 0.000000 0.000000 0.000000 0.745873 0.000000
# 6 0.000000 0.000000 0.000000 0.000000 0.000000 0.074250
#
#
# Mechanical properties :
#
#
# Convention : Reuss Voigt Hill
#
# Bulk Modulus (GPa) = 72.90401 72.91622 72.91011
# Shear Modulus (GPa) = 3.02991 12.74391 7.88691
#
# Velocity S-wave (km/s) = 1.30673 2.67992 2.10826
# Velocity P-wave (km/s) = 6.58502 7.11819 6.85679
#
# Compressibility (1/GPa) = 0.01371667
#
# Stress axis : x y z
#
# Youngs Moduli (GPa) = 63.40669 63.40669 66.05597
#
# Poissons Ratio (x) = 0.38626 0.34317
# Poissons Ratio (y) = 0.38626 0.34317
# Poissons Ratio (z) = 0.32941 0.32941
#
# Static dielectric constant tensor:
#      x y z
#    x 3.305440 0.000000 0.000000 
#    y 0.000000 3.305440 0.000000 
#    z 0.000000 0.000000 3.671280 
# 
# 
# High freq. dielectric constant tensor:
#      x y z
#    x 1.686490 0.000000 0.000000 
#    y 0.000000 1.686490 0.000000 
#    z 0.000000 0.000000 1.694540 
# 
# From -- ./inp_files/7899.got.cif
#   From: 2010.03.12/outbox.cif.g09.slc.cpg/sg123_4_cif.got.tgz:7899.got - 2010.04.06 16:26:55.
