data_PCOD8312631
_publ_section_title
;
Structure prediction by ZEFSAII (Michael W. Deem and Ramdas Pophale) SiO2 
 PCOD8312631
Probable space group: P 4/M M M
;
_chemical_formula_sum "Si O2"
_cell_formula_units_Z 104
_cell_length_a 17.244241
_cell_length_b 17.244241
_cell_length_c 19.360710
_cell_angle_alpha 90.000000
_cell_angle_beta 90.000000
_cell_angle_gamma 90.000000
_cell_volume 5757.175219
_symmetry_space_group_name_H-M "P 4/M M M"
_symmetry_group_IT_number 123
_symmetry_cell_setting 'tetragonal'
loop_
_space_group_symop_operation_xyz
x,y,z
-y,x,z
-x,-y,z
y,-x,z
x,-y,-z
-x,y,-z
y,x,-z
-y,-x,-z
-x,-y,-z
y,-x,-z
x,y,-z
-y,x,-z
-x,y,z
x,-y,z
-y,-x,z
y,x,z
loop_
_atom_site_type_symbol
_atom_site_label
_atom_site_fract_x
_atom_site_fract_y
_atom_site_fract_z
Si Si1 0.000000 0.416071 0.418418
Si Si2 0.414025 0.705878 0.399971
Si Si3 0.212849 0.908404 0.301316
Si Si4 0.142042 0.684424 0.421369
Si Si5 0.414748 0.294355 0.237783
Si Si6 0.090269 0.412717 0.919514
Si Si7 0.300364 0.173164 0.182728
O O1 0.076254 0.372957 0.392956
O O2 0.000000 0.500000 0.382678
O O3 0.000000 0.424227 0.500000
O O4 0.500000 0.713550 0.433355
O O5 0.371625 0.628376 0.428255
O O6 0.360294 0.777318 0.421111
O O7 0.422557 0.699252 0.318933
O O8 0.127045 0.872956 0.288348
O O9 0.244145 0.862333 0.368767
O O10 0.265729 0.891456 0.234223
O O11 0.207107 0.000000 0.314240
O O12 0.125767 0.713317 0.500000
O O13 0.500000 0.291698 0.203176
O O14 0.369019 0.369019 0.207678
O O15 0.367639 0.216715 0.223891
O O16 0.116802 0.500000 0.896292
O O17 0.134547 0.342228 0.882491
O O18 0.000000 0.403317 0.903171
O O19 0.107487 0.402582 0.000000
O O20 0.232754 0.232754 0.158286
#
# Coordination Sequence:
#
# PCOD8312631 Si02
#       7
#     8  16  16  16  16  16  16
#     4   9  18  32  50  74 103 129 158 206 263 318
#     4  10  20  34  51  72 100 135 176 219 263 311
#     4  11  23  39  58  80 105 134 171 215 268 327
#     4  11  21  36  56  77 102 135 174 218 272 327
#     4   9  17  29  46  69  99 134 171 212 254 296
#     4   9  18  33  53  78 110 145 176 208 250 302
#     4  10  19  33  54  78 106 137 172 217 259 302
#
# _framework density 18.064415
#
# number of rings (size 3 to 8) (size 9 to 14) (size 15 to 20)
#    0.000    2.077    2.308    2.308    0.000    2.923 
#    0.000    1.538    0.000    0.000    0.000    2.154 
#    0.000    0.000    0.000   28.615    0.000    0.154 
#
# Total GULP energy -1288925.888055 kJ/mol
# GULP energy per Si atom -12393.518154 kJ/mol
# Density = 1.802330 g / cm^3
# Si number density = 18.064415 Si / 1000 Ang^3
#
#
#
# Elastic Constant Matrix: (Units=GPa)
#
#
# Indices 1 2 3 4 5 6 
#
# 1 104.0347 58.7912 34.8107 0.0000 0.0000 0.0000
# 2 58.7912 104.0347 34.8107 0.0000 0.0000 0.0000
# 3 34.8107 34.8107 62.5048 0.0000 0.0000 0.0000
# 4 0.0000 0.0000 0.0000 39.8981 0.0000 0.0000
# 5 0.0000 0.0000 0.0000 0.0000 39.8981 0.0000
# 6 0.0000 0.0000 0.0000 0.0000 0.0000 33.0668
#
#
#
# Elastic Compliance Matrix: (Units=1/GPa)
#
#
# Indices 1 2 3 4 5 6 
#
# 1 0.015082 -0.007021 -0.004489 0.000000 0.000000 0.000000
# 2 -0.007021 0.015082 -0.004489 0.000000 0.000000 0.000000
# 3 -0.004489 -0.004489 0.020999 0.000000 0.000000 0.000000
# 4 0.000000 0.000000 0.000000 0.025064 0.000000 0.000000
# 5 0.000000 0.000000 0.000000 0.000000 0.025064 0.000000
# 6 0.000000 0.000000 0.000000 0.000000 0.000000 0.030242
#
#
# Mechanical properties :
#
#
# Convention : Reuss Voigt Hill
#
# Bulk Modulus (GPa) = 52.18177 58.59992 55.39084
# Shear Modulus (GPa) = 29.42563 32.05005 30.73784
#
# Velocity S-wave (km/s) = 4.04038 4.21671 4.12948
# Velocity P-wave (km/s) = 7.12147 7.49782 7.31207
#
# Compressibility (1/GPa) = 0.01916378
#
# Stress axis : x y z
#
# Youngs Moduli (GPa) = 66.30479 66.30479 47.62043
#
# Poissons Ratio (x) = 0.46551 0.21379
# Poissons Ratio (y) = 0.46551 0.21379
# Poissons Ratio (z) = 0.29767 0.29767
#
# Static dielectric constant tensor:
#      x y z
#    x 3.474650 0.000000 0.000000 
#    y 0.000000 3.474650 0.000000 
#    z 0.000000 0.000000 3.066170 
# 
# 
# High freq. dielectric constant tensor:
#      x y z
#    x 1.702780 0.000000 0.000000 
#    y 0.000000 1.702780 0.000000 
#    z 0.000000 0.000000 1.672510 
# 
# From -- ./inp_files/5610.got.cif
#   From: 2010.03.12/outbox.cif.g09.slc.cpg/sg123_3_cif.got.tgz:5610.got - 2010.04.06 16:26:55.
