data_PCOD8312187
_publ_section_title
;
Structure prediction by ZEFSAII (Michael W. Deem and Ramdas Pophale) SiO2 
 PCOD8312187
Probable space group: P 4/M M M
;
_chemical_formula_sum "Si O2"
_cell_formula_units_Z 72
_cell_length_a 18.079386
_cell_length_b 18.079386
_cell_length_c 14.033406
_cell_angle_alpha 90.000000
_cell_angle_beta 90.000000
_cell_angle_gamma 90.000000
_cell_volume 4587.017999
_symmetry_space_group_name_H-M "P 4/M M M"
_symmetry_group_IT_number 123
_symmetry_cell_setting 'tetragonal'
loop_
_space_group_symop_operation_xyz
x,y,z
-y,x,z
-x,-y,z
y,-x,z
x,-y,-z
-x,y,-z
y,x,-z
-y,-x,-z
-x,-y,-z
y,-x,-z
x,y,-z
-y,x,-z
-x,y,z
x,-y,z
-y,-x,z
y,x,z
loop_
_atom_site_type_symbol
_atom_site_label
_atom_site_fract_x
_atom_site_fract_y
_atom_site_fract_z
Si Si1 0.000000 0.588100 0.108677
Si Si2 0.086198 0.635731 0.608439
Si Si3 0.584174 0.853623 0.794034
Si Si4 0.804103 0.080832 0.387195
Si Si5 0.705541 0.585219 0.111202
O O1 0.926191 0.621894 0.158077
O O2 0.000000 0.500000 0.120419
O O3 0.000000 0.613559 0.000000
O O4 0.111235 0.619740 0.500000
O O5 0.137492 0.588572 0.679415
O O6 0.100688 0.720287 0.637880
O O7 0.000000 0.614585 0.620324
O O8 0.500000 0.850787 0.827984
O O9 0.618323 0.776132 0.830662
O O10 0.812985 0.079207 0.500000
O O11 0.858529 0.141472 0.340720
O O12 0.824820 0.000000 0.345910
O O13 0.687849 0.500000 0.138917
O O14 0.633947 0.633947 0.138235
O O15 0.724692 0.591842 0.000000
#
# Coordination Sequence:
#
# PCOD8312187 Si02
#       5
#     8  16  16  16  16
#     4   9  16  26  41  61  85 113 141 170 208 254
#     4   9  17  28  40  57  86 121 153 182 214 256
#     4  10  18  28  43  64  87 114 148 180 212 255
#     4   8  14  24  37  53  74 102 136 173 212 252
#     4   9  18  32  49  69  92 115 142 182 230 279
#
# _framework density 15.696472
#
# number of rings (size 3 to 8) (size 9 to 14) (size 15 to 20)
#    0.000    3.000    1.111    2.000    0.000    4.444 
#    0.000    3.333    0.000    0.000    0.000    0.000 
#    0.000    0.000    0.000    4.889    0.000    1.333 
#
# Total GULP energy -892317.187940 kJ/mol
# GULP energy per Si atom -12393.294277 kJ/mol
# Density = 1.566075 g / cm^3
# Si number density = 15.696472 Si / 1000 Ang^3
#
#
#
# Elastic Constant Matrix: (Units=GPa)
#
#
# Indices 1 2 3 4 5 6 
#
# 1 67.0384 36.5220 29.2788 0.0000 0.0000 0.0000
# 2 36.5220 67.0384 29.2788 0.0000 0.0000 0.0000
# 3 29.2788 29.2788 73.4522 0.0000 0.0000 0.0000
# 4 0.0000 0.0000 0.0000 17.1949 0.0000 0.0000
# 5 0.0000 0.0000 0.0000 0.0000 17.1949 0.0000
# 6 0.0000 0.0000 0.0000 0.0000 0.0000 19.0072
#
#
#
# Elastic Compliance Matrix: (Units=1/GPa)
#
#
# Indices 1 2 3 4 5 6 
#
# 1 0.022618 -0.010152 -0.004969 0.000000 0.000000 0.000000
# 2 -0.010152 0.022618 -0.004969 0.000000 0.000000 0.000000
# 3 -0.004969 -0.004969 0.017576 0.000000 0.000000 0.000000
# 4 0.000000 0.000000 0.000000 0.058157 0.000000 0.000000
# 5 0.000000 0.000000 0.000000 0.000000 0.058157 0.000000
# 6 0.000000 0.000000 0.000000 0.000000 0.000000 0.052612
#
#
# Mechanical properties :
#
#
# Convention : Reuss Voigt Hill
#
# Bulk Modulus (GPa) = 44.18644 44.18758 44.18701
# Shear Modulus (GPa) = 17.89166 18.17600 18.03383
#
# Velocity S-wave (km/s) = 3.37983 3.40658 3.39323
# Velocity P-wave (km/s) = 6.59111 6.60950 6.60031
#
# Compressibility (1/GPa) = 0.02263138
#
# Stress axis : x y z
#
# Youngs Moduli (GPa) = 44.21338 44.21338 56.89663
#
# Poissons Ratio (x) = 0.44884 0.28272
# Poissons Ratio (y) = 0.44884 0.28272
# Poissons Ratio (z) = 0.21970 0.21970
#
# Static dielectric constant tensor:
#      x y z
#    x 3.075010 0.000000 0.000000 
#    y 0.000000 3.075010 0.000000 
#    z 0.000000 0.000000 2.774880 
# 
# 
# High freq. dielectric constant tensor:
#      x y z
#    x 1.586710 0.000000 0.000000 
#    y 0.000000 1.586710 0.000000 
#    z 0.000000 0.000000 1.579050 
# 
# From -- ./inp_files/2744.got.cif
#   From: 2010.03.12/outbox.cif.g09.slc.cpg/sg123_2_cif.got.tgz:2744.got - 2010.04.06 16:26:55.
