data_PCOD8312170
_publ_section_title
;
Structure prediction by ZEFSAII (Michael W. Deem and Ramdas Pophale) SiO2 
 PCOD8312170
Probable space group: P 4/M M M
;
_chemical_formula_sum "Si O2"
_cell_formula_units_Z 128
_cell_length_a 18.549069
_cell_length_b 18.549069
_cell_length_c 24.236764
_cell_angle_alpha 90.000000
_cell_angle_beta 90.000000
_cell_angle_gamma 90.000000
_cell_volume 8339.093965
_symmetry_space_group_name_H-M "P 4/M M M"
_symmetry_group_IT_number 123
_symmetry_cell_setting 'tetragonal'
loop_
_space_group_symop_operation_xyz
x,y,z
-y,x,z
-x,-y,z
y,-x,z
x,-y,-z
-x,y,-z
y,x,-z
-y,-x,-z
-x,-y,-z
y,-x,-z
x,y,-z
-y,x,-z
-x,y,z
x,-y,z
-y,-x,z
y,x,z
loop_
_atom_site_type_symbol
_atom_site_label
_atom_site_fract_x
_atom_site_fract_y
_atom_site_fract_z
Si Si1 0.918926 0.414351 0.060941
Si Si2 0.647018 0.916574 0.733436
Si Si3 0.690132 0.809501 0.437908
Si Si4 0.807228 0.079993 0.282780
Si Si5 0.799497 0.582872 0.660274
Si Si6 0.080554 0.194367 0.413011
Si Si7 0.414968 0.840296 0.832711
Si Si8 0.584415 0.703011 0.235572
O O1 0.919506 0.500000 0.060784
O O2 0.859641 0.386886 0.105587
O O3 0.000000 0.386934 0.075423
O O4 0.896389 0.385891 0.000000
O O5 0.729174 0.888477 0.732426
O O6 0.599815 0.876051 0.687826
O O7 0.616826 0.902409 0.793995
O O8 0.643419 0.000000 0.717952
O O9 0.658962 0.805958 0.500000
O O10 0.750897 0.750897 0.427314
O O11 0.626469 0.790984 0.396016
O O12 0.726977 0.887346 0.427825
O O13 0.867251 0.132750 0.256794
O O14 0.814732 0.077403 0.347987
O O15 0.818522 0.000000 0.257744
O O16 0.796531 0.500000 0.643464
O O17 0.736699 0.601237 0.704370
O O18 0.130624 0.130624 0.438460
O O19 0.000000 0.188834 0.438134
O O20 0.500000 0.846748 0.828476
O O21 0.392194 0.760530 0.811974
O O22 0.500000 0.683064 0.230124
O O23 0.630762 0.630762 0.227278
#
# Coordination Sequence:
#
# PCOD8312170 Si02
#       8
#    16  16  16  16  16  16  16  16
#     4   8  13  22  38  60  87 120 154 185 215 245
#     4  10  18  27  41  62  88 117 145 172 206 251
#     4  10  20  33  49  65  82 109 140 169 208 257
#     4   9  17  28  43  62  83 109 140 174 212 252
#     4  10  20  32  47  66  86 109 137 172 211 251
#     4   9  17  30  46  64  85 108 138 175 213 253
#     4   9  17  27  40  62  90 118 149 182 214 251
#     4   9  18  31  47  67  88 110 138 174 218 267
#
# _framework density 15.34939
#
# number of rings (size 3 to 8) (size 9 to 14) (size 15 to 20)
#    0.000    2.750    1.250    2.250    0.000    4.375 
#    0.000    1.250    0.000    0.375    0.000    3.500 
#    0.000    0.000    0.000   16.500    0.000    0.125 
#
# Total GULP energy -1586501.608194 kJ/mol
# GULP energy per Si atom -12394.543814 kJ/mol
# Density = 1.531445 g / cm^3
# Si number density = 15.349390 Si / 1000 Ang^3
#
#
#
# Elastic Constant Matrix: (Units=GPa)
#
#
# Indices 1 2 3 4 5 6 
#
# 1 69.7294 37.9920 36.0787 0.0000 0.0000 0.0000
# 2 37.9920 69.7294 36.0787 0.0000 0.0000 0.0000
# 3 36.0787 36.0787 89.8477 0.0000 0.0000 0.0000
# 4 0.0000 0.0000 0.0000 13.4013 0.0000 0.0000
# 5 0.0000 0.0000 0.0000 0.0000 13.4013 0.0000
# 6 0.0000 0.0000 0.0000 0.0000 0.0000 22.1013
#
#
#
# Elastic Compliance Matrix: (Units=1/GPa)
#
#
# Indices 1 2 3 4 5 6 
#
# 1 0.022104 -0.009405 -0.005099 0.000000 0.000000 0.000000
# 2 -0.009405 0.022104 -0.005099 0.000000 0.000000 0.000000
# 3 -0.005099 -0.005099 0.015225 0.000000 0.000000 0.000000
# 4 0.000000 0.000000 0.000000 0.074620 0.000000 0.000000
# 5 0.000000 0.000000 0.000000 0.000000 0.074620 0.000000
# 6 0.000000 0.000000 0.000000 0.000000 0.000000 0.045246
#
#
# Mechanical properties :
#
#
# Convention : Reuss Voigt Hill
#
# Bulk Modulus (GPa) = 49.44147 49.95614 49.69880
# Shear Modulus (GPa) = 16.67406 17.72461 17.19933
#
# Velocity S-wave (km/s) = 3.29948 3.40184 3.35105
# Velocity P-wave (km/s) = 6.84077 6.93157 6.88632
#
# Compressibility (1/GPa) = 0.02022593
#
# Stress axis : x y z
#
# Youngs Moduli (GPa) = 45.24118 45.24118 65.68039
#
# Poissons Ratio (x) = 0.42548 0.33493
# Poissons Ratio (y) = 0.42548 0.33493
# Poissons Ratio (z) = 0.23070 0.23070
#
# Static dielectric constant tensor:
#      x y z
#    x 2.926250 0.000000 0.000000 
#    y 0.000000 2.926250 0.000000 
#    z 0.000000 0.000000 3.049730 
# 
# 
# High freq. dielectric constant tensor:
#      x y z
#    x 1.575620 0.000000 0.000000 
#    y 0.000000 1.575620 0.000000 
#    z 0.000000 0.000000 1.571810 
# 
# From -- ./inp_files/7695.got.cif
#   From: 2010.03.12/outbox.cif.g09.slc.cpg/sg123_4_cif.got.tgz:7695.got - 2010.04.06 16:26:55.
