data_PCOD8312443
_publ_section_title
;
Structure prediction by ZEFSAII (Michael W. Deem and Ramdas Pophale) SiO2 
 PCOD8312443
Probable space group: P 4/M M M
;
_chemical_formula_sum "Si O2"
_cell_formula_units_Z 128
_cell_length_a 18.254247
_cell_length_b 18.254247
_cell_length_c 22.907442
_cell_angle_alpha 90.000000
_cell_angle_beta 90.000000
_cell_angle_gamma 90.000000
_cell_volume 7633.161323
_symmetry_space_group_name_H-M "P 4/M M M"
_symmetry_group_IT_number 123
_symmetry_cell_setting 'tetragonal'
loop_
_space_group_symop_operation_xyz
x,y,z
-y,x,z
-x,-y,z
y,-x,z
x,-y,-z
-x,y,-z
y,x,-z
-y,-x,-z
-x,-y,-z
y,-x,-z
x,y,-z
-y,x,-z
-x,y,z
x,-y,z
-y,-x,z
y,x,z
loop_
_atom_site_type_symbol
_atom_site_label
_atom_site_fract_x
_atom_site_fract_y
_atom_site_fract_z
Si Si1 0.301075 0.582801 0.065864
Si Si2 0.298255 0.820477 0.759981
Si Si3 0.187766 0.309368 0.626027
Si Si4 0.585816 0.167868 0.144050
Si Si5 0.913741 0.798264 0.839155
Si Si6 0.914627 0.685077 0.935147
Si Si7 0.916268 0.202190 0.430920
Si Si8 0.415029 0.704809 0.431350
O O1 0.321547 0.500000 0.078839
O O2 0.374454 0.625547 0.079351
O O3 0.239164 0.610678 0.108857
O O4 0.272763 0.594435 0.000000
O O5 0.258213 0.741787 0.768628
O O6 0.319645 0.833718 0.693268
O O7 0.374718 0.826189 0.793992
O O8 0.244328 0.884619 0.782070
O O9 0.249355 0.249355 0.616633
O O10 0.115460 0.279531 0.593042
O O11 0.221230 0.384805 0.600014
O O12 0.500000 0.160161 0.155089
O O13 0.612247 0.101497 0.102789
O O14 0.878841 0.878841 0.842494
O O15 0.888082 0.754958 0.897447
O O16 0.000000 0.806789 0.833993
O O17 0.000000 0.689244 0.943962
O O18 0.877691 0.684652 0.000000
O O19 0.913940 0.206764 0.500000
O O20 0.867126 0.132875 0.408976
O O21 0.000000 0.191564 0.408820
O O22 0.408673 0.718476 0.500000
O O23 0.500000 0.692098 0.412849
O O24 0.367292 0.632709 0.413407
#
# Coordination Sequence:
#
# PCOD8312443 Si02
#       8
#    16  16  16  16  16  16  16  16
#     4   9  17  28  42  61  85 112 141 174 213 258
#     4   9  18  32  48  65  88 121 157 191 229 271
#     4   9  17  30  48  68  91 123 164 201 230 270
#     4  10  19  30  45  66  89 111 142 187 231 269
#     4   9  18  32  49  70  95 121 151 187 226 270
#     4   9  18  32  48  65  87 116 146 176 217 271
#     4   9  17  29  47  72 100 128 157 191 232 277
#     4   9  17  29  47  72 100 128 158 195 239 286
#
# _framework density 16.768937000000001
#
# number of rings (size 3 to 8) (size 9 to 14) (size 15 to 20)
#    0.000    2.875    0.000    1.125    0.000    4.750 
#    0.000    2.500    0.000    0.375    0.000    8.750 
#    0.000    3.000    0.000    0.000    0.000    0.000 
#
# Total GULP energy -1586510.057072 kJ/mol
# GULP energy per Si atom -12394.609821 kJ/mol
# Density = 1.673077 g / cm^3
# Si number density = 16.768937 Si / 1000 Ang^3
#
#
#
# Elastic Constant Matrix: (Units=GPa)
#
#
# Indices 1 2 3 4 5 6 
#
# 1 83.3301 47.9309 37.8410 0.0000 0.0000 0.0000
# 2 47.9309 83.3301 37.8410 0.0000 0.0000 0.0000
# 3 37.8410 37.8410 72.6445 0.0000 0.0000 0.0000
# 4 0.0000 0.0000 0.0000 19.0243 0.0000 0.0000
# 5 0.0000 0.0000 0.0000 0.0000 19.0243 0.0000
# 6 0.0000 0.0000 0.0000 0.0000 0.0000 19.7308
#
#
#
# Elastic Compliance Matrix: (Units=1/GPa)
#
#
# Indices 1 2 3 4 5 6 
#
# 1 0.019569 -0.008680 -0.005672 0.000000 0.000000 0.000000
# 2 -0.008680 0.019569 -0.005672 0.000000 0.000000 0.000000
# 3 -0.005672 -0.005672 0.019675 0.000000 0.000000 0.000000
# 4 0.000000 0.000000 0.000000 0.052564 0.000000 0.000000
# 5 0.000000 0.000000 0.000000 0.000000 0.052564 0.000000
# 6 0.000000 0.000000 0.000000 0.000000 0.000000 0.050682
#
#
# Mechanical properties :
#
#
# Convention : Reuss Voigt Hill
#
# Bulk Modulus (GPa) = 53.29276 54.05895 53.67586
# Shear Modulus (GPa) = 19.16244 19.26867 19.21555
#
# Velocity S-wave (km/s) = 3.38410 3.39347 3.38879
# Velocity P-wave (km/s) = 6.86434 6.90375 6.88407
#
# Compressibility (1/GPa) = 0.01876427
#
# Stress axis : x y z
#
# Youngs Moduli (GPa) = 51.10115 51.10115 50.82627
#
# Poissons Ratio (x) = 0.44357 0.28829
# Poissons Ratio (y) = 0.44357 0.28829
# Poissons Ratio (z) = 0.28985 0.28985
#
# Static dielectric constant tensor:
#      x y z
#    x 3.194980 0.000000 0.000000 
#    y 0.000000 3.194980 0.000000 
#    z 0.000000 0.000000 3.309900 
# 
# 
# High freq. dielectric constant tensor:
#      x y z
#    x 1.637350 0.000000 0.000000 
#    y 0.000000 1.637350 0.000000 
#    z 0.000000 0.000000 1.643020 
# 
# From -- ./inp_files/7677.got.cif
#   From: 2010.03.12/outbox.cif.g09.slc.cpg/sg123_4_cif.got.tgz:7677.got - 2010.04.06 16:26:55.
