data_PCOD8312211
_publ_section_title
;
Structure prediction by ZEFSAII (Michael W. Deem and Ramdas Pophale) SiO2 
 PCOD8312211
Probable space group: P 4/M M M
;
_chemical_formula_sum "Si O2"
_cell_formula_units_Z 80
_cell_length_a 24.455893
_cell_length_b 24.455893
_cell_length_c 9.179569
_cell_angle_alpha 90.000000
_cell_angle_beta 90.000000
_cell_angle_gamma 90.000000
_cell_volume 5490.214871
_symmetry_space_group_name_H-M "P 4/M M M"
_symmetry_group_IT_number 123
_symmetry_cell_setting 'tetragonal'
loop_
_space_group_symop_operation_xyz
x,y,z
-y,x,z
-x,-y,z
y,-x,z
x,-y,-z
-x,y,-z
y,x,-z
-y,-x,-z
-x,-y,-z
y,-x,-z
x,y,-z
-y,x,-z
-x,y,z
x,-y,z
-y,-x,z
y,x,z
loop_
_atom_site_type_symbol
_atom_site_label
_atom_site_fract_x
_atom_site_fract_y
_atom_site_fract_z
Si Si1 0.247971 0.613510 0.161036
Si Si2 0.680989 0.680989 0.660686
Si Si3 0.906504 0.500000 0.329776
Si Si4 0.692118 0.150697 0.827101
Si Si5 0.226881 0.226881 0.331379
Si Si6 0.500000 0.800829 0.840122
Si Si7 0.062917 0.620533 0.668407
O O1 0.298367 0.626057 0.264985
O O2 0.193077 0.644206 0.208472
O O3 0.239651 0.549898 0.173836
O O4 0.263976 0.633090 0.000000
O O5 0.665249 0.665249 0.500000
O O6 0.727103 0.727103 0.675650
O O7 0.916966 0.500000 0.500000
O O8 0.843041 0.500000 0.291070
O O9 0.930857 0.557777 0.268850
O O10 0.748587 0.172679 0.750621
O O11 0.667557 0.095056 0.758274
O O12 0.702843 0.142825 0.000000
O O13 0.212471 0.212471 0.500000
O O14 0.500000 0.830472 0.000000
O O15 0.082695 0.622137 0.500000
O O16 0.000000 0.637256 0.682384
#
# Coordination Sequence:
#
# PCOD8312211 Si02
#       7
#    16   8   8  16   8   8  16
#     4   9  17  28  42  58  80 105 130 161 204 251
#     4   9  17  27  41  59  79 100 128 161 198 244
#     4  10  19  30  44  58  78 110 149 189 221 252
#     4  10  18  29  45  63  83 106 138 177 216 256
#     4   9  17  29  45  63  83 105 132 167 212 263
#     4  10  18  29  43  61  82 107 135 168 209 254
#     4  10  20  32  44  59  82 114 151 188 224 258
#
# _framework density 14.571379
#
# number of rings (size 3 to 8) (size 9 to 14) (size 15 to 20)
#    0.000    2.400    2.000    1.500    0.000    5.600 
#    0.000    0.000    0.000    1.800    0.000    0.000 
#    0.000    0.400    0.000    4.600    0.000    2.300 
#
# Total GULP energy -991233.544803 kJ/mol
# GULP energy per Si atom -12390.419310 kJ/mol
# Density = 1.453821 g / cm^3
# Si number density = 14.571379 Si / 1000 Ang^3
#
#
#
# Elastic Constant Matrix: (Units=GPa)
#
#
# Indices 1 2 3 4 5 6 
#
# 1 59.7889 40.3681 35.4450 0.0000 0.0000 0.0000
# 2 40.3681 59.7889 35.4450 0.0000 0.0000 0.0000
# 3 35.4450 35.4450 69.8193 0.0000 0.0000 0.0000
# 4 0.0000 0.0000 0.0000 19.6338 0.0000 0.0000
# 5 0.0000 0.0000 0.0000 0.0000 19.6338 0.0000
# 6 0.0000 0.0000 0.0000 0.0000 0.0000 2.7268
#
#
#
# Elastic Compliance Matrix: (Units=1/GPa)
#
#
# Indices 1 2 3 4 5 6 
#
# 1 0.033538 -0.017954 -0.007911 0.000000 0.000000 0.000000
# 2 -0.017954 0.033538 -0.007911 0.000000 0.000000 0.000000
# 3 -0.007911 -0.007911 0.022355 0.000000 0.000000 0.000000
# 4 0.000000 0.000000 0.000000 0.050933 0.000000 0.000000
# 5 0.000000 0.000000 0.000000 0.000000 0.050933 0.000000
# 6 0.000000 0.000000 0.000000 0.000000 0.000000 0.366726
#
#
# Mechanical properties :
#
#
# Convention : Reuss Voigt Hill
#
# Bulk Modulus (GPa) = 45.70900 45.76814 45.73857
# Shear Modulus (GPa) = 7.90054 13.60814 10.75434
#
# Velocity S-wave (km/s) = 2.33104 3.05929 2.71965
# Velocity P-wave (km/s) = 6.21949 6.62999 6.42802
#
# Compressibility (1/GPa) = 0.02187753
#
# Stress axis : x y z
#
# Youngs Moduli (GPa) = 29.81731 29.81731 44.73183
#
# Poissons Ratio (x) = 0.53533 0.35389
# Poissons Ratio (y) = 0.53533 0.35389
# Poissons Ratio (z) = 0.23590 0.23590
#
# Static dielectric constant tensor:
#      x y z
#    x 2.680820 0.000000 0.000000 
#    y 0.000000 2.680820 0.000000 
#    z 0.000000 0.000000 3.006040 
# 
# 
# High freq. dielectric constant tensor:
#      x y z
#    x 1.528070 0.000000 0.000000 
#    y 0.000000 1.528070 0.000000 
#    z 0.000000 0.000000 1.566030 
# 
# From -- ./inp_files/1536.got.cif
#   From: 2010.03.12/outbox.cif.g09.slc.cpg/sg123_1_cif.got.tgz:1536.got - 2010.04.06 16:26:55.
