data_PCOD8312294
_publ_section_title
;
Structure prediction by ZEFSAII (Michael W. Deem and Ramdas Pophale) SiO2 
 PCOD8312294
Probable space group: P 4/M M M
;
_chemical_formula_sum "Si O2"
_cell_formula_units_Z 88
_cell_length_a 14.188010
_cell_length_b 14.188010
_cell_length_c 27.599148
_cell_angle_alpha 90.000000
_cell_angle_beta 90.000000
_cell_angle_gamma 90.000000
_cell_volume 5555.698219
_symmetry_space_group_name_H-M "P 4/M M M"
_symmetry_group_IT_number 123
_symmetry_cell_setting 'tetragonal'
loop_
_space_group_symop_operation_xyz
x,y,z
-y,x,z
-x,-y,z
y,-x,z
x,-y,-z
-x,y,-z
y,x,-z
-y,-x,-z
-x,-y,-z
y,-x,-z
x,y,-z
-y,x,-z
-x,y,z
x,-y,z
-y,-x,z
y,x,z
loop_
_atom_site_type_symbol
_atom_site_label
_atom_site_fract_x
_atom_site_fract_y
_atom_site_fract_z
Si Si1 0.242731 0.607446 0.226092
Si Si2 0.763096 0.391004 0.884228
Si Si3 0.611922 0.896058 0.306655
Si Si4 0.739683 0.892015 0.943366
Si Si5 0.887897 0.395248 0.586850
Si Si6 0.736586 0.888168 0.500000
O O1 0.262372 0.500000 0.239496
O O2 0.342022 0.657979 0.232258
O O3 0.204265 0.618835 0.171532
O O4 0.168343 0.652910 0.263600
O O5 0.744981 0.500000 0.898117
O O6 0.666533 0.333468 0.894188
O O7 0.848230 0.350097 0.916077
O O8 0.500000 0.903094 0.302557
O O9 0.638507 0.854095 0.359692
O O10 0.656326 0.000000 0.300058
O O11 0.834552 0.834552 0.929950
O O12 0.754442 0.000000 0.927045
O O13 0.717692 0.885074 0.000000
O O14 0.848004 0.500000 0.574857
O O15 0.853239 0.321462 0.546843
O O16 0.000000 0.400934 0.586949
O O17 0.837798 0.837798 0.500000
O O18 0.753812 0.000000 0.500000
#
# Coordination Sequence:
#
# PCOD8312294 Si02
#       6
#    16  16  16  16  16   8
#     4   9  17  28  42  61  85 113 142 170 202 241
#     4   9  18  31  45  63  88 117 150 185 217 251
#     4   8  14  25  41  61  83 104 128 163 207 249
#     4   9  18  32  49  69  92 116 142 174 213 258
#     4   8  14  26  43  60  78 100 128 167 210 243
#     4  10  19  28  39  57  80 106 135 163 194 237
#
# _framework density 15.839594
#
# number of rings (size 3 to 8) (size 9 to 14) (size 15 to 20)
#    0.000    3.273    0.000    1.364    0.000    3.909 
#    0.000    5.455    0.000    0.000    0.000    2.545 
#    0.000    3.273    0.000    0.364    0.000    0.727 
#
# Total GULP energy -1090735.601350 kJ/mol
# GULP energy per Si atom -12394.722743 kJ/mol
# Density = 1.580354 g / cm^3
# Si number density = 15.839594 Si / 1000 Ang^3
#
#
#
# Elastic Constant Matrix: (Units=GPa)
#
#
# Indices 1 2 3 4 5 6 
#
# 1 82.5160 42.0787 48.1539 0.0000 0.0000 0.0000
# 2 42.0787 82.5160 48.1539 0.0000 0.0000 0.0000
# 3 48.1539 48.1539 81.1263 0.0000 0.0000 0.0000
# 4 0.0000 0.0000 0.0000 19.7776 0.0000 0.0000
# 5 0.0000 0.0000 0.0000 0.0000 19.7776 0.0000
# 6 0.0000 0.0000 0.0000 0.0000 0.0000 15.4764
#
#
#
# Elastic Compliance Matrix: (Units=1/GPa)
#
#
# Indices 1 2 3 4 5 6 
#
# 1 0.019780 -0.004950 -0.008803 0.000000 0.000000 0.000000
# 2 -0.004950 0.019780 -0.008803 0.000000 0.000000 0.000000
# 3 -0.008803 -0.008803 0.022777 0.000000 0.000000 0.000000
# 4 0.000000 0.000000 0.000000 0.050562 0.000000 0.000000
# 5 0.000000 0.000000 0.000000 0.000000 0.050562 0.000000
# 6 0.000000 0.000000 0.000000 0.000000 0.000000 0.064614
#
#
# Mechanical properties :
#
#
# Convention : Reuss Voigt Hill
#
# Bulk Modulus (GPa) = 58.05174 58.10351 58.07763
# Shear Modulus (GPa) = 17.92578 18.19110 18.05844
#
# Velocity S-wave (km/s) = 3.36773 3.39257 3.38017
# Velocity P-wave (km/s) = 7.20080 7.21859 7.20970
#
# Compressibility (1/GPa) = 0.01722601
#
# Stress axis : x y z
#
# Youngs Moduli (GPa) = 50.55622 50.55622 43.90484
#
# Poissons Ratio (x) = 0.25024 0.38648
# Poissons Ratio (y) = 0.25024 0.38648
# Poissons Ratio (z) = 0.44503 0.44503
#
# Static dielectric constant tensor:
#      x y z
#    x 2.892890 0.000000 0.000000 
#    y 0.000000 2.892890 0.000000 
#    z 0.000000 0.000000 3.307710 
# 
# 
# High freq. dielectric constant tensor:
#      x y z
#    x 1.585010 0.000000 0.000000 
#    y 0.000000 1.585010 0.000000 
#    z 0.000000 0.000000 1.619530 
# 
# From -- ./inp_files/7158.got.cif
#   From: 2010.03.12/outbox.cif.g09.slc.cpg/sg123_4_cif.got.tgz:7158.got - 2010.04.06 16:26:55.
