data_PCOD8312230
_publ_section_title
;
Structure prediction by ZEFSAII (Michael W. Deem and Ramdas Pophale) SiO2 
 PCOD8312230
Probable space group: P 4/M M M
;
_chemical_formula_sum "Si O2"
_cell_formula_units_Z 96
_cell_length_a 20.101156
_cell_length_b 20.101156
_cell_length_c 14.393105
_cell_angle_alpha 90.000000
_cell_angle_beta 90.000000
_cell_angle_gamma 90.000000
_cell_volume 5815.627235
_symmetry_space_group_name_H-M "P 4/M M M"
_symmetry_group_IT_number 123
_symmetry_cell_setting 'tetragonal'
loop_
_space_group_symop_operation_xyz
x,y,z
-y,x,z
-x,-y,z
y,-x,z
x,-y,-z
-x,y,-z
y,x,-z
-y,-x,-z
-x,-y,-z
y,-x,-z
x,y,-z
-y,x,-z
-x,y,z
x,-y,z
-y,-x,z
y,x,z
loop_
_atom_site_type_symbol
_atom_site_label
_atom_site_fract_x
_atom_site_fract_y
_atom_site_fract_z
Si Si1 0.073541 0.424311 0.739114
Si Si2 0.181036 0.075043 0.110348
Si Si3 0.112557 0.671330 0.107342
Si Si4 0.812338 0.579072 0.603804
Si Si5 0.685091 0.575413 0.716205
Si Si6 0.629001 0.738005 0.897534
O O1 0.093425 0.500000 0.766278
O O2 0.070608 0.380483 0.832201
O O3 0.125861 0.394349 0.664930
O O4 0.000000 0.422708 0.693814
O O5 0.124743 0.124743 0.151631
O O6 0.253903 0.098879 0.143134
O O7 0.167352 0.000000 0.146571
O O8 0.178018 0.077051 0.000000
O O9 0.188599 0.653269 0.124080
O O10 0.090999 0.663755 0.000000
O O11 0.817864 0.608841 0.500000
O O12 0.814942 0.500000 0.600861
O O13 0.742669 0.602512 0.648254
O O14 0.664797 0.500000 0.692185
O O15 0.620236 0.620236 0.702430
O O16 0.712746 0.576382 0.821663
O O17 0.695123 0.695123 0.891840
O O18 0.595778 0.732841 0.000000
#
# Coordination Sequence:
#
# PCOD8312230 Si02
#       6
#    16  16  16  16  16  16
#     4  10  20  32  46  68  97 125 157 196 236 282
#     4   9  17  28  42  61  87 122 162 200 236 274
#     4  10  18  29  46  67  96 129 160 194 237 284
#     4   9  18  34  53  70  90 118 154 196 241 287
#     4  10  20  34  52  74  99 126 158 197 242 291
#     4   9  17  29  47  70  94 123 160 200 237 277
#
# _framework density 16.507248000000001
#
# number of rings (size 3 to 8) (size 9 to 14) (size 15 to 20)
#    0.000    2.500    1.667    1.000    0.000    4.667 
#    0.000    5.000    0.000    0.000    0.000    4.667 
#    0.000    0.000    0.000    0.000    0.000    0.167 
#
# Total GULP energy -1190116.226256 kJ/mol
# GULP energy per Si atom -12397.044023 kJ/mol
# Density = 1.646968 g / cm^3
# Si number density = 16.507248 Si / 1000 Ang^3
#
#
#
# Elastic Constant Matrix: (Units=GPa)
#
#
# Indices 1 2 3 4 5 6 
#
# 1 93.6977 44.7529 38.0150 0.0000 0.0000 0.0000
# 2 44.7529 93.6977 38.0150 0.0000 0.0000 0.0000
# 3 38.0150 38.0150 78.1444 0.0000 0.0000 0.0000
# 4 0.0000 0.0000 0.0000 6.4992 0.0000 0.0000
# 5 0.0000 0.0000 0.0000 0.0000 6.4992 0.0000
# 6 0.0000 0.0000 0.0000 0.0000 0.0000 -1.1902
#
#
#
# Elastic Compliance Matrix: (Units=1/GPa)
#
#
# Indices 1 2 3 4 5 6 
#
# 1 0.015143 -0.005288 -0.004795 0.000000 0.000000 0.000000
# 2 -0.005288 0.015143 -0.004795 0.000000 0.000000 0.000000
# 3 -0.004795 -0.004795 0.017462 0.000000 0.000000 0.000000
# 4 0.000000 0.000000 0.000000 0.153865 0.000000 0.000000
# 5 0.000000 0.000000 0.000000 0.000000 0.153865 0.000000
# 6 0.000000 0.000000 0.000000 0.000000 0.000000 -0.840184
#
#
# Mechanical properties :
#
#
# Convention : Reuss Voigt Hill
#
# Bulk Modulus (GPa) = 55.57113 56.34505 55.95809
# Shear Modulus (GPa) = -11.13701 12.01209 0.43754
#
# Velocity S-wave (km/s) = -2.60027 2.70049 0.51540
# Velocity P-wave (km/s) = 4.97218 6.62806 5.85891
#
# Compressibility (1/GPa) = 0.01799496
#
# Stress axis : x y z
#
# Youngs Moduli (GPa) = 66.03517 66.03517 57.26856
#
# Poissons Ratio (x) = 0.34918 0.27457
# Poissons Ratio (y) = 0.34918 0.27457
# Poissons Ratio (z) = 0.31661 0.31661
#
# Static dielectric constant tensor:
#      x y z
#    x 3.098670 0.000000 0.000000 
#    y 0.000000 3.098670 0.000000 
#    z 0.000000 0.000000 3.080540 
# 
# 
# High freq. dielectric constant tensor:
#      x y z
#    x 1.631370 0.000000 0.000000 
#    y 0.000000 1.631370 0.000000 
#    z 0.000000 0.000000 1.606520 
# 
# From -- ./inp_files/4350.got.cif
#   From: 2010.03.12/outbox.cif.g09.slc.cpg/sg123_3_cif.got.tgz:4350.got - 2010.04.06 16:26:55.
