data_PCOD8312060
_publ_section_title
;
Structure prediction by ZEFSAII (Michael W. Deem and Ramdas Pophale) SiO2 
 PCOD8312060
Probable space group: I -4 2 D
;
_chemical_formula_sum "Si O2"
_cell_formula_units_Z 56
_cell_length_a 18.904977
_cell_length_b 18.904977
_cell_length_c 7.784441
_cell_angle_alpha 90.000000
_cell_angle_beta 90.000000
_cell_angle_gamma 90.000000
_cell_volume 2782.144854
_symmetry_space_group_name_H-M "I -4 2 D"
_symmetry_group_IT_number 122
_symmetry_cell_setting 'tetragonal'
loop_
_space_group_symop_operation_xyz
x,y,z
y,-x,-z
-x,-y,z
-y,x,-z
x,1/2-y,1/4-z
-x,1/2+y,1/4-z
-y,1/2-x,1/4+z
y,1/2+x,1/4+z
1/2+x,1/2+y,1/2+z
1/2+y,1/2-x,1/2-z
1/2-x,1/2-y,1/2+z
1/2-y,1/2+x,1/2-z
1/2+x,-y,3/4-z
1/2-x,y,3/4-z
1/2-y,-x,3/4+z
1/2+y,x,3/4+z
loop_
_atom_site_type_symbol
_atom_site_label
_atom_site_fract_x
_atom_site_fract_y
_atom_site_fract_z
Si Si1 0.831574 0.430101 0.356190
Si Si2 0.075026 0.695892 0.279281
Si Si3 0.472088 0.750000 0.125000
Si Si4 0.475982 0.110996 0.280025
O O1 0.750000 0.411024 0.375000
O O2 0.866161 0.363640 0.263205
O O3 0.840477 0.498154 0.234763
O O4 0.869074 0.444730 0.536235
O O5 0.078606 0.736635 0.461170
O O6 0.087313 0.750000 0.125000
O O7 0.520847 0.818701 0.162263
O O8 0.554090 0.077075 0.305010
#
# Coordination Sequence:
#
# PCOD8312060 Si02
#       4
#    16  16   8  16
#     4  11  24  44  66  99 137 175 226 280 337 403
#     4  11  25  44  68  97 137 176 225 278 340 407
#     4  12  22  44  68  94 140 172 214 286 336 400
#     4  11  24  41  69 102 129 174 230 275 336 401
#
# _framework density 20.128356
#
# number of rings (size 3 to 8) (size 9 to 14) (size 15 to 20)
#    0.000    0.857    8.571    0.000    4.000    0.571 
#    2.571    0.000    0.000    0.000    0.000    0.000 
#    0.000    0.000    0.000    0.000    0.000    0.000 
#
# Total GULP energy -347255.482166 kJ/mol
# GULP energy per Si atom -12401.981506 kJ/mol
# Density = 2.008254 g / cm^3
# Si number density = 20.128356 Si / 1000 Ang^3
#
#
#
# Elastic Constant Matrix: (Units=GPa)
#
#
# Indices 1 2 3 4 5 6 
#
# 1 126.1385 73.5005 43.5714 0.0000 0.0000 0.0000
# 2 73.5005 126.1385 43.5714 0.0000 0.0000 0.0000
# 3 43.5714 43.5714 115.4110 0.0000 0.0000 0.0000
# 4 0.0000 0.0000 0.0000 22.6166 0.0000 0.0000
# 5 0.0000 0.0000 0.0000 0.0000 22.6166 0.0000
# 6 0.0000 0.0000 0.0000 0.0000 0.0000 44.1719
#
#
#
# Elastic Compliance Matrix: (Units=1/GPa)
#
#
# Indices 1 2 3 4 5 6 
#
# 1 0.012498 -0.006500 -0.002264 0.000000 0.000000 0.000000
# 2 -0.006500 0.012498 -0.002264 0.000000 0.000000 0.000000
# 3 -0.002264 -0.002264 0.010374 0.000000 0.000000 0.000000
# 4 0.000000 0.000000 0.000000 0.044215 0.000000 0.000000
# 5 0.000000 0.000000 0.000000 0.000000 0.044215 0.000000
# 6 0.000000 0.000000 0.000000 0.000000 0.000000 0.022639
#
#
# Mechanical properties :
#
#
# Convention : Reuss Voigt Hill
#
# Bulk Modulus (GPa) = 75.11885 76.55272 75.83579
# Shear Modulus (GPa) = 28.91290 31.68401 30.29846
#
# Velocity S-wave (km/s) = 3.79413 3.97180 3.88398
# Velocity P-wave (km/s) = 7.52296 7.69080 7.60734
#
# Compressibility (1/GPa) = 0.01331224
#
# Stress axis : x y z
#
# Youngs Moduli (GPa) = 80.01581 80.01581 96.39200
#
# Poissons Ratio (x) = 0.52012 0.21825
# Poissons Ratio (y) = 0.52012 0.21825
# Poissons Ratio (z) = 0.18117 0.18117
#
# Static dielectric constant tensor:
#      x y z
#    x 3.715100 0.000000 0.000000 
#    y 0.000000 3.715100 0.000000 
#    z 0.000000 0.000000 3.689960 
# 
# 
# High freq. dielectric constant tensor:
#      x y z
#    x 1.783800 0.000000 0.000000 
#    y 0.000000 1.783800 0.000000 
#    z 0.000000 0.000000 1.796700 
# 
# From -- ./inp_files/2160.got.cif
#   From: 2010.03.12/outbox.cif.g09.slc.cpg/sg122_2_cif.got.tgz:2160.got - 2010.04.06 16:17:16.
