data_PCOD8312724
_publ_section_title
;
Structure prediction by ZEFSAII (Michael W. Deem and Ramdas Pophale) SiO2 
 PCOD8312724
Probable space group: P 4/M M M
;
_chemical_formula_sum "Si O2"
_cell_formula_units_Z 56
_cell_length_a 20.780992
_cell_length_b 20.780992
_cell_length_c 7.993755
_cell_angle_alpha 90.000000
_cell_angle_beta 90.000000
_cell_angle_gamma 90.000000
_cell_volume 3452.100127
_symmetry_space_group_name_H-M "P 4/M M M"
_symmetry_group_IT_number 123
_symmetry_cell_setting 'tetragonal'
loop_
_space_group_symop_operation_xyz
x,y,z
-y,x,z
-x,-y,z
y,-x,z
x,-y,-z
-x,y,-z
y,x,-z
-y,-x,-z
-x,-y,-z
y,-x,-z
x,y,-z
-y,x,-z
-x,y,z
x,-y,z
-y,-x,z
y,x,z
loop_
_atom_site_type_symbol
_atom_site_label
_atom_site_fract_x
_atom_site_fract_y
_atom_site_fract_z
Si Si1 0.427306 0.680734 0.500000
Si Si2 0.928537 0.173012 0.196349
Si Si3 0.368142 0.260109 0.184784
Si Si4 0.273270 0.834862 0.311699
O O1 0.500000 0.654712 0.500000
O O2 0.380607 0.619393 0.500000
O O3 0.417866 0.724420 0.666127
O O4 0.883165 0.116836 0.274713
O O5 0.899899 0.243771 0.234210
O O6 0.000000 0.167776 0.275180
O O7 0.932248 0.163541 0.000000
O O8 0.312907 0.312907 0.193892
O O9 0.335882 0.189793 0.210919
O O10 0.401296 0.261215 0.000000
O O11 0.295280 0.848495 0.500000
O O12 0.219362 0.780639 0.303718
#
# Coordination Sequence:
#
# PCOD8312724 Si02
#       4
#     8  16  16  16
#     4  10  20  33  48  70  99 129 160 186 210 250
#     4   9  17  27  38  55  82 118 158 196 234 278
#     4   9  16  28  47  68  90 117 150 191 236 272
#     4   9  15  25  42  62  83 107 142 191 243 285
#
# _framework density 16.222009
#
# number of rings (size 3 to 8) (size 9 to 14) (size 15 to 20)
#    0.000    2.857    1.429    0.857    0.000    5.000 
#    0.000    1.429    0.000    0.000    0.000    8.000 
#    0.000    2.286    0.000    6.000    0.000    0.571 
#
# Total GULP energy -693900.016167 kJ/mol
# GULP energy per Si atom -12391.071717 kJ/mol
# Density = 1.618509 g / cm^3
# Si number density = 16.222009 Si / 1000 Ang^3
#
#
#
# Elastic Constant Matrix: (Units=GPa)
#
#
# Indices 1 2 3 4 5 6 
#
# 1 56.1777 48.8123 29.3933 0.0000 0.0000 0.0000
# 2 48.8123 56.1777 29.3933 0.0000 0.0000 0.0000
# 3 29.3933 29.3933 97.5441 0.0000 0.0000 0.0000
# 4 0.0000 0.0000 0.0000 14.8241 0.0000 0.0000
# 5 0.0000 0.0000 0.0000 0.0000 14.8241 0.0000
# 6 0.0000 0.0000 0.0000 0.0000 0.0000 11.4234
#
#
#
# Elastic Compliance Matrix: (Units=1/GPa)
#
#
# Indices 1 2 3 4 5 6 
#
# 1 0.073614 -0.062156 -0.003453 0.000000 0.000000 0.000000
# 2 -0.062156 0.073614 -0.003453 0.000000 0.000000 0.000000
# 3 -0.003453 -0.003453 0.012333 0.000000 0.000000 0.000000
# 4 0.000000 0.000000 0.000000 0.067458 0.000000 0.000000
# 5 0.000000 0.000000 0.000000 0.000000 0.067458 0.000000
# 6 0.000000 0.000000 0.000000 0.000000 0.000000 0.087540
#
#
# Mechanical properties :
#
#
# Convention : Reuss Voigt Hill
#
# Bulk Modulus (GPa) = 46.64652 47.23304 46.93978
# Shear Modulus (GPa) = 9.48253 15.03436 12.25844
#
# Velocity S-wave (km/s) = 2.42036 3.04762 2.75192
# Velocity P-wave (km/s) = 6.05214 6.44700 6.25269
#
# Compressibility (1/GPa) = 0.02143783
#
# Stress axis : x y z
#
# Youngs Moduli (GPa) = 13.58431 13.58431 81.08599
#
# Poissons Ratio (x) = 0.84435 0.27996
# Poissons Ratio (y) = 0.84435 0.27996
# Poissons Ratio (z) = 0.04690 0.04690
#
# Static dielectric constant tensor:
#      x y z
#    x 2.903080 0.000000 0.000000 
#    y 0.000000 2.903080 0.000000 
#    z 0.000000 0.000000 3.250650 
# 
# 
# High freq. dielectric constant tensor:
#      x y z
#    x 1.585810 0.000000 0.000000 
#    y 0.000000 1.585810 0.000000 
#    z 0.000000 0.000000 1.636220 
# 
# From -- ./inp_files/735.got.cif
#   From: 2010.03.12/outbox.cif.g09.slc.cpg/sg123_1_cif.got.tgz:735.got - 2010.04.06 16:26:55.
