data_PCOD8312044
_publ_section_title
;
Structure prediction by ZEFSAII (Michael W. Deem and Ramdas Pophale) SiO2 
 PCOD8312044
Probable space group: I -4 2 D
;
_chemical_formula_sum "Si O2"
_cell_formula_units_Z 100
_cell_length_a 13.888686
_cell_length_b 13.888686
_cell_length_c 23.488440
_cell_angle_alpha 90.000000
_cell_angle_beta 90.000000
_cell_angle_gamma 90.000000
_cell_volume 4530.816699
_symmetry_space_group_name_H-M "I -4 2 D"
_symmetry_group_IT_number 122
_symmetry_cell_setting 'tetragonal'
loop_
_space_group_symop_operation_xyz
x,y,z
y,-x,-z
-x,-y,z
-y,x,-z
x,1/2-y,1/4-z
-x,1/2+y,1/4-z
-y,1/2-x,1/4+z
y,1/2+x,1/4+z
1/2+x,1/2+y,1/2+z
1/2+y,1/2-x,1/2-z
1/2-x,1/2-y,1/2+z
1/2-y,1/2+x,1/2-z
1/2+x,-y,3/4-z
1/2-x,y,3/4-z
1/2-y,-x,3/4+z
1/2+y,x,3/4+z
loop_
_atom_site_type_symbol
_atom_site_label
_atom_site_fract_x
_atom_site_fract_y
_atom_site_fract_z
Si Si1 0.863135 0.466646 0.237180
Si Si2 0.484763 0.710573 0.038873
Si Si3 0.675315 0.250000 0.125000
Si Si4 0.215397 0.412373 0.077892
Si Si5 0.692997 0.023918 0.931975
Si Si6 0.000000 0.500000 0.750000
Si Si7 0.659781 0.396328 0.628198
Si Si8 0.250000 0.853607 0.375000
O O1 0.913787 0.566815 0.216516
O O2 0.758669 0.487866 0.262494
O O3 0.868788 0.384054 0.187784
O O4 0.391853 0.755987 0.069641
O O5 0.578566 0.760236 0.068636
O O6 0.473132 0.734671 0.972645
O O7 0.492750 0.593741 0.041660
O O8 0.742586 0.160282 0.139153
O O9 0.118044 0.367756 0.052872
O O10 0.183763 0.491365 0.122911
O O11 0.285892 0.341156 0.112122
O O12 0.750000 0.047409 0.875000
O O13 0.633015 0.925182 0.921858
#
# Coordination Sequence:
#
# PCOD8312044 Si02
#       8
#    16  16   8  16  16   4  16   8
#     4  11  23  39  66  96 137 188 238 285 357 430
#     4  11  25  46  73 106 141 191 239 310 367 442
#     4  11  24  45  70 102 144 175 252 287 358 436
#     4  12  26  44  73 102 145 189 241 304 369 432
#     4  12  23  44  67 101 144 185 240 295 356 443
#     4  12  20  44  80 100 144 200 232 300 400 416
#     4  12  25  44  67 105 138 193 232 297 361 436
#     4  11  26  45  72 112 136 187 260 293 364 464
#
# _framework density 22.071076000000001
#
# number of rings (size 3 to 8) (size 9 to 14) (size 15 to 20)
#    0.000    0.480    4.800    3.360    2.240    1.280 
#    0.000    1.600    0.000    0.000    0.000    0.000 
#    0.000    0.000    0.000    0.000    0.000    0.000 
#
# Total GULP energy -619502.032129 kJ/mol
# GULP energy per Si atom -12390.040643 kJ/mol
# Density = 2.202084 g / cm^3
# Si number density = 22.071076 Si / 1000 Ang^3
#
#
#
# Elastic Constant Matrix: (Units=GPa)
#
#
# Indices 1 2 3 4 5 6 
#
# 1 142.9953 74.0800 33.1308 0.0000 0.0000 0.0000
# 2 74.0800 142.9953 33.1308 0.0000 0.0000 0.0000
# 3 33.1308 33.1308 63.9035 0.0000 0.0000 0.0000
# 4 0.0000 0.0000 0.0000 24.9687 0.0000 0.0000
# 5 0.0000 0.0000 0.0000 0.0000 24.9687 0.0000
# 6 0.0000 0.0000 0.0000 0.0000 0.0000 27.2275
#
#
#
# Elastic Compliance Matrix: (Units=1/GPa)
#
#
# Indices 1 2 3 4 5 6 
#
# 1 0.009992 -0.004519 -0.002837 0.000000 0.000000 0.000000
# 2 -0.004519 0.009992 -0.002837 0.000000 0.000000 0.000000
# 3 -0.002837 -0.002837 0.018591 0.000000 0.000000 0.000000
# 4 0.000000 0.000000 0.000000 0.040050 0.000000 0.000000
# 5 0.000000 0.000000 0.000000 0.000000 0.040050 0.000000
# 6 0.000000 0.000000 0.000000 0.000000 0.000000 0.036728
#
#
# Mechanical properties :
#
#
# Convention : Reuss Voigt Hill
#
# Bulk Modulus (GPa) = 54.98501 70.06414 62.52458
# Shear Modulus (GPa) = 27.49498 29.40315 28.44906
#
# Velocity S-wave (km/s) = 3.53334 3.65390 3.59412
# Velocity P-wave (km/s) = 6.45080 7.04379 6.75380
#
# Compressibility (1/GPa) = 0.01818677
#
# Stress axis : x y z
#
# Youngs Moduli (GPa) = 100.08324 100.08324 53.79041
#
# Poissons Ratio (x) = 0.45226 0.15262
# Poissons Ratio (y) = 0.45226 0.15262
# Poissons Ratio (z) = 0.28397 0.28397
#
# Static dielectric constant tensor:
#      x y z
#    x 4.258530 0.000000 0.000000 
#    y 0.000000 4.258530 0.000000 
#    z 0.000000 0.000000 3.737060 
# 
# 
# High freq. dielectric constant tensor:
#      x y z
#    x 1.880120 0.000000 0.000000 
#    y 0.000000 1.880120 0.000000 
#    z 0.000000 0.000000 1.855350 
# 
# From -- ./inp_files/8092.got.cif
#   From: 2010.03.12/outbox.cif.g09.slc.cpg/sg122_5_cif.got.tgz:8092.got - 2010.04.06 16:17:16.
