data_PCOD8312881
_publ_section_title
;
Structure prediction by ZEFSAII (Michael W. Deem and Ramdas Pophale) SiO2 
 PCOD8312881
Probable space group: P 4/M M M
;
_chemical_formula_sum "Si O2"
_cell_formula_units_Z 80
_cell_length_a 13.652167
_cell_length_b 13.652167
_cell_length_c 25.521121
_cell_angle_alpha 90.000000
_cell_angle_beta 90.000000
_cell_angle_gamma 90.000000
_cell_volume 4756.668994
_symmetry_space_group_name_H-M "P 4/M M M"
_symmetry_group_IT_number 123
_symmetry_cell_setting 'tetragonal'
loop_
_space_group_symop_operation_xyz
x,y,z
-y,x,z
-x,-y,z
y,-x,z
x,-y,-z
-x,y,-z
y,x,-z
-y,-x,-z
-x,-y,-z
y,-x,-z
x,y,-z
-y,x,-z
-x,y,z
x,-y,z
-y,-x,z
y,x,z
loop_
_atom_site_type_symbol
_atom_site_label
_atom_site_fract_x
_atom_site_fract_y
_atom_site_fract_z
Si Si1 0.724063 0.885030 0.354930
Si Si2 0.383809 0.108828 0.942815
Si Si3 0.234871 0.388532 0.150955
Si Si4 0.773889 0.613685 0.731609
Si Si5 0.229348 0.387398 0.439576
O O1 0.826993 0.826993 0.353631
O O2 0.658257 0.858720 0.304539
O O3 0.662218 0.857291 0.406539
O O4 0.747268 0.000000 0.355267
O O5 0.500000 0.103975 0.936829
O O6 0.338433 0.168765 0.894193
O O7 0.339892 0.000000 0.939298
O O8 0.356186 0.154495 0.000000
O O9 0.253083 0.500000 0.136701
O O10 0.341133 0.341133 0.150231
O O11 0.187491 0.375254 0.208591
O O12 0.754651 0.500000 0.717698
O O13 0.672348 0.672348 0.722243
O O14 0.198425 0.378704 0.500000
O O15 0.243952 0.500000 0.422680
O O16 0.331769 0.331769 0.428413
#
# Coordination Sequence:
#
# PCOD8312881 Si02
#       5
#    16  16  16  16  16
#     4  10  21  36  52  70  93 120 153 195 239 282
#     4   8  14  25  40  57  78 106 142 184 225 259
#     4   9  17  28  42  62  89 119 148 177 211 256
#     4   9  18  31  46  67  94 122 153 187 224 270
#     4   9  18  32  50  74 103 132 161 192 226 267
#
# _framework density 16.818491000000002
#
# number of rings (size 3 to 8) (size 9 to 14) (size 15 to 20)
#    0.000    3.000    0.000    1.200    0.000    4.000 
#    0.000    6.000    0.000    3.600    0.000    5.600 
#    0.000    0.400    0.000    2.200    0.000    0.200 
#
# Total GULP energy -991493.537823 kJ/mol
# GULP energy per Si atom -12393.669223 kJ/mol
# Density = 1.678021 g / cm^3
# Si number density = 16.818491 Si / 1000 Ang^3
#
#
#
# Elastic Constant Matrix: (Units=GPa)
#
#
# Indices 1 2 3 4 5 6 
#
# 1 96.8365 41.4805 52.1588 0.0000 0.0000 0.0000
# 2 41.4805 96.8365 52.1588 0.0000 0.0000 0.0000
# 3 52.1588 52.1588 117.3954 0.0000 0.0000 0.0000
# 4 0.0000 0.0000 0.0000 24.2030 0.0000 0.0000
# 5 0.0000 0.0000 0.0000 0.0000 24.2030 0.0000
# 6 0.0000 0.0000 0.0000 0.0000 0.0000 10.1301
#
#
#
# Elastic Compliance Matrix: (Units=1/GPa)
#
#
# Indices 1 2 3 4 5 6 
#
# 1 0.014469 -0.003596 -0.004831 0.000000 0.000000 0.000000
# 2 -0.003596 0.014469 -0.004831 0.000000 0.000000 0.000000
# 3 -0.004831 -0.004831 0.012811 0.000000 0.000000 0.000000
# 4 0.000000 0.000000 0.000000 0.041317 0.000000 0.000000
# 5 0.000000 0.000000 0.000000 0.000000 0.041317 0.000000
# 6 0.000000 0.000000 0.000000 0.000000 0.000000 0.098715
#
#
# Mechanical properties :
#
#
# Convention : Reuss Voigt Hill
#
# Bulk Modulus (GPa) = 65.64435 66.96272 66.30353
# Shear Modulus (GPa) = 19.63153 22.72526 21.17840
#
# Velocity S-wave (km/s) = 3.42022 3.67986 3.55242
# Velocity P-wave (km/s) = 7.39683 7.61292 7.50565
#
# Compressibility (1/GPa) = 0.01523360
#
# Stress axis : x y z
#
# Youngs Moduli (GPa) = 69.11286 69.11286 78.05767
#
# Poissons Ratio (x) = 0.24852 0.37710
# Poissons Ratio (y) = 0.24852 0.37710
# Poissons Ratio (z) = 0.33388 0.33388
#
# Static dielectric constant tensor:
#      x y z
#    x 2.969120 0.000000 0.000000 
#    y 0.000000 2.969120 0.000000 
#    z 0.000000 0.000000 3.554540 
# 
# 
# High freq. dielectric constant tensor:
#      x y z
#    x 1.623090 0.000000 0.000000 
#    y 0.000000 1.623090 0.000000 
#    z 0.000000 0.000000 1.671610 
# 
# From -- ./inp_files/8309.got.cif
#   From: 2010.03.12/outbox.cif.g09.slc.cpg/sg123_5_cif.got.tgz:8309.got - 2010.04.06 16:26:55.
