data_PCOD8312335
_publ_section_title
;
Structure prediction by ZEFSAII (Michael W. Deem and Ramdas Pophale) SiO2 
 PCOD8312335
Probable space group: P 4/M M M
;
_chemical_formula_sum "Si O2"
_cell_formula_units_Z 96
_cell_length_a 14.189892
_cell_length_b 14.189892
_cell_length_c 30.849290
_cell_angle_alpha 90.000000
_cell_angle_beta 90.000000
_cell_angle_gamma 90.000000
_cell_volume 6211.598168
_symmetry_space_group_name_H-M "P 4/M M M"
_symmetry_group_IT_number 123
_symmetry_cell_setting 'tetragonal'
loop_
_space_group_symop_operation_xyz
x,y,z
-y,x,z
-x,-y,z
y,-x,z
x,-y,-z
-x,y,-z
y,x,-z
-y,-x,-z
-x,-y,-z
y,-x,-z
x,y,-z
-y,x,-z
-x,y,z
x,-y,z
-y,-x,z
y,x,z
loop_
_atom_site_type_symbol
_atom_site_label
_atom_site_fract_x
_atom_site_fract_y
_atom_site_fract_z
Si Si1 0.608144 0.240933 0.451489
Si Si2 0.887998 0.395264 0.716858
Si Si3 0.888044 0.734644 0.795324
Si Si4 0.605063 0.888727 0.874876
Si Si5 0.896049 0.388240 0.621542
Si Si6 0.261451 0.891693 0.950672
O O1 0.620165 0.198577 0.500000
O O2 0.500000 0.261711 0.440661
O O3 0.659918 0.340083 0.447156
O O4 0.652758 0.168502 0.416871
O O5 0.848250 0.500000 0.728208
O O6 0.854635 0.319558 0.752080
O O7 0.853568 0.362529 0.668998
O O8 0.000000 0.401613 0.716369
O O9 0.834427 0.834427 0.797831
O O10 0.854748 0.669343 0.835110
O O11 0.000000 0.754713 0.796144
O O12 0.500000 0.843690 0.872197
O O13 0.653671 0.857331 0.919906
O O14 0.595088 0.000000 0.872800
O O15 0.903337 0.500000 0.617405
O O16 0.000000 0.343594 0.615967
O O17 0.167962 0.832039 0.940883
O O18 0.234610 0.000000 0.940963
O O19 0.296057 0.878102 0.000000
#
# Coordination Sequence:
#
# PCOD8312335 Si02
#       6
#    16  16  16  16  16  16
#     4   9  17  27  38  54  77 105 135 164 195 235
#     4   8  14  26  43  61  81 104 131 165 203 239
#     4  10  19  29  42  61  85 112 139 164 193 234
#     4   9  17  29  44  60  79 105 137 174 213 244
#     4   8  14  25  41  60  80 101 127 163 206 245
#     4   9  17  28  42  62  89 119 147 172 199 237
#
# _framework density 15.45496
#
# number of rings (size 3 to 8) (size 9 to 14) (size 15 to 20)
#    0.000    3.167    0.000    2.000    0.000    3.833 
#    0.000    5.000    0.000    3.000    0.000    0.000 
#    0.000   16.000    0.000    9.167    0.000    0.833 
#
# Total GULP energy -1189794.903977 kJ/mol
# GULP energy per Si atom -12393.696916 kJ/mol
# Density = 1.541978 g / cm^3
# Si number density = 15.454960 Si / 1000 Ang^3
#
#
#
# Elastic Constant Matrix: (Units=GPa)
#
#
# Indices 1 2 3 4 5 6 
#
# 1 63.4662 35.5004 48.2503 0.0000 0.0000 0.0000
# 2 35.5004 63.4662 48.2503 0.0000 0.0000 0.0000
# 3 48.2503 48.2503 124.3230 0.0000 0.0000 0.0000
# 4 0.0000 0.0000 0.0000 19.0752 0.0000 0.0000
# 5 0.0000 0.0000 0.0000 0.0000 19.0752 0.0000
# 6 0.0000 0.0000 0.0000 0.0000 0.0000 12.1135
#
#
#
# Elastic Compliance Matrix: (Units=1/GPa)
#
#
# Indices 1 2 3 4 5 6 
#
# 1 0.026007 -0.009751 -0.006309 0.000000 0.000000 0.000000
# 2 -0.009751 0.026007 -0.006309 0.000000 0.000000 0.000000
# 3 -0.006309 -0.006309 0.012941 0.000000 0.000000 0.000000
# 4 0.000000 0.000000 0.000000 0.052424 0.000000 0.000000
# 5 0.000000 0.000000 0.000000 0.000000 0.052424 0.000000
# 6 0.000000 0.000000 0.000000 0.000000 0.000000 0.082553
#
#
# Mechanical properties :
#
#
# Convention : Reuss Voigt Hill
#
# Bulk Modulus (GPa) = 49.46366 57.25083 53.35724
# Shear Modulus (GPa) = 16.45638 18.00305 17.22972
#
# Velocity S-wave (km/s) = 3.26666 3.41672 3.34254
# Velocity P-wave (km/s) = 6.80460 7.25875 7.03534
#
# Compressibility (1/GPa) = 0.02021686
#
# Stress axis : x y z
#
# Youngs Moduli (GPa) = 38.45092 38.45092 77.27502
#
# Poissons Ratio (x) = 0.37493 0.48754
# Poissons Ratio (y) = 0.37493 0.48754
# Poissons Ratio (z) = 0.24259 0.24259
#
# Static dielectric constant tensor:
#      x y z
#    x 2.778230 0.000000 0.000000 
#    y 0.000000 2.778230 0.000000 
#    z 0.000000 0.000000 3.356130 
# 
# 
# High freq. dielectric constant tensor:
#      x y z
#    x 1.559510 0.000000 0.000000 
#    y 0.000000 1.559510 0.000000 
#    z 0.000000 0.000000 1.613880 
# 
# From -- ./inp_files/8604.got.cif
#   From: 2010.03.12/outbox.cif.g09.slc.cpg/sg123_5_cif.got.tgz:8604.got - 2010.04.06 16:26:55.
