data_PCOD8312870
_publ_section_title
;
Structure prediction by ZEFSAII (Michael W. Deem and Ramdas Pophale) SiO2 
 PCOD8312870
Probable space group: P 4/M M M
;
_chemical_formula_sum "Si O2"
_cell_formula_units_Z 88
_cell_length_a 14.303599
_cell_length_b 14.303599
_cell_length_c 23.178580
_cell_angle_alpha 90.000000
_cell_angle_beta 90.000000
_cell_angle_gamma 90.000000
_cell_volume 4742.173928
_symmetry_space_group_name_H-M "P 4/M M M"
_symmetry_group_IT_number 123
_symmetry_cell_setting 'tetragonal'
loop_
_space_group_symop_operation_xyz
x,y,z
-y,x,z
-x,-y,z
y,-x,z
x,-y,-z
-x,y,-z
y,x,-z
-y,-x,-z
-x,-y,-z
y,-x,-z
x,y,-z
-y,x,-z
-x,y,z
x,-y,z
-y,-x,z
y,x,z
loop_
_atom_site_type_symbol
_atom_site_label
_atom_site_fract_x
_atom_site_fract_y
_atom_site_fract_z
Si Si1 0.748297 0.896219 0.183239
Si Si2 0.843116 0.301991 0.935565
Si Si3 0.741826 0.107142 0.432282
Si Si4 0.102818 0.500000 0.067071
Si Si5 0.392912 0.758168 0.370309
Si Si6 0.393072 0.757583 0.765130
O O1 0.837271 0.837271 0.205974
O O2 0.750837 0.903653 0.113112
O O3 0.653026 0.846239 0.203131
O O4 0.753991 0.000000 0.209538
O O5 0.737682 0.262319 0.934885
O O6 0.837054 0.409665 0.916238
O O7 0.887770 0.289037 0.000000
O O8 0.722841 0.112464 0.500000
O O9 0.835801 0.164200 0.415594
O O10 0.652056 0.151957 0.401191
O O11 0.754545 0.000000 0.411818
O O12 0.000000 0.500000 0.097723
O O13 0.083519 0.500000 0.000000
O O14 0.500000 0.745398 0.390931
O O15 0.335776 0.664225 0.386990
O O16 0.387987 0.777133 0.302578
O O17 0.500000 0.746974 0.786054
O O18 0.337263 0.662738 0.781110
#
# Coordination Sequence:
#
# PCOD8312870 Si02
#       6
#    16  16  16   8  16  16
#     4  10  21  35  51  72  98 128 163 203 245 292
#     4   9  18  32  49  70  97 126 156 196 243 287
#     4   9  18  32  50  73 101 134 172 213 255 297
#     4   9  16  26  44  69  91 115 151 188 225 275
#     4   9  18  33  52  74 102 133 165 204 247 293
#     4   9  19  35  54  77 102 129 163 202 246 294
#
# _framework density 18.556891
#
# number of rings (size 3 to 8) (size 9 to 14) (size 15 to 20)
#    0.000    2.818    0.000    0.545    1.273    3.636 
#    0.000    5.455    0.000    0.273    0.000   12.091 
#    0.000    0.000    0.000    0.000    0.000    0.000 
#
# Total GULP energy -1090589.308950 kJ/mol
# GULP energy per Si atom -12393.060329 kJ/mol
# Density = 1.851465 g / cm^3
# Si number density = 18.556891 Si / 1000 Ang^3
#
#
#
# Elastic Constant Matrix: (Units=GPa)
#
#
# Indices 1 2 3 4 5 6 
#
# 1 154.1936 75.2855 30.6701 0.0000 0.0000 0.0000
# 2 75.2855 154.1936 30.6701 0.0000 0.0000 0.0000
# 3 30.6701 30.6701 34.2253 0.0000 0.0000 0.0000
# 4 0.0000 0.0000 0.0000 20.8368 0.0000 0.0000
# 5 0.0000 0.0000 0.0000 0.0000 20.8368 0.0000
# 6 0.0000 0.0000 0.0000 0.0000 0.0000 13.7648
#
#
#
# Elastic Compliance Matrix: (Units=1/GPa)
#
#
# Indices 1 2 3 4 5 6 
#
# 1 0.009202 -0.003471 -0.005135 0.000000 0.000000 0.000000
# 2 -0.003471 0.009202 -0.005135 0.000000 0.000000 0.000000
# 3 -0.005135 -0.005135 0.038421 0.000000 0.000000 0.000000
# 4 0.000000 0.000000 0.000000 0.047992 0.000000 0.000000
# 5 0.000000 0.000000 0.000000 0.000000 0.047992 0.000000
# 6 0.000000 0.000000 0.000000 0.000000 0.000000 0.072649
#
#
# Mechanical properties :
#
#
# Convention : Reuss Voigt Hill
#
# Bulk Modulus (GPa) = 34.08105 68.42932 51.25518
# Shear Modulus (GPa) = 19.03158 24.82015 21.92586
#
# Velocity S-wave (km/s) = 3.20594 3.66117 3.44109
# Velocity P-wave (km/s) = 5.66654 7.40458 6.59308
#
# Compressibility (1/GPa) = 0.02934182
#
# Stress axis : x y z
#
# Youngs Moduli (GPa) = 108.67631 108.67631 26.02713
#
# Poissons Ratio (x) = 0.37725 0.13365
# Poissons Ratio (y) = 0.37725 0.13365
# Poissons Ratio (z) = 0.55806 0.55806
#
# Static dielectric constant tensor:
#      x y z
#    x 3.486410 0.000000 0.000000 
#    y 0.000000 3.486410 0.000000 
#    z 0.000000 0.000000 3.381700 
# 
# 
# High freq. dielectric constant tensor:
#      x y z
#    x 1.712560 0.000000 0.000000 
#    y 0.000000 1.712560 0.000000 
#    z 0.000000 0.000000 1.713670 
# 
# From -- ./inp_files/6356.got.cif
#   From: 2010.03.12/outbox.cif.g09.slc.cpg/sg123_4_cif.got.tgz:6356.got - 2010.04.06 16:26:55.
