data_PCOD8312907
_publ_section_title
;
Structure prediction by ZEFSAII (Michael W. Deem and Ramdas Pophale) SiO2 
 PCOD8312907
Probable space group: P 4/M M M
;
_chemical_formula_sum "Si O2"
_cell_formula_units_Z 72
_cell_length_a 21.047890
_cell_length_b 21.047890
_cell_length_c 9.002157
_cell_angle_alpha 90.000000
_cell_angle_beta 90.000000
_cell_angle_gamma 90.000000
_cell_volume 3988.078642
_symmetry_space_group_name_H-M "P 4/M M M"
_symmetry_group_IT_number 123
_symmetry_cell_setting 'tetragonal'
loop_
_space_group_symop_operation_xyz
x,y,z
-y,x,z
-x,-y,z
y,-x,z
x,-y,-z
-x,y,-z
y,x,-z
-y,-x,-z
-x,-y,-z
y,-x,-z
x,y,-z
-y,x,-z
-x,y,z
x,-y,z
-y,-x,z
y,x,z
loop_
_atom_site_type_symbol
_atom_site_label
_atom_site_fract_x
_atom_site_fract_y
_atom_site_fract_z
Si Si1 0.074534 0.500000 0.673403
Si Si2 0.161084 0.599051 0.173625
Si Si3 0.400107 0.500000 0.675493
Si Si4 0.162657 0.732728 0.327392
Si Si5 0.825007 0.927438 0.171432
Si Si6 0.732078 0.500000 0.168631
O O1 0.090850 0.500000 0.500000
O O2 0.103183 0.436420 0.745660
O O3 0.000000 0.500000 0.703967
O O4 0.171002 0.668798 0.236234
O O5 0.226503 0.562138 0.203476
O O6 0.144777 0.601383 0.000000
O O7 0.437257 0.437257 0.733354
O O8 0.399579 0.500000 0.500000
O O9 0.328462 0.500000 0.727971
O O10 0.154728 0.716876 0.500000
O O11 0.224203 0.775798 0.296065
O O12 0.099681 0.768496 0.271995
O O13 0.890287 0.890287 0.203506
O O14 0.836901 0.000000 0.216431
O O15 0.804608 0.920513 0.000000
O O16 0.708345 0.500000 0.000000
#
# Coordination Sequence:
#
# PCOD8312907 Si02
#       6
#     8  16   8  16  16   8
#     4  10  21  37  57  81 108 137 172 216 262 309
#     4  10  21  37  56  78 106 139 174 214 261 313
#     4   9  19  35  53  75 104 137 172 208 247 295
#     4  10  21  36  54  77 105 138 177 219 262 310
#     4   9  18  33  53  77 105 137 173 214 261 312
#     4   9  20  36  53  77 104 131 167 209 253 301
#
# _framework density 18.053805000000001
#
# number of rings (size 3 to 8) (size 9 to 14) (size 15 to 20)
#    0.000    2.444    0.000    2.667    0.000    7.778 
#    0.000    6.111    0.000    0.000    0.000    3.111 
#    0.000    0.000    0.000    0.000    0.000    0.000 
#
# Total GULP energy -892967.285563 kJ/mol
# GULP energy per Si atom -12402.323411 kJ/mol
# Density = 1.801271 g / cm^3
# Si number density = 18.053805 Si / 1000 Ang^3
#
#
#
# Elastic Constant Matrix: (Units=GPa)
#
#
# Indices 1 2 3 4 5 6 
#
# 1 134.6819 57.2458 63.4006 0.0000 0.0000 0.0000
# 2 57.2458 134.6819 63.4006 0.0000 0.0000 0.0000
# 3 63.4006 63.4006 99.5301 0.0000 0.0000 0.0000
# 4 0.0000 0.0000 0.0000 31.0751 0.0000 0.0000
# 5 0.0000 0.0000 0.0000 0.0000 31.0751 0.0000
# 6 0.0000 0.0000 0.0000 0.0000 0.0000 11.8954
#
#
#
# Elastic Compliance Matrix: (Units=1/GPa)
#
#
# Indices 1 2 3 4 5 6 
#
# 1 0.010955 -0.001959 -0.005731 0.000000 0.000000 0.000000
# 2 -0.001959 0.010955 -0.005731 0.000000 0.000000 0.000000
# 3 -0.005731 -0.005731 0.017348 0.000000 0.000000 0.000000
# 4 0.000000 0.000000 0.000000 0.032180 0.000000 0.000000
# 5 0.000000 0.000000 0.000000 0.000000 0.032180 0.000000
# 6 0.000000 0.000000 0.000000 0.000000 0.000000 0.084066
#
#
# Mechanical properties :
#
#
# Convention : Reuss Voigt Hill
#
# Bulk Modulus (GPa) = 80.52750 81.88755 81.20752
# Shear Modulus (GPa) = 22.86607 27.13224 24.99916
#
# Velocity S-wave (km/s) = 3.56273 3.88087 3.72520
# Velocity P-wave (km/s) = 7.85016 8.09553 7.97379
#
# Compressibility (1/GPa) = 0.01241812
#
# Stress axis : x y z
#
# Youngs Moduli (GPa) = 91.28139 91.28139 57.64320
#
# Poissons Ratio (x) = 0.17880 0.33034
# Poissons Ratio (y) = 0.17880 0.33034
# Poissons Ratio (z) = 0.52311 0.52311
#
# Static dielectric constant tensor:
#      x y z
#    x 3.372660 0.000000 0.000000 
#    y 0.000000 3.372660 0.000000 
#    z 0.000000 0.000000 3.397700 
# 
# 
# High freq. dielectric constant tensor:
#      x y z
#    x 1.701250 0.000000 0.000000 
#    y 0.000000 1.701250 0.000000 
#    z 0.000000 0.000000 1.706400 
# 
# From -- ./inp_files/1195.got.cif
#   From: 2010.03.12/outbox.cif.g09.slc.cpg/sg123_1_cif.got.tgz:1195.got - 2010.04.06 16:26:55.
