data_PCOD8312677
_publ_section_title
;
Structure prediction by ZEFSAII (Michael W. Deem and Ramdas Pophale) SiO2 
 PCOD8312677
Probable space group: P 4/M M M
;
_chemical_formula_sum "Si O2"
_cell_formula_units_Z 80
_cell_length_a 13.944692
_cell_length_b 13.944692
_cell_length_c 25.478952
_cell_angle_alpha 90.000000
_cell_angle_beta 90.000000
_cell_angle_gamma 90.000000
_cell_volume 4954.495215
_symmetry_space_group_name_H-M "P 4/M M M"
_symmetry_group_IT_number 123
_symmetry_cell_setting 'tetragonal'
loop_
_space_group_symop_operation_xyz
x,y,z
-y,x,z
-x,-y,z
y,-x,z
x,-y,-z
-x,y,-z
y,x,-z
-y,-x,-z
-x,-y,-z
y,-x,-z
x,y,-z
-y,x,-z
-x,y,z
x,-y,z
-y,-x,z
y,x,z
loop_
_atom_site_type_symbol
_atom_site_label
_atom_site_fract_x
_atom_site_fract_y
_atom_site_fract_z
Si Si1 0.237667 0.390003 0.558157
Si Si2 0.107215 0.386520 0.234636
Si Si3 0.769365 0.386040 0.863051
Si Si4 0.386082 0.106391 0.350474
Si Si5 0.265190 0.889882 0.938810
O O1 0.191084 0.377001 0.500000
O O2 0.257505 0.500000 0.570939
O O3 0.340199 0.340199 0.560737
O O4 0.170006 0.342885 0.602529
O O5 0.100112 0.500000 0.231564
O O6 0.182180 0.350610 0.191261
O O7 0.144475 0.355372 0.292642
O O8 0.000000 0.344526 0.224311
O O9 0.752124 0.500000 0.865655
O O10 0.666839 0.333161 0.868502
O O11 0.841083 0.354910 0.909488
O O12 0.500000 0.104266 0.355166
O O13 0.344541 0.000000 0.357983
O O14 0.166884 0.833117 0.925472
O O15 0.252400 0.000000 0.920664
O O16 0.289335 0.883890 0.000000
#
# Coordination Sequence:
#
# PCOD8312677 Si02
#       5
#    16  16  16  16  16
#     4   9  17  27  38  54  78 109 143 176 209 248
#     4   8  14  26  44  63  81 103 134 173 217 263
#     4  10  20  32  46  65  90 121 157 194 227 260
#     4   8  14  25  41  60  80 102 131 170 215 259
#     4   9  18  32  50  73  98 121 147 182 226 276
#
# _framework density 16.146953
#
# number of rings (size 3 to 8) (size 9 to 14) (size 15 to 20)
#    0.000    3.200    0.000    1.800    0.000    3.400 
#    0.000    5.000    0.000    0.000    0.000    8.400 
#    0.000    0.400    0.000    6.600    0.000    5.400 
#
# Total GULP energy -991353.530286 kJ/mol
# GULP energy per Si atom -12391.919129 kJ/mol
# Density = 1.611020 g / cm^3
# Si number density = 16.146953 Si / 1000 Ang^3
#
#
#
# Elastic Constant Matrix: (Units=GPa)
#
#
# Indices 1 2 3 4 5 6 
#
# 1 75.5295 36.8868 47.1944 0.0000 0.0000 0.0000
# 2 36.8868 75.5295 47.1944 0.0000 0.0000 0.0000
# 3 47.1944 47.1944 99.7140 0.0000 0.0000 0.0000
# 4 0.0000 0.0000 0.0000 22.7193 0.0000 0.0000
# 5 0.0000 0.0000 0.0000 0.0000 22.7193 0.0000
# 6 0.0000 0.0000 0.0000 0.0000 0.0000 8.7635
#
#
#
# Elastic Compliance Matrix: (Units=1/GPa)
#
#
# Indices 1 2 3 4 5 6 
#
# 1 0.020320 -0.005558 -0.006987 0.000000 0.000000 0.000000
# 2 -0.005558 0.020320 -0.006987 0.000000 0.000000 0.000000
# 3 -0.006987 -0.006987 0.016642 0.000000 0.000000 0.000000
# 4 0.000000 0.000000 0.000000 0.044015 0.000000 0.000000
# 5 0.000000 0.000000 0.000000 0.000000 0.044015 0.000000
# 6 0.000000 0.000000 0.000000 0.000000 0.000000 0.114110
#
#
# Mechanical properties :
#
#
# Convention : Reuss Voigt Hill
#
# Bulk Modulus (GPa) = 54.88776 57.03603 55.96190
# Shear Modulus (GPa) = 16.41715 18.80690 17.61202
#
# Velocity S-wave (km/s) = 3.19209 3.41652 3.30621
# Velocity P-wave (km/s) = 6.90307 7.13886 7.02195
#
# Compressibility (1/GPa) = 0.01821900
#
# Stress axis : x y z
#
# Youngs Moduli (GPa) = 49.21263 49.21263 60.08778
#
# Poissons Ratio (x) = 0.27353 0.41982
# Poissons Ratio (y) = 0.27353 0.41982
# Poissons Ratio (z) = 0.34384 0.34384
#
# Static dielectric constant tensor:
#      x y z
#    x 2.880920 0.000000 0.000000 
#    y 0.000000 2.880920 0.000000 
#    z 0.000000 0.000000 3.449850 
# 
# 
# High freq. dielectric constant tensor:
#      x y z
#    x 1.593910 0.000000 0.000000 
#    y 0.000000 1.593910 0.000000 
#    z 0.000000 0.000000 1.638290 
# 
# From -- ./inp_files/7108.got.cif
#   From: 2010.03.12/outbox.cif.g09.slc.cpg/sg123_4_cif.got.tgz:7108.got - 2010.04.06 16:26:55.
