data_PCOD8312329
_publ_section_title
;
Structure prediction by ZEFSAII (Michael W. Deem and Ramdas Pophale) SiO2 
 PCOD8312329
Probable space group: P 4/M M M
;
_chemical_formula_sum "Si O2"
_cell_formula_units_Z 96
_cell_length_a 14.438383
_cell_length_b 14.438383
_cell_length_c 30.469121
_cell_angle_alpha 90.000000
_cell_angle_beta 90.000000
_cell_angle_gamma 90.000000
_cell_volume 6351.803312
_symmetry_space_group_name_H-M "P 4/M M M"
_symmetry_group_IT_number 123
_symmetry_cell_setting 'tetragonal'
loop_
_space_group_symop_operation_xyz
x,y,z
-y,x,z
-x,-y,z
y,-x,z
x,-y,-z
-x,y,-z
y,x,-z
-y,-x,-z
-x,-y,-z
y,-x,-z
x,y,-z
-y,x,-z
-x,y,z
x,-y,z
-y,-x,z
y,x,z
loop_
_atom_site_type_symbol
_atom_site_label
_atom_site_fract_x
_atom_site_fract_y
_atom_site_fract_z
Si Si1 0.605892 0.244744 0.450378
Si Si2 0.109562 0.261963 0.705855
Si Si3 0.890276 0.603516 0.781984
Si Si4 0.602558 0.890020 0.879891
Si Si5 0.893514 0.394338 0.625387
Si Si6 0.254971 0.893656 0.950584
O O1 0.624402 0.209999 0.500000
O O2 0.500000 0.274552 0.443834
O O3 0.665307 0.334694 0.438798
O O4 0.633911 0.162218 0.417993
O O5 0.165666 0.165666 0.703374
O O6 0.145849 0.320036 0.747850
O O7 0.133737 0.324856 0.664075
O O8 0.000000 0.238910 0.708505
O O9 0.851150 0.500000 0.771524
O O10 0.859872 0.634438 0.831015
O O11 0.000000 0.598383 0.778361
O O12 0.500000 0.850522 0.889328
O O13 0.671276 0.849779 0.916712
O O14 0.600350 0.000000 0.883326
O O15 0.872189 0.500000 0.640392
O O16 0.000000 0.383294 0.612618
O O17 0.158217 0.841784 0.944835
O O18 0.234260 0.000000 0.939457
O O19 0.294335 0.882131 0.000000
#
# Coordination Sequence:
#
# PCOD8312329 Si02
#       6
#    16  16  16  16  16  16
#     4   9  17  28  42  61  85 111 136 163 198 243
#     4  10  19  29  42  60  83 111 139 166 197 234
#     4   8  14  26  43  60  77  98 127 164 203 239
#     4   8  14  25  41  59  77  98 126 163 206 245
#     4   9  17  29  45  63  81 103 135 175 213 243
#     4   9  17  27  38  54  78 109 142 171 198 232
#
# _framework density 15.113818
#
# number of rings (size 3 to 8) (size 9 to 14) (size 15 to 20)
#    0.000    3.167    0.000    2.000    0.000    3.833 
#    0.000    5.000    0.000    0.000    0.000    4.667 
#    0.000    3.333    0.000   24.667    0.000    5.167 
#
# Total GULP energy -1189861.941382 kJ/mol
# GULP energy per Si atom -12394.395223 kJ/mol
# Density = 1.507942 g / cm^3
# Si number density = 15.113818 Si / 1000 Ang^3
#
#
#
# Elastic Constant Matrix: (Units=GPa)
#
#
# Indices 1 2 3 4 5 6 
#
# 1 65.9683 41.6524 56.6325 0.0000 0.0000 0.0000
# 2 41.6524 65.9683 56.6325 0.0000 0.0000 0.0000
# 3 56.6325 56.6325 116.3354 0.0000 0.0000 0.0000
# 4 0.0000 0.0000 0.0000 21.4108 0.0000 0.0000
# 5 0.0000 0.0000 0.0000 0.0000 21.4108 0.0000
# 6 0.0000 0.0000 0.0000 0.0000 0.0000 16.1410
#
#
#
# Elastic Compliance Matrix: (Units=1/GPa)
#
#
# Indices 1 2 3 4 5 6 
#
# 1 0.030090 -0.011036 -0.009275 0.000000 0.000000 0.000000
# 2 -0.011036 0.030090 -0.009275 0.000000 0.000000 0.000000
# 3 -0.009275 -0.009275 0.017627 0.000000 0.000000 0.000000
# 4 0.000000 0.000000 0.000000 0.046705 0.000000 0.000000
# 5 0.000000 0.000000 0.000000 0.000000 0.046705 0.000000
# 6 0.000000 0.000000 0.000000 0.000000 0.000000 0.061954
#
#
# Mechanical properties :
#
#
# Convention : Reuss Voigt Hill
#
# Bulk Modulus (GPa) = 53.67033 62.01186 57.84110
# Shear Modulus (GPa) = 16.74733 18.01614 17.38174
#
# Velocity S-wave (km/s) = 3.33240 3.45633 3.39493
# Velocity P-wave (km/s) = 7.09890 7.55296 7.32945
#
# Compressibility (1/GPa) = 0.01863227
#
# Stress axis : x y z
#
# Youngs Moduli (GPa) = 33.23403 33.23403 56.73272
#
# Poissons Ratio (x) = 0.36676 0.52622
# Poissons Ratio (y) = 0.36676 0.52622
# Poissons Ratio (z) = 0.30826 0.30826
#
# Static dielectric constant tensor:
#      x y z
#    x 2.770110 0.000000 0.000000 
#    y 0.000000 2.770110 0.000000 
#    z 0.000000 0.000000 3.178170 
# 
# 
# High freq. dielectric constant tensor:
#      x y z
#    x 1.554690 0.000000 0.000000 
#    y 0.000000 1.554690 0.000000 
#    z 0.000000 0.000000 1.592870 
# 
# From -- ./inp_files/8605.got.cif
#   From: 2010.03.12/outbox.cif.g09.slc.cpg/sg123_5_cif.got.tgz:8605.got - 2010.04.06 16:26:55.
