data_PCOD8312969
_publ_section_title
;
Structure prediction by ZEFSAII (Michael W. Deem and Ramdas Pophale) SiO2 
 PCOD8312969
Probable space group: P 4/M M M
;
_chemical_formula_sum "Si O2"
_cell_formula_units_Z 96
_cell_length_a 14.781404
_cell_length_b 14.781404
_cell_length_c 30.525715
_cell_angle_alpha 90.000000
_cell_angle_beta 90.000000
_cell_angle_gamma 90.000000
_cell_volume 6669.560546
_symmetry_space_group_name_H-M "P 4/M M M"
_symmetry_group_IT_number 123
_symmetry_cell_setting 'tetragonal'
loop_
_space_group_symop_operation_xyz
x,y,z
-y,x,z
-x,-y,z
y,-x,z
x,-y,-z
-x,y,-z
y,x,-z
-y,-x,-z
-x,-y,-z
y,-x,-z
x,y,-z
-y,x,-z
-x,y,z
x,-y,z
-y,-x,z
y,x,z
loop_
_atom_site_type_symbol
_atom_site_label
_atom_site_fract_x
_atom_site_fract_y
_atom_site_fract_z
Si Si1 0.891793 0.601357 0.359696
Si Si2 0.396463 0.250187 0.050158
Si Si3 0.103321 0.250121 0.808282
Si Si4 0.896464 0.603537 0.120839
Si Si5 0.749856 0.895717 0.291998
Si Si6 0.392611 0.101094 0.453650
O O1 0.855803 0.500000 0.349292
O O2 0.857730 0.668301 0.321799
O O3 0.853504 0.637358 0.407291
O O4 0.000000 0.599624 0.361778
O O5 0.500000 0.279264 0.058106
O O6 0.335700 0.335700 0.063520
O O7 0.369183 0.164325 0.079404
O O8 0.380066 0.221368 0.000000
O O9 0.164732 0.164732 0.820977
O O10 0.130782 0.335579 0.837751
O O11 0.117801 0.280346 0.758174
O O12 0.000000 0.220355 0.816579
O O13 0.880135 0.500000 0.134980
O O14 0.000000 0.619813 0.106714
O O15 0.840622 0.840622 0.302556
O O16 0.771433 0.000000 0.302522
O O17 0.362675 0.150247 0.500000
O O18 0.500000 0.096134 0.451762
O O19 0.352612 0.000000 0.455439
#
# Coordination Sequence:
#
# PCOD8312969 Si02
#       6
#    16  16  16  16  16  16
#     4   8  13  21  34  52  72  92 114 145 186 225
#     4   9  17  28  42  60  81 105 131 157 184 214
#     4   9  17  28  41  56  74  97 125 157 190 222
#     4   9  17  28  42  60  80 101 124 151 187 230
#     4   9  17  27  38  53  73  98 127 156 185 218
#     4   7   9  14  26  45  67  88 110 138 175 219
#
# _framework density 14.393751999999999
#
# number of rings (size 3 to 8) (size 9 to 14) (size 15 to 20)
#    0.000    3.500    0.000    2.000    0.000    1.500 
#    0.000    7.500    0.000    0.500    0.000    0.000 
#    0.000    0.333    0.000   25.667    0.000    1.333 
#
# Total GULP energy -1189285.987436 kJ/mol
# GULP energy per Si atom -12388.395702 kJ/mol
# Density = 1.436099 g / cm^3
# Si number density = 14.393752 Si / 1000 Ang^3
#
#
#
# Elastic Constant Matrix: (Units=GPa)
#
#
# Indices 1 2 3 4 5 6 
#
# 1 62.0676 40.6651 56.8090 0.0000 0.0000 0.0000
# 2 40.6651 62.0676 56.8090 0.0000 0.0000 0.0000
# 3 56.8090 56.8090 108.1837 0.0000 0.0000 0.0000
# 4 0.0000 0.0000 0.0000 14.9935 0.0000 0.0000
# 5 0.0000 0.0000 0.0000 0.0000 14.9935 0.0000
# 6 0.0000 0.0000 0.0000 0.0000 0.0000 14.5726
#
#
#
# Elastic Compliance Matrix: (Units=1/GPa)
#
#
# Indices 1 2 3 4 5 6 
#
# 1 0.034971 -0.011753 -0.012192 0.000000 0.000000 0.000000
# 2 -0.011753 0.034971 -0.012192 0.000000 0.000000 0.000000
# 3 -0.012192 -0.012192 0.022048 0.000000 0.000000 0.000000
# 4 0.000000 0.000000 0.000000 0.066696 0.000000 0.000000
# 5 0.000000 0.000000 0.000000 0.000000 0.066696 0.000000
# 6 0.000000 0.000000 0.000000 0.000000 0.000000 0.068622
#
#
# Mechanical properties :
#
#
# Convention : Reuss Voigt Hill
#
# Bulk Modulus (GPa) = 50.72142 60.09834 55.40988
# Shear Modulus (GPa) = 13.41028 14.11432 13.76230
#
# Velocity S-wave (km/s) = 3.05564 3.13483 3.09549
# Velocity P-wave (km/s) = 6.91117 7.41260 7.16627
#
# Compressibility (1/GPa) = 0.01971554
#
# Stress axis : x y z
#
# Youngs Moduli (GPa) = 28.59536 28.59536 45.35540
#
# Poissons Ratio (x) = 0.33607 0.55298
# Poissons Ratio (y) = 0.33607 0.55298
# Poissons Ratio (z) = 0.34864 0.34864
#
# Static dielectric constant tensor:
#      x y z
#    x 2.622570 0.000000 0.000000 
#    y 0.000000 2.622570 0.000000 
#    z 0.000000 0.000000 3.163510 
# 
# 
# High freq. dielectric constant tensor:
#      x y z
#    x 1.520160 0.000000 0.000000 
#    y 0.000000 1.520160 0.000000 
#    z 0.000000 0.000000 1.565410 
# 
# From -- ./inp_files/8575.got.cif
#   From: 2010.03.12/outbox.cif.g09.slc.cpg/sg123_5_cif.got.tgz:8575.got - 2010.04.06 16:26:55.
