data_PCOD8312773
_publ_section_title
;
Structure prediction by ZEFSAII (Michael W. Deem and Ramdas Pophale) SiO2 
 PCOD8312773
Probable space group: P 4/M M M
;
_chemical_formula_sum "Si O2"
_cell_formula_units_Z 80
_cell_length_a 15.271818
_cell_length_b 15.271818
_cell_length_c 18.916783
_cell_angle_alpha 90.000000
_cell_angle_beta 90.000000
_cell_angle_gamma 90.000000
_cell_volume 4411.931506
_symmetry_space_group_name_H-M "P 4/M M M"
_symmetry_group_IT_number 123
_symmetry_cell_setting 'tetragonal'
loop_
_space_group_symop_operation_xyz
x,y,z
-y,x,z
-x,-y,z
y,-x,z
x,-y,-z
-x,y,-z
y,x,-z
-y,-x,-z
-x,-y,-z
y,-x,-z
x,y,-z
-y,x,-z
-x,y,z
x,-y,z
-y,-x,z
y,x,z
loop_
_atom_site_type_symbol
_atom_site_label
_atom_site_fract_x
_atom_site_fract_y
_atom_site_fract_z
Si Si1 0.730399 0.405615 0.417362
Si Si2 0.097580 0.236039 0.276711
Si Si3 0.903058 0.687754 0.421183
Si Si4 0.099750 0.400581 0.816068
Si Si5 0.741850 0.599854 0.082242
O O1 0.710793 0.408976 0.500000
O O2 0.708718 0.500000 0.382999
O O3 0.668669 0.331332 0.381831
O O4 0.832221 0.386438 0.404166
O O5 0.165624 0.165624 0.245485
O O6 0.105341 0.236985 0.362087
O O7 0.118452 0.333319 0.247775
O O8 0.000000 0.206864 0.253811
O O9 0.886540 0.727853 0.500000
O O10 0.000000 0.644902 0.416958
O O11 0.114161 0.500000 0.788214
O O12 0.167065 0.378488 0.878801
O O13 0.000000 0.389359 0.844388
O O14 0.711645 0.500000 0.097489
O O15 0.664593 0.664593 0.108628
O O16 0.760736 0.614250 0.000000
#
# Coordination Sequence:
#
# PCOD8312773 Si02
#       5
#    16  16  16  16  16
#     4   9  17  28  42  61  85 112 141 174 213 260
#     4  10  20  33  50  70  93 123 155 191 237 285
#     4   9  18  32  49  68  89 115 150 193 241 289
#     4   9  18  32  49  70  96 125 159 198 237 277
#     4   9  17  29  47  72 101 132 163 194 229 271
#
# _framework density 18.132648
#
# number of rings (size 3 to 8) (size 9 to 14) (size 15 to 20)
#    0.000    2.800    0.000    1.200    0.000    3.400 
#    0.000    8.000    0.000    0.000    0.000    2.800 
#    0.000    4.800    0.000   18.800    0.000    0.400 
#
# Total GULP energy -991306.471850 kJ/mol
# GULP energy per Si atom -12391.330898 kJ/mol
# Density = 1.809138 g / cm^3
# Si number density = 18.132648 Si / 1000 Ang^3
#
#
#
# Elastic Constant Matrix: (Units=GPa)
#
#
# Indices 1 2 3 4 5 6 
#
# 1 124.1958 87.4486 36.9059 0.0000 0.0000 0.0000
# 2 87.4486 124.1958 36.9059 0.0000 0.0000 0.0000
# 3 36.9059 36.9059 56.0212 0.0000 0.0000 0.0000
# 4 0.0000 0.0000 0.0000 18.2255 0.0000 0.0000
# 5 0.0000 0.0000 0.0000 0.0000 18.2255 0.0000
# 6 0.0000 0.0000 0.0000 0.0000 0.0000 26.3561
#
#
#
# Elastic Compliance Matrix: (Units=1/GPa)
#
#
# Indices 1 2 3 4 5 6 
#
# 1 0.016674 -0.010539 -0.004041 0.000000 0.000000 0.000000
# 2 -0.010539 0.016674 -0.004041 0.000000 0.000000 0.000000
# 3 -0.004041 -0.004041 0.023175 0.000000 0.000000 0.000000
# 4 0.000000 0.000000 0.000000 0.054868 0.000000 0.000000
# 5 0.000000 0.000000 0.000000 0.000000 0.054868 0.000000
# 6 0.000000 0.000000 0.000000 0.000000 0.000000 0.037942
#
#
# Mechanical properties :
#
#
# Convention : Reuss Voigt Hill
#
# Bulk Modulus (GPa) = 51.87051 69.65932 60.76491
# Shear Modulus (GPa) = 20.17186 22.10491 21.13838
#
# Velocity S-wave (km/s) = 3.33898 3.49530 3.41803
# Velocity P-wave (km/s) = 6.59797 7.40199 7.01151
#
# Compressibility (1/GPa) = 0.01927878
#
# Stress axis : x y z
#
# Youngs Moduli (GPa) = 59.97498 59.97498 43.15015
#
# Poissons Ratio (x) = 0.63210 0.17438
# Poissons Ratio (y) = 0.63210 0.17438
# Poissons Ratio (z) = 0.24237 0.24237
#
# Static dielectric constant tensor:
#      x y z
#    x 3.445140 0.000000 0.000000 
#    y 0.000000 3.445140 0.000000 
#    z 0.000000 0.000000 3.115380 
# 
# 
# High freq. dielectric constant tensor:
#      x y z
#    x 1.700360 0.000000 0.000000 
#    y 0.000000 1.700360 0.000000 
#    z 0.000000 0.000000 1.669380 
# 
# From -- ./inp_files/6302.got.cif
#   From: 2010.03.12/outbox.cif.g09.slc.cpg/sg123_4_cif.got.tgz:6302.got - 2010.04.06 16:26:55.
