data_PCOD8312912
_publ_section_title
;
Structure prediction by ZEFSAII (Michael W. Deem and Ramdas Pophale) SiO2 
 PCOD8312912
Probable space group: P 4/M M M
;
_chemical_formula_sum "Si O2"
_cell_formula_units_Z 72
_cell_length_a 20.546366
_cell_length_b 20.546366
_cell_length_c 8.719793
_cell_angle_alpha 90.000000
_cell_angle_beta 90.000000
_cell_angle_gamma 90.000000
_cell_volume 3681.088133
_symmetry_space_group_name_H-M "P 4/M M M"
_symmetry_group_IT_number 123
_symmetry_cell_setting 'tetragonal'
loop_
_space_group_symop_operation_xyz
x,y,z
-y,x,z
-x,-y,z
y,-x,z
x,-y,-z
-x,y,-z
y,x,-z
-y,-x,-z
-x,-y,-z
y,-x,-z
x,y,-z
-y,x,-z
-x,y,z
x,-y,z
-y,-x,z
y,x,z
loop_
_atom_site_type_symbol
_atom_site_label
_atom_site_fract_x
_atom_site_fract_y
_atom_site_fract_z
Si Si1 0.426737 0.322551 0.174055
Si Si2 0.335110 0.228239 0.327251
Si Si3 0.903666 0.322857 0.822284
Si Si4 0.823109 0.927542 0.181257
Si Si5 0.424153 0.000000 0.681474
O O1 0.500000 0.335740 0.221854
O O2 0.390794 0.390794 0.193402
O O3 0.398806 0.269917 0.291417
O O4 0.419933 0.296338 0.000000
O O5 0.340246 0.200584 0.500000
O O6 0.270848 0.270848 0.306232
O O7 0.331594 0.172405 0.201575
O O8 0.921775 0.251071 0.755262
O O9 0.937798 0.383219 0.737615
O O10 0.922667 0.326828 0.000000
O O11 0.872639 0.872639 0.250977
O O12 0.849184 0.000000 0.223833
O O13 0.820748 0.917921 0.000000
O O14 0.500000 0.000000 0.742458
O O15 0.426170 0.000000 0.500000
#
# Coordination Sequence:
#
# PCOD8312912 Si02
#       5
#    16  16  16  16   8
#     4   9  18  33  53  78 108 142 182 229 282 340
#     4  10  21  36  55  81 112 147 188 233 283 338
#     4  11  21  37  60  85 114 149 192 238 287 342
#     4   9  17  30  51  83 120 154 189 231 278 329
#     4  11  25  43  61  83 112 147 188 236 293 355
#
# _framework density 19.559434
#
# number of rings (size 3 to 8) (size 9 to 14) (size 15 to 20)
#    0.000    2.111    1.111    2.333    0.000    4.889 
#    0.000    2.222    0.000    0.000    0.000    3.111 
#    0.000    0.889    0.000    0.000    0.000    0.000 
#
# Total GULP energy -892485.151975 kJ/mol
# GULP energy per Si atom -12395.627111 kJ/mol
# Density = 1.951492 g / cm^3
# Si number density = 19.559434 Si / 1000 Ang^3
#
#
#
# Elastic Constant Matrix: (Units=GPa)
#
#
# Indices 1 2 3 4 5 6 
#
# 1 143.2704 57.7671 28.8056 0.0000 0.0000 0.0000
# 2 57.7671 143.2704 28.8056 0.0000 0.0000 0.0000
# 3 28.8056 28.8056 43.6346 0.0000 0.0000 0.0000
# 4 0.0000 0.0000 0.0000 21.4931 0.0000 0.0000
# 5 0.0000 0.0000 0.0000 0.0000 21.4931 0.0000
# 6 0.0000 0.0000 0.0000 0.0000 0.0000 -1.4352
#
#
#
# Elastic Compliance Matrix: (Units=1/GPa)
#
#
# Indices 1 2 3 4 5 6 
#
# 1 0.008915 -0.002780 -0.004050 0.000000 0.000000 0.000000
# 2 -0.002780 0.008915 -0.004050 0.000000 0.000000 0.000000
# 3 -0.004050 -0.004050 0.028265 0.000000 0.000000 0.000000
# 4 0.000000 0.000000 0.000000 0.046527 0.000000 0.000000
# 5 0.000000 0.000000 0.000000 0.000000 0.046527 0.000000
# 6 0.000000 0.000000 0.000000 0.000000 0.000000 -0.696787
#
#
# Mechanical properties :
#
#
# Convention : Reuss Voigt Hill
#
# Bulk Modulus (GPa) = 41.09366 62.32577 51.70971
# Shear Modulus (GPa) = -9.47387 22.63004 6.57809
#
# Velocity S-wave (km/s) = -2.20321 3.40514 1.83587
# Velocity P-wave (km/s) = 3.81878 6.88433 5.56673
#
# Compressibility (1/GPa) = 0.02433466
#
# Stress axis : x y z
#
# Youngs Moduli (GPa) = 112.16914 112.16914 35.37985
#
# Poissons Ratio (x) = 0.31187 0.14328
# Poissons Ratio (y) = 0.31187 0.14328
# Poissons Ratio (z) = 0.45427 0.45427
#
# Static dielectric constant tensor:
#      x y z
#    x 3.682010 0.000000 0.000000 
#    y 0.000000 3.682010 0.000000 
#    z 0.000000 0.000000 -12.944580 
# 
# 
# High freq. dielectric constant tensor:
#      x y z
#    x 1.766540 0.000000 0.000000 
#    y 0.000000 1.766540 0.000000 
#    z 0.000000 0.000000 1.736170 
# 
# From -- ./inp_files/1068.got.cif
#   From: 2010.03.12/outbox.cif.g09.slc.cpg/sg123_1_cif.got.tgz:1068.got - 2010.04.06 16:26:55.
