data_PCOD8312393
_publ_section_title
;
Structure prediction by ZEFSAII (Michael W. Deem and Ramdas Pophale) SiO2 
 PCOD8312393
Probable space group: P 4/M M M
;
_chemical_formula_sum "Si O2"
_cell_formula_units_Z 96
_cell_length_a 17.963144
_cell_length_b 17.963144
_cell_length_c 18.283183
_cell_angle_alpha 90.000000
_cell_angle_beta 90.000000
_cell_angle_gamma 90.000000
_cell_volume 5899.517707
_symmetry_space_group_name_H-M "P 4/M M M"
_symmetry_group_IT_number 123
_symmetry_cell_setting 'tetragonal'
loop_
_space_group_symop_operation_xyz
x,y,z
-y,x,z
-x,-y,z
y,-x,z
x,-y,-z
-x,y,-z
y,x,-z
-y,-x,-z
-x,-y,-z
y,-x,-z
x,y,-z
-y,x,-z
-x,y,z
x,-y,z
-y,-x,z
y,x,z
loop_
_atom_site_type_symbol
_atom_site_label
_atom_site_fract_x
_atom_site_fract_y
_atom_site_fract_z
Si Si1 0.914843 0.203933 0.582767
Si Si2 0.799107 0.917050 0.853649
Si Si3 0.415278 0.913550 0.778216
Si Si4 0.582869 0.582869 0.912964
Si Si5 0.699989 0.300011 0.086991
Si Si6 0.344065 0.136411 0.083267
Si Si7 0.844338 0.273672 0.282916
O O1 0.907206 0.234357 0.500000
O O2 0.876728 0.123273 0.590954
O O3 0.874106 0.262923 0.635011
O O4 0.000000 0.194139 0.605927
O O5 0.864460 0.864460 0.882522
O O6 0.730509 0.912379 0.910316
O O7 0.772683 0.895816 0.772402
O O8 0.830733 0.000000 0.852261
O O9 0.500000 0.897540 0.754289
O O10 0.407908 0.898205 0.865365
O O11 0.361231 0.855557 0.735481
O O12 0.394222 0.000000 0.762009
O O13 0.500000 0.604150 0.885840
O O14 0.641228 0.641228 0.879618
O O15 0.585372 0.585372 0.000000
O O16 0.781739 0.322526 0.114482
O O17 0.699327 0.300674 0.000000
O O18 0.373367 0.137935 0.000000
O O19 0.758774 0.241227 0.276943
#
# Coordination Sequence:
#
# PCOD8312393 Si02
#       7
#    16  16  16   8   8  16  16
#     4   9  16  25  40  65  95 126 159 192 226 264
#     4  10  19  30  45  63  83 111 147 183 222 266
#     4  10  21  34  48  68  91 116 147 186 235 280
#     4   8  14  25  40  58  80 103 124 147 184 239
#     4   9  17  28  45  62  81 106 136 170 208 257
#     4  10  19  32  47  64  84 110 143 181 225 272
#     4   9  17  31  50  67  87 119 156 187 219 264
#
# _framework density 16.272517000000001
#
# number of rings (size 3 to 8) (size 9 to 14) (size 15 to 20)
#    0.000    2.583    0.833    3.250    1.167    2.667 
#    0.000    3.333    0.000    3.500    0.000    3.500 
#    0.000    0.333    0.000    0.000    0.000    0.000 
#
# Total GULP energy -1189866.469652 kJ/mol
# GULP energy per Si atom -12394.442392 kJ/mol
# Density = 1.623548 g / cm^3
# Si number density = 16.272517 Si / 1000 Ang^3
#
#
#
# Elastic Constant Matrix: (Units=GPa)
#
#
# Indices 1 2 3 4 5 6 
#
# 1 94.1486 38.4489 20.7318 0.0000 0.0000 0.0000
# 2 38.4489 94.1487 20.7318 0.0000 0.0000 0.0000
# 3 20.7318 20.7318 53.9430 0.0000 0.0000 0.0000
# 4 0.0000 0.0000 0.0000 12.7269 0.0000 0.0000
# 5 0.0000 0.0000 0.0000 0.0000 12.7269 0.0000
# 6 0.0000 0.0000 0.0000 0.0000 0.0000 23.1945
#
#
#
# Elastic Compliance Matrix: (Units=1/GPa)
#
#
# Indices 1 2 3 4 5 6 
#
# 1 0.013263 -0.004691 -0.003294 0.000000 0.000000 0.000000
# 2 -0.004691 0.013263 -0.003294 0.000000 0.000000 0.000000
# 3 -0.003294 -0.003294 0.021070 0.000000 0.000000 0.000000
# 4 0.000000 0.000000 0.000000 0.078573 0.000000 0.000000
# 5 0.000000 0.000000 0.000000 0.000000 0.078574 0.000000
# 6 0.000000 0.000000 0.000000 0.000000 0.000000 0.043114
#
#
# Mechanical properties :
#
#
# Convention : Reuss Voigt Hill
#
# Bulk Modulus (GPa) = 39.94186 44.67392 42.30789
# Shear Modulus (GPa) = 17.93652 20.55151 19.24402
#
# Velocity S-wave (km/s) = 3.32363 3.55767 3.44264
# Velocity P-wave (km/s) = 6.27117 6.66252 6.46981
#
# Compressibility (1/GPa) = 0.02503639
#
# Stress axis : x y z
#
# Youngs Moduli (GPa) = 75.40005 75.40008 47.46005
#
# Poissons Ratio (x) = 0.35369 0.15635
# Poissons Ratio (y) = 0.35369 0.15635
# Poissons Ratio (z) = 0.24840 0.24840
#
# Static dielectric constant tensor:
#      x y z
#    x 3.076920 0.000000 0.000000 
#    y 0.000000 3.076910 0.000000 
#    z 0.000000 0.000000 2.944090 
# 
# 
# High freq. dielectric constant tensor:
#      x y z
#    x 1.614440 0.000000 0.000000 
#    y 0.000000 1.614440 0.000000 
#    z 0.000000 0.000000 1.597010 
# 
# From -- ./inp_files/6576.got.cif
#   From: 2010.03.12/outbox.cif.g09.slc.cpg/sg123_4_cif.got.tgz:6576.got - 2010.04.06 16:26:55.
