data_PCOD8312343
_publ_section_title
;
Structure prediction by ZEFSAII (Michael W. Deem and Ramdas Pophale) SiO2 
 PCOD8312343
Probable space group: P 4/M M M
;
_chemical_formula_sum "Si O2"
_cell_formula_units_Z 88
_cell_length_a 14.107362
_cell_length_b 14.107362
_cell_length_c 28.212736
_cell_angle_alpha 90.000000
_cell_angle_beta 90.000000
_cell_angle_gamma 90.000000
_cell_volume 5614.832774
_symmetry_space_group_name_H-M "P 4/M M M"
_symmetry_group_IT_number 123
_symmetry_cell_setting 'tetragonal'
loop_
_space_group_symop_operation_xyz
x,y,z
-y,x,z
-x,-y,z
y,-x,z
x,-y,-z
-x,y,-z
y,x,-z
-y,-x,-z
-x,-y,-z
y,-x,-z
x,y,-z
-y,x,-z
-x,y,z
x,-y,z
-y,-x,z
y,x,z
loop_
_atom_site_type_symbol
_atom_site_label
_atom_site_fract_x
_atom_site_fract_y
_atom_site_fract_z
Si Si1 0.887469 0.265664 0.361689
Si Si2 0.112462 0.395246 0.000000
Si Si3 0.887963 0.394522 0.725792
Si Si4 0.736912 0.891000 0.190312
Si Si5 0.738058 0.108833 0.083127
Si Si6 0.394392 0.887577 0.552712
O O1 0.835497 0.164504 0.358428
O O2 0.854008 0.330858 0.318053
O O3 0.851431 0.318592 0.409117
O O4 0.000000 0.246611 0.361369
O O5 0.147512 0.341601 0.952744
O O6 0.157935 0.500000 0.000000
O O7 0.000000 0.402792 0.000000
O O8 0.842787 0.500000 0.722663
O O9 0.855276 0.346140 0.774951
O O10 0.000000 0.403893 0.724194
O O11 0.831958 0.831958 0.199766
O O12 0.699659 0.877622 0.136616
O O13 0.763491 0.000000 0.200826
O O14 0.834822 0.165179 0.074873
O O15 0.762634 0.000000 0.072307
O O16 0.363446 0.854025 0.500000
O O17 0.500000 0.848450 0.564550
O O18 0.398226 0.000000 0.554988
#
# Coordination Sequence:
#
# PCOD8312343 Si02
#       6
#    16   8  16  16  16  16
#     4  10  19  29  42  61  87 118 147 173 203 243
#     4   9  17  28  41  57  79 109 143 177 215 254
#     4   9  17  29  44  60  79 106 141 180 218 249
#     4   9  17  28  42  62  88 116 143 169 199 240
#     4   9  17  28  42  61  86 115 144 172 201 238
#     4   8  14  26  44  63  82 107 141 180 218 249
#
# _framework density 15.672774
#
# number of rings (size 3 to 8) (size 9 to 14) (size 15 to 20)
#    0.000    3.000    0.000    1.909    0.000    3.818 
#    0.000    5.455    0.000    4.909    0.000    2.545 
#    0.000   20.000    0.000   24.000    0.000    2.182 
#
# Total GULP energy -1090803.679089 kJ/mol
# GULP energy per Si atom -12395.496353 kJ/mol
# Density = 1.563710 g / cm^3
# Si number density = 15.672774 Si / 1000 Ang^3
#
#
#
# Elastic Constant Matrix: (Units=GPa)
#
#
# Indices 1 2 3 4 5 6 
#
# 1 71.5232 39.0648 51.8491 0.0000 0.0000 0.0000
# 2 39.0648 71.5232 51.8491 0.0000 0.0000 0.0000
# 3 51.8491 51.8491 126.7667 0.0000 0.0000 0.0000
# 4 0.0000 0.0000 0.0000 21.7290 0.0000 0.0000
# 5 0.0000 0.0000 0.0000 0.0000 21.7290 0.0000
# 6 0.0000 0.0000 0.0000 0.0000 0.0000 4.2238
#
#
#
# Elastic Compliance Matrix: (Units=1/GPa)
#
#
# Indices 1 2 3 4 5 6 
#
# 1 0.022738 -0.008070 -0.006000 0.000000 0.000000 0.000000
# 2 -0.008070 0.022738 -0.006000 0.000000 0.000000 0.000000
# 3 -0.006000 -0.006000 0.012796 0.000000 0.000000 0.000000
# 4 0.000000 0.000000 0.000000 0.046021 0.000000 0.000000
# 5 0.000000 0.000000 0.000000 0.000000 0.046021 0.000000
# 6 0.000000 0.000000 0.000000 0.000000 0.000000 0.236756
#
#
# Mechanical properties :
#
#
# Convention : Reuss Voigt Hill
#
# Bulk Modulus (GPa) = 55.14254 61.70432 58.42343
# Shear Modulus (GPa) = 11.54055 18.00637 14.77346
#
# Velocity S-wave (km/s) = 2.71651 3.39321 3.07354
# Velocity P-wave (km/s) = 6.71560 7.40322 7.06778
#
# Compressibility (1/GPa) = 0.01813482
#
# Stress axis : x y z
#
# Youngs Moduli (GPa) = 43.97835 43.97835 78.14792
#
# Poissons Ratio (x) = 0.35491 0.46885
# Poissons Ratio (y) = 0.35491 0.46885
# Poissons Ratio (z) = 0.26385 0.26385
#
# Static dielectric constant tensor:
#      x y z
#    x 2.809430 0.000000 0.000000 
#    y 0.000000 2.809430 0.000000 
#    z 0.000000 0.000000 3.346760 
# 
# 
# High freq. dielectric constant tensor:
#      x y z
#    x 1.568440 0.000000 0.000000 
#    y 0.000000 1.568440 0.000000 
#    z 0.000000 0.000000 1.624090 
# 
# From -- ./inp_files/8511.got.cif
#   From: 2010.03.12/outbox.cif.g09.slc.cpg/sg123_5_cif.got.tgz:8511.got - 2010.04.06 16:26:55.
