data_PCOD8312340
_publ_section_title
;
Structure prediction by ZEFSAII (Michael W. Deem and Ramdas Pophale) SiO2 
 PCOD8312340
Probable space group: P 4/M M M
;
_chemical_formula_sum "Si O2"
_cell_formula_units_Z 88
_cell_length_a 14.256501
_cell_length_b 14.256501
_cell_length_c 28.108203
_cell_angle_alpha 90.000000
_cell_angle_beta 90.000000
_cell_angle_gamma 90.000000
_cell_volume 5712.931005
_symmetry_space_group_name_H-M "P 4/M M M"
_symmetry_group_IT_number 123
_symmetry_cell_setting 'tetragonal'
loop_
_space_group_symop_operation_xyz
x,y,z
-y,x,z
-x,-y,z
y,-x,z
x,-y,-z
-x,y,-z
y,x,-z
-y,-x,-z
-x,-y,-z
y,-x,-z
x,y,-z
-y,x,-z
-x,y,z
x,-y,z
-y,-x,z
y,x,z
loop_
_atom_site_type_symbol
_atom_site_label
_atom_site_fract_x
_atom_site_fract_y
_atom_site_fract_z
Si Si1 0.395098 0.111139 0.738043
Si Si2 0.603916 0.111346 0.632301
Si Si3 0.390798 0.236238 0.000000
Si Si4 0.107093 0.607492 0.911299
Si Si5 0.110033 0.263093 0.821733
Si Si6 0.742313 0.107643 0.553243
O O1 0.500000 0.151370 0.747842
O O2 0.361024 0.140710 0.685067
O O3 0.320846 0.149051 0.776332
O O4 0.400280 0.000000 0.742482
O O5 0.500000 0.152219 0.623741
O O6 0.670694 0.152703 0.591310
O O7 0.600878 0.000000 0.628060
O O8 0.364558 0.174812 0.045783
O O9 0.500000 0.264169 0.000000
O O10 0.331511 0.331511 0.000000
O O11 0.122949 0.500000 0.895231
O O12 0.131477 0.674058 0.867510
O O13 0.000000 0.621937 0.928249
O O14 0.165499 0.165499 0.825416
O O15 0.000000 0.239144 0.817201
O O16 0.700165 0.119612 0.500000
O O17 0.841219 0.158782 0.557983
O O18 0.762814 0.000000 0.565151
#
# Coordination Sequence:
#
# PCOD8312340 Si02
#       6
#    16  16   8  16  16  16
#     4   8  14  26  43  60  77  99 130 169 209 243
#     4   8  14  25  41  59  77  98 127 166 211 251
#     4  10  19  30  45  65  90 116 139 167 206 255
#     4   9  17  30  48  67  84 105 139 182 220 247
#     4  10  19  29  42  61  86 115 143 170 201 239
#     4   9  17  27  38  54  78 109 142 171 198 233
#
# _framework density 15.403651999999999
#
# number of rings (size 3 to 8) (size 9 to 14) (size 15 to 20)
#    0.000    3.091    0.000    2.455    0.000    4.818 
#    0.000    2.727    0.000    0.000    0.000    5.091 
#    0.000   10.182    0.000   10.000    0.000    5.273 
#
# Total GULP energy -1090727.511944 kJ/mol
# GULP energy per Si atom -12394.630818 kJ/mol
# Density = 1.536859 g / cm^3
# Si number density = 15.403652 Si / 1000 Ang^3
#
#
#
# Elastic Constant Matrix: (Units=GPa)
#
#
# Indices 1 2 3 4 5 6 
#
# 1 65.4094 41.6190 54.8523 0.0000 0.0000 0.0000
# 2 41.6190 65.4094 54.8523 0.0000 0.0000 0.0000
# 3 54.8523 54.8523 124.3555 0.0000 0.0000 0.0000
# 4 0.0000 0.0000 0.0000 18.7056 0.0000 0.0000
# 5 0.0000 0.0000 0.0000 0.0000 18.7056 0.0000
# 6 0.0000 0.0000 0.0000 0.0000 0.0000 16.2268
#
#
#
# Elastic Compliance Matrix: (Units=1/GPa)
#
#
# Indices 1 2 3 4 5 6 
#
# 1 0.029544 -0.012490 -0.007522 0.000000 0.000000 0.000000
# 2 -0.012490 0.029544 -0.007522 0.000000 0.000000 0.000000
# 3 -0.007522 -0.007522 0.014677 0.000000 0.000000 0.000000
# 4 0.000000 0.000000 0.000000 0.053460 0.000000 0.000000
# 5 0.000000 0.000000 0.000000 0.000000 0.053460 0.000000
# 6 0.000000 0.000000 0.000000 0.000000 0.000000 0.061627
#
#
# Mechanical properties :
#
#
# Convention : Reuss Voigt Hill
#
# Bulk Modulus (GPa) = 53.48794 61.98019 57.73406
# Shear Modulus (GPa) = 16.46835 17.65095 17.05965
#
# Velocity S-wave (km/s) = 3.27329 3.38878 3.33153
# Velocity P-wave (km/s) = 7.00610 7.45898 7.23609
#
# Compressibility (1/GPa) = 0.01869580
#
# Stress axis : x y z
#
# Youngs Moduli (GPa) = 33.84810 33.84810 68.13159
#
# Poissons Ratio (x) = 0.42277 0.51250
# Poissons Ratio (y) = 0.42277 0.51250
# Poissons Ratio (z) = 0.25461 0.25461
#
# Static dielectric constant tensor:
#      x y z
#    x 2.768150 0.000000 0.000000 
#    y 0.000000 2.768150 0.000000 
#    z 0.000000 0.000000 3.236180 
# 
# 
# High freq. dielectric constant tensor:
#      x y z
#    x 1.563320 0.000000 0.000000 
#    y 0.000000 1.563320 0.000000 
#    z 0.000000 0.000000 1.608070 
# 
# From -- ./inp_files/8020.got.cif
#   From: 2010.03.12/outbox.cif.g09.slc.cpg/sg123_5_cif.got.tgz:8020.got - 2010.04.06 16:26:55.
