data_PCOD8312338
_publ_section_title
;
Structure prediction by ZEFSAII (Michael W. Deem and Ramdas Pophale) SiO2 
 PCOD8312338
Probable space group: P 4/M M M
;
_chemical_formula_sum "Si O2"
_cell_formula_units_Z 96
_cell_length_a 14.208231
_cell_length_b 14.208231
_cell_length_c 30.829063
_cell_angle_alpha 90.000000
_cell_angle_beta 90.000000
_cell_angle_gamma 90.000000
_cell_volume 6223.580966
_symmetry_space_group_name_H-M "P 4/M M M"
_symmetry_group_IT_number 123
_symmetry_cell_setting 'tetragonal'
loop_
_space_group_symop_operation_xyz
x,y,z
-y,x,z
-x,-y,z
y,-x,z
x,-y,-z
-x,y,-z
y,x,-z
-y,-x,-z
-x,-y,-z
y,-x,-z
x,y,-z
-y,x,-z
-x,y,z
x,-y,z
-y,-x,z
y,x,z
loop_
_atom_site_type_symbol
_atom_site_label
_atom_site_fract_x
_atom_site_fract_y
_atom_site_fract_z
Si Si1 0.758367 0.608001 0.048455
Si Si2 0.765221 0.611970 0.295345
Si Si3 0.895038 0.388920 0.375004
Si Si4 0.104337 0.611801 0.878897
Si Si5 0.894797 0.611439 0.217374
Si Si6 0.238824 0.608194 0.549393
O O1 0.737982 0.500000 0.059232
O O2 0.658846 0.658846 0.052397
O O3 0.829246 0.653402 0.083534
O O4 0.801299 0.620181 0.000000
O O5 0.745161 0.500000 0.295607
O O6 0.665455 0.665455 0.298142
O O7 0.830664 0.644477 0.335186
O O8 0.819272 0.647176 0.252226
O O9 0.905280 0.500000 0.373220
O O10 0.846185 0.357351 0.419970
O O11 0.000000 0.343863 0.372250
O O12 0.102240 0.500000 0.882457
O O13 0.139053 0.642344 0.830825
O O14 0.000000 0.652192 0.886835
O O15 0.900966 0.500000 0.220358
O O16 0.000000 0.651685 0.227010
O O17 0.204529 0.621636 0.500000
O O18 0.265528 0.500000 0.559203
O O19 0.332147 0.667854 0.559256
#
# Coordination Sequence:
#
# PCOD8312338 Si02
#       6
#    16  16  16  16  16  16
#     4   9  17  27  38  54  78 109 142 171 198 232
#     4  10  19  29  42  61  86 115 143 169 198 236
#     4   9  17  29  44  60  79 106 141 180 218 249
#     4   8  14  25  41  59  77  99 130 169 211 249
#     4   8  14  26  43  60  78 102 133 169 207 242
#     4   9  17  28  42  62  89 119 147 172 199 237
#
# _framework density 15.425204000000001
#
# number of rings (size 3 to 8) (size 9 to 14) (size 15 to 20)
#    0.000    3.167    0.000    2.000    0.000    3.833 
#    0.000    5.000    0.000    3.000    0.000    4.667 
#    0.000   16.000    0.000   16.500    0.000    5.500 
#
# Total GULP energy -1189727.024126 kJ/mol
# GULP energy per Si atom -12392.989835 kJ/mol
# Density = 1.539010 g / cm^3
# Si number density = 15.425204 Si / 1000 Ang^3
#
#
#
# Elastic Constant Matrix: (Units=GPa)
#
#
# Indices 1 2 3 4 5 6 
#
# 1 63.6276 34.6110 49.8719 0.0000 0.0000 0.0000
# 2 34.6110 63.6276 49.8719 0.0000 0.0000 0.0000
# 3 49.8719 49.8719 124.9790 0.0000 0.0000 0.0000
# 4 0.0000 0.0000 0.0000 20.7961 0.0000 0.0000
# 5 0.0000 0.0000 0.0000 0.0000 20.7961 0.0000
# 6 0.0000 0.0000 0.0000 0.0000 0.0000 4.0800
#
#
#
# Elastic Compliance Matrix: (Units=1/GPa)
#
#
# Indices 1 2 3 4 5 6 
#
# 1 0.025788 -0.008675 -0.006829 0.000000 0.000000 0.000000
# 2 -0.008675 0.025788 -0.006829 0.000000 0.000000 0.000000
# 3 -0.006829 -0.006829 0.013451 0.000000 0.000000 0.000000
# 4 0.000000 0.000000 0.000000 0.048086 0.000000 0.000000
# 5 0.000000 0.000000 0.000000 0.000000 0.048086 0.000000
# 6 0.000000 0.000000 0.000000 0.000000 0.000000 0.245097
#
#
# Mechanical properties :
#
#
# Convention : Reuss Voigt Hill
#
# Bulk Modulus (GPa) = 49.11170 57.88267 53.49718
# Shear Modulus (GPa) = 10.92304 16.99307 13.95806
#
# Velocity S-wave (km/s) = 2.66396 3.32270 3.01140
# Velocity P-wave (km/s) = 6.43195 7.23372 6.84458
#
# Compressibility (1/GPa) = 0.02036175
#
# Stress axis : x y z
#
# Youngs Moduli (GPa) = 38.77801 38.77801 74.34295
#
# Poissons Ratio (x) = 0.33641 0.50766
# Poissons Ratio (y) = 0.33641 0.50766
# Poissons Ratio (z) = 0.26480 0.26480
#
# Static dielectric constant tensor:
#      x y z
#    x 2.767990 0.000000 0.000000 
#    y 0.000000 2.767990 0.000000 
#    z 0.000000 0.000000 3.338640 
# 
# 
# High freq. dielectric constant tensor:
#      x y z
#    x 1.556920 0.000000 0.000000 
#    y 0.000000 1.556920 0.000000 
#    z 0.000000 0.000000 1.613050 
# 
# From -- ./inp_files/8630.got.cif
#   From: 2010.03.12/outbox.cif.g09.slc.cpg/sg123_5_cif.got.tgz:8630.got - 2010.04.06 16:26:55.
