data_PCOD8312073
_publ_section_title
;
Structure prediction by ZEFSAII (Michael W. Deem and Ramdas Pophale) SiO2 
 PCOD8312073
Probable space group: I -4 2 D
;
_chemical_formula_sum "Si O2"
_cell_formula_units_Z 96
_cell_length_a 14.496523
_cell_length_b 14.496523
_cell_length_c 21.215055
_cell_angle_alpha 90.000000
_cell_angle_beta 90.000000
_cell_angle_gamma 90.000000
_cell_volume 4458.326393
_symmetry_space_group_name_H-M "I -4 2 D"
_symmetry_group_IT_number 122
_symmetry_cell_setting 'tetragonal'
loop_
_space_group_symop_operation_xyz
x,y,z
y,-x,-z
-x,-y,z
-y,x,-z
x,1/2-y,1/4-z
-x,1/2+y,1/4-z
-y,1/2-x,1/4+z
y,1/2+x,1/4+z
1/2+x,1/2+y,1/2+z
1/2+y,1/2-x,1/2-z
1/2-x,1/2-y,1/2+z
1/2-y,1/2+x,1/2-z
1/2+x,-y,3/4-z
1/2-x,y,3/4-z
1/2-y,-x,3/4+z
1/2+y,x,3/4+z
loop_
_atom_site_type_symbol
_atom_site_label
_atom_site_fract_x
_atom_site_fract_y
_atom_site_fract_z
Si Si1 0.630874 0.860959 0.684229
Si Si2 0.500000 0.000000 0.750000
Si Si3 0.555783 0.657506 0.910399
Si Si4 0.004512 0.804033 0.740970
Si Si5 0.420539 0.835403 0.451777
Si Si6 0.167019 0.575846 0.456637
Si Si7 0.386975 0.750000 0.125000
Si Si8 0.500000 0.000000 0.250000
O O1 0.581296 0.950798 0.711757
O O2 0.739705 0.876185 0.679346
O O3 0.581261 0.846954 0.617606
O O4 0.620860 0.766373 0.724632
O O5 0.521305 0.748326 0.946255
O O6 0.489853 0.632344 0.852564
O O7 0.657555 0.675184 0.880357
O O8 0.556808 0.571808 0.957883
O O9 0.079658 0.880243 0.758794
O O10 0.049593 0.742577 0.686851
O O11 0.912198 0.843207 0.709621
O O12 0.470568 0.826532 0.519558
#
# Coordination Sequence:
#
# PCOD8312073 Si02
#       8
#    16   4  16  16  16  16   8   4
#     4  11  26  46  76 102 147 186 242 295 373 429
#     4  12  24  48  74 108 140 192 232 302 356 448
#     4  12  26  45  70 103 144 189 239 298 361 433
#     4  12  27  44  72 102 145 189 241 300 361 435
#     4  12  26  45  73 108 141 192 238 305 361 440
#     4  11  25  48  69 105 141 187 236 301 359 439
#     4  12  26  44  66 102 146 188 242 294 356 442
#     4  12  24  44  66  96 140 192 232 282 368 428
#
# _framework density 21.532743
#
# number of rings (size 3 to 8) (size 9 to 14) (size 15 to 20)
#    0.000    0.333    6.667    1.500    4.667    1.333 
#    0.000    1.667    0.000    0.000    0.000    0.000 
#    0.000    0.000    0.000    0.000    0.000    0.000 
#
# Total GULP energy -595160.174038 kJ/mol
# GULP energy per Si atom -12399.170292 kJ/mol
# Density = 2.148373 g / cm^3
# Si number density = 21.532743 Si / 1000 Ang^3
#
#
#
# Elastic Constant Matrix: (Units=GPa)
#
#
# Indices 1 2 3 4 5 6 
#
# 1 81.4904 -0.5807 15.2353 0.0000 0.0000 0.0000
# 2 -0.5807 81.4904 15.2353 0.0000 0.0000 0.0000
# 3 15.2353 15.2353 83.0682 0.0000 0.0000 0.0000
# 4 0.0000 0.0000 0.0000 34.2238 0.0000 0.0000
# 5 0.0000 0.0000 0.0000 0.0000 34.2238 0.0000
# 6 0.0000 0.0000 0.0000 0.0000 0.0000 23.3548
#
#
#
# Elastic Compliance Matrix: (Units=1/GPa)
#
#
# Indices 1 2 3 4 5 6 
#
# 1 0.012731 0.000546 -0.002435 0.000000 0.000000 0.000000
# 2 0.000546 0.012731 -0.002435 0.000000 0.000000 0.000000
# 3 -0.002435 -0.002435 0.012931 0.000000 0.000000 0.000000
# 4 0.000000 0.000000 0.000000 0.029219 0.000000 0.000000
# 5 0.000000 0.000000 0.000000 0.000000 0.029219 0.000000
# 6 0.000000 0.000000 0.000000 0.000000 0.000000 0.042818
#
#
# Mechanical properties :
#
#
# Convention : Reuss Voigt Hill
#
# Bulk Modulus (GPa) = 33.61972 33.98097 33.80035
# Shear Modulus (GPa) = 31.60316 32.77108 32.18712
#
# Velocity S-wave (km/s) = 3.83519 3.90541 3.87046
# Velocity P-wave (km/s) = 5.93791 6.01262 5.97538
#
# Compressibility (1/GPa) = 0.02974445
#
# Stress axis : x y z
#
# Youngs Moduli (GPa) = 78.55146 78.55146 77.33063
#
# Poissons Ratio (x) = -0.04289 0.18830
# Poissons Ratio (y) = -0.04289 0.18830
# Poissons Ratio (z) = 0.19127 0.19127
#
# Static dielectric constant tensor:
#      x y z
#    x 3.944270 0.000000 0.000000 
#    y 0.000000 3.944270 0.000000 
#    z 0.000000 0.000000 4.080540 
# 
# 
# High freq. dielectric constant tensor:
#      x y z
#    x 1.850010 0.000000 0.000000 
#    y 0.000000 1.850010 0.000000 
#    z 0.000000 0.000000 1.854060 
# 
# From -- ./inp_files/7377.got.cif
#   From: 2010.03.12/outbox.cif.g09.slc.cpg/sg122_4_cif.got.tgz:7377.got - 2010.04.06 16:17:16.
