data_PCOD8312564
_publ_section_title
;
Structure prediction by ZEFSAII (Michael W. Deem and Ramdas Pophale) SiO2 
 PCOD8312564
Probable space group: P 4/M M M
;
_chemical_formula_sum "Si O2"
_cell_formula_units_Z 80
_cell_length_a 17.777506
_cell_length_b 17.777506
_cell_length_c 14.437298
_cell_angle_alpha 90.000000
_cell_angle_beta 90.000000
_cell_angle_gamma 90.000000
_cell_volume 4562.759611
_symmetry_space_group_name_H-M "P 4/M M M"
_symmetry_group_IT_number 123
_symmetry_cell_setting 'tetragonal'
loop_
_space_group_symop_operation_xyz
x,y,z
-y,x,z
-x,-y,z
y,-x,z
x,-y,-z
-x,y,-z
y,x,-z
-y,-x,-z
-x,-y,-z
y,-x,-z
x,y,-z
-y,x,-z
-x,y,z
x,-y,z
-y,-x,z
y,x,z
loop_
_atom_site_type_symbol
_atom_site_label
_atom_site_fract_x
_atom_site_fract_y
_atom_site_fract_z
Si Si1 0.416469 0.783183 0.603504
Si Si2 0.085090 0.208396 0.213478
Si Si3 0.294027 0.585298 0.210632
Si Si4 0.143095 0.735641 0.396964
Si Si5 0.187270 0.313578 0.895792
O O1 0.405858 0.748791 0.500000
O O2 0.500000 0.819897 0.613325
O O3 0.407828 0.717229 0.678771
O O4 0.353458 0.846913 0.620271
O O5 0.134451 0.134451 0.192645
O O6 0.086311 0.229788 0.322280
O O7 0.114336 0.279839 0.155122
O O8 0.000000 0.190329 0.184081
O O9 0.308851 0.500000 0.179508
O O10 0.366494 0.633507 0.180950
O O11 0.218619 0.614170 0.159083
O O12 0.110600 0.751030 0.500000
O O13 0.224909 0.775092 0.384598
O O14 0.251008 0.251008 0.895493
O O15 0.165260 0.337212 0.000000
#
# Coordination Sequence:
#
# PCOD8312564 Si02
#       5
#    16  16  16  16  16
#     4   9  16  26  45  73 102 132 168 211 253 290
#     4  10  20  34  53  78 105 131 161 198 244 300
#     4  10  19  31  49  74 104 137 173 212 253 296
#     4   9  16  28  48  71  98 134 175 213 243 282
#     4   9  18  34  54  73  94 125 168 212 250 291
#
# _framework density 17.533249999999999
#
# number of rings (size 3 to 8) (size 9 to 14) (size 15 to 20)
#    0.000    2.600    2.000    0.600    0.000    2.800 
#    0.000    0.000    0.000    2.400    0.000   15.400 
#    0.000    0.000    0.000    0.000    0.000    0.000 
#
# Total GULP energy -991635.114560 kJ/mol
# GULP energy per Si atom -12395.438932 kJ/mol
# Density = 1.749334 g / cm^3
# Si number density = 17.533250 Si / 1000 Ang^3
#
#
#
# Elastic Constant Matrix: (Units=GPa)
#
#
# Indices 1 2 3 4 5 6 
#
# 1 95.6216 42.3709 33.9229 0.0000 0.0000 0.0000
# 2 42.3709 95.6216 33.9229 0.0000 0.0000 0.0000
# 3 33.9229 33.9229 100.9436 0.0000 0.0000 0.0000
# 4 0.0000 0.0000 0.0000 14.2017 0.0000 0.0000
# 5 0.0000 0.0000 0.0000 0.0000 14.2017 0.0000
# 6 0.0000 0.0000 0.0000 0.0000 0.0000 13.9752
#
#
#
# Elastic Compliance Matrix: (Units=1/GPa)
#
#
# Indices 1 2 3 4 5 6 
#
# 1 0.013730 -0.005049 -0.002917 0.000000 0.000000 0.000000
# 2 -0.005049 0.013730 -0.002917 0.000000 0.000000 0.000000
# 3 -0.002917 -0.002917 0.011867 0.000000 0.000000 0.000000
# 4 0.000000 0.000000 0.000000 0.070414 0.000000 0.000000
# 5 0.000000 0.000000 0.000000 0.000000 0.070414 0.000000
# 6 0.000000 0.000000 0.000000 0.000000 0.000000 0.071555
#
#
# Mechanical properties :
#
#
# Convention : Reuss Voigt Hill
#
# Bulk Modulus (GPa) = 56.94717 56.95780 56.95248
# Shear Modulus (GPa) = 17.89986 20.60707 19.25346
#
# Velocity S-wave (km/s) = 3.19863 3.43200 3.31737
# Velocity P-wave (km/s) = 6.79645 6.94701 6.87214
#
# Compressibility (1/GPa) = 0.01756014
#
# Stress axis : x y z
#
# Youngs Moduli (GPa) = 72.83262 72.83262 84.26499
#
# Poissons Ratio (x) = 0.36773 0.24583
# Poissons Ratio (y) = 0.36773 0.24583
# Poissons Ratio (z) = 0.21248 0.21248
#
# Static dielectric constant tensor:
#      x y z
#    x 3.003580 0.000000 0.000000 
#    y 0.000000 3.003580 0.000000 
#    z 0.000000 0.000000 3.512890 
# 
# 
# High freq. dielectric constant tensor:
#      x y z
#    x 1.648560 0.000000 0.000000 
#    y 0.000000 1.648560 0.000000 
#    z 0.000000 0.000000 1.689870 
# 
# From -- ./inp_files/3899.got.cif
#   From: 2010.03.12/outbox.cif.g09.slc.cpg/sg123_2_cif.got.tgz:3899.got - 2010.04.06 16:26:55.
