data_PCOD8312572
_publ_section_title
;
Structure prediction by ZEFSAII (Michael W. Deem and Ramdas Pophale) SiO2 
 PCOD8312572
Probable space group: P 4/M M M
;
_chemical_formula_sum "Si O2"
_cell_formula_units_Z 96
_cell_length_a 24.165922
_cell_length_b 24.165922
_cell_length_c 9.288287
_cell_angle_alpha 90.000000
_cell_angle_beta 90.000000
_cell_angle_gamma 90.000000
_cell_volume 5424.283315
_symmetry_space_group_name_H-M "P 4/M M M"
_symmetry_group_IT_number 123
_symmetry_cell_setting 'tetragonal'
loop_
_space_group_symop_operation_xyz
x,y,z
-y,x,z
-x,-y,z
y,-x,z
x,-y,-z
-x,y,-z
y,x,-z
-y,-x,-z
-x,-y,-z
y,-x,-z
x,y,-z
-y,x,-z
-x,y,z
x,-y,z
-y,-x,z
y,x,z
loop_
_atom_site_type_symbol
_atom_site_label
_atom_site_fract_x
_atom_site_fract_y
_atom_site_fract_z
Si Si1 0.062178 0.849468 0.831744
Si Si2 0.772668 0.861521 0.667014
Si Si3 0.646480 0.843625 0.669966
Si Si4 0.348630 0.436854 0.662920
Si Si5 0.270455 0.640346 0.169449
Si Si6 0.437585 0.062017 0.329161
O O1 0.095824 0.904177 0.788098
O O2 0.086499 0.796303 0.752609
O O3 0.000000 0.859296 0.779433
O O4 0.065771 0.837484 0.000000
O O5 0.780569 0.873821 0.500000
O O6 0.804768 0.804768 0.710339
O O7 0.708979 0.858701 0.710001
O O8 0.638877 0.834074 0.500000
O O9 0.633610 0.787448 0.751467
O O10 0.605951 0.892288 0.728451
O O11 0.325186 0.430220 0.500000
O O12 0.357021 0.500000 0.705953
O O13 0.408212 0.408212 0.675717
O O14 0.306659 0.410679 0.776300
O O15 0.301785 0.698216 0.208013
O O16 0.261243 0.635227 0.000000
O O17 0.435415 0.061763 0.500000
O O18 0.500000 0.077267 0.277629
O O19 0.421904 0.000000 0.273274
#
# Coordination Sequence:
#
# PCOD8312572 Si02
#       6
#    16  16  16  16  16  16
#     4   9  18  32  49  69  94 125 160 198 240 286
#     4   9  18  31  46  67  96 126 155 194 244 291
#     4  10  19  31  52  78  98 123 163 204 241 288
#     4   9  18  33  53  76 102 133 169 210 254 297
#     4  10  21  35  50  71 102 137 168 202 248 298
#     4   8  15  29  48  71  99 126 153 191 238 285
#
# _framework density 17.698191000000001
#
# number of rings (size 3 to 8) (size 9 to 14) (size 15 to 20)
#    0.000    2.833    0.000    1.500    0.000    4.667 
#    0.000    6.667    0.000    0.500    0.000    5.833 
#    0.000    0.000    0.000    0.000    0.000    0.000 
#
# Total GULP energy -1190151.368682 kJ/mol
# GULP energy per Si atom -12397.410090 kJ/mol
# Density = 1.765791 g / cm^3
# Si number density = 17.698191 Si / 1000 Ang^3
#
#
#
# Elastic Constant Matrix: (Units=GPa)
#
#
# Indices 1 2 3 4 5 6 
#
# 1 362.3590 -137.9179 36.6951 0.0000 0.0000 0.0000
# 2 -137.9179 362.3590 36.6951 0.0000 0.0000 0.0000
# 3 36.6951 36.6951 29.1726 0.0000 0.0000 0.0000
# 4 0.0000 0.0000 0.0000 19.5537 0.0000 0.0000
# 5 0.0000 0.0000 0.0000 0.0000 19.5537 0.0000
# 6 0.0000 0.0000 0.0000 0.0000 0.0000 22.3239
#
#
#
# Elastic Compliance Matrix: (Units=1/GPa)
#
#
# Indices 1 2 3 4 5 6 
#
# 1 0.004784 0.002785 -0.009520 0.000000 0.000000 0.000000
# 2 0.002785 0.004784 -0.009520 0.000000 0.000000 0.000000
# 3 -0.009520 -0.009520 0.058229 0.000000 0.000000 0.000000
# 4 0.000000 0.000000 0.000000 0.051141 0.000000 0.000000
# 5 0.000000 0.000000 0.000000 0.000000 0.051141 0.000000
# 6 0.000000 0.000000 0.000000 0.000000 0.000000 0.044795
#
#
# Mechanical properties :
#
#
# Convention : Reuss Voigt Hill
#
# Bulk Modulus (GPa) = 28.34043 69.42612 48.88328
# Shear Modulus (GPa) = 19.29410 66.84747 43.07078
#
# Velocity S-wave (km/s) = 3.30536 6.15246 4.93853
# Velocity P-wave (km/s) = 5.53310 9.47541 7.75882
#
# Compressibility (1/GPa) = 0.03528527
#
# Stress axis : x y z
#
# Youngs Moduli (GPa) = 209.04307 209.04307 17.17362
#
# Poissons Ratio (x) = -0.58215 0.16350
# Poissons Ratio (y) = -0.58215 0.16350
# Poissons Ratio (z) = 1.99012 1.99012
#
# Static dielectric constant tensor:
#      x y z
#    x 3.426400 0.000000 0.000000 
#    y 0.000000 3.426400 0.000000 
#    z 0.000000 0.000000 3.084080 
# 
# 
# High freq. dielectric constant tensor:
#      x y z
#    x 1.687140 0.000000 0.000000 
#    y 0.000000 1.687140 0.000000 
#    z 0.000000 0.000000 1.661470 
# 
# From -- ./inp_files/1551.got.cif
#   From: 2010.03.12/outbox.cif.g09.slc.cpg/sg123_1_cif.got.tgz:1551.got - 2010.04.06 16:26:55.
