data_PCOD8312524
_publ_section_title
;
Structure prediction by ZEFSAII (Michael W. Deem and Ramdas Pophale) SiO2 
 PCOD8312524
Probable space group: P 4/M M M
;
_chemical_formula_sum "Si O2"
_cell_formula_units_Z 80
_cell_length_a 12.748662
_cell_length_b 12.748662
_cell_length_c 28.768352
_cell_angle_alpha 90.000000
_cell_angle_beta 90.000000
_cell_angle_gamma 90.000000
_cell_volume 4675.673726
_symmetry_space_group_name_H-M "P 4/M M M"
_symmetry_group_IT_number 123
_symmetry_cell_setting 'tetragonal'
loop_
_space_group_symop_operation_xyz
x,y,z
-y,x,z
-x,-y,z
y,-x,z
x,-y,-z
-x,y,-z
y,x,-z
-y,-x,-z
-x,-y,-z
y,-x,-z
x,y,-z
-y,x,-z
-x,y,z
x,-y,z
-y,-x,z
y,x,z
loop_
_atom_site_type_symbol
_atom_site_label
_atom_site_fract_x
_atom_site_fract_y
_atom_site_fract_z
Si Si1 0.120631 0.713979 0.050637
Si Si2 0.122885 0.715980 0.238117
Si Si3 0.386246 0.875832 0.143381
Si Si4 0.380810 0.208070 0.673355
Si Si5 0.830478 0.000000 0.445038
Si Si6 0.000000 0.378345 0.386353
O O1 0.172525 0.827476 0.049871
O O2 0.169944 0.648331 0.093225
O O3 0.000000 0.735158 0.060410
O O4 0.137697 0.657665 0.000000
O O5 0.168010 0.831991 0.248673
O O6 0.156047 0.689068 0.185474
O O7 0.176722 0.633120 0.272723
O O8 0.000000 0.716413 0.246392
O O9 0.500000 0.828112 0.154320
O O10 0.392911 0.000000 0.139861
O O11 0.500000 0.247820 0.666047
O O12 0.301258 0.301258 0.658428
O O13 0.358440 0.104186 0.643552
O O14 0.711381 0.000000 0.425776
O O15 0.896163 0.896163 0.429182
O O16 0.819268 0.000000 0.500000
O O17 0.000000 0.500000 0.405516
#
# Coordination Sequence:
#
# PCOD8312524 Si02
#       6
#    16  16  16  16   8   8
#     4   9  17  28  41  59  83 108 136 172 215 268
#     4  10  19  31  47  67  94 125 158 196 237 287
#     4   9  17  28  43  60  79 109 146 182 223 271
#     4  10  20  33  50  72  99 133 171 212 255 298
#     4   9  18  33  53  77 107 142 177 214 256 304
#     4  10  19  32  52  76 105 136 172 218 260 304
#
# _framework density 17.109833999999999
#
# number of rings (size 3 to 8) (size 9 to 14) (size 15 to 20)
#    0.000    2.500    1.000    2.100    0.000    2.000 
#    0.000    3.000    0.000    3.600    0.000    0.000 
#    0.000    3.600    0.000   27.400    0.000    0.800 
#
# Total GULP energy -991137.522953 kJ/mol
# GULP energy per Si atom -12389.219037 kJ/mol
# Density = 1.707089 g / cm^3
# Si number density = 17.109834 Si / 1000 Ang^3
#
#
#
# Elastic Constant Matrix: (Units=GPa)
#
#
# Indices 1 2 3 4 5 6 
#
# 1 90.0366 55.0573 31.3229 0.0000 0.0000 0.0000
# 2 55.0573 90.0366 31.3229 0.0000 0.0000 0.0000
# 3 31.3229 31.3229 68.9753 0.0000 0.0000 0.0000
# 4 0.0000 0.0000 0.0000 22.4661 0.0000 0.0000
# 5 0.0000 0.0000 0.0000 0.0000 22.4661 0.0000
# 6 0.0000 0.0000 0.0000 0.0000 0.0000 18.1330
#
#
#
# Elastic Compliance Matrix: (Units=1/GPa)
#
#
# Indices 1 2 3 4 5 6 
#
# 1 0.018581 -0.010008 -0.003893 0.000000 0.000000 0.000000
# 2 -0.010008 0.018581 -0.003893 0.000000 0.000000 0.000000
# 3 -0.003893 -0.003893 0.018034 0.000000 0.000000 0.000000
# 4 0.000000 0.000000 0.000000 0.044511 0.000000 0.000000
# 5 0.000000 0.000000 0.000000 0.000000 0.044511 0.000000
# 6 0.000000 0.000000 0.000000 0.000000 0.000000 0.055148
#
#
# Mechanical properties :
#
#
# Convention : Reuss Voigt Hill
#
# Bulk Modulus (GPa) = 51.00156 53.82829 52.41493
# Shear Modulus (GPa) = 20.70481 21.36941 21.03711
#
# Velocity S-wave (km/s) = 3.48244 3.53789 3.51027
# Velocity P-wave (km/s) = 6.78549 6.94389 6.86515
#
# Compressibility (1/GPa) = 0.01960724
#
# Stress axis : x y z
#
# Youngs Moduli (GPa) = 53.81944 53.81944 55.45128
#
# Poissons Ratio (x) = 0.53861 0.21588
# Poissons Ratio (y) = 0.53861 0.21588
# Poissons Ratio (z) = 0.20953 0.20953
#
# Static dielectric constant tensor:
#      x y z
#    x 3.131900 0.000000 0.000000 
#    y 0.000000 3.131900 0.000000 
#    z 0.000000 0.000000 3.272050 
# 
# 
# High freq. dielectric constant tensor:
#      x y z
#    x 1.645610 0.000000 0.000000 
#    y 0.000000 1.645610 0.000000 
#    z 0.000000 0.000000 1.661070 
# 
# From -- ./inp_files/8354.got.cif
#   From: 2010.03.12/outbox.cif.g09.slc.cpg/sg123_5_cif.got.tgz:8354.got - 2010.04.06 16:26:55.
