data_PCOD8312690
_publ_section_title
;
Structure prediction by ZEFSAII (Michael W. Deem and Ramdas Pophale) SiO2 
 PCOD8312690
Probable space group: P 4/M M M
;
_chemical_formula_sum "Si O2"
_cell_formula_units_Z 88
_cell_length_a 13.442975
_cell_length_b 13.442975
_cell_length_c 28.096818
_cell_angle_alpha 90.000000
_cell_angle_beta 90.000000
_cell_angle_gamma 90.000000
_cell_volume 5077.476479
_symmetry_space_group_name_H-M "P 4/M M M"
_symmetry_group_IT_number 123
_symmetry_cell_setting 'tetragonal'
loop_
_space_group_symop_operation_xyz
x,y,z
-y,x,z
-x,-y,z
y,-x,z
x,-y,-z
-x,y,-z
y,x,-z
-y,-x,-z
-x,-y,-z
y,-x,-z
x,y,-z
-y,x,-z
-x,y,z
x,-y,z
-y,-x,z
y,x,z
loop_
_atom_site_type_symbol
_atom_site_label
_atom_site_fract_x
_atom_site_fract_y
_atom_site_fract_z
Si Si1 0.275156 0.883570 0.355863
Si Si2 0.882050 0.610954 0.552386
Si Si3 0.883403 0.276860 0.916391
Si Si4 0.886067 0.386240 0.180009
Si Si5 0.223239 0.615892 0.275959
Si Si6 0.383843 0.779777 0.000000
O O1 0.171662 0.828339 0.345100
O O2 0.316582 0.843137 0.406363
O O3 0.355356 0.859021 0.315146
O O4 0.252973 0.000000 0.356441
O O5 0.849302 0.650614 0.500000
O O6 0.838571 0.500000 0.560331
O O7 0.000000 0.605439 0.555478
O O8 0.828002 0.171999 0.924368
O O9 0.858042 0.316853 0.864090
O O10 0.000000 0.258747 0.923866
O O11 0.844967 0.357932 0.953827
O O12 0.866714 0.500000 0.164974
O O13 0.818292 0.355218 0.224268
O O14 0.000000 0.370759 0.195320
O O15 0.247074 0.500000 0.279999
O O16 0.325188 0.674813 0.285274
O O17 0.500000 0.753893 0.000000
O O18 0.323945 0.676056 0.000000
#
# Coordination Sequence:
#
# PCOD8312690 Si02
#       6
#    16  16  16  16  16   8
#     4  10  20  32  47  68  94 125 161 200 241 286
#     4   8  14  26  45  67  89 115 150 192 234 274
#     4  10  20  33  50  73 101 133 168 204 240 279
#     4   9  17  30  50  74  97 124 160 200 240 283
#     4  10  20  33  50  72  97 125 158 197 241 289
#     4  10  21  36  54  76 100 126 159 200 246 296
#
# _framework density 17.331444000000001
#
# number of rings (size 3 to 8) (size 9 to 14) (size 15 to 20)
#    0.000    2.545    0.000    3.000    0.000    4.273 
#    0.000    0.000    0.000    1.636    0.000    7.636 
#    0.000    0.000    0.000   16.909    0.000    0.909 
#
# Total GULP energy -1091147.736287 kJ/mol
# GULP energy per Si atom -12399.406094 kJ/mol
# Density = 1.729200 g / cm^3
# Si number density = 17.331444 Si / 1000 Ang^3
#
#
#
# Elastic Constant Matrix: (Units=GPa)
#
#
# Indices 1 2 3 4 5 6 
#
# 1 86.9002 40.1715 44.7854 0.0000 0.0000 0.0000
# 2 40.1715 86.8996 44.7853 0.0000 0.0000 0.0000
# 3 44.7854 44.7853 106.9593 0.0000 0.0000 0.0000
# 4 0.0000 0.0000 0.0000 24.7968 0.0000 0.0000
# 5 0.0000 0.0000 0.0000 0.0000 24.7966 0.0000
# 6 0.0000 0.0000 0.0000 0.0000 0.0000 16.4044
#
#
#
# Elastic Compliance Matrix: (Units=1/GPa)
#
#
# Indices 1 2 3 4 5 6 
#
# 1 0.016282 -0.005118 -0.004675 0.000000 0.000000 0.000000
# 2 -0.005118 0.016283 -0.004675 0.000000 0.000000 0.000000
# 3 -0.004675 -0.004675 0.013264 0.000000 0.000000 0.000000
# 4 0.000000 0.000000 0.000000 0.040328 0.000000 0.000000
# 5 0.000000 0.000000 0.000000 0.000000 0.040328 0.000000
# 6 0.000000 0.000000 0.000000 0.000000 0.000000 0.060959
#
#
# Mechanical properties :
#
#
# Convention : Reuss Voigt Hill
#
# Bulk Modulus (GPa) = 59.19119 60.02704 59.60912
# Shear Modulus (GPa) = 22.52140 23.26734 22.89437
#
# Velocity S-wave (km/s) = 3.60870 3.66798 3.63846
# Velocity P-wave (km/s) = 7.18264 7.25594 7.21938
#
# Compressibility (1/GPa) = 0.01689440
#
# Stress axis : x y z
#
# Youngs Moduli (GPa) = 61.41565 61.41522 75.39080
#
# Poissons Ratio (x) = 0.31431 0.35244
# Poissons Ratio (y) = 0.31431 0.35244
# Poissons Ratio (z) = 0.28711 0.28711
#
# Static dielectric constant tensor:
#      x y z
#    x 3.015020 0.000000 0.000000 
#    y 0.000000 3.015020 0.000000 
#    z 0.000000 0.000000 3.475820 
# 
# 
# High freq. dielectric constant tensor:
#      x y z
#    x 1.655040 0.000000 0.000000 
#    y 0.000000 1.655040 0.000000 
#    z 0.000000 0.000000 1.688070 
# 
# From -- ./inp_files/7156.got.cif
#   From: 2010.03.12/outbox.cif.g09.slc.cpg/sg123_4_cif.got.tgz:7156.got - 2010.04.06 16:26:55.
