data_PCOD8312143
_publ_section_title
;
Structure prediction by ZEFSAII (Michael W. Deem and Ramdas Pophale) SiO2 
 PCOD8312143
Probable space group: P 4/M M M
;
_chemical_formula_sum "Si O2"
_cell_formula_units_Z 112
_cell_length_a 20.430781
_cell_length_b 20.430781
_cell_length_c 18.953858
_cell_angle_alpha 90.000000
_cell_angle_beta 90.000000
_cell_angle_gamma 90.000000
_cell_volume 7911.658987
_symmetry_space_group_name_H-M "P 4/M M M"
_symmetry_group_IT_number 123
_symmetry_cell_setting 'tetragonal'
loop_
_space_group_symop_operation_xyz
x,y,z
-y,x,z
-x,-y,z
y,-x,z
x,-y,-z
-x,y,-z
y,x,-z
-y,-x,-z
-x,-y,-z
y,-x,-z
x,y,-z
-y,x,-z
-x,y,z
x,-y,z
-y,-x,z
y,x,z
loop_
_atom_site_type_symbol
_atom_site_label
_atom_site_fract_x
_atom_site_fract_y
_atom_site_fract_z
Si Si1 0.316972 0.785593 0.917201
Si Si2 0.225335 0.877375 0.832988
Si Si3 0.181427 0.924386 0.419412
Si Si4 0.373825 0.000000 0.921388
Si Si5 0.429455 0.925128 0.287833
Si Si6 0.781229 0.000000 0.919134
Si Si7 0.133842 0.572657 0.858790
Si Si8 0.075987 0.287154 0.690800
O O1 0.287054 0.712947 0.899606
O O2 0.266078 0.839788 0.892171
O O3 0.386014 0.801155 0.879522
O O4 0.326901 0.794296 0.000000
O O5 0.165884 0.834117 0.803175
O O6 0.193605 0.938455 0.873886
O O7 0.272308 0.892714 0.766848
O O8 0.204033 0.914579 0.500000
O O9 0.115916 0.884085 0.402459
O O10 0.240302 0.896856 0.370798
O O11 0.165152 0.000000 0.403631
O O12 0.296478 0.000000 0.918580
O O13 0.397714 0.933757 0.885964
O O14 0.401429 0.000000 0.000000
O O15 0.500000 0.917028 0.329119
O O16 0.429995 0.872798 0.225159
O O17 0.363188 0.910637 0.332470
O O18 0.424992 0.000000 0.259005
O O19 0.808167 0.000000 0.000000
O O20 0.144123 0.500000 0.889850
O O21 0.000000 0.273207 0.699634
#
# Coordination Sequence:
#
# PCOD8312143 Si02
#       8
#    16  16  16   8  16   8  16  16
#     4  10  20  31  40  54  80 110 139 171 205 248
#     4  11  20  30  44  60  76 102 142 179 213 255
#     4   9  18  31  47  68  90 110 135 172 221 269
#     4  11  19  26  35  54  81 103 126 163 206 249
#     4   9  16  26  40  59  84 110 134 164 201 240
#     4  11  20  31  44  56  77 104 137 180 219 256
#     4  11  19  28  41  58  80 106 135 168 209 252
#     4  10  17  29  47  63  82 106 134 168 205 250
#
# _framework density 14.156321999999999
#
# number of rings (size 3 to 8) (size 9 to 14) (size 15 to 20)
#    0.000    1.857    4.286    1.500    0.000    2.429 
#    0.000    0.714    0.000    0.643    0.000    3.500 
#    0.000    0.286    0.000    1.571    0.000    0.000 
#
# Total GULP energy -1387685.565743 kJ/mol
# GULP energy per Si atom -12390.049694 kJ/mol
# Density = 1.412410 g / cm^3
# Si number density = 14.156322 Si / 1000 Ang^3
#
#
#
# Elastic Constant Matrix: (Units=GPa)
#
#
# Indices 1 2 3 4 5 6 
#
# 1 68.2973 31.0903 20.0516 0.0000 0.0000 0.0000
# 2 31.0903 68.2973 20.0516 0.0000 0.0000 0.0000
# 3 20.0516 20.0516 41.4487 0.0000 0.0000 0.0000
# 4 0.0000 0.0000 0.0000 15.7538 0.0000 0.0000
# 5 0.0000 0.0000 0.0000 0.0000 15.7538 0.0000
# 6 0.0000 0.0000 0.0000 0.0000 0.0000 -11.1747
#
#
#
# Elastic Compliance Matrix: (Units=1/GPa)
#
#
# Indices 1 2 3 4 5 6 
#
# 1 0.019689 -0.007187 -0.006048 0.000000 0.000000 0.000000
# 2 -0.007187 0.019689 -0.006048 0.000000 0.000000 0.000000
# 3 -0.006048 -0.006048 0.029978 0.000000 0.000000 0.000000
# 4 0.000000 0.000000 0.000000 0.063477 0.000000 0.000000
# 5 0.000000 0.000000 0.000000 0.000000 0.063477 0.000000
# 6 0.000000 0.000000 0.000000 0.000000 0.000000 -0.089487
#
#
# Mechanical properties :
#
#
# Convention : Reuss Voigt Hill
#
# Bulk Modulus (GPa) = 32.47842 35.60335 34.04089
# Shear Modulus (GPa) = 32.12273 11.18989 21.65631
#
# Velocity S-wave (km/s) = 4.76872 2.81455 3.91551
# Velocity P-wave (km/s) = 7.30160 5.98055 6.67384
#
# Compressibility (1/GPa) = 0.03078968
#
# Stress axis : x y z
#
# Youngs Moduli (GPa) = 50.78886 50.78886 33.35782
#
# Poissons Ratio (x) = 0.36504 0.20175
# Poissons Ratio (y) = 0.36504 0.20175
# Poissons Ratio (z) = 0.30718 0.30718
#
# Static dielectric constant tensor:
#      x y z
#    x 2.894320 0.000000 0.000000 
#    y 0.000000 2.894320 0.000000 
#    z 0.000000 0.000000 2.701270 
# 
# 
# High freq. dielectric constant tensor:
#      x y z
#    x 1.523220 0.000000 0.000000 
#    y 0.000000 1.523220 0.000000 
#    z 0.000000 0.000000 1.521370 
# 
# From -- ./inp_files/6927.got.cif
#   From: 2010.03.12/outbox.cif.g09.slc.cpg/sg123_4_cif.got.tgz:6927.got - 2010.04.06 16:26:55.
