data_PCOD8312983
_publ_section_title
;
Structure prediction by ZEFSAII (Michael W. Deem and Ramdas Pophale) SiO2 
 PCOD8312983
Probable space group: P 4/M M M
;
_chemical_formula_sum "Si O2"
_cell_formula_units_Z 112
_cell_length_a 18.223494
_cell_length_b 18.223494
_cell_length_c 23.499805
_cell_angle_alpha 90.000000
_cell_angle_beta 90.000000
_cell_angle_gamma 90.000000
_cell_volume 7804.184980
_symmetry_space_group_name_H-M "P 4/M M M"
_symmetry_group_IT_number 123
_symmetry_cell_setting 'tetragonal'
loop_
_space_group_symop_operation_xyz
x,y,z
-y,x,z
-x,-y,z
y,-x,z
x,-y,-z
-x,y,-z
y,x,-z
-y,-x,-z
-x,-y,-z
y,-x,-z
x,y,-z
-y,x,-z
-x,y,z
x,-y,z
-y,-x,z
y,x,z
loop_
_atom_site_type_symbol
_atom_site_label
_atom_site_fract_x
_atom_site_fract_y
_atom_site_fract_z
Si Si1 0.798692 0.416386 0.851187
Si Si2 0.828753 0.707288 0.936648
Si Si3 0.085421 0.207447 0.153810
Si Si4 0.082245 0.586827 0.562303
Si Si5 0.083493 0.653014 0.221471
Si Si6 0.585657 0.845831 0.324132
Si Si7 0.702858 0.415918 0.744340
O O1 0.791906 0.500000 0.871671
O O2 0.798024 0.365696 0.906580
O O3 0.874035 0.405324 0.817309
O O4 0.734055 0.395795 0.806809
O O5 0.760584 0.760584 0.939966
O O6 0.894960 0.746992 0.903205
O O7 0.857030 0.687459 0.000000
O O8 0.134237 0.134237 0.160298
O O9 0.103208 0.262044 0.206559
O O10 0.000000 0.184178 0.151522
O O11 0.106742 0.617462 0.500000
O O12 0.080270 0.500000 0.559500
O O13 0.140531 0.611127 0.610692
O O14 0.000000 0.615453 0.576988
O O15 0.100673 0.637038 0.287094
O O16 0.000000 0.638295 0.207070
O O17 0.500000 0.866459 0.315075
O O18 0.599792 0.762333 0.305169
O O19 0.677834 0.500000 0.742683
O O20 0.632550 0.367451 0.730695
#
# Coordination Sequence:
#
# PCOD8312983 Si02
#       7
#    16  16  16  16  16  16  16
#     4   9  17  27  40  59  80 102 128 158 189 223
#     4   9  17  29  44  59  77 103 129 153 187 230
#     4   9  18  31  45  61  79  99 127 162 198 236
#     4   8  13  21  34  54  81 110 136 161 188 220
#     4   9  16  25  38  57  81 106 129 153 184 225
#     4   9  16  24  37  58  81 107 137 164 191 227
#     4   9  17  28  41  57  76  98 128 167 208 246
#
# _framework density 14.351274
#
# number of rings (size 3 to 8) (size 9 to 14) (size 15 to 20)
#    0.000    3.143    0.000    2.571    0.000    6.000 
#    0.000    0.000    0.000    0.429    0.000    6.000 
#    0.000    0.000    0.000   18.857    0.000    0.714 
#
# Total GULP energy -1387999.148903 kJ/mol
# GULP energy per Si atom -12392.849544 kJ/mol
# Density = 1.431861 g / cm^3
# Si number density = 14.351274 Si / 1000 Ang^3
#
#
#
# Elastic Constant Matrix: (Units=GPa)
#
#
# Indices 1 2 3 4 5 6 
#
# 1 65.1543 38.3984 38.8567 0.0000 0.0000 0.0000
# 2 38.3984 65.1543 38.8567 0.0000 0.0000 0.0000
# 3 38.8567 38.8567 105.4383 0.0000 0.0000 0.0000
# 4 0.0000 0.0000 0.0000 14.7380 0.0000 0.0000
# 5 0.0000 0.0000 0.0000 0.0000 14.7380 0.0000
# 6 0.0000 0.0000 0.0000 0.0000 0.0000 20.0859
#
#
#
# Elastic Compliance Matrix: (Units=1/GPa)
#
#
# Indices 1 2 3 4 5 6 
#
# 1 0.025362 -0.012013 -0.004919 0.000000 0.000000 0.000000
# 2 -0.012013 0.025362 -0.004919 0.000000 0.000000 0.000000
# 3 -0.004919 -0.004919 0.013110 0.000000 0.000000 0.000000
# 4 0.000000 0.000000 0.000000 0.067852 0.000000 0.000000
# 5 0.000000 0.000000 0.000000 0.000000 0.067852 0.000000
# 6 0.000000 0.000000 0.000000 0.000000 0.000000 0.049786
#
#
# Mechanical properties :
#
#
# Convention : Reuss Voigt Hill
#
# Bulk Modulus (GPa) = 49.67680 51.99672 50.83676
# Shear Modulus (GPa) = 16.68128 17.88807 17.28468
#
# Velocity S-wave (km/s) = 3.41303 3.53433 3.47421
# Velocity P-wave (km/s) = 7.08673 7.27773 7.18287
#
# Compressibility (1/GPa) = 0.02013012
#
# Stress axis : x y z
#
# Youngs Moduli (GPa) = 39.42934 39.42934 76.27757
#
# Poissons Ratio (x) = 0.47367 0.37524
# Poissons Ratio (y) = 0.47367 0.37524
# Poissons Ratio (z) = 0.19397 0.19397
#
# Static dielectric constant tensor:
#      x y z
#    x 2.664850 0.000000 0.000000 
#    y 0.000000 2.664850 0.000000 
#    z 0.000000 0.000000 3.086310 
# 
# 
# High freq. dielectric constant tensor:
#      x y z
#    x 1.531610 0.000000 0.000000 
#    y 0.000000 1.531610 0.000000 
#    z 0.000000 0.000000 1.541280 
# 
# From -- ./inp_files/7572.got.cif
#   From: 2010.03.12/outbox.cif.g09.slc.cpg/sg123_4_cif.got.tgz:7572.got - 2010.04.06 16:26:55.
