data_PCOD8312048
_publ_section_title
;
Structure prediction by ZEFSAII (Michael W. Deem and Ramdas Pophale) SiO2 
 PCOD8312048
Probable space group: I -4 2 D
;
_chemical_formula_sum "Si O2"
_cell_formula_units_Z 72
_cell_length_a 12.686586
_cell_length_b 12.686586
_cell_length_c 20.740183
_cell_angle_alpha 90.000000
_cell_angle_beta 90.000000
_cell_angle_gamma 90.000000
_cell_volume 3338.121344
_symmetry_space_group_name_H-M "I -4 2 D"
_symmetry_group_IT_number 122
_symmetry_cell_setting 'tetragonal'
loop_
_space_group_symop_operation_xyz
x,y,z
y,-x,-z
-x,-y,z
-y,x,-z
x,1/2-y,1/4-z
-x,1/2+y,1/4-z
-y,1/2-x,1/4+z
y,1/2+x,1/4+z
1/2+x,1/2+y,1/2+z
1/2+y,1/2-x,1/2-z
1/2-x,1/2-y,1/2+z
1/2-y,1/2+x,1/2-z
1/2+x,-y,3/4-z
1/2-x,y,3/4-z
1/2-y,-x,3/4+z
1/2+y,x,3/4+z
loop_
_atom_site_type_symbol
_atom_site_label
_atom_site_fract_x
_atom_site_fract_y
_atom_site_fract_z
Si Si1 0.684124 0.750000 0.125000
Si Si2 0.705987 0.559279 0.555219
Si Si3 0.999074 0.841969 0.086046
Si Si4 0.572419 0.846599 0.240921
Si Si5 0.780418 0.368656 0.111213
O O1 0.748324 0.829440 0.078958
O O2 0.610980 0.820847 0.169765
O O3 0.580675 0.562143 0.572463
O O4 0.710213 0.550189 0.478292
O O5 0.762166 0.456883 0.587476
O O6 0.936529 0.750000 0.125000
O O7 0.093657 0.875393 0.133383
O O8 0.448673 0.866398 0.233490
O O9 0.595352 0.751527 0.289953
O O10 0.737448 0.250000 0.125000
#
# Coordination Sequence:
#
# PCOD8312048 Si02
#       5
#     8  16  16  16  16
#     4  12  24  46  74  98 136 184 234 276 342 418
#     4  12  23  43  70 104 139 185 227 283 350 412
#     4  11  23  40  68 101 142 176 224 289 348 406
#     4  11  26  49  71  98 136 179 231 285 339 406
#     4  11  24  43  69  99 139 180 225 282 342 407
#
# _framework density 21.569018
#
# number of rings (size 3 to 8) (size 9 to 14) (size 15 to 20)
#    0.000    0.667    5.556    3.333    1.556    0.000 
#    0.000    0.000    4.889    0.000    0.000    0.000 
#    0.000    0.000    0.000    0.000    0.000    0.000 
#
# Total GULP energy -446241.851927 kJ/mol
# GULP energy per Si atom -12395.606998 kJ/mol
# Density = 2.151993 g / cm^3
# Si number density = 21.569018 Si / 1000 Ang^3
#
#
#
# Elastic Constant Matrix: (Units=GPa)
#
#
# Indices 1 2 3 4 5 6 
#
# 1 100.5687 28.0626 48.5582 0.0000 0.0000 0.0000
# 2 28.0626 100.5687 48.5582 0.0000 0.0000 0.0000
# 3 48.5582 48.5582 118.8692 0.0000 0.0000 0.0000
# 4 0.0000 0.0000 0.0000 30.8807 0.0000 0.0000
# 5 0.0000 0.0000 0.0000 0.0000 30.8807 0.0000
# 6 0.0000 0.0000 0.0000 0.0000 0.0000 25.5882
#
#
#
# Elastic Compliance Matrix: (Units=1/GPa)
#
#
# Indices 1 2 3 4 5 6 
#
# 1 0.012517 -0.001275 -0.004592 0.000000 0.000000 0.000000
# 2 -0.001275 0.012517 -0.004592 0.000000 0.000000 0.000000
# 3 -0.004592 -0.004592 0.012164 0.000000 0.000000 0.000000
# 4 0.000000 0.000000 0.000000 0.032383 0.000000 0.000000
# 5 0.000000 0.000000 0.000000 0.000000 0.032383 0.000000
# 6 0.000000 0.000000 0.000000 0.000000 0.000000 0.039081
#
#
# Mechanical properties :
#
#
# Convention : Reuss Voigt Hill
#
# Bulk Modulus (GPa) = 61.43078 63.37386 62.40232
# Shear Modulus (GPa) = 29.87064 30.45840 30.16452
#
# Velocity S-wave (km/s) = 3.72544 3.76192 3.74372
# Velocity P-wave (km/s) = 6.85916 6.95090 6.90518
#
# Compressibility (1/GPa) = 0.01627848
#
# Stress axis : x y z
#
# Youngs Moduli (GPa) = 79.89432 79.89432 82.20775
#
# Poissons Ratio (x) = 0.10190 0.37750
# Poissons Ratio (y) = 0.10190 0.37750
# Poissons Ratio (z) = 0.36688 0.36688
#
# Static dielectric constant tensor:
#      x y z
#    x 3.976900 0.000000 0.000000 
#    y 0.000000 3.976900 0.000000 
#    z 0.000000 0.000000 3.832720 
# 
# 
# High freq. dielectric constant tensor:
#      x y z
#    x 1.847000 0.000000 0.000000 
#    y 0.000000 1.847000 0.000000 
#    z 0.000000 0.000000 1.849260 
# 
# From -- ./inp_files/6132.got.cif
#   From: 2010.03.12/outbox.cif.g09.slc.cpg/sg122_4_cif.got.tgz:6132.got - 2010.04.06 16:17:16.
