data_PCOD8312165
_publ_section_title
;
Structure prediction by ZEFSAII (Michael W. Deem and Ramdas Pophale) SiO2 
 PCOD8312165
Probable space group: P 4/M M M
;
_chemical_formula_sum "Si O2"
_cell_formula_units_Z 68
_cell_length_a 12.251314
_cell_length_b 12.251314
_cell_length_c 30.819135
_cell_angle_alpha 90.000000
_cell_angle_beta 90.000000
_cell_angle_gamma 90.000000
_cell_volume 4625.788660
_symmetry_space_group_name_H-M "P 4/M M M"
_symmetry_group_IT_number 123
_symmetry_cell_setting 'tetragonal'
loop_
_space_group_symop_operation_xyz
x,y,z
-y,x,z
-x,-y,z
y,-x,z
x,-y,-z
-x,y,-z
y,x,-z
-y,-x,-z
-x,-y,-z
y,-x,-z
x,y,-z
-y,x,-z
-x,y,z
x,-y,z
-y,-x,z
y,x,z
loop_
_atom_site_type_symbol
_atom_site_label
_atom_site_fract_x
_atom_site_fract_y
_atom_site_fract_z
Si Si1 0.876195 0.299377 0.225622
Si Si2 0.500000 0.683108 0.905496
Si Si3 0.500000 0.676544 0.449092
Si Si4 0.873096 0.500000 0.385180
Si Si5 0.500000 0.321634 0.000000
Si Si6 0.299683 0.875821 0.324139
Si Si7 0.126820 0.500000 0.164230
O O1 0.803320 0.196681 0.212882
O O2 0.854496 0.339196 0.274847
O O3 0.847211 0.396289 0.193512
O O4 0.000000 0.260652 0.219895
O O5 0.392660 0.607341 0.898489
O O6 0.500000 0.787994 0.874871
O O7 0.500000 0.740474 0.953665
O O8 0.392574 0.607427 0.435863
O O9 0.500000 0.699185 0.500000
O O10 0.500000 0.794428 0.426557
O O11 0.844534 0.603633 0.356109
O O12 0.000000 0.500000 0.400166
O O13 0.606755 0.393246 0.000000
O O14 0.195684 0.804317 0.336514
O O15 0.263009 0.000000 0.330490
O O16 0.000000 0.500000 0.148171
#
# Coordination Sequence:
#
# PCOD8312165 Si02
#       7
#    16   8   8   8   4  16   8
#     4   9  17  28  41  57  79 107 138 169 197 228
#     4   9  16  27  44  62  78  99 130 165 198 235
#     4   9  18  32  48  64  82 105 133 165 198 231
#     4  10  18  28  44  64  86 108 130 159 197 243
#     4   7  12  24  41  60  78  96 123 161 200 234
#     4   9  17  28  42  60  81 107 137 167 198 230
#     4  10  18  27  39  57  83 110 132 158 198 242
#
# _framework density 14.700196999999999
#
# number of rings (size 3 to 8) (size 9 to 14) (size 15 to 20)
#    0.000    2.882    0.000    3.176    0.000    3.529 
#    0.000    2.647    0.000    0.000    0.000    9.882 
#    0.000    0.000    0.000   21.882    0.000   70.824 
#
# Total GULP energy -842735.211275 kJ/mol
# GULP energy per Si atom -12393.164872 kJ/mol
# Density = 1.466674 g / cm^3
# Si number density = 14.700197 Si / 1000 Ang^3
#
#
#
# Elastic Constant Matrix: (Units=GPa)
#
#
# Indices 1 2 3 4 5 6 
#
# 1 91.2420 54.1985 59.9109 0.0000 0.0000 0.0000
# 2 54.1985 91.2421 59.9109 0.0000 0.0000 0.0000
# 3 59.9109 59.9109 88.9473 0.0000 0.0000 0.0000
# 4 0.0000 0.0000 0.0000 24.0832 0.0000 0.0000
# 5 0.0000 0.0000 0.0000 0.0000 24.0833 0.0000
# 6 0.0000 0.0000 0.0000 0.0000 0.0000 18.5733
#
#
#
# Elastic Compliance Matrix: (Units=1/GPa)
#
#
# Indices 1 2 3 4 5 6 
#
# 1 0.021222 -0.005774 -0.010405 0.000000 0.000000 0.000000
# 2 -0.005774 0.021222 -0.010405 0.000000 0.000000 0.000000
# 3 -0.010405 -0.010405 0.025259 0.000000 0.000000 0.000000
# 4 0.000000 0.000000 0.000000 0.041523 0.000000 0.000000
# 5 0.000000 0.000000 0.000000 0.000000 0.041523 0.000000
# 6 0.000000 0.000000 0.000000 0.000000 0.000000 0.053841
#
#
# Mechanical properties :
#
#
# Convention : Reuss Voigt Hill
#
# Bulk Modulus (GPa) = 68.79921 68.83022 68.81472
# Shear Modulus (GPa) = 19.04032 19.84203 19.44117
#
# Velocity S-wave (km/s) = 3.60285 3.67792 3.64058
# Velocity P-wave (km/s) = 8.01315 8.05980 8.03651
#
# Compressibility (1/GPa) = 0.01453505
#
# Stress axis : x y z
#
# Youngs Moduli (GPa) = 47.12185 47.12195 39.58950
#
# Poissons Ratio (x) = 0.27207 0.41193
# Poissons Ratio (y) = 0.27207 0.41193
# Poissons Ratio (z) = 0.49030 0.49030
#
# Static dielectric constant tensor:
#      x y z
#    x 2.821740 0.000000 0.000000 
#    y 0.000000 2.821730 0.000000 
#    z 0.000000 0.000000 2.869910 
# 
# 
# High freq. dielectric constant tensor:
#      x y z
#    x 1.558230 0.000000 0.000000 
#    y 0.000000 1.558230 0.000000 
#    z 0.000000 0.000000 1.555450 
# 
# From -- ./inp_files/8304.got.cif
#   From: 2010.03.12/outbox.cif.g09.slc.cpg/sg123_5_cif.got.tgz:8304.got - 2010.04.06 16:26:55.
