data_PCOD8312548
_publ_section_title
;
Structure prediction by ZEFSAII (Michael W. Deem and Ramdas Pophale) SiO2 
 PCOD8312548
Probable space group: P 4/M M M
;
_chemical_formula_sum "Si O2"
_cell_formula_units_Z 112
_cell_length_a 18.453757
_cell_length_b 18.453757
_cell_length_c 19.013794
_cell_angle_alpha 90.000000
_cell_angle_beta 90.000000
_cell_angle_gamma 90.000000
_cell_volume 6474.979225
_symmetry_space_group_name_H-M "P 4/M M M"
_symmetry_group_IT_number 123
_symmetry_cell_setting 'tetragonal'
loop_
_space_group_symop_operation_xyz
x,y,z
-y,x,z
-x,-y,z
y,-x,z
x,-y,-z
-x,y,-z
y,x,-z
-y,-x,-z
-x,-y,-z
y,-x,-z
x,y,-z
-y,x,-z
-x,y,z
x,-y,z
-y,-x,z
y,x,z
loop_
_atom_site_type_symbol
_atom_site_label
_atom_site_fract_x
_atom_site_fract_y
_atom_site_fract_z
Si Si1 0.916958 0.801288 0.856052
Si Si2 0.156501 0.417493 0.790156
Si Si3 0.715724 0.083328 0.274949
Si Si4 0.351438 0.916847 0.079807
Si Si5 0.082258 0.311612 0.575772
Si Si6 0.787317 0.416775 0.422038
Si Si7 0.417265 0.300053 0.712264
O O1 0.868030 0.868030 0.881959
O O2 0.887345 0.776122 0.778892
O O3 0.907541 0.734612 0.909462
O O4 0.000000 0.828290 0.853502
O O5 0.131197 0.500000 0.775424
O O6 0.117965 0.363325 0.735977
O O7 0.137360 0.396052 0.870235
O O8 0.242454 0.410549 0.775929
O O9 0.740451 0.096227 0.356372
O O10 0.705638 0.000000 0.255193
O O11 0.373551 0.000000 0.096432
O O12 0.370774 0.896247 0.000000
O O13 0.094194 0.270970 0.500000
O O14 0.135072 0.379172 0.581245
O O15 0.000000 0.341116 0.580347
O O16 0.752364 0.405392 0.500000
O O17 0.803626 0.500000 0.405977
O O18 0.733552 0.387808 0.361582
O O19 0.500000 0.326370 0.703583
O O20 0.368912 0.368912 0.732042
#
# Coordination Sequence:
#
# PCOD8312548 Si02
#       7
#    16  16  16  16  16  16  16
#     4   9  18  32  50  71  95 125 161 201 242 283
#     4  10  19  31  48  74 100 125 159 194 229 272
#     4   9  17  29  44  66  97 131 162 193 234 280
#     4   9  19  35  52  73 104 138 165 187 220 270
#     4   9  16  26  41  63  95 133 167 196 227 271
#     4   9  17  30  46  66  94 125 159 201 245 285
#     4  10  21  36  52  70  92 121 159 206 258 305
#
# _framework density 17.297352
#
# number of rings (size 3 to 8) (size 9 to 14) (size 15 to 20)
#    0.000    2.714    1.429    1.286    0.000    4.857 
#    0.000    3.571    0.000    0.429    0.000    4.000 
#    0.000    0.000    0.000    8.714    0.000    0.000 
#
# Total GULP energy -1387687.840384 kJ/mol
# GULP energy per Si atom -12390.070003 kJ/mol
# Density = 1.725798 g / cm^3
# Si number density = 17.297352 Si / 1000 Ang^3
#
#
#
# Elastic Constant Matrix: (Units=GPa)
#
#
# Indices 1 2 3 4 5 6 
#
# 1 57.8246 35.3905 19.5291 0.0000 0.0000 0.0000
# 2 35.3905 57.8246 19.5291 0.0000 0.0000 0.0000
# 3 19.5291 19.5291 118.2011 0.0000 0.0000 0.0000
# 4 0.0000 0.0000 0.0000 14.7878 0.0000 0.0000
# 5 0.0000 0.0000 0.0000 0.0000 14.7878 0.0000
# 6 0.0000 0.0000 0.0000 0.0000 0.0000 26.4577
#
#
#
# Elastic Compliance Matrix: (Units=1/GPa)
#
#
# Indices 1 2 3 4 5 6 
#
# 1 0.028050 -0.016525 -0.001904 0.000000 0.000000 0.000000
# 2 -0.016525 0.028050 -0.001904 0.000000 0.000000 0.000000
# 3 -0.001904 -0.001904 0.009089 0.000000 0.000000 0.000000
# 4 0.000000 0.000000 0.000000 0.067623 0.000000 0.000000
# 5 0.000000 0.000000 0.000000 0.000000 0.067623 0.000000
# 6 0.000000 0.000000 0.000000 0.000000 0.000000 0.037796
#
#
# Mechanical properties :
#
#
# Convention : Reuss Voigt Hill
#
# Bulk Modulus (GPa) = 40.77663 42.52754 41.65209
# Shear Modulus (GPa) = 17.41714 21.83344 19.62529
#
# Velocity S-wave (km/s) = 3.17665 3.55666 3.37201
# Velocity P-wave (km/s) = 6.08933 6.44251 6.26841
#
# Compressibility (1/GPa) = 0.02452385
#
# Stress axis : x y z
#
# Youngs Moduli (GPa) = 35.65019 35.65019 110.01816
#
# Poissons Ratio (x) = 0.58910 0.20951
# Poissons Ratio (y) = 0.58910 0.20951
# Poissons Ratio (z) = 0.06789 0.06789
#
# Static dielectric constant tensor:
#      x y z
#    x 2.953640 0.000000 0.000000 
#    y 0.000000 2.953640 0.000000 
#    z 0.000000 0.000000 3.557120 
# 
# 
# High freq. dielectric constant tensor:
#      x y z
#    x 1.641130 0.000000 0.000000 
#    y 0.000000 1.641130 0.000000 
#    z 0.000000 0.000000 1.679870 
# 
# From -- ./inp_files/6641.got.cif
#   From: 2010.03.12/outbox.cif.g09.slc.cpg/sg123_4_cif.got.tgz:6641.got - 2010.04.06 16:26:55.
