data_PCOD8312325
_publ_section_title
;
Structure prediction by ZEFSAII (Michael W. Deem and Ramdas Pophale) SiO2 
 PCOD8312325
Probable space group: P 4/M M M
;
_chemical_formula_sum "Si O2"
_cell_formula_units_Z 72
_cell_length_a 14.257250
_cell_length_b 14.257250
_cell_length_c 23.257010
_cell_angle_alpha 90.000000
_cell_angle_beta 90.000000
_cell_angle_gamma 90.000000
_cell_volume 4727.433295
_symmetry_space_group_name_H-M "P 4/M M M"
_symmetry_group_IT_number 123
_symmetry_cell_setting 'tetragonal'
loop_
_space_group_symop_operation_xyz
x,y,z
-y,x,z
-x,-y,z
y,-x,z
x,-y,-z
-x,y,-z
y,x,-z
-y,-x,-z
-x,-y,-z
y,-x,-z
x,y,-z
-y,x,-z
-x,y,z
x,-y,z
-y,-x,z
y,x,z
loop_
_atom_site_type_symbol
_atom_site_label
_atom_site_fract_x
_atom_site_fract_y
_atom_site_fract_z
Si Si1 0.112146 0.394788 0.123434
Si Si2 0.610989 0.102344 0.000000
Si Si3 0.889171 0.736330 0.226688
Si Si4 0.108353 0.392788 0.333320
Si Si5 0.758653 0.392520 0.564608
O O1 0.148018 0.500000 0.138826
O O2 0.153041 0.361676 0.060519
O O3 0.145939 0.321606 0.171222
O O4 0.000000 0.396734 0.120467
O O5 0.500000 0.089744 0.000000
O O6 0.659435 0.000000 0.000000
O O7 0.834962 0.834962 0.228985
O O8 0.861220 0.674423 0.281617
O O9 0.000000 0.757526 0.224587
O O10 0.131285 0.500000 0.315601
O O11 0.161309 0.361665 0.391015
O O12 0.000000 0.380677 0.347668
O O13 0.796710 0.374132 0.500000
O O14 0.730331 0.500000 0.573331
O O15 0.665291 0.334710 0.577366
#
# Coordination Sequence:
#
# PCOD8312325 Si02
#       5
#    16   8  16  16  16
#     4   8  13  23  40  60  79  98 124 161 203 240
#     4   7  10  18  35  58  79  97 119 153 199 243
#     4  10  19  29  41  57  79 108 139 168 198 235
#     4   9  17  29  45  63  80  99 128 169 213 248
#     4   9  17  28  42  61  85 111 135 158 187 229
#
# _framework density 15.230251000000001
#
# number of rings (size 3 to 8) (size 9 to 14) (size 15 to 20)
#    0.000    3.222    0.000    2.667    0.000    3.556 
#    0.000    3.889    0.000    0.000    0.000    0.000 
#    0.000    8.444    0.000   20.667    0.000   25.333 
#
# Total GULP energy -892129.825678 kJ/mol
# GULP energy per Si atom -12390.692023 kJ/mol
# Density = 1.519559 g / cm^3
# Si number density = 15.230251 Si / 1000 Ang^3
#
#
#
# Elastic Constant Matrix: (Units=GPa)
#
#
# Indices 1 2 3 4 5 6 
#
# 1 54.9484 37.0948 53.5588 0.0000 0.0000 0.0000
# 2 37.0948 54.9484 53.5588 0.0000 0.0000 0.0000
# 3 53.5588 53.5588 139.2321 0.0000 0.0000 0.0000
# 4 0.0000 0.0000 0.0000 15.1515 0.0000 0.0000
# 5 0.0000 0.0000 0.0000 0.0000 15.1515 0.0000
# 6 0.0000 0.0000 0.0000 0.0000 0.0000 19.6116
#
#
#
# Elastic Compliance Matrix: (Units=1/GPa)
#
#
# Indices 1 2 3 4 5 6 
#
# 1 0.037841 -0.018170 -0.007567 0.000000 0.000000 0.000000
# 2 -0.018170 0.037841 -0.007567 0.000000 0.000000 0.000000
# 3 -0.007567 -0.007567 0.013004 0.000000 0.000000 0.000000
# 4 0.000000 0.000000 0.000000 0.066000 0.000000 0.000000
# 5 0.000000 0.000000 0.000000 0.000000 0.066000 0.000000
# 6 0.000000 0.000000 0.000000 0.000000 0.000000 0.050990
#
#
# Mechanical properties :
#
#
# Convention : Reuss Voigt Hill
#
# Bulk Modulus (GPa) = 45.29457 59.72819 52.51138
# Shear Modulus (GPa) = 14.46585 16.97736 15.72161
#
# Velocity S-wave (km/s) = 3.08524 3.34235 3.21637
# Velocity P-wave (km/s) = 6.51890 7.36187 6.95317
#
# Compressibility (1/GPa) = 0.02207770
#
# Stress axis : x y z
#
# Youngs Moduli (GPa) = 26.42658 26.42658 76.90170
#
# Poissons Ratio (x) = 0.48018 0.58189
# Poissons Ratio (y) = 0.48018 0.58189
# Poissons Ratio (z) = 0.19996 0.19996
#
# Static dielectric constant tensor:
#      x y z
#    x 2.660550 0.000000 0.000000 
#    y 0.000000 2.660550 0.000000 
#    z 0.000000 0.000000 3.371650 
# 
# 
# High freq. dielectric constant tensor:
#      x y z
#    x 1.552150 0.000000 0.000000 
#    y 0.000000 1.552150 0.000000 
#    z 0.000000 0.000000 1.605970 
# 
# From -- ./inp_files/6272.got.cif
#   From: 2010.03.12/outbox.cif.g09.slc.cpg/sg123_4_cif.got.tgz:6272.got - 2010.04.06 16:26:55.
