data_PCOD8312550
_publ_section_title
;
Structure prediction by ZEFSAII (Michael W. Deem and Ramdas Pophale) SiO2 
 PCOD8312550
Probable space group: P 4/M M M
;
_chemical_formula_sum "Si O2"
_cell_formula_units_Z 80
_cell_length_a 22.692584
_cell_length_b 22.692584
_cell_length_c 9.616677
_cell_angle_alpha 90.000000
_cell_angle_beta 90.000000
_cell_angle_gamma 90.000000
_cell_volume 4952.140216
_symmetry_space_group_name_H-M "P 4/M M M"
_symmetry_group_IT_number 123
_symmetry_cell_setting 'tetragonal'
loop_
_space_group_symop_operation_xyz
x,y,z
-y,x,z
-x,-y,z
y,-x,z
x,-y,-z
-x,y,-z
y,x,-z
-y,-x,-z
-x,-y,-z
y,-x,-z
x,y,-z
-y,x,-z
-x,y,z
x,-y,z
-y,-x,z
y,x,z
loop_
_atom_site_type_symbol
_atom_site_label
_atom_site_fract_x
_atom_site_fract_y
_atom_site_fract_z
Si Si1 0.063939 0.674829 0.159825
Si Si2 0.716970 0.189192 0.162471
Si Si3 0.596367 0.500000 0.848604
Si Si4 0.391749 0.220826 0.657779
Si Si5 0.433477 0.909986 0.656851
Si Si6 0.704478 0.500000 0.335253
O O1 0.119224 0.716699 0.205405
O O2 0.059978 0.614067 0.243943
O O3 0.000000 0.707131 0.181459
O O4 0.072768 0.657245 0.000000
O O5 0.780215 0.219786 0.198125
O O6 0.666072 0.222787 0.246411
O O7 0.703111 0.196376 0.000000
O O8 0.557856 0.557856 0.835601
O O9 0.638987 0.500000 0.718894
O O10 0.628493 0.500000 0.000000
O O11 0.372320 0.236237 0.500000
O O12 0.425308 0.159430 0.662477
O O13 0.439662 0.265993 0.719314
O O14 0.423303 0.933126 0.500000
O O15 0.500000 0.925791 0.705478
O O16 0.706956 0.500000 0.500000
#
# Coordination Sequence:
#
# PCOD8312550 Si02
#       6
#    16  16   8  16  16   8
#     4   9  18  31  45  63  88 116 146 182 221 259
#     4   9  18  32  48  66  89 117 149 184 220 261
#     4   9  20  38  52  60  76 103 133 169 218 274
#     4   9  17  30  46  65  90 117 144 176 215 257
#     4   9  16  28  45  62  85 118 151 179 209 248
#     4  10  19  31  49  70  89 109 138 178 220 263
#
# _framework density 16.154630999999998
#
# number of rings (size 3 to 8) (size 9 to 14) (size 15 to 20)
#    0.000    2.900    1.000    0.300    0.000    3.600 
#    0.000    6.500    0.000    0.000    0.000    0.000 
#    0.000    0.400    0.000    5.600    0.000    0.000 
#
# Total GULP energy -991244.634521 kJ/mol
# GULP energy per Si atom -12390.557932 kJ/mol
# Density = 1.611786 g / cm^3
# Si number density = 16.154631 Si / 1000 Ang^3
#
#
#
# Elastic Constant Matrix: (Units=GPa)
#
#
# Indices 1 2 3 4 5 6 
#
# 1 97.4842 54.3208 30.7408 0.0000 0.0000 0.0000
# 2 54.3208 97.4842 30.7408 0.0000 0.0000 0.0000
# 3 30.7408 30.7408 36.2149 0.0000 0.0000 0.0000
# 4 0.0000 0.0000 0.0000 15.9802 0.0000 0.0000
# 5 0.0000 0.0000 0.0000 0.0000 15.9802 0.0000
# 6 0.0000 0.0000 0.0000 0.0000 0.0000 9.9691
#
#
#
# Elastic Compliance Matrix: (Units=1/GPa)
#
#
# Indices 1 2 3 4 5 6 
#
# 1 0.016603 -0.006565 -0.008521 0.000000 0.000000 0.000000
# 2 -0.006565 0.016603 -0.008521 0.000000 0.000000 0.000000
# 3 -0.008521 -0.008521 0.042079 0.000000 0.000000 0.000000
# 4 0.000000 0.000000 0.000000 0.062577 0.000000 0.000000
# 5 0.000000 0.000000 0.000000 0.000000 0.062577 0.000000
# 6 0.000000 0.000000 0.000000 0.000000 0.000000 0.100310
#
#
# Mechanical properties :
#
#
# Convention : Reuss Voigt Hill
#
# Bulk Modulus (GPa) = 35.62311 51.42092 43.52202
# Shear Modulus (GPa) = 13.99302 16.07797 15.03549
#
# Velocity S-wave (km/s) = 2.94631 3.15819 3.05409
# Velocity P-wave (km/s) = 5.80289 6.72298 6.27981
#
# Compressibility (1/GPa) = 0.02807166
#
# Stress axis : x y z
#
# Youngs Moduli (GPa) = 60.22957 60.22957 23.76473
#
# Poissons Ratio (x) = 0.39539 0.20250
# Poissons Ratio (y) = 0.39539 0.20250
# Poissons Ratio (z) = 0.51322 0.51322
#
# Static dielectric constant tensor:
#      x y z
#    x 3.058620 0.000000 0.000000 
#    y 0.000000 3.058620 0.000000 
#    z 0.000000 0.000000 3.117000 
# 
# 
# High freq. dielectric constant tensor:
#      x y z
#    x 1.605820 0.000000 0.000000 
#    y 0.000000 1.605820 0.000000 
#    z 0.000000 0.000000 1.620470 
# 
# From -- ./inp_files/1512.got.cif
#   From: 2010.03.12/outbox.cif.g09.slc.cpg/sg123_1_cif.got.tgz:1512.got - 2010.04.06 16:26:55.
