data_PCOD8312123
_publ_section_title
;
Structure prediction by ZEFSAII (Michael W. Deem and Ramdas Pophale) SiO2 
 PCOD8312123
Probable space group: P 4/M M M
;
_chemical_formula_sum "Si O2"
_cell_formula_units_Z 96
_cell_length_a 20.031774
_cell_length_b 20.031774
_cell_length_c 17.975861
_cell_angle_alpha 90.000000
_cell_angle_beta 90.000000
_cell_angle_gamma 90.000000
_cell_volume 7213.209148
_symmetry_space_group_name_H-M "P 4/M M M"
_symmetry_group_IT_number 123
_symmetry_cell_setting 'tetragonal'
loop_
_space_group_symop_operation_xyz
x,y,z
-y,x,z
-x,-y,z
y,-x,z
x,-y,-z
-x,y,-z
y,x,-z
-y,-x,-z
-x,-y,-z
y,-x,-z
x,y,-z
-y,x,-z
-x,y,z
x,-y,z
-y,-x,z
y,x,z
loop_
_atom_site_type_symbol
_atom_site_label
_atom_site_fract_x
_atom_site_fract_y
_atom_site_fract_z
Si Si1 0.815997 0.923088 0.000000
Si Si2 0.078104 0.573055 0.344979
Si Si3 0.923367 0.183108 0.695879
Si Si4 0.871477 0.764281 0.846657
Si Si5 0.078485 0.622759 0.819696
Si Si6 0.704708 0.079451 0.417133
Si Si7 0.500000 0.079146 0.917555
O O1 0.774450 0.904479 0.073106
O O2 0.886745 0.886745 0.000000
O O3 0.832941 0.000000 0.000000
O O4 0.110518 0.500000 0.361949
O O5 0.091932 0.592762 0.260604
O O6 0.108449 0.631007 0.397672
O O7 0.000000 0.567437 0.359492
O O8 0.883630 0.116370 0.675873
O O9 0.915602 0.201399 0.782415
O O10 0.894506 0.242172 0.643407
O O11 0.000000 0.168601 0.677815
O O12 0.796617 0.796617 0.844977
O O13 0.872308 0.685339 0.832031
O O14 0.103124 0.567119 0.877468
O O15 0.000000 0.642701 0.829467
O O16 0.724728 0.103383 0.500000
O O17 0.702154 0.000000 0.411942
O O18 0.500000 0.000000 0.917792
O O19 0.500000 0.109536 0.000000
#
# Coordination Sequence:
#
# PCOD8312123 Si02
#       7
#     8  16  16  16  16  16   8
#     4  10  20  31  42  57  73  93 127 167 208 250
#     4   9  15  24  39  58  78  99 120 145 183 232
#     4  10  19  31  45  58  74  97 129 170 214 256
#     4  10  20  31  43  59  77 102 135 165 199 244
#     4  10  16  26  42  57  79 105 128 160 197 232
#     4   9  17  28  41  57  76  97 121 152 194 242
#     4   9  18  26  36  62  85 101 127 156 193 239
#
# _framework density 13.308916999999999
#
# number of rings (size 3 to 8) (size 9 to 14) (size 15 to 20)
#    0.000    2.417    2.500    1.500    1.167    0.917 
#    0.000    1.667    0.000    3.000    0.000    2.333 
#    0.000    0.000    0.000    0.000    0.000    0.417 
#
# Total GULP energy -1189824.229416 kJ/mol
# GULP energy per Si atom -12394.002390 kJ/mol
# Density = 1.327863 g / cm^3
# Si number density = 13.308917 Si / 1000 Ang^3
#
#
#
# Elastic Constant Matrix: (Units=GPa)
#
#
# Indices 1 2 3 4 5 6 
#
# 1 65.3102 32.8296 21.3545 0.0000 0.0000 0.0000
# 2 32.8296 65.3102 21.3545 0.0000 0.0000 0.0000
# 3 21.3545 21.3545 80.2758 0.0000 0.0000 0.0000
# 4 0.0000 0.0000 0.0000 89.7030 0.0000 0.0000
# 5 0.0000 0.0000 0.0000 0.0000 89.7030 0.0000
# 6 0.0000 0.0000 0.0000 0.0000 0.0000 7.8425
#
#
#
# Elastic Compliance Matrix: (Units=1/GPa)
#
#
# Indices 1 2 3 4 5 6 
#
# 1 0.021156 -0.009632 -0.003065 0.000000 0.000000 0.000000
# 2 -0.009632 0.021156 -0.003065 0.000000 0.000000 0.000000
# 3 -0.003065 -0.003065 0.014088 0.000000 0.000000 0.000000
# 4 0.000000 0.000000 0.000000 0.011148 0.000000 0.000000
# 5 0.000000 0.000000 0.000000 0.000000 0.011148 0.000000
# 6 0.000000 0.000000 0.000000 0.000000 0.000000 0.127510
#
#
# Mechanical properties :
#
#
# Convention : Reuss Voigt Hill
#
# Bulk Modulus (GPa) = 40.20361 40.21923 40.21142
# Shear Modulus (GPa) = 20.32337 46.47355 33.39846
#
# Velocity S-wave (km/s) = 3.91199 5.91565 5.01491
# Velocity P-wave (km/s) = 7.11888 8.77184 7.98823
#
# Compressibility (1/GPa) = 0.02487339
#
# Stress axis : x y z
#
# Youngs Moduli (GPa) = 47.26879 47.26879 70.98263
#
# Poissons Ratio (x) = 0.45529 0.21759
# Poissons Ratio (y) = 0.45529 0.21759
# Poissons Ratio (z) = 0.14490 0.14490
#
# Static dielectric constant tensor:
#      x y z
#    x 2.555170 0.000000 0.000000 
#    y 0.000000 2.555170 0.000000 
#    z 0.000000 0.000000 2.907710 
# 
# 
# High freq. dielectric constant tensor:
#      x y z
#    x 1.472860 0.000000 0.000000 
#    y 0.000000 1.472860 0.000000 
#    z 0.000000 0.000000 1.525460 
# 
# From -- ./inp_files/5822.got.cif
#   From: 2010.03.12/outbox.cif.g09.slc.cpg/sg123_3_cif.got.tgz:5822.got - 2010.04.06 16:26:55.
