data_PCOD8312399
_publ_section_title
;
Structure prediction by ZEFSAII (Michael W. Deem and Ramdas Pophale) SiO2 
 PCOD8312399
Probable space group: P 4/M M M
;
_chemical_formula_sum "Si O2"
_cell_formula_units_Z 96
_cell_length_a 14.171458
_cell_length_b 14.171458
_cell_length_c 29.990412
_cell_angle_alpha 90.000000
_cell_angle_beta 90.000000
_cell_angle_gamma 90.000000
_cell_volume 6022.981095
_symmetry_space_group_name_H-M "P 4/M M M"
_symmetry_group_IT_number 123
_symmetry_cell_setting 'tetragonal'
loop_
_space_group_symop_operation_xyz
x,y,z
-y,x,z
-x,-y,z
y,-x,z
x,-y,-z
-x,y,-z
y,x,-z
-y,-x,-z
-x,-y,-z
y,-x,-z
x,y,-z
-y,x,-z
-x,y,z
x,-y,z
-y,-x,z
y,x,z
loop_
_atom_site_type_symbol
_atom_site_label
_atom_site_fract_x
_atom_site_fract_y
_atom_site_fract_z
Si Si1 0.888157 0.604152 0.000000
Si Si2 0.892231 0.740343 0.076674
Si Si3 0.392185 0.890652 0.582779
Si Si4 0.263034 0.109191 0.178861
Si Si5 0.888620 0.264924 0.500000
Si Si6 0.609676 0.236661 0.236209
Si Si7 0.758485 0.392827 0.337881
O O1 0.853842 0.657915 0.955497
O O2 0.842217 0.500000 0.000000
O O3 0.000000 0.595614 0.000000
O O4 0.835256 0.835256 0.067131
O O5 0.880226 0.706348 0.127444
O O6 0.000000 0.765033 0.065463
O O7 0.500000 0.867230 0.569354
O O8 0.325003 0.857305 0.542917
O O9 0.361508 0.840519 0.628480
O O10 0.378976 0.000000 0.592283
O O11 0.166371 0.166371 0.188713
O O12 0.349356 0.150847 0.207248
O O13 0.245815 0.000000 0.191679
O O14 0.834426 0.165575 0.500000
O O15 0.000000 0.243817 0.500000
O O16 0.500000 0.253427 0.224268
O O17 0.666316 0.333685 0.226204
O O18 0.623017 0.205657 0.287527
O O19 0.728599 0.500000 0.345784
O O20 0.665765 0.334236 0.348649
#
# Coordination Sequence:
#
# PCOD8312399 Si02
#       7
#     8  16  16  16   8  16  16
#     4   9  17  28  41  59  85 115 145 175 207 246
#     4   9  17  29  45  65  89 115 143 177 217 262
#     4   9  17  29  45  65  87 110 139 175 213 253
#     4   9  18  31  46  66  91 118 149 185 225 270
#     4  10  19  30  45  63  84 112 143 175 212 251
#     4   9  18  31  46  66  91 118 150 187 225 265
#     4   9  17  29  45  65  89 115 142 174 213 258
#
# _framework density 15.93895
#
# number of rings (size 3 to 8) (size 9 to 14) (size 15 to 20)
#    0.000    2.917    0.000    1.000    0.000    3.417 
#    0.000    6.667    0.000    1.500    0.000    0.000 
#    0.000   12.667    0.000    0.000    0.000    0.500 
#
# Total GULP energy -1190277.576195 kJ/mol
# GULP energy per Si atom -12398.724752 kJ/mol
# Density = 1.590267 g / cm^3
# Si number density = 15.938950 Si / 1000 Ang^3
#
#
#
# Elastic Constant Matrix: (Units=GPa)
#
#
# Indices 1 2 3 4 5 6 
#
# 1 93.6794 51.9059 59.4749 0.0000 0.0000 0.0000
# 2 51.9059 93.6809 59.4753 0.0000 0.0000 0.0000
# 3 59.4749 59.4753 97.1999 0.0000 0.0000 0.0000
# 4 0.0000 0.0000 0.0000 26.4087 0.0000 0.0000
# 5 0.0000 0.0000 0.0000 0.0000 26.4087 0.0000
# 6 0.0000 0.0000 0.0000 0.0000 0.0000 21.9165
#
#
#
# Elastic Compliance Matrix: (Units=1/GPa)
#
#
# Indices 1 2 3 4 5 6 
#
# 1 0.018837 -0.005101 -0.008405 0.000000 0.000000 0.000000
# 2 -0.005101 0.018837 -0.008405 0.000000 0.000000 0.000000
# 3 -0.008405 -0.008405 0.020574 0.000000 0.000000 0.000000
# 4 0.000000 0.000000 0.000000 0.037866 0.000000 0.000000
# 5 0.000000 0.000000 0.000000 0.000000 0.037866 0.000000
# 6 0.000000 0.000000 0.000000 0.000000 0.000000 0.045628
#
#
# Mechanical properties :
#
#
# Convention : Reuss Voigt Hill
#
# Bulk Modulus (GPa) = 69.31812 69.58579 69.45196
# Shear Modulus (GPa) = 21.90697 22.52707 22.21702
#
# Velocity S-wave (km/s) = 3.71135 3.76351 3.73752
# Velocity P-wave (km/s) = 7.87081 7.91441 7.89264
#
# Compressibility (1/GPa) = 0.01442624
#
# Stress axis : x y z
#
# Youngs Moduli (GPa) = 53.08655 53.08743 48.60617
#
# Poissons Ratio (x) = 0.27081 0.40852
# Poissons Ratio (y) = 0.27080 0.40852
# Poissons Ratio (z) = 0.44618 0.44618
#
# Static dielectric constant tensor:
#      x y z
#    x 2.977750 0.000000 0.000000 
#    y 0.000000 2.977750 0.000000 
#    z 0.000000 0.000000 3.190670 
# 
# 
# High freq. dielectric constant tensor:
#      x y z
#    x 1.602140 0.000000 0.000000 
#    y 0.000000 1.602140 0.000000 
#    z 0.000000 0.000000 1.621150 
# 
# From -- ./inp_files/7359.got.cif
#   From: 2010.03.12/outbox.cif.g09.slc.cpg/sg123_4_cif.got.tgz:7359.got - 2010.04.06 16:26:55.
