data_PCOD8312355
_publ_section_title
;
Structure prediction by ZEFSAII (Michael W. Deem and Ramdas Pophale) SiO2 
 PCOD8312355
Probable space group: P 4/M M M
;
_chemical_formula_sum "Si O2"
_cell_formula_units_Z 72
_cell_length_a 13.763698
_cell_length_b 13.763698
_cell_length_c 23.370199
_cell_angle_alpha 90.000000
_cell_angle_beta 90.000000
_cell_angle_gamma 90.000000
_cell_volume 4427.236071
_symmetry_space_group_name_H-M "P 4/M M M"
_symmetry_group_IT_number 123
_symmetry_cell_setting 'tetragonal'
loop_
_space_group_symop_operation_xyz
x,y,z
-y,x,z
-x,-y,z
y,-x,z
x,-y,-z
-x,y,-z
y,x,-z
-y,-x,-z
-x,-y,-z
y,-x,-z
x,y,-z
-y,x,-z
-x,y,z
x,-y,z
-y,-x,z
y,x,z
loop_
_atom_site_type_symbol
_atom_site_label
_atom_site_fract_x
_atom_site_fract_y
_atom_site_fract_z
Si Si1 0.614937 0.891556 0.720493
Si Si2 0.108371 0.615225 0.936712
Si Si3 0.615024 0.771755 0.610442
Si Si4 0.769645 0.614816 0.829880
Si Si5 0.108638 0.385074 0.500000
O O1 0.500000 0.899789 0.718957
O O2 0.650476 0.830680 0.665975
O O3 0.648537 0.838868 0.778314
O O4 0.660261 0.000000 0.718719
O O5 0.103748 0.500000 0.932859
O O6 0.181458 0.653405 0.888418
O O7 0.000000 0.656673 0.925529
O O8 0.144722 0.647524 0.000000
O O9 0.500000 0.751626 0.610441
O O10 0.667580 0.667580 0.609336
O O11 0.649476 0.834116 0.556060
O O12 0.751203 0.500000 0.829562
O O13 0.665301 0.665301 0.823320
O O14 0.100086 0.500000 0.500000
O O15 0.000000 0.339855 0.500000
#
# Coordination Sequence:
#
# PCOD8312355 Si02
#       5
#    16  16  16  16   8
#     4   9  17  30  47  64  83 110 146 190 233 260
#     4   8  14  26  44  63  82 107 142 186 231 262
#     4  10  19  30  45  67  96 126 152 177 209 258
#     4  10  19  29  42  62  90 122 151 177 208 254
#     4   9  17  30  47  65  87 117 153 195 235 256
#
# _framework density 16.262968999999998
#
# number of rings (size 3 to 8) (size 9 to 14) (size 15 to 20)
#    0.000    2.778    0.000    3.000    0.000    6.222 
#    0.000    0.000    0.000    6.000    0.000    3.111 
#    0.000   49.333    0.000    9.778    0.000    0.889 
#
# Total GULP energy -892533.703028 kJ/mol
# GULP energy per Si atom -12396.301431 kJ/mol
# Density = 1.622595 g / cm^3
# Si number density = 16.262969 Si / 1000 Ang^3
#
#
#
# Elastic Constant Matrix: (Units=GPa)
#
#
# Indices 1 2 3 4 5 6 
#
# 1 70.6718 43.2844 46.1725 0.0000 0.0000 0.0000
# 2 43.2844 70.6718 46.1725 0.0000 0.0000 0.0000
# 3 46.1725 46.1725 147.4492 0.0000 0.0000 0.0000
# 4 0.0000 0.0000 0.0000 12.1537 0.0000 0.0000
# 5 0.0000 0.0000 0.0000 0.0000 12.1537 0.0000
# 6 0.0000 0.0000 0.0000 0.0000 0.0000 6.0397
#
#
#
# Elastic Compliance Matrix: (Units=1/GPa)
#
#
# Indices 1 2 3 4 5 6 
#
# 1 0.024136 -0.012377 -0.003682 0.000000 0.000000 0.000000
# 2 -0.012377 0.024136 -0.003682 0.000000 0.000000 0.000000
# 3 -0.003682 -0.003682 0.009088 0.000000 0.000000 0.000000
# 4 0.000000 0.000000 0.000000 0.082279 0.000000 0.000000
# 5 0.000000 0.000000 0.000000 0.000000 0.082279 0.000000
# 6 0.000000 0.000000 0.000000 0.000000 0.000000 0.165570
#
#
# Mechanical properties :
#
#
# Convention : Reuss Voigt Hill
#
# Bulk Modulus (GPa) = 55.93638 62.22796 59.08217
# Shear Modulus (GPa) = 11.54917 16.28033 13.91475
#
# Velocity S-wave (km/s) = 2.66776 3.16740 2.92825
# Velocity P-wave (km/s) = 6.63015 7.19188 6.91672
#
# Compressibility (1/GPa) = 0.01787745
#
# Stress axis : x y z
#
# Youngs Moduli (GPa) = 41.43156 41.43156 110.03312
#
# Poissons Ratio (x) = 0.51279 0.40518
# Poissons Ratio (y) = 0.51279 0.40518
# Poissons Ratio (z) = 0.15256 0.15256
#
# Static dielectric constant tensor:
#      x y z
#    x 2.830040 0.000000 0.000000 
#    y 0.000000 2.830040 0.000000 
#    z 0.000000 0.000000 3.472480 
# 
# 
# High freq. dielectric constant tensor:
#      x y z
#    x 1.592510 0.000000 0.000000 
#    y 0.000000 1.592510 0.000000 
#    z 0.000000 0.000000 1.651060 
# 
# From -- ./inp_files/6303.got.cif
#   From: 2010.03.12/outbox.cif.g09.slc.cpg/sg123_4_cif.got.tgz:6303.got - 2010.04.06 16:26:55.
