data_PCOD8312156
_publ_section_title
;
Structure prediction by ZEFSAII (Michael W. Deem and Ramdas Pophale) SiO2 
 PCOD8312156
Probable space group: P 4/M M M
;
_chemical_formula_sum "Si O2"
_cell_formula_units_Z 80
_cell_length_a 19.726246
_cell_length_b 19.726246
_cell_length_c 14.073862
_cell_angle_alpha 90.000000
_cell_angle_beta 90.000000
_cell_angle_gamma 90.000000
_cell_volume 5476.488472
_symmetry_space_group_name_H-M "P 4/M M M"
_symmetry_group_IT_number 123
_symmetry_cell_setting 'tetragonal'
loop_
_space_group_symop_operation_xyz
x,y,z
-y,x,z
-x,-y,z
y,-x,z
x,-y,-z
-x,y,-z
y,x,-z
-y,-x,-z
-x,-y,-z
y,-x,-z
x,y,-z
-y,x,-z
-x,y,z
x,-y,z
-y,-x,z
y,x,z
loop_
_atom_site_type_symbol
_atom_site_label
_atom_site_fract_x
_atom_site_fract_y
_atom_site_fract_z
Si Si1 0.638394 0.740311 0.609625
Si Si2 0.150323 0.259599 0.671032
Si Si3 0.500000 0.925161 0.685714
Si Si4 0.363033 0.077613 0.804237
Si Si5 0.500000 0.785684 0.608014
Si Si6 0.577286 0.080918 0.000000
Si Si7 0.921161 0.808783 0.500000
O O1 0.625060 0.725166 0.500000
O O2 0.674682 0.674682 0.657444
O O3 0.687080 0.804464 0.614416
O O4 0.566560 0.755616 0.660758
O O5 0.196406 0.196406 0.707952
O O6 0.117214 0.298918 0.759899
O O7 0.094559 0.234037 0.595413
O O8 0.567381 0.915172 0.746868
O O9 0.500000 0.867366 0.606292
O O10 0.500000 0.000000 0.638309
O O11 0.380340 0.106735 0.908717
O O12 0.339944 0.000000 0.809685
O O13 0.500000 0.762109 0.500000
O O14 0.500000 0.109886 0.000000
O O15 0.572337 0.000000 0.000000
O O16 0.877551 0.877551 0.500000
O O17 0.000000 0.828143 0.500000
#
# Coordination Sequence:
#
# PCOD8312156 Si02
#       7
#    16  16   8  16   8   8   8
#     4   9  16  27  41  56  79 111 142 168 198 245
#     4  10  18  29  44  63  87 116 145 175 215 264
#     4  10  18  26  38  60  88 110 136 172 209 250
#     4  10  18  29  44  62  85 112 142 178 216 255
#     4  10  18  27  39  58  84 110 142 173 208 252
#     4   9  16  28  45  62  82 112 146 176 209 256
#     4  10  20  33  48  65  87 117 152 188 224 264
#
# _framework density 14.607901
#
# number of rings (size 3 to 8) (size 9 to 14) (size 15 to 20)
#    0.000    2.300    4.000    0.600    0.000    0.300 
#    0.000    0.500    0.000    0.300    0.000    2.100 
#    0.000    0.000    0.000    0.000    0.000   60.000 
#
# Total GULP energy -991090.847789 kJ/mol
# GULP energy per Si atom -12388.635597 kJ/mol
# Density = 1.457465 g / cm^3
# Si number density = 14.607901 Si / 1000 Ang^3
#
#
#
# Elastic Constant Matrix: (Units=GPa)
#
#
# Indices 1 2 3 4 5 6 
#
# 1 95.1089 50.9189 31.7464 0.0000 0.0000 0.0000
# 2 50.9189 95.1089 31.7464 0.0000 0.0000 0.0000
# 3 31.7464 31.7464 62.1797 0.0000 0.0000 0.0000
# 4 0.0000 0.0000 0.0000 15.3969 0.0000 0.0000
# 5 0.0000 0.0000 0.0000 0.0000 15.3969 0.0000
# 6 0.0000 0.0000 0.0000 0.0000 0.0000 23.2429
#
#
#
# Elastic Compliance Matrix: (Units=1/GPa)
#
#
# Indices 1 2 3 4 5 6 
#
# 1 0.015716 -0.006914 -0.004494 0.000000 0.000000 0.000000
# 2 -0.006914 0.015716 -0.004494 0.000000 0.000000 0.000000
# 3 -0.004494 -0.004494 0.020671 0.000000 0.000000 0.000000
# 4 0.000000 0.000000 0.000000 0.064948 0.000000 0.000000
# 5 0.000000 0.000000 0.000000 0.000000 0.064948 0.000000
# 6 0.000000 0.000000 0.000000 0.000000 0.000000 0.043024
#
#
# Mechanical properties :
#
#
# Convention : Reuss Voigt Hill
#
# Bulk Modulus (GPa) = 49.26232 53.46898 51.36565
# Shear Modulus (GPa) = 18.96867 20.00640 19.48753
#
# Velocity S-wave (km/s) = 3.60741 3.70477 3.65641
# Velocity P-wave (km/s) = 7.15175 7.41503 7.28458
#
# Compressibility (1/GPa) = 0.02029949
#
# Stress axis : x y z
#
# Youngs Moduli (GPa) = 63.63035 63.63035 48.37641
#
# Poissons Ratio (x) = 0.43993 0.21740
# Poissons Ratio (y) = 0.43993 0.21740
# Poissons Ratio (z) = 0.28595 0.28595
#
# Static dielectric constant tensor:
#      x y z
#    x 3.006100 0.000000 0.000000 
#    y 0.000000 3.006100 0.000000 
#    z 0.000000 0.000000 2.650060 
# 
# 
# High freq. dielectric constant tensor:
#      x y z
#    x 1.552400 0.000000 0.000000 
#    y 0.000000 1.552400 0.000000 
#    z 0.000000 0.000000 1.524620 
# 
# From -- ./inp_files/4296.got.cif
#   From: 2010.03.12/outbox.cif.g09.slc.cpg/sg123_3_cif.got.tgz:4296.got - 2010.04.06 16:26:55.
