data_PCOD8312900
_publ_section_title
;
Structure prediction by ZEFSAII (Michael W. Deem and Ramdas Pophale) SiO2 
 PCOD8312900
Probable space group: P 4/M M M
;
_chemical_formula_sum "Si O2"
_cell_formula_units_Z 96
_cell_length_a 24.157590
_cell_length_b 24.157590
_cell_length_c 8.718780
_cell_angle_alpha 90.000000
_cell_angle_beta 90.000000
_cell_angle_gamma 90.000000
_cell_volume 5088.185449
_symmetry_space_group_name_H-M "P 4/M M M"
_symmetry_group_IT_number 123
_symmetry_cell_setting 'tetragonal'
loop_
_space_group_symop_operation_xyz
x,y,z
-y,x,z
-x,-y,z
y,-x,z
x,-y,-z
-x,y,-z
y,x,-z
-y,-x,-z
-x,-y,-z
y,-x,-z
x,y,-z
-y,x,-z
-x,y,z
x,-y,z
-y,-x,z
y,x,z
loop_
_atom_site_type_symbol
_atom_site_label
_atom_site_fract_x
_atom_site_fract_y
_atom_site_fract_z
Si Si1 0.150628 0.061991 0.325906
Si Si2 0.061179 0.438340 0.317609
Si Si3 0.265389 0.645055 0.819529
Si Si4 0.855265 0.652325 0.319680
Si Si5 0.563001 0.347981 0.318465
Si Si6 0.062879 0.735173 0.177372
O O1 0.170593 0.074428 0.500000
O O2 0.101748 0.101748 0.273348
O O3 0.200269 0.071021 0.207865
O O4 0.127396 0.000000 0.313887
O O5 0.061498 0.436549 0.500000
O O6 0.073688 0.500000 0.257853
O O7 0.109429 0.399287 0.252801
O O8 0.000000 0.419419 0.259459
O O9 0.301960 0.698041 0.769461
O O10 0.203647 0.654537 0.761339
O O11 0.291931 0.589467 0.748886
O O12 0.264486 0.637815 0.000000
O O13 0.845088 0.647908 0.500000
O O14 0.891836 0.705706 0.282845
O O15 0.563960 0.342737 0.500000
O O16 0.500000 0.354443 0.258302
O O17 0.598381 0.401620 0.264204
O O18 0.000000 0.717279 0.222673
O O19 0.074643 0.722217 0.000000
#
# Coordination Sequence:
#
# PCOD8312900 Si02
#       6
#    16  16  16  16  16  16
#     4   9  18  33  53  77 104 133 167 209 258 313
#     4   8  15  29  49  75 106 134 160 196 244 297
#     4  10  22  39  55  73 103 142 181 221 266 316
#     4  11  21  33  55  82 104 132 174 220 265 315
#     4   9  18  34  57  84 113 144 178 218 264 313
#     4  10  21  36  53  74 103 138 174 215 263 313
#
# _framework density 18.867235999999998
#
# number of rings (size 3 to 8) (size 9 to 14) (size 15 to 20)
#    0.000    2.500    0.000    2.500    0.000    5.000 
#    0.000    3.333    0.000    1.500    0.000   10.500 
#    0.000    0.000    0.000    0.000    0.000    0.000 
#
# Total GULP energy -1190235.442696 kJ/mol
# GULP energy per Si atom -12398.285861 kJ/mol
# Density = 1.882429 g / cm^3
# Si number density = 18.867236 Si / 1000 Ang^3
#
#
#
# Elastic Constant Matrix: (Units=GPa)
#
#
# Indices 1 2 3 4 5 6 
#
# 1 124.8728 66.5540 18.5805 0.0000 0.0000 0.0000
# 2 66.5540 124.8728 18.5805 0.0000 0.0000 0.0000
# 3 18.5805 18.5805 24.8037 0.0000 0.0000 0.0000
# 4 0.0000 0.0000 0.0000 21.0106 0.0000 0.0000
# 5 0.0000 0.0000 0.0000 0.0000 21.0106 0.0000
# 6 0.0000 0.0000 0.0000 0.0000 0.0000 -98.2217
#
#
#
# Elastic Compliance Matrix: (Units=1/GPa)
#
#
# Indices 1 2 3 4 5 6 
#
# 1 0.011630 -0.005517 -0.004579 0.000000 0.000000 0.000000
# 2 -0.005517 0.011630 -0.004579 0.000000 0.000000 0.000000
# 3 -0.004579 -0.004579 0.047177 0.000000 0.000000 0.000000
# 4 0.000000 0.000000 0.000000 0.047595 0.000000 0.000000
# 5 0.000000 0.000000 0.000000 0.000000 0.047595 0.000000
# 6 0.000000 0.000000 0.000000 0.000000 0.000000 -0.010181
#
#
# Mechanical properties :
#
#
# Convention : Reuss Voigt Hill
#
# Bulk Modulus (GPa) = 24.33910 53.55326 38.94618
# Shear Modulus (GPa) = 25.18986 0.14883 12.66934
#
# Velocity S-wave (km/s) = 3.65788 0.28116 2.59414
# Velocity P-wave (km/s) = 5.54692 5.34334 5.44608
#
# Compressibility (1/GPa) = 0.04108615
#
# Stress axis : x y z
#
# Youngs Moduli (GPa) = 85.98445 85.98445 21.19675
#
# Poissons Ratio (x) = 0.47439 0.09706
# Poissons Ratio (y) = 0.47439 0.09706
# Poissons Ratio (z) = 0.39374 0.39374
#
# Static dielectric constant tensor:
#      x y z
#    x 3.565130 0.000000 0.000000 
#    y 0.000000 3.565130 0.000000 
#    z 0.000000 0.000000 3.266270 
# 
# 
# High freq. dielectric constant tensor:
#      x y z
#    x 1.735300 0.000000 0.000000 
#    y 0.000000 1.735300 0.000000 
#    z 0.000000 0.000000 1.716620 
# 
# From -- ./inp_files/1557.got.cif
#   From: 2010.03.12/outbox.cif.g09.slc.cpg/sg123_1_cif.got.tgz:1557.got - 2010.04.06 16:26:55.
