data_PCOD8312889
_publ_section_title
;
Structure prediction by ZEFSAII (Michael W. Deem and Ramdas Pophale) SiO2 
 PCOD8312889
Probable space group: P 4/M M M
;
_chemical_formula_sum "Si O2"
_cell_formula_units_Z 120
_cell_length_a 18.043235
_cell_length_b 18.043235
_cell_length_c 22.331528
_cell_angle_alpha 90.000000
_cell_angle_beta 90.000000
_cell_angle_gamma 90.000000
_cell_volume 7270.214946
_symmetry_space_group_name_H-M "P 4/M M M"
_symmetry_group_IT_number 123
_symmetry_cell_setting 'tetragonal'
loop_
_space_group_symop_operation_xyz
x,y,z
-y,x,z
-x,-y,z
y,-x,z
x,-y,-z
-x,y,-z
y,x,-z
-y,-x,-z
-x,-y,-z
y,-x,-z
x,y,-z
-y,x,-z
-x,y,z
x,-y,z
-y,-x,z
y,x,z
loop_
_atom_site_type_symbol
_atom_site_label
_atom_site_fract_x
_atom_site_fract_y
_atom_site_fract_z
Si Si1 0.085689 0.206467 0.429440
Si Si2 0.500000 0.919267 0.570272
Si Si3 0.800877 0.916547 0.816386
Si Si4 0.155070 0.643763 0.622509
Si Si5 0.650704 0.915334 0.252639
Si Si6 0.702656 0.585444 0.569199
Si Si7 0.580732 0.088202 0.868992
Si Si8 0.278195 0.911815 0.065781
O O1 0.088772 0.218755 0.500000
O O2 0.133795 0.133795 0.411082
O O3 0.120433 0.279082 0.399420
O O4 0.000000 0.195479 0.408324
O O5 0.500000 0.925212 0.500000
O O6 0.574179 0.878996 0.588997
O O7 0.500000 0.000000 0.600391
O O8 0.867167 0.867167 0.791333
O O9 0.734901 0.910428 0.769391
O O10 0.778773 0.887270 0.882793
O O11 0.829973 0.000000 0.821012
O O12 0.140548 0.637024 0.693103
O O13 0.242351 0.636768 0.608791
O O14 0.598354 0.887335 0.198910
O O15 0.632451 0.000000 0.271980
O O16 0.728358 0.588982 0.500000
O O17 0.700902 0.500000 0.591330
O O18 0.620750 0.620750 0.576539
O O19 0.500000 0.118569 0.887415
O O20 0.640501 0.119566 0.916184
O O21 0.583912 0.000000 0.870221
O O22 0.281567 0.000000 0.064314
O O23 0.255953 0.880589 0.000000
#
# Coordination Sequence:
#
# PCOD8312889 Si02
#       8
#    16   8  16  16  16  16  16  16
#     4  10  21  36  53  72  95 125 162 205 252 300
#     4  11  22  32  46  72 105 133 156 190 237 297
#     4   9  18  32  47  64  87 116 155 203 247 287
#     4  12  21  33  52  75 100 128 160 196 244 299
#     4   9  19  32  45  63  90 124 155 185 227 282
#     4  10  21  37  55  75  99 125 155 192 235 285
#     4   8  14  24  39  59  84 113 146 182 213 254
#     4   8  14  25  40  60  86 114 143 179 231 286
#
# _framework density 16.505701999999999
#
# number of rings (size 3 to 8) (size 9 to 14) (size 15 to 20)
#    0.000    2.467    0.667    4.400    0.933    4.133 
#    0.000    2.667    0.000    0.000    0.000    3.733 
#    0.000    0.000    0.000    0.000    0.000    0.000 
#
# Total GULP energy -1487236.336130 kJ/mol
# GULP energy per Si atom -12393.636134 kJ/mol
# Density = 1.646813 g / cm^3
# Si number density = 16.505702 Si / 1000 Ang^3
#
#
#
# Elastic Constant Matrix: (Units=GPa)
#
#
# Indices 1 2 3 4 5 6 
#
# 1 61.7302 30.2920 7.6912 0.0000 0.0000 0.0000
# 2 30.2920 61.7302 7.6912 0.0000 0.0000 0.0000
# 3 7.6912 7.6912 56.4357 0.0000 0.0000 0.0000
# 4 0.0000 0.0000 0.0000 8.7955 0.0000 0.0000
# 5 0.0000 0.0000 0.0000 0.0000 8.7955 0.0000
# 6 0.0000 0.0000 0.0000 0.0000 0.0000 19.9729
#
#
#
# Elastic Compliance Matrix: (Units=1/GPa)
#
#
# Indices 1 2 3 4 5 6 
#
# 1 0.021464 -0.010344 -0.001516 0.000000 0.000000 0.000000
# 2 -0.010344 0.021464 -0.001516 0.000000 0.000000 0.000000
# 3 -0.001516 -0.001516 0.018132 0.000000 0.000000 0.000000
# 4 0.000000 0.000000 0.000000 0.113695 0.000000 0.000000
# 5 0.000000 0.000000 0.000000 0.000000 0.113695 0.000000
# 6 0.000000 0.000000 0.000000 0.000000 0.000000 0.050068
#
#
# Mechanical properties :
#
#
# Convention : Reuss Voigt Hill
#
# Bulk Modulus (GPa) = 29.14526 30.13833 29.64180
# Shear Modulus (GPa) = 13.27298 16.46088 14.86693
#
# Velocity S-wave (km/s) = 2.83882 3.16141 3.00445
# Velocity P-wave (km/s) = 5.33303 5.62361 5.48025
#
# Compressibility (1/GPa) = 0.03431090
#
# Stress axis : x y z
#
# Youngs Moduli (GPa) = 46.58890 46.58890 55.14998
#
# Poissons Ratio (x) = 0.48192 0.08358
# Poissons Ratio (y) = 0.48192 0.08358
# Poissons Ratio (z) = 0.07061 0.07061
#
# Static dielectric constant tensor:
#      x y z
#    x 1.716340 0.000000 0.000000 
#    y 0.000000 1.716340 0.000000 
#    z 0.000000 0.000000 3.179870 
# 
# 
# High freq. dielectric constant tensor:
#      x y z
#    x 1.618940 0.000000 0.000000 
#    y 0.000000 1.618940 0.000000 
#    z 0.000000 0.000000 1.628490 
# 
# From -- ./inp_files/6830.got.cif
#   From: 2010.03.12/outbox.cif.g09.slc.cpg/sg123_4_cif.got.tgz:6830.got - 2010.04.06 16:26:55.
