data_PCOD8312118
_publ_section_title
;
Structure prediction by ZEFSAII (Michael W. Deem and Ramdas Pophale) SiO2 
 PCOD8312118
Probable space group: I -4 2 D
;
_chemical_formula_sum "Si O2"
_cell_formula_units_Z 20
_cell_length_a 5.279813
_cell_length_b 5.279813
_cell_length_c 27.207405
_cell_angle_alpha 90.000000
_cell_angle_beta 90.000000
_cell_angle_gamma 90.000000
_cell_volume 758.445193
_symmetry_space_group_name_H-M "I -4 2 D"
_symmetry_group_IT_number 122
_symmetry_cell_setting 'tetragonal'
loop_
_space_group_symop_operation_xyz
x,y,z
y,-x,-z
-x,-y,z
-y,x,-z
x,1/2-y,1/4-z
-x,1/2+y,1/4-z
-y,1/2-x,1/4+z
y,1/2+x,1/4+z
1/2+x,1/2+y,1/2+z
1/2+y,1/2-x,1/2-z
1/2-x,1/2-y,1/2+z
1/2-y,1/2+x,1/2-z
1/2+x,-y,3/4-z
1/2-x,y,3/4-z
1/2-y,-x,3/4+z
1/2+y,x,3/4+z
loop_
_atom_site_type_symbol
_atom_site_label
_atom_site_fract_x
_atom_site_fract_y
_atom_site_fract_z
Si Si1 0.240558 0.844118 0.070862
Si Si2 0.500000 0.500000 0.000000
O O1 0.172962 0.750000 0.125000
O O2 0.274848 0.607713 0.034152
O O3 0.500000 0.000000 0.071921
O O4 0.000000 0.000000 0.051150
#
# Coordination Sequence:
#
# PCOD8312118 Si02
#       2
#    16   4
#     4  12  29  54  85 122 176 234 294 368 443 526
#     4  12  32  52  80 132 168 232 296 364 444 526
#
# _framework density 26.369741999999999
#
# number of rings (size 3 to 8) (size 9 to 14) (size 15 to 20)
#    0.000    0.000    4.000    2.400   11.200    0.000 
#    0.000    0.000    0.000    0.000    0.000    0.000 
#    0.000    0.000    0.000    0.000    0.000    0.000 
#
# Total GULP energy -124105.314502 kJ/mol
# GULP energy per Si atom -12410.531450 kJ/mol
# Density = 2.630972 g / cm^3
# Si number density = 26.369742 Si / 1000 Ang^3
#
#
#
# Elastic Constant Matrix: (Units=GPa)
#
#
# Indices 1 2 3 4 5 6 
#
# 1 162.6071 71.0236 50.7558 0.0000 0.0000 0.0000
# 2 71.0236 162.6071 50.7558 0.0000 0.0000 0.0000
# 3 50.7558 50.7558 183.7907 0.0000 0.0000 0.0000
# 4 0.0000 0.0000 0.0000 -8.2417 0.0000 0.0000
# 5 0.0000 0.0000 0.0000 0.0000 -8.2417 0.0000
# 6 0.0000 0.0000 0.0000 0.0000 0.0000 77.2520
#
#
#
# Elastic Compliance Matrix: (Units=1/GPa)
#
#
# Indices 1 2 3 4 5 6 
#
# 1 0.007891 -0.003028 -0.001343 0.000000 0.000000 0.000000
# 2 -0.003028 0.007891 -0.001343 0.000000 0.000000 0.000000
# 3 -0.001343 -0.001343 0.006183 0.000000 0.000000 0.000000
# 4 0.000000 0.000000 0.000000 -0.121334 0.000000 0.000000
# 5 0.000000 0.000000 0.000000 0.000000 -0.121334 0.000000
# 6 0.000000 0.000000 0.000000 0.000000 0.000000 0.012945
#
#
# Mechanical properties :
#
#
# Convention : Reuss Voigt Hill
#
# Bulk Modulus (GPa) = 94.89676 94.89723 94.89700
# Shear Modulus (GPa) = -25.93120 34.58505 4.32692
#
# Velocity S-wave (km/s) = -3.13927 3.62545 1.28235
# Velocity P-wave (km/s) = 4.78801 7.32055 6.18529
#
# Compressibility (1/GPa) = 0.01053777
#
# Stress axis : x y z
#
# Youngs Moduli (GPa) = 126.71961 126.71962 161.73751
#
# Poissons Ratio (x) = 0.38365 0.21725
# Poissons Ratio (y) = 0.38365 0.21725
# Poissons Ratio (z) = 0.17021 0.17021
#
# Static dielectric constant tensor:
#      x y z
#    x 4.787480 0.000000 0.000000 
#    y 0.000000 4.787480 0.000000 
#    z 0.000000 0.000000 5.127560 
# 
# 
# High freq. dielectric constant tensor:
#      x y z
#    x 2.063050 0.000000 0.000000 
#    y 0.000000 2.063050 0.000000 
#    z 0.000000 0.000000 2.083310 
# 
# From -- ./inp_files/8248.got.cif
#   From: 2010.03.12/outbox.cif.g09.slc.cpg/sg122_5_cif.got.tgz:8248.got - 2010.04.06 16:17:16.
