data_PCOD8312423
_publ_section_title
;
Structure prediction by ZEFSAII (Michael W. Deem and Ramdas Pophale) SiO2 
 PCOD8312423
Probable space group: P 4/M M M
;
_chemical_formula_sum "Si O2"
_cell_formula_units_Z 88
_cell_length_a 14.288560
_cell_length_b 14.288560
_cell_length_c 27.988065
_cell_angle_alpha 90.000000
_cell_angle_beta 90.000000
_cell_angle_gamma 90.000000
_cell_volume 5714.125828
_symmetry_space_group_name_H-M "P 4/M M M"
_symmetry_group_IT_number 123
_symmetry_cell_setting 'tetragonal'
loop_
_space_group_symop_operation_xyz
x,y,z
-y,x,z
-x,-y,z
y,-x,z
x,-y,-z
-x,y,-z
y,x,-z
-y,-x,-z
-x,-y,-z
y,-x,-z
x,y,-z
-y,x,-z
-x,y,z
x,-y,z
-y,-x,z
y,x,z
loop_
_atom_site_type_symbol
_atom_site_label
_atom_site_fract_x
_atom_site_fract_y
_atom_site_fract_z
Si Si1 0.391962 0.760800 0.828872
Si Si2 0.607182 0.242313 0.720547
Si Si3 0.388308 0.766730 0.000000
Si Si4 0.892274 0.607849 0.637361
Si Si5 0.389741 0.104761 0.088120
Si Si6 0.741556 0.892376 0.553726
O O1 0.500000 0.733618 0.838949
O O2 0.331166 0.668835 0.840420
O O3 0.377246 0.794671 0.774427
O O4 0.359621 0.847005 0.862054
O O5 0.500000 0.268261 0.711350
O O6 0.663342 0.336659 0.710780
O O7 0.642097 0.162681 0.684264
O O8 0.356572 0.828310 0.045338
O O9 0.500000 0.744298 0.000000
O O10 0.331216 0.668785 0.000000
O O11 0.873153 0.500000 0.626181
O O12 0.857627 0.662816 0.590551
O O13 0.000000 0.627729 0.648489
O O14 0.500000 0.093636 0.085248
O O15 0.344966 0.000000 0.084701
O O16 0.703158 0.875655 0.500000
O O17 0.836294 0.836294 0.563101
O O18 0.767091 0.000000 0.562230
#
# Coordination Sequence:
#
# PCOD8312423 Si02
#       6
#    16  16   8  16  16  16
#     4   9  17  28  42  62  87 113 140 169 202 243
#     4   9  17  28  42  60  83 111 140 170 203 239
#     4  10  19  30  45  65  90 118 145 173 206 247
#     4   9  17  28  42  60  81 106 136 169 206 245
#     4   9  17  29  44  61  83 112 143 174 207 240
#     4   9  17  28  42  60  81 105 132 163 201 245
#
# _framework density 15.400430999999999
#
# number of rings (size 3 to 8) (size 9 to 14) (size 15 to 20)
#    0.000    2.909    0.000    1.364    0.000    2.818 
#    0.000    8.182    0.000    3.273    0.000    0.000 
#    0.000   14.909    0.000   30.364    0.000    1.636 
#
# Total GULP energy -1090921.831018 kJ/mol
# GULP energy per Si atom -12396.838989 kJ/mol
# Density = 1.536538 g / cm^3
# Si number density = 15.400431 Si / 1000 Ang^3
#
#
#
# Elastic Constant Matrix: (Units=GPa)
#
#
# Indices 1 2 3 4 5 6 
#
# 1 70.3737 44.3372 57.8690 0.0000 0.0000 0.0000
# 2 44.3372 70.3749 57.8694 0.0000 0.0000 0.0000
# 3 57.8690 57.8694 122.0768 0.0000 0.0000 0.0000
# 4 0.0000 0.0000 0.0000 24.0304 0.0000 0.0000
# 5 0.0000 0.0000 0.0000 0.0000 24.0304 0.0000
# 6 0.0000 0.0000 0.0000 0.0000 0.0000 17.3422
#
#
#
# Elastic Compliance Matrix: (Units=1/GPa)
#
#
# Indices 1 2 3 4 5 6 
#
# 1 0.027558 -0.010849 -0.007921 0.000000 0.000000 0.000000
# 2 -0.010849 0.027558 -0.007921 0.000000 0.000000 0.000000
# 3 -0.007921 -0.007921 0.015701 0.000000 0.000000 0.000000
# 4 0.000000 0.000000 0.000000 0.041614 0.000000 0.000000
# 5 0.000000 0.000000 0.000000 0.000000 0.041614 0.000000
# 6 0.000000 0.000000 0.000000 0.000000 0.000000 0.057663
#
#
# Mechanical properties :
#
#
# Convention : Reuss Voigt Hill
#
# Bulk Modulus (GPa) = 57.35162 64.77518 61.06340
# Shear Modulus (GPa) = 18.45694 19.93060 19.19377
#
# Velocity S-wave (km/s) = 3.46565 3.60134 3.53415
# Velocity P-wave (km/s) = 7.30311 7.71005 7.50934
#
# Compressibility (1/GPa) = 0.01743630
#
# Stress axis : x y z
#
# Youngs Moduli (GPa) = 36.28677 36.28739 63.68960
#
# Poissons Ratio (x) = 0.39367 0.50448
# Poissons Ratio (y) = 0.39367 0.50447
# Poissons Ratio (z) = 0.28742 0.28743
#
# Static dielectric constant tensor:
#      x y z
#    x 2.876320 0.000000 0.000000 
#    y 0.000000 2.876320 0.000000 
#    z 0.000000 0.000000 3.206550 
# 
# 
# High freq. dielectric constant tensor:
#      x y z
#    x 1.572760 0.000000 0.000000 
#    y 0.000000 1.572760 0.000000 
#    z 0.000000 0.000000 1.605740 
# 
# From -- ./inp_files/7152.got.cif
#   From: 2010.03.12/outbox.cif.g09.slc.cpg/sg123_4_cif.got.tgz:7152.got - 2010.04.06 16:26:55.
