data_PCOD8312157
_publ_section_title
;
Structure prediction by ZEFSAII (Michael W. Deem and Ramdas Pophale) SiO2 
 PCOD8312157
Probable space group: P 4/M M M
;
_chemical_formula_sum "Si O2"
_cell_formula_units_Z 80
_cell_length_a 18.428067
_cell_length_b 18.428067
_cell_length_c 18.790342
_cell_angle_alpha 90.000000
_cell_angle_beta 90.000000
_cell_angle_gamma 90.000000
_cell_volume 6381.080888
_symmetry_space_group_name_H-M "P 4/M M M"
_symmetry_group_IT_number 123
_symmetry_cell_setting 'tetragonal'
loop_
_space_group_symop_operation_xyz
x,y,z
-y,x,z
-x,-y,z
y,-x,z
x,-y,-z
-x,y,-z
y,x,-z
-y,-x,-z
-x,-y,-z
y,-x,-z
x,y,-z
-y,x,-z
-x,y,z
x,-y,z
-y,-x,z
y,x,z
loop_
_atom_site_type_symbol
_atom_site_label
_atom_site_fract_x
_atom_site_fract_y
_atom_site_fract_z
Si Si1 0.201025 0.915417 0.213216
Si Si2 0.913303 0.580111 0.287044
Si Si3 0.349123 0.085557 0.144125
Si Si4 0.086630 0.582797 0.000000
Si Si5 0.278072 0.085504 0.642056
Si Si6 0.202150 0.086488 0.500000
O O1 0.130160 0.869841 0.192301
O O2 0.264820 0.895486 0.157640
O O3 0.226043 0.893549 0.292566
O O4 0.180577 0.000000 0.208894
O O5 0.884128 0.500000 0.307729
O O6 0.883999 0.601521 0.208627
O O7 0.884539 0.640084 0.343706
O O8 0.000000 0.581169 0.285957
O O9 0.376455 0.118837 0.069478
O O10 0.359134 0.000000 0.142134
O O11 0.113884 0.500000 0.000000
O O12 0.000000 0.585832 0.000000
O O13 0.246455 0.115798 0.568352
O O14 0.282741 0.000000 0.636196
O O15 0.122649 0.122649 0.500000
O O16 0.190557 0.000000 0.500000
#
# Coordination Sequence:
#
# PCOD8312157 Si02
#       6
#    16  16  16   8  16   8
#     4   9  16  26  37  47  61  83 112 146 181 210
#     4   8  12  20  34  49  65  84 101 118 150 199
#     4   8  14  22  32  48  67  83 101 128 163 198
#     4   9  14  20  33  52  69  81  94 117 155 202
#     4   8  15  25  35  48  64  80 101 132 171 209
#     4  10  18  27  37  47  61  81 107 143 184 216
#
# _framework density 12.537061
#
# number of rings (size 3 to 8) (size 9 to 14) (size 15 to 20)
#    0.000    3.500    0.000    3.600    0.000    2.700 
#    0.000    1.000    0.000    6.600    0.000    0.000 
#    0.000    4.000    0.000    0.000    0.000    0.200 
#
# Total GULP energy -991181.858187 kJ/mol
# GULP energy per Si atom -12389.773227 kJ/mol
# Density = 1.250853 g / cm^3
# Si number density = 12.537061 Si / 1000 Ang^3
#
#
#
# Elastic Constant Matrix: (Units=GPa)
#
#
# Indices 1 2 3 4 5 6 
#
# 1 55.9468 34.1212 31.6749 0.0000 0.0000 0.0000
# 2 34.1212 55.9468 31.6749 0.0000 0.0000 0.0000
# 3 31.6749 31.6749 92.3864 0.0000 0.0000 0.0000
# 4 0.0000 0.0000 0.0000 10.7008 0.0000 0.0000
# 5 0.0000 0.0000 0.0000 0.0000 10.7008 0.0000
# 6 0.0000 0.0000 0.0000 0.0000 0.0000 1.1738
#
#
#
# Elastic Compliance Matrix: (Units=1/GPa)
#
#
# Indices 1 2 3 4 5 6 
#
# 1 0.030224 -0.015593 -0.005016 0.000000 0.000000 0.000000
# 2 -0.015593 0.030224 -0.005016 0.000000 0.000000 0.000000
# 3 -0.005016 -0.005016 0.014264 0.000000 0.000000 0.000000
# 4 0.000000 0.000000 0.000000 0.093451 0.000000 0.000000
# 5 0.000000 0.000000 0.000000 0.000000 0.093451 0.000000
# 6 0.000000 0.000000 0.000000 0.000000 0.000000 0.851955
#
#
# Mechanical properties :
#
#
# Convention : Reuss Voigt Hill
#
# Bulk Modulus (GPa) = 42.62459 44.35799 43.49129
# Shear Modulus (GPa) = 4.26388 11.63567 7.94977
#
# Velocity S-wave (km/s) = 1.84619 3.04978 2.52087
# Velocity P-wave (km/s) = 6.21427 6.91808 6.57560
#
# Compressibility (1/GPa) = 0.02346064
#
# Stress axis : x y z
#
# Youngs Moduli (GPa) = 33.08589 33.08589 70.10763
#
# Poissons Ratio (x) = 0.51592 0.35168
# Poissons Ratio (y) = 0.51592 0.35168
# Poissons Ratio (z) = 0.16597 0.16597
#
# Static dielectric constant tensor:
#      x y z
#    x 2.367360 0.000000 0.000000 
#    y 0.000000 2.367360 0.000000 
#    z 0.000000 0.000000 2.967030 
# 
# 
# High freq. dielectric constant tensor:
#      x y z
#    x 1.438520 0.000000 0.000000 
#    y 0.000000 1.438520 0.000000 
#    z 0.000000 0.000000 1.481070 
# 
# From -- ./inp_files/5389.got.cif
#   From: 2010.03.12/outbox.cif.g09.slc.cpg/sg123_3_cif.got.tgz:5389.got - 2010.04.06 16:26:55.
