data_PCOD8312227
_publ_section_title
;
Structure prediction by ZEFSAII (Michael W. Deem and Ramdas Pophale) SiO2 
 PCOD8312227
Probable space group: P 4/M M M
;
_chemical_formula_sum "Si O2"
_cell_formula_units_Z 120
_cell_length_a 23.683648
_cell_length_b 23.683648
_cell_length_c 12.844314
_cell_angle_alpha 90.000000
_cell_angle_beta 90.000000
_cell_angle_gamma 90.000000
_cell_volume 7204.570733
_symmetry_space_group_name_H-M "P 4/M M M"
_symmetry_group_IT_number 123
_symmetry_cell_setting 'tetragonal'
loop_
_space_group_symop_operation_xyz
x,y,z
-y,x,z
-x,-y,z
y,-x,z
x,-y,-z
-x,y,-z
y,x,-z
-y,-x,-z
-x,-y,-z
y,-x,-z
x,y,-z
-y,x,-z
-x,y,z
x,-y,z
-y,-x,z
y,x,z
loop_
_atom_site_type_symbol
_atom_site_label
_atom_site_fract_x
_atom_site_fract_y
_atom_site_fract_z
Si Si1 0.933697 0.152516 0.000000
Si Si2 0.565431 0.240148 0.613704
Si Si3 0.735068 0.358268 0.113621
Si Si4 0.936428 0.346555 0.121266
Si Si5 0.219769 0.064127 0.198657
Si Si6 0.659227 0.565825 0.241884
Si Si7 0.147774 0.240623 0.378688
Si Si8 0.644015 0.164434 0.738233
O O1 0.911042 0.181275 0.894024
O O2 0.911345 0.088656 0.000000
O O3 0.000000 0.153806 0.000000
O O4 0.592918 0.239387 0.500000
O O5 0.500000 0.227375 0.611397
O O6 0.576990 0.303295 0.655668
O O7 0.590425 0.188138 0.677623
O O8 0.694630 0.305371 0.113640
O O9 0.700048 0.413412 0.149462
O O10 0.787980 0.338085 0.180238
O O11 0.758229 0.372989 0.000000
O O12 0.933037 0.281355 0.149530
O O13 0.891777 0.376259 0.199330
O O14 0.000000 0.369631 0.142201
O O15 0.920441 0.355941 0.000000
O O16 0.212554 0.100337 0.304340
O O17 0.203286 0.000000 0.227900
O O18 0.643729 0.500000 0.226182
O O19 0.601086 0.601086 0.248751
O O20 0.128023 0.239731 0.500000
O O21 0.206152 0.206152 0.366455
O O22 0.155388 0.305057 0.342476
#
# Coordination Sequence:
#
# PCOD8312227 Si02
#       8
#     8  16  16  16  16  16  16  16
#     4  10  18  29  46  66  90 120 157 201 243 283
#     4   9  18  33  51  69  90 118 154 194 232 274
#     4   9  17  29  44  64  92 122 154 195 238 280
#     4   9  16  28  46  69  97 123 148 181 223 274
#     4   9  17  30  47  65  88 123 163 194 226 276
#     4   9  18  31  47  69  95 124 159 196 236 283
#     4  10  20  31  43  65  98 126 151 191 241 291
#     4  10  18  29  48  70  91 119 155 189 232 281
#
# _framework density 16.656092999999998
#
# number of rings (size 3 to 8) (size 9 to 14) (size 15 to 20)
#    0.000    2.667    0.667    1.600    0.000    1.533 
#    0.000    0.000    0.000    2.800    0.000    5.600 
#    0.000    0.000    0.000   12.400    0.000    0.000 
#
# Total GULP energy -1486999.788353 kJ/mol
# GULP energy per Si atom -12391.664903 kJ/mol
# Density = 1.661818 g / cm^3
# Si number density = 16.656093 Si / 1000 Ang^3
#
#
#
# Elastic Constant Matrix: (Units=GPa)
#
#
# Indices 1 2 3 4 5 6 
#
# 1 60.4126 24.8315 37.0777 0.0000 0.0000 0.0000
# 2 24.8315 60.4146 37.0780 0.0000 0.0000 0.0000
# 3 37.0777 37.0780 130.8323 0.0000 0.0000 0.0000
# 4 0.0000 0.0000 0.0000 19.4121 0.0000 0.0000
# 5 0.0000 0.0000 0.0000 0.0000 19.4118 0.0000
# 6 0.0000 0.0000 0.0000 0.0000 0.0000 23.6344
#
#
#
# Elastic Compliance Matrix: (Units=1/GPa)
#
#
# Indices 1 2 3 4 5 6 
#
# 1 0.021837 -0.006267 -0.004412 0.000000 0.000000 0.000000
# 2 -0.006267 0.021836 -0.004412 0.000000 0.000000 0.000000
# 3 -0.004412 -0.004412 0.010144 0.000000 0.000000 0.000000
# 4 0.000000 0.000000 0.000000 0.051514 0.000000 0.000000
# 5 0.000000 0.000000 0.000000 0.000000 0.051515 0.000000
# 6 0.000000 0.000000 0.000000 0.000000 0.000000 0.042311
#
#
# Mechanical properties :
#
#
# Convention : Reuss Voigt Hill
#
# Bulk Modulus (GPa) = 42.31295 49.95934 46.13614
# Shear Modulus (GPa) = 21.07750 22.66982 21.87366
#
# Velocity S-wave (km/s) = 3.56118 3.69325 3.62781
# Velocity P-wave (km/s) = 6.50910 6.94597 6.73108
#
# Compressibility (1/GPa) = 0.02363343
#
# Stress axis : x y z
#
# Youngs Moduli (GPa) = 45.79376 45.79545 98.57785
#
# Poissons Ratio (x) = 0.28702 0.43496
# Poissons Ratio (y) = 0.28701 0.43495
# Poissons Ratio (z) = 0.20206 0.20206
#
# Static dielectric constant tensor:
#      x y z
#    x 3.094040 0.000000 0.000000 
#    y 0.000000 3.094040 0.000000 
#    z 0.000000 0.000000 3.472360 
# 
# 
# High freq. dielectric constant tensor:
#      x y z
#    x 1.627750 0.000000 0.000000 
#    y 0.000000 1.627750 0.000000 
#    z 0.000000 0.000000 1.651990 
# 
# From -- ./inp_files/3490.got.cif
#   From: 2010.03.12/outbox.cif.g09.slc.cpg/sg123_2_cif.got.tgz:3490.got - 2010.04.06 16:26:55.
