data_PCOD8312952
_publ_section_title
;
Structure prediction by ZEFSAII (Michael W. Deem and Ramdas Pophale) SiO2 
 PCOD8312952
Probable space group: P 4/M M M
;
_chemical_formula_sum "Si O2"
_cell_formula_units_Z 112
_cell_length_a 23.171744
_cell_length_b 23.171744
_cell_length_c 13.323518
_cell_angle_alpha 90.000000
_cell_angle_beta 90.000000
_cell_angle_gamma 90.000000
_cell_volume 7153.792789
_symmetry_space_group_name_H-M "P 4/M M M"
_symmetry_group_IT_number 123
_symmetry_cell_setting 'tetragonal'
loop_
_space_group_symop_operation_xyz
x,y,z
-y,x,z
-x,-y,z
y,-x,z
x,-y,-z
-x,y,-z
y,x,-z
-y,-x,-z
-x,-y,-z
y,-x,-z
x,y,-z
-y,x,-z
-x,y,z
x,-y,z
-y,-x,z
y,x,z
loop_
_atom_site_type_symbol
_atom_site_label
_atom_site_fract_x
_atom_site_fract_y
_atom_site_fract_z
Si Si1 0.432798 0.064707 0.114806
Si Si2 0.154377 0.935922 0.881086
Si Si3 0.342046 0.564817 0.302967
Si Si4 0.219276 0.566060 0.614626
Si Si5 0.632247 0.169990 0.206250
Si Si6 0.750877 0.153253 0.114646
Si Si7 0.708786 0.616981 0.887251
O O1 0.500000 0.077817 0.125759
O O2 0.398925 0.111026 0.178855
O O3 0.418733 0.000000 0.153939
O O4 0.413171 0.070102 0.000000
O O5 0.100159 0.899842 0.836974
O O6 0.214127 0.904117 0.854576
O O7 0.154518 0.000000 0.833675
O O8 0.148135 0.938881 0.000000
O O9 0.364978 0.500000 0.315977
O O10 0.392754 0.607247 0.336985
O O11 0.287472 0.577126 0.374024
O O12 0.323781 0.573577 0.187109
O O13 0.201152 0.576358 0.500000
O O14 0.204987 0.500000 0.648074
O O15 0.184626 0.612640 0.680690
O O16 0.700432 0.159551 0.196344
O O17 0.616349 0.223030 0.133475
O O18 0.791492 0.208509 0.122083
O O19 0.726914 0.148112 0.000000
O O20 0.681563 0.681563 0.874103
O O21 0.698844 0.594326 0.000000
#
# Coordination Sequence:
#
# PCOD8312952 Si02
#       7
#    16  16  16  16  16  16  16
#     4   9  18  30  41  59  90 117 135 165 204 236
#     4   8  14  24  37  55  83 121 161 194 218 238
#     4   9  18  31  46  65  88 114 142 172 212 261
#     4   9  19  35  51  66  84 104 132 179 229 261
#     4  11  18  27  47  67  80 108 149 174 204 263
#     4   9  17  27  38  58  91 121 142 173 215 255
#     4   9  17  28  42  63  90 114 140 179 217 248
#
# _framework density 15.656031
#
# number of rings (size 3 to 8) (size 9 to 14) (size 15 to 20)
#    0.000    2.857    0.000    3.429    0.000    3.714 
#    0.000    2.143    0.000    0.429    0.000    6.000 
#    0.000    0.000    0.000    0.429    0.000    0.714 
#
# Total GULP energy -1388334.577403 kJ/mol
# GULP energy per Si atom -12395.844441 kJ/mol
# Density = 1.562040 g / cm^3
# Si number density = 15.656031 Si / 1000 Ang^3
#
#
#
# Elastic Constant Matrix: (Units=GPa)
#
#
# Indices 1 2 3 4 5 6 
#
# 1 99.4092 52.2608 32.8641 0.0000 0.0000 0.0000
# 2 52.2608 99.4092 32.8641 0.0000 0.0000 0.0000
# 3 32.8641 32.8641 61.5360 0.0000 0.0000 0.0000
# 4 0.0000 0.0000 0.0000 13.0038 0.0000 0.0000
# 5 0.0000 0.0000 0.0000 0.0000 13.0038 0.0000
# 6 0.0000 0.0000 0.0000 0.0000 0.0000 18.6173
#
#
#
# Elastic Compliance Matrix: (Units=1/GPa)
#
#
# Indices 1 2 3 4 5 6 
#
# 1 0.014894 -0.006315 -0.004582 0.000000 0.000000 0.000000
# 2 -0.006315 0.014894 -0.004582 0.000000 0.000000 0.000000
# 3 -0.004582 -0.004582 0.021144 0.000000 0.000000 0.000000
# 4 0.000000 0.000000 0.000000 0.076901 0.000000 0.000000
# 5 0.000000 0.000000 0.000000 0.000000 0.076901 0.000000
# 6 0.000000 0.000000 0.000000 0.000000 0.000000 0.053713
#
#
# Mechanical properties :
#
#
# Convention : Reuss Voigt Hill
#
# Bulk Modulus (GPa) = 50.06133 55.14805 52.60469
# Shear Modulus (GPa) = 16.88829 18.41600 17.65214
#
# Velocity S-wave (km/s) = 3.28793 3.43343 3.36147
# Velocity P-wave (km/s) = 6.81610 7.14277 6.98134
#
# Compressibility (1/GPa) = 0.01997550
#
# Stress axis : x y z
#
# Youngs Moduli (GPa) = 67.14024 67.14024 47.29390
#
# Poissons Ratio (x) = 0.42402 0.21668
# Poissons Ratio (y) = 0.42402 0.21668
# Poissons Ratio (z) = 0.30761 0.30761
#
# Static dielectric constant tensor:
#      x y z
#    x 3.074990 0.000000 0.000000 
#    y 0.000000 3.074990 0.000000 
#    z 0.000000 0.000000 2.668890 
# 
# 
# High freq. dielectric constant tensor:
#      x y z
#    x 1.601170 0.000000 0.000000 
#    y 0.000000 1.601170 0.000000 
#    z 0.000000 0.000000 1.555490 
# 
# From -- ./inp_files/3421.got.cif
#   From: 2010.03.12/outbox.cif.g09.slc.cpg/sg123_2_cif.got.tgz:3421.got - 2010.04.06 16:26:55.
