data_PCOD8312125
_publ_section_title
;
Structure prediction by ZEFSAII (Michael W. Deem and Ramdas Pophale) SiO2 
 PCOD8312125
Probable space group: P 4/M M M
;
_chemical_formula_sum "Si O2"
_cell_formula_units_Z 84
_cell_length_a 20.472231
_cell_length_b 20.472231
_cell_length_c 12.061589
_cell_angle_alpha 90.000000
_cell_angle_beta 90.000000
_cell_angle_gamma 90.000000
_cell_volume 5055.159609
_symmetry_space_group_name_H-M "P 4/M M M"
_symmetry_group_IT_number 123
_symmetry_cell_setting 'tetragonal'
loop_
_space_group_symop_operation_xyz
x,y,z
-y,x,z
-x,-y,z
y,-x,z
x,-y,-z
-x,y,-z
y,x,-z
-y,-x,-z
-x,-y,-z
y,-x,-z
x,y,-z
-y,x,-z
-x,y,z
x,-y,z
-y,-x,z
y,x,z
loop_
_atom_site_type_symbol
_atom_site_label
_atom_site_fract_x
_atom_site_fract_y
_atom_site_fract_z
Si Si1 0.778654 0.500000 0.000000
Si Si2 0.182243 0.074596 0.228399
Si Si3 0.500000 0.606525 0.619260
Si Si4 0.157791 0.732801 0.624029
Si Si5 0.354927 0.750944 0.241510
Si Si6 0.641904 0.198709 0.000000
Si Si7 0.231302 0.875337 0.000000
Si Si8 0.277259 0.500000 0.767168
O O1 0.824128 0.565149 0.000000
O O2 0.728155 0.500000 0.898811
O O3 0.117213 0.117213 0.244591
O O4 0.238133 0.093874 0.316535
O O5 0.211344 0.083055 0.106116
O O6 0.162360 0.000000 0.248165
O O7 0.435712 0.564288 0.624007
O O8 0.500000 0.645131 0.500000
O O9 0.500000 0.648594 0.729614
O O10 0.139570 0.709221 0.500000
O O11 0.211439 0.788562 0.619841
O O12 0.185976 0.673130 0.695399
O O13 0.315622 0.684379 0.275924
O O14 0.431295 0.751921 0.278356
O O15 0.345462 0.758436 0.109554
O O16 0.690656 0.136897 0.000000
O O17 0.195130 0.804871 0.000000
#
# Coordination Sequence:
#
# PCOD8312125 Si02
#       8
#     4  16   8  16  16   8   8   8
#     4   8  20  30  42  73 103 124 152 196 256 308
#     4  10  20  33  51  77 106 135 164 194 231 278
#     4   9  18  32  46  58  80 122 170 206 237 286
#     4   9  18  32  49  70  95 124 163 209 248 280
#     4  10  18  29  47  70  96 127 161 203 251 296
#     4  10  16  29  49  71  97 128 162 199 245 297
#     4  10  17  29  51  76 100 130 170 206 238 281
#     4  10  19  30  45  69  98 124 156 200 254 311
#
# _framework density 16.616686999999999
#
# number of rings (size 3 to 8) (size 9 to 14) (size 15 to 20)
#    0.000    2.381    1.905    2.000    0.000    1.333 
#    0.000    3.333    0.000    2.286    0.000    6.000 
#    0.000    1.524    0.000    0.000    0.000    0.000 
#
# Total GULP energy -1040872.719686 kJ/mol
# GULP energy per Si atom -12391.341901 kJ/mol
# Density = 1.657887 g / cm^3
# Si number density = 16.616687 Si / 1000 Ang^3
#
#
#
# Elastic Constant Matrix: (Units=GPa)
#
#
# Indices 1 2 3 4 5 6 
#
# 1 100.7458 53.7394 40.6810 0.0000 0.0000 0.0000
# 2 53.7394 100.7460 40.6810 0.0000 0.0000 0.0000
# 3 40.6810 40.6810 100.4469 0.0000 0.0000 0.0000
# 4 0.0000 0.0000 0.0000 13.8845 0.0000 0.0000
# 5 0.0000 0.0000 0.0000 0.0000 13.8845 0.0000
# 6 0.0000 0.0000 0.0000 0.0000 0.0000 13.8299
#
#
#
# Elastic Compliance Matrix: (Units=1/GPa)
#
#
# Indices 1 2 3 4 5 6 
#
# 1 0.014751 -0.006523 -0.003332 0.000000 0.000000 0.000000
# 2 -0.006523 0.014751 -0.003332 0.000000 0.000000 0.000000
# 3 -0.003332 -0.003332 0.012655 0.000000 0.000000 0.000000
# 4 0.000000 0.000000 0.000000 0.072023 0.000000 0.000000
# 5 0.000000 0.000000 0.000000 0.000000 0.072023 0.000000
# 6 0.000000 0.000000 0.000000 0.000000 0.000000 0.072307
#
#
# Mechanical properties :
#
#
# Convention : Reuss Voigt Hill
#
# Bulk Modulus (GPa) = 63.36549 63.57129 63.46839
# Shear Modulus (GPa) = 17.23277 19.44227 18.33752
#
# Velocity S-wave (km/s) = 3.22386 3.42430 3.32559
# Velocity P-wave (km/s) = 7.21624 7.34677 7.28180
#
# Compressibility (1/GPa) = 0.01578146
#
# Stress axis : x y z
#
# Youngs Moduli (GPa) = 67.79237 67.79252 79.02166
#
# Poissons Ratio (x) = 0.44219 0.26333
# Poissons Ratio (y) = 0.44219 0.26333
# Poissons Ratio (z) = 0.22591 0.22591
#
# Static dielectric constant tensor:
#      x y z
#    x 2.997420 0.000000 0.000000 
#    y 0.000000 2.997410 0.000000 
#    z 0.000000 0.000000 3.370730 
# 
# 
# High freq. dielectric constant tensor:
#      x y z
#    x 1.617520 0.000000 0.000000 
#    y 0.000000 1.617520 0.000000 
#    z 0.000000 0.000000 1.650160 
# 
# From -- ./inp_files/3108.got.cif
#   From: 2010.03.12/outbox.cif.g09.slc.cpg/sg123_2_cif.got.tgz:3108.got - 2010.04.06 16:26:55.
