data_PCOD8312228
_publ_section_title
;
Structure prediction by ZEFSAII (Michael W. Deem and Ramdas Pophale) SiO2 
 PCOD8312228
Probable space group: P 4/M M M
;
_chemical_formula_sum "Si O2"
_cell_formula_units_Z 120
_cell_length_a 20.712920
_cell_length_b 20.712920
_cell_length_c 15.578055
_cell_angle_alpha 90.000000
_cell_angle_beta 90.000000
_cell_angle_gamma 90.000000
_cell_volume 6683.375902
_symmetry_space_group_name_H-M "P 4/M M M"
_symmetry_group_IT_number 123
_symmetry_cell_setting 'tetragonal'
loop_
_space_group_symop_operation_xyz
x,y,z
-y,x,z
-x,-y,z
y,-x,z
x,-y,-z
-x,y,-z
y,x,-z
-y,-x,-z
-x,-y,-z
y,-x,-z
x,y,-z
-y,x,-z
-x,y,z
x,-y,z
-y,-x,z
y,x,z
loop_
_atom_site_type_symbol
_atom_site_label
_atom_site_fract_x
_atom_site_fract_y
_atom_site_fract_z
Si Si1 0.212207 0.426494 0.761666
Si Si2 0.237849 0.924859 0.170192
Si Si3 0.927580 0.625169 0.762356
Si Si4 0.175676 0.076344 0.000000
Si Si5 0.693880 0.098924 0.593010
Si Si6 0.173548 0.072259 0.659685
Si Si7 0.239062 0.655457 0.596610
Si Si8 0.682604 0.575487 0.900685
O O1 0.228154 0.500000 0.749613
O O2 0.134421 0.420409 0.778247
O O3 0.235334 0.396709 0.671800
O O4 0.256261 0.401697 0.841641
O O5 0.313752 0.911998 0.177802
O O6 0.198444 0.896543 0.250576
O O7 0.223404 0.000000 0.170213
O O8 0.213292 0.894547 0.081646
O O9 0.932208 0.647070 0.663405
O O10 0.000000 0.595897 0.784468
O O11 0.102771 0.102771 0.000000
O O12 0.172063 0.000000 0.000000
O O13 0.664349 0.081147 0.500000
O O14 0.765711 0.070350 0.596213
O O15 0.699984 0.175887 0.604530
O O16 0.116329 0.116329 0.622650
O O17 0.145993 0.000000 0.670305
O O18 0.242298 0.624380 0.500000
O O19 0.301414 0.698587 0.613256
O O20 0.664565 0.500000 0.884021
O O21 0.620089 0.620089 0.879060
O O22 0.703286 0.585060 0.000000
#
# Coordination Sequence:
#
# PCOD8312228 Si02
#       8
#    16  16  16   8  16  16  16  16
#     4  10  20  33  51  75 106 141 170 205 253 297
#     4   8  16  31  47  62  81 109 146 192 240 281
#     4   9  18  33  51  70  94 126 165 206 249 295
#     4  10  18  29  46  66  91 119 149 189 240 300
#     4   9  17  30  49  70  88 111 151 203 254 292
#     4  10  19  29  41  57  80 109 142 183 232 288
#     4   9  17  30  50  75 101 130 166 205 244 293
#     4   9  18  34  56  81 109 139 170 206 250 300
#
# _framework density 17.954998
#
# number of rings (size 3 to 8) (size 9 to 14) (size 15 to 20)
#    0.000    2.800    0.000    2.400    0.000    2.733 
#    1.200    2.667    0.000    2.400    0.000    6.533 
#    0.000    0.000    0.000   12.400    0.000    0.133 
#
# Total GULP energy -1486610.838843 kJ/mol
# GULP energy per Si atom -12388.423657 kJ/mol
# Density = 1.791413 g / cm^3
# Si number density = 17.954998 Si / 1000 Ang^3
#
#
#
# Elastic Constant Matrix: (Units=GPa)
#
#
# Indices 1 2 3 4 5 6 
#
# 1 68.4074 36.2724 35.3378 0.0000 0.0000 0.0000
# 2 36.2724 68.4074 35.3378 0.0000 0.0000 0.0000
# 3 35.3378 35.3378 99.9664 0.0000 0.0000 0.0000
# 4 0.0000 0.0000 0.0000 19.8497 0.0000 0.0000
# 5 0.0000 0.0000 0.0000 0.0000 19.8497 0.0000
# 6 0.0000 0.0000 0.0000 0.0000 0.0000 20.3359
#
#
#
# Elastic Compliance Matrix: (Units=1/GPa)
#
#
# Indices 1 2 3 4 5 6 
#
# 1 0.021833 -0.009286 -0.004436 0.000000 0.000000 0.000000
# 2 -0.009286 0.021833 -0.004436 0.000000 0.000000 0.000000
# 3 -0.004436 -0.004436 0.013139 0.000000 0.000000 0.000000
# 4 0.000000 0.000000 0.000000 0.050379 0.000000 0.000000
# 5 0.000000 0.000000 0.000000 0.000000 0.050379 0.000000
# 6 0.000000 0.000000 0.000000 0.000000 0.000000 0.049174
#
#
# Mechanical properties :
#
#
# Convention : Reuss Voigt Hill
#
# Bulk Modulus (GPa) = 48.79871 50.07527 49.43699
# Shear Modulus (GPa) = 20.00952 20.66260 20.33606
#
# Velocity S-wave (km/s) = 3.34192 3.39602 3.36908
# Velocity P-wave (km/s) = 6.49066 6.58234 6.53666
#
# Compressibility (1/GPa) = 0.02049235
#
# Stress axis : x y z
#
# Youngs Moduli (GPa) = 45.80177 45.80177 76.10766
#
# Poissons Ratio (x) = 0.42530 0.33758
# Poissons Ratio (y) = 0.42530 0.33758
# Poissons Ratio (z) = 0.20316 0.20316
#
# Static dielectric constant tensor:
#      x y z
#    x 3.155330 0.000000 0.000000 
#    y 0.000000 3.155330 0.000000 
#    z 0.000000 0.000000 3.652490 
# 
# 
# High freq. dielectric constant tensor:
#      x y z
#    x 1.676100 0.000000 0.000000 
#    y 0.000000 1.676100 0.000000 
#    z 0.000000 0.000000 1.699800 
# 
# From -- ./inp_files/4581.got.cif
#   From: 2010.03.12/outbox.cif.g09.slc.cpg/sg123_3_cif.got.tgz:4581.got - 2010.04.06 16:26:55.
