data_PCOD8312685
_publ_section_title
;
Structure prediction by ZEFSAII (Michael W. Deem and Ramdas Pophale) SiO2 
 PCOD8312685
Probable space group: P 4/M M M
;
_chemical_formula_sum "Si O2"
_cell_formula_units_Z 88
_cell_length_a 12.790209
_cell_length_b 12.790209
_cell_length_c 29.892170
_cell_angle_alpha 90.000000
_cell_angle_beta 90.000000
_cell_angle_gamma 90.000000
_cell_volume 4890.043538
_symmetry_space_group_name_H-M "P 4/M M M"
_symmetry_group_IT_number 123
_symmetry_cell_setting 'tetragonal'
loop_
_space_group_symop_operation_xyz
x,y,z
-y,x,z
-x,-y,z
y,-x,z
x,-y,-z
-x,y,-z
y,x,-z
-y,-x,-z
-x,-y,-z
y,-x,-z
x,y,-z
-y,x,-z
-x,y,z
x,-y,z
-y,-x,z
y,x,z
loop_
_atom_site_type_symbol
_atom_site_label
_atom_site_fract_x
_atom_site_fract_y
_atom_site_fract_z
Si Si1 0.206085 0.621988 0.897091
Si Si2 0.120898 0.711339 0.809568
Si Si3 0.284382 0.121418 0.361153
Si Si4 0.383411 0.876079 0.548618
Si Si5 0.623941 0.000000 0.050439
Si Si6 0.619056 0.209445 0.722597
O O1 0.232715 0.500000 0.906598
O O2 0.307072 0.692929 0.909742
O O3 0.176574 0.634978 0.845112
O O4 0.106168 0.662705 0.925515
O O5 0.174867 0.825134 0.810737
O O6 0.132102 0.659343 0.761093
O O7 0.000000 0.726171 0.821372
O O8 0.176833 0.176833 0.346832
O O9 0.317193 0.166668 0.409755
O O10 0.372066 0.148609 0.324524
O O11 0.261478 0.000000 0.362729
O O12 0.334620 0.844247 0.500000
O O13 0.500000 0.829456 0.551985
O O14 0.389440 0.000000 0.552536
O O15 0.500000 0.000000 0.051460
O O16 0.667787 0.000000 0.000000
O O17 0.500000 0.240085 0.731049
O O18 0.683018 0.316983 0.722544
#
# Coordination Sequence:
#
# PCOD8312685 Si02
#       6
#    16  16  16  16   8  16
#     4  10  20  34  54  81 111 144 182 224 271 322
#     4  10  20  34  53  78 107 140 178 217 258 305
#     4  10  20  32  46  67  95 127 165 205 245 292
#     4   8  14  26  45  66  86 112 150 197 246 291
#     4   9  18  34  56  79 105 141 183 224 264 312
#     4  10  21  35  52  75 100 128 163 204 252 306
#
# _framework density 17.995749
#
# number of rings (size 3 to 8) (size 9 to 14) (size 15 to 20)
#    0.000    2.455    0.909    2.182    0.000    4.364 
#    0.000    0.000    0.000    6.818    0.000    5.727 
#    0.000    0.000    0.000   16.909    0.000    0.909 
#
# Total GULP energy -1090888.456751 kJ/mol
# GULP energy per Si atom -12396.459736 kJ/mol
# Density = 1.795479 g / cm^3
# Si number density = 17.995749 Si / 1000 Ang^3
#
#
#
# Elastic Constant Matrix: (Units=GPa)
#
#
# Indices 1 2 3 4 5 6 
#
# 1 92.6841 47.0433 28.0440 0.0000 0.0000 0.0000
# 2 47.0433 92.6841 28.0440 0.0000 0.0000 0.0000
# 3 28.0440 28.0440 102.7488 0.0000 0.0000 0.0000
# 4 0.0000 0.0000 0.0000 21.3950 0.0000 0.0000
# 5 0.0000 0.0000 0.0000 0.0000 21.3950 0.0000
# 6 0.0000 0.0000 0.0000 0.0000 0.0000 16.6475
#
#
#
# Elastic Compliance Matrix: (Units=1/GPa)
#
#
# Indices 1 2 3 4 5 6 
#
# 1 0.014974 -0.006936 -0.002194 0.000000 0.000000 0.000000
# 2 -0.006936 0.014974 -0.002194 0.000000 0.000000 0.000000
# 3 -0.002194 -0.002194 0.010930 0.000000 0.000000 0.000000
# 4 0.000000 0.000000 0.000000 0.046740 0.000000 0.000000
# 5 0.000000 0.000000 0.000000 0.000000 0.046740 0.000000
# 6 0.000000 0.000000 0.000000 0.000000 0.000000 0.060069
#
#
# Mechanical properties :
#
#
# Convention : Reuss Voigt Hill
#
# Bulk Modulus (GPa) = 54.85494 54.93106 54.89300
# Shear Modulus (GPa) = 22.40636 24.21986 23.31311
#
# Velocity S-wave (km/s) = 3.53241 3.67258 3.60318
# Velocity P-wave (km/s) = 6.86918 6.96955 6.91954
#
# Compressibility (1/GPa) = 0.01822990
#
# Stress axis : x y z
#
# Youngs Moduli (GPa) = 66.78334 66.78334 91.49167
#
# Poissons Ratio (x) = 0.46324 0.20071
# Poissons Ratio (y) = 0.46324 0.20071
# Poissons Ratio (z) = 0.14650 0.14650
#
# Static dielectric constant tensor:
#      x y z
#    x 3.116020 0.000000 0.000000 
#    y 0.000000 3.116020 0.000000 
#    z 0.000000 0.000000 3.643520 
# 
# 
# High freq. dielectric constant tensor:
#      x y z
#    x 1.678420 0.000000 0.000000 
#    y 0.000000 1.678420 0.000000 
#    z 0.000000 0.000000 1.713280 
# 
# From -- ./inp_files/8499.got.cif
#   From: 2010.03.12/outbox.cif.g09.slc.cpg/sg123_5_cif.got.tgz:8499.got - 2010.04.06 16:26:55.
