data_PCOD8312905
_publ_section_title
;
Structure prediction by ZEFSAII (Michael W. Deem and Ramdas Pophale) SiO2 
 PCOD8312905
Probable space group: P 4/M M M
;
_chemical_formula_sum "Si O2"
_cell_formula_units_Z 72
_cell_length_a 21.173564
_cell_length_b 21.173564
_cell_length_c 9.048723
_cell_angle_alpha 90.000000
_cell_angle_beta 90.000000
_cell_angle_gamma 90.000000
_cell_volume 4056.721798
_symmetry_space_group_name_H-M "P 4/M M M"
_symmetry_group_IT_number 123
_symmetry_cell_setting 'tetragonal'
loop_
_space_group_symop_operation_xyz
x,y,z
-y,x,z
-x,-y,z
y,-x,z
x,-y,-z
-x,y,-z
y,x,-z
-y,-x,-z
-x,-y,-z
y,-x,-z
x,y,-z
-y,x,-z
-x,y,z
x,-y,z
-y,-x,z
y,x,z
loop_
_atom_site_type_symbol
_atom_site_label
_atom_site_fract_x
_atom_site_fract_y
_atom_site_fract_z
Si Si1 0.073805 0.500000 0.673713
Si Si2 0.161445 0.596730 0.172594
Si Si3 0.400251 0.500000 0.674687
Si Si4 0.168398 0.727678 0.670383
Si Si5 0.831270 0.929875 0.675540
Si Si6 0.731548 0.500000 0.168691
O O1 0.086560 0.500000 0.500000
O O2 0.104173 0.436896 0.742114
O O3 0.000000 0.500000 0.711250
O O4 0.170551 0.667785 0.224741
O O5 0.227121 0.561544 0.205739
O O6 0.145086 0.594351 0.000000
O O7 0.437652 0.437652 0.730411
O O8 0.397722 0.500000 0.500000
O O9 0.329653 0.500000 0.731555
O O10 0.162520 0.706526 0.500000
O O11 0.231602 0.768399 0.693787
O O12 0.107483 0.768102 0.719991
O O13 0.835527 0.932935 0.500000
O O14 0.892660 0.892660 0.736888
O O15 0.829581 0.000000 0.745021
O O16 0.709266 0.500000 0.000000
#
# Coordination Sequence:
#
# PCOD8312905 Si02
#       6
#     8  16   8  16  16   8
#     4  10  21  37  57  79 102 131 168 208 252 307
#     4  10  21  36  53  75 104 134 166 209 256 301
#     4   9  19  35  53  75 102 129 160 200 243 287
#     4   9  18  32  49  71 101 136 173 212 254 302
#     4   8  14  25  42  66  96 128 163 205 250 295
#     4   9  20  36  51  71  98 127 159 197 243 291
#
# _framework density 17.748322000000002
#
# number of rings (size 3 to 8) (size 9 to 14) (size 15 to 20)
#    0.000    2.889    0.000    3.333    0.000    6.444 
#    0.000    8.333    0.000    0.000    0.000    0.000 
#    0.000    0.000    0.000    4.889    0.000    4.889 
#
# Total GULP energy -892683.590340 kJ/mol
# GULP energy per Si atom -12398.383199 kJ/mol
# Density = 1.770793 g / cm^3
# Si number density = 17.748322 Si / 1000 Ang^3
#
#
#
# Elastic Constant Matrix: (Units=GPa)
#
#
# Indices 1 2 3 4 5 6 
#
# 1 142.6484 66.9024 50.1226 0.0000 0.0000 0.0000
# 2 66.9024 142.6484 50.1226 0.0000 0.0000 0.0000
# 3 50.1226 50.1226 64.7253 0.0000 0.0000 0.0000
# 4 0.0000 0.0000 0.0000 12.0121 0.0000 0.0000
# 5 0.0000 0.0000 0.0000 0.0000 12.0121 0.0000
# 6 0.0000 0.0000 0.0000 0.0000 0.0000 12.5975
#
#
#
# Elastic Compliance Matrix: (Units=1/GPa)
#
#
# Indices 1 2 3 4 5 6 
#
# 1 0.010391 -0.002811 -0.005870 0.000000 0.000000 0.000000
# 2 -0.002811 0.010391 -0.005870 0.000000 0.000000 0.000000
# 3 -0.005870 -0.005870 0.024541 0.000000 0.000000 0.000000
# 4 0.000000 0.000000 0.000000 0.083249 0.000000 0.000000
# 5 0.000000 0.000000 0.000000 0.000000 0.083249 0.000000
# 6 0.000000 0.000000 0.000000 0.000000 0.000000 0.079381
#
#
# Mechanical properties :
#
#
# Convention : Reuss Voigt Hill
#
# Bulk Modulus (GPa) = 61.64629 76.03525 68.84077
# Shear Modulus (GPa) = 15.35095 19.51597 17.43346
#
# Velocity S-wave (km/s) = 2.94415 3.31961 3.13750
# Velocity P-wave (km/s) = 6.80928 7.59124 7.21087
#
# Compressibility (1/GPa) = 0.01622158
#
# Stress axis : x y z
#
# Youngs Moduli (GPa) = 96.23598 96.23598 40.74763
#
# Poissons Ratio (x) = 0.27051 0.23919
# Poissons Ratio (y) = 0.27051 0.23919
# Poissons Ratio (z) = 0.56491 0.56491
#
# Static dielectric constant tensor:
#      x y z
#    x 3.454420 0.000000 0.000000 
#    y 0.000000 3.454420 0.000000 
#    z 0.000000 0.000000 3.032720 
# 
# 
# High freq. dielectric constant tensor:
#      x y z
#    x 1.691180 0.000000 0.000000 
#    y 0.000000 1.691180 0.000000 
#    z 0.000000 0.000000 1.664320 
# 
# From -- ./inp_files/1223.got.cif
#   From: 2010.03.12/outbox.cif.g09.slc.cpg/sg123_1_cif.got.tgz:1223.got - 2010.04.06 16:26:55.
