data_PCOD8312714
_publ_section_title
;
Structure prediction by ZEFSAII (Michael W. Deem and Ramdas Pophale) SiO2 
 PCOD8312714
Probable space group: P 4/M M M
;
_chemical_formula_sum "Si O2"
_cell_formula_units_Z 120
_cell_length_a 20.953904
_cell_length_b 20.953904
_cell_length_c 15.001293
_cell_angle_alpha 90.000000
_cell_angle_beta 90.000000
_cell_angle_gamma 90.000000
_cell_volume 6586.559105
_symmetry_space_group_name_H-M "P 4/M M M"
_symmetry_group_IT_number 123
_symmetry_cell_setting 'tetragonal'
loop_
_space_group_symop_operation_xyz
x,y,z
-y,x,z
-x,-y,z
y,-x,z
x,-y,-z
-x,y,-z
y,x,-z
-y,-x,-z
-x,-y,-z
y,-x,-z
x,y,-z
-y,x,-z
-x,y,z
x,-y,z
-y,-x,z
y,x,z
loop_
_atom_site_type_symbol
_atom_site_label
_atom_site_fract_x
_atom_site_fract_y
_atom_site_fract_z
Si Si1 0.075984 0.181587 0.000000
Si Si2 0.348462 0.244597 0.903093
Si Si3 0.753437 0.855625 0.837967
Si Si4 0.075185 0.429597 0.902045
Si Si5 0.674303 0.428651 0.216833
Si Si6 0.426326 0.145330 0.398183
Si Si7 0.286509 0.612777 0.400852
Si Si8 0.345152 0.075041 0.258689
O O1 0.094747 0.222428 0.087184
O O2 0.114285 0.114285 0.000000
O O3 0.000000 0.168452 0.000000
O O4 0.308219 0.308219 0.912153
O O5 0.302757 0.187012 0.877499
O O6 0.402106 0.260126 0.828297
O O7 0.380252 0.229838 0.000000
O O8 0.811993 0.811993 0.804417
O O9 0.725193 0.893467 0.751655
O O10 0.104728 0.500000 0.887931
O O11 0.102442 0.382631 0.827820
O O12 0.000000 0.434318 0.891891
O O13 0.093640 0.403296 0.000000
O O14 0.662013 0.500000 0.182830
O O15 0.613154 0.386847 0.189394
O O16 0.681976 0.430115 0.324253
O O17 0.426723 0.122697 0.500000
O O18 0.500000 0.151195 0.364244
O O19 0.387494 0.210884 0.386588
O O20 0.385778 0.093103 0.345126
O O21 0.302274 0.584851 0.500000
O O22 0.314849 0.685152 0.392382
O O23 0.336489 0.000000 0.258668
#
# Coordination Sequence:
#
# PCOD8312714 Si02
#       8
#     8  16  16  16  16  16  16  16
#     4  10  20  35  56  82 113 147 178 208 246 298
#     4   9  17  32  52  72  96 127 167 213 259 302
#     4  10  20  35  54  76 104 136 171 214 262 307
#     4   8  15  28  44  63  90 125 163 202 243 288
#     4  10  20  32  49  73 100 133 171 213 264 320
#     4  10  21  36  54  76 103 137 177 219 264 319
#     4   9  18  34  55  76  97 123 161 211 262 308
#     4  11  22  33  50  75 102 135 174 213 256 308
#
# _framework density 18.218921000000002
#
# number of rings (size 3 to 8) (size 9 to 14) (size 15 to 20)
#    0.000    2.400    0.667    2.400    0.933    3.933 
#    0.000    1.333    0.000    0.000    0.000    3.733 
#    0.000    0.000    0.000    0.000    0.000    0.000 
#
# Total GULP energy -1486919.978355 kJ/mol
# GULP energy per Si atom -12390.999820 kJ/mol
# Density = 1.817745 g / cm^3
# Si number density = 18.218921 Si / 1000 Ang^3
#
#
#
# Elastic Constant Matrix: (Units=GPa)
#
#
# Indices 1 2 3 4 5 6 
#
# 1 91.7651 52.3077 39.1060 0.0000 0.0000 0.0000
# 2 52.3077 91.7651 39.1060 0.0000 0.0000 0.0000
# 3 39.1060 39.1060 72.8650 0.0000 0.0000 0.0000
# 4 0.0000 0.0000 0.0000 22.5427 0.0000 0.0000
# 5 0.0000 0.0000 0.0000 0.0000 22.5427 0.0000
# 6 0.0000 0.0000 0.0000 0.0000 0.0000 22.0125
#
#
#
# Elastic Compliance Matrix: (Units=1/GPa)
#
#
# Indices 1 2 3 4 5 6 
#
# 1 0.017569 -0.007775 -0.005257 0.000000 0.000000 0.000000
# 2 -0.007775 0.017569 -0.005257 0.000000 0.000000 0.000000
# 3 -0.005257 -0.005257 0.019366 0.000000 0.000000 0.000000
# 4 0.000000 0.000000 0.000000 0.044360 0.000000 0.000000
# 5 0.000000 0.000000 0.000000 0.000000 0.044360 0.000000
# 6 0.000000 0.000000 0.000000 0.000000 0.000000 0.045429
#
#
# Mechanical properties :
#
#
# Convention : Reuss Voigt Hill
#
# Bulk Modulus (GPa) = 55.77579 57.49274 56.63427
# Shear Modulus (GPa) = 21.62570 21.81127 21.71849
#
# Velocity S-wave (km/s) = 3.44901 3.46378 3.45640
# Velocity P-wave (km/s) = 6.82214 6.90088 6.86162
#
# Compressibility (1/GPa) = 0.01792893
#
# Stress axis : x y z
#
# Youngs Moduli (GPa) = 56.91781 56.91781 51.63569
#
# Poissons Ratio (x) = 0.44251 0.27143
# Poissons Ratio (y) = 0.44251 0.27143
# Poissons Ratio (z) = 0.29920 0.29920
#
# Static dielectric constant tensor:
#      x y z
#    x 3.319910 0.000000 0.000000 
#    y 0.000000 3.319910 0.000000 
#    z 0.000000 0.000000 3.502730 
# 
# 
# High freq. dielectric constant tensor:
#      x y z
#    x 1.694890 0.000000 0.000000 
#    y 0.000000 1.694890 0.000000 
#    z 0.000000 0.000000 1.698240 
# 
# From -- ./inp_files/4561.got.cif
#   From: 2010.03.12/outbox.cif.g09.slc.cpg/sg123_3_cif.got.tgz:4561.got - 2010.04.06 16:26:55.
