data_PCOD8312950
_publ_section_title
;
Structure prediction by ZEFSAII (Michael W. Deem and Ramdas Pophale) SiO2 
 PCOD8312950
Probable space group: P 4/M M M
;
_chemical_formula_sum "Si O2"
_cell_formula_units_Z 52
_cell_length_a 16.055650
_cell_length_b 16.055650
_cell_length_c 10.435480
_cell_angle_alpha 90.000000
_cell_angle_beta 90.000000
_cell_angle_gamma 90.000000
_cell_volume 2690.098701
_symmetry_space_group_name_H-M "P 4/M M M"
_symmetry_group_IT_number 123
_symmetry_cell_setting 'tetragonal'
loop_
_space_group_symop_operation_xyz
x,y,z
-y,x,z
-x,-y,z
y,-x,z
x,-y,-z
-x,y,-z
y,x,-z
-y,-x,-z
-x,-y,-z
y,-x,-z
x,y,-z
-y,x,-z
-x,y,z
x,-y,z
-y,-x,z
y,x,z
loop_
_atom_site_type_symbol
_atom_site_label
_atom_site_fract_x
_atom_site_fract_y
_atom_site_fract_z
Si Si1 0.228933 0.904366 0.000000
Si Si2 0.339461 0.097987 0.243457
Si Si3 0.500000 0.363548 0.764286
Si Si4 0.676506 0.185720 0.500000
Si Si5 0.500000 0.270886 0.500000
Si Si6 0.815887 0.500000 0.144708
O O1 0.279102 0.879613 0.873226
O O2 0.142322 0.857679 0.000000
O O3 0.205397 0.000000 0.000000
O O4 0.300433 0.129465 0.376732
O O5 0.422428 0.149932 0.222247
O O6 0.359076 0.000000 0.249363
O O7 0.582338 0.417663 0.791470
O O8 0.500000 0.332294 0.619544
O O9 0.500000 0.284420 0.858444
O O10 0.731088 0.268913 0.500000
O O11 0.579924 0.211043 0.500000
O O12 0.850358 0.500000 0.000000
#
# Coordination Sequence:
#
# PCOD8312950 Si02
#       6
#     8  16   8   8   4   8
#     4  10  22  40  63  91 120 156 198 244 303 366
#     4  11  23  40  63  90 123 160 202 249 304 366
#     4  11  24  41  58  81 118 162 208 254 296 347
#     4  12  23  39  62  91 125 159 203 251 304 360
#     4  12  22  35  59  86 110 152 198 252 295 345
#     4  12  24  40  61  90 119 161 204 254 306 355
#
# _framework density 19.330147
#
# number of rings (size 3 to 8) (size 9 to 14) (size 15 to 20)
#    0.000    0.769    4.615    3.231    0.000    3.231 
#    0.000    3.077    0.000    0.000    0.000    0.000 
#    0.000   11.077    0.000    0.000    0.000    0.000 
#
# Total GULP energy -645028.533162 kJ/mol
# GULP energy per Si atom -12404.394869 kJ/mol
# Density = 1.928615 g / cm^3
# Si number density = 19.330147 Si / 1000 Ang^3
#
#
#
# Elastic Constant Matrix: (Units=GPa)
#
#
# Indices 1 2 3 4 5 6 
#
# 1 104.0867 55.8899 41.7625 0.0000 0.0000 0.0000
# 2 55.8899 104.0780 41.7609 0.0000 0.0000 0.0000
# 3 41.7625 41.7609 153.1046 0.0000 0.0000 0.0000
# 4 0.0000 0.0000 0.0000 24.6607 0.0000 0.0000
# 5 0.0000 0.0000 0.0000 0.0000 24.6603 0.0000
# 6 0.0000 0.0000 0.0000 0.0000 0.0000 29.7282
#
#
#
# Elastic Compliance Matrix: (Units=1/GPa)
#
#
# Indices 1 2 3 4 5 6 
#
# 1 0.014019 -0.006730 -0.001988 0.000000 0.000000 0.000000
# 2 -0.006730 0.014020 -0.001988 0.000000 0.000000 0.000000
# 3 -0.001988 -0.001988 0.007616 0.000000 0.000000 0.000000
# 4 0.000000 0.000000 0.000000 0.040550 0.000000 0.000000
# 5 0.000000 0.000000 0.000000 0.000000 0.040551 0.000000
# 6 0.000000 0.000000 0.000000 0.000000 0.000000 0.033638
#
#
# Mechanical properties :
#
#
# Convention : Reuss Voigt Hill
#
# Bulk Modulus (GPa) = 70.21723 71.12176 70.66950
# Shear Modulus (GPa) = 28.31966 30.60026 29.45996
#
# Velocity S-wave (km/s) = 3.83175 3.98305 3.90813
# Velocity P-wave (km/s) = 7.48201 7.61748 7.55005
#
# Compressibility (1/GPa) = 0.01424152
#
# Stress axis : x y z
#
# Youngs Moduli (GPa) = 71.33150 71.32544 131.30034
#
# Poissons Ratio (x) = 0.48005 0.26105
# Poissons Ratio (y) = 0.48010 0.26106
# Poissons Ratio (z) = 0.14182 0.14182
#
# Static dielectric constant tensor:
#      x y z
#    x 3.466140 0.000000 0.000000 
#    y 0.000000 3.466140 0.000000 
#    z 0.000000 0.000000 3.818110 
# 
# 
# High freq. dielectric constant tensor:
#      x y z
#    x 1.749660 0.000000 0.000000 
#    y 0.000000 1.749660 0.000000 
#    z 0.000000 0.000000 1.773590 
# 
# From -- ./inp_files/2490.got.cif
#   From: 2010.03.12/outbox.cif.g09.slc.cpg/sg123_2_cif.got.tgz:2490.got - 2010.04.06 16:26:55.
