data_PCOD8312873
_publ_section_title
;
Structure prediction by ZEFSAII (Michael W. Deem and Ramdas Pophale) SiO2 
 PCOD8312873
Probable space group: P 4/M M M
;
_chemical_formula_sum "Si O2"
_cell_formula_units_Z 120
_cell_length_a 20.874640
_cell_length_b 20.874640
_cell_length_c 13.827942
_cell_angle_alpha 90.000000
_cell_angle_beta 90.000000
_cell_angle_gamma 90.000000
_cell_volume 6025.533956
_symmetry_space_group_name_H-M "P 4/M M M"
_symmetry_group_IT_number 123
_symmetry_cell_setting 'tetragonal'
loop_
_space_group_symop_operation_xyz
x,y,z
-y,x,z
-x,-y,z
y,-x,z
x,-y,-z
-x,y,-z
y,x,-z
-y,-x,-z
-x,-y,-z
y,-x,-z
x,y,-z
-y,x,-z
-x,y,z
x,-y,z
-y,-x,z
y,x,z
loop_
_atom_site_type_symbol
_atom_site_label
_atom_site_fract_x
_atom_site_fract_y
_atom_site_fract_z
Si Si1 0.256951 0.846044 0.108966
Si Si2 0.000000 0.575503 0.890731
Si Si3 0.741200 0.427873 0.895907
Si Si4 0.609792 0.134615 0.194963
Si Si5 0.810352 0.388091 0.607588
Si Si6 0.176699 0.073639 0.238048
Si Si7 0.245335 0.142583 0.392398
Si Si8 0.576478 0.320282 0.300291
O O1 0.223343 0.776658 0.116529
O O2 0.315483 0.846588 0.184384
O O3 0.206297 0.901208 0.137188
O O4 0.281132 0.859295 0.000000
O O5 0.061481 0.600205 0.833496
O O6 0.000000 0.500000 0.892615
O O7 0.000000 0.603020 0.000000
O O8 0.718071 0.500000 0.907197
O O9 0.817493 0.428264 0.875326
O O10 0.701728 0.398633 0.806281
O O11 0.728099 0.392698 0.000000
O O12 0.583581 0.145988 0.305079
O O13 0.828907 0.414803 0.500000
O O14 0.823544 0.313310 0.611624
O O15 0.735774 0.404827 0.624856
O O16 0.111441 0.111441 0.263915
O O17 0.232078 0.083445 0.320118
O O18 0.158666 0.000000 0.228423
O O19 0.231086 0.117276 0.500000
O O20 0.196997 0.196997 0.357581
O O21 0.500000 0.333127 0.304374
O O22 0.614543 0.385457 0.327524
#
# Coordination Sequence:
#
# PCOD8312873 Si02
#       8
#    16   8  16  16  16  16  16  16
#     4  10  21  35  51  77 111 141 175 227 287 339
#     4  11  24  40  59  87 123 161 199 233 269 328
#     4   9  18  34  55  80 113 152 194 239 286 339
#     4  11  21  35  58  85 116 153 193 236 286 343
#     4  10  21  38  60  85 112 147 191 240 292 346
#     4  10  21  36  54  77 109 146 187 234 281 337
#     4   9  17  32  55  81 108 140 178 226 285 338
#     4  10  22  38  58  86 118 154 197 245 298 360
#
# _framework density 19.915247000000001
#
# number of rings (size 3 to 8) (size 9 to 14) (size 15 to 20)
#    0.000    2.067    1.333    2.000    0.933    5.867 
#    0.000    0.333    0.000    0.400    0.000    6.533 
#    0.000    0.000    0.000    0.000    0.000    0.000 
#
# Total GULP energy -1486923.633148 kJ/mol
# GULP energy per Si atom -12391.030276 kJ/mol
# Density = 1.986992 g / cm^3
# Si number density = 19.915247 Si / 1000 Ang^3
#
#
#
# Elastic Constant Matrix: (Units=GPa)
#
#
# Indices 1 2 3 4 5 6 
#
# 1 87.3751 31.8251 27.1605 0.0000 0.0000 0.0000
# 2 31.8251 87.3751 27.1605 0.0000 0.0000 0.0000
# 3 27.1605 27.1605 127.9451 0.0000 0.0000 0.0000
# 4 0.0000 0.0000 0.0000 18.9292 0.0000 0.0000
# 5 0.0000 0.0000 0.0000 0.0000 18.9292 0.0000
# 6 0.0000 0.0000 0.0000 0.0000 0.0000 22.6186
#
#
#
# Elastic Compliance Matrix: (Units=1/GPa)
#
#
# Indices 1 2 3 4 5 6 
#
# 1 0.013645 -0.004357 -0.001972 0.000000 0.000000 0.000000
# 2 -0.004357 0.013645 -0.001972 0.000000 0.000000 0.000000
# 3 -0.001972 -0.001972 0.008653 0.000000 0.000000 0.000000
# 4 0.000000 0.000000 0.000000 0.052828 0.000000 0.000000
# 5 0.000000 0.000000 0.000000 0.000000 0.052828 0.000000
# 6 0.000000 0.000000 0.000000 0.000000 0.000000 0.044211
#
#
# Mechanical properties :
#
#
# Convention : Reuss Voigt Hill
#
# Bulk Modulus (GPa) = 51.70119 52.77641 52.23880
# Shear Modulus (GPa) = 23.93963 26.53200 25.23582
#
# Velocity S-wave (km/s) = 3.47086 3.65395 3.56358
# Velocity P-wave (km/s) = 6.48687 6.66032 6.57417
#
# Compressibility (1/GPa) = 0.01934191
#
# Stress axis : x y z
#
# Youngs Moduli (GPa) = 73.28809 73.28809 115.56772
#
# Poissons Ratio (x) = 0.31932 0.22786
# Poissons Ratio (y) = 0.31932 0.22786
# Poissons Ratio (z) = 0.14450 0.14450
#
# Static dielectric constant tensor:
#      x y z
#    x 3.352320 0.000000 0.000000 
#    y 0.000000 3.352320 0.000000 
#    z 0.000000 0.000000 4.149480 
# 
# 
# High freq. dielectric constant tensor:
#      x y z
#    x 1.756490 0.000000 0.000000 
#    y 0.000000 1.756490 0.000000 
#    z 0.000000 0.000000 1.792620 
# 
# From -- ./inp_files/4592.got.cif
#   From: 2010.03.12/outbox.cif.g09.slc.cpg/sg123_3_cif.got.tgz:4592.got - 2010.04.06 16:26:55.
