data_PCOD8312362
_publ_section_title
;
Structure prediction by ZEFSAII (Michael W. Deem and Ramdas Pophale) SiO2 
 PCOD8312362
Probable space group: P 4/M M M
;
_chemical_formula_sum "Si O2"
_cell_formula_units_Z 96
_cell_length_a 24.725069
_cell_length_b 24.725069
_cell_length_c 8.923778
_cell_angle_alpha 90.000000
_cell_angle_beta 90.000000
_cell_angle_gamma 90.000000
_cell_volume 5455.364612
_symmetry_space_group_name_H-M "P 4/M M M"
_symmetry_group_IT_number 123
_symmetry_cell_setting 'tetragonal'
loop_
_space_group_symop_operation_xyz
x,y,z
-y,x,z
-x,-y,z
y,-x,z
x,-y,-z
-x,y,-z
y,x,-z
-y,-x,-z
-x,-y,-z
y,-x,-z
x,y,-z
-y,x,-z
-x,y,z
x,-y,z
-y,-x,z
y,x,z
loop_
_atom_site_type_symbol
_atom_site_label
_atom_site_fract_x
_atom_site_fract_y
_atom_site_fract_z
Si Si1 0.736253 0.263748 0.327908
Si Si2 0.656028 0.343973 0.177899
Si Si3 0.289484 0.940787 0.667543
Si Si4 0.160465 0.709534 0.164449
Si Si5 0.582187 0.165454 0.833800
Si Si6 0.561870 0.721312 0.326466
Si Si7 0.059643 0.581993 0.668431
O O1 0.722688 0.277313 0.500000
O O2 0.700626 0.299374 0.216107
O O3 0.798369 0.274371 0.293939
O O4 0.676363 0.401199 0.244098
O O5 0.650584 0.349417 0.000000
O O6 0.268154 0.928666 0.500000
O O7 0.266244 0.897179 0.784209
O O8 0.353803 0.937728 0.667382
O O9 0.269895 0.000000 0.720176
O O10 0.158798 0.645660 0.154934
O O11 0.174951 0.733424 0.000000
O O12 0.567964 0.218358 0.737897
O O13 0.557750 0.110051 0.763127
O O14 0.557425 0.172840 0.000000
O O15 0.579283 0.723375 0.500000
O O16 0.500000 0.702149 0.307657
O O17 0.066027 0.559873 0.500000
O O18 0.000000 0.563930 0.731431
#
# Coordination Sequence:
#
# PCOD8312362 Si02
#       7
#     8   8  16  16  16  16  16
#     4  12  22  32  50  72 101 139 172 207 251 302
#     4  12  24  40  62  87 113 138 164 198 246 295
#     4   8  14  25  40  59  86 123 168 212 251 296
#     4  10  19  29  43  67  98 130 166 210 256 302
#     4  10  19  30  48  73 103 135 168 212 259 301
#     4  11  24  41  62  86 110 138 170 202 241 296
#     4   8  14  25  42  64  93 131 174 217 257 299
#
# _framework density 17.597356999999999
#
# number of rings (size 3 to 8) (size 9 to 14) (size 15 to 20)
#    0.000    2.167    1.667    4.000    0.000    3.333 
#    0.000    3.333    0.000    0.750    0.000    5.250 
#    0.000    0.000    0.000    0.000    0.000    0.417 
#
# Total GULP energy -1189646.257303 kJ/mol
# GULP energy per Si atom -12392.148514 kJ/mol
# Density = 1.755730 g / cm^3
# Si number density = 17.597357 Si / 1000 Ang^3
#
#
#
# Elastic Constant Matrix: (Units=GPa)
#
#
# Indices 1 2 3 4 5 6 
#
# 1 78.1965 40.0024 45.8192 0.0000 0.0000 0.0000
# 2 40.0024 78.1967 45.8192 0.0000 0.0000 0.0000
# 3 45.8192 45.8192 129.9787 0.0000 0.0000 0.0000
# 4 0.0000 0.0000 0.0000 12.4625 0.0000 0.0000
# 5 0.0000 0.0000 0.0000 0.0000 12.4625 0.0000
# 6 0.0000 0.0000 0.0000 0.0000 0.0000 -13.9939
#
#
#
# Elastic Compliance Matrix: (Units=1/GPa)
#
#
# Indices 1 2 3 4 5 6 
#
# 1 0.018912 -0.007270 -0.004104 0.000000 0.000000 0.000000
# 2 -0.007270 0.018912 -0.004104 0.000000 0.000000 0.000000
# 3 -0.004104 -0.004104 0.010587 0.000000 0.000000 0.000000
# 4 0.000000 0.000000 0.000000 0.080241 0.000000 0.000000
# 5 0.000000 0.000000 0.000000 0.000000 0.080241 0.000000
# 6 0.000000 0.000000 0.000000 0.000000 0.000000 -0.071460
#
#
# Mechanical properties :
#
#
# Convention : Reuss Voigt Hill
#
# Bulk Modulus (GPa) = 57.28952 61.07264 59.18108
# Shear Modulus (GPa) = 28.70140 12.50161 20.60150
#
# Velocity S-wave (km/s) = 4.04295 2.66827 3.42528
# Velocity P-wave (km/s) = 7.37702 6.65386 7.02475
#
# Compressibility (1/GPa) = 0.01745520
#
# Stress axis : x y z
#
# Youngs Moduli (GPa) = 52.87630 52.87647 94.45554
#
# Poissons Ratio (x) = 0.38441 0.38765
# Poissons Ratio (y) = 0.38441 0.38764
# Poissons Ratio (z) = 0.21700 0.21700
#
# Static dielectric constant tensor:
#      x y z
#    x 3.216120 0.000000 0.000000 
#    y 0.000000 3.216120 0.000000 
#    z 0.000000 0.000000 3.575820 
# 
# 
# High freq. dielectric constant tensor:
#      x y z
#    x 1.654220 0.000000 0.000000 
#    y 0.000000 1.654220 0.000000 
#    z 0.000000 0.000000 1.691400 
# 
# From -- ./inp_files/1708.got.cif
#   From: 2010.03.12/outbox.cif.g09.slc.cpg/sg123_1_cif.got.tgz:1708.got - 2010.04.06 16:26:55.
