data_PCOD8312388
_publ_section_title
;
Structure prediction by ZEFSAII (Michael W. Deem and Ramdas Pophale) SiO2 
 PCOD8312388
Probable space group: P 4/M M M
;
_chemical_formula_sum "Si O2"
_cell_formula_units_Z 64
_cell_length_a 12.580991
_cell_length_b 12.580991
_cell_length_c 23.836916
_cell_angle_alpha 90.000000
_cell_angle_beta 90.000000
_cell_angle_gamma 90.000000
_cell_volume 3772.938876
_symmetry_space_group_name_H-M "P 4/M M M"
_symmetry_group_IT_number 123
_symmetry_cell_setting 'tetragonal'
loop_
_space_group_symop_operation_xyz
x,y,z
-y,x,z
-x,-y,z
y,-x,z
x,-y,-z
-x,y,-z
y,x,-z
-y,-x,-z
-x,-y,-z
y,-x,-z
x,y,-z
-y,x,-z
-x,y,z
x,-y,z
-y,-x,z
y,x,z
loop_
_atom_site_type_symbol
_atom_site_label
_atom_site_fract_x
_atom_site_fract_y
_atom_site_fract_z
Si Si1 0.123131 0.500000 0.140902
Si Si2 0.671656 0.500000 0.933771
Si Si3 0.787261 0.624908 0.324081
Si Si4 0.293821 0.119681 0.785047
Si Si5 0.881533 0.625945 0.560717
O O1 0.209424 0.500000 0.091266
O O2 0.145709 0.396282 0.177774
O O3 0.000000 0.500000 0.118686
O O4 0.604988 0.604988 0.915160
O O5 0.686165 0.500000 0.000000
O O6 0.784368 0.500000 0.318829
O O7 0.670222 0.670222 0.309876
O O8 0.870888 0.672992 0.280106
O O9 0.815285 0.667170 0.386360
O O10 0.199180 0.199180 0.801886
O O11 0.253404 0.000000 0.795542
O O12 0.831629 0.660157 0.500000
O O13 0.887027 0.500000 0.564133
O O14 0.000000 0.673076 0.565068
#
# Coordination Sequence:
#
# PCOD8312388 Si02
#       5
#     8   8  16  16  16
#     4  10  19  32  52  76 104 134 167 207 243 288
#     4   9  18  33  53  77 107 141 172 204 242 282
#     4  10  19  30  44  62  89 122 156 198 244 292
#     4  10  20  33  50  72  97 128 164 203 249 294
#     4   8  14  25  42  61  78 102 142 192 242 290
#
# _framework density 16.962904999999999
#
# number of rings (size 3 to 8) (size 9 to 14) (size 15 to 20)
#    0.000    2.625    1.250    2.625    0.000    2.250 
#    0.000    0.000    0.000    0.000    0.000    3.500 
#    0.000    0.000    0.000   46.500    0.000    1.250 
#
# Total GULP energy -792983.002585 kJ/mol
# GULP energy per Si atom -12390.359415 kJ/mol
# Density = 1.692430 g / cm^3
# Si number density = 16.962905 Si / 1000 Ang^3
#
#
#
# Elastic Constant Matrix: (Units=GPa)
#
#
# Indices 1 2 3 4 5 6 
#
# 1 94.0742 62.1777 36.4373 0.0000 0.0000 0.0000
# 2 62.1777 94.0742 36.4373 0.0000 0.0000 0.0000
# 3 36.4373 36.4373 69.0374 0.0000 0.0000 0.0000
# 4 0.0000 0.0000 0.0000 21.4753 0.0000 0.0000
# 5 0.0000 0.0000 0.0000 0.0000 21.4753 0.0000
# 6 0.0000 0.0000 0.0000 0.0000 0.0000 20.5511
#
#
#
# Elastic Compliance Matrix: (Units=1/GPa)
#
#
# Indices 1 2 3 4 5 6 
#
# 1 0.019921 -0.011431 -0.004481 0.000000 0.000000 0.000000
# 2 -0.011431 0.019921 -0.004481 0.000000 0.000000 0.000000
# 3 -0.004481 -0.004481 0.019215 0.000000 0.000000 0.000000
# 4 0.000000 0.000000 0.000000 0.046565 0.000000 0.000000
# 5 0.000000 0.000000 0.000000 0.000000 0.046565 0.000000
# 6 0.000000 0.000000 0.000000 0.000000 0.000000 0.048659
#
#
# Mechanical properties :
#
#
# Convention : Reuss Voigt Hill
#
# Bulk Modulus (GPa) = 54.73150 58.58781 56.65965
# Shear Modulus (GPa) = 20.18405 20.84259 20.51332
#
# Velocity S-wave (km/s) = 3.45323 3.50911 3.48128
# Velocity P-wave (km/s) = 6.94515 7.14368 7.04512
#
# Compressibility (1/GPa) = 0.01827102
#
# Stress axis : x y z
#
# Youngs Moduli (GPa) = 50.19936 50.19936 52.04333
#
# Poissons Ratio (x) = 0.57382 0.23320
# Poissons Ratio (y) = 0.57382 0.23320
# Poissons Ratio (z) = 0.22493 0.22493
#
# Static dielectric constant tensor:
#      x y z
#    x 3.050380 0.000000 0.000000 
#    y 0.000000 3.050380 0.000000 
#    z 0.000000 0.000000 3.232990 
# 
# 
# High freq. dielectric constant tensor:
#      x y z
#    x 1.641850 0.000000 0.000000 
#    y 0.000000 1.641850 0.000000 
#    z 0.000000 0.000000 1.651490 
# 
# From -- ./inp_files/7058.got.cif
#   From: 2010.03.12/outbox.cif.g09.slc.cpg/sg123_4_cif.got.tgz:7058.got - 2010.04.06 16:26:55.
