data_PCOD8312657
_publ_section_title
;
Structure prediction by ZEFSAII (Michael W. Deem and Ramdas Pophale) SiO2 
 PCOD8312657
Probable space group: P 4/M M M
;
_chemical_formula_sum "Si O2"
_cell_formula_units_Z 104
_cell_length_a 24.514630
_cell_length_b 24.514630
_cell_length_c 15.626699
_cell_angle_alpha 90.000000
_cell_angle_beta 90.000000
_cell_angle_gamma 90.000000
_cell_volume 9391.131731
_symmetry_space_group_name_H-M "P 4/M M M"
_symmetry_group_IT_number 123
_symmetry_cell_setting 'tetragonal'
loop_
_space_group_symop_operation_xyz
x,y,z
-y,x,z
-x,-y,z
y,-x,z
x,-y,-z
-x,y,-z
y,x,-z
-y,-x,-z
-x,-y,-z
y,-x,-z
x,y,-z
-y,x,-z
-x,y,z
x,-y,z
-y,-x,z
y,x,z
loop_
_atom_site_type_symbol
_atom_site_label
_atom_site_fract_x
_atom_site_fract_y
_atom_site_fract_z
Si Si1 0.064668 0.754263 0.863576
Si Si2 0.364780 0.935440 0.093745
Si Si3 0.143914 0.940173 0.400329
Si Si4 0.064494 0.255263 0.672921
Si Si5 0.934997 0.438769 0.752458
Si Si6 0.065367 0.156601 0.000000
Si Si7 0.367131 0.064948 0.403957
O O1 0.087270 0.697072 0.901057
O O2 0.087601 0.757833 0.767154
O O3 0.000000 0.752637 0.865982
O O4 0.083073 0.807059 0.917807
O O5 0.402971 0.910864 0.168831
O O6 0.363422 0.000000 0.105739
O O7 0.388603 0.919718 0.000000
O O8 0.132481 0.944005 0.500000
O O9 0.100549 0.899452 0.356621
O O10 0.204928 0.918359 0.386788
O O11 0.136631 0.000000 0.357658
O O12 0.089303 0.310017 0.631541
O O13 0.000000 0.262923 0.678147
O O14 0.911778 0.500000 0.760048
O O15 0.915592 0.414217 0.661294
O O16 0.000000 0.438987 0.756685
O O17 0.100237 0.100237 0.000000
O O18 0.000000 0.143097 0.000000
O O19 0.378599 0.087473 0.500000
O O20 0.364165 0.000000 0.406917
#
# Coordination Sequence:
#
# PCOD8312657 Si02
#       7
#    16  16  16  16  16   8  16
#     4   9  15  25  40  52  61  77  98 120 144 175
#     4   9  14  22  36  49  62  80 102 124 145 168
#     4   9  17  27  37  49  63  76  91 115 149 190
#     4   9  15  24  38  51  61  74  98 125 146 172
#     4   9  16  23  30  45  68  88 105 124 144 167
#     4  10  20  31  42  56  69  81  99 123 157 203
#     4   9  15  22  33  47  63  85 108 127 146 169
#
# _framework density 11.074278
#
# number of rings (size 3 to 8) (size 9 to 14) (size 15 to 20)
#    0.000    2.923    2.308    0.462    0.000    3.308 
#    0.000    3.846    0.000    0.000    0.000    4.308 
#    0.000    0.000    0.000    0.000    0.000    0.000 
#
# Total GULP energy -1288494.363439 kJ/mol
# GULP energy per Si atom -12389.368879 kJ/mol
# Density = 1.104907 g / cm^3
# Si number density = 11.074278 Si / 1000 Ang^3
#
#
#
# Elastic Constant Matrix: (Units=GPa)
#
#
# Indices 1 2 3 4 5 6 
#
# 1 43.5682 23.1197 22.0270 0.0000 0.0000 0.0000
# 2 23.1197 43.5682 22.0270 0.0000 0.0000 0.0000
# 3 22.0270 22.0270 78.1997 0.0000 0.0000 0.0000
# 4 0.0000 0.0000 0.0000 11.1713 0.0000 0.0000
# 5 0.0000 0.0000 0.0000 0.0000 11.1713 0.0000
# 6 0.0000 0.0000 0.0000 0.0000 0.0000 0.2939
#
#
#
# Elastic Compliance Matrix: (Units=1/GPa)
#
#
# Indices 1 2 3 4 5 6 
#
# 1 0.033663 -0.015240 -0.005189 0.000000 0.000000 0.000000
# 2 -0.015240 0.033663 -0.005189 0.000000 0.000000 0.000000
# 3 -0.005189 -0.005189 0.015711 0.000000 0.000000 0.000000
# 4 0.000000 0.000000 0.000000 0.089515 0.000000 0.000000
# 5 0.000000 0.000000 0.000000 0.000000 0.089515 0.000000
# 6 0.000000 0.000000 0.000000 0.000000 0.000000 3.402967
#
#
# Mechanical properties :
#
#
# Convention : Reuss Voigt Hill
#
# Bulk Modulus (GPa) = 31.44627 33.29817 32.37222
# Shear Modulus (GPa) = 1.34161 11.07144 6.20652
#
# Velocity S-wave (km/s) = 1.10186 3.16530 2.36994
# Velocity P-wave (km/s) = 5.48418 6.59486 6.06500
#
# Compressibility (1/GPa) = 0.03180027
#
# Stress axis : x y z
#
# Youngs Moduli (GPa) = 29.70594 29.70594 63.64860
#
# Poissons Ratio (x) = 0.45272 0.33030
# Poissons Ratio (y) = 0.45272 0.33030
# Poissons Ratio (z) = 0.15416 0.15416
#
# Static dielectric constant tensor:
#      x y z
#    x 2.161330 0.000000 0.000000 
#    y 0.000000 2.161330 0.000000 
#    z 0.000000 0.000000 2.594800 
# 
# 
# High freq. dielectric constant tensor:
#      x y z
#    x 1.372730 0.000000 0.000000 
#    y 0.000000 1.372730 0.000000 
#    z 0.000000 0.000000 1.436190 
# 
# From -- ./inp_files/4661.got.cif
#   From: 2010.03.12/outbox.cif.g09.slc.cpg/sg123_3_cif.got.tgz:4661.got - 2010.04.06 16:26:55.
