data_PCOD8312421
_publ_section_title
;
Structure prediction by ZEFSAII (Michael W. Deem and Ramdas Pophale) SiO2 
 PCOD8312421
Probable space group: P 4/M M M
;
_chemical_formula_sum "Si O2"
_cell_formula_units_Z 88
_cell_length_a 14.142126
_cell_length_b 14.142126
_cell_length_c 28.115984
_cell_angle_alpha 90.000000
_cell_angle_beta 90.000000
_cell_angle_gamma 90.000000
_cell_volume 5623.189147
_symmetry_space_group_name_H-M "P 4/M M M"
_symmetry_group_IT_number 123
_symmetry_cell_setting 'tetragonal'
loop_
_space_group_symop_operation_xyz
x,y,z
-y,x,z
-x,-y,z
y,-x,z
x,-y,-z
-x,y,-z
y,x,-z
-y,-x,-z
-x,-y,-z
y,-x,-z
x,y,-z
-y,x,-z
-x,y,z
x,-y,z
-y,-x,z
y,x,z
loop_
_atom_site_type_symbol
_atom_site_label
_atom_site_fract_x
_atom_site_fract_y
_atom_site_fract_z
Si Si1 0.608582 0.761340 0.280101
Si Si2 0.762708 0.391259 0.172333
Si Si3 0.105408 0.388394 0.088376
Si Si4 0.767461 0.612468 0.000000
Si Si5 0.104561 0.387859 0.636902
Si Si6 0.391351 0.238305 0.553700
O O1 0.500000 0.736757 0.290987
O O2 0.665106 0.665106 0.288838
O O3 0.622204 0.798829 0.226336
O O4 0.646901 0.841628 0.315717
O O5 0.735457 0.500000 0.161901
O O6 0.668782 0.331219 0.162114
O O7 0.847264 0.356976 0.138142
O O8 0.095194 0.500000 0.085925
O O9 0.171703 0.354528 0.045403
O O10 0.000000 0.343221 0.084700
O O11 0.746094 0.500000 0.000000
O O12 0.667625 0.667625 0.000000
O O13 0.096773 0.500000 0.636897
O O14 0.158377 0.353108 0.589531
O O15 0.000000 0.342440 0.636909
O O16 0.378024 0.199881 0.500000
O O17 0.500000 0.263154 0.564474
O O18 0.334489 0.334489 0.562102
#
# Coordination Sequence:
#
# PCOD8312421 Si02
#       6
#    16  16  16   8  16  16
#     4   9  17  28  42  61  86 115 144 173 205 243
#     4   9  17  28  42  62  88 116 144 173 205 245
#     4   9  17  29  44  61  83 113 147 180 212 244
#     4  10  19  30  45  65  90 118 145 173 206 247
#     4   9  17  28  41  57  79 109 143 176 210 246
#     4   9  17  28  42  61  85 112 140 169 201 240
#
# _framework density 15.649482000000001
#
# number of rings (size 3 to 8) (size 9 to 14) (size 15 to 20)
#    0.000    2.909    0.000    1.364    0.000    2.818 
#    0.000    8.182    0.000    6.545    0.000    0.000 
#    0.000   20.727    0.000   24.000    0.000    2.182 
#
# Total GULP energy -1090934.257288 kJ/mol
# GULP energy per Si atom -12396.980196 kJ/mol
# Density = 1.561386 g / cm^3
# Si number density = 15.649482 Si / 1000 Ang^3
#
#
#
# Elastic Constant Matrix: (Units=GPa)
#
#
# Indices 1 2 3 4 5 6 
#
# 1 77.8797 41.0552 54.2732 0.0000 0.0000 0.0000
# 2 41.0552 77.8797 54.2732 0.0000 0.0000 0.0000
# 3 54.2732 54.2732 124.7252 0.0000 0.0000 0.0000
# 4 0.0000 0.0000 0.0000 21.8801 0.0000 0.0000
# 5 0.0000 0.0000 0.0000 0.0000 21.8801 0.0000
# 6 0.0000 0.0000 0.0000 0.0000 0.0000 3.9159
#
#
#
# Elastic Compliance Matrix: (Units=1/GPa)
#
#
# Indices 1 2 3 4 5 6 
#
# 1 0.020551 -0.006605 -0.006069 0.000000 0.000000 0.000000
# 2 -0.006605 0.020551 -0.006069 0.000000 0.000000 0.000000
# 3 -0.006069 -0.006069 0.013299 0.000000 0.000000 0.000000
# 4 0.000000 0.000000 0.000000 0.045704 0.000000 0.000000
# 5 0.000000 0.000000 0.000000 0.000000 0.045704 0.000000
# 6 0.000000 0.000000 0.000000 0.000000 0.000000 0.255368
#
#
# Mechanical properties :
#
#
# Convention : Reuss Voigt Hill
#
# Bulk Modulus (GPa) = 59.11081 64.40975 61.76028
# Shear Modulus (GPa) = 11.25366 18.26075 14.75721
#
# Velocity S-wave (km/s) = 2.68453 3.41964 3.07414
# Velocity P-wave (km/s) = 6.88931 7.53917 7.22155
#
# Compressibility (1/GPa) = 0.01691738
#
# Stress axis : x y z
#
# Youngs Moduli (GPa) = 48.65886 48.65886 75.19261
#
# Poissons Ratio (x) = 0.32137 0.45633
# Poissons Ratio (y) = 0.32137 0.45633
# Poissons Ratio (z) = 0.29530 0.29530
#
# Static dielectric constant tensor:
#      x y z
#    x 2.859540 0.000000 0.000000 
#    y 0.000000 2.859540 0.000000 
#    z 0.000000 0.000000 3.279330 
# 
# 
# High freq. dielectric constant tensor:
#      x y z
#    x 1.570300 0.000000 0.000000 
#    y 0.000000 1.570300 0.000000 
#    z 0.000000 0.000000 1.622840 
# 
# From -- ./inp_files/7959.got.cif
#   From: 2010.03.12/outbox.cif.g09.slc.cpg/sg123_4_cif.got.tgz:7959.got - 2010.04.06 16:26:55.
