data_PCOD8312762
_publ_section_title
;
Structure prediction by ZEFSAII (Michael W. Deem and Ramdas Pophale) SiO2 
 PCOD8312762
Probable space group: P 4/M M M
;
_chemical_formula_sum "Si O2"
_cell_formula_units_Z 72
_cell_length_a 13.336256
_cell_length_b 13.336256
_cell_length_c 23.067829
_cell_angle_alpha 90.000000
_cell_angle_beta 90.000000
_cell_angle_gamma 90.000000
_cell_volume 4102.745430
_symmetry_space_group_name_H-M "P 4/M M M"
_symmetry_group_IT_number 123
_symmetry_cell_setting 'tetragonal'
loop_
_space_group_symop_operation_xyz
x,y,z
-y,x,z
-x,-y,z
y,-x,z
x,-y,-z
-x,y,-z
y,x,-z
-y,-x,-z
-x,-y,-z
y,-x,-z
x,y,-z
-y,x,-z
-x,y,z
x,-y,z
-y,-x,z
y,x,z
loop_
_atom_site_type_symbol
_atom_site_label
_atom_site_fract_x
_atom_site_fract_y
_atom_site_fract_z
Si Si1 0.279615 0.881807 0.895031
Si Si2 0.616869 0.782658 0.000000
Si Si3 0.388285 0.881209 0.778262
Si Si4 0.116185 0.277838 0.336507
Si Si5 0.777535 0.614932 0.565888
O O1 0.173447 0.826554 0.904522
O O2 0.358136 0.849731 0.944104
O O3 0.325340 0.846944 0.833893
O O4 0.259370 0.000000 0.897979
O O5 0.500000 0.754918 0.000000
O O6 0.679260 0.679260 0.000000
O O7 0.500000 0.834506 0.781294
O O8 0.334078 0.842162 0.720394
O O9 0.396303 0.000000 0.776540
O O10 0.173061 0.173061 0.344099
O O11 0.133696 0.348456 0.392179
O O12 0.000000 0.251868 0.330882
O O13 0.814482 0.631056 0.500000
O O14 0.751877 0.500000 0.578493
O O15 0.676445 0.676445 0.578942
#
# Coordination Sequence:
#
# PCOD8312762 Si02
#       5
#    16   8  16  16  16
#     4  10  20  33  50  74 103 135 171 207 244 290
#     4  10  21  36  54  76 100 128 165 208 254 304
#     4   9  17  30  49  71  94 123 160 201 244 287
#     4  10  20  33  49  70  97 129 166 206 246 291
#     4   9  18  32  50  73  99 126 158 197 242 293
#
# _framework density 17.549223000000001
#
# number of rings (size 3 to 8) (size 9 to 14) (size 15 to 20)
#    0.000    2.444    0.000    2.333    0.000    4.333 
#    0.000    2.222    0.000    6.000    0.000    3.111 
#    0.000   16.000    0.000    0.000    0.000    0.000 
#
# Total GULP energy -892911.142353 kJ/mol
# GULP energy per Si atom -12401.543644 kJ/mol
# Density = 1.750928 g / cm^3
# Si number density = 17.549223 Si / 1000 Ang^3
#
#
#
# Elastic Constant Matrix: (Units=GPa)
#
#
# Indices 1 2 3 4 5 6 
#
# 1 93.6322 37.3204 44.2081 0.0000 0.0000 0.0000
# 2 37.3204 93.6322 44.2081 0.0000 0.0000 0.0000
# 3 44.2081 44.2081 129.3360 0.0000 0.0000 0.0000
# 4 0.0000 0.0000 0.0000 26.0497 0.0000 0.0000
# 5 0.0000 0.0000 0.0000 0.0000 26.0497 0.0000
# 6 0.0000 0.0000 0.0000 0.0000 0.0000 12.2357
#
#
#
# Elastic Compliance Matrix: (Units=1/GPa)
#
#
# Indices 1 2 3 4 5 6 
#
# 1 0.013843 -0.003915 -0.003393 0.000000 0.000000 0.000000
# 2 -0.003915 0.013843 -0.003393 0.000000 0.000000 0.000000
# 3 -0.003393 -0.003393 0.010051 0.000000 0.000000 0.000000
# 4 0.000000 0.000000 0.000000 0.038388 0.000000 0.000000
# 5 0.000000 0.000000 0.000000 0.000000 0.038388 0.000000
# 6 0.000000 0.000000 0.000000 0.000000 0.000000 0.081728
#
#
# Mechanical properties :
#
#
# Convention : Reuss Voigt Hill
#
# Bulk Modulus (GPa) = 61.22488 63.11929 62.17209
# Shear Modulus (GPa) = 22.41247 25.59126 24.00186
#
# Velocity S-wave (km/s) = 3.57756 3.82285 3.70224
# Velocity P-wave (km/s) = 7.21308 7.45189 7.33346
#
# Compressibility (1/GPa) = 0.01633323
#
# Stress axis : x y z
#
# Youngs Moduli (GPa) = 72.23957 72.23957 99.48768
#
# Poissons Ratio (x) = 0.28285 0.33759
# Poissons Ratio (y) = 0.28285 0.33759
# Poissons Ratio (z) = 0.24513 0.24513
#
# Static dielectric constant tensor:
#      x y z
#    x 3.097270 0.000000 0.000000 
#    y 0.000000 3.097270 0.000000 
#    z 0.000000 0.000000 3.536540 
# 
# 
# High freq. dielectric constant tensor:
#      x y z
#    x 1.666530 0.000000 0.000000 
#    y 0.000000 1.666530 0.000000 
#    z 0.000000 0.000000 1.698100 
# 
# From -- ./inp_files/7852.got.cif
#   From: 2010.03.12/outbox.cif.g09.slc.cpg/sg123_4_cif.got.tgz:7852.got - 2010.04.06 16:26:55.
