data_PCOD8312573
_publ_section_title
;
Structure prediction by ZEFSAII (Michael W. Deem and Ramdas Pophale) SiO2 
 PCOD8312573
Probable space group: P 4/M M M
;
_chemical_formula_sum "Si O2"
_cell_formula_units_Z 88
_cell_length_a 18.952728
_cell_length_b 18.952728
_cell_length_c 15.125680
_cell_angle_alpha 90.000000
_cell_angle_beta 90.000000
_cell_angle_gamma 90.000000
_cell_volume 5433.233477
_symmetry_space_group_name_H-M "P 4/M M M"
_symmetry_group_IT_number 123
_symmetry_cell_setting 'tetragonal'
loop_
_space_group_symop_operation_xyz
x,y,z
-y,x,z
-x,-y,z
y,-x,z
x,-y,-z
-x,y,-z
y,x,-z
-y,-x,-z
-x,-y,-z
y,-x,-z
x,y,-z
-y,x,-z
-x,y,z
x,-y,z
-y,-x,z
y,x,z
loop_
_atom_site_type_symbol
_atom_site_label
_atom_site_fract_x
_atom_site_fract_y
_atom_site_fract_z
Si Si1 0.306320 0.419129 0.600273
Si Si2 0.079707 0.661514 0.325197
Si Si3 0.923187 0.813745 0.600512
Si Si4 0.916671 0.578732 0.500000
Si Si5 0.658899 0.773809 0.751488
Si Si6 0.306003 0.419243 0.898785
O O1 0.277146 0.412209 0.500000
O O2 0.315746 0.500000 0.628520
O O3 0.382813 0.382813 0.609136
O O4 0.251312 0.381265 0.663971
O O5 0.076064 0.743241 0.344884
O O6 0.106604 0.618797 0.411090
O O7 0.140474 0.657110 0.250148
O O8 0.000000 0.636547 0.294683
O O9 0.902992 0.795404 0.500000
O O10 0.867253 0.867253 0.642969
O O11 0.000000 0.849987 0.604836
O O12 0.883200 0.500000 0.500000
O O13 0.000000 0.574472 0.500000
O O14 0.737275 0.737275 0.753444
O O15 0.616319 0.753898 0.839343
O O16 0.316845 0.500000 0.870842
O O17 0.380618 0.380618 0.882812
O O18 0.281093 0.412180 0.000000
#
# Coordination Sequence:
#
# PCOD8312573 Si02
#       6
#    16  16  16   8  16  16
#     4   9  18  30  43  62  88 118 151 184 219 262
#     4  10  19  32  46  62  85 117 157 196 233 271
#     4   9  16  26  41  61  86 116 149 186 229 276
#     4   9  18  30  41  56  79 109 149 194 233 264
#     4  10  20  32  47  69  93 119 152 188 230 278
#     4   9  18  33  53  76 100 124 151 186 230 280
#
# _framework density 16.196617
#
# number of rings (size 3 to 8) (size 9 to 14) (size 15 to 20)
#    0.000    2.636    0.909    1.091    1.273    2.000 
#    0.000    2.727    0.000    3.818    0.000    1.273 
#    0.000    0.000    0.000    0.000    0.000    0.000 
#
# Total GULP energy -1090525.738100 kJ/mol
# GULP energy per Si atom -12392.337933 kJ/mol
# Density = 1.615975 g / cm^3
# Si number density = 16.196617 Si / 1000 Ang^3
#
#
#
# Elastic Constant Matrix: (Units=GPa)
#
#
# Indices 1 2 3 4 5 6 
#
# 1 99.3295 35.0390 35.2407 0.0000 0.0000 0.0000
# 2 35.0390 99.3295 35.2407 0.0000 0.0000 0.0000
# 3 35.2407 35.2407 58.3783 0.0000 0.0000 0.0000
# 4 0.0000 0.0000 0.0000 19.2609 0.0000 0.0000
# 5 0.0000 0.0000 0.0000 0.0000 19.2609 0.0000
# 6 0.0000 0.0000 0.0000 0.0000 0.0000 13.6103
#
#
#
# Elastic Compliance Matrix: (Units=1/GPa)
#
#
# Indices 1 2 3 4 5 6 
#
# 1 0.013223 -0.002332 -0.006574 0.000000 0.000000 0.000000
# 2 -0.002332 0.013223 -0.006574 0.000000 0.000000 0.000000
# 3 -0.006574 -0.006574 0.025067 0.000000 0.000000 0.000000
# 4 0.000000 0.000000 0.000000 0.051919 0.000000 0.000000
# 5 0.000000 0.000000 0.000000 0.000000 0.051919 0.000000
# 6 0.000000 0.000000 0.000000 0.000000 0.000000 0.073474
#
#
# Mechanical properties :
#
#
# Convention : Reuss Voigt Hill
#
# Bulk Modulus (GPa) = 48.65902 52.00867 50.33384
# Shear Modulus (GPa) = 18.75227 20.52754 19.63990
#
# Velocity S-wave (km/s) = 3.40632 3.56391 3.48601
# Velocity P-wave (km/s) = 6.75119 7.00827 6.88093
#
# Compressibility (1/GPa) = 0.02055118
#
# Stress axis : x y z
#
# Youngs Moduli (GPa) = 75.62850 75.62850 39.89327
#
# Poissons Ratio (x) = 0.17636 0.26227
# Poissons Ratio (y) = 0.17636 0.26227
# Poissons Ratio (z) = 0.49720 0.49720
#
# Static dielectric constant tensor:
#      x y z
#    x 3.194400 0.000000 0.000000 
#    y 0.000000 3.194400 0.000000 
#    z 0.000000 0.000000 2.835610 
# 
# 
# High freq. dielectric constant tensor:
#      x y z
#    x 1.623110 0.000000 0.000000 
#    y 0.000000 1.623110 0.000000 
#    z 0.000000 0.000000 1.582840 
# 
# From -- ./inp_files/4117.got.cif
#   From: 2010.03.12/outbox.cif.g09.slc.cpg/sg123_3_cif.got.tgz:4117.got - 2010.04.06 16:26:55.
