data_PCOD8312591
_publ_section_title
;
Structure prediction by ZEFSAII (Michael W. Deem and Ramdas Pophale) SiO2 
 PCOD8312591
Probable space group: P 4/M M M
;
_chemical_formula_sum "Si O2"
_cell_formula_units_Z 88
_cell_length_a 12.286313
_cell_length_b 12.286313
_cell_length_c 32.884345
_cell_angle_alpha 90.000000
_cell_angle_beta 90.000000
_cell_angle_gamma 90.000000
_cell_volume 4964.006550
_symmetry_space_group_name_H-M "P 4/M M M"
_symmetry_group_IT_number 123
_symmetry_cell_setting 'tetragonal'
loop_
_space_group_symop_operation_xyz
x,y,z
-y,x,z
-x,-y,z
y,-x,z
x,-y,-z
-x,y,-z
y,x,-z
-y,-x,-z
-x,-y,-z
y,-x,-z
x,y,-z
-y,x,-z
-x,y,z
x,-y,z
-y,-x,z
y,x,z
loop_
_atom_site_type_symbol
_atom_site_label
_atom_site_fract_x
_atom_site_fract_y
_atom_site_fract_z
Si Si1 0.200968 0.379004 0.585019
Si Si2 0.621340 0.198862 0.000000
Si Si3 0.699336 0.874330 0.500000
Si Si4 0.373652 0.000000 0.643432
Si Si5 0.813151 0.000000 0.711614
Si Si6 0.625360 0.000000 0.220723
Si Si7 0.703895 0.122434 0.917693
Si Si8 0.206173 0.620257 0.164750
O O1 0.247032 0.500000 0.591096
O O2 0.297845 0.297845 0.595033
O O3 0.157652 0.369976 0.539244
O O4 0.105006 0.354961 0.616106
O O5 0.639951 0.125849 0.960167
O O6 0.500000 0.244010 0.000000
O O7 0.695823 0.304178 0.000000
O O8 0.815078 0.815078 0.500000
O O9 0.727207 0.000000 0.500000
O O10 0.500000 0.000000 0.661115
O O11 0.273114 0.000000 0.674724
O O12 0.727676 0.000000 0.748782
O O13 0.891849 0.891849 0.711536
O O14 0.641637 0.103008 0.192431
O O15 0.500000 0.000000 0.239467
O O16 0.819968 0.180033 0.922388
O O17 0.632980 0.178469 0.882721
O O18 0.728035 0.000000 0.904964
O O19 0.252672 0.500000 0.171177
O O20 0.298077 0.701924 0.179707
#
# Coordination Sequence:
#
# PCOD8312591 Si02
#       8
#    16   8   8   8   8   8  16  16
#     4  10  20  33  52  77 106 142 182 226 270 314
#     4  10  21  34  50  72  98 132 173 216 258 302
#     4  10  19  32  50  74 106 143 186 229 268 314
#     4  10  20  36  58  79 104 140 183 219 258 315
#     4  11  23  38  57  82 113 140 165 210 266 318
#     4  10  20  37  60  81 105 136 174 212 252 307
#     4  10  20  34  51  74 103 135 174 214 254 302
#     4  10  20  34  54  79 107 138 172 213 258 306
#
# _framework density 17.727616999999999
#
# number of rings (size 3 to 8) (size 9 to 14) (size 15 to 20)
#    0.000    1.909    1.818    2.455    0.000    2.545 
#    0.000    0.000    0.000    6.545    0.000    0.000 
#    0.000   13.091    0.000    0.000    0.000    0.000 
#
# Total GULP energy -1090704.046682 kJ/mol
# GULP energy per Si atom -12394.364167 kJ/mol
# Density = 1.768727 g / cm^3
# Si number density = 17.727617 Si / 1000 Ang^3
#
#
#
# Elastic Constant Matrix: (Units=GPa)
#
#
# Indices 1 2 3 4 5 6 
#
# 1 134.0435 79.6130 46.5765 0.0000 0.0000 0.0000
# 2 79.6130 134.0448 46.5762 0.0000 0.0000 0.0000
# 3 46.5765 46.5762 91.2950 0.0000 0.0000 0.0000
# 4 0.0000 0.0000 0.0000 26.1226 0.0000 0.0000
# 5 0.0000 0.0000 0.0000 0.0000 26.1228 0.0000
# 6 0.0000 0.0000 0.0000 0.0000 0.0000 8.0639
#
#
#
# Elastic Compliance Matrix: (Units=1/GPa)
#
#
# Indices 1 2 3 4 5 6 
#
# 1 0.012196 -0.006176 -0.003071 0.000000 0.000000 0.000000
# 2 -0.006176 0.012195 -0.003071 0.000000 0.000000 0.000000
# 3 -0.003071 -0.003071 0.014087 0.000000 0.000000 0.000000
# 4 0.000000 0.000000 0.000000 0.038281 0.000000 0.000000
# 5 0.000000 0.000000 0.000000 0.000000 0.038281 0.000000
# 6 0.000000 0.000000 0.000000 0.000000 0.000000 0.124010
#
#
# Mechanical properties :
#
#
# Convention : Reuss Voigt Hill
#
# Bulk Modulus (GPa) = 72.24442 78.32387 75.28414
# Shear Modulus (GPa) = 18.63589 24.50304 21.56947
#
# Velocity S-wave (km/s) = 3.24579 3.72182 3.49193
# Velocity P-wave (km/s) = 7.40863 7.92130 7.66925
#
# Compressibility (1/GPa) = 0.01384190
#
# Stress axis : x y z
#
# Youngs Moduli (GPa) = 81.99646 81.99767 70.98816
#
# Poissons Ratio (x) = 0.50644 0.21800
# Poissons Ratio (y) = 0.50643 0.21799
# Poissons Ratio (z) = 0.25181 0.25180
#
# Static dielectric constant tensor:
#      x y z
#    x 3.350240 0.000000 0.000000 
#    y 0.000000 3.350240 0.000000 
#    z 0.000000 0.000000 3.351340 
# 
# 
# High freq. dielectric constant tensor:
#      x y z
#    x 1.691100 0.000000 0.000000 
#    y 0.000000 1.691100 0.000000 
#    z 0.000000 0.000000 1.685150 
# 
# From -- ./inp_files/8561.got.cif
#   From: 2010.03.12/outbox.cif.g09.slc.cpg/sg123_5_cif.got.tgz:8561.got - 2010.04.06 16:26:55.
