data_PCOD8312078
_publ_section_title
;
Structure prediction by ZEFSAII (Michael W. Deem and Ramdas Pophale) SiO2 
 PCOD8312078
Probable space group: I -4 2 D
;
_chemical_formula_sum "Si O2"
_cell_formula_units_Z 40
_cell_length_a 18.755783
_cell_length_b 18.755783
_cell_length_c 5.062674
_cell_angle_alpha 90.000000
_cell_angle_beta 90.000000
_cell_angle_gamma 90.000000
_cell_volume 1780.944402
_symmetry_space_group_name_H-M "I -4 2 D"
_symmetry_group_IT_number 122
_symmetry_cell_setting 'tetragonal'
loop_
_space_group_symop_operation_xyz
x,y,z
y,-x,-z
-x,-y,z
-y,x,-z
x,1/2-y,1/4-z
-x,1/2+y,1/4-z
-y,1/2-x,1/4+z
y,1/2+x,1/4+z
1/2+x,1/2+y,1/2+z
1/2+y,1/2-x,1/2-z
1/2-x,1/2-y,1/2+z
1/2-y,1/2+x,1/2-z
1/2+x,-y,3/4-z
1/2-x,y,3/4-z
1/2-y,-x,3/4+z
1/2+y,x,3/4+z
loop_
_atom_site_type_symbol
_atom_site_label
_atom_site_fract_x
_atom_site_fract_y
_atom_site_fract_z
Si Si1 0.702351 0.250000 0.125000
Si Si2 0.051821 0.200285 0.877592
Si Si3 0.894785 0.324897 0.274677
O O1 0.750000 0.224518 0.375000
O O2 0.652450 0.316690 0.208113
O O3 0.049444 0.250000 0.625000
O O4 0.111262 0.138508 0.852104
O O5 0.069111 0.250000 0.125000
O O6 0.976601 0.159003 0.907059
O O7 0.888527 0.250000 0.125000
#
# Coordination Sequence:
#
# PCOD8312078 Si02
#       3
#     8  16  16
#     4  12  24  38  72 102 136 180 236 304 360 422
#     4  11  27  43  70 102 143 185 236 303 359 437
#     4  11  26  46  68 106 142 184 242 298 367 441
#
# _framework density 22.459993999999998
#
# number of rings (size 3 to 8) (size 9 to 14) (size 15 to 20)
#    0.000    0.800    4.000    1.200   11.200    0.800 
#    0.000    0.000    0.000    4.800    0.000    0.000 
#    0.000    0.000    0.000    0.000    0.000    0.000 
#
# Total GULP energy -247959.793843 kJ/mol
# GULP energy per Si atom -12397.989692 kJ/mol
# Density = 2.240887 g / cm^3
# Si number density = 22.459994 Si / 1000 Ang^3
#
#
#
# Elastic Constant Matrix: (Units=GPa)
#
#
# Indices 1 2 3 4 5 6 
#
# 1 169.1133 81.4631 39.8754 0.0000 0.0000 0.0000
# 2 81.4631 169.1133 39.8754 0.0000 0.0000 0.0000
# 3 39.8754 39.8754 118.9114 0.0000 0.0000 0.0000
# 4 0.0000 0.0000 0.0000 22.6918 0.0000 0.0000
# 5 0.0000 0.0000 0.0000 0.0000 22.6918 0.0000
# 6 0.0000 0.0000 0.0000 0.0000 0.0000 35.2263
#
#
#
# Elastic Compliance Matrix: (Units=1/GPa)
#
#
# Indices 1 2 3 4 5 6 
#
# 1 0.007938 -0.003471 -0.001498 0.000000 0.000000 0.000000
# 2 -0.003471 0.007938 -0.001498 0.000000 0.000000 0.000000
# 3 -0.001498 -0.001498 0.009414 0.000000 0.000000 0.000000
# 4 0.000000 0.000000 0.000000 0.044069 0.000000 0.000000
# 5 0.000000 0.000000 0.000000 0.000000 0.044069 0.000000
# 6 0.000000 0.000000 0.000000 0.000000 0.000000 0.028388
#
#
# Mechanical properties :
#
#
# Convention : Reuss Voigt Hill
#
# Bulk Modulus (GPa) = 80.92581 86.61845 83.77213
# Shear Modulus (GPa) = 31.47239 35.85025 33.66132
#
# Velocity S-wave (km/s) = 3.74741 3.99956 3.87553
# Velocity P-wave (km/s) = 7.40496 7.74455 7.57666
#
# Compressibility (1/GPa) = 0.01235700
#
# Stress axis : x y z
#
# Youngs Moduli (GPa) = 125.97147 125.97147 106.22031
#
# Poissons Ratio (x) = 0.43721 0.15913
# Poissons Ratio (y) = 0.43721 0.15913
# Poissons Ratio (z) = 0.18873 0.18873
#
# Static dielectric constant tensor:
#      x y z
#    x 4.262600 0.000000 0.000000 
#    y 0.000000 4.262600 0.000000 
#    z 0.000000 0.000000 4.092770 
# 
# 
# High freq. dielectric constant tensor:
#      x y z
#    x 1.880980 0.000000 0.000000 
#    y 0.000000 1.880980 0.000000 
#    z 0.000000 0.000000 1.894890 
# 
# From -- ./inp_files/413.got.cif
#   From: 2010.03.12/outbox.cif.g09.slc.cpg/sg122_1_cif.got.tgz:413.got - 2010.04.06 16:17:16.
