data_PCOD8312147
_publ_section_title
;
Structure prediction by ZEFSAII (Michael W. Deem and Ramdas Pophale) SiO2 
 PCOD8312147
Probable space group: P 4/M M M
;
_chemical_formula_sum "Si O2"
_cell_formula_units_Z 80
_cell_length_a 17.459056
_cell_length_b 17.459056
_cell_length_c 16.252894
_cell_angle_alpha 90.000000
_cell_angle_beta 90.000000
_cell_angle_gamma 90.000000
_cell_volume 4954.184987
_symmetry_space_group_name_H-M "P 4/M M M"
_symmetry_group_IT_number 123
_symmetry_cell_setting 'tetragonal'
loop_
_space_group_symop_operation_xyz
x,y,z
-y,x,z
-x,-y,z
y,-x,z
x,-y,-z
-x,y,-z
y,x,-z
-y,-x,-z
-x,-y,-z
y,-x,-z
x,y,-z
-y,x,-z
-x,y,z
x,-y,z
-y,-x,z
y,x,z
loop_
_atom_site_type_symbol
_atom_site_label
_atom_site_fract_x
_atom_site_fract_y
_atom_site_fract_z
Si Si1 0.221697 0.585100 0.500000
Si Si2 0.412839 0.291480 0.675345
Si Si3 0.209608 0.086577 0.671573
Si Si4 0.862094 0.263728 0.500000
Si Si5 0.312250 0.812214 0.786256
Si Si6 0.912598 0.587572 0.096737
O O1 0.184639 0.500000 0.500000
O O2 0.274935 0.596299 0.579062
O O3 0.152974 0.645638 0.500000
O O4 0.500000 0.300364 0.703275
O O5 0.370948 0.370948 0.695690
O O6 0.375678 0.222689 0.726236
O O7 0.127894 0.127894 0.674404
O O8 0.243113 0.088965 0.579741
O O9 0.267728 0.124413 0.734807
O O10 0.196347 0.000000 0.699047
O O11 0.780547 0.219454 0.500000
O O12 0.253513 0.746488 0.818434
O O13 0.354175 0.853086 0.861891
O O14 0.893370 0.500000 0.121905
O O15 0.000000 0.606698 0.123181
O O16 0.903070 0.598333 0.000000
#
# Coordination Sequence:
#
# PCOD8312147 Si02
#       6
#     8  16  16   8  16  16
#     4  10  18  29  47  66  91 124 159 198 233 267
#     4  10  19  30  46  67  92 124 160 197 234 270
#     4  10  20  32  49  70  92 122 156 193 236 277
#     4  10  17  31  49  64  90 123 160 197 229 270
#     4  10  19  31  49  71  95 123 155 188 224 275
#     4   9  18  33  52  72  95 122 149 184 232 277
#
# _framework density 16.147963000000001
#
# number of rings (size 3 to 8) (size 9 to 14) (size 15 to 20)
#    0.000    2.200    2.000    3.000    0.000    0.800 
#    0.000    0.000    0.000    6.000    0.000    0.000 
#    0.000    0.000    0.000   37.200    0.000    0.000 
#
# Total GULP energy -992007.612091 kJ/mol
# GULP energy per Si atom -12400.095151 kJ/mol
# Density = 1.611121 g / cm^3
# Si number density = 16.147963 Si / 1000 Ang^3
#
#
#
# Elastic Constant Matrix: (Units=GPa)
#
#
# Indices 1 2 3 4 5 6 
#
# 1 121.8637 63.6992 40.2571 0.0000 0.0000 0.0000
# 2 63.6992 121.8637 40.2573 0.0000 0.0000 0.0000
# 3 40.2571 40.2573 63.6176 0.0000 0.0000 0.0000
# 4 0.0000 0.0000 0.0000 21.7735 0.0000 0.0000
# 5 0.0000 0.0000 0.0000 0.0000 21.7738 0.0000
# 6 0.0000 0.0000 0.0000 0.0000 0.0000 20.8323
#
#
#
# Elastic Compliance Matrix: (Units=1/GPa)
#
#
# Indices 1 2 3 4 5 6 
#
# 1 0.012311 -0.004882 -0.004701 0.000000 0.000000 0.000000
# 2 -0.004882 0.012311 -0.004701 0.000000 0.000000 0.000000
# 3 -0.004701 -0.004701 0.021668 0.000000 0.000000 0.000000
# 4 0.000000 0.000000 0.000000 0.045927 0.000000 0.000000
# 5 0.000000 0.000000 0.000000 0.000000 0.045927 0.000000
# 6 0.000000 0.000000 0.000000 0.000000 0.000000 0.048002
#
#
# Mechanical properties :
#
#
# Convention : Reuss Voigt Hill
#
# Bulk Modulus (GPa) = 56.42634 66.19692 61.31163
# Shear Modulus (GPa) = 22.66332 23.75136 23.20734
#
# Velocity S-wave (km/s) = 3.75037 3.83934 3.79511
# Velocity P-wave (km/s) = 7.33300 7.79339 7.56670
#
# Compressibility (1/GPa) = 0.01772222
#
# Stress axis : x y z
#
# Youngs Moduli (GPa) = 81.23051 81.23043 46.15034
#
# Poissons Ratio (x) = 0.39656 0.21695
# Poissons Ratio (y) = 0.39657 0.21695
# Poissons Ratio (z) = 0.38185 0.38185
#
# Static dielectric constant tensor:
#      x y z
#    x 3.035050 0.000000 0.000000 
#    y 0.000000 3.035060 0.000000 
#    z 0.000000 0.000000 2.880700 
# 
# 
# High freq. dielectric constant tensor:
#      x y z
#    x 1.620720 0.000000 0.000000 
#    y 0.000000 1.620720 0.000000 
#    z 0.000000 0.000000 1.608080 
# 
# From -- ./inp_files/3953.got.cif
#   From: 2010.03.12/outbox.cif.g09.slc.cpg/sg123_2_cif.got.tgz:3953.got - 2010.04.06 16:26:55.
