data_PCOD8312091
_publ_section_title
;
Structure prediction by ZEFSAII (Michael W. Deem and Ramdas Pophale) SiO2 
 PCOD8312091
Probable space group: I -4 2 D
;
_chemical_formula_sum "Si O2"
_cell_formula_units_Z 60
_cell_length_a 14.517494
_cell_length_b 14.517494
_cell_length_c 13.396047
_cell_angle_alpha 90.000000
_cell_angle_beta 90.000000
_cell_angle_gamma 90.000000
_cell_volume 2823.319144
_symmetry_space_group_name_H-M "I -4 2 D"
_symmetry_group_IT_number 122
_symmetry_cell_setting 'tetragonal'
loop_
_space_group_symop_operation_xyz
x,y,z
y,-x,-z
-x,-y,z
-y,x,-z
x,1/2-y,1/4-z
-x,1/2+y,1/4-z
-y,1/2-x,1/4+z
y,1/2+x,1/4+z
1/2+x,1/2+y,1/2+z
1/2+y,1/2-x,1/2-z
1/2-x,1/2-y,1/2+z
1/2-y,1/2+x,1/2-z
1/2+x,-y,3/4-z
1/2-x,y,3/4-z
1/2-y,-x,3/4+z
1/2+y,x,3/4+z
loop_
_atom_site_type_symbol
_atom_site_label
_atom_site_fract_x
_atom_site_fract_y
_atom_site_fract_z
Si Si1 0.000000 0.500000 0.250000
Si Si2 0.650509 0.559197 0.657572
Si Si3 0.750000 0.246692 0.375000
Si Si4 0.960216 0.403519 0.624121
Si Si5 0.214521 0.584656 0.749297
O O1 0.912673 0.528021 0.183762
O O2 0.691733 0.659151 0.633621
O O3 0.590447 0.565028 0.757775
O O4 0.728576 0.482445 0.676805
O O5 0.733948 0.179180 0.470390
O O6 0.870725 0.378730 0.685986
O O7 0.000000 0.500000 0.660558
O O8 0.034871 0.323941 0.648901
#
# Coordination Sequence:
#
# PCOD8312091 Si02
#       5
#     4  16   8  16  16
#     4  12  32  56  64  98 156 216 236 284 388 470
#     4  12  28  49  71 103 152 197 246 295 371 457
#     4  12  26  46  74 116 142 186 252 306 368 438
#     4  12  21  43  75 108 144 185 238 305 370 427
#     4  12  23  43  76 114 141 179 243 316 365 419
#
# _framework density 21.251583
#
# number of rings (size 3 to 8) (size 9 to 14) (size 15 to 20)
#    0.000    0.000    9.333    0.000    3.733    0.000 
#    0.000    0.000    0.000    0.000    0.000    0.000 
#    0.000    0.000    0.000    0.000    0.000    0.000 
#
# Total GULP energy -371998.615074 kJ/mol
# GULP energy per Si atom -12399.953836 kJ/mol
# Density = 2.120321 g / cm^3
# Si number density = 21.251583 Si / 1000 Ang^3
#
#
#
# Elastic Constant Matrix: (Units=GPa)
#
#
# Indices 1 2 3 4 5 6 
#
# 1 111.5969 56.7088 48.7542 0.0000 0.0000 0.0000
# 2 56.7088 111.5969 48.7542 0.0000 0.0000 0.0000
# 3 48.7542 48.7542 137.7438 0.0000 0.0000 0.0000
# 4 0.0000 0.0000 0.0000 65.2229 0.0000 0.0000
# 5 0.0000 0.0000 0.0000 0.0000 65.2229 0.0000
# 6 0.0000 0.0000 0.0000 0.0000 0.0000 41.3391
#
#
#
# Elastic Compliance Matrix: (Units=1/GPa)
#
#
# Indices 1 2 3 4 5 6 
#
# 1 0.012847 -0.005372 -0.002645 0.000000 0.000000 0.000000
# 2 -0.005372 0.012847 -0.002645 0.000000 0.000000 0.000000
# 3 -0.002645 -0.002645 0.009133 0.000000 0.000000 0.000000
# 4 0.000000 0.000000 0.000000 0.015332 0.000000 0.000000
# 5 0.000000 0.000000 0.000000 0.000000 0.015332 0.000000
# 6 0.000000 0.000000 0.000000 0.000000 0.000000 0.024190
#
#
# Mechanical properties :
#
#
# Convention : Reuss Voigt Hill
#
# Bulk Modulus (GPa) = 74.07903 74.37467 74.22685
# Shear Modulus (GPa) = 43.28768 48.13835 45.71301
#
# Velocity S-wave (km/s) = 4.51812 4.76454 4.64296
# Velocity P-wave (km/s) = 7.88363 8.08338 7.98413
#
# Compressibility (1/GPa) = 0.01349910
#
# Stress axis : x y z
#
# Youngs Moduli (GPa) = 77.84178 77.84178 109.49796
#
# Poissons Ratio (x) = 0.41819 0.28968
# Poissons Ratio (y) = 0.41819 0.28968
# Poissons Ratio (z) = 0.20593 0.20593
#
# Static dielectric constant tensor:
#      x y z
#    x 3.712710 0.000000 0.000000 
#    y 0.000000 3.712710 0.000000 
#    z 0.000000 0.000000 3.872550 
# 
# 
# High freq. dielectric constant tensor:
#      x y z
#    x 1.841960 0.000000 0.000000 
#    y 0.000000 1.841960 0.000000 
#    z 0.000000 0.000000 1.837730 
# 
# From -- ./inp_files/5215.got.cif
#   From: 2010.03.12/outbox.cif.g09.slc.cpg/sg122_3_cif.got.tgz:5215.got - 2010.04.06 16:17:16.
