data_PCOD8312726
_publ_section_title
;
Structure prediction by ZEFSAII (Michael W. Deem and Ramdas Pophale) SiO2 
 PCOD8312726
Probable space group: P 4/M M M
;
_chemical_formula_sum "Si O2"
_cell_formula_units_Z 72
_cell_length_a 13.816492
_cell_length_b 13.816492
_cell_length_c 23.247374
_cell_angle_alpha 90.000000
_cell_angle_beta 90.000000
_cell_angle_gamma 90.000000
_cell_volume 4437.817949
_symmetry_space_group_name_H-M "P 4/M M M"
_symmetry_group_IT_number 123
_symmetry_cell_setting 'tetragonal'
loop_
_space_group_symop_operation_xyz
x,y,z
-y,x,z
-x,-y,z
y,-x,z
x,-y,-z
-x,y,-z
y,x,-z
-y,-x,-z
-x,-y,-z
y,-x,-z
x,y,-z
-y,x,-z
-x,y,z
x,-y,z
-y,-x,z
y,x,z
loop_
_atom_site_type_symbol
_atom_site_label
_atom_site_fract_x
_atom_site_fract_y
_atom_site_fract_z
Si Si1 0.609433 0.113244 0.328173
Si Si2 0.386000 0.225706 0.874712
Si Si3 0.233250 0.388583 0.563797
Si Si4 0.271621 0.114105 0.782837
Si Si5 0.391336 0.762565 0.000000
O O1 0.500000 0.146957 0.313449
O O2 0.646618 0.157761 0.388135
O O3 0.679957 0.145929 0.277148
O O4 0.613315 0.000000 0.336870
O O5 0.500000 0.245295 0.862865
O O6 0.325720 0.325720 0.865422
O O7 0.346559 0.142681 0.832860
O O8 0.368857 0.182215 0.939749
O O9 0.189080 0.368929 0.500000
O O10 0.259064 0.500000 0.572020
O O11 0.333227 0.333227 0.572430
O O12 0.170097 0.170097 0.789897
O O13 0.250819 0.000000 0.785967
O O14 0.500000 0.728161 0.000000
O O15 0.337900 0.662101 0.000000
#
# Coordination Sequence:
#
# PCOD8312726 Si02
#       5
#    16  16  16  16   8
#     4   9  17  29  46  67  88 110 138 174 218 267
#     4   9  17  29  46  69  96 124 152 181 215 258
#     4   9  17  28  42  61  86 116 147 177 208 244
#     4  10  20  33  49  67  87 114 148 187 230 272
#     4   8  14  25  41  63  92 122 150 180 213 252
#
# _framework density 16.22419
#
# number of rings (size 3 to 8) (size 9 to 14) (size 15 to 20)
#    0.000    2.889    0.000    1.333    0.000    2.556 
#    0.000    6.111    0.000    2.000    0.000    3.111 
#    0.000    4.444    0.000   20.667    0.000    0.444 
#
# Total GULP energy -892154.695624 kJ/mol
# GULP energy per Si atom -12391.037439 kJ/mol
# Density = 1.618726 g / cm^3
# Si number density = 16.224190 Si / 1000 Ang^3
#
#
#
# Elastic Constant Matrix: (Units=GPa)
#
#
# Indices 1 2 3 4 5 6 
#
# 1 62.4592 34.4857 49.9427 0.0000 0.0000 0.0000
# 2 34.4857 62.4595 49.9427 0.0000 0.0000 0.0000
# 3 49.9427 49.9427 138.6027 0.0000 0.0000 0.0000
# 4 0.0000 0.0000 0.0000 23.6033 0.0000 0.0000
# 5 0.0000 0.0000 0.0000 0.0000 23.6032 0.0000
# 6 0.0000 0.0000 0.0000 0.0000 0.0000 17.2941
#
#
#
# Elastic Compliance Matrix: (Units=1/GPa)
#
#
# Indices 1 2 3 4 5 6 
#
# 1 0.026077 -0.009671 -0.005912 0.000000 0.000000 0.000000
# 2 -0.009671 0.026077 -0.005912 0.000000 0.000000 0.000000
# 3 -0.005912 -0.005912 0.011475 0.000000 0.000000 0.000000
# 4 0.000000 0.000000 0.000000 0.042367 0.000000 0.000000
# 5 0.000000 0.000000 0.000000 0.000000 0.042367 0.000000
# 6 0.000000 0.000000 0.000000 0.000000 0.000000 0.057823
#
#
# Mechanical properties :
#
#
# Convention : Reuss Voigt Hill
#
# Bulk Modulus (GPa) = 48.44772 59.14039 53.79406
# Shear Modulus (GPa) = 19.52708 21.51015 20.51861
#
# Velocity S-wave (km/s) = 3.47303 3.64511 3.56011
# Velocity P-wave (km/s) = 6.78298 7.36525 7.08010
#
# Compressibility (1/GPa) = 0.02064081
#
# Stress axis : x y z
#
# Youngs Moduli (GPa) = 38.34794 38.34814 87.14523
#
# Poissons Ratio (x) = 0.37086 0.51517
# Poissons Ratio (y) = 0.37086 0.51516
# Poissons Ratio (z) = 0.22670 0.22670
#
# Static dielectric constant tensor:
#      x y z
#    x 2.892340 0.000000 0.000000 
#    y 0.000000 2.892340 0.000000 
#    z 0.000000 0.000000 3.528450 
# 
# 
# High freq. dielectric constant tensor:
#      x y z
#    x 1.606230 0.000000 0.000000 
#    y 0.000000 1.606230 0.000000 
#    z 0.000000 0.000000 1.645910 
# 
# From -- ./inp_files/5103.got.cif
#   From: 2010.03.12/outbox.cif.g09.slc.cpg/sg123_3_cif.got.tgz:5103.got - 2010.04.06 16:26:55.
