data_PCOD8312055
_publ_section_title
;
Structure prediction by ZEFSAII (Michael W. Deem and Ramdas Pophale) SiO2 
 PCOD8312055
Probable space group: I -4 2 D
;
_chemical_formula_sum "Si O2"
_cell_formula_units_Z 88
_cell_length_a 14.117818
_cell_length_b 14.117818
_cell_length_c 19.721728
_cell_angle_alpha 90.000000
_cell_angle_beta 90.000000
_cell_angle_gamma 90.000000
_cell_volume 3930.792534
_symmetry_space_group_name_H-M "I -4 2 D"
_symmetry_group_IT_number 122
_symmetry_cell_setting 'tetragonal'
loop_
_space_group_symop_operation_xyz
x,y,z
y,-x,-z
-x,-y,z
-y,x,-z
x,1/2-y,1/4-z
-x,1/2+y,1/4-z
-y,1/2-x,1/4+z
y,1/2+x,1/4+z
1/2+x,1/2+y,1/2+z
1/2+y,1/2-x,1/2-z
1/2-x,1/2-y,1/2+z
1/2-y,1/2+x,1/2-z
1/2+x,-y,3/4-z
1/2-x,y,3/4-z
1/2-y,-x,3/4+z
1/2+y,x,3/4+z
loop_
_atom_site_type_symbol
_atom_site_label
_atom_site_fract_x
_atom_site_fract_y
_atom_site_fract_z
Si Si1 0.250000 0.656798 0.375000
Si Si2 0.884560 0.570779 0.278574
Si Si3 0.920889 0.928328 0.186554
Si Si4 0.214042 0.577551 0.097669
Si Si5 0.291357 0.163487 0.021732
Si Si6 0.894939 0.499548 0.583257
O O1 0.163493 0.586217 0.389429
O O2 0.238739 0.726288 0.310609
O O3 0.898196 0.456272 0.283542
O O4 0.899681 0.637073 0.344016
O O5 0.776671 0.580537 0.255204
O O6 0.948101 0.899428 0.261590
O O7 0.819620 0.980701 0.187968
O O8 0.000000 0.000000 0.155416
O O9 0.216371 0.659952 0.041458
O O10 0.321084 0.560863 0.122329
O O11 0.364432 0.109360 0.071737
O O12 0.000000 0.500000 0.617416
#
# Coordination Sequence:
#
# PCOD8312055 Si02
#       6
#     8  16  16  16  16  16
#     4  12  26  44  72 110 152 200 248 312 366 460
#     4  11  24  38  66 110 154 187 230 302 373 461
#     4  11  24  42  74 106 149 200 235 301 387 449
#     4  12  24  44  71 108 146 197 252 298 382 455
#     4  12  25  44  70 105 150 194 248 302 377 447
#     4  11  23  45  71 102 147 197 244 312 371 445
#
# _framework density 22.387343999999999
#
# number of rings (size 3 to 8) (size 9 to 14) (size 15 to 20)
#    0.000    0.545    7.273    1.636    5.091    0.000 
#    0.000    1.818    0.000    0.000    0.000    0.000 
#    0.000    0.000    0.000    0.000    0.000    0.000 
#
# Total GULP energy -545336.654613 kJ/mol
# GULP energy per Si atom -12394.014878 kJ/mol
# Density = 2.233639 g / cm^3
# Si number density = 22.387344 Si / 1000 Ang^3
#
#
#
# Elastic Constant Matrix: (Units=GPa)
#
#
# Indices 1 2 3 4 5 6 
#
# 1 146.9610 49.0029 44.0685 0.0000 0.0000 0.0000
# 2 49.0029 146.9610 44.0685 0.0000 0.0000 0.0000
# 3 44.0685 44.0685 75.1546 0.0000 0.0000 0.0000
# 4 0.0000 0.0000 0.0000 18.6300 0.0000 0.0000
# 5 0.0000 0.0000 0.0000 0.0000 18.6300 0.0000
# 6 0.0000 0.0000 0.0000 0.0000 0.0000 33.7410
#
#
#
# Elastic Compliance Matrix: (Units=1/GPa)
#
#
# Indices 1 2 3 4 5 6 
#
# 1 0.008570 -0.001639 -0.004064 0.000000 0.000000 0.000000
# 2 -0.001639 0.008570 -0.004064 0.000000 0.000000 0.000000
# 3 -0.004064 -0.004064 0.018072 0.000000 0.000000 0.000000
# 4 0.000000 0.000000 0.000000 0.053677 0.000000 0.000000
# 5 0.000000 0.000000 0.000000 0.000000 0.053677 0.000000
# 6 0.000000 0.000000 0.000000 0.000000 0.000000 0.029638
#
#
# Mechanical properties :
#
#
# Convention : Reuss Voigt Hill
#
# Bulk Modulus (GPa) = 63.78579 71.48404 67.63492
# Shear Modulus (GPa) = 25.38558 29.66265 27.52412
#
# Velocity S-wave (km/s) = 3.37103 3.64397 3.51015
# Velocity P-wave (km/s) = 6.61102 7.05015 6.83411
#
# Compressibility (1/GPa) = 0.01567747
#
# Stress axis : x y z
#
# Youngs Moduli (GPa) = 116.69104 116.69104 55.33433
#
# Poissons Ratio (x) = 0.19123 0.22488
# Poissons Ratio (y) = 0.19123 0.22488
# Poissons Ratio (z) = 0.47424 0.47424
#
# Static dielectric constant tensor:
#      x y z
#    x 4.267530 0.000000 0.000000 
#    y 0.000000 4.267530 0.000000 
#    z 0.000000 0.000000 3.850770 
# 
# 
# High freq. dielectric constant tensor:
#      x y z
#    x 1.883580 0.000000 0.000000 
#    y 0.000000 1.883580 0.000000 
#    z 0.000000 0.000000 1.866170 
# 
# From -- ./inp_files/7166.got.cif
#   From: 2010.03.12/outbox.cif.g09.slc.cpg/sg122_4_cif.got.tgz:7166.got - 2010.04.06 16:17:16.
