data_PCOD8312991
_publ_section_title
;
Structure prediction by ZEFSAII (Michael W. Deem and Ramdas Pophale) SiO2 
 PCOD8312991
Probable space group: P 4/M M M
;
_chemical_formula_sum "Si O2"
_cell_formula_units_Z 112
_cell_length_a 18.871579
_cell_length_b 18.871579
_cell_length_c 23.660529
_cell_angle_alpha 90.000000
_cell_angle_beta 90.000000
_cell_angle_gamma 90.000000
_cell_volume 8426.377843
_symmetry_space_group_name_H-M "P 4/M M M"
_symmetry_group_IT_number 123
_symmetry_cell_setting 'tetragonal'
loop_
_space_group_symop_operation_xyz
x,y,z
-y,x,z
-x,-y,z
y,-x,z
x,-y,-z
-x,y,-z
y,x,-z
-y,-x,-z
-x,-y,-z
y,-x,-z
x,y,-z
-y,x,-z
-x,y,z
x,-y,z
-y,-x,z
y,x,z
loop_
_atom_site_type_symbol
_atom_site_label
_atom_site_fract_x
_atom_site_fract_y
_atom_site_fract_z
Si Si1 0.785242 0.583289 0.167165
Si Si2 0.584683 0.921121 0.227619
Si Si3 0.081585 0.652012 0.565330
Si Si4 0.416857 0.840242 0.663926
Si Si5 0.812309 0.077475 0.567165
Si Si6 0.418044 0.303078 0.936424
Si Si7 0.416694 0.699067 0.277605
O O1 0.793414 0.500000 0.164569
O O2 0.864180 0.613435 0.181122
O O3 0.756607 0.611505 0.106833
O O4 0.729126 0.602972 0.215793
O O5 0.500000 0.923050 0.227348
O O6 0.613045 0.894545 0.288729
O O7 0.615068 0.000000 0.215086
O O8 0.102003 0.641329 0.500000
O O9 0.135478 0.605888 0.601835
O O10 0.093635 0.732414 0.585361
O O11 0.000000 0.629133 0.575175
O O12 0.500000 0.843352 0.668037
O O13 0.393991 0.759193 0.676737
O O14 0.816930 0.078546 0.500000
O O15 0.864244 0.135757 0.594477
O O16 0.835519 0.000000 0.589406
O O17 0.500000 0.320923 0.923877
O O18 0.375907 0.375907 0.927537
O O19 0.407719 0.273545 0.000000
O O20 0.500000 0.680008 0.282087
O O21 0.371731 0.628270 0.289567
#
# Coordination Sequence:
#
# PCOD8312991 Si02
#       7
#    16  16  16  16  16  16  16
#     4   8  14  24  36  51  71  91 113 144 178 211
#     4   8  13  22  37  53  67  87 114 142 172 205
#     4   9  17  27  38  54  76  98 116 137 170 212
#     4   9  17  27  38  54  74  93 116 145 174 210
#     4   8  14  24  36  50  68  89 113 138 162 191
#     4   9  16  24  34  48  67  93 122 150 182 219
#     4   9  17  28  41  56  73  93 118 150 186 220
#
# _framework density 13.291594999999999
#
# number of rings (size 3 to 8) (size 9 to 14) (size 15 to 20)
#    0.000    3.429    0.000    3.429    0.000    2.143 
#    0.000    2.143    0.000    3.000    0.000    3.000 
#    0.000    0.000    0.000    3.143    0.000    0.000 
#
# Total GULP energy -1387675.245892 kJ/mol
# GULP energy per Si atom -12389.957553 kJ/mol
# Density = 1.326134 g / cm^3
# Si number density = 13.291595 Si / 1000 Ang^3
#
#
#
# Elastic Constant Matrix: (Units=GPa)
#
#
# Indices 1 2 3 4 5 6 
#
# 1 -30.8197 111.1290 30.2917 0.0000 0.0000 0.0000
# 2 111.1290 -30.8197 30.2917 0.0000 0.0000 0.0000
# 3 30.2917 30.2917 71.9473 0.0000 0.0000 0.0000
# 4 0.0000 0.0000 0.0000 14.4177 0.0000 0.0000
# 5 0.0000 0.0000 0.0000 0.0000 14.4177 0.0000
# 6 0.0000 0.0000 0.0000 0.0000 0.0000 16.5696
#
#
#
# Elastic Compliance Matrix: (Units=1/GPa)
#
#
# Indices 1 2 3 4 5 6 
#
# 1 0.005601 0.012646 -0.007683 0.000000 0.000000 0.000000
# 2 0.012646 0.005601 -0.007683 0.000000 0.000000 0.000000
# 3 -0.007683 -0.007683 0.020368 0.000000 0.000000 0.000000
# 4 0.000000 0.000000 0.000000 0.069359 0.000000 0.000000
# 5 0.000000 0.000000 0.000000 0.000000 0.069359 0.000000
# 6 0.000000 0.000000 0.000000 0.000000 0.000000 0.060352
#
#
# Mechanical properties :
#
#
# Convention : Reuss Voigt Hill
#
# Bulk Modulus (GPa) = 38.26645 39.30363 38.78504
# Shear Modulus (GPa) = 20.42566 -1.67930 9.37318
#
# Velocity S-wave (km/s) = 3.92437 -1.12524 2.65843
# Velocity P-wave (km/s) = 7.02757 5.28642 6.21824
#
# Compressibility (1/GPa) = 0.02613255
#
# Stress axis : x y z
#
# Youngs Moduli (GPa) = 178.52949 178.52949 49.09608
#
# Poissons Ratio (x) = -2.25770 0.37719
# Poissons Ratio (y) = -2.25770 0.37719
# Poissons Ratio (z) = 1.37158 1.37158
#
# Static dielectric constant tensor:
#      x y z
#    x 2.684420 0.000000 0.000000 
#    y 0.000000 2.684420 0.000000 
#    z 0.000000 0.000000 2.773390 
# 
# 
# High freq. dielectric constant tensor:
#      x y z
#    x 1.487970 0.000000 0.000000 
#    y 0.000000 1.487970 0.000000 
#    z 0.000000 0.000000 1.486720 
# 
# From -- ./inp_files/6861.got.cif
#   From: 2010.03.12/outbox.cif.g09.slc.cpg/sg123_4_cif.got.tgz:6861.got - 2010.04.06 16:26:55.
