data_PCOD8312625
_publ_section_title
;
Structure prediction by ZEFSAII (Michael W. Deem and Ramdas Pophale) SiO2 
 PCOD8312625
Probable space group: P 4/M M M
;
_chemical_formula_sum "Si O2"
_cell_formula_units_Z 104
_cell_length_a 26.317118
_cell_length_b 26.317118
_cell_length_c 8.734392
_cell_angle_alpha 90.000000
_cell_angle_beta 90.000000
_cell_angle_gamma 90.000000
_cell_volume 6049.358668
_symmetry_space_group_name_H-M "P 4/M M M"
_symmetry_group_IT_number 123
_symmetry_cell_setting 'tetragonal'
loop_
_space_group_symop_operation_xyz
x,y,z
-y,x,z
-x,-y,z
y,-x,z
x,-y,-z
-x,y,-z
y,x,-z
-y,-x,-z
-x,-y,-z
y,-x,-z
x,y,-z
-y,x,-z
-x,y,z
x,-y,z
-y,-x,z
y,x,z
loop_
_atom_site_type_symbol
_atom_site_label
_atom_site_fract_x
_atom_site_fract_y
_atom_site_fract_z
Si Si1 0.059826 0.500000 0.327173
Si Si2 0.236384 0.445456 0.825565
Si Si3 0.747974 0.333867 0.817975
Si Si4 0.122979 0.416887 0.174517
Si Si5 0.942704 0.138389 0.824548
Si Si6 0.685671 0.853853 0.320901
Si Si7 0.756158 0.943403 0.679979
O O1 0.082228 0.500000 0.500000
O O2 0.077280 0.450916 0.234181
O O3 0.000000 0.500000 0.332483
O O4 0.255200 0.500000 0.750482
O O5 0.257094 0.392181 0.751382
O O6 0.175649 0.447123 0.815748
O O7 0.254900 0.445722 0.000000
O O8 0.698818 0.301183 0.766820
O O9 0.798957 0.306365 0.758341
O O10 0.753077 0.336586 0.000000
O O11 0.124975 0.369789 0.288187
O O12 0.112515 0.399522 0.000000
O O13 0.907158 0.092843 0.769835
O O14 0.930496 0.186069 0.718414
O O15 0.000000 0.119251 0.801747
O O16 0.932491 0.154004 0.000000
O O17 0.694514 0.845893 0.500000
O O18 0.723004 0.897077 0.251462
O O19 0.748148 0.944749 0.500000
O O20 0.741685 0.000000 0.746439
#
# Coordination Sequence:
#
# PCOD8312625 Si02
#       7
#     8  16  16  16  16  16  16
#     4  11  23  35  47  67  97 129 161 205 256 299
#     4   8  13  25  47  69  88 117 156 198 240 281
#     4   9  18  31  47  70 100 130 162 203 248 295
#     4  10  19  33  51  70  92 120 160 207 248 292
#     4   9  18  32  50  72  95 117 143 179 225 278
#     4  10  20  33  50  71  94 126 162 197 247 303
#     4   9  19  35  51  66  88 119 155 194 233 278
#
# _framework density 17.191904000000001
#
# number of rings (size 3 to 8) (size 9 to 14) (size 15 to 20)
#    0.000    2.692    0.769    2.077    0.000    3.846 
#    0.000    5.385    0.000    0.000    0.000    2.154 
#    0.000    0.308    0.000    4.308    0.000    0.000 
#
# Total GULP energy -1288598.613823 kJ/mol
# GULP energy per Si atom -12390.371287 kJ/mol
# Density = 1.715277 g / cm^3
# Si number density = 17.191904 Si / 1000 Ang^3
#
#
#
# Elastic Constant Matrix: (Units=GPa)
#
#
# Indices 1 2 3 4 5 6 
#
# 1 106.0952 72.4888 14.9285 0.0000 0.0000 0.0000
# 2 72.4888 106.0952 14.9285 0.0000 0.0000 0.0000
# 3 14.9285 14.9285 21.3413 0.0000 0.0000 0.0000
# 4 0.0000 0.0000 0.0000 20.9620 0.0000 0.0000
# 5 0.0000 0.0000 0.0000 0.0000 20.9620 0.0000
# 6 0.0000 0.0000 0.0000 0.0000 0.0000 27.5789
#
#
#
# Elastic Compliance Matrix: (Units=1/GPa)
#
#
# Indices 1 2 3 4 5 6 
#
# 1 0.018049 -0.011708 -0.004436 0.000000 0.000000 0.000000
# 2 -0.011708 0.018049 -0.004436 0.000000 0.000000 0.000000
# 3 -0.004436 -0.004436 0.053063 0.000000 0.000000 0.000000
# 4 0.000000 0.000000 0.000000 0.047705 0.000000 0.000000
# 5 0.000000 0.000000 0.000000 0.000000 0.047705 0.000000
# 6 0.000000 0.000000 0.000000 0.000000 0.000000 0.036260
#
#
# Mechanical properties :
#
#
# Convention : Reuss Voigt Hill
#
# Bulk Modulus (GPa) = 20.83216 48.69148 34.76182
# Shear Modulus (GPa) = 17.98624 22.64629 20.31627
#
# Velocity S-wave (km/s) = 3.23802 3.63335 3.44137
# Velocity P-wave (km/s) = 5.11111 6.78126 6.00454
#
# Compressibility (1/GPa) = 0.04800269
#
# Stress axis : x y z
#
# Youngs Moduli (GPa) = 55.40560 55.40560 18.84541
#
# Poissons Ratio (x) = 0.64866 0.08359
# Poissons Ratio (y) = 0.64866 0.08359
# Poissons Ratio (z) = 0.24577 0.24577
#
# Static dielectric constant tensor:
#      x y z
#    x 3.328310 0.000000 0.000000 
#    y 0.000000 3.328310 0.000000 
#    z 0.000000 0.000000 3.066220 
# 
# 
# High freq. dielectric constant tensor:
#      x y z
#    x 1.653970 0.000000 0.000000 
#    y 0.000000 1.653970 0.000000 
#    z 0.000000 0.000000 1.646190 
# 
# From -- ./inp_files/1916.got.cif
#   From: 2010.03.12/outbox.cif.g09.slc.cpg/sg123_1_cif.got.tgz:1916.got - 2010.04.06 16:26:55.
