data_PCOD8312035
_publ_section_title
;
Structure prediction by ZEFSAII (Michael W. Deem and Ramdas Pophale) SiO2 
 PCOD8312035
Probable space group: I -4 2 D
;
_chemical_formula_sum "Si O2"
_cell_formula_units_Z 112
_cell_length_a 14.386073
_cell_length_b 14.386073
_cell_length_c 22.716005
_cell_angle_alpha 90.000000
_cell_angle_beta 90.000000
_cell_angle_gamma 90.000000
_cell_volume 4701.283868
_symmetry_space_group_name_H-M "I -4 2 D"
_symmetry_group_IT_number 122
_symmetry_cell_setting 'tetragonal'
loop_
_space_group_symop_operation_xyz
x,y,z
y,-x,-z
-x,-y,z
-y,x,-z
x,1/2-y,1/4-z
-x,1/2+y,1/4-z
-y,1/2-x,1/4+z
y,1/2+x,1/4+z
1/2+x,1/2+y,1/2+z
1/2+y,1/2-x,1/2-z
1/2-x,1/2-y,1/2+z
1/2-y,1/2+x,1/2-z
1/2+x,-y,3/4-z
1/2-x,y,3/4-z
1/2-y,-x,3/4+z
1/2+y,x,3/4+z
loop_
_atom_site_type_symbol
_atom_site_label
_atom_site_fract_x
_atom_site_fract_y
_atom_site_fract_z
Si Si1 0.378680 0.241527 0.292883
Si Si2 0.361576 0.795703 0.689379
Si Si3 0.001179 0.216556 0.964040
Si Si4 0.056112 0.408862 0.998098
Si Si5 0.643587 0.933961 0.376751
Si Si6 0.166158 0.618053 0.831736
Si Si7 0.195271 0.438770 0.090163
O O1 0.279666 0.292122 0.282123
O O2 0.376448 0.158799 0.340694
O O3 0.413490 0.205090 0.230970
O O4 0.454582 0.314162 0.317492
O O5 0.383624 0.750000 0.625000
O O6 0.456646 0.821841 0.725044
O O7 0.307164 0.893765 0.694025
O O8 0.934143 0.183632 0.910868
O O9 0.989293 0.326418 0.976601
O O10 0.114639 0.380599 0.056915
O O11 0.000000 0.500000 0.014407
O O12 0.125306 0.425407 0.945078
O O13 0.750000 0.960698 0.375000
O O14 0.599955 0.031541 0.352959
O O15 0.250000 0.647394 0.875000
O O16 0.098532 0.704442 0.822227
#
# Coordination Sequence:
#
# PCOD8312035 Si02
#       7
#    16  16  16  16  16  16  16
#     4  12  22  42  70 100 143 192 242 297 371 450
#     4  12  26  50  77 104 146 193 249 319 389 460
#     4  12  27  48  75 108 142 193 250 312 384 467
#     4  12  25  45  72 105 146 190 250 310 381 461
#     4  11  22  40  65 100 145 192 242 299 371 454
#     4  11  23  38  62 102 147 186 238 298 361 448
#     4  12  24  43  70 102 139 190 239 299 376 450
#
# _framework density 23.82328
#
# number of rings (size 3 to 8) (size 9 to 14) (size 15 to 20)
#    0.000    0.286    2.857    8.143    0.000    1.429 
#    0.000    2.143    0.000    0.000    0.000    0.000 
#    0.000    0.000    0.000    0.000    0.000    0.000 
#
# Total GULP energy -693902.034337 kJ/mol
# GULP energy per Si atom -12391.107756 kJ/mol
# Density = 2.376906 g / cm^3
# Si number density = 23.823280 Si / 1000 Ang^3
#
#
#
# Elastic Constant Matrix: (Units=GPa)
#
#
# Indices 1 2 3 4 5 6 
#
# 1 72.0731 8.3570 36.1591 0.0000 0.0000 0.0000
# 2 8.3570 72.0731 36.1591 0.0000 0.0000 0.0000
# 3 36.1591 36.1591 166.7130 0.0000 0.0000 0.0000
# 4 0.0000 0.0000 0.0000 25.9546 0.0000 0.0000
# 5 0.0000 0.0000 0.0000 0.0000 25.9546 0.0000
# 6 0.0000 0.0000 0.0000 0.0000 0.0000 22.0883
#
#
#
# Elastic Compliance Matrix: (Units=1/GPa)
#
#
# Indices 1 2 3 4 5 6 
#
# 1 0.015570 -0.000125 -0.003350 0.000000 0.000000 0.000000
# 2 -0.000125 0.015570 -0.003350 0.000000 0.000000 0.000000
# 3 -0.003350 -0.003350 0.007452 0.000000 0.000000 0.000000
# 4 0.000000 0.000000 0.000000 0.038529 0.000000 0.000000
# 5 0.000000 0.000000 0.000000 0.000000 0.038529 0.000000
# 6 0.000000 0.000000 0.000000 0.000000 0.000000 0.045273
#
#
# Mechanical properties :
#
#
# Convention : Reuss Voigt Hill
#
# Bulk Modulus (GPa) = 40.09285 52.46773 46.28029
# Shear Modulus (GPa) = 27.33959 30.14513 28.74236
#
# Velocity S-wave (km/s) = 3.39130 3.56106 3.47721
# Velocity P-wave (km/s) = 5.67454 6.24337 5.96574
#
# Compressibility (1/GPa) = 0.02494211
#
# Stress axis : x y z
#
# Youngs Moduli (GPa) = 64.22627 64.22627 134.20085
#
# Poissons Ratio (x) = 0.00801 0.44957
# Poissons Ratio (y) = 0.00801 0.44957
# Poissons Ratio (z) = 0.21516 0.21516
#
# Static dielectric constant tensor:
#      x y z
#    x 4.408670 0.000000 0.000000 
#    y 0.000000 4.408670 0.000000 
#    z 0.000000 0.000000 4.941540 
# 
# 
# High freq. dielectric constant tensor:
#      x y z
#    x 1.939350 0.000000 0.000000 
#    y 0.000000 1.939350 0.000000 
#    z 0.000000 0.000000 1.958940 
# 
# From -- ./inp_files/8120.got.cif
#   From: 2010.03.12/outbox.cif.g09.slc.cpg/sg122_5_cif.got.tgz:8120.got - 2010.04.06 16:17:16.
