data_PCOD8312054
_publ_section_title
;
Structure prediction by ZEFSAII (Michael W. Deem and Ramdas Pophale) SiO2 
 PCOD8312054
Probable space group: I -4 2 D
;
_chemical_formula_sum "Si O2"
_cell_formula_units_Z 52
_cell_length_a 18.115858
_cell_length_b 18.115858
_cell_length_c 7.309014
_cell_angle_alpha 90.000000
_cell_angle_beta 90.000000
_cell_angle_gamma 90.000000
_cell_volume 2398.703724
_symmetry_space_group_name_H-M "I -4 2 D"
_symmetry_group_IT_number 122
_symmetry_cell_setting 'tetragonal'
loop_
_space_group_symop_operation_xyz
x,y,z
y,-x,-z
-x,-y,z
-y,x,-z
x,1/2-y,1/4-z
-x,1/2+y,1/4-z
-y,1/2-x,1/4+z
y,1/2+x,1/4+z
1/2+x,1/2+y,1/2+z
1/2+y,1/2-x,1/2-z
1/2-x,1/2-y,1/2+z
1/2-y,1/2+x,1/2-z
1/2+x,-y,3/4-z
1/2-x,y,3/4-z
1/2-y,-x,3/4+z
1/2+y,x,3/4+z
loop_
_atom_site_type_symbol
_atom_site_label
_atom_site_fract_x
_atom_site_fract_y
_atom_site_fract_z
Si Si1 0.169042 0.223005 0.925126
Si Si2 0.000000 0.500000 0.250000
Si Si3 0.013526 0.253120 0.829768
Si Si4 0.051001 0.851992 0.121615
O O1 0.250000 0.255230 0.875000
O O2 0.102765 0.258012 0.805538
O O3 0.170710 0.135255 0.904303
O O4 0.148579 0.250000 0.125000
O O5 0.039341 0.560499 0.122215
O O6 0.979347 0.250000 0.625000
O O7 0.994002 0.180771 0.948818
O O8 0.979640 0.323238 0.934643
#
# Coordination Sequence:
#
# PCOD8312054 Si02
#       4
#    16   4  16  16
#     4  12  23  43  69 102 135 176 229 282 344 411
#     4  12  20  44  74  92 136 182 224 284 346 396
#     4  11  23  46  65  95 138 174 222 277 338 405
#     4  11  23  45  68  97 136 179 220 286 338 403
#
# _framework density 21.678374999999999
#
# number of rings (size 3 to 8) (size 9 to 14) (size 15 to 20)
#    0.000    0.615    9.231    0.923    0.000    1.231 
#   11.077    1.538    0.000    0.000    0.000    0.000 
#    0.000    0.000    0.000    0.000    0.000    0.000 
#
# Total GULP energy -322303.191079 kJ/mol
# GULP energy per Si atom -12396.276580 kJ/mol
# Density = 2.162903 g / cm^3
# Si number density = 21.678375 Si / 1000 Ang^3
#
#
#
# Elastic Constant Matrix: (Units=GPa)
#
#
# Indices 1 2 3 4 5 6 
#
# 1 82.1320 44.2124 29.9956 0.0000 0.0000 0.0000
# 2 44.2124 82.1320 29.9956 0.0000 0.0000 0.0000
# 3 29.9956 29.9956 162.9494 0.0000 0.0000 0.0000
# 4 0.0000 0.0000 0.0000 19.4191 0.0000 0.0000
# 5 0.0000 0.0000 0.0000 0.0000 19.4191 0.0000
# 6 0.0000 0.0000 0.0000 0.0000 0.0000 7.2972
#
#
#
# Elastic Compliance Matrix: (Units=1/GPa)
#
#
# Indices 1 2 3 4 5 6 
#
# 1 0.017522 -0.008849 -0.001597 0.000000 0.000000 0.000000
# 2 -0.008849 0.017522 -0.001597 0.000000 0.000000 0.000000
# 3 -0.001597 -0.001597 0.006725 0.000000 0.000000 0.000000
# 4 0.000000 0.000000 0.000000 0.051496 0.000000 0.000000
# 5 0.000000 0.000000 0.000000 0.000000 0.051496 0.000000
# 6 0.000000 0.000000 0.000000 0.000000 0.000000 0.137039
#
#
# Mechanical properties :
#
#
# Convention : Reuss Voigt Hill
#
# Bulk Modulus (GPa) = 56.54677 59.51341 58.03009
# Shear Modulus (GPa) = 16.03696 24.09437 20.06567
#
# Velocity S-wave (km/s) = 2.72282 3.33745 3.04568
# Velocity P-wave (km/s) = 6.00217 6.50876 6.26059
#
# Compressibility (1/GPa) = 0.01768448
#
# Stress axis : x y z
#
# Youngs Moduli (GPa) = 57.07018 57.07018 148.70681
#
# Poissons Ratio (x) = 0.50503 0.23741
# Poissons Ratio (y) = 0.50503 0.23741
# Poissons Ratio (z) = 0.09111 0.09111
#
# Static dielectric constant tensor:
#      x y z
#    x 4.032990 0.000000 0.000000 
#    y 0.000000 4.032990 0.000000 
#    z 0.000000 0.000000 3.722120 
# 
# 
# High freq. dielectric constant tensor:
#      x y z
#    x 1.859010 0.000000 0.000000 
#    y 0.000000 1.859010 0.000000 
#    z 0.000000 0.000000 1.835000 
# 
# From -- ./inp_files/864.got.cif
#   From: 2010.03.12/outbox.cif.g09.slc.cpg/sg122_1_cif.got.tgz:864.got - 2010.04.06 16:17:16.
