data_PCOD8312896
_publ_section_title
;
Structure prediction by ZEFSAII (Michael W. Deem and Ramdas Pophale) SiO2 
 PCOD8312896
Probable space group: P 4/M M M
;
_chemical_formula_sum "Si O2"
_cell_formula_units_Z 72
_cell_length_a 13.405487
_cell_length_b 13.405487
_cell_length_c 22.732623
_cell_angle_alpha 90.000000
_cell_angle_beta 90.000000
_cell_angle_gamma 90.000000
_cell_volume 4085.213339
_symmetry_space_group_name_H-M "P 4/M M M"
_symmetry_group_IT_number 123
_symmetry_cell_setting 'tetragonal'
loop_
_space_group_symop_operation_xyz
x,y,z
-y,x,z
-x,-y,z
y,-x,z
x,-y,-z
-x,y,-z
y,x,-z
-y,-x,-z
-x,-y,-z
y,-x,-z
x,y,-z
-y,x,-z
-x,y,z
x,-y,z
-y,-x,z
y,x,z
loop_
_atom_site_type_symbol
_atom_site_label
_atom_site_fract_x
_atom_site_fract_y
_atom_site_fract_z
Si Si1 0.615570 0.776554 0.708468
Si Si2 0.116886 0.280091 0.607258
Si Si3 0.773804 0.612489 0.157802
Si Si4 0.886786 0.725343 0.066212
Si Si5 0.617395 0.781163 0.500000
O O1 0.500000 0.761165 0.691988
O O2 0.670973 0.670973 0.697130
O O3 0.665228 0.862462 0.669086
O O4 0.629679 0.811924 0.775708
O O5 0.174669 0.174669 0.603087
O O6 0.153877 0.354444 0.556687
O O7 0.000000 0.257908 0.600718
O O8 0.739589 0.500000 0.148302
O O9 0.677556 0.677556 0.142715
O O10 0.862086 0.638185 0.112479
O O11 0.822860 0.822860 0.080962
O O12 0.000000 0.758298 0.074177
O O13 0.865936 0.686097 0.000000
O O14 0.500000 0.757948 0.500000
O O15 0.675899 0.675899 0.500000
#
# Coordination Sequence:
#
# PCOD8312896 Si02
#       5
#    16  16  16  16   8
#     4   9  18  32  50  73  99 127 160 197 238 285
#     4  10  21  36  53  74 100 130 166 206 245 287
#     4   9  18  32  49  70  97 127 159 196 236 280
#     4   9  18  32  49  69  93 121 154 194 239 285
#     4  10  21  36  54  78 106 134 165 200 240 288
#
# _framework density 17.624538000000001
#
# number of rings (size 3 to 8) (size 9 to 14) (size 15 to 20)
#    0.000    2.667    0.000    1.000    0.000    5.000 
#    0.000    6.667    0.000    6.000    0.000    9.333 
#    0.000    0.000    0.000    0.000    0.000    0.000 
#
# Total GULP energy -892809.538478 kJ/mol
# GULP energy per Si atom -12400.132479 kJ/mol
# Density = 1.758442 g / cm^3
# Si number density = 17.624538 Si / 1000 Ang^3
#
#
#
# Elastic Constant Matrix: (Units=GPa)
#
#
# Indices 1 2 3 4 5 6 
#
# 1 114.1571 47.2678 54.1502 0.0000 0.0000 0.0000
# 2 47.2678 114.1571 54.1502 0.0000 0.0000 0.0000
# 3 54.1502 54.1502 103.2483 0.0000 0.0000 0.0000
# 4 0.0000 0.0000 0.0000 24.8906 0.0000 0.0000
# 5 0.0000 0.0000 0.0000 0.0000 24.8906 0.0000
# 6 0.0000 0.0000 0.0000 0.0000 0.0000 12.1178
#
#
#
# Elastic Compliance Matrix: (Units=1/GPa)
#
#
# Indices 1 2 3 4 5 6 
#
# 1 0.012254 -0.002696 -0.005013 0.000000 0.000000 0.000000
# 2 -0.002696 0.012254 -0.005013 0.000000 0.000000 0.000000
# 3 -0.005013 -0.005013 0.014943 0.000000 0.000000 0.000000
# 4 0.000000 0.000000 0.000000 0.040176 0.000000 0.000000
# 5 0.000000 0.000000 0.000000 0.000000 0.040176 0.000000
# 6 0.000000 0.000000 0.000000 0.000000 0.000000 0.082523
#
#
# Mechanical properties :
#
#
# Convention : Reuss Voigt Hill
#
# Bulk Modulus (GPa) = 71.38717 71.41098 71.39908
# Shear Modulus (GPa) = 21.51102 24.11276 22.81189
#
# Velocity S-wave (km/s) = 3.49738 3.70284 3.60158
# Velocity P-wave (km/s) = 7.54329 7.67381 7.60883
#
# Compressibility (1/GPa) = 0.01400812
#
# Stress axis : x y z
#
# Youngs Moduli (GPa) = 81.60602 81.60602 66.91878
#
# Poissons Ratio (x) = 0.22001 0.33545
# Poissons Ratio (y) = 0.22001 0.33545
# Poissons Ratio (z) = 0.40908 0.40908
#
# Static dielectric constant tensor:
#      x y z
#    x 3.161110 0.000000 0.000000 
#    y 0.000000 3.161110 0.000000 
#    z 0.000000 0.000000 3.564170 
# 
# 
# High freq. dielectric constant tensor:
#      x y z
#    x 1.672240 0.000000 0.000000 
#    y 0.000000 1.672240 0.000000 
#    z 0.000000 0.000000 1.697920 
# 
# From -- ./inp_files/7845.got.cif
#   From: 2010.03.12/outbox.cif.g09.slc.cpg/sg123_4_cif.got.tgz:7845.got - 2010.04.06 16:26:55.
