data_PCOD8312764
_publ_section_title
;
Structure prediction by ZEFSAII (Michael W. Deem and Ramdas Pophale) SiO2 
 PCOD8312764
Probable space group: P 4/M M M
;
_chemical_formula_sum "Si O2"
_cell_formula_units_Z 120
_cell_length_a 25.011494
_cell_length_b 25.011494
_cell_length_c 10.421698
_cell_angle_alpha 90.000000
_cell_angle_beta 90.000000
_cell_angle_gamma 90.000000
_cell_volume 6519.551977
_symmetry_space_group_name_H-M "P 4/M M M"
_symmetry_group_IT_number 123
_symmetry_cell_setting 'tetragonal'
loop_
_space_group_symop_operation_xyz
x,y,z
-y,x,z
-x,-y,z
y,-x,z
x,-y,-z
-x,y,-z
y,x,-z
-y,-x,-z
-x,-y,-z
y,-x,-z
x,y,-z
-y,x,-z
-x,y,z
x,-y,z
-y,-x,z
y,x,z
loop_
_atom_site_type_symbol
_atom_site_label
_atom_site_fract_x
_atom_site_fract_y
_atom_site_fract_z
Si Si1 0.939598 0.146478 0.847983
Si Si2 0.439712 0.644820 0.346908
Si Si3 0.717931 0.804105 0.356515
Si Si4 0.559013 0.936453 0.000000
Si Si5 0.262641 0.104613 0.847997
Si Si6 0.139658 0.558254 0.352368
Si Si7 0.607738 0.245759 0.349508
Si Si8 0.060513 0.629360 0.232356
O O1 0.899069 0.100932 0.792885
O O2 0.919844 0.205448 0.807283
O O3 0.000000 0.136926 0.794488
O O4 0.940548 0.142693 0.000000
O O5 0.439257 0.646539 0.500000
O O6 0.500000 0.639602 0.294479
O O7 0.405892 0.594109 0.297064
O O8 0.412643 0.698629 0.289057
O O9 0.708090 0.829838 0.500000
O O10 0.773003 0.773003 0.361551
O O11 0.723868 0.845623 0.241212
O O12 0.670370 0.763509 0.321080
O O13 0.591016 0.916040 0.877838
O O14 0.500000 0.911610 0.000000
O O15 0.557905 0.000000 0.000000
O O16 0.309152 0.062439 0.813508
O O17 0.263156 0.119281 0.000000
O O18 0.151051 0.550307 0.500000
O O19 0.119839 0.500000 0.296886
O O20 0.196155 0.574808 0.287865
O O21 0.098444 0.608767 0.346087
O O22 0.597562 0.248835 0.500000
O O23 0.000000 0.616453 0.270840
#
# Coordination Sequence:
#
# PCOD8312764 Si02
#       8
#    16  16  16   8  16  16  16  16
#     4   9  18  32  52  79 109 141 176 216 262 315
#     4   9  16  25  39  61  90 125 165 210 260 314
#     4  10  20  34  54  78 105 138 175 217 262 312
#     4   9  18  32  48  66  89 122 169 217 251 290
#     4  11  21  35  55  80 110 141 177 218 266 321
#     4  10  20  33  49  70  98 132 172 221 272 317
#     4   9  16  29  47  67  93 127 170 213 257 309
#     4  11  21  33  50  71  96 132 174 216 262 313
#
# _framework density 18.406172000000002
#
# number of rings (size 3 to 8) (size 9 to 14) (size 15 to 20)
#    0.000    2.200    2.000    2.000    0.000    5.867 
#    0.000    2.000    0.000    1.200    0.000    0.000 
#    0.000    0.000    0.000    2.800    0.000    2.800 
#
# Total GULP energy -1486699.599126 kJ/mol
# GULP energy per Si atom -12389.163326 kJ/mol
# Density = 1.836428 g / cm^3
# Si number density = 18.406172 Si / 1000 Ang^3
#
#
#
# Elastic Constant Matrix: (Units=GPa)
#
#
# Indices 1 2 3 4 5 6 
#
# 1 130.9080 64.4980 21.2118 0.0000 0.0000 0.0000
# 2 64.4980 130.9080 21.2118 0.0000 0.0000 0.0000
# 3 21.2118 21.2118 32.3844 0.0000 0.0000 0.0000
# 4 0.0000 0.0000 0.0000 16.7606 0.0000 0.0000
# 5 0.0000 0.0000 0.0000 0.0000 16.7606 0.0000
# 6 0.0000 0.0000 0.0000 0.0000 0.0000 34.1596
#
#
#
# Elastic Compliance Matrix: (Units=1/GPa)
#
#
# Indices 1 2 3 4 5 6 
#
# 1 0.010512 -0.004546 -0.003908 0.000000 0.000000 0.000000
# 2 -0.004546 0.010512 -0.003908 0.000000 0.000000 0.000000
# 3 -0.003908 -0.003908 0.035998 0.000000 0.000000 0.000000
# 4 0.000000 0.000000 0.000000 0.059664 0.000000 0.000000
# 5 0.000000 0.000000 0.000000 0.000000 0.059664 0.000000
# 6 0.000000 0.000000 0.000000 0.000000 0.000000 0.029274
#
#
# Mechanical properties :
#
#
# Convention : Reuss Voigt Hill
#
# Bulk Modulus (GPa) = 30.96045 56.44931 43.70488
# Shear Modulus (GPa) = 20.73712 26.02138 23.37925
#
# Velocity S-wave (km/s) = 3.36019 3.76404 3.56783
# Velocity P-wave (km/s) = 5.64904 7.04457 6.38505
#
# Compressibility (1/GPa) = 0.03229927
#
# Stress axis : x y z
#
# Youngs Moduli (GPa) = 95.12976 95.12976 27.77916
#
# Poissons Ratio (x) = 0.43246 0.10855
# Poissons Ratio (y) = 0.43246 0.10855
# Poissons Ratio (z) = 0.37174 0.37174
#
# Static dielectric constant tensor:
#      x y z
#    x 3.601670 0.000000 0.000000 
#    y 0.000000 3.601670 0.000000 
#    z 0.000000 0.000000 2.989790 
# 
# 
# High freq. dielectric constant tensor:
#      x y z
#    x 1.722650 0.000000 0.000000 
#    y 0.000000 1.722650 0.000000 
#    z 0.000000 0.000000 1.651830 
# 
# From -- ./inp_files/3508.got.cif
#   From: 2010.03.12/outbox.cif.g09.slc.cpg/sg123_2_cif.got.tgz:3508.got - 2010.04.06 16:26:55.
