data_PCOD8312043
_publ_section_title
;
Structure prediction by ZEFSAII (Michael W. Deem and Ramdas Pophale) SiO2 
 PCOD8312043
Probable space group: I -4 2 D
;
_chemical_formula_sum "Si O2"
_cell_formula_units_Z 56
_cell_length_a 14.826638
_cell_length_b 14.826638
_cell_length_c 11.049109
_cell_angle_alpha 90.000000
_cell_angle_beta 90.000000
_cell_angle_gamma 90.000000
_cell_volume 2428.916730
_symmetry_space_group_name_H-M "I -4 2 D"
_symmetry_group_IT_number 122
_symmetry_cell_setting 'tetragonal'
loop_
_space_group_symop_operation_xyz
x,y,z
y,-x,-z
-x,-y,z
-y,x,-z
x,1/2-y,1/4-z
-x,1/2+y,1/4-z
-y,1/2-x,1/4+z
y,1/2+x,1/4+z
1/2+x,1/2+y,1/2+z
1/2+y,1/2-x,1/2-z
1/2-x,1/2-y,1/2+z
1/2-y,1/2+x,1/2-z
1/2+x,-y,3/4-z
1/2-x,y,3/4-z
1/2-y,-x,3/4+z
1/2+y,x,3/4+z
loop_
_atom_site_type_symbol
_atom_site_label
_atom_site_fract_x
_atom_site_fract_y
_atom_site_fract_z
Si Si1 0.250000 0.441695 0.375000
Si Si2 0.092311 0.554843 0.452484
Si Si3 0.903899 0.596829 0.782508
Si Si4 0.647794 0.237753 0.873413
O O1 0.161505 0.503993 0.363371
O O2 0.270151 0.378633 0.259841
O O3 0.136152 0.566458 0.586864
O O4 0.079126 0.656864 0.405616
O O5 0.000000 0.500000 0.452943
O O6 0.886465 0.489852 0.804499
O O7 0.817482 0.643235 0.722832
O O8 0.750000 0.201792 0.875000
#
# Coordination Sequence:
#
# PCOD8312043 Si02
#       4
#     8  16  16  16
#     4  12  28  48  70 110 148 194 250 314 392 460
#     4  12  26  47  75 106 148 197 249 313 385 461
#     4  11  22  49  74 108 145 194 255 311 381 455
#     4  12  29  45  77 108 152 197 257 315 384 466
#
# _framework density 23.055544999999999
#
# number of rings (size 3 to 8) (size 9 to 14) (size 15 to 20)
#    0.000    0.286    7.143    0.857    8.000    4.571 
#    0.000    0.000    0.000    0.000    0.000    0.000 
#    0.000    0.000    0.000    0.000    0.000    0.000 
#
# Total GULP energy -347206.723337 kJ/mol
# GULP energy per Si atom -12400.240119 kJ/mol
# Density = 2.300307 g / cm^3
# Si number density = 23.055545 Si / 1000 Ang^3
#
#
#
# Elastic Constant Matrix: (Units=GPa)
#
#
# Indices 1 2 3 4 5 6 
#
# 1 108.3009 30.4169 38.1840 0.0000 0.0000 0.0000
# 2 30.4169 108.3009 38.1840 0.0000 0.0000 0.0000
# 3 38.1840 38.1840 81.1845 0.0000 0.0000 0.0000
# 4 0.0000 0.0000 0.0000 35.5589 0.0000 0.0000
# 5 0.0000 0.0000 0.0000 0.0000 35.5589 0.0000
# 6 0.0000 0.0000 0.0000 0.0000 0.0000 33.6700
#
#
#
# Elastic Compliance Matrix: (Units=1/GPa)
#
#
# Indices 1 2 3 4 5 6 
#
# 1 0.011284 -0.001556 -0.004575 0.000000 0.000000 0.000000
# 2 -0.001556 0.011284 -0.004575 0.000000 0.000000 0.000000
# 3 -0.004575 -0.004575 0.016621 0.000000 0.000000 0.000000
# 4 0.000000 0.000000 0.000000 0.028122 0.000000 0.000000
# 5 0.000000 0.000000 0.000000 0.000000 0.028122 0.000000
# 6 0.000000 0.000000 0.000000 0.000000 0.000000 0.029700
#
#
# Mechanical properties :
#
#
# Convention : Reuss Voigt Hill
#
# Bulk Modulus (GPa) = 56.25654 56.81736 56.53695
# Shear Modulus (GPa) = 32.79291 33.69096 33.24194
#
# Velocity S-wave (km/s) = 3.77549 3.82684 3.80125
# Velocity P-wave (km/s) = 6.59236 6.65007 6.62128
#
# Compressibility (1/GPa) = 0.01777571
#
# Stress axis : x y z
#
# Youngs Moduli (GPa) = 88.62370 88.62370 60.16311
#
# Poissons Ratio (x) = 0.13789 0.27526
# Poissons Ratio (y) = 0.13789 0.27526
# Poissons Ratio (z) = 0.40548 0.40548
#
# Static dielectric constant tensor:
#      x y z
#    x 4.034040 0.000000 0.000000 
#    y 0.000000 4.034040 0.000000 
#    z 0.000000 0.000000 4.310010 
# 
# 
# High freq. dielectric constant tensor:
#      x y z
#    x 1.908940 0.000000 0.000000 
#    y 0.000000 1.908940 0.000000 
#    z 0.000000 0.000000 1.913980 
# 
# From -- ./inp_files/3902.got.cif
#   From: 2010.03.12/outbox.cif.g09.slc.cpg/sg122_2_cif.got.tgz:3902.got - 2010.04.06 16:17:16.
