data_PCOD8312733
_publ_section_title
;
Structure prediction by ZEFSAII (Michael W. Deem and Ramdas Pophale) SiO2 
 PCOD8312733
Probable space group: P 4/M M M
;
_chemical_formula_sum "Si O2"
_cell_formula_units_Z 72
_cell_length_a 13.684179
_cell_length_b 13.684179
_cell_length_c 23.303632
_cell_angle_alpha 90.000000
_cell_angle_beta 90.000000
_cell_angle_gamma 90.000000
_cell_volume 4363.762506
_symmetry_space_group_name_H-M "P 4/M M M"
_symmetry_group_IT_number 123
_symmetry_cell_setting 'tetragonal'
loop_
_space_group_symop_operation_xyz
x,y,z
-y,x,z
-x,-y,z
y,-x,z
x,-y,-z
-x,y,-z
y,x,-z
-y,-x,-z
-x,-y,-z
y,-x,-z
x,y,-z
-y,x,-z
-x,y,z
x,-y,z
-y,-x,z
y,x,z
loop_
_atom_site_type_symbol
_atom_site_label
_atom_site_fract_x
_atom_site_fract_y
_atom_site_fract_z
Si Si1 0.729893 0.887755 0.564220
Si Si2 0.884233 0.391983 0.329148
Si Si3 0.609881 0.234622 0.000000
Si Si4 0.726786 0.885195 0.781207
Si Si5 0.223437 0.385238 0.124862
O O1 0.686778 0.873316 0.500000
O O2 0.830560 0.830560 0.572148
O O3 0.650664 0.848799 0.609746
O O4 0.755980 0.000000 0.576467
O O5 0.838033 0.500000 0.322032
O O6 0.848827 0.322603 0.277804
O O7 0.000000 0.400067 0.327590
O O8 0.632738 0.178924 0.939854
O O9 0.500000 0.268927 0.000000
O O10 0.663823 0.336178 0.000000
O O11 0.829170 0.829170 0.789068
O O12 0.652236 0.860143 0.832421
O O13 0.749163 0.000000 0.781368
O O14 0.244794 0.500000 0.135932
O O15 0.323766 0.323766 0.134244
#
# Coordination Sequence:
#
# PCOD8312733 Si02
#       5
#    16  16   8  16  16
#     4   9  17  28  42  62  89 120 153 188 224 263
#     4   9  17  29  45  64  86 113 144 178 219 268
#     4   8  14  25  41  63  92 122 152 188 227 268
#     4  10  20  33  49  68  90 118 152 190 232 277
#     4   9  17  29  46  69  96 125 156 189 227 272
#
# _framework density 16.499521999999999
#
# number of rings (size 3 to 8) (size 9 to 14) (size 15 to 20)
#    0.000    2.889    0.000    1.333    0.000    2.556 
#    0.000    6.111    0.000    6.000    0.000    0.000 
#    0.000    8.444    0.000    9.778    0.000    0.889 
#
# Total GULP energy -892196.658275 kJ/mol
# GULP energy per Si atom -12391.620254 kJ/mol
# Density = 1.646197 g / cm^3
# Si number density = 16.499522 Si / 1000 Ang^3
#
#
#
# Elastic Constant Matrix: (Units=GPa)
#
#
# Indices 1 2 3 4 5 6 
#
# 1 72.8371 30.8390 43.9834 0.0000 0.0000 0.0000
# 2 30.8390 72.8368 43.9833 0.0000 0.0000 0.0000
# 3 43.9834 43.9833 134.4584 0.0000 0.0000 0.0000
# 4 0.0000 0.0000 0.0000 24.4948 0.0000 0.0000
# 5 0.0000 0.0000 0.0000 0.0000 24.4949 0.0000
# 6 0.0000 0.0000 0.0000 0.0000 0.0000 10.2527
#
#
#
# Elastic Compliance Matrix: (Units=1/GPa)
#
#
# Indices 1 2 3 4 5 6 
#
# 1 0.018581 -0.005230 -0.004367 0.000000 0.000000 0.000000
# 2 -0.005230 0.018581 -0.004367 0.000000 0.000000 0.000000
# 3 -0.004367 -0.004367 0.010294 0.000000 0.000000 0.000000
# 4 0.000000 0.000000 0.000000 0.040825 0.000000 0.000000
# 5 0.000000 0.000000 0.000000 0.000000 0.040825 0.000000
# 6 0.000000 0.000000 0.000000 0.000000 0.000000 0.097535
#
#
# Mechanical properties :
#
#
# Convention : Reuss Voigt Hill
#
# Bulk Modulus (GPa) = 51.21057 57.52709 54.36883
# Shear Modulus (GPa) = 19.15129 22.60359 20.87744
#
# Velocity S-wave (km/s) = 3.41063 3.70530 3.56102
# Velocity P-wave (km/s) = 6.82750 7.29708 7.06619
#
# Compressibility (1/GPa) = 0.01952722
#
# Stress axis : x y z
#
# Youngs Moduli (GPa) = 53.81896 53.81874 97.13953
#
# Poissons Ratio (x) = 0.28146 0.42424
# Poissons Ratio (y) = 0.28147 0.42424
# Poissons Ratio (z) = 0.23504 0.23504
#
# Static dielectric constant tensor:
#      x y z
#    x 2.919360 0.000000 0.000000 
#    y 0.000000 2.919360 0.000000 
#    z 0.000000 0.000000 3.588300 
# 
# 
# High freq. dielectric constant tensor:
#      x y z
#    x 1.611190 0.000000 0.000000 
#    y 0.000000 1.611190 0.000000 
#    z 0.000000 0.000000 1.659690 
# 
# From -- ./inp_files/7887.got.cif
#   From: 2010.03.12/outbox.cif.g09.slc.cpg/sg123_4_cif.got.tgz:7887.got - 2010.04.06 16:26:55.
