data_PCOD8312182
_publ_section_title
;
Structure prediction by ZEFSAII (Michael W. Deem and Ramdas Pophale) SiO2 
 PCOD8312182
Probable space group: P 4/M M M
;
_chemical_formula_sum "Si O2"
_cell_formula_units_Z 128
_cell_length_a 21.883094
_cell_length_b 21.883094
_cell_length_c 18.790511
_cell_angle_alpha 90.000000
_cell_angle_beta 90.000000
_cell_angle_gamma 90.000000
_cell_volume 8998.208301
_symmetry_space_group_name_H-M "P 4/M M M"
_symmetry_group_IT_number 123
_symmetry_cell_setting 'tetragonal'
loop_
_space_group_symop_operation_xyz
x,y,z
-y,x,z
-x,-y,z
y,-x,z
x,-y,-z
-x,y,-z
y,x,-z
-y,-x,-z
-x,-y,-z
y,-x,-z
x,y,-z
-y,x,-z
-x,y,z
x,-y,z
-y,-x,z
y,x,z
loop_
_atom_site_type_symbol
_atom_site_label
_atom_site_fract_x
_atom_site_fract_y
_atom_site_fract_z
Si Si1 0.361823 0.736399 0.694756
Si Si2 0.896226 0.568637 0.919029
Si Si3 0.378972 0.233427 0.081827
Si Si4 0.428878 0.815494 0.581021
Si Si5 0.657316 0.932348 0.800985
Si Si6 0.570614 0.329279 0.815733
Si Si7 0.930972 0.430246 0.671000
Si Si8 0.714139 0.191184 0.805469
O O1 0.319832 0.680169 0.669332
O O2 0.391482 0.766059 0.625583
O O3 0.414626 0.712891 0.747596
O O4 0.321220 0.786244 0.735603
O O5 0.914435 0.500000 0.896629
O O6 0.823513 0.575367 0.909194
O O7 0.932933 0.616768 0.871925
O O8 0.915355 0.581719 0.000000
O O9 0.412223 0.293089 0.112484
O O10 0.316818 0.219610 0.124371
O O11 0.361761 0.245628 0.000000
O O12 0.406402 0.811442 0.500000
O O13 0.500000 0.799500 0.587986
O O14 0.415743 0.884459 0.607314
O O15 0.612935 0.914280 0.736629
O O16 0.712043 0.882781 0.806392
O O17 0.685953 0.000000 0.791043
O O18 0.500000 0.346846 0.815697
O O19 0.608094 0.391907 0.812540
O O20 0.923259 0.500000 0.697341
O O21 0.000000 0.418424 0.643445
O O22 0.784157 0.215844 0.803587
#
# Coordination Sequence:
#
# PCOD8312182 Si02
#       8
#    16  16  16  16  16  16  16  16
#     4   9  17  31  47  62  79  99 128 164 206 250
#     4   9  17  27  39  58  84 112 141 173 204 233
#     4   9  17  29  44  62  81 103 136 173 207 243
#     4  10  19  29  43  63  84 106 132 164 202 239
#     4  10  18  28  42  59  81 111 142 169 198 236
#     4  10  20  31  44  59  75 100 130 166 213 258
#     4   9  17  28  41  58  82 113 144 167 187 221
#     4   9  17  29  45  63  81 104 133 168 203 234
#
# _framework density 14.225054
#
# number of rings (size 3 to 8) (size 9 to 14) (size 15 to 20)
#    0.000    2.625    1.250    2.250    0.000    3.375 
#    0.000    1.875    0.000    0.000    0.000    0.875 
#    0.000    0.250    0.000   11.625    0.000    0.000 
#
# Total GULP energy -1586945.530649 kJ/mol
# GULP energy per Si atom -12398.011958 kJ/mol
# Density = 1.419268 g / cm^3
# Si number density = 14.225054 Si / 1000 Ang^3
#
#
#
# Elastic Constant Matrix: (Units=GPa)
#
#
# Indices 1 2 3 4 5 6 
#
# 1 73.2910 39.4010 32.7451 0.0000 0.0000 0.0000
# 2 39.4010 73.2910 32.7451 0.0000 0.0000 0.0000
# 3 32.7451 32.7451 92.9634 0.0000 0.0000 0.0000
# 4 0.0000 0.0000 0.0000 15.2389 0.0000 0.0000
# 5 0.0000 0.0000 0.0000 0.0000 15.2389 0.0000
# 6 0.0000 0.0000 0.0000 0.0000 0.0000 14.7560
#
#
#
# Elastic Compliance Matrix: (Units=1/GPa)
#
#
# Indices 1 2 3 4 5 6 
#
# 1 0.020333 -0.009175 -0.003930 0.000000 0.000000 0.000000
# 2 -0.009175 0.020333 -0.003930 0.000000 0.000000 0.000000
# 3 -0.003930 -0.003930 0.013526 0.000000 0.000000 0.000000
# 4 0.000000 0.000000 0.000000 0.065621 0.000000 0.000000
# 5 0.000000 0.000000 0.000000 0.000000 0.065621 0.000000
# 6 0.000000 0.000000 0.000000 0.000000 0.000000 0.067769
#
#
# Mechanical properties :
#
#
# Convention : Reuss Voigt Hill
#
# Bulk Modulus (GPa) = 49.70070 49.92530 49.81300
# Shear Modulus (GPa) = 17.00799 18.02372 17.51585
#
# Velocity S-wave (km/s) = 3.46155 3.56341 3.51285
# Velocity P-wave (km/s) = 7.14081 7.21827 7.17964
#
# Compressibility (1/GPa) = 0.02012044
#
# Stress axis : x y z
#
# Youngs Moduli (GPa) = 49.18232 49.18232 73.93384
#
# Poissons Ratio (x) = 0.45124 0.29057
# Poissons Ratio (y) = 0.45124 0.29057
# Poissons Ratio (z) = 0.19329 0.19329
#
# Static dielectric constant tensor:
#      x y z
#    x 2.673110 0.000000 0.000000 
#    y 0.000000 2.673110 0.000000 
#    z 0.000000 0.000000 2.772650 
# 
# 
# High freq. dielectric constant tensor:
#      x y z
#    x 1.522920 0.000000 0.000000 
#    y 0.000000 1.522920 0.000000 
#    z 0.000000 0.000000 1.541320 
# 
# From -- ./inp_files/6009.got.cif
#   From: 2010.03.12/outbox.cif.g09.slc.cpg/sg123_4_cif.got.tgz:6009.got - 2010.04.06 16:26:55.
