data_PCOD8312389
_publ_section_title
;
Structure prediction by ZEFSAII (Michael W. Deem and Ramdas Pophale) SiO2 
 PCOD8312389
Probable space group: P 4/M M M
;
_chemical_formula_sum "Si O2"
_cell_formula_units_Z 128
_cell_length_a 20.795928
_cell_length_b 20.795928
_cell_length_c 19.116639
_cell_angle_alpha 90.000000
_cell_angle_beta 90.000000
_cell_angle_gamma 90.000000
_cell_volume 8267.384747
_symmetry_space_group_name_H-M "P 4/M M M"
_symmetry_group_IT_number 123
_symmetry_cell_setting 'tetragonal'
loop_
_space_group_symop_operation_xyz
x,y,z
-y,x,z
-x,-y,z
y,-x,z
x,-y,-z
-x,y,-z
y,x,-z
-y,-x,-z
-x,-y,-z
y,-x,-z
x,y,-z
-y,x,-z
-x,y,z
x,-y,z
-y,-x,z
y,x,z
loop_
_atom_site_type_symbol
_atom_site_label
_atom_site_fract_x
_atom_site_fract_y
_atom_site_fract_z
Si Si1 0.344158 0.763186 0.154960
Si Si2 0.425050 0.681070 0.580648
Si Si3 0.851247 0.744490 0.921631
Si Si4 0.929203 0.172582 0.580772
Si Si5 0.671000 0.570493 0.917531
Si Si6 0.857661 0.752739 0.311516
Si Si7 0.758634 0.349137 0.689033
Si Si8 0.817376 0.924728 0.189014
O O1 0.284275 0.715726 0.157913
O O2 0.317704 0.831534 0.125819
O O3 0.398791 0.739318 0.101853
O O4 0.376479 0.764094 0.231962
O O5 0.414813 0.703125 0.500000
O O6 0.500000 0.665163 0.594869
O O7 0.383442 0.616558 0.595968
O O8 0.403789 0.739901 0.632162
O O9 0.789345 0.789345 0.927887
O O10 0.909157 0.783361 0.884976
O O11 0.872847 0.723337 0.000000
O O12 0.931093 0.189337 0.500000
O O13 0.895166 0.104835 0.596366
O O14 0.890886 0.230525 0.615485
O O15 0.000000 0.166392 0.613035
O O16 0.664849 0.500000 0.884243
O O17 0.613281 0.613281 0.885710
O O18 0.665744 0.567416 0.000000
O O19 0.797612 0.797612 0.292464
O O20 0.830134 0.680927 0.322673
O O21 0.908339 0.764396 0.248854
O O22 0.705208 0.294793 0.680894
O O23 0.882712 0.882712 0.199112
O O24 0.835598 0.000000 0.191754
#
# Coordination Sequence:
#
# PCOD8312389 Si02
#       8
#    16  16  16  16  16  16  16  16
#     4   9  15  26  43  62  82 107 143 188 233 271
#     4   9  18  31  46  67  96 129 162 191 218 253
#     4   9  16  27  44  63  82 108 145 189 233 272
#     4   9  17  27  39  57  82 113 147 180 213 254
#     4   9  17  27  39  58  86 119 150 178 209 250
#     4   9  16  28  43  60  83 111 144 185 231 272
#     4   9  16  27  45  64  84 110 144 186 230 264
#     4  10  19  30  44  63  89 121 153 184 219 264
#
# _framework density 15.482526
#
# number of rings (size 3 to 8) (size 9 to 14) (size 15 to 20)
#    0.000    2.875    1.250    0.750    0.000    3.250 
#    0.000    4.375    0.000    2.250    0.000    5.250 
#    0.000    3.500    0.000    9.500    0.000    0.875 
#
# Total GULP energy -1585885.107858 kJ/mol
# GULP energy per Si atom -12389.727405 kJ/mol
# Density = 1.544729 g / cm^3
# Si number density = 15.482526 Si / 1000 Ang^3
#
#
#
# Elastic Constant Matrix: (Units=GPa)
#
#
# Indices 1 2 3 4 5 6 
#
# 1 57.3861 53.9457 30.7572 0.0000 0.0000 0.0000
# 2 53.9457 57.3861 30.7572 0.0000 0.0000 0.0000
# 3 30.7572 30.7572 69.4477 0.0000 0.0000 0.0000
# 4 0.0000 0.0000 0.0000 18.4620 0.0000 0.0000
# 5 0.0000 0.0000 0.0000 0.0000 18.4620 0.0000
# 6 0.0000 0.0000 0.0000 0.0000 0.0000 13.7288
#
#
#
# Elastic Compliance Matrix: (Units=1/GPa)
#
#
# Indices 1 2 3 4 5 6 
#
# 1 0.151278 -0.139386 -0.005267 0.000000 0.000000 0.000000
# 2 -0.139386 0.151278 -0.005267 0.000000 0.000000 0.000000
# 3 -0.005267 -0.005267 0.019065 0.000000 0.000000 0.000000
# 4 0.000000 0.000000 0.000000 0.054165 0.000000 0.000000
# 5 0.000000 0.000000 0.000000 0.000000 0.054165 0.000000
# 6 0.000000 0.000000 0.000000 0.000000 0.000000 0.072840
#
#
# Mechanical properties :
#
#
# Convention : Reuss Voigt Hill
#
# Bulk Modulus (GPa) = 45.91037 46.12667 46.01852
# Shear Modulus (GPa) = 6.17368 14.71455 10.44411
#
# Velocity S-wave (km/s) = 1.99904 3.08620 2.60007
# Velocity P-wave (km/s) = 5.91993 6.52356 6.22907
#
# Compressibility (1/GPa) = 0.02178157
#
# Stress axis : x y z
#
# Youngs Moduli (GPa) = 6.61035 6.61035 52.45332
#
# Poissons Ratio (x) = 0.92139 0.27627
# Poissons Ratio (y) = 0.92139 0.27627
# Poissons Ratio (z) = 0.03482 0.03482
#
# Static dielectric constant tensor:
#      x y z
#    x 2.864620 0.000000 0.000000 
#    y 0.000000 2.864620 0.000000 
#    z 0.000000 0.000000 3.149030 
# 
# 
# High freq. dielectric constant tensor:
#      x y z
#    x 1.561540 0.000000 0.000000 
#    y 0.000000 1.561540 0.000000 
#    z 0.000000 0.000000 1.605810 
# 
# From -- ./inp_files/6028.got.cif
#   From: 2010.03.12/outbox.cif.g09.slc.cpg/sg123_4_cif.got.tgz:6028.got - 2010.04.06 16:26:55.
