data_PCOD8312817
_publ_section_title
;
Structure prediction by ZEFSAII (Michael W. Deem and Ramdas Pophale) SiO2 
 PCOD8312817
Probable space group: P 4/M M M
;
_chemical_formula_sum "Si O2"
_cell_formula_units_Z 76
_cell_length_a 12.556474
_cell_length_b 12.556474
_cell_length_c 26.366171
_cell_angle_alpha 90.000000
_cell_angle_beta 90.000000
_cell_angle_gamma 90.000000
_cell_volume 4157.023387
_symmetry_space_group_name_H-M "P 4/M M M"
_symmetry_group_IT_number 123
_symmetry_cell_setting 'tetragonal'
loop_
_space_group_symop_operation_xyz
x,y,z
-y,x,z
-x,-y,z
y,-x,z
x,-y,-z
-x,y,-z
y,x,-z
-y,-x,-z
-x,-y,-z
y,-x,-z
x,y,-z
-y,x,-z
-x,y,z
x,-y,z
-y,-x,z
y,x,z
loop_
_atom_site_type_symbol
_atom_site_label
_atom_site_fract_x
_atom_site_fract_y
_atom_site_fract_z
Si Si1 0.123983 0.500000 0.081874
Si Si2 0.789806 0.620606 0.247811
Si Si3 0.291600 0.880631 0.851362
Si Si4 0.292786 0.118545 0.346055
Si Si5 0.314829 0.500000 0.000000
Si Si6 0.621432 0.206289 0.556234
O O1 0.138615 0.604140 0.115531
O O2 0.000000 0.500000 0.058809
O O3 0.227916 0.500000 0.045467
O O4 0.774375 0.500000 0.230912
O O5 0.673565 0.673565 0.248675
O O6 0.864777 0.680467 0.207669
O O7 0.842261 0.625159 0.303319
O O8 0.200110 0.799891 0.869771
O O9 0.247814 0.000000 0.858460
O O10 0.186060 0.186060 0.344762
O O11 0.348641 0.120520 0.401139
O O12 0.256919 0.000000 0.334072
O O13 0.393672 0.393672 0.000000
O O14 0.645443 0.158640 0.500000
O O15 0.500000 0.240091 0.561345
O O16 0.686328 0.313673 0.566270
#
# Coordination Sequence:
#
# PCOD8312817 Si02
#       6
#     8  16  16  16   4  16
#     4  10  20  37  60  83 111 149 192 232 270 320
#     4  10  20  34  52  76 106 138 175 215 258 313
#     4  10  20  34  54  80 110 145 184 228 274 322
#     4  10  21  35  51  71  95 126 165 211 260 310
#     4  11  23  38  58  86 121 153 184 230 280 325
#     4   9  18  32  49  71  98 126 159 200 247 302
#
# _framework density 18.282312000000001
#
# number of rings (size 3 to 8) (size 9 to 14) (size 15 to 20)
#    0.000    2.158    1.053    2.053    0.000    3.789 
#    0.000    2.105    0.000    7.579    0.000    2.947 
#    0.000    7.579    0.000    0.000    0.000    0.000 
#
# Total GULP energy -941885.660567 kJ/mol
# GULP energy per Si atom -12393.232376 kJ/mol
# Density = 1.824070 g / cm^3
# Si number density = 18.282312 Si / 1000 Ang^3
#
#
#
# Elastic Constant Matrix: (Units=GPa)
#
#
# Indices 1 2 3 4 5 6 
#
# 1 78.1538 98.6394 37.1426 0.0000 0.0000 0.0000
# 2 98.6394 78.1538 37.1426 0.0000 0.0000 0.0000
# 3 37.1426 37.1426 82.2135 0.0000 0.0000 0.0000
# 4 0.0000 0.0000 0.0000 22.5366 0.0000 0.0000
# 5 0.0000 0.0000 0.0000 0.0000 22.5366 0.0000
# 6 0.0000 0.0000 0.0000 0.0000 0.0000 17.0900
#
#
#
# Elastic Compliance Matrix: (Units=1/GPa)
#
#
# Indices 1 2 3 4 5 6 
#
# 1 -0.020917 0.027898 -0.003154 0.000000 0.000000 0.000000
# 2 0.027898 -0.020917 -0.003154 0.000000 0.000000 0.000000
# 3 -0.003154 -0.003154 0.015013 0.000000 0.000000 0.000000
# 4 0.000000 0.000000 0.000000 0.044372 0.000000 0.000000
# 5 0.000000 0.000000 0.000000 0.000000 0.044372 0.000000
# 6 0.000000 0.000000 0.000000 0.000000 0.000000 0.058514
#
#
# Mechanical properties :
#
#
# Convention : Reuss Voigt Hill
#
# Bulk Modulus (GPa) = 61.12462 64.93006 63.02734
# Shear Modulus (GPa) = 60.45031 16.80571 38.62801
#
# Velocity S-wave (km/s) = 5.75645 3.03518 4.60157
# Velocity P-wave (km/s) = 8.81411 6.91920 7.92351
#
# Compressibility (1/GPa) = 0.01636002
#
# Stress axis : x y z
#
# Youngs Moduli (GPa) = -47.80896 -47.80896 66.60683
#
# Poissons Ratio (x) = 1.33379 0.21009
# Poissons Ratio (y) = 1.33379 0.21009
# Poissons Ratio (z) = -0.15080 -0.15080
#
# Static dielectric constant tensor:
#      x y z
#    x 3.346320 0.000000 0.000000 
#    y 0.000000 3.346320 0.000000 
#    z 0.000000 0.000000 3.562240 
# 
# 
# High freq. dielectric constant tensor:
#      x y z
#    x 1.705460 0.000000 0.000000 
#    y 0.000000 1.705460 0.000000 
#    z 0.000000 0.000000 1.714040 
# 
# From -- ./inp_files/8338.got.cif
#   From: 2010.03.12/outbox.cif.g09.slc.cpg/sg123_5_cif.got.tgz:8338.got - 2010.04.06 16:26:55.
