data_PCOD8312367
_publ_section_title
;
Structure prediction by ZEFSAII (Michael W. Deem and Ramdas Pophale) SiO2 
 PCOD8312367
Probable space group: P 4/M M M
;
_chemical_formula_sum "Si O2"
_cell_formula_units_Z 104
_cell_length_a 26.667761
_cell_length_b 26.667761
_cell_length_c 9.117238
_cell_angle_alpha 90.000000
_cell_angle_beta 90.000000
_cell_angle_gamma 90.000000
_cell_volume 6483.901378
_symmetry_space_group_name_H-M "P 4/M M M"
_symmetry_group_IT_number 123
_symmetry_cell_setting 'tetragonal'
loop_
_space_group_symop_operation_xyz
x,y,z
-y,x,z
-x,-y,z
y,-x,z
x,-y,-z
-x,y,-z
y,x,-z
-y,-x,-z
-x,-y,-z
y,-x,-z
x,y,-z
-y,x,-z
-x,y,z
x,-y,z
-y,-x,z
y,x,z
loop_
_atom_site_type_symbol
_atom_site_label
_atom_site_fract_x
_atom_site_fract_y
_atom_site_fract_z
Si Si1 0.555372 0.000000 0.174013
Si Si2 0.371148 0.289129 0.671969
Si Si3 0.945976 0.267899 0.669318
Si Si4 0.367192 0.919196 0.828894
Si Si5 0.190379 0.660599 0.827600
Si Si6 0.160482 0.239726 0.670492
Si Si7 0.557471 0.361625 0.830409
O O1 0.583852 0.949351 0.226592
O O2 0.500000 0.000000 0.245218
O O3 0.551145 0.000000 0.000000
O O4 0.377816 0.280708 0.500000
O O5 0.321519 0.321519 0.707545
O O6 0.367742 0.235809 0.750524
O O7 0.420106 0.317036 0.732888
O O8 0.942446 0.282195 0.500000
O O9 0.943810 0.319428 0.755015
O O10 0.898523 0.232723 0.711134
O O11 0.000000 0.241549 0.704246
O O12 0.371250 0.860008 0.792291
O O13 0.359399 0.927484 0.000000
O O14 0.185333 0.716540 0.765267
O O15 0.200822 0.664261 0.000000
O O16 0.167896 0.253782 0.500000
O O17 0.187561 0.187561 0.709253
O O18 0.500000 0.370191 0.785167
O O19 0.586616 0.413385 0.798482
O O20 0.562722 0.346020 0.000000
#
# Coordination Sequence:
#
# PCOD8312367 Si02
#       7
#     8  16  16  16  16  16  16
#     4   9  16  28  47  65  81 105 139 179 218 257
#     4  10  20  33  49  68  92 124 157 185 217 262
#     4   9  16  26  42  62  83 110 143 178 216 259
#     4   9  17  29  45  64  85 109 142 181 221 265
#     4  10  19  29  44  67  91 116 148 186 225 266
#     4   9  17  28  41  60  88 118 146 178 219 267
#     4   9  18  33  53  76  99 121 146 179 220 265
#
# _framework density 16.039726000000002
#
# number of rings (size 3 to 8) (size 9 to 14) (size 15 to 20)
#    0.000    2.692    0.769    1.385    0.000    4.154 
#    0.000    1.538    0.000    3.692    0.000    2.154 
#    0.000    0.308    0.000    4.308    0.000    0.000 
#
# Total GULP energy -1289124.940706 kJ/mol
# GULP energy per Si atom -12395.432122 kJ/mol
# Density = 1.600322 g / cm^3
# Si number density = 16.039726 Si / 1000 Ang^3
#
#
#
# Elastic Constant Matrix: (Units=GPa)
#
#
# Indices 1 2 3 4 5 6 
#
# 1 132.2879 73.2149 41.3737 0.0000 0.0000 0.0000
# 2 73.2149 132.2879 41.3737 0.0000 0.0000 0.0000
# 3 41.3737 41.3737 51.4460 0.0000 0.0000 0.0000
# 4 0.0000 0.0000 0.0000 19.1985 0.0000 0.0000
# 5 0.0000 0.0000 0.0000 0.0000 19.1985 0.0000
# 6 0.0000 0.0000 0.0000 0.0000 0.0000 22.4399
#
#
#
# Elastic Compliance Matrix: (Units=1/GPa)
#
#
# Indices 1 2 3 4 5 6 
#
# 1 0.012062 -0.004866 -0.005788 0.000000 0.000000 0.000000
# 2 -0.004866 0.012062 -0.005788 0.000000 0.000000 0.000000
# 3 -0.005788 -0.005788 0.028747 0.000000 0.000000 0.000000
# 4 0.000000 0.000000 0.000000 0.052087 0.000000 0.000000
# 5 0.000000 0.000000 0.000000 0.000000 0.052087 0.000000
# 6 0.000000 0.000000 0.000000 0.000000 0.000000 0.044563
#
#
# Mechanical properties :
#
#
# Convention : Reuss Voigt Hill
#
# Bulk Modulus (GPa) = 50.02612 69.77181 59.89897
# Shear Modulus (GPa) = 20.73356 22.83801 21.78579
#
# Velocity S-wave (km/s) = 3.59923 3.77747 3.68943
# Velocity P-wave (km/s) = 6.96629 7.91325 7.45482
#
# Compressibility (1/GPa) = 0.01998956
#
# Stress axis : x y z
#
# Youngs Moduli (GPa) = 82.90247 82.90247 34.78654
#
# Poissons Ratio (x) = 0.40339 0.20133
# Poissons Ratio (y) = 0.40339 0.20133
# Poissons Ratio (z) = 0.47980 0.47980
#
# Static dielectric constant tensor:
#      x y z
#    x 3.180720 0.000000 0.000000 
#    y 0.000000 3.180720 0.000000 
#    z 0.000000 0.000000 3.047480 
# 
# 
# High freq. dielectric constant tensor:
#      x y z
#    x 1.606070 0.000000 0.000000 
#    y 0.000000 1.606070 0.000000 
#    z 0.000000 0.000000 1.615180 
# 
# From -- ./inp_files/1929.got.cif
#   From: 2010.03.12/outbox.cif.g09.slc.cpg/sg123_1_cif.got.tgz:1929.got - 2010.04.06 16:26:55.
