data_PCOD8312445
_publ_section_title
;
Structure prediction by ZEFSAII (Michael W. Deem and Ramdas Pophale) SiO2 
 PCOD8312445
Probable space group: P 4/M M M
;
_chemical_formula_sum "Si O2"
_cell_formula_units_Z 96
_cell_length_a 13.767267
_cell_length_b 13.767267
_cell_length_c 31.378119
_cell_angle_alpha 90.000000
_cell_angle_beta 90.000000
_cell_angle_gamma 90.000000
_cell_volume 5947.334643
_symmetry_space_group_name_H-M "P 4/M M M"
_symmetry_group_IT_number 123
_symmetry_cell_setting 'tetragonal'
loop_
_space_group_symop_operation_xyz
x,y,z
-y,x,z
-x,-y,z
y,-x,z
x,-y,-z
-x,y,-z
y,x,-z
-y,-x,-z
-x,-y,-z
y,-x,-z
x,y,-z
-y,x,-z
-x,y,z
x,-y,z
-y,-x,z
y,x,z
loop_
_atom_site_type_symbol
_atom_site_label
_atom_site_fract_x
_atom_site_fract_y
_atom_site_fract_z
Si Si1 0.272289 0.886683 0.407828
Si Si2 0.608658 0.885115 0.000000
Si Si3 0.271958 0.114990 0.917664
Si Si4 0.884902 0.392369 0.672172
Si Si5 0.885188 0.728958 0.753492
Si Si6 0.890342 0.734562 0.500000
Si Si7 0.608573 0.885085 0.164554
O O1 0.172102 0.827899 0.403069
O O2 0.348155 0.849082 0.372694
O O3 0.321216 0.868557 0.455125
O O4 0.247703 0.000000 0.400509
O O5 0.666083 0.850622 0.041712
O O6 0.500000 0.839914 0.000000
O O7 0.599979 0.000000 0.000000
O O8 0.167998 0.167998 0.918138
O O9 0.331868 0.149837 0.876511
O O10 0.251408 0.000000 0.917700
O O11 0.839598 0.500000 0.676822
O O12 0.849705 0.325669 0.710993
O O13 0.000000 0.399808 0.673223
O O14 0.832995 0.832995 0.755943
O O15 0.850820 0.663224 0.792973
O O16 0.000000 0.748822 0.754056
O O17 0.834520 0.834520 0.500000
O O18 0.000000 0.768651 0.500000
O O19 0.500000 0.839890 0.163716
O O20 0.600115 0.000000 0.164057
#
# Coordination Sequence:
#
# PCOD8312445 Si02
#       7
#    16   8  16  16  16   8  16
#     4   9  16  26  40  59  84 112 141 172 206 248
#     4   9  17  30  47  65  87 117 153 195 235 260
#     4  10  19  30  45  67  96 126 153 181 215 262
#     4   9  17  29  43  58  79 109 144 181 216 247
#     4  10  19  30  45  66  92 119 145 173 207 253
#     4   8  14  23  35  53  79 111 142 170 201 239
#     4   9  17  30  47  65  87 117 152 189 222 247
#
# _framework density 16.141684000000001
#
# number of rings (size 3 to 8) (size 9 to 14) (size 15 to 20)
#    0.000    2.750    0.000    2.250    0.000    4.583 
#    0.000    2.083    0.000   10.000    0.000    0.000 
#    0.000   48.667    0.000    0.000    0.000   18.667 
#
# Total GULP energy -1189748.034521 kJ/mol
# GULP energy per Si atom -12393.208693 kJ/mol
# Density = 1.610494 g / cm^3
# Si number density = 16.141684 Si / 1000 Ang^3
#
#
#
# Elastic Constant Matrix: (Units=GPa)
#
#
# Indices 1 2 3 4 5 6 
#
# 1 68.6494 38.9494 44.4240 0.0000 0.0000 0.0000
# 2 38.9494 68.6494 44.4240 0.0000 0.0000 0.0000
# 3 44.4240 44.4240 158.9410 0.0000 0.0000 0.0000
# 4 0.0000 0.0000 0.0000 18.0987 0.0000 0.0000
# 5 0.0000 0.0000 0.0000 0.0000 18.0987 0.0000
# 6 0.0000 0.0000 0.0000 0.0000 0.0000 5.9240
#
#
#
# Elastic Compliance Matrix: (Units=1/GPa)
#
#
# Indices 1 2 3 4 5 6 
#
# 1 0.022876 -0.010794 -0.003377 0.000000 0.000000 0.000000
# 2 -0.010794 0.022876 -0.003377 0.000000 0.000000 0.000000
# 3 -0.003377 -0.003377 0.008179 0.000000 0.000000 0.000000
# 4 0.000000 0.000000 0.000000 0.055253 0.000000 0.000000
# 5 0.000000 0.000000 0.000000 0.000000 0.055253 0.000000
# 6 0.000000 0.000000 0.000000 0.000000 0.000000 0.168806
#
#
# Mechanical properties :
#
#
# Convention : Reuss Voigt Hill
#
# Bulk Modulus (GPa) = 53.08994 61.31496 57.20245
# Shear Modulus (GPa) = 13.34695 19.65377 16.50036
#
# Velocity S-wave (km/s) = 2.87864 3.49317 3.20069
# Velocity P-wave (km/s) = 6.63401 7.37140 7.01241
#
# Compressibility (1/GPa) = 0.01883596
#
# Stress axis : x y z
#
# Youngs Moduli (GPa) = 43.71368 43.71368 122.25862
#
# Poissons Ratio (x) = 0.47184 0.41287
# Poissons Ratio (y) = 0.47184 0.41287
# Poissons Ratio (z) = 0.14762 0.14762
#
# Static dielectric constant tensor:
#      x y z
#    x 2.831620 0.000000 0.000000 
#    y 0.000000 2.831620 0.000000 
#    z 0.000000 0.000000 3.551500 
# 
# 
# High freq. dielectric constant tensor:
#      x y z
#    x 1.586310 0.000000 0.000000 
#    y 0.000000 1.586310 0.000000 
#    z 0.000000 0.000000 1.650660 
# 
# From -- ./inp_files/8675.got.cif
#   From: 2010.03.12/outbox.cif.g09.slc.cpg/sg123_5_cif.got.tgz:8675.got - 2010.04.06 16:26:55.
