data_PCOD8312722
_publ_section_title
;
Structure prediction by ZEFSAII (Michael W. Deem and Ramdas Pophale) SiO2 
 PCOD8312722
Probable space group: P 4/M M M
;
_chemical_formula_sum "Si O2"
_cell_formula_units_Z 88
_cell_length_a 13.191840
_cell_length_b 13.191840
_cell_length_c 29.792587
_cell_angle_alpha 90.000000
_cell_angle_beta 90.000000
_cell_angle_gamma 90.000000
_cell_volume 5184.644304
_symmetry_space_group_name_H-M "P 4/M M M"
_symmetry_group_IT_number 123
_symmetry_cell_setting 'tetragonal'
loop_
_space_group_symop_operation_xyz
x,y,z
-y,x,z
-x,-y,z
y,-x,z
x,-y,-z
-x,y,-z
y,x,-z
-y,-x,-z
-x,-y,-z
y,-x,-z
x,y,-z
-y,x,-z
-x,y,z
x,-y,z
-y,-x,z
y,x,z
loop_
_atom_site_type_symbol
_atom_site_label
_atom_site_fract_x
_atom_site_fract_y
_atom_site_fract_z
Si Si1 0.776995 0.383816 0.373967
Si Si2 0.619836 0.000000 0.050816
Si Si3 0.225368 0.614918 0.199898
Si Si4 0.111369 0.379238 0.714188
Si Si5 0.791317 0.380477 0.901735
Si Si6 0.115586 0.719851 0.449474
O O1 0.748556 0.500000 0.369489
O O2 0.673911 0.326090 0.385430
O O3 0.821528 0.340806 0.327308
O O4 0.856530 0.368740 0.414519
O O5 0.657129 0.106063 0.073191
O O6 0.500000 0.000000 0.053285
O O7 0.660370 0.000000 0.000000
O O8 0.247199 0.500000 0.211906
O O9 0.334247 0.665754 0.201942
O O10 0.152516 0.661660 0.237998
O O11 0.178080 0.628623 0.150502
O O12 0.106088 0.500000 0.714021
O O13 0.000000 0.332613 0.708171
O O14 0.763818 0.500000 0.913112
O O15 0.694921 0.305080 0.913402
O O16 0.136130 0.679830 0.500000
O O17 0.180381 0.819620 0.438601
O O18 0.000000 0.751761 0.443010
#
# Coordination Sequence:
#
# PCOD8312722 Si02
#       6
#    16   8  16  16  16  16
#     4  10  20  33  48  67  93 123 158 198 238 284
#     4   9  18  32  50  71  97 131 169 208 248 294
#     4   9  17  28  43  66  95 126 159 193 232 281
#     4   9  17  28  44  65  89 119 153 191 233 277
#     4   9  18  31  49  74 103 134 168 207 250 298
#     4   9  18  32  50  72  96 122 154 193 237 285
#
# _framework density 16.973199000000001
#
# number of rings (size 3 to 8) (size 9 to 14) (size 15 to 20)
#    0.000    2.818    0.000    1.091    1.273    2.545 
#    0.000    3.636    0.000    3.545    0.000    5.727 
#    0.000    3.273    0.000    0.000    0.000    0.000 
#
# Total GULP energy -1090523.819372 kJ/mol
# GULP energy per Si atom -12392.316129 kJ/mol
# Density = 1.693457 g / cm^3
# Si number density = 16.973199 Si / 1000 Ang^3
#
#
#
# Elastic Constant Matrix: (Units=GPa)
#
#
# Indices 1 2 3 4 5 6 
#
# 1 75.9237 38.0556 42.2182 0.0000 0.0000 0.0000
# 2 38.0556 75.9237 42.2182 0.0000 0.0000 0.0000
# 3 42.2182 42.2182 113.5067 0.0000 0.0000 0.0000
# 4 0.0000 0.0000 0.0000 24.0876 0.0000 0.0000
# 5 0.0000 0.0000 0.0000 0.0000 24.0876 0.0000
# 6 0.0000 0.0000 0.0000 0.0000 0.0000 13.0046
#
#
#
# Elastic Compliance Matrix: (Units=1/GPa)
#
#
# Indices 1 2 3 4 5 6 
#
# 1 0.019259 -0.007149 -0.004504 0.000000 0.000000 0.000000
# 2 -0.007149 0.019259 -0.004504 0.000000 0.000000 0.000000
# 3 -0.004504 -0.004504 0.012161 0.000000 0.000000 0.000000
# 4 0.000000 0.000000 0.000000 0.041515 0.000000 0.000000
# 5 0.000000 0.000000 0.000000 0.000000 0.041515 0.000000
# 6 0.000000 0.000000 0.000000 0.000000 0.000000 0.076896
#
#
# Mechanical properties :
#
#
# Convention : Reuss Voigt Hill
#
# Bulk Modulus (GPa) = 54.45425 56.70424 55.57925
# Shear Modulus (GPa) = 20.07702 21.76008 20.91855
#
# Velocity S-wave (km/s) = 3.44301 3.58442 3.51443
# Velocity P-wave (km/s) = 6.92517 7.11417 7.02030
#
# Compressibility (1/GPa) = 0.01836404
#
# Stress axis : x y z
#
# Youngs Moduli (GPa) = 51.92394 51.92394 82.23120
#
# Poissons Ratio (x) = 0.37118 0.37040
# Poissons Ratio (y) = 0.37118 0.37040
# Poissons Ratio (z) = 0.23389 0.23389
#
# Static dielectric constant tensor:
#      x y z
#    x 3.069240 0.000000 0.000000 
#    y 0.000000 3.069240 0.000000 
#    z 0.000000 0.000000 3.473640 
# 
# 
# High freq. dielectric constant tensor:
#      x y z
#    x 1.634430 0.000000 0.000000 
#    y 0.000000 1.634430 0.000000 
#    z 0.000000 0.000000 1.669270 
# 
# From -- ./inp_files/7974.got.cif
#   From: 2010.03.12/outbox.cif.g09.slc.cpg/sg123_4_cif.got.tgz:7974.got - 2010.04.06 16:26:55.
