data_PCOD8312471
_publ_section_title
;
Structure prediction by ZEFSAII (Michael W. Deem and Ramdas Pophale) SiO2 
 PCOD8312471
Probable space group: P 4/M M M
;
_chemical_formula_sum "Si O2"
_cell_formula_units_Z 72
_cell_length_a 12.537901
_cell_length_b 12.537901
_cell_length_c 27.572684
_cell_angle_alpha 90.000000
_cell_angle_beta 90.000000
_cell_angle_gamma 90.000000
_cell_volume 4334.397290
_symmetry_space_group_name_H-M "P 4/M M M"
_symmetry_group_IT_number 123
_symmetry_cell_setting 'tetragonal'
loop_
_space_group_symop_operation_xyz
x,y,z
-y,x,z
-x,-y,z
y,-x,z
x,-y,-z
-x,y,-z
y,x,-z
-y,-x,-z
-x,-y,-z
y,-x,-z
x,y,-z
-y,x,-z
-x,y,z
x,-y,z
-y,-x,z
y,x,z
loop_
_atom_site_type_symbol
_atom_site_label
_atom_site_fract_x
_atom_site_fract_y
_atom_site_fract_z
Si Si1 0.327838 0.500000 0.557232
Si Si2 0.379219 0.878816 0.213805
Si Si3 0.710044 0.121704 0.683950
Si Si4 0.122748 0.500000 0.377729
Si Si5 0.373294 0.000000 0.054798
Si Si6 0.207971 0.375809 0.889200
O O1 0.394737 0.394737 0.573238
O O2 0.312537 0.500000 0.500000
O O3 0.209210 0.500000 0.579386
O O4 0.500000 0.861902 0.231370
O O5 0.305365 0.850857 0.259360
O O6 0.353374 0.805112 0.168008
O O7 0.362069 0.000000 0.196576
O O8 0.803171 0.196830 0.663129
O O9 0.602539 0.144007 0.655007
O O10 0.746693 0.000000 0.677276
O O11 0.000000 0.500000 0.397747
O O12 0.331707 0.894716 0.082067
O O13 0.500000 0.000000 0.056213
O O14 0.329405 0.000000 0.000000
O O15 0.227583 0.500000 0.900047
O O16 0.310944 0.310944 0.907482
#
# Coordination Sequence:
#
# PCOD8312471 Si02
#       6
#     8  16  16   8   8  16
#     4   9  18  33  53  75  99 130 167 207 251 293
#     4   9  15  28  48  69  93 121 163 203 234 277
#     4  10  19  30  46  68  95 128 162 202 244 287
#     4  10  19  32  48  72  99 130 167 204 242 288
#     4   9  18  34  52  71  91 117 159 198 227 275
#     4  10  19  31  50  74  97 126 156 191 238 285
#
# _framework density 16.611305000000002
#
# number of rings (size 3 to 8) (size 9 to 14) (size 15 to 20)
#    0.000    2.444    2.222    1.667    0.000    1.111 
#    0.000    0.000    0.000    0.333    0.000    3.889 
#    0.000    0.000    0.000   20.667    0.000    0.000 
#
# Total GULP energy -892543.920980 kJ/mol
# GULP energy per Si atom -12396.443347 kJ/mol
# Density = 1.657350 g / cm^3
# Si number density = 16.611305 Si / 1000 Ang^3
#
#
#
# Elastic Constant Matrix: (Units=GPa)
#
#
# Indices 1 2 3 4 5 6 
#
# 1 96.7293 73.9638 36.9473 0.0000 0.0000 0.0000
# 2 73.9638 96.7293 36.9473 0.0000 0.0000 0.0000
# 3 36.9473 36.9473 60.4118 0.0000 0.0000 0.0000
# 4 0.0000 0.0000 0.0000 15.4657 0.0000 0.0000
# 5 0.0000 0.0000 0.0000 0.0000 15.4657 0.0000
# 6 0.0000 0.0000 0.0000 0.0000 0.0000 28.4617
#
#
#
# Elastic Compliance Matrix: (Units=1/GPa)
#
#
# Indices 1 2 3 4 5 6 
#
# 1 0.025947 -0.017979 -0.004873 0.000000 0.000000 0.000000
# 2 -0.017979 0.025947 -0.004873 0.000000 0.000000 0.000000
# 3 -0.004873 -0.004873 0.022514 0.000000 0.000000 0.000000
# 4 0.000000 0.000000 0.000000 0.064659 0.000000 0.000000
# 5 0.000000 0.000000 0.000000 0.000000 0.064659 0.000000
# 6 0.000000 0.000000 0.000000 0.000000 0.000000 0.035135
#
#
# Mechanical properties :
#
#
# Convention : Reuss Voigt Hill
#
# Bulk Modulus (GPa) = 52.75032 61.06523 56.90778
# Shear Modulus (GPa) = 16.63167 18.94611 17.78889
#
# Velocity S-wave (km/s) = 3.16765 3.38087 3.27600
# Velocity P-wave (km/s) = 6.72334 7.21675 6.97441
#
# Compressibility (1/GPa) = 0.01895723
#
# Stress axis : x y z
#
# Youngs Moduli (GPa) = 38.53986 38.53986 44.41707
#
# Poissons Ratio (x) = 0.69291 0.21645
# Poissons Ratio (y) = 0.69291 0.21645
# Poissons Ratio (z) = 0.18781 0.18781
#
# Static dielectric constant tensor:
#      x y z
#    x 3.011050 0.000000 0.000000 
#    y 0.000000 3.011050 0.000000 
#    z 0.000000 0.000000 3.027430 
# 
# 
# High freq. dielectric constant tensor:
#      x y z
#    x 1.629730 0.000000 0.000000 
#    y 0.000000 1.629730 0.000000 
#    z 0.000000 0.000000 1.628860 
# 
# From -- ./inp_files/8298.got.cif
#   From: 2010.03.12/outbox.cif.g09.slc.cpg/sg123_5_cif.got.tgz:8298.got - 2010.04.06 16:26:55.
