data_PCOD8312030
_publ_section_title
;
Structure prediction by ZEFSAII (Michael W. Deem and Ramdas Pophale) SiO2 
 PCOD8312030
Probable space group: I -4 2 D
;
_chemical_formula_sum "Si O2"
_cell_formula_units_Z 108
_cell_length_a 27.356206
_cell_length_b 27.356206
_cell_length_c 6.512719
_cell_angle_alpha 90.000000
_cell_angle_beta 90.000000
_cell_angle_gamma 90.000000
_cell_volume 4873.871460
_symmetry_space_group_name_H-M "I -4 2 D"
_symmetry_group_IT_number 122
_symmetry_cell_setting 'tetragonal'
loop_
_space_group_symop_operation_xyz
x,y,z
y,-x,-z
-x,-y,z
-y,x,-z
x,1/2-y,1/4-z
-x,1/2+y,1/4-z
-y,1/2-x,1/4+z
y,1/2+x,1/4+z
1/2+x,1/2+y,1/2+z
1/2+y,1/2-x,1/2-z
1/2-x,1/2-y,1/2+z
1/2-y,1/2+x,1/2-z
1/2+x,-y,3/4-z
1/2-x,y,3/4-z
1/2-y,-x,3/4+z
1/2+y,x,3/4+z
loop_
_atom_site_type_symbol
_atom_site_label
_atom_site_fract_x
_atom_site_fract_y
_atom_site_fract_z
Si Si1 0.623018 0.642790 0.300831
Si Si2 0.073539 0.703868 0.250423
Si Si3 0.059693 0.386260 0.822162
Si Si4 0.712774 0.804506 0.053345
Si Si5 0.000000 0.500000 0.250000
Si Si6 0.378598 0.750000 0.125000
Si Si7 0.835834 0.025809 0.955241
Si Si8 0.986198 0.412779 0.488907
O O1 0.653666 0.599682 0.416266
O O2 0.657613 0.690101 0.279687
O O3 0.575346 0.664918 0.412804
O O4 0.605194 0.624631 0.076510
O O5 0.095170 0.750000 0.125000
O O6 0.087729 0.713073 0.489821
O O7 0.014018 0.707714 0.219681
O O8 0.073328 0.430238 0.974019
O O9 0.010273 0.396412 0.699326
O O10 0.043510 0.342147 0.971030
O O11 0.723126 0.750000 0.125000
O O12 0.716946 0.843367 0.236494
O O13 0.750000 0.818118 0.875000
O O14 0.018004 0.457728 0.402284
O O15 0.875144 0.988340 0.052917
#
# Coordination Sequence:
#
# PCOD8312030 Si02
#       8
#    16  16  16  16   4   8  16  16
#     4  11  25  45  70 107 141 189 248 295 378 446
#     4  12  26  47  74 104 141 193 259 294 370 469
#     4  11  23  40  65  92 137 189 235 296 364 416
#     4  12  25  48  77 116 144 179 242 310 375 454
#     4  12  20  34  52  88 134 172 236 302 352 408
#     4  12  24  46  82 104 140 196 238 310 366 444
#     4  11  26  43  63  99 140 179 236 305 353 431
#     4  11  22  36  57  90 127 179 233 286 348 420
#
# _framework density 22.158977
#
# number of rings (size 3 to 8) (size 9 to 14) (size 15 to 20)
#    0.000    0.593    5.185    2.667    6.222    2.370 
#    4.000    0.000    0.000    0.000    0.000    0.000 
#    0.000    0.000    0.000    0.000    0.000    0.000 
#
# Total GULP energy -669008.746381 kJ/mol
# GULP energy per Si atom -12389.050859 kJ/mol
# Density = 2.210854 g / cm^3
# Si number density = 22.158977 Si / 1000 Ang^3
#
#
#
# Elastic Constant Matrix: (Units=GPa)
#
#
# Indices 1 2 3 4 5 6 
#
# 1 106.4133 34.8239 49.1841 0.0000 0.0000 0.0000
# 2 34.8239 106.4133 49.1841 0.0000 0.0000 0.0000
# 3 49.1841 49.1841 144.7530 0.0000 0.0000 0.0000
# 4 0.0000 0.0000 0.0000 32.4394 0.0000 0.0000
# 5 0.0000 0.0000 0.0000 0.0000 32.4394 0.0000
# 6 0.0000 0.0000 0.0000 0.0000 0.0000 26.0947
#
#
#
# Elastic Compliance Matrix: (Units=1/GPa)
#
#
# Indices 1 2 3 4 5 6 
#
# 1 0.011622 -0.002347 -0.003152 0.000000 0.000000 0.000000
# 2 -0.002347 0.011622 -0.003152 0.000000 0.000000 0.000000
# 3 -0.003152 -0.003152 0.009050 0.000000 0.000000 0.000000
# 4 0.000000 0.000000 0.000000 0.030827 0.000000 0.000000
# 5 0.000000 0.000000 0.000000 0.000000 0.030827 0.000000
# 6 0.000000 0.000000 0.000000 0.000000 0.000000 0.038322
#
#
# Mechanical properties :
#
#
# Convention : Reuss Voigt Hill
#
# Bulk Modulus (GPa) = 66.69189 69.32930 68.01059
# Shear Modulus (GPa) = 32.34848 33.15386 32.75117
#
# Velocity S-wave (km/s) = 3.82493 3.87225 3.84866
# Velocity P-wave (km/s) = 7.04763 7.16572 7.10692
#
# Compressibility (1/GPa) = 0.01499433
#
# Stress axis : x y z
#
# Youngs Moduli (GPa) = 86.04446 86.04446 110.49748
#
# Poissons Ratio (x) = 0.20192 0.34824
# Poissons Ratio (y) = 0.20192 0.34824
# Poissons Ratio (z) = 0.27117 0.27117
#
# Static dielectric constant tensor:
#      x y z
#    x 7.465670 0.000000 0.000000 
#    y 0.000000 7.465670 0.000000 
#    z 0.000000 0.000000 4.684040 
# 
# 
# High freq. dielectric constant tensor:
#      x y z
#    x 1.867380 0.000000 0.000000 
#    y 0.000000 1.867380 0.000000 
#    z 0.000000 0.000000 1.886780 
# 
# From -- ./inp_files/1577.got.cif
#   From: 2010.03.12/outbox.cif.g09.slc.cpg/sg122_1_cif.got.tgz:1577.got - 2010.04.06 16:17:16.
