data_PCOD8312754
_publ_section_title
;
Structure prediction by ZEFSAII (Michael W. Deem and Ramdas Pophale) SiO2 
 PCOD8312754
Probable space group: P 4/M M M
;
_chemical_formula_sum "Si O2"
_cell_formula_units_Z 88
_cell_length_a 13.888316
_cell_length_b 13.888316
_cell_length_c 28.144137
_cell_angle_alpha 90.000000
_cell_angle_beta 90.000000
_cell_angle_gamma 90.000000
_cell_volume 5428.590908
_symmetry_space_group_name_H-M "P 4/M M M"
_symmetry_group_IT_number 123
_symmetry_cell_setting 'tetragonal'
loop_
_space_group_symop_operation_xyz
x,y,z
-y,x,z
-x,-y,z
y,-x,z
x,-y,-z
-x,y,-z
y,x,-z
-y,-x,-z
-x,-y,-z
y,-x,-z
x,y,-z
-y,x,-z
-x,y,z
x,-y,z
-y,-x,z
y,x,z
loop_
_atom_site_type_symbol
_atom_site_label
_atom_site_fract_x
_atom_site_fract_y
_atom_site_fract_z
Si Si1 0.237237 0.390285 0.725862
Si Si2 0.769660 0.387616 0.833504
Si Si3 0.885459 0.273001 0.092301
Si Si4 0.886458 0.608401 0.000000
Si Si5 0.888859 0.265251 0.447257
Si Si6 0.388086 0.110626 0.359915
O O1 0.259883 0.500000 0.714764
O O2 0.338133 0.338133 0.719928
O O3 0.195981 0.376677 0.778973
O O4 0.162311 0.348520 0.687443
O O5 0.754794 0.500000 0.847071
O O6 0.668973 0.331028 0.842684
O O7 0.855612 0.339943 0.863503
O O8 0.829091 0.170910 0.093310
O O9 0.000000 0.252286 0.093677
O O10 0.852864 0.332077 0.045869
O O11 0.841277 0.500000 0.000000
O O12 0.000000 0.598218 0.000000
O O13 0.871248 0.309693 0.500000
O O14 0.835783 0.164218 0.441590
O O15 0.848991 0.338683 0.407679
O O16 0.000000 0.242797 0.438885
O O17 0.500000 0.128802 0.367049
O O18 0.363119 0.000000 0.352286
#
# Coordination Sequence:
#
# PCOD8312754 Si02
#       6
#    16  16  16   8  16  16
#     4   9  17  29  45  65  89 115 143 177 216 259
#     4   9  18  31  47  69  94 120 152 188 228 275
#     4  10  20  33  49  70  96 126 161 198 234 274
#     4   9  17  30  49  71  93 119 151 187 228 269
#     4   9  17  28  42  60  81 106 136 170 209 252
#     4   9  17  28  42  61  84 110 140 173 210 252
#
# _framework density 16.210469
#
# number of rings (size 3 to 8) (size 9 to 14) (size 15 to 20)
#    0.000    2.818    0.000    1.364    0.000    2.909 
#    0.000    6.364    0.000    1.636    0.000    0.000 
#    0.000   10.909    0.000   16.909    0.000    0.545 
#
# Total GULP energy -1090806.255935 kJ/mol
# GULP energy per Si atom -12395.525636 kJ/mol
# Density = 1.617357 g / cm^3
# Si number density = 16.210469 Si / 1000 Ang^3
#
#
#
# Elastic Constant Matrix: (Units=GPa)
#
#
# Indices 1 2 3 4 5 6 
#
# 1 74.7899 43.5820 55.4957 0.0000 0.0000 0.0000
# 2 43.5820 74.7899 55.4957 0.0000 0.0000 0.0000
# 3 55.4957 55.4957 129.1866 0.0000 0.0000 0.0000
# 4 0.0000 0.0000 0.0000 26.5571 0.0000 0.0000
# 5 0.0000 0.0000 0.0000 0.0000 26.5571 0.0000
# 6 0.0000 0.0000 0.0000 0.0000 0.0000 19.6445
#
#
#
# Elastic Compliance Matrix: (Units=1/GPa)
#
#
# Indices 1 2 3 4 5 6 
#
# 1 0.023094 -0.008949 -0.006077 0.000000 0.000000 0.000000
# 2 -0.008949 0.023094 -0.006077 0.000000 0.000000 0.000000
# 3 -0.006077 -0.006077 0.012962 0.000000 0.000000 0.000000
# 4 0.000000 0.000000 0.000000 0.037655 0.000000 0.000000
# 5 0.000000 0.000000 0.000000 0.000000 0.037655 0.000000
# 6 0.000000 0.000000 0.000000 0.000000 0.000000 0.050905
#
#
# Mechanical properties :
#
#
# Convention : Reuss Voigt Hill
#
# Bulk Modulus (GPa) = 59.00997 65.32368 62.16682
# Shear Modulus (GPa) = 21.43920 22.83128 22.13524
#
# Velocity S-wave (km/s) = 3.64064 3.75697 3.69926
# Velocity P-wave (km/s) = 7.35892 7.69445 7.52855
#
# Compressibility (1/GPa) = 0.01694629
#
# Stress axis : x y z
#
# Youngs Moduli (GPa) = 43.30042 43.30042 77.15117
#
# Poissons Ratio (x) = 0.38748 0.46882
# Poissons Ratio (y) = 0.38748 0.46882
# Poissons Ratio (z) = 0.26312 0.26312
#
# Static dielectric constant tensor:
#      x y z
#    x 2.985540 0.000000 0.000000 
#    y 0.000000 2.985540 0.000000 
#    z 0.000000 0.000000 3.425440 
# 
# 
# High freq. dielectric constant tensor:
#      x y z
#    x 1.611610 0.000000 0.000000 
#    y 0.000000 1.611610 0.000000 
#    z 0.000000 0.000000 1.639840 
# 
# From -- ./inp_files/7165.got.cif
#   From: 2010.03.12/outbox.cif.g09.slc.cpg/sg123_4_cif.got.tgz:7165.got - 2010.04.06 16:26:55.
