data_PCOD8312303
_publ_section_title
;
Structure prediction by ZEFSAII (Michael W. Deem and Ramdas Pophale) SiO2 
 PCOD8312303
Probable space group: P 4/M M M
;
_chemical_formula_sum "Si O2"
_cell_formula_units_Z 112
_cell_length_a 14.193985
_cell_length_b 14.193985
_cell_length_c 35.318827
_cell_angle_alpha 90.000000
_cell_angle_beta 90.000000
_cell_angle_gamma 90.000000
_cell_volume 7115.656180
_symmetry_space_group_name_H-M "P 4/M M M"
_symmetry_group_IT_number 123
_symmetry_cell_setting 'tetragonal'
loop_
_space_group_symop_operation_xyz
x,y,z
-y,x,z
-x,-y,z
y,-x,z
x,-y,-z
-x,y,-z
y,x,-z
-y,-x,-z
-x,-y,-z
y,-x,-z
x,y,-z
-y,x,-z
-x,y,z
x,-y,z
-y,-x,z
y,x,z
loop_
_atom_site_type_symbol
_atom_site_label
_atom_site_fract_x
_atom_site_fract_y
_atom_site_fract_z
Si Si1 0.388076 0.104419 0.260821
Si Si2 0.894728 0.611574 0.823135
Si Si3 0.739782 0.892052 0.544268
Si Si4 0.895022 0.611745 0.042109
Si Si5 0.609003 0.236878 0.590403
Si Si6 0.756752 0.607354 0.323490
Si Si7 0.763104 0.388001 0.890562
O O1 0.500000 0.101642 0.264072
O O2 0.358033 0.140060 0.218901
O O3 0.346179 0.170405 0.293777
O O4 0.347159 0.000000 0.267422
O O5 0.900228 0.500000 0.825958
O O6 0.821229 0.648507 0.854125
O O7 0.000000 0.651937 0.830995
O O8 0.717991 0.885204 0.500000
O O9 0.834587 0.834587 0.554788
O O10 0.649941 0.848160 0.565496
O O11 0.754408 0.000000 0.557056
O O12 0.898266 0.500000 0.043825
O O13 0.820066 0.648083 0.072652
O O14 0.000000 0.650348 0.051630
O O15 0.864464 0.645270 0.000000
O O16 0.500000 0.254987 0.579577
O O17 0.666579 0.333422 0.582679
O O18 0.618798 0.204050 0.633977
O O19 0.737490 0.500000 0.312976
O O20 0.656909 0.656909 0.319121
O O21 0.746565 0.500000 0.890405
O O22 0.661341 0.338660 0.890408
#
# Coordination Sequence:
#
# PCOD8312303 Si02
#       7
#    16  16  16  16  16  16  16
#     4   8  14  25  41  60  80 102 131 170 215 257
#     4   8  14  26  43  59  75  99 134 177 220 251
#     4   9  18  32  49  69  92 116 142 175 217 266
#     4   8  14  26  44  62  77  96 128 173 218 247
#     4   9  18  31  45  63  88 118 153 190 223 255
#     4   9  17  28  42  61  86 116 147 176 206 243
#     4  10  19  28  39  57  83 115 145 169 196 236
#
# _framework density 15.739940000000001
#
# number of rings (size 3 to 8) (size 9 to 14) (size 15 to 20)
#    0.000    3.286    0.000    1.714    0.000    4.286 
#    0.000    4.286    0.000    0.000    0.000    8.000 
#    0.000    4.857    0.000   12.571    0.000    2.286 
#
# Total GULP energy -1388053.785745 kJ/mol
# GULP energy per Si atom -12393.337373 kJ/mol
# Density = 1.570411 g / cm^3
# Si number density = 15.739940 Si / 1000 Ang^3
#
#
#
# Elastic Constant Matrix: (Units=GPa)
#
#
# Indices 1 2 3 4 5 6 
#
# 1 76.7083 38.9902 48.3128 0.0000 0.0000 0.0000
# 2 38.9902 76.7083 48.3128 0.0000 0.0000 0.0000
# 3 48.3128 48.3128 87.9661 0.0000 0.0000 0.0000
# 4 0.0000 0.0000 0.0000 19.8766 0.0000 0.0000
# 5 0.0000 0.0000 0.0000 0.0000 19.8766 0.0000
# 6 0.0000 0.0000 0.0000 0.0000 0.0000 8.5521
#
#
#
# Elastic Compliance Matrix: (Units=1/GPa)
#
#
# Indices 1 2 3 4 5 6 
#
# 1 0.021240 -0.005273 -0.008769 0.000000 0.000000 0.000000
# 2 -0.005273 0.021240 -0.008769 0.000000 0.000000 0.000000
# 3 -0.008769 -0.008769 0.021001 0.000000 0.000000 0.000000
# 4 0.000000 0.000000 0.000000 0.050310 0.000000 0.000000
# 5 0.000000 0.000000 0.000000 0.000000 0.050310 0.000000
# 6 0.000000 0.000000 0.000000 0.000000 0.000000 0.116931
#
#
# Mechanical properties :
#
#
# Convention : Reuss Voigt Hill
#
# Bulk Modulus (GPa) = 56.00041 56.95714 56.47878
# Shear Modulus (GPa) = 15.03276 16.71217 15.87247
#
# Velocity S-wave (km/s) = 3.09378 3.26201 3.17901
# Velocity P-wave (km/s) = 6.95828 7.10300 7.03101
#
# Compressibility (1/GPa) = 0.01785701
#
# Stress axis : x y z
#
# Youngs Moduli (GPa) = 47.08174 47.08174 47.61759
#
# Poissons Ratio (x) = 0.24825 0.41758
# Poissons Ratio (y) = 0.24825 0.41758
# Poissons Ratio (z) = 0.41288 0.41288
#
# Static dielectric constant tensor:
#      x y z
#    x 2.829650 0.000000 0.000000 
#    y 0.000000 2.829650 0.000000 
#    z 0.000000 0.000000 3.325810 
# 
# 
# High freq. dielectric constant tensor:
#      x y z
#    x 1.575960 0.000000 0.000000 
#    y 0.000000 1.575960 0.000000 
#    z 0.000000 0.000000 1.618350 
# 
# From -- ./inp_files/8692.got.cif
#   From: 2010.03.12/outbox.cif.g09.slc.cpg/sg123_5_cif.got.tgz:8692.got - 2010.04.06 16:26:55.
