data_PCOD8312177
_publ_section_title
;
Structure prediction by ZEFSAII (Michael W. Deem and Ramdas Pophale) SiO2 
 PCOD8312177
Probable space group: P 4/M M M
;
_chemical_formula_sum "Si O2"
_cell_formula_units_Z 96
_cell_length_a 24.545851
_cell_length_b 24.545851
_cell_length_c 8.412340
_cell_angle_alpha 90.000000
_cell_angle_beta 90.000000
_cell_angle_gamma 90.000000
_cell_volume 5068.424766
_symmetry_space_group_name_H-M "P 4/M M M"
_symmetry_group_IT_number 123
_symmetry_cell_setting 'tetragonal'
loop_
_space_group_symop_operation_xyz
x,y,z
-y,x,z
-x,-y,z
y,-x,z
x,-y,-z
-x,y,-z
y,x,-z
-y,-x,-z
-x,-y,-z
y,-x,-z
x,y,-z
-y,x,-z
-x,y,z
x,-y,z
-y,-x,z
y,x,z
loop_
_atom_site_type_symbol
_atom_site_label
_atom_site_fract_x
_atom_site_fract_y
_atom_site_fract_z
Si Si1 0.144267 0.059935 0.688946
Si Si2 0.649028 0.148044 0.186754
Si Si3 0.645389 0.731155 0.810645
Si Si4 0.440090 0.645079 0.810774
Si Si5 0.145516 0.232765 0.687265
Si Si6 0.061408 0.561509 0.189011
O O1 0.144324 0.056668 0.500000
O O2 0.088559 0.088559 0.747502
O O3 0.195314 0.095697 0.744431
O O4 0.148058 0.000000 0.765701
O O5 0.639570 0.208261 0.261156
O O6 0.711277 0.133810 0.222564
O O7 0.606026 0.104199 0.260245
O O8 0.639541 0.149376 0.000000
O O9 0.700824 0.700824 0.751503
O O10 0.593216 0.697461 0.749731
O O11 0.646479 0.733292 0.000000
O O12 0.500000 0.646256 0.734148
O O13 0.409856 0.590145 0.754393
O O14 0.443184 0.646386 0.000000
O O15 0.144453 0.243261 0.500000
O O16 0.202655 0.202655 0.734226
O O17 0.077641 0.500000 0.244011
O O18 0.000000 0.575260 0.249545
O O19 0.062102 0.564186 0.000000
#
# Coordination Sequence:
#
# PCOD8312177 Si02
#       6
#    16  16  16  16  16  16
#     4   8  14  25  41  61  85 113 144 177 213 254
#     4  10  18  27  45  68  83 105 146 184 209 246
#     4   8  14  23  33  49  74  97 120 160 205 231
#     4   8  13  20  29  43  67  98 127 156 192 232
#     4   9  18  31  44  61  90 122 144 169 215 267
#     4   8  15  28  43  61  88 115 137 171 221 267
#
# _framework density 18.940797
#
# number of rings (size 3 to 8) (size 9 to 14) (size 15 to 20)
#    0.000    3.500    0.000    3.000    0.000    2.667 
#    0.000    5.000    0.000    0.500    0.000    1.167 
#    0.000    0.000    0.000    3.667    0.000    3.833 
#
# Total GULP energy -1189374.480812 kJ/mol
# GULP energy per Si atom -12389.317508 kJ/mol
# Density = 1.889769 g / cm^3
# Si number density = 18.940797 Si / 1000 Ang^3
#
#
#
# Elastic Constant Matrix: (Units=GPa)
#
#
# Indices 1 2 3 4 5 6 
#
# 1 166.2946 110.6283 3.0319 0.0000 0.0000 0.0000
# 2 110.6283 166.2946 3.0319 0.0000 0.0000 0.0000
# 3 3.0319 3.0319 2.1502 0.0000 0.0000 0.0000
# 4 0.0000 0.0000 0.0000 11.4501 0.0000 0.0000
# 5 0.0000 0.0000 0.0000 0.0000 11.4501 0.0000
# 6 0.0000 0.0000 0.0000 0.0000 0.0000 29.3224
#
#
#
# Elastic Compliance Matrix: (Units=1/GPa)
#
#
# Indices 1 2 3 4 5 6 
#
# 1 0.010845 -0.007119 -0.005254 0.000000 0.000000 0.000000
# 2 -0.007119 0.010845 -0.005254 0.000000 0.000000 0.000000
# 3 -0.005254 -0.005254 0.479881 0.000000 0.000000 0.000000
# 4 0.000000 0.000000 0.000000 0.087335 0.000000 0.000000
# 5 0.000000 0.000000 0.000000 0.000000 0.087335 0.000000
# 6 0.000000 0.000000 0.000000 0.000000 0.000000 0.034104
#
#
# Mechanical properties :
#
#
# Convention : Reuss Voigt Hill
#
# Bulk Modulus (GPa) = 2.14446 63.12483 32.63465
# Shear Modulus (GPa) = 5.54915 24.98103 15.26509
#
# Velocity S-wave (km/s) = 1.71350 3.63561 2.84198
# Velocity P-wave (km/s) = 2.24710 7.14306 5.29494
#
# Compressibility (1/GPa) = 0.46631764
#
# Stress axis : x y z
#
# Youngs Moduli (GPa) = 92.20682 92.20682 2.08385
#
# Poissons Ratio (x) = 0.65642 0.01095
# Poissons Ratio (y) = 0.65642 0.01095
# Poissons Ratio (z) = 0.48445 0.48445
#
# Static dielectric constant tensor:
#      x y z
#    x 3.865970 0.000000 0.000000 
#    y 0.000000 3.865970 0.000000 
#    z 0.000000 0.000000 2.691760 
# 
# 
# High freq. dielectric constant tensor:
#      x y z
#    x 1.742960 0.000000 0.000000 
#    y 0.000000 1.742960 0.000000 
#    z 0.000000 0.000000 1.661710 
# 
# From -- ./inp_files/3294.got.cif
#   From: 2010.03.12/outbox.cif.g09.slc.cpg/sg123_2_cif.got.tgz:3294.got - 2010.04.06 16:26:55.
