data_PCOD8312837
_publ_section_title
;
Structure prediction by ZEFSAII (Michael W. Deem and Ramdas Pophale) SiO2 
 PCOD8312837
Probable space group: P 4/M M M
;
_chemical_formula_sum "Si O2"
_cell_formula_units_Z 120
_cell_length_a 17.585473
_cell_length_b 17.585473
_cell_length_c 20.012345
_cell_angle_alpha 90.000000
_cell_angle_beta 90.000000
_cell_angle_gamma 90.000000
_cell_volume 6188.794890
_symmetry_space_group_name_H-M "P 4/M M M"
_symmetry_group_IT_number 123
_symmetry_cell_setting 'tetragonal'
loop_
_space_group_symop_operation_xyz
x,y,z
-y,x,z
-x,-y,z
y,-x,z
x,-y,-z
-x,y,-z
y,x,-z
-y,-x,-z
-x,-y,-z
y,-x,-z
x,y,-z
-y,x,-z
-x,y,z
x,-y,z
-y,-x,z
y,x,z
loop_
_atom_site_type_symbol
_atom_site_label
_atom_site_fract_x
_atom_site_fract_y
_atom_site_fract_z
Si Si1 0.710333 0.587214 0.167329
Si Si2 0.915642 0.719716 0.255200
Si Si3 0.584837 0.000000 0.079464
Si Si4 0.087579 0.790490 0.606378
Si Si5 0.670310 0.795638 0.573916
Si Si6 0.651096 0.843385 0.925111
Si Si7 0.414104 0.806854 0.292534
Si Si8 0.088116 0.205036 0.884943
O O1 0.699335 0.500000 0.144397
O O2 0.631448 0.631448 0.156575
O O3 0.774435 0.626202 0.121439
O O4 0.732175 0.591199 0.245747
O O5 0.904387 0.780043 0.314409
O O6 0.864576 0.645497 0.261251
O O7 0.897519 0.767878 0.190161
O O8 0.000000 0.686371 0.254853
O O9 0.621837 0.077111 0.107884
O O10 0.500000 0.000000 0.105354
O O11 0.592507 0.000000 0.000000
O O12 0.133693 0.866308 0.584627
O O13 0.123767 0.714820 0.573348
O O14 0.000000 0.798715 0.583038
O O15 0.633993 0.784342 0.500000
O O16 0.730461 0.730461 0.591161
O O17 0.605098 0.789754 0.629982
O O18 0.741487 0.857357 0.929905
O O19 0.618872 0.828846 0.000000
O O20 0.500000 0.839761 0.289856
O O21 0.118795 0.118795 0.892785
O O22 0.000000 0.208081 0.907287
#
# Coordination Sequence:
#
# PCOD8312837 Si02
#       8
#    16  16   8  16  16  16  16  16
#     4  11  24  41  62  88 117 151 190 234 285 339
#     4   9  18  33  51  74 105 143 182 222 276 337
#     4   9  18  34  56  82 115 147 178 228 289 343
#     4   9  17  29  47  71 100 136 180 228 275 324
#     4   9  18  33  53  75 103 143 183 217 260 319
#     4  11  22  38  59  87 117 150 193 236 284 342
#     4  10  20  34  55  84 113 140 175 222 274 328
#     4  11  22  36  56  81 112 152 196 240 287 338
#
# _framework density 19.389882
#
# number of rings (size 3 to 8) (size 9 to 14) (size 15 to 20)
#    0.000    2.067    2.000    1.600    0.000    4.133 
#    0.000    0.000    0.000    2.400    0.000    7.467 
#    0.000    0.000    0.000   12.400    0.000    0.000 
#
# Total GULP energy -1487367.941105 kJ/mol
# GULP energy per Si atom -12394.732843 kJ/mol
# Density = 1.934575 g / cm^3
# Si number density = 19.389882 Si / 1000 Ang^3
#
#
#
# Elastic Constant Matrix: (Units=GPa)
#
#
# Indices 1 2 3 4 5 6 
#
# 1 99.0475 62.0048 20.0756 0.0000 0.0000 0.0000
# 2 62.0048 99.0475 20.0756 0.0000 0.0000 0.0000
# 3 20.0756 20.0756 74.6896 0.0000 0.0000 0.0000
# 4 0.0000 0.0000 0.0000 17.4441 0.0000 0.0000
# 5 0.0000 0.0000 0.0000 0.0000 17.4441 0.0000
# 6 0.0000 0.0000 0.0000 0.0000 0.0000 19.3298
#
#
#
# Elastic Compliance Matrix: (Units=1/GPa)
#
#
# Indices 1 2 3 4 5 6 
#
# 1 0.016825 -0.010170 -0.001789 0.000000 0.000000 0.000000
# 2 -0.010170 0.016825 -0.001789 0.000000 0.000000 0.000000
# 3 -0.001789 -0.001789 0.014350 0.000000 0.000000 0.000000
# 4 0.000000 0.000000 0.000000 0.057326 0.000000 0.000000
# 5 0.000000 0.000000 0.000000 0.000000 0.057326 0.000000
# 6 0.000000 0.000000 0.000000 0.000000 0.000000 0.051734
#
#
# Mechanical properties :
#
#
# Convention : Reuss Voigt Hill
#
# Bulk Modulus (GPa) = 48.76772 53.01072 50.88922
# Shear Modulus (GPa) = 20.10310 22.21885 21.16098
#
# Velocity S-wave (km/s) = 3.22340 3.38879 3.30713
# Velocity P-wave (km/s) = 6.24976 6.53533 6.39414
#
# Compressibility (1/GPa) = 0.02050537
#
# Stress axis : x y z
#
# Youngs Moduli (GPa) = 59.43364 59.43364 69.68469
#
# Poissons Ratio (x) = 0.60446 0.12465
# Poissons Ratio (y) = 0.60446 0.12465
# Poissons Ratio (z) = 0.10632 0.10632
#
# Static dielectric constant tensor:
#      x y z
#    x 3.458880 0.000000 0.000000 
#    y 0.000000 3.458880 0.000000 
#    z 0.000000 0.000000 3.640650 
# 
# 
# High freq. dielectric constant tensor:
#      x y z
#    x 1.740600 0.000000 0.000000 
#    y 0.000000 1.740600 0.000000 
#    z 0.000000 0.000000 1.760230 
# 
# From -- ./inp_files/6778.got.cif
#   From: 2010.03.12/outbox.cif.g09.slc.cpg/sg123_4_cif.got.tgz:6778.got - 2010.04.06 16:26:55.
