data_PCOD8312487
_publ_section_title
;
Structure prediction by ZEFSAII (Michael W. Deem and Ramdas Pophale) SiO2 
 PCOD8312487
Probable space group: P 4/M M M
;
_chemical_formula_sum "Si O2"
_cell_formula_units_Z 96
_cell_length_a 15.459245
_cell_length_b 15.459245
_cell_length_c 22.466335
_cell_angle_alpha 90.000000
_cell_angle_beta 90.000000
_cell_angle_gamma 90.000000
_cell_volume 5369.190220
_symmetry_space_group_name_H-M "P 4/M M M"
_symmetry_group_IT_number 123
_symmetry_cell_setting 'tetragonal'
loop_
_space_group_symop_operation_xyz
x,y,z
-y,x,z
-x,-y,z
y,-x,z
x,-y,-z
-x,y,-z
y,x,-z
-y,-x,-z
-x,-y,-z
y,-x,-z
x,y,-z
-y,x,-z
-x,y,z
x,-y,z
-y,-x,z
y,x,z
loop_
_atom_site_type_symbol
_atom_site_label
_atom_site_fract_x
_atom_site_fract_y
_atom_site_fract_z
Si Si1 0.191747 0.403417 0.771445
Si Si2 0.259613 0.399828 0.641932
Si Si3 0.404100 0.267161 0.896877
Si Si4 0.094027 0.238477 0.808705
Si Si5 0.720498 0.864018 0.935910
Si Si6 0.095794 0.397411 0.567088
O O1 0.148303 0.500000 0.770831
O O2 0.246360 0.389192 0.712048
O O3 0.259008 0.396323 0.825541
O O4 0.119797 0.328639 0.777560
O O5 0.278719 0.500000 0.624672
O O6 0.341279 0.341279 0.622001
O O7 0.172607 0.364010 0.609691
O O8 0.500000 0.286509 0.918677
O O9 0.346906 0.346906 0.918977
O O10 0.374716 0.176185 0.925991
O O11 0.164861 0.164861 0.794790
O O12 0.078480 0.252533 0.879648
O O13 0.000000 0.209939 0.783576
O O14 0.782949 0.782949 0.937820
O O15 0.723667 0.914205 0.000000
O O16 0.114014 0.364720 0.500000
O O17 0.094878 0.500000 0.568825
O O18 0.000000 0.364061 0.587982
#
# Coordination Sequence:
#
# PCOD8312487 Si02
#       6
#    16  16  16  16  16  16
#     4   9  18  33  50  67  90 121 160 203 241 275
#     4  10  19  30  47  71 100 133 164 196 237 287
#     4   9  16  26  41  60  84 115 150 191 238 285
#     4  10  20  33  50  72  98 125 152 188 234 286
#     4   8  15  29  46  61  80 111 149 183 219 269
#     4   8  15  29  47  66  90 122 162 206 245 276
#
# _framework density 17.879791000000001
#
# number of rings (size 3 to 8) (size 9 to 14) (size 15 to 20)
#    0.000    3.000    0.000    3.000    0.000    2.500 
#    0.000    1.667    0.000    3.000    0.000   11.667 
#    0.000    0.333    0.000    1.833    0.000    0.167 
#
# Total GULP energy -1189264.382176 kJ/mol
# GULP energy per Si atom -12388.170648 kJ/mol
# Density = 1.783910 g / cm^3
# Si number density = 17.879791 Si / 1000 Ang^3
#
#
#
# Elastic Constant Matrix: (Units=GPa)
#
#
# Indices 1 2 3 4 5 6 
#
# 1 102.2146 53.3487 15.1425 0.0000 0.0000 0.0000
# 2 53.3487 102.2146 15.1425 0.0000 0.0000 0.0000
# 3 15.1425 15.1425 45.5728 0.0000 0.0000 0.0000
# 4 0.0000 0.0000 0.0000 8.0655 0.0000 0.0000
# 5 0.0000 0.0000 0.0000 0.0000 8.0655 0.0000
# 6 0.0000 0.0000 0.0000 0.0000 0.0000 7.8630
#
#
#
# Elastic Compliance Matrix: (Units=1/GPa)
#
#
# Indices 1 2 3 4 5 6 
#
# 1 0.013668 -0.006796 -0.002284 0.000000 0.000000 0.000000
# 2 -0.006796 0.013668 -0.002284 0.000000 0.000000 0.000000
# 3 -0.002284 -0.002284 0.023460 0.000000 0.000000 0.000000
# 4 0.000000 0.000000 0.000000 0.123985 0.000000 0.000000
# 5 0.000000 0.000000 0.000000 0.000000 0.123985 0.000000
# 6 0.000000 0.000000 0.000000 0.000000 0.000000 0.127178
#
#
# Mechanical properties :
#
#
# Convention : Reuss Voigt Hill
#
# Bulk Modulus (GPa) = 35.62324 46.36330 40.99327
# Shear Modulus (GPa) = 10.91635 15.89001 13.40318
#
# Velocity S-wave (km/s) = 2.47359 2.98436 2.74090
# Velocity P-wave (km/s) = 5.30332 6.15322 5.74401
#
# Compressibility (1/GPa) = 0.02807156
#
# Stress axis : x y z
#
# Youngs Moduli (GPa) = 73.16094 73.16094 42.62486
#
# Poissons Ratio (x) = 0.49718 0.09734
# Poissons Ratio (y) = 0.49718 0.09734
# Poissons Ratio (z) = 0.16707 0.16707
#
# Static dielectric constant tensor:
#      x y z
#    x 3.172100 0.000000 0.000000 
#    y 0.000000 3.172100 0.000000 
#    z 0.000000 0.000000 3.420300 
# 
# 
# High freq. dielectric constant tensor:
#      x y z
#    x 1.670440 0.000000 0.000000 
#    y 0.000000 1.670440 0.000000 
#    z 0.000000 0.000000 1.684580 
# 
# From -- ./inp_files/6468.got.cif
#   From: 2010.03.12/outbox.cif.g09.slc.cpg/sg123_4_cif.got.tgz:6468.got - 2010.04.06 16:26:55.
