data_PCOD8312365
_publ_section_title
;
Structure prediction by ZEFSAII (Michael W. Deem and Ramdas Pophale) SiO2 
 PCOD8312365
Probable space group: P 4/M M M
;
_chemical_formula_sum "Si O2"
_cell_formula_units_Z 96
_cell_length_a 17.907358
_cell_length_b 17.907358
_cell_length_c 18.229761
_cell_angle_alpha 90.000000
_cell_angle_beta 90.000000
_cell_angle_gamma 90.000000
_cell_volume 5845.800727
_symmetry_space_group_name_H-M "P 4/M M M"
_symmetry_group_IT_number 123
_symmetry_cell_setting 'tetragonal'
loop_
_space_group_symop_operation_xyz
x,y,z
-y,x,z
-x,-y,z
y,-x,z
x,-y,-z
-x,y,-z
y,x,-z
-y,-x,-z
-x,-y,-z
y,-x,-z
x,y,-z
-y,x,-z
-x,y,z
x,-y,z
-y,-x,z
y,x,z
loop_
_atom_site_type_symbol
_atom_site_label
_atom_site_fract_x
_atom_site_fract_y
_atom_site_fract_z
Si Si1 0.685069 0.196566 0.334847
Si Si2 0.416920 0.697349 0.581458
Si Si3 0.585514 0.706725 0.914334
Si Si4 0.084347 0.583708 0.586305
Si Si5 0.188629 0.311519 0.835577
Si Si6 0.793353 0.085460 0.085707
O O1 0.769164 0.230837 0.352048
O O2 0.626833 0.260078 0.355683
O O3 0.656907 0.124981 0.380287
O O4 0.677492 0.175587 0.250316
O O5 0.410003 0.735951 0.500000
O O6 0.500000 0.692756 0.609355
O O7 0.386394 0.613607 0.575587
O O8 0.500000 0.689810 0.893084
O O9 0.634342 0.634342 0.891375
O O10 0.611830 0.781689 0.871667
O O11 0.594376 0.723571 0.000000
O O12 0.086993 0.593471 0.500000
O O13 0.117571 0.500000 0.606738
O O14 0.000000 0.586787 0.615352
O O15 0.250691 0.250691 0.853736
O O16 0.112166 0.281361 0.871772
O O17 0.865875 0.134126 0.108640
O O18 0.810148 0.000000 0.107521
O O19 0.776771 0.093836 0.000000
#
# Coordination Sequence:
#
# PCOD8312365 Si02
#       6
#    16  16  16  16  16  16
#     4  10  19  29  44  66  88 112 145 184 220 253
#     4   9  17  28  42  61  86 117 151 186 226 271
#     4   9  17  29  45  63  83 110 146 189 232 268
#     4   9  18  32  48  65  87 116 146 176 217 268
#     4   9  18  31  45  63  89 121 152 177 209 259
#     4   9  17  30  50  74  97 120 144 171 206 251
#
# _framework density 16.422046000000002
#
# number of rings (size 3 to 8) (size 9 to 14) (size 15 to 20)
#    0.000    2.833    0.000    2.000    0.000    6.833 
#    0.000    2.500    0.000    0.500    0.000    7.000 
#    0.000    0.333    0.000    1.833    0.000    0.000 
#
# Total GULP energy -1189268.409509 kJ/mol
# GULP energy per Si atom -12388.212599 kJ/mol
# Density = 1.638467 g / cm^3
# Si number density = 16.422046 Si / 1000 Ang^3
#
#
#
# Elastic Constant Matrix: (Units=GPa)
#
#
# Indices 1 2 3 4 5 6 
#
# 1 88.1114 51.3441 38.2759 0.0000 0.0000 0.0000
# 2 51.3441 88.1114 38.2759 0.0000 0.0000 0.0000
# 3 38.2759 38.2759 60.8661 0.0000 0.0000 0.0000
# 4 0.0000 0.0000 0.0000 28.5616 0.0000 0.0000
# 5 0.0000 0.0000 0.0000 0.0000 28.5616 0.0000
# 6 0.0000 0.0000 0.0000 0.0000 0.0000 23.3718
#
#
#
# Elastic Compliance Matrix: (Units=1/GPa)
#
#
# Indices 1 2 3 4 5 6 
#
# 1 0.019075 -0.008124 -0.006887 0.000000 0.000000 0.000000
# 2 -0.008124 0.019075 -0.006887 0.000000 0.000000 0.000000
# 3 -0.006887 -0.006887 0.025091 0.000000 0.000000 0.000000
# 4 0.000000 0.000000 0.000000 0.035012 0.000000 0.000000
# 5 0.000000 0.000000 0.000000 0.000000 0.035012 0.000000
# 6 0.000000 0.000000 0.000000 0.000000 0.000000 0.042787
#
#
# Mechanical properties :
#
#
# Convention : Reuss Voigt Hill
#
# Bulk Modulus (GPa) = 51.42311 54.76450 53.09380
# Shear Modulus (GPa) = 22.09200 23.37853 22.73527
#
# Velocity S-wave (km/s) = 3.67176 3.77716 3.72484
# Velocity P-wave (km/s) = 7.02547 7.24177 7.13444
#
# Compressibility (1/GPa) = 0.01944651
#
# Stress axis : x y z
#
# Youngs Moduli (GPa) = 52.42589 52.42589 39.85519
#
# Poissons Ratio (x) = 0.42588 0.27447
# Poissons Ratio (y) = 0.42588 0.27447
# Poissons Ratio (z) = 0.36104 0.36104
#
# Static dielectric constant tensor:
#      x y z
#    x 3.177850 0.000000 0.000000 
#    y 0.000000 3.177850 0.000000 
#    z 0.000000 0.000000 2.982670 
# 
# 
# High freq. dielectric constant tensor:
#      x y z
#    x 1.620500 0.000000 0.000000 
#    y 0.000000 1.620500 0.000000 
#    z 0.000000 0.000000 1.623550 
# 
# From -- ./inp_files/5479.got.cif
#   From: 2010.03.12/outbox.cif.g09.slc.cpg/sg123_3_cif.got.tgz:5479.got - 2010.04.06 16:26:55.
