data_PCOD8312093
_publ_section_title
;
Structure prediction by ZEFSAII (Michael W. Deem and Ramdas Pophale) SiO2 
 PCOD8312093
Probable space group: I -4 2 D
;
_chemical_formula_sum "Si O2"
_cell_formula_units_Z 60
_cell_length_a 17.519101
_cell_length_b 17.519101
_cell_length_c 9.342284
_cell_angle_alpha 90.000000
_cell_angle_beta 90.000000
_cell_angle_gamma 90.000000
_cell_volume 2867.323527
_symmetry_space_group_name_H-M "I -4 2 D"
_symmetry_group_IT_number 122
_symmetry_cell_setting 'tetragonal'
loop_
_space_group_symop_operation_xyz
x,y,z
y,-x,-z
-x,-y,z
-y,x,-z
x,1/2-y,1/4-z
-x,1/2+y,1/4-z
-y,1/2-x,1/4+z
y,1/2+x,1/4+z
1/2+x,1/2+y,1/2+z
1/2+y,1/2-x,1/2-z
1/2-x,1/2-y,1/2+z
1/2-y,1/2+x,1/2-z
1/2+x,-y,3/4-z
1/2-x,y,3/4-z
1/2-y,-x,3/4+z
1/2+y,x,3/4+z
loop_
_atom_site_type_symbol
_atom_site_label
_atom_site_fract_x
_atom_site_fract_y
_atom_site_fract_z
Si Si1 0.847308 0.960798 0.629781
Si Si2 0.794845 0.382572 0.521470
Si Si3 0.750000 0.905358 0.375000
Si Si4 0.500000 0.500000 0.000000
Si Si5 0.198900 0.816753 0.238424
O O1 0.793126 0.958681 0.489878
O O2 0.831405 0.888226 0.727435
O O3 0.836496 0.035799 0.726781
O O4 0.936441 0.955488 0.590947
O O5 0.750000 0.369782 0.375000
O O6 0.854376 0.313190 0.543083
O O7 0.736287 0.388348 0.655740
O O8 0.206156 0.750000 0.125000
O O9 0.250000 0.795788 0.375000
#
# Coordination Sequence:
#
# PCOD8312093 Si02
#       5
#    16  16   8   4  16
#     4  12  26  42  70 100 135 185 231 288 345 422
#     4  12  26  44  70 105 139 178 233 293 345 418
#     4  12  24  44  72 102 136 186 234 282 362 424
#     4  12  24  48  60 102 140 180 232 282 356 420
#     4  12  22  42  70 102 135 181 230 288 347 416
#
# _framework density 20.925436000000001
#
# number of rings (size 3 to 8) (size 9 to 14) (size 15 to 20)
#    0.000    0.000    6.667    3.200    5.600    0.000 
#    0.000    0.000    0.000    0.000    0.000    0.000 
#    0.000    0.000    0.000    0.000    0.000    0.000 
#
# Total GULP energy -371971.473564 kJ/mol
# GULP energy per Si atom -12399.049119 kJ/mol
# Density = 2.087781 g / cm^3
# Si number density = 20.925436 Si / 1000 Ang^3
#
#
#
# Elastic Constant Matrix: (Units=GPa)
#
#
# Indices 1 2 3 4 5 6 
#
# 1 134.0831 29.7621 43.8869 0.0000 0.0000 0.0000
# 2 29.7621 134.0831 43.8869 0.0000 0.0000 0.0000
# 3 43.8869 43.8869 128.8261 0.0000 0.0000 0.0000
# 4 0.0000 0.0000 0.0000 32.4319 0.0000 0.0000
# 5 0.0000 0.0000 0.0000 0.0000 32.4319 0.0000
# 6 0.0000 0.0000 0.0000 0.0000 0.0000 6.1196
#
#
#
# Elastic Compliance Matrix: (Units=1/GPa)
#
#
# Indices 1 2 3 4 5 6 
#
# 1 0.008526 -0.001060 -0.002543 0.000000 0.000000 0.000000
# 2 -0.001060 0.008526 -0.002543 0.000000 0.000000 0.000000
# 3 -0.002543 -0.002543 0.009495 0.000000 0.000000 0.000000
# 4 0.000000 0.000000 0.000000 0.030834 0.000000 0.000000
# 5 0.000000 0.000000 0.000000 0.000000 0.030834 0.000000
# 6 0.000000 0.000000 0.000000 0.000000 0.000000 0.163409
#
#
# Mechanical properties :
#
#
# Convention : Reuss Voigt Hill
#
# Bulk Modulus (GPa) = 70.15828 70.22933 70.19381
# Shear Modulus (GPa) = 18.61030 32.82711 25.71871
#
# Velocity S-wave (km/s) = 2.98545 3.96506 3.50960
# Velocity P-wave (km/s) = 6.74422 7.38897 7.07394
#
# Compressibility (1/GPa) = 0.01425348
#
# Stress axis : x y z
#
# Youngs Moduli (GPa) = 117.29085 117.29085 105.31537
#
# Poissons Ratio (x) = 0.12433 0.26786
# Poissons Ratio (y) = 0.12433 0.26786
# Poissons Ratio (z) = 0.29831 0.29831
#
# Static dielectric constant tensor:
#      x y z
#    x 3.951480 0.000000 0.000000 
#    y 0.000000 3.951480 0.000000 
#    z 0.000000 0.000000 3.941490 
# 
# 
# High freq. dielectric constant tensor:
#      x y z
#    x 1.829720 0.000000 0.000000 
#    y 0.000000 1.829720 0.000000 
#    z 0.000000 0.000000 1.817370 
# 
# From -- ./inp_files/2316.got.cif
#   From: 2010.03.12/outbox.cif.g09.slc.cpg/sg122_2_cif.got.tgz:2316.got - 2010.04.06 16:17:16.
