data_PCOD8312253
_publ_section_title
;
Structure prediction by ZEFSAII (Michael W. Deem and Ramdas Pophale) SiO2 
 PCOD8312253
Probable space group: P 4/M M M
;
_chemical_formula_sum "Si O2"
_cell_formula_units_Z 104
_cell_length_a 26.831806
_cell_length_b 26.831806
_cell_length_c 8.909690
_cell_angle_alpha 90.000000
_cell_angle_beta 90.000000
_cell_angle_gamma 90.000000
_cell_volume 6414.494013
_symmetry_space_group_name_H-M "P 4/M M M"
_symmetry_group_IT_number 123
_symmetry_cell_setting 'tetragonal'
loop_
_space_group_symop_operation_xyz
x,y,z
-y,x,z
-x,-y,z
y,-x,z
x,-y,-z
-x,y,-z
y,x,-z
-y,-x,-z
-x,-y,-z
y,-x,-z
x,y,-z
-y,x,-z
-x,y,z
x,-y,z
-y,-x,z
y,x,z
loop_
_atom_site_type_symbol
_atom_site_label
_atom_site_fract_x
_atom_site_fract_y
_atom_site_fract_z
Si Si1 0.554680 0.230258 0.674111
Si Si2 0.683396 0.155107 0.322956
Si Si3 0.866408 0.055510 0.821532
Si Si4 0.055731 0.500000 0.178181
Si Si5 0.129727 0.584654 0.177605
Si Si6 0.265292 0.657533 0.323385
Si Si7 0.214799 0.866645 0.825725
O O1 0.562115 0.215180 0.500000
O O2 0.500000 0.254653 0.700822
O O3 0.558685 0.180709 0.771399
O O4 0.598687 0.269049 0.720637
O O5 0.678571 0.151461 0.500000
O O6 0.638982 0.122746 0.250867
O O7 0.678740 0.212297 0.266455
O O8 0.735772 0.132972 0.272493
O O9 0.915136 0.084865 0.760929
O O10 0.816737 0.085149 0.774044
O O11 0.865437 0.000000 0.751921
O O12 0.868896 0.053425 0.000000
O O13 0.084386 0.549688 0.232606
O O14 0.000000 0.500000 0.246662
O O15 0.053780 0.500000 0.000000
O O16 0.130589 0.590497 0.000000
O O17 0.268592 0.664099 0.500000
O O18 0.310476 0.689525 0.248685
O O19 0.183143 0.816858 0.793929
O O20 0.229167 0.870017 0.000000
#
# Coordination Sequence:
#
# PCOD8312253 Si02
#       7
#    16  16  16   8  16  16  16
#     4   9  16  26  42  63  88 115 143 179 221 265
#     4  10  19  30  45  65  88 117 149 184 223 267
#     4   8  14  25  42  65  91 117 146 181 222 268
#     4   9  18  32  49  67  85 107 141 185 228 271
#     4  10  18  30  48  67  85 109 144 184 224 267
#     4   8  14  24  38  58  83 110 140 174 211 252
#     4   9  17  29  45  66  92 120 150 184 221 265
#
# _framework density 16.213283000000001
#
# number of rings (size 3 to 8) (size 9 to 14) (size 15 to 20)
#    0.000    3.000    0.769    3.231    0.000    1.077 
#    0.000    1.538    0.000   12.923    0.000    0.000 
#    0.000    0.308    0.000    7.692    0.000    3.385 
#
# Total GULP energy -1288895.024467 kJ/mol
# GULP energy per Si atom -12393.221389 kJ/mol
# Density = 1.617638 g / cm^3
# Si number density = 16.213283 Si / 1000 Ang^3
#
#
#
# Elastic Constant Matrix: (Units=GPa)
#
#
# Indices 1 2 3 4 5 6 
#
# 1 138.9431 73.5723 27.0223 0.0000 0.0000 0.0000
# 2 73.5723 138.9431 27.0223 0.0000 0.0000 0.0000
# 3 27.0223 27.0223 39.0681 0.0000 0.0000 0.0000
# 4 0.0000 0.0000 0.0000 14.1332 0.0000 0.0000
# 5 0.0000 0.0000 0.0000 0.0000 14.1332 0.0000
# 6 0.0000 0.0000 0.0000 0.0000 0.0000 24.5425
#
#
#
# Elastic Compliance Matrix: (Units=1/GPa)
#
#
# Indices 1 2 3 4 5 6 
#
# 1 0.010504 -0.004794 -0.003949 0.000000 0.000000 0.000000
# 2 -0.004794 0.010504 -0.003949 0.000000 0.000000 0.000000
# 3 -0.003949 -0.003949 0.031060 0.000000 0.000000 0.000000
# 4 0.000000 0.000000 0.000000 0.070756 0.000000 0.000000
# 5 0.000000 0.000000 0.000000 0.000000 0.070756 0.000000
# 6 0.000000 0.000000 0.000000 0.000000 0.000000 0.040746
#
#
# Mechanical properties :
#
#
# Convention : Reuss Voigt Hill
#
# Bulk Modulus (GPa) = 37.47852 63.57647 50.52750
# Shear Modulus (GPa) = 18.61485 23.18425 20.89955
#
# Velocity S-wave (km/s) = 3.39207 3.78558 3.59421
# Velocity P-wave (km/s) = 6.20545 7.64233 6.96106
#
# Compressibility (1/GPa) = 0.02668195
#
# Stress axis : x y z
#
# Youngs Moduli (GPa) = 95.20520 95.20520 32.19609
#
# Poissons Ratio (x) = 0.45639 0.12715
# Poissons Ratio (y) = 0.45639 0.12715
# Poissons Ratio (z) = 0.37600 0.37600
#
# Static dielectric constant tensor:
#      x y z
#    x 3.252700 0.000000 0.000000 
#    y 0.000000 3.252700 0.000000 
#    z 0.000000 0.000000 2.760830 
# 
# 
# High freq. dielectric constant tensor:
#      x y z
#    x 1.615220 0.000000 0.000000 
#    y 0.000000 1.615220 0.000000 
#    z 0.000000 0.000000 1.595030 
# 
# From -- ./inp_files/1956.got.cif
#   From: 2010.03.12/outbox.cif.g09.slc.cpg/sg123_1_cif.got.tgz:1956.got - 2010.04.06 16:26:55.
