data_PCOD8312418
_publ_section_title
;
Structure prediction by ZEFSAII (Michael W. Deem and Ramdas Pophale) SiO2 
 PCOD8312418
Probable space group: P 4/M M M
;
_chemical_formula_sum "Si O2"
_cell_formula_units_Z 64
_cell_length_a 14.034898
_cell_length_b 14.034898
_cell_length_c 20.867894
_cell_angle_alpha 90.000000
_cell_angle_beta 90.000000
_cell_angle_gamma 90.000000
_cell_volume 4110.523576
_symmetry_space_group_name_H-M "P 4/M M M"
_symmetry_group_IT_number 123
_symmetry_cell_setting 'tetragonal'
loop_
_space_group_symop_operation_xyz
x,y,z
-y,x,z
-x,-y,z
y,-x,z
x,-y,-z
-x,y,-z
y,x,-z
-y,-x,-z
-x,-y,-z
y,-x,-z
x,y,-z
-y,x,-z
-x,y,z
x,-y,z
-y,-x,z
y,x,z
loop_
_atom_site_type_symbol
_atom_site_label
_atom_site_fract_x
_atom_site_fract_y
_atom_site_fract_z
Si Si1 0.233787 0.389208 0.138360
Si Si2 0.392992 0.887346 0.500000
Si Si3 0.268158 0.112576 0.620404
Si Si4 0.391577 0.110894 0.742367
Si Si5 0.391876 0.239447 0.000000
O O1 0.259139 0.500000 0.146429
O O2 0.331161 0.331161 0.146655
O O3 0.160306 0.356092 0.192554
O O4 0.185368 0.368933 0.067557
O O5 0.500000 0.843058 0.500000
O O6 0.335673 0.853636 0.437515
O O7 0.402280 0.000000 0.500000
O O8 0.168101 0.168101 0.617000
O O9 0.322903 0.141727 0.684921
O O10 0.245817 0.000000 0.616951
O O11 0.500000 0.139352 0.724415
O O12 0.383938 0.000000 0.755607
O O13 0.500000 0.270428 0.000000
O O14 0.338751 0.338751 0.000000
#
# Coordination Sequence:
#
# PCOD8312418 Si02
#       5
#    16   8  16  16   8
#     4   9  16  26  40  58  81 107 135 168 206 250
#     4   9  17  30  47  65  85 109 137 169 201 232
#     4  10  19  30  45  65  89 115 141 170 205 246
#     4   9  17  29  44  61  81 107 140 177 213 245
#     4   8  14  23  35  53  77 105 134 164 201 245
#
# _framework density 15.569793000000001
#
# number of rings (size 3 to 8) (size 9 to 14) (size 15 to 20)
#    0.000    2.875    0.000    1.875    0.000    3.625 
#    0.000    3.125    0.000    6.000    0.000    0.000 
#    0.000   19.000    0.000    0.000    0.000   75.000 
#
# Total GULP energy -792982.792275 kJ/mol
# GULP energy per Si atom -12390.356129 kJ/mol
# Density = 1.553436 g / cm^3
# Si number density = 15.569793 Si / 1000 Ang^3
#
#
#
# Elastic Constant Matrix: (Units=GPa)
#
#
# Indices 1 2 3 4 5 6 
#
# 1 56.3843 36.2740 51.5225 0.0000 0.0000 0.0000
# 2 36.2740 56.3843 51.5225 0.0000 0.0000 0.0000
# 3 51.5225 51.5225 159.0095 0.0000 0.0000 0.0000
# 4 0.0000 0.0000 0.0000 22.2756 0.0000 0.0000
# 5 0.0000 0.0000 0.0000 0.0000 22.2756 0.0000
# 6 0.0000 0.0000 0.0000 0.0000 0.0000 21.1786
#
#
#
# Elastic Compliance Matrix: (Units=1/GPa)
#
#
# Indices 1 2 3 4 5 6 
#
# 1 0.033299 -0.016427 -0.005467 0.000000 0.000000 0.000000
# 2 -0.016427 0.033299 -0.005467 0.000000 0.000000 0.000000
# 3 -0.005467 -0.005467 0.009832 0.000000 0.000000 0.000000
# 4 0.000000 0.000000 0.000000 0.044892 0.000000 0.000000
# 5 0.000000 0.000000 0.000000 0.000000 0.044892 0.000000
# 6 0.000000 0.000000 0.000000 0.000000 0.000000 0.047217
#
#
# Mechanical properties :
#
#
# Convention : Reuss Voigt Hill
#
# Bulk Modulus (GPa) = 46.06545 61.15735 53.61140
# Shear Modulus (GPa) = 18.15615 21.97656 20.06635
#
# Velocity S-wave (km/s) = 3.41855 3.76105 3.59388
# Velocity P-wave (km/s) = 6.72552 7.63056 7.19229
#
# Compressibility (1/GPa) = 0.02170824
#
# Stress axis : x y z
#
# Youngs Moduli (GPa) = 30.03102 30.03102 101.71138
#
# Poissons Ratio (x) = 0.49331 0.55605
# Poissons Ratio (y) = 0.49331 0.55605
# Poissons Ratio (z) = 0.16418 0.16418
#
# Static dielectric constant tensor:
#      x y z
#    x 2.784720 0.000000 0.000000 
#    y 0.000000 2.784720 0.000000 
#    z 0.000000 0.000000 3.457270 
# 
# 
# High freq. dielectric constant tensor:
#      x y z
#    x 1.573300 0.000000 0.000000 
#    y 0.000000 1.573300 0.000000 
#    z 0.000000 0.000000 1.623880 
# 
# From -- ./inp_files/4955.got.cif
#   From: 2010.03.12/outbox.cif.g09.slc.cpg/sg123_3_cif.got.tgz:4955.got - 2010.04.06 16:26:55.
