data_PCOD8312405
_publ_section_title
;
Structure prediction by ZEFSAII (Michael W. Deem and Ramdas Pophale) SiO2 
 PCOD8312405
Probable space group: P 4/M M M
;
_chemical_formula_sum "Si O2"
_cell_formula_units_Z 88
_cell_length_a 14.121455
_cell_length_b 14.121455
_cell_length_c 28.443280
_cell_angle_alpha 90.000000
_cell_angle_beta 90.000000
_cell_angle_gamma 90.000000
_cell_volume 5672.030656
_symmetry_space_group_name_H-M "P 4/M M M"
_symmetry_group_IT_number 123
_symmetry_cell_setting 'tetragonal'
loop_
_space_group_symop_operation_xyz
x,y,z
-y,x,z
-x,-y,z
y,-x,z
x,-y,-z
-x,y,-z
y,x,-z
-y,-x,-z
-x,-y,-z
y,-x,-z
x,y,-z
-y,x,-z
-x,y,z
x,-y,z
-y,-x,z
y,x,z
loop_
_atom_site_type_symbol
_atom_site_label
_atom_site_fract_x
_atom_site_fract_y
_atom_site_fract_z
Si Si1 0.388090 0.894530 0.363490
Si Si2 0.611932 0.233532 0.277020
Si Si3 0.110112 0.264801 0.101579
Si Si4 0.762557 0.608770 0.553390
Si Si5 0.107387 0.258783 0.000000
Si Si6 0.108015 0.390129 0.811792
O O1 0.500000 0.903858 0.360368
O O2 0.352498 0.829578 0.320745
O O3 0.357152 0.847152 0.412754
O O4 0.342997 0.000000 0.360464
O O5 0.500000 0.255173 0.279576
O O6 0.666771 0.333230 0.277440
O O7 0.640153 0.175619 0.230629
O O8 0.168445 0.168445 0.108070
O O9 0.142578 0.338782 0.140957
O O10 0.000000 0.239180 0.107510
O O11 0.130207 0.312492 0.049547
O O12 0.798133 0.622865 0.500000
O O13 0.735273 0.500000 0.563582
O O14 0.668468 0.668468 0.563784
O O15 0.160030 0.160030 0.000000
O O16 0.000000 0.227904 0.000000
O O17 0.117267 0.500000 0.822567
O O18 0.000000 0.363732 0.798244
#
# Coordination Sequence:
#
# PCOD8312405 Si02
#       6
#    16  16  16  16   8  16
#     4   9  17  29  44  61  82 109 140 173 208 243
#     4  10  19  30  45  64  86 111 137 166 201 243
#     4   9  16  26  40  58  81 107 135 168 205 246
#     4   9  17  28  42  62  89 119 148 177 209 247
#     4   8  14  23  35  53  77 105 134 164 201 243
#     4   9  17  29  44  61  81 107 139 172 205 240
#
# _framework density 15.514726
#
# number of rings (size 3 to 8) (size 9 to 14) (size 15 to 20)
#    0.000    2.909    0.000    1.636    0.000    3.182 
#    0.000    5.000    0.000    6.000    0.000    0.000 
#    0.000   16.000    0.000    8.000    0.000   55.273 
#
# Total GULP energy -1090530.683099 kJ/mol
# GULP energy per Si atom -12392.394126 kJ/mol
# Density = 1.547941 g / cm^3
# Si number density = 15.514726 Si / 1000 Ang^3
#
#
#
# Elastic Constant Matrix: (Units=GPa)
#
#
# Indices 1 2 3 4 5 6 
#
# 1 63.3352 38.2744 53.1524 0.0000 0.0000 0.0000
# 2 38.2744 63.3352 53.1524 0.0000 0.0000 0.0000
# 3 53.1524 53.1524 139.1648 0.0000 0.0000 0.0000
# 4 0.0000 0.0000 0.0000 23.3707 0.0000 0.0000
# 5 0.0000 0.0000 0.0000 0.0000 23.3707 0.0000
# 6 0.0000 0.0000 0.0000 0.0000 0.0000 17.1086
#
#
#
# Elastic Compliance Matrix: (Units=1/GPa)
#
#
# Indices 1 2 3 4 5 6 
#
# 1 0.028147 -0.011756 -0.006261 0.000000 0.000000 0.000000
# 2 -0.011756 0.028147 -0.006261 0.000000 0.000000 0.000000
# 3 -0.006261 -0.006261 0.011968 0.000000 0.000000 0.000000
# 4 0.000000 0.000000 0.000000 0.042789 0.000000 0.000000
# 5 0.000000 0.000000 0.000000 0.000000 0.042789 0.000000
# 6 0.000000 0.000000 0.000000 0.000000 0.000000 0.058450
#
#
# Mechanical properties :
#
#
# Convention : Reuss Voigt Hill
#
# Bulk Modulus (GPa) = 50.73893 61.66597 56.20245
# Shear Modulus (GPa) = 18.69767 20.85373 19.77570
#
# Velocity S-wave (km/s) = 3.47530 3.67021 3.57408
# Velocity P-wave (km/s) = 6.99131 7.60221 7.30315
#
# Compressibility (1/GPa) = 0.01970873
#
# Stress axis : x y z
#
# Youngs Moduli (GPa) = 35.52749 35.52749 83.55631
#
# Poissons Ratio (x) = 0.41766 0.52310
# Poissons Ratio (y) = 0.41766 0.52310
# Poissons Ratio (z) = 0.22242 0.22242
#
# Static dielectric constant tensor:
#      x y z
#    x 2.803760 0.000000 0.000000 
#    y 0.000000 2.803760 0.000000 
#    z 0.000000 0.000000 3.370800 
# 
# 
# High freq. dielectric constant tensor:
#      x y z
#    x 1.570380 0.000000 0.000000 
#    y 0.000000 1.570380 0.000000 
#    z 0.000000 0.000000 1.619130 
# 
# From -- ./inp_files/8024.got.cif
#   From: 2010.03.12/outbox.cif.g09.slc.cpg/sg123_5_cif.got.tgz:8024.got - 2010.04.06 16:26:55.
