data_PCOD8312600
_publ_section_title
;
Structure prediction by ZEFSAII (Michael W. Deem and Ramdas Pophale) SiO2 
 PCOD8312600
Probable space group: P 4/M M M
;
_chemical_formula_sum "Si O2"
_cell_formula_units_Z 88
_cell_length_a 17.229040
_cell_length_b 17.229040
_cell_length_c 15.122507
_cell_angle_alpha 90.000000
_cell_angle_beta 90.000000
_cell_angle_gamma 90.000000
_cell_volume 4488.962246
_symmetry_space_group_name_H-M "P 4/M M M"
_symmetry_group_IT_number 123
_symmetry_cell_setting 'tetragonal'
loop_
_space_group_symop_operation_xyz
x,y,z
-y,x,z
-x,-y,z
y,-x,z
x,-y,-z
-x,y,-z
y,x,-z
-y,-x,-z
-x,-y,-z
y,-x,-z
x,y,-z
-y,x,-z
-x,y,z
x,-y,z
-y,-x,z
y,x,z
loop_
_atom_site_type_symbol
_atom_site_label
_atom_site_fract_x
_atom_site_fract_y
_atom_site_fract_z
Si Si1 0.585861 0.000000 0.105054
Si Si2 0.212569 0.912810 0.646382
Si Si3 0.590653 0.280381 0.242356
Si Si4 0.913926 0.203043 0.854540
Si Si5 0.204957 0.665671 0.401867
Si Si6 0.350379 0.838764 0.100055
O O1 0.622745 0.921071 0.142413
O O2 0.500000 0.000000 0.141254
O O3 0.592231 0.000000 0.000000
O O4 0.139821 0.860180 0.614186
O O5 0.218708 0.914409 0.751085
O O6 0.294615 0.878988 0.611553
O O7 0.201530 0.000000 0.608792
O O8 0.500000 0.301834 0.232773
O O9 0.639824 0.360177 0.249386
O O10 0.600905 0.225722 0.328797
O O11 0.619340 0.233213 0.156683
O O12 0.884870 0.115131 0.873097
O O13 0.848811 0.257802 0.899225
O O14 0.000000 0.214617 0.895545
O O15 0.209301 0.628197 0.500000
O O16 0.266479 0.733522 0.389292
O O17 0.380914 0.825535 0.000000
#
# Coordination Sequence:
#
# PCOD8312600 Si02
#       6
#     8  16  16  16  16  16
#     4   9  18  32  52  80 112 144 182 232 285 332
#     4   9  17  30  50  78 114 156 201 247 293 342
#     4  11  24  42  64  90 118 149 188 233 286 351
#     4  10  19  32  51  77 112 153 198 245 290 336
#     4   9  18  35  59  84 111 146 187 231 282 339
#     4  11  21  36  58  86 117 151 193 238 286 339
#
# _framework density 19.603641
#
# number of rings (size 3 to 8) (size 9 to 14) (size 15 to 20)
#    0.000    2.091    2.727    1.091    0.000    3.818 
#    0.000    1.818    0.000    0.000    0.000    8.909 
#    0.000    0.000    0.000    0.000    0.000    0.000 
#
# Total GULP energy -1090590.373973 kJ/mol
# GULP energy per Si atom -12393.072432 kJ/mol
# Density = 1.955902 g / cm^3
# Si number density = 19.603641 Si / 1000 Ang^3
#
#
#
# Elastic Constant Matrix: (Units=GPa)
#
#
# Indices 1 2 3 4 5 6 
#
# 1 107.2955 55.1399 33.0841 0.0000 0.0000 0.0000
# 2 55.1399 107.2955 33.0841 0.0000 0.0000 0.0000
# 3 33.0841 33.0841 82.2362 0.0000 0.0000 0.0000
# 4 0.0000 0.0000 0.0000 10.6374 0.0000 0.0000
# 5 0.0000 0.0000 0.0000 0.0000 10.6374 0.0000
# 6 0.0000 0.0000 0.0000 0.0000 0.0000 21.8514
#
#
#
# Elastic Compliance Matrix: (Units=1/GPa)
#
#
# Indices 1 2 3 4 5 6 
#
# 1 0.013268 -0.005905 -0.002962 0.000000 0.000000 0.000000
# 2 -0.005905 0.013268 -0.002962 0.000000 0.000000 0.000000
# 3 -0.002962 -0.002962 0.014543 0.000000 0.000000 0.000000
# 4 0.000000 0.000000 0.000000 0.094008 0.000000 0.000000
# 5 0.000000 0.000000 0.000000 0.000000 0.094008 0.000000
# 6 0.000000 0.000000 0.000000 0.000000 0.000000 0.045764
#
#
# Mechanical properties :
#
#
# Convention : Reuss Voigt Hill
#
# Bulk Modulus (GPa) = 57.40284 59.93815 58.67050
# Shear Modulus (GPa) = 16.42974 20.32649 18.37811
#
# Velocity S-wave (km/s) = 2.89813 3.22354 3.06516
# Velocity P-wave (km/s) = 6.36743 6.67056 6.52076
#
# Compressibility (1/GPa) = 0.01742074
#
# Stress axis : x y z
#
# Youngs Moduli (GPa) = 75.36836 75.36836 68.75936
#
# Poissons Ratio (x) = 0.44507 0.20368
# Poissons Ratio (y) = 0.44507 0.20368
# Poissons Ratio (z) = 0.22325 0.22325
#
# Static dielectric constant tensor:
#      x y z
#    x 3.562820 0.000000 0.000000 
#    y 0.000000 3.562820 0.000000 
#    z 0.000000 0.000000 3.480640 
# 
# 
# High freq. dielectric constant tensor:
#      x y z
#    x 1.750290 0.000000 0.000000 
#    y 0.000000 1.750290 0.000000 
#    z 0.000000 0.000000 1.754540 
# 
# From -- ./inp_files/4064.got.cif
#   From: 2010.03.12/outbox.cif.g09.slc.cpg/sg123_3_cif.got.tgz:4064.got - 2010.04.06 16:26:55.
