data_PCOD8312560
_publ_section_title
;
Structure prediction by ZEFSAII (Michael W. Deem and Ramdas Pophale) SiO2 
 PCOD8312560
Probable space group: P 4/M M M
;
_chemical_formula_sum "Si O2"
_cell_formula_units_Z 96
_cell_length_a 20.966080
_cell_length_b 20.966080
_cell_length_c 12.308747
_cell_angle_alpha 90.000000
_cell_angle_beta 90.000000
_cell_angle_gamma 90.000000
_cell_volume 5410.636056
_symmetry_space_group_name_H-M "P 4/M M M"
_symmetry_group_IT_number 123
_symmetry_cell_setting 'tetragonal'
loop_
_space_group_symop_operation_xyz
x,y,z
-y,x,z
-x,-y,z
y,-x,z
x,-y,-z
-x,y,-z
y,x,-z
-y,-x,-z
-x,-y,-z
y,-x,-z
x,y,-z
-y,x,-z
-x,y,z
x,-y,z
-y,-x,z
y,x,z
loop_
_atom_site_type_symbol
_atom_site_label
_atom_site_fract_x
_atom_site_fract_y
_atom_site_fract_z
Si Si1 0.673422 0.570776 0.269254
Si Si2 0.682334 0.104614 0.125874
Si Si3 0.574770 0.850333 0.500000
Si Si4 0.247112 0.352157 0.120961
Si Si5 0.571656 0.928221 0.287879
Si Si6 0.711277 0.388921 0.500000
Si Si7 0.824709 0.927931 0.128692
O O1 0.655261 0.500000 0.233595
O O2 0.614716 0.614716 0.233061
O O3 0.737840 0.591796 0.206343
O O4 0.686140 0.572346 0.396892
O O5 0.678867 0.179564 0.142923
O O6 0.623467 0.074603 0.191682
O O7 0.752065 0.083600 0.170762
O O8 0.674309 0.084147 0.000000
O O9 0.500000 0.833197 0.500000
O O10 0.594005 0.887633 0.391410
O O11 0.617196 0.786928 0.500000
O O12 0.295549 0.295549 0.140103
O O13 0.251833 0.381082 0.000000
O O14 0.500000 0.907126 0.247977
O O15 0.568119 0.000000 0.330197
O O16 0.682785 0.317215 0.500000
O O17 0.875979 0.875979 0.176126
O O18 0.845588 0.000000 0.162622
O O19 0.823948 0.920727 0.000000
#
# Coordination Sequence:
#
# PCOD8312560 Si02
#       7
#    16  16   8  16  16   8  16
#     4  10  20  33  49  69  94 124 157 196 243 291
#     4  10  19  31  49  72  99 131 163 195 239 294
#     4  10  19  34  56  73  89 121 161 197 235 279
#     4   9  18  32  49  69  93 121 156 199 240 278
#     4  10  21  35  50  70  96 126 162 201 237 276
#     4  10  20  33  50  73  97 117 143 187 240 288
#     4   9  17  29  46  69  98 132 168 204 242 288
#
# _framework density 17.742830999999999
#
# number of rings (size 3 to 8) (size 9 to 14) (size 15 to 20)
#    0.000    2.333    0.000    3.000    0.000    7.000 
#    0.000    4.167    0.000    1.500    0.000    2.333 
#    0.000    0.000    0.000    0.000    0.000    5.167 
#
# Total GULP energy -1189994.941242 kJ/mol
# GULP energy per Si atom -12395.780638 kJ/mol
# Density = 1.770245 g / cm^3
# Si number density = 17.742831 Si / 1000 Ang^3
#
#
#
# Elastic Constant Matrix: (Units=GPa)
#
#
# Indices 1 2 3 4 5 6 
#
# 1 115.6151 43.9489 32.7520 0.0000 0.0000 0.0000
# 2 43.9489 115.6152 32.7521 0.0000 0.0000 0.0000
# 3 32.7520 32.7521 50.0166 0.0000 0.0000 0.0000
# 4 0.0000 0.0000 0.0000 14.7270 0.0000 0.0000
# 5 0.0000 0.0000 0.0000 0.0000 14.7268 0.0000
# 6 0.0000 0.0000 0.0000 0.0000 0.0000 17.7572
#
#
#
# Elastic Compliance Matrix: (Units=1/GPa)
#
#
# Indices 1 2 3 4 5 6 
#
# 1 0.011262 -0.002691 -0.005613 0.000000 0.000000 0.000000
# 2 -0.002691 0.011262 -0.005613 0.000000 0.000000 0.000000
# 3 -0.005613 -0.005613 0.027344 0.000000 0.000000 0.000000
# 4 0.000000 0.000000 0.000000 0.067902 0.000000 0.000000
# 5 0.000000 0.000000 0.000000 0.000000 0.067903 0.000000
# 6 0.000000 0.000000 0.000000 0.000000 0.000000 0.056315
#
#
# Mechanical properties :
#
#
# Convention : Reuss Voigt Hill
#
# Bulk Modulus (GPa) = 45.38069 55.57256 50.47663
# Shear Modulus (GPa) = 18.03964 20.89514 19.46739
#
# Velocity S-wave (km/s) = 3.19208 3.43544 3.31599
# Velocity P-wave (km/s) = 6.26245 6.86480 6.57053
#
# Compressibility (1/GPa) = 0.02203580
#
# Stress axis : x y z
#
# Youngs Moduli (GPa) = 88.79128 88.79131 36.57127
#
# Poissons Ratio (x) = 0.23896 0.20526
# Poissons Ratio (y) = 0.23896 0.20526
# Poissons Ratio (z) = 0.49835 0.49835
#
# Static dielectric constant tensor:
#      x y z
#    x 3.403340 0.000000 0.000000 
#    y 0.000000 3.403340 0.000000 
#    z 0.000000 0.000000 3.149490 
# 
# 
# High freq. dielectric constant tensor:
#      x y z
#    x 1.689010 0.000000 0.000000 
#    y 0.000000 1.689010 0.000000 
#    z 0.000000 0.000000 1.659210 
# 
# From -- ./inp_files/3213.got.cif
#   From: 2010.03.12/outbox.cif.g09.slc.cpg/sg123_2_cif.got.tgz:3213.got - 2010.04.06 16:26:55.
