data_PCOD8312859
_publ_section_title
;
Structure prediction by ZEFSAII (Michael W. Deem and Ramdas Pophale) SiO2 
 PCOD8312859
Probable space group: P 4/M M M
;
_chemical_formula_sum "Si O2"
_cell_formula_units_Z 104
_cell_length_a 26.040541
_cell_length_b 26.040541
_cell_length_c 8.055111
_cell_angle_alpha 90.000000
_cell_angle_beta 90.000000
_cell_angle_gamma 90.000000
_cell_volume 5462.249512
_symmetry_space_group_name_H-M "P 4/M M M"
_symmetry_group_IT_number 123
_symmetry_cell_setting 'tetragonal'
loop_
_space_group_symop_operation_xyz
x,y,z
-y,x,z
-x,-y,z
y,-x,z
x,-y,-z
-x,y,-z
y,x,-z
-y,-x,-z
-x,-y,-z
y,-x,-z
x,y,-z
-y,x,-z
-x,y,z
x,-y,z
-y,-x,z
y,x,z
loop_
_atom_site_type_symbol
_atom_site_label
_atom_site_fract_x
_atom_site_fract_y
_atom_site_fract_z
Si Si1 0.317094 0.600513 0.820059
Si Si2 0.943363 0.617084 0.189824
Si Si3 0.778974 0.350063 0.309782
Si Si4 0.272167 0.943867 0.309872
Si Si5 0.558051 0.154932 0.194083
Si Si6 0.834431 0.247578 0.301730
Si Si7 0.643437 0.556805 0.500000
O O1 0.371167 0.628834 0.830940
O O2 0.273102 0.642977 0.792548
O O3 0.320271 0.561867 0.663564
O O4 0.307608 0.572647 0.000000
O O5 0.932781 0.667080 0.301054
O O6 0.904270 0.571511 0.232361
O O7 0.000000 0.594805 0.224835
O O8 0.937357 0.635326 0.000000
O O9 0.764519 0.339574 0.500000
O O10 0.810712 0.402683 0.296756
O O11 0.809468 0.300892 0.236468
O O12 0.256024 0.948118 0.500000
O O13 0.243261 0.893539 0.232975
O O14 0.259053 0.000000 0.224708
O O15 0.500000 0.165547 0.254449
O O16 0.563869 0.167623 0.000000
O O17 0.835663 0.248954 0.500000
O O18 0.800965 0.199036 0.237381
O O19 0.619232 0.500000 0.500000
O O20 0.597829 0.597829 0.500000
#
# Coordination Sequence:
#
# PCOD8312859 Si02
#       7
#    16  16  16  16  16  16   8
#     4  10  21  38  60  83 108 140 175 211 253 307
#     4   9  17  30  48  66  87 120 162 207 253 300
#     4  11  20  33  52  73 101 136 172 213 264 314
#     4   9  16  28  47  68  91 122 160 200 244 297
#     4  10  21  34  46  64  93 127 167 215 259 302
#     4   9  17  28  46  73 101 129 162 204 255 309
#     4  10  22  41  64  90 116 140 171 211 257 317
#
# _framework density 19.039776
#
# number of rings (size 3 to 8) (size 9 to 14) (size 15 to 20)
#    0.000    2.308    2.308    0.923    0.000    2.231 
#    0.000    1.538    0.000    1.385    0.000    5.385 
#    0.000    0.308    0.000    4.308    0.000    0.000 
#
# Total GULP energy -1288610.819236 kJ/mol
# GULP energy per Si atom -12390.488646 kJ/mol
# Density = 1.899644 g / cm^3
# Si number density = 19.039776 Si / 1000 Ang^3
#
#
#
# Elastic Constant Matrix: (Units=GPa)
#
#
# Indices 1 2 3 4 5 6 
#
# 1 103.1555 42.7095 17.9825 0.0000 0.0000 0.0000
# 2 42.7095 103.1555 17.9825 0.0000 0.0000 0.0000
# 3 17.9825 17.9825 71.7971 0.0000 0.0000 0.0000
# 4 0.0000 0.0000 0.0000 14.0683 0.0000 0.0000
# 5 0.0000 0.0000 0.0000 0.0000 14.0683 0.0000
# 6 0.0000 0.0000 0.0000 0.0000 0.0000 26.2496
#
#
#
# Elastic Compliance Matrix: (Units=1/GPa)
#
#
# Indices 1 2 3 4 5 6 
#
# 1 0.011925 -0.004618 -0.001830 0.000000 0.000000 0.000000
# 2 -0.004618 0.011925 -0.001830 0.000000 0.000000 0.000000
# 3 -0.001830 -0.001830 0.014845 0.000000 0.000000 0.000000
# 4 0.000000 0.000000 0.000000 0.071082 0.000000 0.000000
# 5 0.000000 0.000000 0.000000 0.000000 0.071082 0.000000
# 6 0.000000 0.000000 0.000000 0.000000 0.000000 0.038096
#
#
# Mechanical properties :
#
#
# Convention : Reuss Voigt Hill
#
# Bulk Modulus (GPa) = 45.17067 48.38410 46.77738
# Shear Modulus (GPa) = 20.58534 24.17283 22.37909
#
# Velocity S-wave (km/s) = 3.29169 3.56701 3.43211
# Velocity P-wave (km/s) = 6.18246 6.51398 6.35039
#
# Compressibility (1/GPa) = 0.02213826
#
# Stress axis : x y z
#
# Youngs Moduli (GPa) = 83.85538 83.85538 67.36334
#
# Poissons Ratio (x) = 0.38728 0.12328
# Poissons Ratio (y) = 0.38728 0.12328
# Poissons Ratio (z) = 0.15346 0.15346
#
# Static dielectric constant tensor:
#      x y z
#    x 3.519110 0.000000 0.000000 
#    y 0.000000 3.519110 0.000000 
#    z 0.000000 0.000000 3.488460 
# 
# 
# High freq. dielectric constant tensor:
#      x y z
#    x 1.720600 0.000000 0.000000 
#    y 0.000000 1.720600 0.000000 
#    z 0.000000 0.000000 1.726560 
# 
# From -- ./inp_files/1920.got.cif
#   From: 2010.03.12/outbox.cif.g09.slc.cpg/sg123_1_cif.got.tgz:1920.got - 2010.04.06 16:26:55.
