data_PCOD8312992
_publ_section_title
;
Structure prediction by ZEFSAII (Michael W. Deem and Ramdas Pophale) SiO2 
 PCOD8312992
Probable space group: P 4/M M M
;
_chemical_formula_sum "Si O2"
_cell_formula_units_Z 72
_cell_length_a 21.248193
_cell_length_b 21.248193
_cell_length_c 9.476320
_cell_angle_alpha 90.000000
_cell_angle_beta 90.000000
_cell_angle_gamma 90.000000
_cell_volume 4278.423023
_symmetry_space_group_name_H-M "P 4/M M M"
_symmetry_group_IT_number 123
_symmetry_cell_setting 'tetragonal'
loop_
_space_group_symop_operation_xyz
x,y,z
-y,x,z
-x,-y,z
y,-x,z
x,-y,-z
-x,y,-z
y,x,-z
-y,-x,-z
-x,-y,-z
y,-x,-z
x,y,-z
-y,x,-z
-x,y,z
x,-y,z
-y,-x,z
y,x,z
loop_
_atom_site_type_symbol
_atom_site_label
_atom_site_fract_x
_atom_site_fract_y
_atom_site_fract_z
Si Si1 0.330413 0.098818 0.167292
Si Si2 0.000000 0.770757 0.832961
Si Si3 0.000000 0.102498 0.338029
Si Si4 0.239727 0.657807 0.834769
Si Si5 0.570114 0.000000 0.831819
Si Si6 0.673612 0.428042 0.336641
O O1 0.330331 0.169781 0.226054
O O2 0.392655 0.062066 0.221225
O O3 0.267795 0.061943 0.216728
O O4 0.330921 0.099947 0.000000
O O5 0.000000 0.837830 0.761455
O O6 0.000000 0.780665 0.000000
O O7 0.061820 0.061820 0.304873
O O8 0.000000 0.124375 0.500000
O O9 0.279634 0.720367 0.802526
O O10 0.268624 0.598142 0.754635
O O11 0.239145 0.641720 0.000000
O O12 0.500000 0.000000 0.766425
O O13 0.567014 0.000000 0.000000
O O14 0.692002 0.421118 0.500000
O O15 0.661160 0.500000 0.294374
O O16 0.609995 0.390006 0.301392
#
# Coordination Sequence:
#
# PCOD8312992 Si02
#       6
#    16   8   8  16   8  16
#     4   8  15  27  42  64  93 119 144 180 224 263
#     4   9  17  30  49  72  96 120 150 190 229 265
#     4   9  19  35  50  65  91 124 154 188 231 275
#     4   9  17  29  45  65  90 119 148 178 216 264
#     4   8  13  22  37  58  85 115 145 176 211 255
#     4   9  18  32  48  66  89 116 147 185 227 269
#
# _framework density 16.82863
#
# number of rings (size 3 to 8) (size 9 to 14) (size 15 to 20)
#    0.000    3.333    0.000    1.667    0.000    2.889 
#    0.000    7.222    0.000    2.667    0.000    3.111 
#    0.000    6.222    0.000    0.000    0.000    0.000 
#
# Total GULP energy -892536.566371 kJ/mol
# GULP energy per Si atom -12396.341200 kJ/mol
# Density = 1.679033 g / cm^3
# Si number density = 16.828630 Si / 1000 Ang^3
#
#
#
# Elastic Constant Matrix: (Units=GPa)
#
#
# Indices 1 2 3 4 5 6 
#
# 1 152.6600 68.8944 40.7821 0.0000 0.0000 0.0000
# 2 68.8944 152.6600 40.7821 0.0000 0.0000 0.0000
# 3 40.7821 40.7821 33.2705 0.0000 0.0000 0.0000
# 4 0.0000 0.0000 0.0000 18.1673 0.0000 0.0000
# 5 0.0000 0.0000 0.0000 0.0000 18.1673 0.0000
# 6 0.0000 0.0000 0.0000 0.0000 0.0000 13.6772
#
#
#
# Elastic Compliance Matrix: (Units=1/GPa)
#
#
# Indices 1 2 3 4 5 6 
#
# 1 0.010082 -0.001856 -0.010082 0.000000 0.000000 0.000000
# 2 -0.001856 0.010082 -0.010082 0.000000 0.000000 0.000000
# 3 -0.010082 -0.010082 0.054774 0.000000 0.000000 0.000000
# 4 0.000000 0.000000 0.000000 0.055044 0.000000 0.000000
# 5 0.000000 0.000000 0.000000 0.000000 0.055044 0.000000
# 6 0.000000 0.000000 0.000000 0.000000 0.000000 0.073114
#
#
# Mechanical properties :
#
#
# Convention : Reuss Voigt Hill
#
# Bulk Modulus (GPa) = 32.36745 71.05643 51.71194
# Shear Modulus (GPa) = 16.00098 22.54449 19.27273
#
# Velocity S-wave (km/s) = 3.08688 3.66410 3.38780
# Velocity P-wave (km/s) = 5.65512 7.75990 6.78957
#
# Compressibility (1/GPa) = 0.03089524
#
# Stress axis : x y z
#
# Youngs Moduli (GPa) = 99.18941 99.18941 18.25673
#
# Poissons Ratio (x) = 0.18413 0.18407
# Poissons Ratio (y) = 0.18413 0.18407
# Poissons Ratio (z) = 1.00007 1.00007
#
# Static dielectric constant tensor:
#      x y z
#    x 3.352700 0.000000 0.000000 
#    y 0.000000 3.352700 0.000000 
#    z 0.000000 0.000000 2.788820 
# 
# 
# High freq. dielectric constant tensor:
#      x y z
#    x 1.653340 0.000000 0.000000 
#    y 0.000000 1.653340 0.000000 
#    z 0.000000 0.000000 1.608960 
# 
# From -- ./inp_files/1230.got.cif
#   From: 2010.03.12/outbox.cif.g09.slc.cpg/sg123_1_cif.got.tgz:1230.got - 2010.04.06 16:26:55.
