data_PCOD8312158
_publ_section_title
;
Structure prediction by ZEFSAII (Michael W. Deem and Ramdas Pophale) SiO2 
 PCOD8312158
Probable space group: P 4/M M M
;
_chemical_formula_sum "Si O2"
_cell_formula_units_Z 80
_cell_length_a 17.596682
_cell_length_b 17.596682
_cell_length_c 19.814183
_cell_angle_alpha 90.000000
_cell_angle_beta 90.000000
_cell_angle_gamma 90.000000
_cell_volume 6135.327374
_symmetry_space_group_name_H-M "P 4/M M M"
_symmetry_group_IT_number 123
_symmetry_cell_setting 'tetragonal'
loop_
_space_group_symop_operation_xyz
x,y,z
-y,x,z
-x,-y,z
y,-x,z
x,-y,-z
-x,y,-z
y,x,-z
-y,-x,-z
-x,-y,-z
y,-x,-z
x,y,-z
-y,x,-z
-x,y,z
x,-y,z
-y,-x,z
y,x,z
loop_
_atom_site_type_symbol
_atom_site_label
_atom_site_fract_x
_atom_site_fract_y
_atom_site_fract_z
Si Si1 0.586601 0.707603 0.500000
Si Si2 0.646109 0.233364 0.637781
Si Si3 0.000000 0.591176 0.076652
Si Si4 0.288746 0.588445 0.222937
Si Si5 0.586920 0.129611 0.828560
Si Si6 0.084009 0.586719 0.679841
O O1 0.500000 0.686632 0.500000
O O2 0.627208 0.627208 0.500000
O O3 0.607467 0.754683 0.433927
O O4 0.731385 0.268616 0.638935
O O5 0.596431 0.271475 0.697305
O O6 0.647173 0.142407 0.647576
O O7 0.076997 0.623805 0.112562
O O8 0.000000 0.500000 0.082266
O O9 0.000000 0.619987 0.000000
O O10 0.306061 0.500000 0.207822
O O11 0.361650 0.638351 0.201508
O O12 0.215362 0.620146 0.180696
O O13 0.500000 0.142427 0.847199
O O14 0.596300 0.082404 0.760101
O O15 0.108175 0.500000 0.661517
O O16 0.000000 0.604653 0.651709
#
# Coordination Sequence:
#
# PCOD8312158 Si02
#       6
#     8  16   8  16  16  16
#     4  10  18  27  37  47  65  93 126 162 198 230
#     4   9  17  27  37  50  69  95 123 155 195 234
#     4   9  14  20  34  56  76  89 105 134 174 219
#     4   9  16  25  37  51  69  94 126 161 191 219
#     4   8  13  22  34  51  72  92 114 141 177 217
#     4   9  14  22  38  55  71  92 119 148 180 223
#
# _framework density 13.039239
#
# number of rings (size 3 to 8) (size 9 to 14) (size 15 to 20)
#    0.000    3.100    1.000    3.000    0.000    0.300 
#    0.000    0.500    0.000    6.000    0.000    0.000 
#    0.000    0.400    0.000    7.800    0.000    6.100 
#
# Total GULP energy -991059.389758 kJ/mol
# GULP energy per Si atom -12388.242372 kJ/mol
# Density = 1.300956 g / cm^3
# Si number density = 13.039239 Si / 1000 Ang^3
#
#
#
# Elastic Constant Matrix: (Units=GPa)
#
#
# Indices 1 2 3 4 5 6 
#
# 1 82.4038 41.0981 31.7910 0.0000 0.0000 0.0000
# 2 41.0981 82.4038 31.7910 0.0000 0.0000 0.0000
# 3 31.7910 31.7910 69.6150 0.0000 0.0000 0.0000
# 4 0.0000 0.0000 0.0000 15.9180 0.0000 0.0000
# 5 0.0000 0.0000 0.0000 0.0000 15.9180 0.0000
# 6 0.0000 0.0000 0.0000 0.0000 0.0000 11.1024
#
#
#
# Elastic Compliance Matrix: (Units=1/GPa)
#
#
# Indices 1 2 3 4 5 6 
#
# 1 0.017398 -0.006812 -0.004834 0.000000 0.000000 0.000000
# 2 -0.006812 0.017398 -0.004834 0.000000 0.000000 0.000000
# 3 -0.004834 -0.004834 0.018780 0.000000 0.000000 0.000000
# 4 0.000000 0.000000 0.000000 0.062822 0.000000 0.000000
# 5 0.000000 0.000000 0.000000 0.000000 0.062822 0.000000
# 6 0.000000 0.000000 0.000000 0.000000 0.000000 0.090071
#
#
# Mechanical properties :
#
#
# Convention : Reuss Voigt Hill
#
# Bulk Modulus (GPa) = 48.50888 49.30918 48.90903
# Shear Modulus (GPa) = 16.17481 17.23717 16.70599
#
# Velocity S-wave (km/s) = 3.52585 3.63980 3.58328
# Velocity P-wave (km/s) = 7.33884 7.45401 7.39665
#
# Compressibility (1/GPa) = 0.02061478
#
# Stress axis : x y z
#
# Youngs Moduli (GPa) = 57.47861 57.47861 53.24816
#
# Poissons Ratio (x) = 0.39154 0.25741
# Poissons Ratio (y) = 0.39154 0.25741
# Poissons Ratio (z) = 0.27786 0.27786
#
# Static dielectric constant tensor:
#      x y z
#    x 2.558930 0.000000 0.000000 
#    y 0.000000 2.558930 0.000000 
#    z 0.000000 0.000000 2.616450 
# 
# 
# High freq. dielectric constant tensor:
#      x y z
#    x 1.471820 0.000000 0.000000 
#    y 0.000000 1.471820 0.000000 
#    z 0.000000 0.000000 1.483090 
# 
# From -- ./inp_files/5411.got.cif
#   From: 2010.03.12/outbox.cif.g09.slc.cpg/sg123_3_cif.got.tgz:5411.got - 2010.04.06 16:26:55.
