data_PCOD8312880
_publ_section_title
;
Structure prediction by ZEFSAII (Michael W. Deem and Ramdas Pophale) SiO2 
 PCOD8312880
Probable space group: P 4/M M M
;
_chemical_formula_sum "Si O2"
_cell_formula_units_Z 48
_cell_length_a 13.713852
_cell_length_b 13.713852
_cell_length_c 15.281878
_cell_angle_alpha 90.000000
_cell_angle_beta 90.000000
_cell_angle_gamma 90.000000
_cell_volume 2874.058771
_symmetry_space_group_name_H-M "P 4/M M M"
_symmetry_group_IT_number 123
_symmetry_cell_setting 'tetragonal'
loop_
_space_group_symop_operation_xyz
x,y,z
-y,x,z
-x,-y,z
y,-x,z
x,-y,-z
-x,y,-z
y,x,-z
-y,-x,-z
-x,-y,-z
y,-x,-z
x,y,-z
-y,x,-z
-x,y,z
x,-y,z
-y,-x,z
y,x,z
loop_
_atom_site_type_symbol
_atom_site_label
_atom_site_fract_x
_atom_site_fract_y
_atom_site_fract_z
Si Si1 0.116156 0.392938 0.000000
Si Si2 0.266331 0.888924 0.840961
Si Si3 0.615099 0.775691 0.500000
Si Si4 0.886703 0.272341 0.643211
O O1 0.154576 0.341181 0.911870
O O2 0.162410 0.500000 0.000000
O O3 0.000000 0.398222 0.000000
O O4 0.163727 0.836274 0.850376
O O5 0.308977 0.875918 0.743244
O O6 0.243515 0.000000 0.862878
O O7 0.500000 0.753968 0.500000
O O8 0.672797 0.672797 0.500000
O O9 0.642968 0.839516 0.584774
O O10 0.829763 0.170237 0.627422
O O11 0.000000 0.255617 0.618424
#
# Coordination Sequence:
#
# PCOD8312880 Si02
#       4
#     8  16   8  16
#     4   9  17  28  41  59  85 117 153 191 227 262
#     4   9  17  29  45  66  93 122 151 184 221 266
#     4  10  21  36  52  70  92 118 153 198 242 282
#     4   9  18  31  47  70  98 126 156 188 225 274
#
# _framework density 16.701118999999998
#
# number of rings (size 3 to 8) (size 9 to 14) (size 15 to 20)
#    0.000    2.833    0.000    1.000    0.000    3.500 
#    0.000    6.667    0.000    6.000    0.000    0.000 
#    0.000    5.333    0.000    0.000    0.000    1.000 
#
# Total GULP energy -595025.660739 kJ/mol
# GULP energy per Si atom -12396.367932 kJ/mol
# Density = 1.666311 g / cm^3
# Si number density = 16.701119 Si / 1000 Ang^3
#
#
#
# Elastic Constant Matrix: (Units=GPa)
#
#
# Indices 1 2 3 4 5 6 
#
# 1 101.1426 44.9698 56.4762 0.0000 0.0000 0.0000
# 2 44.9698 101.1426 56.4762 0.0000 0.0000 0.0000
# 3 56.4762 56.4762 124.3750 0.0000 0.0000 0.0000
# 4 0.0000 0.0000 0.0000 22.1792 0.0000 0.0000
# 5 0.0000 0.0000 0.0000 0.0000 22.1792 0.0000
# 6 0.0000 0.0000 0.0000 0.0000 0.0000 10.7410
#
#
#
# Elastic Compliance Matrix: (Units=1/GPa)
#
#
# Indices 1 2 3 4 5 6 
#
# 1 0.014174 -0.003628 -0.004789 0.000000 0.000000 0.000000
# 2 -0.003628 0.014174 -0.004789 0.000000 0.000000 0.000000
# 3 -0.004789 -0.004789 0.012389 0.000000 0.000000 0.000000
# 4 0.000000 0.000000 0.000000 0.045087 0.000000 0.000000
# 5 0.000000 0.000000 0.000000 0.000000 0.045087 0.000000
# 6 0.000000 0.000000 0.000000 0.000000 0.000000 0.093101
#
#
# Mechanical properties :
#
#
# Convention : Reuss Voigt Hill
#
# Bulk Modulus (GPa) = 69.80218 71.38941 70.59579
# Shear Modulus (GPa) = 19.59253 22.26910 20.93081
#
# Velocity S-wave (km/s) = 3.42881 3.65552 3.54398
# Velocity P-wave (km/s) = 7.58692 7.78814 7.68819
#
# Compressibility (1/GPa) = 0.01432620
#
# Stress axis : x y z
#
# Youngs Moduli (GPa) = 70.55133 70.55133 80.71597
#
# Poissons Ratio (x) = 0.25597 0.38653
# Poissons Ratio (y) = 0.25597 0.38653
# Poissons Ratio (z) = 0.33785 0.33785
#
# Static dielectric constant tensor:
#      x y z
#    x 2.978870 0.000000 0.000000 
#    y 0.000000 2.978870 0.000000 
#    z 0.000000 0.000000 3.484150 
# 
# 
# High freq. dielectric constant tensor:
#      x y z
#    x 1.620540 0.000000 0.000000 
#    y 0.000000 1.620540 0.000000 
#    z 0.000000 0.000000 1.666040 
# 
# From -- ./inp_files/4833.got.cif
#   From: 2010.03.12/outbox.cif.g09.slc.cpg/sg123_3_cif.got.tgz:4833.got - 2010.04.06 16:26:55.
