data_PCOD8312474
_publ_section_title
;
Structure prediction by ZEFSAII (Michael W. Deem and Ramdas Pophale) SiO2 
 PCOD8312474
Probable space group: P 4/M M M
;
_chemical_formula_sum "Si O2"
_cell_formula_units_Z 104
_cell_length_a 26.599001
_cell_length_b 26.599001
_cell_length_c 8.940917
_cell_angle_alpha 90.000000
_cell_angle_beta 90.000000
_cell_angle_gamma 90.000000
_cell_volume 6325.760060
_symmetry_space_group_name_H-M "P 4/M M M"
_symmetry_group_IT_number 123
_symmetry_cell_setting 'tetragonal'
loop_
_space_group_symop_operation_xyz
x,y,z
-y,x,z
-x,-y,z
y,-x,z
x,-y,-z
-x,y,-z
y,x,-z
-y,-x,-z
-x,-y,-z
y,-x,-z
x,y,-z
-y,x,-z
-x,y,z
x,-y,z
-y,-x,z
y,x,z
loop_
_atom_site_type_symbol
_atom_site_label
_atom_site_fract_x
_atom_site_fract_y
_atom_site_fract_z
Si Si1 0.444046 0.233963 0.671695
Si Si2 0.684658 0.162431 0.825555
Si Si3 0.863377 0.943522 0.676868
Si Si4 0.941312 0.500000 0.324123
Si Si5 0.129732 0.577056 0.175654
Si Si6 0.269846 0.649049 0.177284
Si Si7 0.209891 0.872619 0.825651
O O1 0.429252 0.223733 0.500000
O O2 0.500000 0.257128 0.683763
O O3 0.443855 0.181623 0.760131
O O4 0.405438 0.273976 0.744495
O O5 0.636978 0.126420 0.793098
O O6 0.674800 0.218487 0.762446
O O7 0.734952 0.138315 0.755566
O O8 0.694744 0.168712 0.000000
O O9 0.859177 0.942124 0.500000
O O10 0.910932 0.910932 0.733310
O O11 0.812025 0.921260 0.743031
O O12 0.870884 0.000000 0.736284
O O13 0.931285 0.500000 0.500000
O O14 0.917081 0.449839 0.254438
O O15 0.000000 0.500000 0.284960
O O16 0.128346 0.565321 0.000000
O O17 0.317070 0.682931 0.225787
O O18 0.267878 0.641221 0.000000
O O19 0.176094 0.823907 0.793572
O O20 0.212289 0.885496 0.000000
#
# Coordination Sequence:
#
# PCOD8312474 Si02
#       7
#    16  16  16   8  16  16  16
#     4  10  19  30  46  68  97 130 161 195 238 289
#     4   8  15  28  47  71  94 119 152 189 228 272
#     4   9  18  32  48  66  88 113 143 180 221 266
#     4  11  23  37  51  67  91 121 153 197 252 299
#     4  10  19  32  52  72  90 116 157 202 239 279
#     4   9  17  29  46  69  97 127 161 201 239 276
#     4   9  16  28  48  70  93 121 149 177 215 267
#
# _framework density 16.440712000000001
#
# number of rings (size 3 to 8) (size 9 to 14) (size 15 to 20)
#    0.000    2.692    0.769    2.538    0.000    4.154 
#    0.000    5.385    0.000    8.308    0.000    2.154 
#    0.000    0.308    0.000    3.385    0.000    2.462 
#
# Total GULP energy -1289333.225273 kJ/mol
# GULP energy per Si atom -12397.434858 kJ/mol
# Density = 1.640329 g / cm^3
# Si number density = 16.440712 Si / 1000 Ang^3
#
#
#
# Elastic Constant Matrix: (Units=GPa)
#
#
# Indices 1 2 3 4 5 6 
#
# 1 124.8300 62.3044 41.1197 0.0000 0.0000 0.0000
# 2 62.3044 124.8300 41.1197 0.0000 0.0000 0.0000
# 3 41.1197 41.1197 55.8698 0.0000 0.0000 0.0000
# 4 0.0000 0.0000 0.0000 22.8262 0.0000 0.0000
# 5 0.0000 0.0000 0.0000 0.0000 22.8262 0.0000
# 6 0.0000 0.0000 0.0000 0.0000 0.0000 24.0838
#
#
#
# Elastic Compliance Matrix: (Units=1/GPa)
#
#
# Indices 1 2 3 4 5 6 
#
# 1 0.011946 -0.004047 -0.005813 0.000000 0.000000 0.000000
# 2 -0.004047 0.011946 -0.005813 0.000000 0.000000 0.000000
# 3 -0.005813 -0.005813 0.026456 0.000000 0.000000 0.000000
# 4 0.000000 0.000000 0.000000 0.043809 0.000000 0.000000
# 5 0.000000 0.000000 0.000000 0.000000 0.043809 0.000000
# 6 0.000000 0.000000 0.000000 0.000000 0.000000 0.041522
#
#
# Mechanical properties :
#
#
# Convention : Reuss Voigt Hill
#
# Bulk Modulus (GPa) = 52.63211 66.06857 59.35034
# Shear Modulus (GPa) = 23.02357 24.67966 23.85162
#
# Velocity S-wave (km/s) = 3.74625 3.87865 3.81302
# Velocity P-wave (km/s) = 7.12708 7.76735 7.45409
#
# Compressibility (1/GPa) = 0.01899981
#
# Stress axis : x y z
#
# Youngs Moduli (GPa) = 83.71038 83.71038 37.79911
#
# Poissons Ratio (x) = 0.33882 0.21973
# Poissons Ratio (y) = 0.33882 0.21973
# Poissons Ratio (z) = 0.48662 0.48662
#
# Static dielectric constant tensor:
#      x y z
#    x 3.181510 0.000000 0.000000 
#    y 0.000000 3.181510 0.000000 
#    z 0.000000 0.000000 3.003430 
# 
# 
# High freq. dielectric constant tensor:
#      x y z
#    x 1.621750 0.000000 0.000000 
#    y 0.000000 1.621750 0.000000 
#    z 0.000000 0.000000 1.624470 
# 
# From -- ./inp_files/1953.got.cif
#   From: 2010.03.12/outbox.cif.g09.slc.cpg/sg123_1_cif.got.tgz:1953.got - 2010.04.06 16:26:55.
