data_PCOD8312899
_publ_section_title
;
Structure prediction by ZEFSAII (Michael W. Deem and Ramdas Pophale) SiO2 
 PCOD8312899
Probable space group: P 4/M M M
;
_chemical_formula_sum "Si O2"
_cell_formula_units_Z 96
_cell_length_a 23.986707
_cell_length_b 23.986707
_cell_length_c 9.152189
_cell_angle_alpha 90.000000
_cell_angle_beta 90.000000
_cell_angle_gamma 90.000000
_cell_volume 5265.822799
_symmetry_space_group_name_H-M "P 4/M M M"
_symmetry_group_IT_number 123
_symmetry_cell_setting 'tetragonal'
loop_
_space_group_symop_operation_xyz
x,y,z
-y,x,z
-x,-y,z
y,-x,z
x,-y,-z
-x,y,-z
y,x,-z
-y,-x,-z
-x,-y,-z
y,-x,-z
x,y,-z
-y,x,-z
-x,y,z
x,-y,z
-y,-x,z
y,x,z
loop_
_atom_site_type_symbol
_atom_site_label
_atom_site_fract_x
_atom_site_fract_y
_atom_site_fract_z
Si Si1 0.356371 0.733835 0.828883
Si Si2 0.565499 0.937179 0.665317
Si Si3 0.935979 0.736913 0.670074
Si Si4 0.936937 0.847538 0.834666
Si Si5 0.563644 0.653444 0.328472
Si Si6 0.647210 0.138044 0.827179
O O1 0.299841 0.700160 0.788296
O O2 0.409462 0.706931 0.749218
O O3 0.350284 0.797591 0.776406
O O4 0.368438 0.730790 0.000000
O O5 0.587517 0.927685 0.500000
O O6 0.500000 0.929430 0.671076
O O7 0.590745 0.891024 0.772201
O O8 0.582032 0.000000 0.715048
O O9 0.922995 0.731903 0.500000
O O10 0.923182 0.799048 0.721523
O O11 0.894509 0.698169 0.757828
O O12 0.000000 0.720403 0.704904
O O13 0.899620 0.899620 0.791044
O O14 0.000000 0.868031 0.818513
O O15 0.925003 0.826607 0.000000
O O16 0.566534 0.664556 0.500000
O O17 0.500000 0.645962 0.275438
O O18 0.597410 0.597410 0.285790
O O19 0.650603 0.133298 0.000000
#
# Coordination Sequence:
#
# PCOD8312899 Si02
#       6
#    16  16  16  16  16  16
#     4   9  20  38  54  70  99 137 172 208 251 297
#     4   9  19  36  55  75 103 138 171 204 248 304
#     4  10  21  36  53  74 102 135 171 213 260 309
#     4   9  18  33  53  77 105 136 170 210 257 309
#     4   9  18  33  54  80 108 137 169 206 248 293
#     4  11  22  34  53  79 102 130 172 217 261 309
#
# _framework density 18.230768999999999
#
# number of rings (size 3 to 8) (size 9 to 14) (size 15 to 20)
#    0.000    2.500    0.000    2.000    0.000    7.333 
#    0.000    7.500    0.000    0.000    0.000    4.667 
#    0.000    0.000    0.000    0.000    0.000    0.000 
#
# Total GULP energy -1190433.123054 kJ/mol
# GULP energy per Si atom -12400.345032 kJ/mol
# Density = 1.818927 g / cm^3
# Si number density = 18.230769 Si / 1000 Ang^3
#
#
#
# Elastic Constant Matrix: (Units=GPa)
#
#
# Indices 1 2 3 4 5 6 
#
# 1 135.4266 77.0385 55.6092 0.0000 0.0000 0.0000
# 2 77.0385 135.4266 55.6092 0.0000 0.0000 0.0000
# 3 55.6092 55.6092 65.4100 0.0000 0.0000 0.0000
# 4 0.0000 0.0000 0.0000 29.4578 0.0000 0.0000
# 5 0.0000 0.0000 0.0000 0.0000 29.4578 0.0000
# 6 0.0000 0.0000 0.0000 0.0000 0.0000 45.8947
#
#
#
# Elastic Compliance Matrix: (Units=1/GPa)
#
#
# Indices 1 2 3 4 5 6 
#
# 1 0.012804 -0.004323 -0.007210 0.000000 0.000000 0.000000
# 2 -0.004323 0.012804 -0.007210 0.000000 0.000000 0.000000
# 3 -0.007210 -0.007210 0.027548 0.000000 0.000000 0.000000
# 4 0.000000 0.000000 0.000000 0.033947 0.000000 0.000000
# 5 0.000000 0.000000 0.000000 0.000000 0.033947 0.000000
# 6 0.000000 0.000000 0.000000 0.000000 0.000000 0.021789
#
#
# Mechanical properties :
#
#
# Convention : Reuss Voigt Hill
#
# Bulk Modulus (GPa) = 63.82027 79.19744 71.50886
# Shear Modulus (GPa) = 26.94720 30.82915 28.88818
#
# Velocity S-wave (km/s) = 3.84880 4.11670 3.98500
# Velocity P-wave (km/s) = 7.40499 8.13217 7.77709
#
# Compressibility (1/GPa) = 0.01566900
#
# Stress axis : x y z
#
# Youngs Moduli (GPa) = 78.10141 78.10141 36.30041
#
# Poissons Ratio (x) = 0.33763 0.26173
# Poissons Ratio (y) = 0.33763 0.26173
# Poissons Ratio (z) = 0.56313 0.56313
#
# Static dielectric constant tensor:
#      x y z
#    x 3.447520 0.000000 0.000000 
#    y 0.000000 3.447520 0.000000 
#    z 0.000000 0.000000 3.404240 
# 
# 
# High freq. dielectric constant tensor:
#      x y z
#    x 1.708940 0.000000 0.000000 
#    y 0.000000 1.708940 0.000000 
#    z 0.000000 0.000000 1.704620 
# 
# From -- ./inp_files/1585.got.cif
#   From: 2010.03.12/outbox.cif.g09.slc.cpg/sg123_1_cif.got.tgz:1585.got - 2010.04.06 16:26:55.
