data_PCOD8312897
_publ_section_title
;
Structure prediction by ZEFSAII (Michael W. Deem and Ramdas Pophale) SiO2 
 PCOD8312897
Probable space group: P 4/M M M
;
_chemical_formula_sum "Si O2"
_cell_formula_units_Z 88
_cell_length_a 13.279029
_cell_length_b 13.279029
_cell_length_c 27.977587
_cell_angle_alpha 90.000000
_cell_angle_beta 90.000000
_cell_angle_gamma 90.000000
_cell_volume 4933.360970
_symmetry_space_group_name_H-M "P 4/M M M"
_symmetry_group_IT_number 123
_symmetry_cell_setting 'tetragonal'
loop_
_space_group_symop_operation_xyz
x,y,z
-y,x,z
-x,-y,z
y,-x,z
x,-y,-z
-x,y,-z
y,x,-z
-y,-x,-z
-x,-y,-z
y,-x,-z
x,y,-z
-y,x,-z
-x,y,z
x,-y,z
-y,-x,z
y,x,z
loop_
_atom_site_type_symbol
_atom_site_label
_atom_site_fract_x
_atom_site_fract_y
_atom_site_fract_z
Si Si1 0.116715 0.279202 0.761631
Si Si2 0.276073 0.113299 0.869741
Si Si3 0.382597 0.781667 0.322511
Si Si4 0.382115 0.783314 0.500000
Si Si5 0.385979 0.223007 0.053538
Si Si6 0.282973 0.117992 0.410827
O O1 0.172498 0.172498 0.752820
O O2 0.132427 0.316425 0.816064
O O3 0.165619 0.364894 0.728592
O O4 0.000000 0.262885 0.748983
O O5 0.179480 0.179480 0.882077
O O6 0.363767 0.136124 0.907848
O O7 0.239441 0.000000 0.875706
O O8 0.500000 0.759715 0.329765
O O9 0.324842 0.675158 0.326232
O O10 0.341855 0.858392 0.362193
O O11 0.500000 0.757582 0.500000
O O12 0.322333 0.677668 0.500000
O O13 0.354894 0.849170 0.546057
O O14 0.500000 0.257949 0.058645
O O15 0.320973 0.320973 0.065564
O O16 0.363503 0.181965 0.000000
O O17 0.176928 0.176928 0.413221
O O18 0.258834 0.000000 0.413880
#
# Coordination Sequence:
#
# PCOD8312897 Si02
#       6
#    16  16  16   8  16  16
#     4   9  18  32  50  73  99 127 160 197 238 285
#     4   9  18  32  49  70  97 127 159 196 236 280
#     4  10  21  36  53  74 100 130 166 206 246 291
#     4  10  21  36  54  78 106 136 173 214 254 298
#     4   9  18  32  49  69  93 121 154 194 239 285
#     4  10  21  36  54  78 106 135 169 207 248 297
#
# _framework density 17.837737000000001
#
# number of rings (size 3 to 8) (size 9 to 14) (size 15 to 20)
#    0.000    2.545    0.000    1.364    0.000    5.364 
#    0.000    5.455    0.000    8.182    0.000    7.636 
#    0.000    0.000    0.000    0.000    0.000    0.000 
#
# Total GULP energy -1091238.983482 kJ/mol
# GULP energy per Si atom -12400.442994 kJ/mol
# Density = 1.779714 g / cm^3
# Si number density = 17.837737 Si / 1000 Ang^3
#
#
#
# Elastic Constant Matrix: (Units=GPa)
#
#
# Indices 1 2 3 4 5 6 
#
# 1 115.3025 46.1314 49.1917 0.0000 0.0000 0.0000
# 2 46.1314 115.3015 49.1914 0.0000 0.0000 0.0000
# 3 49.1917 49.1914 108.2077 0.0000 0.0000 0.0000
# 4 0.0000 0.0000 0.0000 22.8916 0.0000 0.0000
# 5 0.0000 0.0000 0.0000 0.0000 22.8916 0.0000
# 6 0.0000 0.0000 0.0000 0.0000 0.0000 11.5991
#
#
#
# Elastic Compliance Matrix: (Units=1/GPa)
#
#
# Indices 1 2 3 4 5 6 
#
# 1 0.011513 -0.002944 -0.003895 0.000000 0.000000 0.000000
# 2 -0.002944 0.011513 -0.003895 0.000000 0.000000 0.000000
# 3 -0.003895 -0.003895 0.012783 0.000000 0.000000 0.000000
# 4 0.000000 0.000000 0.000000 0.043684 0.000000 0.000000
# 5 0.000000 0.000000 0.000000 0.000000 0.043684 0.000000
# 6 0.000000 0.000000 0.000000 0.000000 0.000000 0.086214
#
#
# Mechanical properties :
#
#
# Convention : Reuss Voigt Hill
#
# Bulk Modulus (GPa) = 69.74010 69.76007 69.75009
# Shear Modulus (GPa) = 21.21883 24.42960 22.82422
#
# Velocity S-wave (km/s) = 3.45272 3.70475 3.58096
# Velocity P-wave (km/s) = 7.42138 7.58243 7.50234
#
# Compressibility (1/GPa) = 0.01433895
#
# Stress axis : x y z
#
# Youngs Moduli (GPa) = 86.86096 86.86029 78.22869
#
# Poissons Ratio (x) = 0.25574 0.30472
# Poissons Ratio (y) = 0.25575 0.30472
# Poissons Ratio (z) = 0.33834 0.33834
#
# Static dielectric constant tensor:
#      x y z
#    x 3.175540 0.000000 0.000000 
#    y 0.000000 3.175530 0.000000 
#    z 0.000000 0.000000 3.628490 
# 
# 
# High freq. dielectric constant tensor:
#      x y z
#    x 1.681100 0.000000 0.000000 
#    y 0.000000 1.681100 0.000000 
#    z 0.000000 0.000000 1.709670 
# 
# From -- ./inp_files/8467.got.cif
#   From: 2010.03.12/outbox.cif.g09.slc.cpg/sg123_5_cif.got.tgz:8467.got - 2010.04.06 16:26:55.
