data_PCOD8312595
_publ_section_title
;
Structure prediction by ZEFSAII (Michael W. Deem and Ramdas Pophale) SiO2 
 PCOD8312595
Probable space group: P 4/M M M
;
_chemical_formula_sum "Si O2"
_cell_formula_units_Z 64
_cell_length_a 14.754317
_cell_length_b 14.754317
_cell_length_c 17.139558
_cell_angle_alpha 90.000000
_cell_angle_beta 90.000000
_cell_angle_gamma 90.000000
_cell_volume 3731.108155
_symmetry_space_group_name_H-M "P 4/M M M"
_symmetry_group_IT_number 123
_symmetry_cell_setting 'tetragonal'
loop_
_space_group_symop_operation_xyz
x,y,z
-y,x,z
-x,-y,z
y,-x,z
x,-y,-z
-x,y,-z
y,x,-z
-y,-x,-z
-x,-y,-z
y,-x,-z
x,y,-z
-y,x,-z
-x,y,z
x,-y,z
-y,-x,z
y,x,z
loop_
_atom_site_type_symbol
_atom_site_label
_atom_site_fract_x
_atom_site_fract_y
_atom_site_fract_z
Si Si1 0.832182 0.308989 0.911786
Si Si2 0.393418 0.760073 0.500000
Si Si3 0.396540 0.103034 0.638448
Si Si4 0.242951 0.099948 0.757194
Si Si5 0.500000 0.898648 0.090935
O O1 0.728411 0.271590 0.906290
O O2 0.893421 0.253671 0.850831
O O3 0.837860 0.413595 0.885984
O O4 0.869970 0.294607 0.000000
O O5 0.500000 0.730918 0.500000
O O6 0.329772 0.670229 0.500000
O O7 0.370438 0.823019 0.426192
O O8 0.500000 0.115493 0.664748
O O9 0.337543 0.122253 0.715137
O O10 0.380755 0.000000 0.606703
O O11 0.168251 0.168251 0.724428
O O12 0.208730 0.000000 0.736366
O O13 0.500000 0.000000 0.130774
O O14 0.500000 0.916247 0.000000
#
# Coordination Sequence:
#
# PCOD8312595 Si02
#       5
#    16   8  16  16   8
#     4   9  18  31  46  67  96 126 157 200 251 295
#     4  10  19  32  51  73 100 130 157 187 226 275
#     4   9  18  32  51  74  97 121 153 195 241 283
#     4  10  20  32  47  68  95 127 162 198 238 287
#     4   9  16  26  44  67  87 112 152 197 238 282
#
# _framework density 17.153081
#
# number of rings (size 3 to 8) (size 9 to 14) (size 15 to 20)
#    0.000    2.625    0.000    1.875    1.750    3.375 
#    0.000    0.000    0.000    0.375    0.000    6.125 
#    0.000    9.000    0.000    0.000    0.000    0.000 
#
# Total GULP energy -792990.298892 kJ/mol
# GULP energy per Si atom -12390.473420 kJ/mol
# Density = 1.711404 g / cm^3
# Si number density = 17.153081 Si / 1000 Ang^3
#
#
#
# Elastic Constant Matrix: (Units=GPa)
#
#
# Indices 1 2 3 4 5 6 
#
# 1 110.6473 75.9179 39.6118 0.0000 0.0000 0.0000
# 2 75.9179 110.6491 39.6119 0.0000 0.0000 0.0000
# 3 39.6118 39.6119 79.7609 0.0000 0.0000 0.0000
# 4 0.0000 0.0000 0.0000 20.2060 0.0000 0.0000
# 5 0.0000 0.0000 0.0000 0.0000 20.2061 0.0000
# 6 0.0000 0.0000 0.0000 0.0000 0.0000 30.5097
#
#
#
# Elastic Compliance Matrix: (Units=1/GPa)
#
#
# Indices 1 2 3 4 5 6 
#
# 1 0.017793 -0.011000 -0.003373 0.000000 0.000000 0.000000
# 2 -0.011000 0.017793 -0.003373 0.000000 0.000000 0.000000
# 3 -0.003373 -0.003373 0.015888 0.000000 0.000000 0.000000
# 4 0.000000 0.000000 0.000000 0.049490 0.000000 0.000000
# 5 0.000000 0.000000 0.000000 0.000000 0.049490 0.000000
# 6 0.000000 0.000000 0.000000 0.000000 0.000000 0.032776
#
#
# Mechanical properties :
#
#
# Convention : Reuss Voigt Hill
#
# Bulk Modulus (GPa) = 62.57969 67.92673 65.25321
# Shear Modulus (GPa) = 22.31632 23.91210 23.11421
#
# Velocity S-wave (km/s) = 3.61086 3.73774 3.67485
# Velocity P-wave (km/s) = 7.34484 7.63635 7.49201
#
# Compressibility (1/GPa) = 0.01597962
#
# Stress axis : x y z
#
# Youngs Moduli (GPa) = 56.20176 56.20275 62.94010
#
# Poissons Ratio (x) = 0.61825 0.21232
# Poissons Ratio (y) = 0.61824 0.21232
# Poissons Ratio (z) = 0.18959 0.18959
#
# Static dielectric constant tensor:
#      x y z
#    x 3.253690 0.000000 0.000000 
#    y 0.000000 3.253690 0.000000 
#    z 0.000000 0.000000 3.165760 
# 
# 
# High freq. dielectric constant tensor:
#      x y z
#    x 1.651720 0.000000 0.000000 
#    y 0.000000 1.651720 0.000000 
#    z 0.000000 0.000000 1.660280 
# 
# From -- ./inp_files/4988.got.cif
#   From: 2010.03.12/outbox.cif.g09.slc.cpg/sg123_3_cif.got.tgz:4988.got - 2010.04.06 16:26:55.
