data_PCOD8312466
_publ_section_title
;
Structure prediction by ZEFSAII (Michael W. Deem and Ramdas Pophale) SiO2 
 PCOD8312466
Probable space group: P 4/M M M
;
_chemical_formula_sum "Si O2"
_cell_formula_units_Z 88
_cell_length_a 17.620270
_cell_length_b 17.620270
_cell_length_c 17.956427
_cell_angle_alpha 90.000000
_cell_angle_beta 90.000000
_cell_angle_gamma 90.000000
_cell_volume 5575.002188
_symmetry_space_group_name_H-M "P 4/M M M"
_symmetry_group_IT_number 123
_symmetry_cell_setting 'tetragonal'
loop_
_space_group_symop_operation_xyz
x,y,z
-y,x,z
-x,-y,z
y,-x,z
x,-y,-z
-x,y,-z
y,x,-z
-y,-x,-z
-x,-y,-z
y,-x,-z
x,y,-z
-y,x,-z
-x,y,z
x,-y,z
-y,-x,z
y,x,z
loop_
_atom_site_type_symbol
_atom_site_label
_atom_site_fract_x
_atom_site_fract_y
_atom_site_fract_z
Si Si1 0.586818 0.290900 0.414456
Si Si2 0.089662 0.500000 0.083437
Si Si3 0.688271 0.812478 0.684212
Si Si4 0.206115 0.914735 0.914280
Si Si5 0.914055 0.792663 0.585708
Si Si6 0.356231 0.911741 0.178846
O O1 0.594562 0.264493 0.500000
O O2 0.500000 0.303722 0.391328
O O3 0.629690 0.370311 0.401551
O O4 0.622141 0.225750 0.363522
O O5 0.116341 0.425929 0.128286
O O6 0.000000 0.500000 0.075601
O O7 0.125427 0.500000 0.000000
O O8 0.749619 0.749619 0.711469
O O9 0.727733 0.875199 0.633454
O O10 0.647716 0.855805 0.751376
O O11 0.140336 0.859665 0.884747
O O12 0.280858 0.899585 0.868017
O O13 0.176067 0.000000 0.902764
O O14 0.226041 0.899142 0.000000
O O15 0.909493 0.767291 0.500000
O O16 0.873089 0.873089 0.598073
O O17 0.000000 0.802838 0.613064
O O18 0.365913 0.000000 0.203303
#
# Coordination Sequence:
#
# PCOD8312466 Si02
#       6
#    16   8  16  16  16  16
#     4   9  18  32  50  71  94 121 150 181 220 268
#     4   9  18  32  48  66  87 113 148 187 229 275
#     4  10  19  30  46  67  93 123 152 185 226 276
#     4   9  17  29  45  65  90 119 151 187 228 276
#     4   9  17  29  45  64  88 122 164 207 245 277
#     4  10  19  30  46  66  88 118 152 191 230 269
#
# _framework density 15.784748
#
# number of rings (size 3 to 8) (size 9 to 14) (size 15 to 20)
#    0.000    2.636    0.000    2.182    1.273    4.909 
#    0.000    2.727    0.000    0.000    0.000    6.364 
#    0.000    0.000    0.000    0.000    0.000    8.000 
#
# Total GULP energy -1091151.147468 kJ/mol
# GULP energy per Si atom -12399.444858 kJ/mol
# Density = 1.574882 g / cm^3
# Si number density = 15.784748 Si / 1000 Ang^3
#
#
#
# Elastic Constant Matrix: (Units=GPa)
#
#
# Indices 1 2 3 4 5 6 
#
# 1 109.3431 63.8172 64.3137 0.0000 0.0000 0.0000
# 2 63.8172 109.3431 64.3137 0.0000 0.0000 0.0000
# 3 64.3137 64.3137 91.9583 0.0000 0.0000 0.0000
# 4 0.0000 0.0000 0.0000 24.2020 0.0000 0.0000
# 5 0.0000 0.0000 0.0000 0.0000 24.2020 0.0000
# 6 0.0000 0.0000 0.0000 0.0000 0.0000 12.6525
#
#
#
# Elastic Compliance Matrix: (Units=1/GPa)
#
#
# Indices 1 2 3 4 5 6 
#
# 1 0.016992 -0.004973 -0.008406 0.000000 0.000000 0.000000
# 2 -0.004973 0.016992 -0.008406 0.000000 0.000000 0.000000
# 3 -0.008406 -0.008406 0.022632 0.000000 0.000000 0.000000
# 4 0.000000 0.000000 0.000000 0.041319 0.000000 0.000000
# 5 0.000000 0.000000 0.000000 0.000000 0.041319 0.000000
# 6 0.000000 0.000000 0.000000 0.000000 0.000000 0.079035
#
#
# Mechanical properties :
#
#
# Convention : Reuss Voigt Hill
#
# Bulk Modulus (GPa) = 76.64660 77.28154 76.96407
# Shear Modulus (GPa) = 18.78222 20.09130 19.43676
#
# Velocity S-wave (km/s) = 3.45323 3.57154 3.51289
# Velocity P-wave (km/s) = 8.03508 8.12858 8.08197
#
# Compressibility (1/GPa) = 0.01304689
#
# Stress axis : x y z
#
# Youngs Moduli (GPa) = 58.85021 58.85021 44.18452
#
# Poissons Ratio (x) = 0.29267 0.37141
# Poissons Ratio (y) = 0.29267 0.37141
# Poissons Ratio (z) = 0.49469 0.49469
#
# Static dielectric constant tensor:
#      x y z
#    x 3.012510 0.000000 0.000000 
#    y 0.000000 3.012510 0.000000 
#    z 0.000000 0.000000 3.045010 
# 
# 
# High freq. dielectric constant tensor:
#      x y z
#    x 1.600880 0.000000 0.000000 
#    y 0.000000 1.600880 0.000000 
#    z 0.000000 0.000000 1.604890 
# 
# From -- ./inp_files/4056.got.cif
#   From: 2010.03.12/outbox.cif.g09.slc.cpg/sg123_3_cif.got.tgz:4056.got - 2010.04.06 16:26:55.
