data_PCOD8312869
_publ_section_title
;
Structure prediction by ZEFSAII (Michael W. Deem and Ramdas Pophale) SiO2 
 PCOD8312869
Probable space group: P 4/M M M
;
_chemical_formula_sum "Si O2"
_cell_formula_units_Z 72
_cell_length_a 21.020538
_cell_length_b 21.020538
_cell_length_c 9.287379
_cell_angle_alpha 90.000000
_cell_angle_beta 90.000000
_cell_angle_gamma 90.000000
_cell_volume 4103.749312
_symmetry_space_group_name_H-M "P 4/M M M"
_symmetry_group_IT_number 123
_symmetry_cell_setting 'tetragonal'
loop_
_space_group_symop_operation_xyz
x,y,z
-y,x,z
-x,-y,z
y,-x,z
x,-y,-z
-x,y,-z
y,x,-z
-y,-x,-z
-x,-y,-z
y,-x,-z
x,y,-z
-y,x,-z
-x,y,z
x,-y,z
-y,-x,z
y,x,z
loop_
_atom_site_type_symbol
_atom_site_label
_atom_site_fract_x
_atom_site_fract_y
_atom_site_fract_z
Si Si1 0.071014 0.500000 0.828722
Si Si2 0.167598 0.604858 0.166645
Si Si3 0.399457 0.500000 0.670060
Si Si4 0.160876 0.734454 0.331973
Si Si5 0.824370 0.927213 0.166928
Si Si6 0.728458 0.500000 0.161674
O O1 0.107178 0.436224 0.778023
O O2 0.000000 0.500000 0.763821
O O3 0.070964 0.500000 0.000000
O O4 0.174618 0.666301 0.264528
O O5 0.230404 0.562984 0.188081
O O6 0.159272 0.624757 0.000000
O O7 0.437311 0.437311 0.722890
O O8 0.394802 0.500000 0.500000
O O9 0.329155 0.500000 0.729693
O O10 0.147025 0.726957 0.500000
O O11 0.222236 0.777765 0.301447
O O12 0.098940 0.765488 0.259053
O O13 0.888567 0.888567 0.203097
O O14 0.837029 0.000000 0.209966
O O15 0.805907 0.920353 0.000000
O O16 0.701594 0.500000 0.000000
#
# Coordination Sequence:
#
# PCOD8312869 Si02
#       6
#     8  16   8  16  16   8
#     4   8  15  30  52  75  97 123 157 196 239 289
#     4   9  18  33  52  74 100 128 161 203 247 291
#     4   9  19  35  52  71  97 128 162 202 247 294
#     4  10  21  35  50  71 101 135 169 205 245 290
#     4   9  18  33  53  76 101 130 165 205 249 296
#     4   9  19  34  51  74 102 130 162 203 251 300
#
# _framework density 17.544930999999998
#
# number of rings (size 3 to 8) (size 9 to 14) (size 15 to 20)
#    0.000    2.889    0.000    2.333    0.000    5.111 
#    0.000   10.000    0.000    0.667    0.000    3.111 
#    0.000    0.000    0.000    0.000    0.000    0.000 
#
# Total GULP energy -892792.992776 kJ/mol
# GULP energy per Si atom -12399.902677 kJ/mol
# Density = 1.750500 g / cm^3
# Si number density = 17.544931 Si / 1000 Ang^3
#
#
#
# Elastic Constant Matrix: (Units=GPa)
#
#
# Indices 1 2 3 4 5 6 
#
# 1 123.4276 43.5279 50.0873 0.0000 0.0000 0.0000
# 2 43.5279 123.4276 50.0873 0.0000 0.0000 0.0000
# 3 50.0873 50.0873 68.4931 0.0000 0.0000 0.0000
# 4 0.0000 0.0000 0.0000 21.6961 0.0000 0.0000
# 5 0.0000 0.0000 0.0000 0.0000 21.6961 0.0000
# 6 0.0000 0.0000 0.0000 0.0000 0.0000 11.6101
#
#
#
# Elastic Compliance Matrix: (Units=1/GPa)
#
#
# Indices 1 2 3 4 5 6 
#
# 1 0.011594 -0.000922 -0.007804 0.000000 0.000000 0.000000
# 2 -0.000922 0.011594 -0.007804 0.000000 0.000000 0.000000
# 3 -0.007804 -0.007804 0.026014 0.000000 0.000000 0.000000
# 4 0.000000 0.000000 0.000000 0.046091 0.000000 0.000000
# 5 0.000000 0.000000 0.000000 0.000000 0.046091 0.000000
# 6 0.000000 0.000000 0.000000 0.000000 0.000000 0.086132
#
#
# Mechanical properties :
#
#
# Convention : Reuss Voigt Hill
#
# Bulk Modulus (GPa) = 61.95259 66.97259 64.46259
# Shear Modulus (GPa) = 18.79992 22.44350 20.62171
#
# Velocity S-wave (km/s) = 3.27697 3.58047 3.43208
# Velocity P-wave (km/s) = 7.05022 7.43962 7.24753
#
# Compressibility (1/GPa) = 0.01614137
#
# Stress axis : x y z
#
# Youngs Moduli (GPa) = 86.25145 86.25145 38.44033
#
# Poissons Ratio (x) = 0.07950 0.30000
# Poissons Ratio (y) = 0.07950 0.30000
# Poissons Ratio (z) = 0.67314 0.67314
#
# Static dielectric constant tensor:
#      x y z
#    x 3.301420 0.000000 0.000000 
#    y 0.000000 3.301420 0.000000 
#    z 0.000000 0.000000 3.108640 
# 
# 
# High freq. dielectric constant tensor:
#      x y z
#    x 1.680850 0.000000 0.000000 
#    y 0.000000 1.680850 0.000000 
#    z 0.000000 0.000000 1.663700 
# 
# From -- ./inp_files/1212.got.cif
#   From: 2010.03.12/outbox.cif.g09.slc.cpg/sg123_1_cif.got.tgz:1212.got - 2010.04.06 16:26:55.
