data_PCOD8313660
_publ_section_title
;
Structure prediction by ZEFSAII (Michael W. Deem and Ramdas Pophale) SiO2 
 PCOD8313660
Probable space group: P 4/N N C
;
_chemical_formula_sum "Si O2"
_cell_formula_units_Z 68
_cell_length_a 16.296727
_cell_length_b 16.296727
_cell_length_c 12.898599
_cell_angle_alpha 90.000000
_cell_angle_beta 90.000000
_cell_angle_gamma 90.000000
_cell_volume 3425.652629
_symmetry_space_group_name_H-M "P 4/N N C"
_symmetry_group_IT_number 126
_space_group.IT_coordinate_system_code '2'
_symmetry_cell_setting 'tetragonal'
loop_
_space_group_symop_operation_xyz
x,y,z
1/2-y,x,z
1/2-x,1/2-y,z
y,1/2-x,z
x,1/2-y,1/2-z
1/2-x,y,1/2-z
y,x,1/2-z
1/2-y,1/2-x,1/2-z
-x,-y,-z
1/2+y,-x,-z
1/2+x,1/2+y,-z
-y,1/2+x,-z
-x,1/2+y,1/2+z
1/2+x,-y,1/2+z
-y,-x,1/2+z
1/2+y,1/2+x,1/2+z
loop_
_atom_site_type_symbol
_atom_site_label
_atom_site_fract_x
_atom_site_fract_y
_atom_site_fract_z
Si Si1 0.133018 0.812962 0.837462
Si Si2 0.089504 0.410836 0.031296
Si Si3 0.747862 0.952632 0.867348
Si Si4 0.250000 0.750000 0.000000
Si Si5 0.018569 0.561204 0.151577
O O1 0.167657 0.750000 0.750000
O O2 0.194741 0.811103 0.933073
O O3 0.125830 0.910903 0.809603
O O4 0.045500 0.779776 0.869283
O O5 0.187735 0.401971 0.054003
O O6 0.044939 0.340031 0.093983
O O7 0.062736 0.498524 0.074464
O O8 0.059667 0.400683 0.911304
O O9 0.750000 0.916315 0.750000
O O10 0.984849 0.515152 0.250000
#
# Coordination Sequence:
#
# PCOD8313660 Si02
#       5
#    16  16  16   4  16
#     4  10  21  34  54  80 112 149 187 233 289 349
#     4  10  20  34  55  82 109 143 185 234 292 348
#     4  10  19  34  55  81 110 142 183 235 288 344
#     4  12  22  36  52  82 120 148 182 240 292 346
#     4  10  20  37  58  79 109 150 196 239 287 354
#
# _framework density 19.850232999999999
#
# number of rings (size 3 to 8) (size 9 to 14) (size 15 to 20)
#    0.000    1.882    0.000    6.706    0.000    4.235 
#    0.000    4.706    0.000    0.000    0.000    1.647 
#    0.000    0.000    0.000    0.000    0.000    0.000 
#
# Total GULP energy -842431.222146 kJ/mol
# GULP energy per Si atom -12388.694443 kJ/mol
# Density = 1.980505 g / cm^3
# Si number density = 19.850233 Si / 1000 Ang^3
#
#
#
# Elastic Constant Matrix: (Units=GPa)
#
#
# Indices 1 2 3 4 5 6 
#
# 1 55.6640 25.9470 25.9406 0.0000 0.0000 0.0000
# 2 25.9470 55.6639 25.9403 0.0000 0.0000 0.0000
# 3 25.9406 25.9403 71.5060 0.0000 0.0000 0.0000
# 4 0.0000 0.0000 0.0000 30.5028 0.0000 0.0000
# 5 0.0000 0.0000 0.0000 0.0000 30.5022 0.0000
# 6 0.0000 0.0000 0.0000 0.0000 0.0000 8.4858
#
#
#
# Elastic Compliance Matrix: (Units=1/GPa)
#
#
# Indices 1 2 3 4 5 6 
#
# 1 0.024788 -0.008862 -0.005778 0.000000 0.000000 0.000000
# 2 -0.008862 0.024788 -0.005777 0.000000 0.000000 0.000000
# 3 -0.005778 -0.005777 0.018177 0.000000 0.000000 0.000000
# 4 0.000000 0.000000 0.000000 0.032784 0.000000 0.000000
# 5 0.000000 0.000000 0.000000 0.000000 0.032785 0.000000
# 6 0.000000 0.000000 0.000000 0.000000 0.000000 0.117844
#
#
# Mechanical properties :
#
#
# Convention : Reuss Voigt Hill
#
# Bulk Modulus (GPa) = 37.14890 37.60997 37.37944
# Shear Modulus (GPa) = 16.61271 20.89855 18.75563
#
# Velocity S-wave (km/s) = 2.89606 3.24823 3.07719
# Velocity P-wave (km/s) = 5.47158 5.74943 5.61222
#
# Compressibility (1/GPa) = 0.02691870
#
# Stress axis : x y z
#
# Youngs Moduli (GPa) = 40.34132 40.34139 55.01540
#
# Poissons Ratio (x) = 0.35752 0.31786
# Poissons Ratio (y) = 0.35752 0.31785
# Poissons Ratio (z) = 0.23308 0.23307
#
# Static dielectric constant tensor:
#      x y z
#    x 4.109710 0.000000 0.000000 
#    y 0.000000 4.109620 0.000000 
#    z 0.000000 0.000000 3.843860 
# 
# 
# High freq. dielectric constant tensor:
#      x y z
#    x 1.766030 0.000000 0.000000 
#    y 0.000000 1.766030 0.000000 
#    z 0.000000 0.000000 1.760060 
# 
# From -- ./inp_files/2678.got.cif
#   From: 2010.03.12/outbox.cif.g09.slc.cpg/sg126_2_cif.got.tgz:2678.got - 2010.04.06 16:55:23.
