data_PCOD8313400
_publ_section_title
;
Structure prediction by ZEFSAII (Michael W. Deem and Ramdas Pophale) SiO2 
 PCOD8313400
Probable space group: P 4/M C C
;
_chemical_formula_sum "Si O2"
_cell_formula_units_Z 96
_cell_length_a 25.642208
_cell_length_b 25.642208
_cell_length_c 9.547206
_cell_angle_alpha 90.000000
_cell_angle_beta 90.000000
_cell_angle_gamma 90.000000
_cell_volume 6277.505918
_symmetry_space_group_name_H-M "P 4/M C C"
_symmetry_group_IT_number 124
_symmetry_cell_setting 'tetragonal'
loop_
_space_group_symop_operation_xyz
x,y,z
-y,x,z
-x,-y,z
y,-x,z
x,-y,1/2-z
-x,y,1/2-z
y,x,1/2-z
-y,-x,1/2-z
-x,-y,-z
y,-x,-z
x,y,-z
-y,x,-z
-x,y,1/2+z
x,-y,1/2+z
-y,-x,1/2+z
y,x,1/2+z
loop_
_atom_site_type_symbol
_atom_site_label
_atom_site_fract_x
_atom_site_fract_y
_atom_site_fract_z
Si Si1 0.253987 0.453640 0.841724
Si Si2 0.433855 0.953373 0.345362
Si Si3 0.134806 0.559746 0.349962
Si Si4 0.309820 0.049422 0.840532
Si Si5 0.144488 0.682417 0.655736
Si Si6 0.260769 0.335106 0.833603
O O1 0.280420 0.500000 0.750000
O O2 0.192295 0.462031 0.831326
O O3 0.267177 0.395577 0.786783
O O4 0.274077 0.460382 0.000000
O O5 0.456380 0.960498 0.500000
O O6 0.458037 0.900232 0.281422
O O7 0.371757 0.952283 0.347720
O O8 0.454644 0.000000 0.250000
O O9 0.111850 0.540407 0.500000
O O10 0.133622 0.621743 0.355419
O O11 0.291552 0.103261 0.764092
O O12 0.289067 0.000000 0.750000
O O13 0.287267 0.047638 0.000000
O O14 0.137305 0.707277 0.500000
O O15 0.204268 0.688769 0.708408
O O16 0.304396 0.304396 0.750000
O O17 0.268717 0.330213 0.000000
#
# Coordination Sequence:
#
# PCOD8313400 Si02
#       6
#    16  16  16  16  16  16
#     4   9  18  31  46  64  84 105 129 157 190 230
#     4   9  15  21  31  48  68  91 121 156 194 234
#     4   8  14  25  38  51  70  95 122 154 191 229
#     4   9  15  21  31  49  72  98 129 164 201 240
#     4   8  14  25  38  52  74 102 130 162 199 237
#     4   9  18  31  46  65  88 112 137 166 201 241
#
# _framework density 15.292697
#
# number of rings (size 3 to 8) (size 9 to 14) (size 15 to 20)
#    0.000    3.333    0.000    3.000    0.000    6.000 
#    0.000    3.333    0.000    0.500    0.000    3.500 
#    0.000    0.333    0.000    3.667    0.000    2.667 
#
# Total GULP energy -1189434.185796 kJ/mol
# GULP energy per Si atom -12389.939435 kJ/mol
# Density = 1.525789 g / cm^3
# Si number density = 15.292697 Si / 1000 Ang^3
#
#
#
# Elastic Constant Matrix: (Units=GPa)
#
#
# Indices 1 2 3 4 5 6 
#
# 1 49.3274 26.0194 36.9835 0.0000 0.0000 0.0000
# 2 26.0194 49.3274 36.9835 0.0000 0.0000 0.0000
# 3 36.9835 36.9835 111.5657 0.0000 0.0000 0.0000
# 4 0.0000 0.0000 0.0000 18.0147 0.0000 0.0000
# 5 0.0000 0.0000 0.0000 0.0000 18.0147 0.0000
# 6 0.0000 0.0000 0.0000 0.0000 0.0000 -0.3454
#
#
#
# Elastic Compliance Matrix: (Units=1/GPa)
#
#
# Indices 1 2 3 4 5 6 
#
# 1 0.031289 -0.011615 -0.006522 0.000000 0.000000 0.000000
# 2 -0.011615 0.031289 -0.006522 0.000000 0.000000 0.000000
# 3 -0.006522 -0.006522 0.013287 0.000000 0.000000 0.000000
# 4 0.000000 0.000000 0.000000 0.055510 0.000000 0.000000
# 5 0.000000 0.000000 0.000000 0.000000 0.055510 0.000000
# 6 0.000000 0.000000 0.000000 0.000000 0.000000 -2.894958
#
#
# Mechanical properties :
#
#
# Convention : Reuss Voigt Hill
#
# Bulk Modulus (GPa) = 37.66705 45.57701 41.62203
# Shear Modulus (GPa) = -1.88686 14.48574 6.29944
#
# Velocity S-wave (km/s) = -1.11198 3.08105 2.03179
# Velocity P-wave (km/s) = 4.79954 6.52112 5.72541
#
# Compressibility (1/GPa) = 0.02654840
#
# Stress axis : x y z
#
# Youngs Moduli (GPa) = 31.96000 31.96000 75.25950
#
# Poissons Ratio (x) = 0.37120 0.49084
# Poissons Ratio (y) = 0.37120 0.49084
# Poissons Ratio (z) = 0.20844 0.20844
#
# Static dielectric constant tensor:
#      x y z
#    x 2.664650 0.000000 0.000000 
#    y 0.000000 2.664650 0.000000 
#    z 0.000000 0.000000 3.320200 
# 
# 
# High freq. dielectric constant tensor:
#      x y z
#    x 1.541810 0.000000 0.000000 
#    y 0.000000 1.541810 0.000000 
#    z 0.000000 0.000000 1.601200 
# 
# From -- ./inp_files/1552.got.cif
#   From: 2010.03.12/outbox.cif.g09.slc.cpg/sg124_1_cif.got.tgz:1552.got - 2010.04.06 16:38:57.
