data_PCOD8313797
_publ_section_title
;
Structure prediction by ZEFSAII (Michael W. Deem and Ramdas Pophale) SiO2 
 PCOD8313797
Probable space group: P 4/N N C
;
_chemical_formula_sum "Si O2"
_cell_formula_units_Z 64
_cell_length_a 10.870854
_cell_length_b 10.870854
_cell_length_c 21.473009
_cell_angle_alpha 90.000000
_cell_angle_beta 90.000000
_cell_angle_gamma 90.000000
_cell_volume 2537.582860
_symmetry_space_group_name_H-M "P 4/N N C"
_symmetry_group_IT_number 126
_space_group.IT_coordinate_system_code '2'
_symmetry_cell_setting 'tetragonal'
loop_
_space_group_symop_operation_xyz
x,y,z
1/2-y,x,z
1/2-x,1/2-y,z
y,1/2-x,z
x,1/2-y,1/2-z
1/2-x,y,1/2-z
y,x,1/2-z
1/2-y,1/2-x,1/2-z
-x,-y,-z
1/2+y,-x,-z
1/2+x,1/2+y,-z
-y,1/2+x,-z
-x,1/2+y,1/2+z
1/2+x,-y,1/2+z
-y,-x,1/2+z
1/2+y,1/2+x,1/2+z
loop_
_atom_site_type_symbol
_atom_site_label
_atom_site_fract_x
_atom_site_fract_y
_atom_site_fract_z
Si Si1 0.451301 0.273220 0.852955
Si Si2 0.278561 0.562859 0.985066
Si Si3 0.074608 0.615842 0.781826
Si Si4 0.430853 0.325785 0.397882
O O1 0.356993 0.386120 0.844681
O O2 0.510703 0.274386 0.921206
O O3 0.548874 0.292857 0.795798
O O4 0.168076 0.619947 0.027120
O O5 0.340382 0.458508 0.028359
O O6 0.088776 0.750000 0.750000
O O7 0.970781 0.529220 0.750000
O O8 0.040373 0.630692 0.854345
O O9 0.314935 0.407378 0.380802
#
# Coordination Sequence:
#
# PCOD8313797 Si02
#       4
#    16  16  16  16
#     4  11  27  52  79 112 159 214 271 328 400 485
#     4  11  24  42  73 116 158 195 260 333 402 474
#     4  12  26  48  80 112 158 209 265 333 394 483
#     4  11  23  41  71 109 151 199 252 320 401 469
#
# _framework density 25.220849000000001
#
# number of rings (size 3 to 8) (size 9 to 14) (size 15 to 20)
#    0.000    0.750    5.000    1.500    3.500    5.250 
#    0.000    5.000    0.000    0.000    0.000    0.000 
#    0.000    0.000    0.000    0.000    0.000    0.000 
#
# Total GULP energy -793138.591941 kJ/mol
# GULP energy per Si atom -12392.790499 kJ/mol
# Density = 2.516345 g / cm^3
# Si number density = 25.220849 Si / 1000 Ang^3
#
#
#
# Elastic Constant Matrix: (Units=GPa)
#
#
# Indices 1 2 3 4 5 6 
#
# 1 78.6566 23.5563 59.3936 0.0000 0.0000 0.0000
# 2 23.5563 78.6566 59.3933 0.0000 0.0000 0.0000
# 3 59.3936 59.3933 155.2514 0.0000 0.0000 0.0000
# 4 0.0000 0.0000 0.0000 43.4618 0.0000 0.0000
# 5 0.0000 0.0000 0.0000 0.0000 43.4623 0.0000
# 6 0.0000 0.0000 0.0000 0.0000 0.0000 486.1102
#
#
#
# Elastic Compliance Matrix: (Units=1/GPa)
#
#
# Indices 1 2 3 4 5 6 
#
# 1 0.017882 -0.000267 -0.006739 0.000000 0.000000 0.000000
# 2 -0.000267 0.017882 -0.006739 0.000000 0.000000 0.000000
# 3 -0.006739 -0.006739 0.011597 0.000000 0.000000 0.000000
# 4 0.000000 0.000000 0.000000 0.023009 0.000000 0.000000
# 5 0.000000 0.000000 0.000000 0.000000 0.023008 0.000000
# 6 0.000000 0.000000 0.000000 0.000000 0.000000 0.002057
#
#
# Mechanical properties :
#
#
# Convention : Reuss Voigt Hill
#
# Bulk Modulus (GPa) = 50.32222 66.36120 58.34171
# Shear Modulus (GPa) = 38.59557 125.95496 82.27527
#
# Velocity S-wave (km/s) = 3.91615 7.07455 5.71776
# Velocity P-wave (km/s) = 6.35958 9.64891 8.17147
#
# Compressibility (1/GPa) = 0.01987194
#
# Stress axis : x y z
#
# Youngs Moduli (GPa) = 55.92228 55.92253 86.22723
#
# Poissons Ratio (x) = 0.01492 0.58108
# Poissons Ratio (y) = 0.01492 0.58107
# Poissons Ratio (z) = 0.37686 0.37685
#
# Static dielectric constant tensor:
#      x y z
#    x 4.680130 0.000000 0.000000 
#    y 0.000000 4.680130 0.000000 
#    z 0.000000 0.000000 4.310630 
# 
# 
# High freq. dielectric constant tensor:
#      x y z
#    x 2.016420 0.000000 0.000000 
#    y 0.000000 2.016420 0.000000 
#    z 0.000000 0.000000 2.014280 
# 
# From -- ./inp_files/4915.got.cif
#   From: 2010.03.12/outbox.cif.g09.slc.cpg/sg126_3_cif.got.tgz:4915.got - 2010.04.06 16:55:23.
