data_PCOD8313232
_publ_section_title
;
Structure prediction by ZEFSAII (Michael W. Deem and Ramdas Pophale) SiO2 
 PCOD8313232
Probable space group: P 4/M C C
;
_chemical_formula_sum "Si O2"
_cell_formula_units_Z 88
_cell_length_a 15.142165
_cell_length_b 15.142165
_cell_length_c 21.815893
_cell_angle_alpha 90.000000
_cell_angle_beta 90.000000
_cell_angle_gamma 90.000000
_cell_volume 5002.060536
_symmetry_space_group_name_H-M "P 4/M C C"
_symmetry_group_IT_number 124
_symmetry_cell_setting 'tetragonal'
loop_
_space_group_symop_operation_xyz
x,y,z
-y,x,z
-x,-y,z
y,-x,z
x,-y,1/2-z
-x,y,1/2-z
y,x,1/2-z
-y,-x,1/2-z
-x,-y,-z
y,-x,-z
x,y,-z
-y,x,-z
-x,y,1/2+z
x,-y,1/2+z
-y,-x,1/2+z
y,x,1/2+z
loop_
_atom_site_type_symbol
_atom_site_label
_atom_site_fract_x
_atom_site_fract_y
_atom_site_fract_z
Si Si1 0.841659 0.396262 0.813118
Si Si2 0.202558 0.180583 0.500000
Si Si3 0.816313 0.597012 0.176613
Si Si4 0.993735 0.401453 0.390884
Si Si5 0.698675 0.712521 0.099352
Si Si6 0.414731 0.619848 0.500000
Si Si7 0.015576 0.268913 0.500000
O O1 0.800067 0.493234 0.817869
O O2 0.832483 0.360772 0.743812
O O3 0.794362 0.334071 0.861377
O O4 0.944510 0.398167 0.830798
O O5 0.251722 0.220596 0.441126
O O6 0.212882 0.074737 0.500000
O O7 0.098288 0.202212 0.500000
O O8 0.896212 0.620898 0.131571
O O9 0.729318 0.637510 0.146464
O O10 0.023275 0.330824 0.440865
O O11 0.000000 0.500000 0.419888
O O12 0.619501 0.671761 0.059462
O O13 0.377432 0.520469 0.500000
#
# Coordination Sequence:
#
# PCOD8313232 Si02
#       7
#    16   8  16  16  16   8   8
#     4  10  20  34  54  81 112 144 178 219 268 323
#     4  11  24  36  60  76 108 135 182 230 268 327
#     4  10  20  34  54  81 112 144 178 219 268 323
#     4  10  20  34  56  82 115 141 170 219 276 329
#     4  11  20  36  54  81 104 145 182 231 266 319
#     4  10  22  37  52  73 108 150 190 232 276 320
#     4  12  21  41  54  84 106 142 184 219 279 322
#
# _framework density 17.592749999999999
#
# number of rings (size 3 to 8) (size 9 to 14) (size 15 to 20)
#    0.000    1.545    3.636    2.455    0.000    2.364 
#    0.000    0.000    0.000    0.000    0.000    7.636 
#    0.000    2.909    0.000    0.000    0.000    0.000 
#
# Total GULP energy -1091345.918405 kJ/mol
# GULP energy per Si atom -12401.658164 kJ/mol
# Density = 1.755271 g / cm^3
# Si number density = 17.592750 Si / 1000 Ang^3
#
#
#
# Elastic Constant Matrix: (Units=GPa)
#
#
# Indices 1 2 3 4 5 6 
#
# 1 67.5850 20.9651 22.3616 0.0000 0.0000 0.0000
# 2 20.9651 67.5850 22.3616 0.0000 0.0000 0.0000
# 3 22.3616 22.3616 91.3285 0.0000 0.0000 0.0000
# 4 0.0000 0.0000 0.0000 4.6299 0.0000 0.0000
# 5 0.0000 0.0000 0.0000 0.0000 4.6299 0.0000
# 6 0.0000 0.0000 0.0000 0.0000 0.0000 30.1873
#
#
#
# Elastic Compliance Matrix: (Units=1/GPa)
#
#
# Indices 1 2 3 4 5 6 
#
# 1 0.017168 -0.004282 -0.003155 0.000000 0.000000 0.000000
# 2 -0.004282 0.017168 -0.003155 0.000000 0.000000 0.000000
# 3 -0.003155 -0.003155 0.012495 0.000000 0.000000 0.000000
# 4 0.000000 0.000000 0.000000 0.215989 0.000000 0.000000
# 5 0.000000 0.000000 0.000000 0.000000 0.215989 0.000000
# 6 0.000000 0.000000 0.000000 0.000000 0.000000 0.033127
#
#
# Mechanical properties :
#
#
# Convention : Reuss Voigt Hill
#
# Bulk Modulus (GPa) = 38.99123 39.76394 39.37758
# Shear Modulus (GPa) = 9.23074 18.61009 13.92041
#
# Velocity S-wave (km/s) = 2.29310 3.25595 2.81598
# Velocity P-wave (km/s) = 5.40578 6.06519 5.74495
#
# Compressibility (1/GPa) = 0.02564679
#
# Stress axis : x y z
#
# Youngs Moduli (GPa) = 58.24670 58.24670 80.03450
#
# Poissons Ratio (x) = 0.24940 0.25253
# Poissons Ratio (y) = 0.24940 0.25253
# Poissons Ratio (z) = 0.18378 0.18378
#
# Static dielectric constant tensor:
#      x y z
#    x 3.150010 0.000000 0.000000 
#    y 0.000000 3.150010 0.000000 
#    z 0.000000 0.000000 3.349420 
# 
# 
# High freq. dielectric constant tensor:
#      x y z
#    x 1.673710 0.000000 0.000000 
#    y 0.000000 1.673710 0.000000 
#    z 0.000000 0.000000 1.692180 
# 
# From -- ./inp_files/5250.got.cif
#   From: 2010.03.12/outbox.cif.g09.slc.cpg/sg124_3_cif.got.tgz:5250.got - 2010.04.06 16:38:57.
