data_PCOD8313834
_publ_section_title
;
Structure prediction by ZEFSAII (Michael W. Deem and Ramdas Pophale) SiO2 
 PCOD8313834
Probable space group: P 4/M B M
;
_chemical_formula_sum "Si O2"
_cell_formula_units_Z 96
_cell_length_a 24.891856
_cell_length_b 24.891856
_cell_length_c 8.457198
_cell_angle_alpha 90.000000
_cell_angle_beta 90.000000
_cell_angle_gamma 90.000000
_cell_volume 5240.117897
_symmetry_space_group_name_H-M "P 4/M B M"
_symmetry_group_IT_number 127
_symmetry_cell_setting 'tetragonal'
loop_
_space_group_symop_operation_xyz
x,y,z
-y,x,z
-x,-y,z
y,-x,z
1/2+x,1/2-y,-z
1/2-x,1/2+y,-z
1/2+y,1/2+x,-z
1/2-y,1/2-x,-z
-x,-y,-z
y,-x,-z
x,y,-z
-y,x,-z
1/2-x,1/2+y,z
1/2+x,1/2-y,z
1/2-y,1/2-x,z
1/2+y,1/2+x,z
loop_
_atom_site_type_symbol
_atom_site_label
_atom_site_fract_x
_atom_site_fract_y
_atom_site_fract_z
Si Si1 0.834640 0.334640 0.814447
Si Si2 0.870745 0.922788 0.817651
Si Si3 0.737297 0.394807 0.686658
Si Si4 0.352810 0.462800 0.315803
Si Si5 0.513057 0.236068 0.312984
Si Si6 0.379954 0.964364 0.311924
Si Si7 0.918953 0.418953 0.313065
O O1 0.776990 0.348335 0.741253
O O2 0.878728 0.378728 0.771662
O O3 0.829500 0.329500 0.000000
O O4 0.820270 0.885805 0.768992
O O5 0.924395 0.889053 0.789291
O O6 0.871592 0.976162 0.711077
O O7 0.867520 0.939513 0.000000
O O8 0.729042 0.393349 0.500000
O O9 0.761665 0.451578 0.745876
O O10 0.359579 0.448719 0.500000
O O11 0.290322 0.455994 0.260530
O O12 0.512147 0.233064 0.500000
O O13 0.540291 0.181391 0.246027
O O14 0.380235 0.961372 0.500000
O O15 0.415466 0.915466 0.241287
O O16 0.405944 0.020635 0.258487
O O17 0.911189 0.411189 0.500000
#
# Coordination Sequence:
#
# PCOD8313834 Si02
#       7
#     8  16  16  16  16  16   8
#     4  12  22  31  49  79 108 140 180 232 284 329
#     4  11  22  37  57  86 115 141 176 225 276 323
#     4  10  19  35  56  77 104 140 181 223 270 329
#     4  10  20  36  57  80 110 148 183 216 264 331
#     4   8  15  28  49  75 100 133 176 221 261 309
#     4   9  15  24  44  76 106 134 176 230 273 311
#     4  10  17  28  46  72 106 142 178 222 276 326
#
# _framework density 18.320198000000001
#
# number of rings (size 3 to 8) (size 9 to 14) (size 15 to 20)
#    0.000    2.167    1.667    4.500    0.000    1.333 
#    0.000    1.667    1.833    1.000    0.000    0.000 
#    0.000    0.000    0.000    0.000    0.000    0.000 
#
# Total GULP energy -1190234.982627 kJ/mol
# GULP energy per Si atom -12398.281069 kJ/mol
# Density = 1.827850 g / cm^3
# Si number density = 18.320198 Si / 1000 Ang^3
#
#
#
# Elastic Constant Matrix: (Units=GPa)
#
#
# Indices 1 2 3 4 5 6 
#
# 1 102.2473 56.4905 10.6514 0.0000 0.0000 0.0000
# 2 56.4905 102.2473 10.6514 0.0000 0.0000 0.0000
# 3 10.6514 10.6514 51.4242 0.0000 0.0000 0.0000
# 4 0.0000 0.0000 0.0000 17.4739 0.0000 0.0000
# 5 0.0000 0.0000 0.0000 0.0000 17.4739 0.0000
# 6 0.0000 0.0000 0.0000 0.0000 0.0000 29.2534
#
#
#
# Elastic Compliance Matrix: (Units=1/GPa)
#
#
# Indices 1 2 3 4 5 6 
#
# 1 0.014167 -0.007687 -0.001342 0.000000 0.000000 0.000000
# 2 -0.007687 0.014167 -0.001342 0.000000 0.000000 0.000000
# 3 -0.001342 -0.001342 0.020002 0.000000 0.000000 0.000000
# 4 0.000000 0.000000 0.000000 0.057228 0.000000 0.000000
# 5 0.000000 0.000000 0.000000 0.000000 0.057228 0.000000
# 6 0.000000 0.000000 0.000000 0.000000 0.000000 0.034184
#
#
# Mechanical properties :
#
#
# Convention : Reuss Voigt Hill
#
# Bulk Modulus (GPa) = 36.24094 45.72284 40.98189
# Shear Modulus (GPa) = 22.03434 24.71525 23.37480
#
# Velocity S-wave (km/s) = 3.47181 3.67696 3.57585
# Velocity P-wave (km/s) = 5.99134 6.56037 6.28230
#
# Compressibility (1/GPa) = 0.02759311
#
# Stress axis : x y z
#
# Youngs Moduli (GPa) = 70.58529 70.58529 49.99474
#
# Poissons Ratio (x) = 0.54262 0.06710
# Poissons Ratio (y) = 0.54262 0.06710
# Poissons Ratio (z) = 0.09474 0.09474
#
# Static dielectric constant tensor:
#      x y z
#    x 3.515740 0.000000 0.000000 
#    y 0.000000 3.515740 0.000000 
#    z 0.000000 0.000000 3.080570 
# 
# 
# High freq. dielectric constant tensor:
#      x y z
#    x 1.703430 0.000000 0.000000 
#    y 0.000000 1.703430 0.000000 
#    z 0.000000 0.000000 1.686920 
# 
# From -- ./inp_files/2112.got.cif
#   From: 2010.03.12/outbox.cif.g09.slc.cpg/sg127_2_cif.got.tgz:2112.got - 2010.04.06 17:03:15.
