data_PCOD8313354
_publ_section_title
;
Structure prediction by ZEFSAII (Michael W. Deem and Ramdas Pophale) SiO2 
 PCOD8313354
Probable space group: P 4/M C C
;
_chemical_formula_sum "Si O2"
_cell_formula_units_Z 72
_cell_length_a 11.605438
_cell_length_b 11.605438
_cell_length_c 27.309949
_cell_angle_alpha 90.000000
_cell_angle_beta 90.000000
_cell_angle_gamma 90.000000
_cell_volume 3678.273012
_symmetry_space_group_name_H-M "P 4/M C C"
_symmetry_group_IT_number 124
_symmetry_cell_setting 'tetragonal'
loop_
_space_group_symop_operation_xyz
x,y,z
-y,x,z
-x,-y,z
y,-x,z
x,-y,1/2-z
-x,y,1/2-z
y,x,1/2-z
-y,-x,1/2-z
-x,-y,-z
y,-x,-z
x,y,-z
-y,x,-z
-x,y,1/2+z
x,-y,1/2+z
-y,-x,1/2+z
y,x,1/2+z
loop_
_atom_site_type_symbol
_atom_site_label
_atom_site_fract_x
_atom_site_fract_y
_atom_site_fract_z
Si Si1 0.705161 0.838604 0.874635
Si Si2 0.919064 0.287284 0.401880
Si Si3 0.385380 0.355778 0.807343
Si Si4 0.506114 0.862447 0.944715
Si Si5 0.009051 0.811714 0.500000
O O1 0.839547 0.820828 0.888473
O O2 0.682009 0.753873 0.829128
O O3 0.618593 0.808063 0.919261
O O4 0.692494 0.976537 0.862301
O O5 0.831469 0.394947 0.410608
O O6 0.989590 0.268453 0.452488
O O7 0.518359 0.340825 0.824200
O O8 0.359163 0.359163 0.750000
O O9 0.500000 0.000000 0.944476
O O10 0.497915 0.812801 0.000000
O O11 0.891226 0.879832 0.500000
#
# Coordination Sequence:
#
# PCOD8313354 Si02
#       5
#    16  16  16  16   8
#     4  11  22  34  52  82 113 148 188 235 282 344
#     4  11  21  33  53  77 115 152 198 238 281 335
#     4   9  19  40  68  89 106 135 180 238 300 355
#     4   9  19  31  47  72 109 152 190 229 278 329
#     4  11  20  32  49  77 113 155 204 239 272 330
#
# _framework density 19.574403
#
# number of rings (size 3 to 8) (size 9 to 14) (size 15 to 20)
#    0.000    1.889    3.333    2.000    3.111    0.444 
#    0.000    1.111    0.000    2.667    0.000    6.222 
#    0.000    0.000    0.000    0.000    0.000    0.000 
#
# Total GULP energy -891943.383943 kJ/mol
# GULP energy per Si atom -12388.102555 kJ/mol
# Density = 1.952985 g / cm^3
# Si number density = 19.574403 Si / 1000 Ang^3
#
#
#
# Elastic Constant Matrix: (Units=GPa)
#
#
# Indices 1 2 3 4 5 6 
#
# 1 100.5363 27.4420 32.4849 0.0000 0.0000 0.0000
# 2 27.4420 100.5363 32.4849 0.0000 0.0000 0.0000
# 3 32.4849 32.4849 51.5395 0.0000 0.0000 0.0000
# 4 0.0000 0.0000 0.0000 29.0179 0.0000 0.0000
# 5 0.0000 0.0000 0.0000 0.0000 29.0179 0.0000
# 6 0.0000 0.0000 0.0000 0.0000 0.0000 -7.9564
#
#
#
# Elastic Compliance Matrix: (Units=1/GPa)
#
#
# Indices 1 2 3 4 5 6 
#
# 1 0.012586 -0.001095 -0.007242 0.000000 0.000000 0.000000
# 2 -0.001095 0.012586 -0.007242 0.000000 0.000000 0.000000
# 3 -0.007242 -0.007242 0.028532 0.000000 0.000000 0.000000
# 4 0.000000 0.000000 0.000000 0.034462 0.000000 0.000000
# 5 0.000000 0.000000 0.000000 0.000000 0.034462 0.000000
# 6 0.000000 0.000000 0.000000 0.000000 0.000000 -0.125686
#
#
# Mechanical properties :
#
#
# Convention : Reuss Voigt Hill
#
# Bulk Modulus (GPa) = 44.35821 48.60396 46.48108
# Shear Modulus (GPa) = 140.38865 20.69591 80.54228
#
# Velocity S-wave (km/s) = 8.47798 3.25513 6.42153
# Velocity P-wave (km/s) = 10.88786 6.24597 8.87574
#
# Compressibility (1/GPa) = 0.02254374
#
# Stress axis : x y z
#
# Youngs Moduli (GPa) = 79.45514 79.45514 35.04817
#
# Poissons Ratio (x) = 0.08702 0.25383
# Poissons Ratio (y) = 0.08702 0.25383
# Poissons Ratio (z) = 0.57544 0.57544
#
# Static dielectric constant tensor:
#      x y z
#    x 3.643490 0.000000 0.000000 
#    y 0.000000 3.643490 0.000000 
#    z 0.000000 0.000000 3.228220 
# 
# 
# High freq. dielectric constant tensor:
#      x y z
#    x 1.763620 0.000000 0.000000 
#    y 0.000000 1.763620 0.000000 
#    z 0.000000 0.000000 1.719710 
# 
# From -- ./inp_files/6464.got.cif
#   From: 2010.03.12/outbox.cif.g09.slc.cpg/sg124_4_cif.got.tgz:6464.got - 2010.04.06 16:38:57.
