data_PCOD8313438
_publ_section_title
;
Structure prediction by ZEFSAII (Michael W. Deem and Ramdas Pophale) SiO2 
 PCOD8313438
Probable space group: P 4/N B M
;
_chemical_formula_sum "Si O2"
_cell_formula_units_Z 64
_cell_length_a 21.810640
_cell_length_b 21.810640
_cell_length_c 6.697898
_cell_angle_alpha 90.000000
_cell_angle_beta 90.000000
_cell_angle_gamma 90.000000
_cell_volume 3186.216985
_symmetry_space_group_name_H-M "P 4/N B M"
_symmetry_group_IT_number 125
_space_group.IT_coordinate_system_code '2'
_symmetry_cell_setting 'tetragonal'
loop_
_space_group_symop_operation_xyz
x,y,z
1/2-y,x,z
1/2-x,1/2-y,z
y,1/2-x,z
x,1/2-y,-z
1/2-x,y,-z
y,x,-z
1/2-y,1/2-x,-z
-x,-y,-z
1/2+y,-x,-z
1/2+x,1/2+y,-z
-y,1/2+x,-z
-x,1/2+y,z
1/2+x,-y,z
-y,-x,z
1/2+y,1/2+x,z
loop_
_atom_site_type_symbol
_atom_site_label
_atom_site_fract_x
_atom_site_fract_y
_atom_site_fract_z
Si Si1 0.404363 0.689268 0.087318
Si Si2 0.084951 0.176954 0.962681
Si Si3 0.509277 0.812853 0.599794
Si Si4 0.481908 0.615737 0.785420
O O1 0.352406 0.647595 0.187840
O O2 0.453887 0.704567 0.254153
O O3 0.373344 0.750000 0.000000
O O4 0.432522 0.657663 0.893107
O O5 0.065555 0.162854 0.734542
O O6 0.076425 0.250000 0.000000
O O7 0.155474 0.155474 0.000000
O O8 0.046135 0.130734 0.105720
O O9 0.531338 0.750000 0.500000
O O10 0.489181 0.865532 0.446323
O O11 0.455278 0.544723 0.794566
#
# Coordination Sequence:
#
# PCOD8313438 Si02
#       4
#    16  16  16  16
#     4  10  19  31  51  80 115 155 200 249 304 362
#     4  11  24  42  63  91 125 162 203 254 309 368
#     4  11  18  37  62  84 113 154 204 250 300 365
#     4  10  20  37  62  90 118 154 198 251 309 363
#
# _framework density 20.086514000000001
#
# number of rings (size 3 to 8) (size 9 to 14) (size 15 to 20)
#    0.000    1.500    5.000    2.250    0.000    3.000 
#    0.000    1.250    0.000    0.000    0.000    0.000 
#    0.000    0.000    0.000    0.000    0.000    0.000 
#
# Total GULP energy -792876.887996 kJ/mol
# GULP energy per Si atom -12388.701375 kJ/mol
# Density = 2.004080 g / cm^3
# Si number density = 20.086514 Si / 1000 Ang^3
#
#
#
# Elastic Constant Matrix: (Units=GPa)
#
#
# Indices 1 2 3 4 5 6 
#
# 1 70.8947 53.3508 32.8944 0.0000 0.0000 0.0000
# 2 53.3508 70.8947 32.8944 0.0000 0.0000 0.0000
# 3 32.8944 32.8944 126.5071 0.0000 0.0000 0.0000
# 4 0.0000 0.0000 0.0000 15.4363 0.0000 0.0000
# 5 0.0000 0.0000 0.0000 0.0000 15.4363 0.0000
# 6 0.0000 0.0000 0.0000 0.0000 0.0000 28.3073
#
#
#
# Elastic Compliance Matrix: (Units=1/GPa)
#
#
# Indices 1 2 3 4 5 6 
#
# 1 0.033167 -0.023833 -0.002427 0.000000 0.000000 0.000000
# 2 -0.023833 0.033167 -0.002427 0.000000 0.000000 0.000000
# 3 -0.002427 -0.002427 0.009167 0.000000 0.000000 0.000000
# 4 0.000000 0.000000 0.000000 0.064782 0.000000 0.000000
# 5 0.000000 0.000000 0.000000 0.000000 0.064782 0.000000
# 6 0.000000 0.000000 0.000000 0.000000 0.000000 0.035327
#
#
# Mechanical properties :
#
#
# Convention : Reuss Voigt Hill
#
# Bulk Modulus (GPa) = 55.16826 56.28619 55.72722
# Shear Modulus (GPa) = 16.45777 21.77977 19.11877
#
# Velocity S-wave (km/s) = 2.86552 3.29644 3.08851
# Velocity P-wave (km/s) = 6.20268 6.52468 6.36572
#
# Compressibility (1/GPa) = 0.01812636
#
# Stress axis : x y z
#
# Youngs Moduli (GPa) = 30.15063 30.15063 109.08929
#
# Poissons Ratio (x) = 0.71858 0.26475
# Poissons Ratio (y) = 0.71858 0.26475
# Poissons Ratio (z) = 0.07317 0.07317
#
# Static dielectric constant tensor:
#      x y z
#    x 3.610450 0.000000 0.000000 
#    y 0.000000 3.610450 0.000000 
#    z 0.000000 0.000000 3.809060 
# 
# 
# High freq. dielectric constant tensor:
#      x y z
#    x 1.768290 0.000000 0.000000 
#    y 0.000000 1.768290 0.000000 
#    z 0.000000 0.000000 1.792950 
# 
# From -- ./inp_files/945.got.cif
#   From: 2010.03.12/outbox.cif.g09.slc.cpg/sg125_1_cif.got.tgz:945.got - 2010.04.06 16:47:52.
