data_PCOD8313927
_publ_section_title
;
Structure prediction by ZEFSAII (Michael W. Deem and Ramdas Pophale) SiO2 
 PCOD8313927
Probable space group: P 4/M B M
;
_chemical_formula_sum "Si O2"
_cell_formula_units_Z 96
_cell_length_a 24.953102
_cell_length_b 24.953102
_cell_length_c 9.067624
_cell_angle_alpha 90.000000
_cell_angle_beta 90.000000
_cell_angle_gamma 90.000000
_cell_volume 5646.022272
_symmetry_space_group_name_H-M "P 4/M B M"
_symmetry_group_IT_number 127
_symmetry_cell_setting 'tetragonal'
loop_
_space_group_symop_operation_xyz
x,y,z
-y,x,z
-x,-y,z
y,-x,z
1/2+x,1/2-y,-z
1/2-x,1/2+y,-z
1/2+y,1/2+x,-z
1/2-y,1/2-x,-z
-x,-y,-z
y,-x,-z
x,y,-z
-y,x,-z
1/2-x,1/2+y,z
1/2+x,1/2-y,z
1/2-y,1/2-x,z
1/2+y,1/2+x,z
loop_
_atom_site_type_symbol
_atom_site_label
_atom_site_fract_x
_atom_site_fract_y
_atom_site_fract_z
Si Si1 0.310617 0.606181 0.328362
Si Si2 0.615742 0.308957 0.174293
Si Si3 0.608343 0.197324 0.330437
Si Si4 0.687254 0.497716 0.836686
Si Si5 0.995529 0.685561 0.164726
Si Si6 0.813511 0.399850 0.329371
O O1 0.323168 0.613612 0.500000
O O2 0.340146 0.651013 0.235137
O O3 0.331600 0.547412 0.278626
O O4 0.248028 0.612760 0.290968
O O5 0.624590 0.251850 0.249787
O O6 0.556696 0.333538 0.210669
O O7 0.622676 0.301260 0.000000
O O8 0.594786 0.210152 0.500000
O O9 0.658156 0.158156 0.314930
O O10 0.556650 0.168684 0.257766
O O11 0.750826 0.501866 0.839148
O O12 0.666004 0.482270 0.000000
O O13 0.049613 0.663428 0.239431
O O14 0.990998 0.661751 0.000000
O O15 0.819356 0.414608 0.500000
O O16 0.847668 0.347668 0.286007
#
# Coordination Sequence:
#
# PCOD8313927 Si02
#       6
#    16  16  16  16  16  16
#     4  10  19  30  48  73  99 128 161 198 239 283
#     4  10  20  33  50  72  99 130 161 196 239 285
#     4  10  20  33  50  72  98 128 161 197 238 285
#     4   8  16  31  48  66  90 123 162 198 233 279
#     4   9  17  30  49  71  94 123 161 201 239 283
#     4   9  18  32  49  70  98 131 164 198 238 285
#
# _framework density 17.003121
#
# number of rings (size 3 to 8) (size 9 to 14) (size 15 to 20)
#    0.000    2.667    0.000    3.000    0.000    7.667 
#    0.000    1.667    0.000    1.000    0.000    7.000 
#    0.000    0.000    0.000    0.000    0.000    0.000 
#
# Total GULP energy -1190231.298869 kJ/mol
# GULP energy per Si atom -12398.242697 kJ/mol
# Density = 1.696442 g / cm^3
# Si number density = 17.003121 Si / 1000 Ang^3
#
#
#
# Elastic Constant Matrix: (Units=GPa)
#
#
# Indices 1 2 3 4 5 6 
#
# 1 82.3795 46.2244 58.0463 0.0000 0.0000 0.0000
# 2 46.2244 82.3795 58.0463 0.0000 0.0000 0.0000
# 3 58.0463 58.0463 120.7744 0.0000 0.0000 0.0000
# 4 0.0000 0.0000 0.0000 27.9762 0.0000 0.0000
# 5 0.0000 0.0000 0.0000 0.0000 27.9762 0.0000
# 6 0.0000 0.0000 0.0000 0.0000 0.0000 -0.1586
#
#
#
# Elastic Compliance Matrix: (Units=1/GPa)
#
#
# Indices 1 2 3 4 5 6 
#
# 1 0.020697 -0.006962 -0.006601 0.000000 0.000000 0.000000
# 2 -0.006962 0.020697 -0.006601 0.000000 0.000000 0.000000
# 3 -0.006601 -0.006601 0.014625 0.000000 0.000000 0.000000
# 4 0.000000 0.000000 0.000000 0.035745 0.000000 0.000000
# 5 0.000000 0.000000 0.000000 0.000000 0.035745 0.000000
# 6 0.000000 0.000000 0.000000 0.000000 0.000000 -6.303799
#
#
# Mechanical properties :
#
#
# Convention : Reuss Voigt Hill
#
# Bulk Modulus (GPa) = 63.73466 67.79637 65.76551
# Shear Modulus (GPa) = -0.81556 19.37317 9.27881
#
# Velocity S-wave (km/s) = -0.69332 3.37915 2.33858
# Velocity P-wave (km/s) = 6.07656 7.42861 6.78634
#
# Compressibility (1/GPa) = 0.01569005
#
# Stress axis : x y z
#
# Youngs Moduli (GPa) = 48.31688 48.31688 68.37524
#
# Poissons Ratio (x) = 0.33638 0.45136
# Poissons Ratio (y) = 0.33638 0.45136
# Poissons Ratio (z) = 0.31895 0.31895
#
# Static dielectric constant tensor:
#      x y z
#    x 3.145360 0.000000 0.000000 
#    y 0.000000 3.145360 0.000000 
#    z 0.000000 0.000000 3.400400 
# 
# 
# High freq. dielectric constant tensor:
#      x y z
#    x 1.637840 0.000000 0.000000 
#    y 0.000000 1.637840 0.000000 
#    z 0.000000 0.000000 1.670990 
# 
# From -- ./inp_files/1927.got.cif
#   From: 2010.03.12/outbox.cif.g09.slc.cpg/sg127_1_cif.got.tgz:1927.got - 2010.04.06 17:03:15.
