data_PCOD8313603
_publ_section_title
;
Structure prediction by ZEFSAII (Michael W. Deem and Ramdas Pophale) SiO2 
 PCOD8313603
Probable space group: P 4/N B M
;
_chemical_formula_sum "Si O2"
_cell_formula_units_Z 88
_cell_length_a 12.769005
_cell_length_b 12.769005
_cell_length_c 27.484072
_cell_angle_alpha 90.000000
_cell_angle_beta 90.000000
_cell_angle_gamma 90.000000
_cell_volume 4481.208919
_symmetry_space_group_name_H-M "P 4/N B M"
_symmetry_group_IT_number 125
_space_group.IT_coordinate_system_code '2'
_symmetry_cell_setting 'tetragonal'
loop_
_space_group_symop_operation_xyz
x,y,z
1/2-y,x,z
1/2-x,1/2-y,z
y,1/2-x,z
x,1/2-y,-z
1/2-x,y,-z
y,x,-z
1/2-y,1/2-x,-z
-x,-y,-z
1/2+y,-x,-z
1/2+x,1/2+y,-z
-y,1/2+x,-z
-x,1/2+y,z
1/2+x,-y,z
-y,-x,z
1/2+y,1/2+x,z
loop_
_atom_site_type_symbol
_atom_site_label
_atom_site_fract_x
_atom_site_fract_y
_atom_site_fract_z
Si Si1 0.750000 0.423039 0.000000
Si Si2 0.153393 0.014378 0.527709
Si Si3 0.751174 0.078855 0.178790
Si Si4 0.078643 0.279097 0.737517
Si Si5 0.415640 0.292277 0.370466
Si Si6 0.737509 0.924167 0.090090
O O1 0.770961 0.496110 0.045823
O O2 0.851421 0.351421 0.990264
O O3 0.250000 0.963456 0.500000
O O4 0.125528 0.125528 0.500000
O O5 0.180309 0.009907 0.584987
O O6 0.055264 0.944737 0.518500
O O7 0.843921 0.156080 0.161317
O O8 0.645433 0.145433 0.188254
O O9 0.789107 0.020526 0.227417
O O10 0.729477 0.990531 0.139021
O O11 0.131654 0.165852 0.746360
O O12 0.032459 0.297314 0.683121
O O13 0.324160 0.375338 0.375841
O O14 0.639336 0.845798 0.087972
#
# Coordination Sequence:
#
# PCOD8313603 Si02
#       6
#     8  16  16  16  16  16
#     4  11  24  41  62  92 128 163 200 243 294 360
#     4  11  22  35  55  83 112 147 190 232 282 344
#     4  11  24  40  58  84 118 158 201 241 291 355
#     4   9  19  36  59  88 115 142 187 240 290 343
#     4   9  17  33  58  84 108 140 184 237 285 330
#     4  11  24  41  63  91 121 155 201 253 301 351
#
# _framework density 19.637559
#
# number of rings (size 3 to 8) (size 9 to 14) (size 15 to 20)
#    0.000    1.727    1.818    3.818    0.000   10.545 
#    0.000    3.636    0.000    0.000    0.000    0.000 
#    0.000    0.000    0.000    0.000    0.000    0.000 
#
# Total GULP energy -1090659.412125 kJ/mol
# GULP energy per Si atom -12393.856956 kJ/mol
# Density = 1.959286 g / cm^3
# Si number density = 19.637559 Si / 1000 Ang^3
#
#
#
# Elastic Constant Matrix: (Units=GPa)
#
#
# Indices 1 2 3 4 5 6 
#
# 1 82.9289 27.6112 38.5212 0.0000 0.0000 0.0000
# 2 27.6112 82.9289 38.5212 0.0000 0.0000 0.0000
# 3 38.5212 38.5212 124.2073 0.0000 0.0000 0.0000
# 4 0.0000 0.0000 0.0000 22.8226 0.0000 0.0000
# 5 0.0000 0.0000 0.0000 0.0000 22.8226 0.0000
# 6 0.0000 0.0000 0.0000 0.0000 0.0000 29.6798
#
#
#
# Elastic Compliance Matrix: (Units=1/GPa)
#
#
# Indices 1 2 3 4 5 6 
#
# 1 0.014809 -0.003268 -0.003579 0.000000 0.000000 0.000000
# 2 -0.003268 0.014809 -0.003579 0.000000 0.000000 0.000000
# 3 -0.003579 -0.003579 0.010271 0.000000 0.000000 0.000000
# 4 0.000000 0.000000 0.000000 0.043816 0.000000 0.000000
# 5 0.000000 0.000000 0.000000 0.000000 0.043816 0.000000
# 6 0.000000 0.000000 0.000000 0.000000 0.000000 0.033693
#
#
# Mechanical properties :
#
#
# Convention : Reuss Voigt Hill
#
# Bulk Modulus (GPa) = 52.53151 55.48583 54.00867
# Shear Modulus (GPa) = 26.53726 27.42574 26.98150
#
# Velocity S-wave (km/s) = 3.68006 3.74116 3.71074
# Velocity P-wave (km/s) = 6.69819 6.85405 6.77657
#
# Compressibility (1/GPa) = 0.01903619
#
# Stress axis : x y z
#
# Youngs Moduli (GPa) = 67.52521 67.52521 97.35944
#
# Poissons Ratio (x) = 0.22068 0.34848
# Poissons Ratio (y) = 0.22068 0.34848
# Poissons Ratio (z) = 0.24170 0.24170
#
# Static dielectric constant tensor:
#      x y z
#    x 3.480030 0.000000 0.000000 
#    y 0.000000 3.480030 0.000000 
#    z 0.000000 0.000000 4.088030 
# 
# 
# High freq. dielectric constant tensor:
#      x y z
#    x 1.757020 0.000000 0.000000 
#    y 0.000000 1.757020 0.000000 
#    z 0.000000 0.000000 1.784090 
# 
# From -- ./inp_files/6530.got.cif
#   From: 2010.03.12/outbox.cif.g09.slc.cpg/sg125_4_cif.got.tgz:6530.got - 2010.04.06 16:47:52.
