data_PCOD8313635
_publ_section_title
;
Structure prediction by ZEFSAII (Michael W. Deem and Ramdas Pophale) SiO2 
 PCOD8313635
Probable space group: P 4/N B M
;
_chemical_formula_sum "Si O2"
_cell_formula_units_Z 96
_cell_length_a 24.162492
_cell_length_b 24.162492
_cell_length_c 9.809871
_cell_angle_alpha 90.000000
_cell_angle_beta 90.000000
_cell_angle_gamma 90.000000
_cell_volume 5727.257939
_symmetry_space_group_name_H-M "P 4/N B M"
_symmetry_group_IT_number 125
_space_group.IT_coordinate_system_code '2'
_symmetry_cell_setting 'tetragonal'
loop_
_space_group_symop_operation_xyz
x,y,z
1/2-y,x,z
1/2-x,1/2-y,z
y,1/2-x,z
x,1/2-y,-z
1/2-x,y,-z
y,x,-z
1/2-y,1/2-x,-z
-x,-y,-z
1/2+y,-x,-z
1/2+x,1/2+y,-z
-y,1/2+x,-z
-x,1/2+y,z
1/2+x,-y,z
-y,-x,z
1/2+y,1/2+x,z
loop_
_atom_site_type_symbol
_atom_site_label
_atom_site_fract_x
_atom_site_fract_y
_atom_site_fract_z
Si Si1 0.525438 0.384580 0.659010
Si Si2 0.025458 0.884564 0.658922
Si Si3 0.097946 0.813045 0.845093
Si Si4 0.400916 0.400896 0.338414
Si Si5 0.187624 0.312386 0.337915
Si Si6 0.686936 0.402076 0.845162
O O1 0.557656 0.442345 0.687548
O O2 0.528540 0.369478 0.500050
O O3 0.462692 0.387934 0.711790
O O4 0.551304 0.334678 0.743492
O O5 0.057666 0.942335 0.687459
O O6 0.051354 0.834664 0.743350
O O7 0.962716 0.887897 0.711743
O O8 0.155051 0.844950 0.820390
O O9 0.110395 0.749986 0.809950
O O10 0.076779 0.820856 0.999954
O O11 0.398918 0.398918 0.500000
O O12 0.356637 0.356616 0.277385
O O13 0.172321 0.250006 0.288519
O O14 0.185714 0.314287 0.500000
O O15 0.655012 0.344989 0.820403
#
# Coordination Sequence:
#
# PCOD8313635 Si02
#       6
#    16  16  16  16  16  16
#     4   9  17  29  45  66  92 118 145 182 225 265
#     4   9  17  29  45  66  92 118 145 182 225 265
#     4   9  18  32  48  66  90 120 153 189 228 269
#     4   9  16  26  43  65  87 116 151 179 211 265
#     4   8  14  24  36  53  81 112 140 175 215 250
#     4   9  18  32  48  66  90 120 153 189 228 269
#
# _framework density 16.761946999999999
#
# number of rings (size 3 to 8) (size 9 to 14) (size 15 to 20)
#    0.000    3.167    0.000    1.000    0.000    4.333 
#    0.000    5.833    0.000    4.000    0.000    4.667 
#    0.000    0.000    0.000    7.333    0.000    6.000 
#
# Total GULP energy -1190029.401249 kJ/mol
# GULP energy per Si atom -12396.139596 kJ/mol
# Density = 1.672380 g / cm^3
# Si number density = 16.761947 Si / 1000 Ang^3
#
#
#
# Elastic Constant Matrix: (Units=GPa)
#
#
# Indices 1 2 3 4 5 6 
#
# 1 132.3428 91.5001 43.9740 0.0000 0.0000 0.0000
# 2 91.5001 132.3430 43.9740 0.0000 0.0000 0.0000
# 3 43.9740 43.9740 41.8853 0.0000 0.0000 0.0000
# 4 0.0000 0.0000 0.0000 17.8353 0.0000 0.0000
# 5 0.0000 0.0000 0.0000 0.0000 17.8353 0.0000
# 6 0.0000 0.0000 0.0000 0.0000 0.0000 20.5521
#
#
#
# Elastic Compliance Matrix: (Units=1/GPa)
#
#
# Indices 1 2 3 4 5 6 
#
# 1 0.016044 -0.008440 -0.007983 0.000000 0.000000 0.000000
# 2 -0.008440 0.016044 -0.007983 0.000000 0.000000 0.000000
# 3 -0.007983 -0.007983 0.040637 0.000000 0.000000 0.000000
# 4 0.000000 0.000000 0.000000 0.056068 0.000000 0.000000
# 5 0.000000 0.000000 0.000000 0.000000 0.056068 0.000000
# 6 0.000000 0.000000 0.000000 0.000000 0.000000 0.048657
#
#
# Mechanical properties :
#
#
# Convention : Reuss Voigt Hill
#
# Bulk Modulus (GPa) = 41.81905 73.94081 57.87993
# Shear Modulus (GPa) = 17.22338 19.71942 18.47140
#
# Velocity S-wave (km/s) = 3.20899 3.43365 3.32322
# Velocity P-wave (km/s) = 6.22359 7.74132 7.02357
#
# Compressibility (1/GPa) = 0.02391255
#
# Stress axis : x y z
#
# Youngs Moduli (GPa) = 62.32834 62.32838 24.60787
#
# Poissons Ratio (x) = 0.52605 0.19645
# Poissons Ratio (y) = 0.52605 0.19645
# Poissons Ratio (z) = 0.49758 0.49758
#
# Static dielectric constant tensor:
#      x y z
#    x 3.294340 0.000000 0.000000 
#    y 0.000000 3.294330 0.000000 
#    z 0.000000 0.000000 2.850530 
# 
# 
# High freq. dielectric constant tensor:
#      x y z
#    x 1.649010 0.000000 0.000000 
#    y 0.000000 1.649010 0.000000 
#    z 0.000000 0.000000 1.607710 
# 
# From -- ./inp_files/2845.got.cif
#   From: 2010.03.12/outbox.cif.g09.slc.cpg/sg125_2_cif.got.tgz:2845.got - 2010.04.06 16:47:52.
