data_PCOD8313418
_publ_section_title
;
Structure prediction by ZEFSAII (Michael W. Deem and Ramdas Pophale) SiO2 
 PCOD8313418
Probable space group: P 4/N B M
;
_chemical_formula_sum "Si O2"
_cell_formula_units_Z 88
_cell_length_a 15.119568
_cell_length_b 15.119568
_cell_length_c 20.997469
_cell_angle_alpha 90.000000
_cell_angle_beta 90.000000
_cell_angle_gamma 90.000000
_cell_volume 4800.049477
_symmetry_space_group_name_H-M "P 4/N B M"
_symmetry_group_IT_number 125
_space_group.IT_coordinate_system_code '2'
_symmetry_cell_setting 'tetragonal'
loop_
_space_group_symop_operation_xyz
x,y,z
1/2-y,x,z
1/2-x,1/2-y,z
y,1/2-x,z
x,1/2-y,-z
1/2-x,y,-z
y,x,-z
1/2-y,1/2-x,-z
-x,-y,-z
1/2+y,-x,-z
1/2+x,1/2+y,-z
-y,1/2+x,-z
-x,1/2+y,z
1/2+x,-y,z
-y,-x,z
1/2+y,1/2+x,z
loop_
_atom_site_type_symbol
_atom_site_label
_atom_site_fract_x
_atom_site_fract_y
_atom_site_fract_z
Si Si1 0.201907 0.113365 0.642489
Si Si2 0.298051 0.114207 0.211696
Si Si3 0.798191 0.445284 0.865721
Si Si4 0.707189 0.442029 0.431958
Si Si5 0.175454 0.675454 0.792838
Si Si6 0.823919 0.176082 0.650523
Si Si7 0.250000 0.893801 0.000000
O O1 0.303364 0.139163 0.628386
O O2 0.191057 0.082391 0.715504
O O3 0.171299 0.034108 0.596439
O O4 0.360888 0.196861 0.198229
O O5 0.327890 0.038514 0.162979
O O6 0.878502 0.378502 0.855997
O O7 0.711660 0.411133 0.828332
O O8 0.775202 0.455525 0.940392
O O9 0.750000 0.458809 0.500000
O O10 0.627199 0.372801 0.437269
O O11 0.785070 0.408261 0.385877
O O12 0.250000 0.750000 0.793472
O O13 0.147673 0.647673 0.721441
O O14 0.750000 0.250000 0.654169
O O15 0.331820 0.831820 0.979460
#
# Coordination Sequence:
#
# PCOD8313418 Si02
#       7
#    16  16  16  16   8   8   8
#     4   9  20  40  61  79 104 143 187 232 281 328
#     4   9  19  38  59  77 106 146 184 227 283 335
#     4  10  18  31  54  82 112 140 181 226 273 320
#     4  11  21  36  56  80 112 147 180 217 273 335
#     4   9  16  28  48  80 104 132 176 225 271 315
#     4   9  18  30  50  73 107 142 174 214 270 325
#     4   9  16  30  50  77 114 156 180 213 270 336
#
# _framework density 18.333144000000001
#
# number of rings (size 3 to 8) (size 9 to 14) (size 15 to 20)
#    0.000    2.455    1.818    2.182    0.000    2.909 
#    3.273    2.727    0.000    3.273    0.000    0.000 
#    0.000    0.000    0.000    0.000    0.000    0.000 
#
# Total GULP energy -1091250.080094 kJ/mol
# GULP energy per Si atom -12400.569092 kJ/mol
# Density = 1.829142 g / cm^3
# Si number density = 18.333144 Si / 1000 Ang^3
#
#
#
# Elastic Constant Matrix: (Units=GPa)
#
#
# Indices 1 2 3 4 5 6 
#
# 1 69.6229 5.7994 41.9033 0.0000 0.0000 0.0000
# 2 5.7994 69.6229 41.9033 0.0000 0.0000 0.0000
# 3 41.9033 41.9033 123.3455 0.0000 0.0000 0.0000
# 4 0.0000 0.0000 0.0000 25.6349 0.0000 0.0000
# 5 0.0000 0.0000 0.0000 0.0000 25.6349 0.0000
# 6 0.0000 0.0000 0.0000 0.0000 0.0000 10.7992
#
#
#
# Elastic Compliance Matrix: (Units=1/GPa)
#
#
# Indices 1 2 3 4 5 6 
#
# 1 0.018483 0.002815 -0.007236 0.000000 0.000000 0.000000
# 2 0.002815 0.018483 -0.007236 0.000000 0.000000 0.000000
# 3 -0.007236 -0.007236 0.013024 0.000000 0.000000 0.000000
# 4 0.000000 0.000000 0.000000 0.039009 0.000000 0.000000
# 5 0.000000 0.000000 0.000000 0.000000 0.039009 0.000000
# 6 0.000000 0.000000 0.000000 0.000000 0.000000 0.092600
#
#
# Mechanical properties :
#
#
# Convention : Reuss Voigt Hill
#
# Bulk Modulus (GPa) = 37.48369 49.08928 43.28648
# Shear Modulus (GPa) = 19.77741 23.94613 21.86177
#
# Velocity S-wave (km/s) = 3.28804 3.61801 3.45697
# Velocity P-wave (km/s) = 5.90806 6.65490 6.29257
#
# Compressibility (1/GPa) = 0.02667827
#
# Stress axis : x y z
#
# Youngs Moduli (GPa) = 54.10248 54.10248 76.78396
#
# Poissons Ratio (x) = -0.15231 0.55558
# Poissons Ratio (y) = -0.15231 0.55558
# Poissons Ratio (z) = 0.39147 0.39147
#
# Static dielectric constant tensor:
#      x y z
#    x 3.149040 0.000000 0.000000 
#    y 0.000000 3.149040 0.000000 
#    z 0.000000 0.000000 3.460390 
# 
# 
# High freq. dielectric constant tensor:
#      x y z
#    x 1.692540 0.000000 0.000000 
#    y 0.000000 1.692540 0.000000 
#    z 0.000000 0.000000 1.718350 
# 
# From -- ./inp_files/5873.got.cif
#   From: 2010.03.12/outbox.cif.g09.slc.cpg/sg125_3_cif.got.tgz:5873.got - 2010.04.06 16:47:52.
