data_PCOD8313484
_publ_section_title
;
Structure prediction by ZEFSAII (Michael W. Deem and Ramdas Pophale) SiO2 
 PCOD8313484
Probable space group: P 4/N B M
;
_chemical_formula_sum "Si O2"
_cell_formula_units_Z 64
_cell_length_a 13.286461
_cell_length_b 13.286461
_cell_length_c 18.614738
_cell_angle_alpha 90.000000
_cell_angle_beta 90.000000
_cell_angle_gamma 90.000000
_cell_volume 3286.060554
_symmetry_space_group_name_H-M "P 4/N B M"
_symmetry_group_IT_number 125
_space_group.IT_coordinate_system_code '2'
_symmetry_cell_setting 'tetragonal'
loop_
_space_group_symop_operation_xyz
x,y,z
1/2-y,x,z
1/2-x,1/2-y,z
y,1/2-x,z
x,1/2-y,-z
1/2-x,y,-z
y,x,-z
1/2-y,1/2-x,-z
-x,-y,-z
1/2+y,-x,-z
1/2+x,1/2+y,-z
-y,1/2+x,-z
-x,1/2+y,z
1/2+x,-y,z
-y,-x,z
1/2+y,1/2+x,z
loop_
_atom_site_type_symbol
_atom_site_label
_atom_site_fract_x
_atom_site_fract_y
_atom_site_fract_z
Si Si1 0.849786 0.990846 0.544941
Si Si2 0.032722 0.133207 0.702747
Si Si3 0.493315 0.825401 0.218352
Si Si4 0.586595 0.254397 0.921059
O O1 0.750000 0.007767 0.500000
O O2 0.921320 0.921320 0.500000
O O3 0.833681 0.935703 0.622051
O O4 0.899699 0.100302 0.556872
O O5 0.972269 0.226635 0.735030
O O6 0.126172 0.099221 0.754452
O O7 0.962730 0.037271 0.697287
O O8 0.496715 0.784627 0.136072
O O9 0.400708 0.900708 0.230111
O O10 0.633409 0.366592 0.903761
O O11 0.679647 0.179647 0.921404
O O12 0.535073 0.250000 0.000000
#
# Coordination Sequence:
#
# PCOD8313484 Si02
#       4
#    16  16  16  16
#     4  10  21  37  55  76 104 136 172 217 265 315
#     4  10  21  35  54  79 103 135 177 214 261 321
#     4  10  20  35  53  76 109 141 173 219 265 308
#     4   8  14  27  50  78 106 140 181 220 259 306
#
# _framework density 19.476209000000001
#
# number of rings (size 3 to 8) (size 9 to 14) (size 15 to 20)
#    0.000    2.500    0.000    3.000    0.000    5.500 
#    0.000    6.250    0.000    6.000    0.000    1.750 
#    0.000    0.000    0.000    0.000    0.000    0.000 
#
# Total GULP energy -792888.779109 kJ/mol
# GULP energy per Si atom -12388.887174 kJ/mol
# Density = 1.943188 g / cm^3
# Si number density = 19.476209 Si / 1000 Ang^3
#
#
#
# Elastic Constant Matrix: (Units=GPa)
#
#
# Indices 1 2 3 4 5 6 
#
# 1 66.4623 18.5453 58.3336 0.0000 0.0000 0.0000
# 2 18.5453 66.4623 58.3336 0.0000 0.0000 0.0000
# 3 58.3336 58.3336 191.3232 0.0000 0.0000 0.0000
# 4 0.0000 0.0000 0.0000 21.1803 0.0000 0.0000
# 5 0.0000 0.0000 0.0000 0.0000 21.1803 0.0000
# 6 0.0000 0.0000 0.0000 0.0000 0.0000 7.9746
#
#
#
# Elastic Compliance Matrix: (Units=1/GPa)
#
#
# Indices 1 2 3 4 5 6 
#
# 1 0.020549 -0.000321 -0.006167 0.000000 0.000000 0.000000
# 2 -0.000321 0.020549 -0.006167 0.000000 0.000000 0.000000
# 3 -0.006167 -0.006167 0.008988 0.000000 0.000000 0.000000
# 4 0.000000 0.000000 0.000000 0.047214 0.000000 0.000000
# 5 0.000000 0.000000 0.000000 0.000000 0.047214 0.000000
# 6 0.000000 0.000000 0.000000 0.000000 0.000000 0.125398
#
#
# Mechanical properties :
#
#
# Convention : Reuss Voigt Hill
#
# Bulk Modulus (GPa) = 40.36493 66.07476 53.21985
# Shear Modulus (GPa) = 16.47559 22.66940 19.57249
#
# Velocity S-wave (km/s) = 2.91165 3.41538 3.17352
# Velocity P-wave (km/s) = 5.66338 7.03936 6.38852
#
# Compressibility (1/GPa) = 0.02477398
#
# Stress axis : x y z
#
# Youngs Moduli (GPa) = 48.66472 48.66472 111.26405
#
# Poissons Ratio (x) = 0.01560 0.68622
# Poissons Ratio (y) = 0.01560 0.68622
# Poissons Ratio (z) = 0.30014 0.30014
#
# Static dielectric constant tensor:
#      x y z
#    x 3.323860 0.000000 0.000000 
#    y 0.000000 3.323860 0.000000 
#    z 0.000000 0.000000 8.293100 
# 
# 
# High freq. dielectric constant tensor:
#      x y z
#    x 1.732980 0.000000 0.000000 
#    y 0.000000 1.732980 0.000000 
#    z 0.000000 0.000000 1.778810 
# 
# From -- ./inp_files/4631.got.cif
#   From: 2010.03.12/outbox.cif.g09.slc.cpg/sg125_3_cif.got.tgz:4631.got - 2010.04.06 16:47:52.
