data_PCOD8313215
_publ_section_title
;
Structure prediction by ZEFSAII (Michael W. Deem and Ramdas Pophale) SiO2 
 PCOD8313215
Probable space group: P 4/M C C
;
_chemical_formula_sum "Si O2"
_cell_formula_units_Z 64
_cell_length_a 19.714354
_cell_length_b 19.714354
_cell_length_c 8.649056
_cell_angle_alpha 90.000000
_cell_angle_beta 90.000000
_cell_angle_gamma 90.000000
_cell_volume 3361.505378
_symmetry_space_group_name_H-M "P 4/M C C"
_symmetry_group_IT_number 124
_symmetry_cell_setting 'tetragonal'
loop_
_space_group_symop_operation_xyz
x,y,z
-y,x,z
-x,-y,z
y,-x,z
x,-y,1/2-z
-x,y,1/2-z
y,x,1/2-z
-y,-x,1/2-z
-x,-y,-z
y,-x,-z
x,y,-z
-y,x,-z
-x,y,1/2+z
x,-y,1/2+z
-y,-x,1/2+z
y,x,1/2+z
loop_
_atom_site_type_symbol
_atom_site_label
_atom_site_fract_x
_atom_site_fract_y
_atom_site_fract_z
Si Si1 0.308550 0.933836 0.318531
Si Si2 0.066252 0.163244 0.821384
Si Si3 0.425836 0.675365 0.183264
Si Si4 0.778790 0.678476 0.318306
O O1 0.294562 0.944296 0.500000
O O2 0.241586 0.935623 0.217156
O O3 0.338181 0.858573 0.288511
O O4 0.351064 0.000000 0.250000
O O5 0.134516 0.134516 0.750000
O O6 0.000000 0.126558 0.750000
O O7 0.066836 0.149491 0.000000
O O8 0.500000 0.684848 0.250000
O O9 0.393541 0.606460 0.250000
O O10 0.382134 0.739861 0.234970
O O11 0.428286 0.671047 0.000000
O O12 0.750739 0.750739 0.250000
O O13 0.762674 0.678661 0.500000
#
# Coordination Sequence:
#
# PCOD8313215 Si02
#       4
#    16  16  16  16
#     4  10  20  33  51  75 103 135 174 221 273 325
#     4  11  21  33  47  64  88 119 159 205 259 319
#     4  11  22  38  60  87 119 153 188 224 265 314
#     4  10  20  34  54  81 110 144 185 228 275 327
#
# _framework density 19.039089000000001
#
# number of rings (size 3 to 8) (size 9 to 14) (size 15 to 20)
#    0.000    1.500    0.000    9.750    0.000    6.500 
#    0.000    2.500    0.000    0.750    0.000    5.250 
#    0.000    0.000    0.000    0.000    0.000    0.000 
#
# Total GULP energy -793028.814701 kJ/mol
# GULP energy per Si atom -12391.075230 kJ/mol
# Density = 1.899575 g / cm^3
# Si number density = 19.039089 Si / 1000 Ang^3
#
#
#
# Elastic Constant Matrix: (Units=GPa)
#
#
# Indices 1 2 3 4 5 6 
#
# 1 104.3930 27.7189 45.0113 0.0000 0.0000 0.0000
# 2 27.7189 104.3967 45.0119 0.0000 0.0000 0.0000
# 3 45.0113 45.0119 175.6947 0.0000 0.0000 0.0000
# 4 0.0000 0.0000 0.0000 44.8588 0.0000 0.0000
# 5 0.0000 0.0000 0.0000 0.0000 44.8589 0.0000
# 6 0.0000 0.0000 0.0000 0.0000 0.0000 12.7746
#
#
#
# Elastic Compliance Matrix: (Units=1/GPa)
#
#
# Indices 1 2 3 4 5 6 
#
# 1 0.011106 -0.001936 -0.002349 0.000000 0.000000 0.000000
# 2 -0.001936 0.011106 -0.002349 0.000000 0.000000 0.000000
# 3 -0.002349 -0.002349 0.006895 0.000000 0.000000 0.000000
# 4 0.000000 0.000000 0.000000 0.022292 0.000000 0.000000
# 5 0.000000 0.000000 0.000000 0.000000 0.022292 0.000000
# 6 0.000000 0.000000 0.000000 0.000000 0.000000 0.078280
#
#
# Mechanical properties :
#
#
# Convention : Reuss Voigt Hill
#
# Bulk Modulus (GPa) = 63.13782 68.88541 66.01162
# Shear Modulus (GPa) = 29.32198 38.28129 33.80164
#
# Velocity S-wave (km/s) = 3.92866 4.48891 4.21810
# Velocity P-wave (km/s) = 7.33576 7.94523 7.64657
#
# Compressibility (1/GPa) = 0.01583837
#
# Stress axis : x y z
#
# Youngs Moduli (GPa) = 90.03989 90.04326 145.02350
#
# Poissons Ratio (x) = 0.17432 0.34071
# Poissons Ratio (y) = 0.17431 0.34070
# Poissons Ratio (z) = 0.21153 0.21154
#
# Static dielectric constant tensor:
#      x y z
#    x 3.148450 0.000000 0.000000 
#    y 0.000000 3.142580 0.000000 
#    z 0.000000 0.000000 -85.425720 
# 
# 
# High freq. dielectric constant tensor:
#      x y z
#    x 1.725690 0.000000 0.000000 
#    y 0.000000 1.725690 0.000000 
#    z 0.000000 0.000000 1.764510 
# 
# From -- ./inp_files/883.got.cif
#   From: 2010.03.12/outbox.cif.g09.slc.cpg/sg124_1_cif.got.tgz:883.got - 2010.04.06 16:38:57.
