data_PCOD8313921
_publ_section_title
;
Structure prediction by ZEFSAII (Michael W. Deem and Ramdas Pophale) SiO2 
 PCOD8313921
Probable space group: P 4/M B M
;
_chemical_formula_sum "Si O2"
_cell_formula_units_Z 72
_cell_length_a 21.523114
_cell_length_b 21.523114
_cell_length_c 9.216715
_cell_angle_alpha 90.000000
_cell_angle_beta 90.000000
_cell_angle_gamma 90.000000
_cell_volume 4269.591944
_symmetry_space_group_name_H-M "P 4/M B M"
_symmetry_group_IT_number 127
_symmetry_cell_setting 'tetragonal'
loop_
_space_group_symop_operation_xyz
x,y,z
-y,x,z
-x,-y,z
y,-x,z
1/2+x,1/2-y,-z
1/2-x,1/2+y,-z
1/2+y,1/2+x,-z
1/2-y,1/2-x,-z
-x,-y,-z
y,-x,-z
x,y,-z
-y,x,-z
1/2-x,1/2+y,z
1/2+x,1/2-y,z
1/2-y,1/2-x,z
1/2+y,1/2+x,z
loop_
_atom_site_type_symbol
_atom_site_label
_atom_site_fract_x
_atom_site_fract_y
_atom_site_fract_z
Si Si1 0.657800 0.255328 0.161782
Si Si2 0.549249 0.049249 0.670974
Si Si3 0.369530 0.373956 0.672792
Si Si4 0.189950 0.448386 0.670711
Si Si5 0.504259 0.682692 0.330176
O O1 0.725277 0.225277 0.150738
O O2 0.668481 0.317181 0.254984
O O3 0.612766 0.206880 0.241305
O O4 0.632018 0.269974 0.000000
O O5 0.544139 0.044139 0.500000
O O6 0.531092 0.120123 0.717773
O O7 0.500000 0.000000 0.741024
O O8 0.365202 0.367982 0.500000
O O9 0.434766 0.349378 0.737469
O O10 0.355416 0.444302 0.726008
O O11 0.191585 0.432260 0.500000
O O12 0.243325 0.499943 0.707236
O O13 0.508628 0.673451 0.500000
#
# Coordination Sequence:
#
# PCOD8313921 Si02
#       5
#    16   8  16  16  16
#     4  10  19  30  46  68  91 116 155 201 238 273
#     4   9  16  26  45  73  99 125 157 191 231 280
#     4   9  17  30  47  68  94 122 155 191 235 285
#     4   9  16  29  49  70  94 123 155 191 234 280
#     4   8  15  27  45  69  93 119 153 193 231 276
#
# _framework density 16.863437999999999
#
# number of rings (size 3 to 8) (size 9 to 14) (size 15 to 20)
#    0.000    3.000    1.111    2.000    0.000    1.778 
#    0.000    7.778    0.000    5.333    0.000    6.222 
#    0.000    0.000    0.000    0.000    0.000    0.000 
#
# Total GULP energy -892009.715943 kJ/mol
# GULP energy per Si atom -12389.023833 kJ/mol
# Density = 1.682506 g / cm^3
# Si number density = 16.863438 Si / 1000 Ang^3
#
#
#
# Elastic Constant Matrix: (Units=GPa)
#
#
# Indices 1 2 3 4 5 6 
#
# 1 122.7538 82.2942 24.1975 0.0000 0.0000 0.0000
# 2 82.2942 122.7538 24.1975 0.0000 0.0000 0.0000
# 3 24.1975 24.1975 40.8976 0.0000 0.0000 0.0000
# 4 0.0000 0.0000 0.0000 8.8369 0.0000 0.0000
# 5 0.0000 0.0000 0.0000 0.0000 8.8369 0.0000
# 6 0.0000 0.0000 0.0000 0.0000 0.0000 28.4849
#
#
#
# Elastic Compliance Matrix: (Units=1/GPa)
#
#
# Indices 1 2 3 4 5 6 
#
# 1 0.015192 -0.009524 -0.003354 0.000000 0.000000 0.000000
# 2 -0.009524 0.015192 -0.003354 0.000000 0.000000 0.000000
# 3 -0.003354 -0.003354 0.028420 0.000000 0.000000 0.000000
# 4 0.000000 0.000000 0.000000 0.113162 0.000000 0.000000
# 5 0.000000 0.000000 0.000000 0.000000 0.113162 0.000000
# 6 0.000000 0.000000 0.000000 0.000000 0.000000 0.035106
#
#
# Mechanical properties :
#
#
# Convention : Reuss Voigt Hill
#
# Bulk Modulus (GPa) = 37.96269 60.86483 49.41376
# Shear Modulus (GPa) = 13.83206 19.61278 16.72242
#
# Velocity S-wave (km/s) = 2.86709 3.41403 3.15244
# Velocity P-wave (km/s) = 5.78973 7.19110 6.52813
#
# Compressibility (1/GPa) = 0.02634165
#
# Stress axis : x y z
#
# Youngs Moduli (GPa) = 65.82310 65.82310 35.18653
#
# Poissons Ratio (x) = 0.62688 0.11801
# Poissons Ratio (y) = 0.62688 0.11801
# Poissons Ratio (z) = 0.22076 0.22076
#
# Static dielectric constant tensor:
#      x y z
#    x 3.388310 0.000000 0.000000 
#    y 0.000000 3.388310 0.000000 
#    z 0.000000 0.000000 2.894210 
# 
# 
# High freq. dielectric constant tensor:
#      x y z
#    x 1.643130 0.000000 0.000000 
#    y 0.000000 1.643130 0.000000 
#    z 0.000000 0.000000 1.618690 
# 
# From -- ./inp_files/1600.got.cif
#   From: 2010.03.12/outbox.cif.g09.slc.cpg/sg127_1_cif.got.tgz:1600.got - 2010.04.06 17:03:15.
