data_PCOD8313833
_publ_section_title
;
Structure prediction by ZEFSAII (Michael W. Deem and Ramdas Pophale) SiO2 
 PCOD8313833
Probable space group: P 4/M B M
;
_chemical_formula_sum "Si O2"
_cell_formula_units_Z 112
_cell_length_a 25.467170
_cell_length_b 25.467170
_cell_length_c 9.934151
_cell_angle_alpha 90.000000
_cell_angle_beta 90.000000
_cell_angle_gamma 90.000000
_cell_volume 6443.059348
_symmetry_space_group_name_H-M "P 4/M B M"
_symmetry_group_IT_number 127
_symmetry_cell_setting 'tetragonal'
loop_
_space_group_symop_operation_xyz
x,y,z
-y,x,z
-x,-y,z
y,-x,z
1/2+x,1/2-y,-z
1/2-x,1/2+y,-z
1/2+y,1/2+x,-z
1/2-y,1/2-x,-z
-x,-y,-z
y,-x,-z
x,y,-z
-y,x,-z
1/2-x,1/2+y,z
1/2+x,1/2-y,z
1/2-y,1/2-x,z
1/2+y,1/2+x,z
loop_
_atom_site_type_symbol
_atom_site_label
_atom_site_fract_x
_atom_site_fract_y
_atom_site_fract_z
Si Si1 0.666904 0.916868 0.153782
Si Si2 0.587130 0.388553 0.648942
Si Si3 0.518127 0.657377 0.338722
Si Si4 0.997180 0.278040 0.660831
Si Si5 0.664857 0.298839 0.351381
Si Si6 0.753747 0.829837 0.146961
Si Si7 0.304448 0.886127 0.659562
O O1 0.610348 0.889653 0.183594
O O2 0.679277 0.961432 0.262770
O O3 0.711405 0.873931 0.173517
O O4 0.667521 0.938640 0.000000
O O5 0.577094 0.411544 0.500000
O O6 0.530689 0.377644 0.718811
O O7 0.626993 0.430254 0.719428
O O8 0.611127 0.330729 0.639017
O O9 0.516601 0.659488 0.500000
O O10 0.515828 0.718349 0.289818
O O11 0.989791 0.283917 0.500000
O O12 0.054972 0.295812 0.710924
O O13 0.690359 0.293152 0.500000
O O14 0.702865 0.333523 0.260795
O O15 0.651468 0.242360 0.286566
O O16 0.727006 0.772995 0.155283
O O17 0.779873 0.837376 0.000000
O O18 0.299577 0.886731 0.500000
O O19 0.360270 0.860270 0.705470
#
# Coordination Sequence:
#
# PCOD8313833 Si02
#       7
#    16  16  16  16  16  16  16
#     4   9  19  35  52  71  98 131 162 195 244 300
#     4   9  16  25  39  60  91 126 162 200 239 278
#     4   9  16  26  40  63  93 128 163 202 243 279
#     4  10  18  31  51  74  98 123 163 208 243 288
#     4  10  17  28  46  70  96 125 163 202 239 287
#     4   9  18  31  45  65  96 128 155 190 240 293
#     4   9  17  29  47  71 100 131 158 194 251 307
#
# _framework density 17.383046
#
# number of rings (size 3 to 8) (size 9 to 14) (size 15 to 20)
#    0.000    2.714    1.429    2.143    0.000    3.143 
#    0.000    3.571    0.000    1.714    0.000    3.000 
#    0.000    0.000    0.000    6.000    0.000    5.714 
#
# Total GULP energy -1387481.203911 kJ/mol
# GULP energy per Si atom -12388.225035 kJ/mol
# Density = 1.734348 g / cm^3
# Si number density = 17.383046 Si / 1000 Ang^3
#
#
#
# Elastic Constant Matrix: (Units=GPa)
#
#
# Indices 1 2 3 4 5 6 
#
# 1 89.8976 42.1764 22.8509 0.0000 0.0000 0.0000
# 2 42.1764 89.8976 22.8509 0.0000 0.0000 0.0000
# 3 22.8509 22.8509 42.3948 0.0000 0.0000 0.0000
# 4 0.0000 0.0000 0.0000 13.4215 0.0000 0.0000
# 5 0.0000 0.0000 0.0000 0.0000 13.4215 0.0000
# 6 0.0000 0.0000 0.0000 0.0000 0.0000 30.5440
#
#
#
# Elastic Compliance Matrix: (Units=1/GPa)
#
#
# Indices 1 2 3 4 5 6 
#
# 1 0.015131 -0.005824 -0.005017 0.000000 0.000000 0.000000
# 2 -0.005824 0.015131 -0.005017 0.000000 0.000000 0.000000
# 3 -0.005017 -0.005017 0.028996 0.000000 0.000000 0.000000
# 4 0.000000 0.000000 0.000000 0.074507 0.000000 0.000000
# 5 0.000000 0.000000 0.000000 0.000000 0.074507 0.000000
# 6 0.000000 0.000000 0.000000 0.000000 0.000000 0.032740
#
#
# Mechanical properties :
#
#
# Convention : Reuss Voigt Hill
#
# Bulk Modulus (GPa) = 36.30579 44.21626 40.26102
# Shear Modulus (GPa) = 17.73624 20.43152 19.08388
#
# Velocity S-wave (km/s) = 3.19771 3.43209 3.31697
# Velocity P-wave (km/s) = 5.87919 6.41851 6.15476
#
# Compressibility (1/GPa) = 0.02754382
#
# Stress axis : x y z
#
# Youngs Moduli (GPa) = 66.08839 66.08839 34.48768
#
# Poissons Ratio (x) = 0.38488 0.17302
# Poissons Ratio (y) = 0.38488 0.17302
# Poissons Ratio (z) = 0.33155 0.33155
#
# Static dielectric constant tensor:
#      x y z
#    x 3.341120 0.000000 0.000000 
#    y 0.000000 3.341120 0.000000 
#    z 0.000000 0.000000 2.821920 
# 
# 
# High freq. dielectric constant tensor:
#      x y z
#    x 1.668550 0.000000 0.000000 
#    y 0.000000 1.668550 0.000000 
#    z 0.000000 0.000000 1.617120 
# 
# From -- ./inp_files/3787.got.cif
#   From: 2010.03.12/outbox.cif.g09.slc.cpg/sg127_2_cif.got.tgz:3787.got - 2010.04.06 17:03:15.
