data_PCOD8313015
_publ_section_title
;
Structure prediction by ZEFSAII (Michael W. Deem and Ramdas Pophale) SiO2 
 PCOD8313015
Probable space group: P 4/M M M
;
_chemical_formula_sum "Si O2"
_cell_formula_units_Z 88
_cell_length_a 14.233519
_cell_length_b 14.233519
_cell_length_c 27.512998
_cell_angle_alpha 90.000000
_cell_angle_beta 90.000000
_cell_angle_gamma 90.000000
_cell_volume 5573.942541
_symmetry_space_group_name_H-M "P 4/M M M"
_symmetry_group_IT_number 123
_symmetry_cell_setting 'tetragonal'
loop_
_space_group_symop_operation_xyz
x,y,z
-y,x,z
-x,-y,z
y,-x,z
x,-y,-z
-x,y,-z
y,x,-z
-y,-x,-z
-x,-y,-z
y,-x,-z
x,y,-z
-y,x,-z
-x,y,z
x,-y,z
-y,-x,z
y,x,z
loop_
_atom_site_type_symbol
_atom_site_label
_atom_site_fract_x
_atom_site_fract_y
_atom_site_fract_z
Si Si1 0.741316 0.107296 0.917174
Si Si2 0.262070 0.891109 0.194496
Si Si3 0.243737 0.607057 0.633754
Si Si4 0.611457 0.104310 0.446288
Si Si5 0.762749 0.391047 0.255443
Si Si6 0.603800 0.888736 0.000000
O O1 0.835093 0.164908 0.928236
O O2 0.708656 0.118981 0.861685
O O3 0.657889 0.145025 0.951561
O O4 0.766179 0.000000 0.929537
O O5 0.165720 0.834281 0.205495
O O6 0.348598 0.848461 0.224638
O O7 0.246073 0.000000 0.208815
O O8 0.263121 0.500000 0.620118
O O9 0.342831 0.657170 0.627498
O O10 0.169698 0.653154 0.596211
O O11 0.205636 0.618195 0.688495
O O12 0.639579 0.142440 0.500000
O O13 0.500000 0.099855 0.441463
O O14 0.653199 0.000000 0.439041
O O15 0.745876 0.500000 0.241240
O O16 0.666366 0.333635 0.245294
O O17 0.500000 0.842840 0.000000
O O18 0.594739 0.000000 0.000000
#
# Coordination Sequence:
#
# PCOD8313015 Si02
#       6
#    16  16  16  16  16   8
#     4   9  17  29  45  65  89 115 142 174 213 259
#     4   9  18  31  46  66  91 117 146 181 222 269
#     4   9  17  28  42  61  85 112 140 171 210 256
#     4   8  14  25  40  57  78 105 137 172 207 242
#     4   9  18  31  45  63  87 114 147 186 225 266
#     4   9  17  28  41  59  85 115 145 175 205 240
#
# _framework density 15.787747
#
# number of rings (size 3 to 8) (size 9 to 14) (size 15 to 20)
#    0.000    3.182    0.000    0.818    0.000    2.909 
#    0.000    7.273    0.000    1.636    0.000    2.545 
#    0.000    3.273    0.000    2.000    0.000    0.727 
#
# Total GULP energy -1090804.564414 kJ/mol
# GULP energy per Si atom -12395.506414 kJ/mol
# Density = 1.575181 g / cm^3
# Si number density = 15.787747 Si / 1000 Ang^3
#
#
#
# Elastic Constant Matrix: (Units=GPa)
#
#
# Indices 1 2 3 4 5 6 
#
# 1 91.0635 43.9470 54.9059 0.0000 0.0000 0.0000
# 2 43.9470 91.0635 54.9059 0.0000 0.0000 0.0000
# 3 54.9059 54.9059 92.4130 0.0000 0.0000 0.0000
# 4 0.0000 0.0000 0.0000 25.2256 0.0000 0.0000
# 5 0.0000 0.0000 0.0000 0.0000 25.2256 0.0000
# 6 0.0000 0.0000 0.0000 0.0000 0.0000 14.7077
#
#
#
# Elastic Compliance Matrix: (Units=1/GPa)
#
#
# Indices 1 2 3 4 5 6 
#
# 1 0.017779 -0.003445 -0.008516 0.000000 0.000000 0.000000
# 2 -0.003445 0.017779 -0.008516 0.000000 0.000000 0.000000
# 3 -0.008516 -0.008516 0.020940 0.000000 0.000000 0.000000
# 4 0.000000 0.000000 0.000000 0.039642 0.000000 0.000000
# 5 0.000000 0.000000 0.000000 0.000000 0.039642 0.000000
# 6 0.000000 0.000000 0.000000 0.000000 0.000000 0.067992
#
#
# Mechanical properties :
#
#
# Convention : Reuss Voigt Hill
#
# Bulk Modulus (GPa) = 64.33712 64.67306 64.50509
# Shear Modulus (GPa) = 20.00727 21.08386 20.54557
#
# Velocity S-wave (km/s) = 3.56373 3.65836 3.61135
# Velocity P-wave (km/s) = 7.60088 7.67449 7.63777
#
# Compressibility (1/GPa) = 0.01554313
#
# Stress axis : x y z
#
# Youngs Moduli (GPa) = 56.24722 56.24722 47.75485
#
# Poissons Ratio (x) = 0.19379 0.40668
# Poissons Ratio (y) = 0.19379 0.40668
# Poissons Ratio (z) = 0.47900 0.47900
#
# Static dielectric constant tensor:
#      x y z
#    x 2.945140 0.000000 0.000000 
#    y 0.000000 2.945140 0.000000 
#    z 0.000000 0.000000 3.211550 
# 
# 
# High freq. dielectric constant tensor:
#      x y z
#    x 1.586740 0.000000 0.000000 
#    y 0.000000 1.586740 0.000000 
#    z 0.000000 0.000000 1.616530 
# 
# From -- ./inp_files/7978.got.cif
#   From: 2010.03.12/outbox.cif.g09.slc.cpg/sg123_4_cif.got.tgz:7978.got - 2010.04.06 16:26:55.
