data_PCOD8313082
_publ_section_title
;
Structure prediction by ZEFSAII (Michael W. Deem and Ramdas Pophale) SiO2 
 PCOD8313082
Probable space group: P 4/M C C
;
_chemical_formula_sum "Si O2"
_cell_formula_units_Z 96
_cell_length_a 17.556040
_cell_length_b 17.556040
_cell_length_c 17.002338
_cell_angle_alpha 90.000000
_cell_angle_beta 90.000000
_cell_angle_gamma 90.000000
_cell_volume 5240.367794
_symmetry_space_group_name_H-M "P 4/M C C"
_symmetry_group_IT_number 124
_symmetry_cell_setting 'tetragonal'
loop_
_space_group_symop_operation_xyz
x,y,z
-y,x,z
-x,-y,z
y,-x,z
x,-y,1/2-z
-x,y,1/2-z
y,x,1/2-z
-y,-x,1/2-z
-x,-y,-z
y,-x,-z
x,y,-z
-y,x,-z
-x,y,1/2+z
x,-y,1/2+z
-y,-x,1/2+z
y,x,1/2+z
loop_
_atom_site_type_symbol
_atom_site_label
_atom_site_fract_x
_atom_site_fract_y
_atom_site_fract_z
Si Si1 0.414010 0.121842 0.262946
Si Si2 0.462182 0.616427 0.408668
Si Si3 0.043818 0.722975 0.824412
Si Si4 0.628550 0.723517 0.192087
Si Si5 0.776309 0.795513 0.157361
Si Si6 0.314667 0.100265 0.590230
O O1 0.500000 0.091845 0.250000
O O2 0.359104 0.073292 0.206258
O O3 0.409091 0.210224 0.242903
O O4 0.387339 0.114898 0.353848
O O5 0.405406 0.547914 0.385836
O O6 0.456430 0.634743 0.500000
O O7 0.438507 0.691255 0.361919
O O8 0.113401 0.774298 0.857155
O O9 0.000000 0.762404 0.750000
O O10 0.986209 0.713483 0.896963
O O11 0.658238 0.658238 0.250000
O O12 0.696091 0.755546 0.135265
O O13 0.783762 0.783762 0.250000
O O14 0.844262 0.756321 0.109992
O O15 0.339388 0.111878 0.500000
#
# Coordination Sequence:
#
# PCOD8313082 Si02
#       6
#    16  16  16  16  16  16
#     4  10  21  38  57  82 113 153 189 236 284 340
#     4   9  20  36  50  71 106 143 181 234 296 341
#     4   9  18  35  60  84 115 154 195 225 273 351
#     4  10  19  33  54  78 102 139 191 230 274 341
#     4  10  17  36  58  86 115 148 191 228 277 342
#     4  11  22  37  60  90 118 150 190 241 292 334
#
# _framework density 18.319324000000002
#
# number of rings (size 3 to 8) (size 9 to 14) (size 15 to 20)
#    0.000    2.167    6.667    0.500    2.333    4.333 
#    0.000    5.833    0.000    0.500    0.000    1.167 
#    0.000    0.000    0.000    0.000    0.000    0.000 
#
# Total GULP energy -1190079.241714 kJ/mol
# GULP energy per Si atom -12396.658768 kJ/mol
# Density = 1.827763 g / cm^3
# Si number density = 18.319324 Si / 1000 Ang^3
#
#
#
# Elastic Constant Matrix: (Units=GPa)
#
#
# Indices 1 2 3 4 5 6 
#
# 1 79.4364 29.9637 43.0040 0.0000 0.0000 0.0000
# 2 29.9637 79.4364 43.0040 0.0000 0.0000 0.0000
# 3 43.0040 43.0040 94.2856 0.0000 0.0000 0.0000
# 4 0.0000 0.0000 0.0000 23.7585 0.0000 0.0000
# 5 0.0000 0.0000 0.0000 0.0000 23.7585 0.0000
# 6 0.0000 0.0000 0.0000 0.0000 0.0000 15.6745
#
#
#
# Elastic Compliance Matrix: (Units=1/GPa)
#
#
# Indices 1 2 3 4 5 6 
#
# 1 0.017232 -0.002981 -0.006500 0.000000 0.000000 0.000000
# 2 -0.002981 0.017232 -0.006500 0.000000 0.000000 0.000000
# 3 -0.006500 -0.006500 0.016535 0.000000 0.000000 0.000000
# 4 0.000000 0.000000 0.000000 0.042090 0.000000 0.000000
# 5 0.000000 0.000000 0.000000 0.000000 0.042090 0.000000
# 6 0.000000 0.000000 0.000000 0.000000 0.000000 0.063798
#
#
# Mechanical properties :
#
#
# Convention : Reuss Voigt Hill
#
# Bulk Modulus (GPa) = 52.52789 53.90021 53.21405
# Shear Modulus (GPa) = 21.07168 21.78407 21.42787
#
# Velocity S-wave (km/s) = 3.39520 3.45212 3.42378
# Velocity P-wave (km/s) = 6.64121 6.73617 6.68886
#
# Compressibility (1/GPa) = 0.01903750
#
# Stress axis : x y z
#
# Youngs Moduli (GPa) = 58.03158 58.03158 60.47674
#
# Poissons Ratio (x) = 0.17300 0.39309
# Poissons Ratio (y) = 0.17300 0.39309
# Poissons Ratio (z) = 0.37720 0.37720
#
# Static dielectric constant tensor:
#      x y z
#    x 3.649950 0.000000 0.000000 
#    y 0.000000 3.649950 0.000000 
#    z 0.000000 0.000000 3.099120 
# 
# 
# High freq. dielectric constant tensor:
#      x y z
#    x 1.707880 0.000000 0.000000 
#    y 0.000000 1.707880 0.000000 
#    z 0.000000 0.000000 1.684200 
# 
# From -- ./inp_files/4287.got.cif
#   From: 2010.03.12/outbox.cif.g09.slc.cpg/sg124_3_cif.got.tgz:4287.got - 2010.04.06 16:38:57.
