data_PCOD8313440
_publ_section_title
;
Structure prediction by ZEFSAII (Michael W. Deem and Ramdas Pophale) SiO2 
 PCOD8313440
Probable space group: P 4/N B M
;
_chemical_formula_sum "Si O2"
_cell_formula_units_Z 112
_cell_length_a 16.688923
_cell_length_b 16.688923
_cell_length_c 20.920757
_cell_angle_alpha 90.000000
_cell_angle_beta 90.000000
_cell_angle_gamma 90.000000
_cell_volume 5826.852397
_symmetry_space_group_name_H-M "P 4/N B M"
_symmetry_group_IT_number 125
_space_group.IT_coordinate_system_code '2'
_symmetry_cell_setting 'tetragonal'
loop_
_space_group_symop_operation_xyz
x,y,z
1/2-y,x,z
1/2-x,1/2-y,z
y,1/2-x,z
x,1/2-y,-z
1/2-x,y,-z
y,x,-z
1/2-y,1/2-x,-z
-x,-y,-z
1/2+y,-x,-z
1/2+x,1/2+y,-z
-y,1/2+x,-z
-x,1/2+y,z
1/2+x,-y,z
-y,-x,z
1/2+y,1/2+x,z
loop_
_atom_site_type_symbol
_atom_site_label
_atom_site_fract_x
_atom_site_fract_y
_atom_site_fract_z
Si Si1 0.815720 0.857064 0.852670
Si Si2 0.247675 0.879406 0.802648
Si Si3 0.041548 0.676211 0.686154
Si Si4 0.754494 0.379648 0.569701
Si Si5 0.192752 0.363655 0.701995
Si Si6 0.055465 0.071696 0.070872
Si Si7 0.202480 0.574159 0.063780
O O1 0.724642 0.858685 0.877372
O O2 0.813616 0.862369 0.777543
O O3 0.868126 0.928824 0.882077
O O4 0.157230 0.842771 0.794486
O O5 0.308483 0.808483 0.789763
O O6 0.268441 0.946626 0.749531
O O7 0.259537 0.913804 0.874388
O O8 0.095226 0.595226 0.687615
O O9 0.059554 0.731824 0.625427
O O10 0.947496 0.653843 0.678912
O O11 0.750000 0.422858 0.500000
O O12 0.692794 0.307207 0.568694
O O13 0.843109 0.343109 0.582812
O O14 0.143427 0.285538 0.677889
O O15 0.992209 0.140190 0.087542
O O16 0.087063 0.087063 0.000000
O O17 0.016137 0.983864 0.077175
O O18 0.156699 0.656699 0.046814
O O19 0.250000 0.547732 0.000000
#
# Coordination Sequence:
#
# PCOD8313440 Si02
#       7
#    16  16  16  16  16  16  16
#     4   9  20  37  58  77  92 125 173 217 262 317
#     4   9  18  31  48  74 106 137 172 217 268 324
#     4  10  19  31  54  87 114 139 179 231 280 321
#     4   8  14  27  50  82 122 163 193 220 266 328
#     4   9  20  38  56  75 104 144 184 219 260 321
#     4  10  23  37  50  73 100 126 161 216 277 324
#     4  10  21  34  50  70  96 137 176 210 258 326
#
# _framework density 19.221354999999999
#
# number of rings (size 3 to 8) (size 9 to 14) (size 15 to 20)
#    0.000    2.714    0.000    2.143    6.000    3.000 
#    0.000    5.000    0.000    0.857    0.000    4.000 
#    0.000    0.000    0.000    0.000    0.000    0.000 
#
# Total GULP energy -1388004.173568 kJ/mol
# GULP energy per Si atom -12392.894407 kJ/mol
# Density = 1.917761 g / cm^3
# Si number density = 19.221355 Si / 1000 Ang^3
#
#
#
# Elastic Constant Matrix: (Units=GPa)
#
#
# Indices 1 2 3 4 5 6 
#
# 1 78.9726 24.1343 27.3981 0.0000 0.0000 0.0000
# 2 24.1343 78.9726 27.3981 0.0000 0.0000 0.0000
# 3 27.3981 27.3981 86.7598 0.0000 0.0000 0.0000
# 4 0.0000 0.0000 0.0000 15.1976 0.0000 0.0000
# 5 0.0000 0.0000 0.0000 0.0000 15.1976 0.0000
# 6 0.0000 0.0000 0.0000 0.0000 0.0000 17.5559
#
#
#
# Elastic Compliance Matrix: (Units=1/GPa)
#
#
# Indices 1 2 3 4 5 6 
#
# 1 0.014945 -0.003290 -0.003680 0.000000 0.000000 0.000000
# 2 -0.003290 0.014945 -0.003680 0.000000 0.000000 0.000000
# 3 -0.003680 -0.003680 0.013851 0.000000 0.000000 0.000000
# 4 0.000000 0.000000 0.000000 0.065800 0.000000 0.000000
# 5 0.000000 0.000000 0.000000 0.000000 0.065800 0.000000
# 6 0.000000 0.000000 0.000000 0.000000 0.000000 0.056961
#
#
# Mechanical properties :
#
#
# Convention : Reuss Voigt Hill
#
# Bulk Modulus (GPa) = 44.56707 44.72955 44.64831
# Shear Modulus (GPa) = 19.15095 20.64184 19.89639
#
# Velocity S-wave (km/s) = 3.15991 3.28060 3.22082
# Velocity P-wave (km/s) = 6.04565 6.13767 6.09184
#
# Compressibility (1/GPa) = 0.02243809
#
# Stress axis : x y z
#
# Youngs Moduli (GPa) = 66.91191 66.91191 72.19908
#
# Poissons Ratio (x) = 0.22017 0.26573
# Poissons Ratio (y) = 0.22017 0.26573
# Poissons Ratio (z) = 0.24627 0.24627
#
# Static dielectric constant tensor:
#      x y z
#    x 3.522180 0.000000 0.000000 
#    y 0.000000 3.522180 0.000000 
#    z 0.000000 0.000000 3.506440 
# 
# 
# High freq. dielectric constant tensor:
#      x y z
#    x 1.734470 0.000000 0.000000 
#    y 0.000000 1.734470 0.000000 
#    z 0.000000 0.000000 1.725130 
# 
# From -- ./inp_files/6060.got.cif
#   From: 2010.03.12/outbox.cif.g09.slc.cpg/sg125_4_cif.got.tgz:6060.got - 2010.04.06 16:47:52.
