data_PCOD8313957
_publ_section_title
;
Structure prediction by ZEFSAII (Michael W. Deem and Ramdas Pophale) SiO2 
 PCOD8313957
Probable space group: P 4/M B M
;
_chemical_formula_sum "Si O2"
_cell_formula_units_Z 72
_cell_length_a 14.650467
_cell_length_b 14.650467
_cell_length_c 18.429161
_cell_angle_alpha 90.000000
_cell_angle_beta 90.000000
_cell_angle_gamma 90.000000
_cell_volume 3955.564779
_symmetry_space_group_name_H-M "P 4/M B M"
_symmetry_group_IT_number 127
_symmetry_cell_setting 'tetragonal'
loop_
_space_group_symop_operation_xyz
x,y,z
-y,x,z
-x,-y,z
y,-x,z
1/2+x,1/2-y,-z
1/2-x,1/2+y,-z
1/2+y,1/2+x,-z
1/2-y,1/2-x,-z
-x,-y,-z
y,-x,-z
x,y,-z
-y,x,-z
1/2-x,1/2+y,z
1/2+x,1/2-y,z
1/2-y,1/2-x,z
1/2+y,1/2+x,z
loop_
_atom_site_type_symbol
_atom_site_label
_atom_site_fract_x
_atom_site_fract_y
_atom_site_fract_z
Si Si1 0.866313 0.781526 0.853648
Si Si2 0.379616 0.411759 0.000000
Si Si3 0.620075 0.410312 0.579809
Si Si4 0.645434 0.000316 0.212342
Si Si5 0.719227 0.366093 0.722702
O O1 0.772518 0.727483 0.858646
O O2 0.874497 0.833552 0.928222
O O3 0.857442 0.855618 0.786926
O O4 0.952051 0.711691 0.846240
O O5 0.480567 0.373708 0.000000
O O6 0.625165 0.518161 0.588247
O O7 0.658076 0.382094 0.500000
O O8 0.677128 0.365495 0.643342
O O9 0.579548 0.920453 0.178318
O O10 0.713812 0.953950 0.270197
O O11 0.579397 0.079397 0.247262
O O12 0.773171 0.273171 0.727144
#
# Coordination Sequence:
#
# PCOD8313957 Si02
#       5
#    16   8  16  16  16
#     4  10  20  35  54  75 100 130 168 210 250 298
#     4  11  23  36  50  71 101 133 164 205 256 301
#     4   9  18  32  49  70  98 131 166 206 250 296
#     4   9  18  33  52  74 101 132 167 207 251 301
#     4  10  19  31  52  78 101 130 166 206 252 300
#
# _framework density 18.202204999999999
#
# number of rings (size 3 to 8) (size 9 to 14) (size 15 to 20)
#    0.000    2.333    0.000    3.667    0.000    0.444 
#    0.000    3.889    0.000    4.667    0.000    3.111 
#    0.000    0.000    0.000    0.000    0.000    0.000 
#
# Total GULP energy -891969.249402 kJ/mol
# GULP energy per Si atom -12388.461797 kJ/mol
# Density = 1.816078 g / cm^3
# Si number density = 18.202205 Si / 1000 Ang^3
#
#
#
# Elastic Constant Matrix: (Units=GPa)
#
#
# Indices 1 2 3 4 5 6 
#
# 1 76.7506 25.4150 51.4761 0.0000 0.0000 0.0000
# 2 25.4150 76.7506 51.4761 0.0000 0.0000 0.0000
# 3 51.4761 51.4761 160.8769 0.0000 0.0000 0.0000
# 4 0.0000 0.0000 0.0000 29.2629 0.0000 0.0000
# 5 0.0000 0.0000 0.0000 0.0000 29.2629 0.0000
# 6 0.0000 0.0000 0.0000 0.0000 0.0000 20.6286
#
#
#
# Elastic Compliance Matrix: (Units=1/GPa)
#
#
# Indices 1 2 3 4 5 6 
#
# 1 0.016963 -0.002517 -0.004622 0.000000 0.000000 0.000000
# 2 -0.002517 0.016963 -0.004622 0.000000 0.000000 0.000000
# 3 -0.004622 -0.004622 0.009174 0.000000 0.000000 0.000000
# 4 0.000000 0.000000 0.000000 0.034173 0.000000 0.000000
# 5 0.000000 0.000000 0.000000 0.000000 0.034173 0.000000
# 6 0.000000 0.000000 0.000000 0.000000 0.000000 0.048476
#
#
# Mechanical properties :
#
#
# Convention : Reuss Voigt Hill
#
# Bulk Modulus (GPa) = 51.08138 63.45696 57.26917
# Shear Modulus (GPa) = 26.31993 28.23162 27.27577
#
# Velocity S-wave (km/s) = 3.80672 3.94255 3.87523
# Velocity P-wave (km/s) = 6.88809 7.46075 7.18013
#
# Compressibility (1/GPa) = 0.01957661
#
# Stress axis : x y z
#
# Youngs Moduli (GPa) = 58.95259 58.95259 109.00439
#
# Poissons Ratio (x) = 0.14838 0.50385
# Poissons Ratio (y) = 0.14838 0.50385
# Poissons Ratio (z) = 0.27250 0.27250
#
# Static dielectric constant tensor:
#      x y z
#    x 3.467260 0.000000 0.000000 
#    y 0.000000 3.467260 0.000000 
#    z 0.000000 0.000000 3.365470 
# 
# 
# High freq. dielectric constant tensor:
#      x y z
#    x 1.710160 0.000000 0.000000 
#    y 0.000000 1.710160 0.000000 
#    z 0.000000 0.000000 1.686420 
# 
# From -- ./inp_files/4938.got.cif
#   From: 2010.03.12/outbox.cif.g09.slc.cpg/sg127_3_cif.got.tgz:4938.got - 2010.04.06 17:03:15.
