data_PCOD8313798
_publ_section_title
;
Structure prediction by ZEFSAII (Michael W. Deem and Ramdas Pophale) SiO2 
 PCOD8313798
Probable space group: P 4/N N C
;
_chemical_formula_sum "Si O2"
_cell_formula_units_Z 40
_cell_length_a 13.017831
_cell_length_b 13.017831
_cell_length_c 10.101846
_cell_angle_alpha 90.000000
_cell_angle_beta 90.000000
_cell_angle_gamma 90.000000
_cell_volume 1711.898462
_symmetry_space_group_name_H-M "P 4/N N C"
_symmetry_group_IT_number 126
_space_group.IT_coordinate_system_code '2'
_symmetry_cell_setting 'tetragonal'
loop_
_space_group_symop_operation_xyz
x,y,z
1/2-y,x,z
1/2-x,1/2-y,z
y,1/2-x,z
x,1/2-y,1/2-z
1/2-x,y,1/2-z
y,x,1/2-z
1/2-y,1/2-x,1/2-z
-x,-y,-z
1/2+y,-x,-z
1/2+x,1/2+y,-z
-y,1/2+x,-z
-x,1/2+y,1/2+z
1/2+x,-y,1/2+z
-y,-x,1/2+z
1/2+y,1/2+x,1/2+z
loop_
_atom_site_type_symbol
_atom_site_label
_atom_site_fract_x
_atom_site_fract_y
_atom_site_fract_z
Si Si1 0.058630 0.955734 0.871533
Si Si2 0.706558 0.591313 0.017953
Si Si3 0.750000 0.989592 0.750000
O O1 0.053981 0.833409 0.838670
O O2 0.177598 0.987784 0.901199
O O3 0.019380 0.019380 0.750000
O O4 0.000000 0.000000 0.000000
O O5 0.820597 0.624480 0.056731
O O6 0.690215 0.578573 0.858590
#
# Coordination Sequence:
#
# PCOD8313798 Si02
#       3
#    16  16   8
#     4  12  24  44  72 111 153 198 250 327 400 485
#     4  11  23  42  74 111 145 192 260 333 402 473
#     4  12  22  45  78 107 152 210 256 324 414 488
#
# _framework density 23.365873000000001
#
# number of rings (size 3 to 8) (size 9 to 14) (size 15 to 20)
#    0.000    0.400    8.000    1.200    0.000    3.200 
#    0.000    2.000    0.000   22.800    0.000    0.000 
#    0.000    0.000    0.000    0.000    0.000    0.000 
#
# Total GULP energy -495534.638970 kJ/mol
# GULP energy per Si atom -12388.365974 kJ/mol
# Density = 2.331269 g / cm^3
# Si number density = 23.365873 Si / 1000 Ang^3
#
#
#
# Elastic Constant Matrix: (Units=GPa)
#
#
# Indices 1 2 3 4 5 6 
#
# 1 123.2590 66.8469 47.0116 0.0000 0.0000 0.0000
# 2 66.8469 123.2590 47.0116 0.0000 0.0000 0.0000
# 3 47.0116 47.0116 124.8380 0.0000 0.0000 0.0000
# 4 0.0000 0.0000 0.0000 46.1477 0.0000 0.0000
# 5 0.0000 0.0000 0.0000 0.0000 46.1477 0.0000
# 6 0.0000 0.0000 0.0000 0.0000 0.0000 29.1345
#
#
#
# Elastic Compliance Matrix: (Units=1/GPa)
#
#
# Indices 1 2 3 4 5 6 
#
# 1 0.012095 -0.005631 -0.002434 0.000000 0.000000 0.000000
# 2 -0.005631 0.012095 -0.002434 0.000000 0.000000 0.000000
# 3 -0.002434 -0.002434 0.009844 0.000000 0.000000 0.000000
# 4 0.000000 0.000000 0.000000 0.021670 0.000000 0.000000
# 5 0.000000 0.000000 0.000000 0.000000 0.021670 0.000000
# 6 0.000000 0.000000 0.000000 0.000000 0.000000 0.034324
#
#
# Mechanical properties :
#
#
# Convention : Reuss Voigt Hill
#
# Bulk Modulus (GPa) = 76.71647 77.01069 76.86358
# Shear Modulus (GPa) = 36.48514 38.31836 37.40175
#
# Velocity S-wave (km/s) = 3.95583 4.05400 4.00522
# Velocity P-wave (km/s) = 7.33272 7.41238 7.37266
#
# Compressibility (1/GPa) = 0.01303501
#
# Stress axis : x y z
#
# Youngs Moduli (GPa) = 82.67575 82.67575 101.58683
#
# Poissons Ratio (x) = 0.46557 0.24729
# Poissons Ratio (y) = 0.46557 0.24729
# Poissons Ratio (z) = 0.20126 0.20126
#
# Static dielectric constant tensor:
#      x y z
#    x 4.527770 0.000000 0.000000 
#    y 0.000000 4.527770 0.000000 
#    z 0.000000 0.000000 3.964370 
# 
# 
# High freq. dielectric constant tensor:
#      x y z
#    x 1.909960 0.000000 0.000000 
#    y 0.000000 1.909960 0.000000 
#    z 0.000000 0.000000 1.940190 
# 
# From -- ./inp_files/919.got.cif
#   From: 2010.03.12/outbox.cif.g09.slc.cpg/sg126_1_cif.got.tgz:919.got - 2010.04.06 16:55:23.
