data_PCOD8313567
_publ_section_title
;
Structure prediction by ZEFSAII (Michael W. Deem and Ramdas Pophale) SiO2 
 PCOD8313567
Probable space group: P 4/N B M
;
_chemical_formula_sum "Si O2"
_cell_formula_units_Z 50
_cell_length_a 15.092760
_cell_length_b 15.092760
_cell_length_c 11.355188
_cell_angle_alpha 90.000000
_cell_angle_beta 90.000000
_cell_angle_gamma 90.000000
_cell_volume 2586.614222
_symmetry_space_group_name_H-M "P 4/N B M"
_symmetry_group_IT_number 125
_space_group.IT_coordinate_system_code '2'
_symmetry_cell_setting 'tetragonal'
loop_
_space_group_symop_operation_xyz
x,y,z
1/2-y,x,z
1/2-x,1/2-y,z
y,1/2-x,z
x,1/2-y,-z
1/2-x,y,-z
y,x,-z
1/2-y,1/2-x,-z
-x,-y,-z
1/2+y,-x,-z
1/2+x,1/2+y,-z
-y,1/2+x,-z
-x,1/2+y,z
1/2+x,-y,z
-y,-x,z
1/2+y,1/2+x,z
loop_
_atom_site_type_symbol
_atom_site_label
_atom_site_fract_x
_atom_site_fract_y
_atom_site_fract_z
Si Si1 0.750000 0.895651 0.000000
Si Si2 0.916155 0.561556 0.361932
Si Si3 0.765154 0.515787 0.754187
Si Si4 0.681024 0.318977 0.275338
Si Si5 0.250000 0.750000 0.500000
O O1 0.662369 0.837632 0.000000
O O2 0.742614 0.955554 0.114582
O O3 0.921498 0.578503 0.500000
O O4 0.820465 0.522173 0.329575
O O5 0.925381 0.655377 0.297080
O O6 0.992737 0.492737 0.321958
O O7 0.795536 0.415788 0.765779
O O8 0.750000 0.250000 0.216534
O O9 0.687699 0.312302 0.418557
#
# Coordination Sequence:
#
# PCOD8313567 Si02
#       5
#     8  16  16   8   2
#     4  11  24  46  67  90 132 186 223 280 346 409
#     4  11  25  40  68 101 139 173 220 286 352 415
#     4  12  23  45  66 100 133 179 237 277 344 411
#     4  10  24  42  66  98 134 181 222 277 339 421
#     4   8  24  40  72  94 136 188 220 260 362 420
#
# _framework density 19.330287999999999
#
# number of rings (size 3 to 8) (size 9 to 14) (size 15 to 20)
#    0.480    0.480    4.800    1.920    4.480    0.640 
#    5.760    4.000    0.000    0.000    0.000    0.000 
#    0.000    0.000    0.000    0.000    0.000    0.000 
#
# Total GULP energy -620135.437533 kJ/mol
# GULP energy per Si atom -12402.708751 kJ/mol
# Density = 1.928629 g / cm^3
# Si number density = 19.330288 Si / 1000 Ang^3
#
#
#
# Elastic Constant Matrix: (Units=GPa)
#
#
# Indices 1 2 3 4 5 6 
#
# 1 136.4500 58.8369 55.7259 0.0000 0.0000 0.0000
# 2 58.8369 136.4502 55.7254 0.0000 0.0000 0.0000
# 3 55.7259 55.7254 117.6576 0.0000 0.0000 0.0000
# 4 0.0000 0.0000 0.0000 50.1522 0.0000 0.0000
# 5 0.0000 0.0000 0.0000 0.0000 50.1538 0.0000
# 6 0.0000 0.0000 0.0000 0.0000 0.0000 49.6937
#
#
#
# Elastic Compliance Matrix: (Units=1/GPa)
#
#
# Indices 1 2 3 4 5 6 
#
# 1 0.009951 -0.002933 -0.003324 0.000000 0.000000 0.000000
# 2 -0.002933 0.009951 -0.003324 0.000000 0.000000 0.000000
# 3 -0.003324 -0.003324 0.011648 0.000000 0.000000 0.000000
# 4 0.000000 0.000000 0.000000 0.019939 0.000000 0.000000
# 5 0.000000 0.000000 0.000000 0.000000 0.019939 0.000000
# 6 0.000000 0.000000 0.000000 0.000000 0.000000 0.020123
#
#
# Mechanical properties :
#
#
# Convention : Reuss Voigt Hill
#
# Bulk Modulus (GPa) = 80.72383 81.23715 80.98049
# Shear Modulus (GPa) = 43.53820 44.68457 44.11139
#
# Velocity S-wave (km/s) = 4.75102 4.81316 4.78219
# Velocity P-wave (km/s) = 8.48217 8.54434 8.51331
#
# Compressibility (1/GPa) = 0.01238792
#
# Stress axis : x y z
#
# Youngs Moduli (GPa) = 100.49255 100.49309 85.85464
#
# Poissons Ratio (x) = 0.29479 0.28536
# Poissons Ratio (y) = 0.29479 0.28535
# Poissons Ratio (z) = 0.33401 0.33400
#
# Static dielectric constant tensor:
#      x y z
#    x 4.134280 0.000000 0.000000 
#    y 0.000000 4.134230 0.000000 
#    z 0.000000 0.000000 3.512780 
# 
# 
# High freq. dielectric constant tensor:
#      x y z
#    x 1.765030 0.000000 0.000000 
#    y 0.000000 1.765030 0.000000 
#    z 0.000000 0.000000 1.750510 
# 
# From -- ./inp_files/3491.got.cif
#   From: 2010.03.12/outbox.cif.g09.slc.cpg/sg125_2_cif.got.tgz:3491.got - 2010.04.06 16:47:52.
