data_PCOD8313817
_publ_section_title
;
Structure prediction by ZEFSAII (Michael W. Deem and Ramdas Pophale) SiO2 
 PCOD8313817
Probable space group: P 4/N N C
;
_chemical_formula_sum "Si O2"
_cell_formula_units_Z 56
_cell_length_a 10.825778
_cell_length_b 10.825778
_cell_length_c 22.694330
_cell_angle_alpha 90.000000
_cell_angle_beta 90.000000
_cell_angle_gamma 90.000000
_cell_volume 2659.718044
_symmetry_space_group_name_H-M "P 4/N N C"
_symmetry_group_IT_number 126
_space_group.IT_coordinate_system_code '2'
_symmetry_cell_setting 'tetragonal'
loop_
_space_group_symop_operation_xyz
x,y,z
1/2-y,x,z
1/2-x,1/2-y,z
y,1/2-x,z
x,1/2-y,1/2-z
1/2-x,y,1/2-z
y,x,1/2-z
1/2-y,1/2-x,1/2-z
-x,-y,-z
1/2+y,-x,-z
1/2+x,1/2+y,-z
-y,1/2+x,-z
-x,1/2+y,1/2+z
1/2+x,-y,1/2+z
-y,-x,1/2+z
1/2+y,1/2+x,1/2+z
loop_
_atom_site_type_symbol
_atom_site_label
_atom_site_fract_x
_atom_site_fract_y
_atom_site_fract_z
Si Si1 0.552036 0.719993 0.541775
Si Si2 0.312284 0.441606 0.905673
Si Si3 0.117865 0.702611 0.638427
Si Si4 0.547464 0.750000 0.750000
O O1 0.647938 0.612536 0.558105
O O2 0.519510 0.695322 0.474102
O O3 0.428271 0.720573 0.580748
O O4 0.172153 0.402854 0.890096
O O5 0.369239 0.555237 0.869929
O O6 0.250000 0.750000 0.655943
O O7 0.031344 0.740783 0.691431
O O8 0.627833 0.627833 0.750000
#
# Coordination Sequence:
#
# PCOD8313817 Si02
#       4
#    16  16  16   8
#     4   9  20  39  63  95 136 178 218 266 326 382
#     4   9  22  41  63  97 140 179 213 261 332 403
#     4  12  26  38  68 101 131 169 224 277 326 395
#     4  11  27  52  74  92 123 171 224 286 340 381
#
# _framework density 21.054863999999998
#
# number of rings (size 3 to 8) (size 9 to 14) (size 15 to 20)
#    0.000    1.857    0.000    3.857   12.000    4.571 
#    0.000    0.000    0.000    0.000    0.000    0.000 
#    0.000    0.000    0.000    0.000    0.000    0.000 
#
# Total GULP energy -694121.230921 kJ/mol
# GULP energy per Si atom -12395.021981 kJ/mol
# Density = 2.100694 g / cm^3
# Si number density = 21.054864 Si / 1000 Ang^3
#
#
#
# Elastic Constant Matrix: (Units=GPa)
#
#
# Indices 1 2 3 4 5 6 
#
# 1 91.0579 68.8292 60.3627 0.0000 0.0000 0.0000
# 2 68.8292 91.0579 60.3627 0.0000 0.0000 0.0000
# 3 60.3627 60.3627 86.2790 0.0000 0.0000 0.0000
# 4 0.0000 0.0000 0.0000 51.5301 0.0000 0.0000
# 5 0.0000 0.0000 0.0000 0.0000 51.5301 0.0000
# 6 0.0000 0.0000 0.0000 0.0000 0.0000 18.8812
#
#
#
# Elastic Compliance Matrix: (Units=1/GPa)
#
#
# Indices 1 2 3 4 5 6 
#
# 1 0.029123 -0.015864 -0.009276 0.000000 0.000000 0.000000
# 2 -0.015864 0.029123 -0.009276 0.000000 0.000000 0.000000
# 3 -0.009276 -0.009276 0.024569 0.000000 0.000000 0.000000
# 4 0.000000 0.000000 0.000000 0.019406 0.000000 0.000000
# 5 0.000000 0.000000 0.000000 0.000000 0.019406 0.000000
# 6 0.000000 0.000000 0.000000 0.000000 0.000000 0.052963
#
#
# Mechanical properties :
#
#
# Convention : Reuss Voigt Hill
#
# Bulk Modulus (GPa) = 71.51644 71.94489 71.73066
# Shear Modulus (GPa) = 20.15462 29.64430 24.89946
#
# Velocity S-wave (km/s) = 3.09729 3.75634 3.44262
# Velocity P-wave (km/s) = 6.84335 7.28408 7.06715
#
# Compressibility (1/GPa) = 0.01398280
#
# Stress axis : x y z
#
# Youngs Moduli (GPa) = 34.33762 34.33762 40.70124
#
# Poissons Ratio (x) = 0.54475 0.37753
# Poissons Ratio (y) = 0.54475 0.37753
# Poissons Ratio (z) = 0.31851 0.31851
#
# Static dielectric constant tensor:
#      x y z
#    x 4.168700 0.000000 0.000000 
#    y 0.000000 4.168700 0.000000 
#    z 0.000000 0.000000 3.580500 
# 
# 
# High freq. dielectric constant tensor:
#      x y z
#    x 1.836350 0.000000 0.000000 
#    y 0.000000 1.836350 0.000000 
#    z 0.000000 0.000000 1.801860 
# 
# From -- ./inp_files/4885.got.cif
#   From: 2010.03.12/outbox.cif.g09.slc.cpg/sg126_3_cif.got.tgz:4885.got - 2010.04.06 16:55:23.
