data_PCOD8313173
_publ_section_title
;
Structure prediction by ZEFSAII (Michael W. Deem and Ramdas Pophale) SiO2 
 PCOD8313173
Probable space group: P 4/M C C
;
_chemical_formula_sum "Si O2"
_cell_formula_units_Z 96
_cell_length_a 23.978695
_cell_length_b 23.978695
_cell_length_c 9.294263
_cell_angle_alpha 90.000000
_cell_angle_beta 90.000000
_cell_angle_gamma 90.000000
_cell_volume 5343.995022
_symmetry_space_group_name_H-M "P 4/M C C"
_symmetry_group_IT_number 124
_symmetry_cell_setting 'tetragonal'
loop_
_space_group_symop_operation_xyz
x,y,z
-y,x,z
-x,-y,z
y,-x,z
x,-y,1/2-z
-x,y,1/2-z
y,x,1/2-z
-y,-x,1/2-z
-x,-y,-z
y,-x,-z
x,y,-z
-y,x,-z
-x,y,1/2+z
x,-y,1/2+z
-y,-x,1/2+z
y,x,1/2+z
loop_
_atom_site_type_symbol
_atom_site_label
_atom_site_fract_x
_atom_site_fract_y
_atom_site_fract_z
Si Si1 0.217672 0.099754 0.500000
Si Si2 0.000000 0.669368 0.250000
Si Si3 0.197514 0.142788 0.000000
Si Si4 0.209833 0.442806 0.672048
Si Si5 0.246863 0.021305 0.000000
Si Si6 0.272769 0.836923 0.249041
Si Si7 0.620891 0.103859 0.340042
Si Si8 0.341540 0.265247 0.666752
O O1 0.157809 0.131509 0.500000
O O2 0.206856 0.033142 0.500000
O O3 0.254778 0.115156 0.362237
O O4 0.021188 0.710504 0.129078
O O5 0.946951 0.628031 0.225203
O O6 0.221923 0.174041 0.140295
O O7 0.207667 0.076140 0.000000
O O8 0.225349 0.500000 0.750000
O O9 0.221290 0.444779 0.500000
O O10 0.144526 0.429764 0.704148
O O11 0.247492 0.396480 0.747947
O O12 0.323313 0.859171 0.345622
O O13 0.292590 0.781219 0.168806
O O14 0.610466 0.079380 0.500000
O O15 0.319865 0.319865 0.750000
O O16 0.355437 0.278610 0.500000
#
# Coordination Sequence:
#
# PCOD8313173 Si02
#       8
#     8   8   8  16   8  16  16  16
#     4  12  22  32  50  77  96 132 174 212 270 349
#     4  12  18  34  53  76 100 129 168 224 278 330
#     4  12  22  36  48  69 108 134 162 218 280 345
#     4  10  22  40  58  78 113 156 196 233 276 329
#     4  12  22  34  52  71 103 132 172 216 280 344
#     4  11  20  33  50  76 107 135 165 213 280 348
#     4  10  19  34  55  76 104 137 171 223 280 327
#     4  11  22  34  55  86 117 149 189 232 281 337
#
# _framework density 17.964089000000001
#
# number of rings (size 3 to 8) (size 9 to 14) (size 15 to 20)
#    0.000    1.000    5.833    2.500    2.333    0.000 
#    1.500    0.417    0.000    2.250    0.000    0.000 
#    0.000    4.333    0.000    3.333    0.000    2.833 
#
# Total GULP energy -1189783.303744 kJ/mol
# GULP energy per Si atom -12393.576081 kJ/mol
# Density = 1.792320 g / cm^3
# Si number density = 17.964089 Si / 1000 Ang^3
#
#
#
# Elastic Constant Matrix: (Units=GPa)
#
#
# Indices 1 2 3 4 5 6 
#
# 1 94.7864 48.7122 39.5138 0.0000 0.0000 0.0000
# 2 48.7122 94.7864 39.5138 0.0000 0.0000 0.0000
# 3 39.5138 39.5138 115.3284 0.0000 0.0000 0.0000
# 4 0.0000 0.0000 0.0000 23.3511 0.0000 0.0000
# 5 0.0000 0.0000 0.0000 0.0000 23.3511 0.0000
# 6 0.0000 0.0000 0.0000 0.0000 0.0000 20.6273
#
#
#
# Elastic Compliance Matrix: (Units=1/GPa)
#
#
# Indices 1 2 3 4 5 6 
#
# 1 0.015147 -0.006557 -0.002943 0.000000 0.000000 0.000000
# 2 -0.006557 0.015147 -0.002943 0.000000 0.000000 0.000000
# 3 -0.002943 -0.002943 0.010687 0.000000 0.000000 0.000000
# 4 0.000000 0.000000 0.000000 0.042825 0.000000 0.000000
# 5 0.000000 0.000000 0.000000 0.000000 0.042825 0.000000
# 6 0.000000 0.000000 0.000000 0.000000 0.000000 0.048479
#
#
# Mechanical properties :
#
#
# Convention : Reuss Voigt Hill
#
# Bulk Modulus (GPa) = 62.13221 62.26453 62.19837
# Shear Modulus (GPa) = 24.34737 25.27664 24.81200
#
# Velocity S-wave (km/s) = 3.68548 3.75516 3.72048
# Velocity P-wave (km/s) = 7.26446 7.31693 7.29074
#
# Compressibility (1/GPa) = 0.01609471
#
# Stress axis : x y z
#
# Youngs Moduli (GPa) = 66.02060 66.02060 93.56740
#
# Poissons Ratio (x) = 0.43292 0.27536
# Poissons Ratio (y) = 0.43292 0.27536
# Poissons Ratio (z) = 0.19429 0.19429
#
# Static dielectric constant tensor:
#      x y z
#    x 3.194380 0.000000 0.000000 
#    y 0.000000 3.194380 0.000000 
#    z 0.000000 0.000000 3.365250 
# 
# 
# High freq. dielectric constant tensor:
#      x y z
#    x 1.671250 0.000000 0.000000 
#    y 0.000000 1.671250 0.000000 
#    z 0.000000 0.000000 1.710520 
# 
# From -- ./inp_files/1454.got.cif
#   From: 2010.03.12/outbox.cif.g09.slc.cpg/sg124_1_cif.got.tgz:1454.got - 2010.04.06 16:38:57.
