data_PCOD8313646
_publ_section_title
;
Structure prediction by ZEFSAII (Michael W. Deem and Ramdas Pophale) SiO2 
 PCOD8313646
Probable space group: P 4/N N C
;
_chemical_formula_sum "Si O2"
_cell_formula_units_Z 96
_cell_length_a 24.118789
_cell_length_b 24.118789
_cell_length_c 9.953471
_cell_angle_alpha 90.000000
_cell_angle_beta 90.000000
_cell_angle_gamma 90.000000
_cell_volume 5790.093165
_symmetry_space_group_name_H-M "P 4/N N C"
_symmetry_group_IT_number 126
_space_group.IT_coordinate_system_code '2'
_symmetry_cell_setting 'tetragonal'
loop_
_space_group_symop_operation_xyz
x,y,z
1/2-y,x,z
1/2-x,1/2-y,z
y,1/2-x,z
x,1/2-y,1/2-z
1/2-x,y,1/2-z
y,x,1/2-z
1/2-y,1/2-x,1/2-z
-x,-y,-z
1/2+y,-x,-z
1/2+x,1/2+y,-z
-y,1/2+x,-z
-x,1/2+y,1/2+z
1/2+x,-y,1/2+z
-y,-x,1/2+z
1/2+y,1/2+x,1/2+z
loop_
_atom_site_type_symbol
_atom_site_label
_atom_site_fract_x
_atom_site_fract_y
_atom_site_fract_z
Si Si1 0.540524 0.627960 0.041441
Si Si2 0.250000 0.029128 0.250000
Si Si3 0.250000 0.339991 0.750000
Si Si4 0.130797 0.000395 0.250000
Si Si5 0.564463 0.473836 0.249999
Si Si6 0.931661 0.750000 0.038068
Si Si7 0.540524 0.627960 0.458560
O O1 0.489483 0.598971 0.117222
O O2 0.538159 0.692918 0.082961
O O3 0.598344 0.598345 0.087148
O O4 0.535584 0.617689 0.882771
O O5 0.250000 0.071546 0.376044
O O6 0.197019 0.987641 0.250000
O O7 0.194968 0.305033 0.750000
O O8 0.250000 0.372903 0.889946
O O9 0.092532 0.945385 0.250000
O O10 0.117689 0.035585 0.117231
O O11 0.504984 0.504984 0.250000
O O12 0.598970 0.489483 0.117220
O O13 0.961841 0.692917 0.082960
#
# Coordination Sequence:
#
# PCOD8313646 Si02
#       7
#    16   8   8  16  16  16  16
#     4  10  19  30  46  67  91 121 153 187 228 270
#     4   8  20  34  50  69  88 121 152 184 228 278
#     4  11  22  34  48  64  84 116 158 203 242 270
#     4  10  18  31  47  66  92 118 148 183 223 274
#     4  10  19  29  44  68  94 119 148 183 225 273
#     4  10  19  34  49  65  92 122 157 193 230 276
#     4  10  19  30  46  67  91 121 153 187 228 270
#
# _framework density 16.580043
#
# number of rings (size 3 to 8) (size 9 to 14) (size 15 to 20)
#    0.000    2.083    0.000    4.500    0.000    4.000 
#    0.000    2.500    0.000    1.000    0.000    0.000 
#    0.000    2.667    0.000   24.667    0.000   18.833 
#
# Total GULP energy -1189394.816869 kJ/mol
# GULP energy per Si atom -12389.529342 kJ/mol
# Density = 1.654231 g / cm^3
# Si number density = 16.580043 Si / 1000 Ang^3
#
#
#
# Elastic Constant Matrix: (Units=GPa)
#
#
# Indices 1 2 3 4 5 6 
#
# 1 111.0241 70.0905 42.5217 0.0000 0.0000 0.0000
# 2 70.0905 111.0235 42.5216 0.0000 0.0000 0.0000
# 3 42.5217 42.5216 95.0994 0.0000 0.0000 0.0000
# 4 0.0000 0.0000 0.0000 21.7663 0.0000 0.0000
# 5 0.0000 0.0000 0.0000 0.0000 21.7635 0.0000
# 6 0.0000 0.0000 0.0000 0.0000 0.0000 33.7508
#
#
#
# Elastic Compliance Matrix: (Units=1/GPa)
#
#
# Indices 1 2 3 4 5 6 
#
# 1 0.015709 -0.008721 -0.003125 0.000000 0.000000 0.000000
# 2 -0.008721 0.015709 -0.003125 0.000000 0.000000 0.000000
# 3 -0.003125 -0.003125 0.013310 0.000000 0.000000 0.000000
# 4 0.000000 0.000000 0.000000 0.045943 0.000000 0.000000
# 5 0.000000 0.000000 0.000000 0.000000 0.045949 0.000000
# 6 0.000000 0.000000 0.000000 0.000000 0.000000 0.029629
#
#
# Mechanical properties :
#
#
# Convention : Reuss Voigt Hill
#
# Bulk Modulus (GPa) = 67.62371 69.71274 68.66823
# Shear Modulus (GPa) = 24.86101 26.25701 25.55901
#
# Velocity S-wave (km/s) = 3.87648 3.98383 3.93052
# Velocity P-wave (km/s) = 7.80454 7.95604 7.88066
#
# Compressibility (1/GPa) = 0.01478771
#
# Stress axis : x y z
#
# Youngs Moduli (GPa) = 63.65670 63.65632 75.13313
#
# Poissons Ratio (x) = 0.55512 0.23478
# Poissons Ratio (y) = 0.55513 0.23478
# Poissons Ratio (z) = 0.19892 0.19892
#
# Static dielectric constant tensor:
#      x y z
#    x 3.082000 0.000000 0.000000 
#    y 0.000000 3.082010 0.000000 
#    z 0.000000 0.000000 3.411040 
# 
# 
# High freq. dielectric constant tensor:
#      x y z
#    x 1.615380 0.000000 0.000000 
#    y 0.000000 1.615380 0.000000 
#    z 0.000000 0.000000 1.664300 
# 
# From -- ./inp_files/2946.got.cif
#   From: 2010.03.12/outbox.cif.g09.slc.cpg/sg126_2_cif.got.tgz:2946.got - 2010.04.06 16:55:23.
