data_PCOD8313856
_publ_section_title
;
Structure prediction by ZEFSAII (Michael W. Deem and Ramdas Pophale) SiO2 
 PCOD8313856
Probable space group: P 4/M B M
;
_chemical_formula_sum "Si O2"
_cell_formula_units_Z 104
_cell_length_a 26.467511
_cell_length_b 26.467511
_cell_length_c 9.059430
_cell_angle_alpha 90.000000
_cell_angle_beta 90.000000
_cell_angle_gamma 90.000000
_cell_volume 6346.394694
_symmetry_space_group_name_H-M "P 4/M B M"
_symmetry_group_IT_number 127
_symmetry_cell_setting 'tetragonal'
loop_
_space_group_symop_operation_xyz
x,y,z
-y,x,z
-x,-y,z
y,-x,z
1/2+x,1/2-y,-z
1/2-x,1/2+y,-z
1/2+y,1/2+x,-z
1/2-y,1/2-x,-z
-x,-y,-z
y,-x,-z
x,y,-z
-y,x,-z
1/2-x,1/2+y,z
1/2+x,1/2-y,z
1/2-y,1/2-x,z
1/2+y,1/2+x,z
loop_
_atom_site_type_symbol
_atom_site_label
_atom_site_fract_x
_atom_site_fract_y
_atom_site_fract_z
Si Si1 0.966736 0.247341 0.832424
Si Si2 0.415950 0.721503 0.162044
Si Si3 0.329402 0.911205 0.830355
Si Si4 0.571465 0.373357 0.326923
Si Si5 0.353770 0.541198 0.324026
Si Si6 0.041183 0.541183 0.675011
Si Si7 0.986650 0.346173 0.674335
O O1 0.942007 0.199792 0.746248
O O2 0.954505 0.301216 0.753691
O O3 0.026186 0.238817 0.827537
O O4 0.946051 0.248895 0.000000
O O5 0.386657 0.773646 0.195054
O O6 0.401191 0.678404 0.278044
O O7 0.403606 0.699774 0.000000
O O8 0.367146 0.867146 0.793467
O O9 0.341062 0.954957 0.714888
O O10 0.334097 0.931116 0.000000
O O11 0.571354 0.375978 0.500000
O O12 0.513895 0.372464 0.267411
O O13 0.602864 0.420850 0.265796
O O14 0.347466 0.542105 0.500000
O O15 0.038509 0.538509 0.500000
O O16 0.029791 0.598131 0.729921
O O17 0.000000 0.500000 0.738111
O O18 0.979093 0.340052 0.500000
#
# Coordination Sequence:
#
# PCOD8313856 Si02
#       7
#    16  16  16  16  16   8  16
#     4   9  17  30  46  64  86 114 150 189 222 257
#     4   8  15  27  42  60  84 113 144 179 220 263
#     4   9  17  29  44  64  90 118 148 185 228 270
#     4   9  17  28  43  64  91 119 148 182 220 264
#     4   9  17  29  45  67  92 119 149 183 223 268
#     4   9  18  30  43  65  97 127 151 179 221 271
#     4  10  18  29  46  66  90 120 153 186 220 263
#
# _framework density 16.387257000000002
#
# number of rings (size 3 to 8) (size 9 to 14) (size 15 to 20)
#    0.000    3.000    0.000    2.308    0.000    5.538 
#    0.000    3.077    0.000    2.769    2.000    4.308 
#    0.000    0.000    0.000    0.000    0.000    0.000 
#
# Total GULP energy -1288708.335366 kJ/mol
# GULP energy per Si atom -12391.426302 kJ/mol
# Density = 1.634996 g / cm^3
# Si number density = 16.387257 Si / 1000 Ang^3
#
#
#
# Elastic Constant Matrix: (Units=GPa)
#
#
# Indices 1 2 3 4 5 6 
#
# 1 92.9757 51.7333 28.4207 0.0000 0.0000 0.0000
# 2 51.7333 92.9757 28.4207 0.0000 0.0000 0.0000
# 3 28.4207 28.4207 38.9720 0.0000 0.0000 0.0000
# 4 0.0000 0.0000 0.0000 19.0365 0.0000 0.0000
# 5 0.0000 0.0000 0.0000 0.0000 19.0365 0.0000
# 6 0.0000 0.0000 0.0000 0.0000 0.0000 11.5198
#
#
#
# Elastic Compliance Matrix: (Units=1/GPa)
#
#
# Indices 1 2 3 4 5 6 
#
# 1 0.016966 -0.007281 -0.007063 0.000000 0.000000 0.000000
# 2 -0.007281 0.016966 -0.007063 0.000000 0.000000 0.000000
# 3 -0.007063 -0.007063 0.035960 0.000000 0.000000 0.000000
# 4 0.000000 0.000000 0.000000 0.052531 0.000000 0.000000
# 5 0.000000 0.000000 0.000000 0.000000 0.052531 0.000000
# 6 0.000000 0.000000 0.000000 0.000000 0.000000 0.086807
#
#
# Mechanical properties :
#
#
# Convention : Reuss Voigt Hill
#
# Bulk Modulus (GPa) = 36.92867 49.11920 43.02394
# Shear Modulus (GPa) = 15.94389 17.67512 16.80951
#
# Velocity S-wave (km/s) = 3.12259 3.28775 3.20623
# Velocity P-wave (km/s) = 5.96529 6.66720 6.32599
#
# Compressibility (1/GPa) = 0.02707923
#
# Stress axis : x y z
#
# Youngs Moduli (GPa) = 58.94231 58.94231 27.80837
#
# Poissons Ratio (x) = 0.42917 0.19640
# Poissons Ratio (y) = 0.42917 0.19640
# Poissons Ratio (z) = 0.41629 0.41629
#
# Static dielectric constant tensor:
#      x y z
#    x 3.218770 0.000000 0.000000 
#    y 0.000000 3.218770 0.000000 
#    z 0.000000 0.000000 3.042830 
# 
# 
# High freq. dielectric constant tensor:
#      x y z
#    x 1.612970 0.000000 0.000000 
#    y 0.000000 1.612970 0.000000 
#    z 0.000000 0.000000 1.625370 
# 
# From -- ./inp_files/2300.got.cif
#   From: 2010.03.12/outbox.cif.g09.slc.cpg/sg127_2_cif.got.tgz:2300.got - 2010.04.06 17:03:15.
