data_PCOD8313309
_publ_section_title
;
Structure prediction by ZEFSAII (Michael W. Deem and Ramdas Pophale) SiO2 
 PCOD8313309
Probable space group: P 4/M C C
;
_chemical_formula_sum "Si O2"
_cell_formula_units_Z 112
_cell_length_a 15.111215
_cell_length_b 15.111215
_cell_length_c 26.987735
_cell_angle_alpha 90.000000
_cell_angle_beta 90.000000
_cell_angle_gamma 90.000000
_cell_volume 6162.617409
_symmetry_space_group_name_H-M "P 4/M C C"
_symmetry_group_IT_number 124
_symmetry_cell_setting 'tetragonal'
loop_
_space_group_symop_operation_xyz
x,y,z
-y,x,z
-x,-y,z
y,-x,z
x,-y,1/2-z
-x,y,1/2-z
y,x,1/2-z
-y,-x,1/2-z
-x,-y,-z
y,-x,-z
x,y,-z
-y,x,-z
-x,y,1/2+z
x,-y,1/2+z
-y,-x,1/2+z
y,x,1/2+z
loop_
_atom_site_type_symbol
_atom_site_label
_atom_site_fract_x
_atom_site_fract_y
_atom_site_fract_z
Si Si1 0.645604 0.499861 0.305342
Si Si2 0.102401 0.103500 0.806127
Si Si3 0.693479 0.678612 0.557540
Si Si4 0.984034 0.755132 0.057498
Si Si5 0.489399 0.742370 0.096282
Si Si6 0.080387 0.434185 0.944210
Si Si7 0.184940 0.832970 0.599507
O O1 0.586763 0.586583 0.313356
O O2 0.686681 0.500000 0.250000
O O3 0.723223 0.500649 0.345477
O O4 0.128283 0.128283 0.750000
O O5 0.161028 0.165286 0.842092
O O6 0.999376 0.122645 0.816170
O O7 0.706934 0.702307 0.500000
O O8 0.591260 0.687511 0.572727
O O9 0.720197 0.577794 0.566326
O O10 0.753883 0.746343 0.589053
O O11 0.950065 0.660195 0.076019
O O12 0.906015 0.824585 0.068481
O O13 0.073233 0.773711 0.086511
O O14 0.007845 0.754626 0.000000
O O15 0.471335 0.846094 0.092505
O O16 0.000000 0.500000 0.943862
O O17 0.119439 0.424934 0.000000
#
# Coordination Sequence:
#
# PCOD8313309 Si02
#       7
#    16  16  16  16  16  16  16
#     4   9  18  36  61  89 119 152 191 241 303 365
#     4   9  18  36  61  88 116 151 195 248 311 373
#     4  12  25  39  58  87 126 162 201 252 303 364
#     4  11  22  35  55  83 122 160 199 249 299 357
#     4  12  22  39  62  89 120 156 202 252 305 356
#     4  10  21  39  59  81 117 168 209 233 285 367
#     4  12  22  38  58  87 119 157 205 251 305 359
#
# _framework density 18.174097
#
# number of rings (size 3 to 8) (size 9 to 14) (size 15 to 20)
#    0.000    1.286    4.286    4.286    0.000    1.714 
#    0.000    2.857    0.000    0.429    0.000    0.000 
#    0.000    0.000    0.000    0.000    0.000    0.000 
#
# Total GULP energy -1389043.776569 kJ/mol
# GULP energy per Si atom -12402.176577 kJ/mol
# Density = 1.813273 g / cm^3
# Si number density = 18.174097 Si / 1000 Ang^3
#
#
#
# Elastic Constant Matrix: (Units=GPa)
#
#
# Indices 1 2 3 4 5 6 
#
# 1 96.3981 31.5429 49.3141 0.0000 0.0000 0.0000
# 2 31.5429 96.3981 49.3141 0.0000 0.0000 0.0000
# 3 49.3141 49.3141 127.9024 0.0000 0.0000 0.0000
# 4 0.0000 0.0000 0.0000 37.7048 0.0000 0.0000
# 5 0.0000 0.0000 0.0000 0.0000 37.7048 0.0000
# 6 0.0000 0.0000 0.0000 0.0000 0.0000 17.8666
#
#
#
# Elastic Compliance Matrix: (Units=1/GPa)
#
#
# Indices 1 2 3 4 5 6 
#
# 1 0.013270 -0.002149 -0.004288 0.000000 0.000000 0.000000
# 2 -0.002149 0.013270 -0.004288 0.000000 0.000000 0.000000
# 3 -0.004288 -0.004288 0.011125 0.000000 0.000000 0.000000
# 4 0.000000 0.000000 0.000000 0.026522 0.000000 0.000000
# 5 0.000000 0.000000 0.000000 0.000000 0.026522 0.000000
# 6 0.000000 0.000000 0.000000 0.000000 0.000000 0.055970
#
#
# Mechanical properties :
#
#
# Convention : Reuss Voigt Hill
#
# Bulk Modulus (GPa) = 61.66679 64.56011 63.11345
# Shear Modulus (GPa) = 28.81266 31.35708 30.08487
#
# Velocity S-wave (km/s) = 3.98599 4.15827 4.07304
# Velocity P-wave (km/s) = 7.42893 7.65867 7.54467
#
# Compressibility (1/GPa) = 0.01621618
#
# Stress axis : x y z
#
# Youngs Moduli (GPa) = 75.35590 75.35590 89.88674
#
# Poissons Ratio (x) = 0.16191 0.38544
# Poissons Ratio (y) = 0.16191 0.38544
# Poissons Ratio (z) = 0.32313 0.32313
#
# Static dielectric constant tensor:
#      x y z
#    x 3.326600 0.000000 0.000000 
#    y 0.000000 3.326600 0.000000 
#    z 0.000000 0.000000 3.400890 
# 
# 
# High freq. dielectric constant tensor:
#      x y z
#    x 1.703810 0.000000 0.000000 
#    y 0.000000 1.703810 0.000000 
#    z 0.000000 0.000000 1.698920 
# 
# From -- ./inp_files/6613.got.cif
#   From: 2010.03.12/outbox.cif.g09.slc.cpg/sg124_4_cif.got.tgz:6613.got - 2010.04.06 16:38:57.
