data_PCOD8313021
_publ_section_title
;
Structure prediction by ZEFSAII (Michael W. Deem and Ramdas Pophale) SiO2 
 PCOD8313021
Probable space group: P 4/M M M
;
_chemical_formula_sum "Si O2"
_cell_formula_units_Z 88
_cell_length_a 14.114931
_cell_length_b 14.114931
_cell_length_c 27.972314
_cell_angle_alpha 90.000000
_cell_angle_beta 90.000000
_cell_angle_gamma 90.000000
_cell_volume 5572.959843
_symmetry_space_group_name_H-M "P 4/M M M"
_symmetry_group_IT_number 123
_symmetry_cell_setting 'tetragonal'
loop_
_space_group_symop_operation_xyz
x,y,z
-y,x,z
-x,-y,z
y,-x,z
x,-y,-z
-x,y,-z
y,x,-z
-y,-x,-z
-x,-y,-z
y,-x,-z
x,y,-z
-y,x,-z
-x,y,z
x,-y,z
-y,-x,z
y,x,z
loop_
_atom_site_type_symbol
_atom_site_label
_atom_site_fract_x
_atom_site_fract_y
_atom_site_fract_z
Si Si1 0.612375 0.104601 0.137703
Si Si2 0.106336 0.743108 0.500000
Si Si3 0.608218 0.760555 0.220665
Si Si4 0.731445 0.111534 0.395825
Si Si5 0.391151 0.762072 0.946109
Si Si6 0.390450 0.235946 0.330026
O O1 0.500000 0.096771 0.137246
O O2 0.646777 0.157562 0.185700
O O3 0.647763 0.158793 0.090282
O O4 0.658092 0.000000 0.137618
O O5 0.158515 0.841486 0.500000
O O6 0.128359 0.689071 0.550066
O O7 0.000000 0.776789 0.500000
O O8 0.500000 0.735832 0.208866
O O9 0.664810 0.664810 0.210764
O O10 0.620755 0.795408 0.274992
O O11 0.829093 0.170908 0.388184
O O12 0.650133 0.148955 0.360673
O O13 0.750768 0.000000 0.385925
O O14 0.500000 0.737524 0.935235
O O15 0.334702 0.665299 0.938152
O O16 0.377879 0.801269 0.000000
O O17 0.500000 0.254536 0.343288
O O18 0.332597 0.332597 0.340702
#
# Coordination Sequence:
#
# PCOD8313021 Si02
#       6
#    16   8  16  16  16  16
#     4   9  17  28  41  58  82 112 143 172 202 239
#     4   8  14  25  41  61  86 114 142 176 219 264
#     4   9  17  29  45  65  88 112 139 172 210 253
#     4   9  17  29  45  66  91 117 146 180 219 265
#     4   9  17  28  42  61  85 112 141 174 212 254
#     4   9  18  31  46  65  88 115 148 184 221 261
#
# _framework density 15.790532000000001
#
# number of rings (size 3 to 8) (size 9 to 14) (size 15 to 20)
#    0.000    3.091    0.000    0.545    0.000    2.273 
#    0.000    8.636    0.000    4.909    0.000    0.000 
#    0.000    9.455    0.000    8.000    0.000    0.727 
#
# Total GULP energy -1090534.058723 kJ/mol
# GULP energy per Si atom -12392.432485 kJ/mol
# Density = 1.575459 g / cm^3
# Si number density = 15.790532 Si / 1000 Ang^3
#
#
#
# Elastic Constant Matrix: (Units=GPa)
#
#
# Indices 1 2 3 4 5 6 
#
# 1 86.7883 41.0710 58.0743 0.0000 0.0000 0.0000
# 2 41.0710 86.7881 58.0743 0.0000 0.0000 0.0000
# 3 58.0743 58.0743 115.1637 0.0000 0.0000 0.0000
# 4 0.0000 0.0000 0.0000 24.5268 0.0000 0.0000
# 5 0.0000 0.0000 0.0000 0.0000 24.5269 0.0000
# 6 0.0000 0.0000 0.0000 0.0000 0.0000 9.6780
#
#
#
# Elastic Compliance Matrix: (Units=1/GPa)
#
#
# Indices 1 2 3 4 5 6 
#
# 1 0.018153 -0.003721 -0.007278 0.000000 0.000000 0.000000
# 2 -0.003721 0.018153 -0.007278 0.000000 0.000000 0.000000
# 3 -0.007278 -0.007278 0.016023 0.000000 0.000000 0.000000
# 4 0.000000 0.000000 0.000000 0.040772 0.000000 0.000000
# 5 0.000000 0.000000 0.000000 0.000000 0.040772 0.000000
# 6 0.000000 0.000000 0.000000 0.000000 0.000000 0.103327
#
#
# Mechanical properties :
#
#
# Convention : Reuss Voigt Hill
#
# Bulk Modulus (GPa) = 63.38494 67.01994 65.20244
# Shear Modulus (GPa) = 17.92039 20.51437 19.21738
#
# Velocity S-wave (km/s) = 3.37246 3.60829 3.49236
# Velocity P-wave (km/s) = 7.44264 7.73918 7.59236
#
# Compressibility (1/GPa) = 0.01577662
#
# Stress axis : x y z
#
# Youngs Moduli (GPa) = 55.08728 55.08711 62.40847
#
# Poissons Ratio (x) = 0.20496 0.45420
# Poissons Ratio (y) = 0.20496 0.45421
# Poissons Ratio (z) = 0.40092 0.40092
#
# Static dielectric constant tensor:
#      x y z
#    x 2.890700 0.000000 0.000000 
#    y 0.000000 2.890700 0.000000 
#    z 0.000000 0.000000 3.356030 
# 
# 
# High freq. dielectric constant tensor:
#      x y z
#    x 1.583950 0.000000 0.000000 
#    y 0.000000 1.583950 0.000000 
#    z 0.000000 0.000000 1.624600 
# 
# From -- ./inp_files/8440.got.cif
#   From: 2010.03.12/outbox.cif.g09.slc.cpg/sg123_5_cif.got.tgz:8440.got - 2010.04.06 16:26:55.
