data_PCOD8313009
_publ_section_title
;
Structure prediction by ZEFSAII (Michael W. Deem and Ramdas Pophale) SiO2 
 PCOD8313009
Probable space group: P 4/M M M
;
_chemical_formula_sum "Si O2"
_cell_formula_units_Z 80
_cell_length_a 14.818015
_cell_length_b 14.818015
_cell_length_c 24.761019
_cell_angle_alpha 90.000000
_cell_angle_beta 90.000000
_cell_angle_gamma 90.000000
_cell_volume 5436.865303
_symmetry_space_group_name_H-M "P 4/M M M"
_symmetry_group_IT_number 123
_symmetry_cell_setting 'tetragonal'
loop_
_space_group_symop_operation_xyz
x,y,z
-y,x,z
-x,-y,z
y,-x,z
x,-y,-z
-x,y,-z
y,x,-z
-y,-x,-z
-x,-y,-z
y,-x,-z
x,y,-z
-y,x,-z
-x,y,z
x,-y,z
-y,-x,z
y,x,z
loop_
_atom_site_type_symbol
_atom_site_label
_atom_site_fract_x
_atom_site_fract_y
_atom_site_fract_z
Si Si1 0.603014 0.749684 0.735322
Si Si2 0.896761 0.750825 0.438081
Si Si3 0.395934 0.250840 0.141049
Si Si4 0.103242 0.603247 0.351570
Si Si5 0.392870 0.100115 0.060401
O O1 0.500000 0.719618 0.724965
O O2 0.664898 0.664898 0.719646
O O3 0.616976 0.779797 0.797143
O O4 0.630066 0.835365 0.699265
O O5 0.880437 0.722770 0.500000
O O6 0.835627 0.835627 0.421228
O O7 0.870037 0.664459 0.402501
O O8 0.000000 0.780120 0.428211
O O9 0.500000 0.270760 0.127344
O O10 0.342715 0.342715 0.128912
O O11 0.355057 0.171510 0.103669
O O12 0.119291 0.500000 0.369268
O O13 0.000000 0.619298 0.333811
O O14 0.500000 0.097931 0.063900
O O15 0.355267 0.000000 0.074081
O O16 0.362316 0.128502 0.000000
#
# Coordination Sequence:
#
# PCOD8313009 Si02
#       5
#    16  16  16  16  16
#     4   9  17  28  41  57  78 104 133 164 195 228
#     4   9  17  28  42  60  81 105 131 158 190 230
#     4   9  17  27  39  57  80 106 134 161 191 229
#     4   9  17  28  42  60  80 102 129 162 200 237
#     4   8  14  25  40  56  74  98 128 161 195 227
#
# _framework density 14.714361999999999
#
# number of rings (size 3 to 8) (size 9 to 14) (size 15 to 20)
#    0.000    3.200    0.000    1.200    0.000    2.200 
#    0.000    9.000    0.000    0.000    0.000    2.800 
#    0.000    0.400    0.000   25.200    0.000    6.000 
#
# Total GULP energy -991776.180727 kJ/mol
# GULP energy per Si atom -12397.202259 kJ/mol
# Density = 1.468087 g / cm^3
# Si number density = 14.714362 Si / 1000 Ang^3
#
#
#
# Elastic Constant Matrix: (Units=GPa)
#
#
# Indices 1 2 3 4 5 6 
#
# 1 80.9876 53.7153 61.1473 0.0000 0.0000 0.0000
# 2 53.7153 80.9876 61.1473 0.0000 0.0000 0.0000
# 3 61.1473 61.1473 90.9659 0.0000 0.0000 0.0000
# 4 0.0000 0.0000 0.0000 24.2640 0.0000 0.0000
# 5 0.0000 0.0000 0.0000 0.0000 24.2640 0.0000
# 6 0.0000 0.0000 0.0000 0.0000 0.0000 17.7536
#
#
#
# Elastic Compliance Matrix: (Units=1/GPa)
#
#
# Indices 1 2 3 4 5 6 
#
# 1 0.027858 -0.008809 -0.012805 0.000000 0.000000 0.000000
# 2 -0.008809 0.027858 -0.012805 0.000000 0.000000 0.000000
# 3 -0.012805 -0.012805 0.028208 0.000000 0.000000 0.000000
# 4 0.000000 0.000000 0.000000 0.041213 0.000000 0.000000
# 5 0.000000 0.000000 0.000000 0.000000 0.041213 0.000000
# 6 0.000000 0.000000 0.000000 0.000000 0.000000 0.056327
#
#
# Mechanical properties :
#
#
# Convention : Reuss Voigt Hill
#
# Bulk Modulus (GPa) = 66.28289 67.21786 66.75037
# Shear Modulus (GPa) = 16.86094 18.38505 17.62299
#
# Velocity S-wave (km/s) = 3.38876 3.53861 3.46450
# Velocity P-wave (km/s) = 7.77533 7.90422 7.84004
#
# Compressibility (1/GPa) = 0.01508685
#
# Stress axis : x y z
#
# Youngs Moduli (GPa) = 35.89622 35.89622 35.45124
#
# Poissons Ratio (x) = 0.31622 0.45394
# Poissons Ratio (y) = 0.31622 0.45394
# Poissons Ratio (z) = 0.45964 0.45964
#
# Static dielectric constant tensor:
#      x y z
#    x 2.835820 0.000000 0.000000 
#    y 0.000000 2.835820 0.000000 
#    z 0.000000 0.000000 2.955760 
# 
# 
# High freq. dielectric constant tensor:
#      x y z
#    x 1.549720 0.000000 0.000000 
#    y 0.000000 1.549720 0.000000 
#    z 0.000000 0.000000 1.565320 
# 
# From -- ./inp_files/6255.got.cif
#   From: 2010.03.12/outbox.cif.g09.slc.cpg/sg123_4_cif.got.tgz:6255.got - 2010.04.06 16:26:55.
