data_PCOD8313452
_publ_section_title
;
Structure prediction by ZEFSAII (Michael W. Deem and Ramdas Pophale) SiO2 
 PCOD8313452
Probable space group: P 4/N B M
;
_chemical_formula_sum "Si O2"
_cell_formula_units_Z 128
_cell_length_a 17.980374
_cell_length_b 17.980374
_cell_length_c 23.202698
_cell_angle_alpha 90.000000
_cell_angle_beta 90.000000
_cell_angle_gamma 90.000000
_cell_volume 7501.289548
_symmetry_space_group_name_H-M "P 4/N B M"
_symmetry_group_IT_number 125
_space_group.IT_coordinate_system_code '2'
_symmetry_cell_setting 'tetragonal'
loop_
_space_group_symop_operation_xyz
x,y,z
1/2-y,x,z
1/2-x,1/2-y,z
y,1/2-x,z
x,1/2-y,-z
1/2-x,y,-z
y,x,-z
1/2-y,1/2-x,-z
-x,-y,-z
1/2+y,-x,-z
1/2+x,1/2+y,-z
-y,1/2+x,-z
-x,1/2+y,z
1/2+x,-y,z
-y,-x,z
1/2+y,1/2+x,z
loop_
_atom_site_type_symbol
_atom_site_label
_atom_site_fract_x
_atom_site_fract_y
_atom_site_fract_z
Si Si1 0.004380 0.624370 0.256686
Si Si2 0.883936 0.506452 0.257839
Si Si3 0.746238 0.129139 0.563264
Si Si4 0.255398 0.501602 0.346995
Si Si5 0.563923 0.939160 0.934879
Si Si6 0.371208 0.247937 0.564629
Si Si7 0.038949 0.837554 0.134275
Si Si8 0.666863 0.454707 0.129918
O O1 0.923862 0.585940 0.248678
O O2 0.062957 0.562957 0.276913
O O3 0.003483 0.686012 0.305053
O O4 0.029021 0.660940 0.197192
O O5 0.944065 0.444065 0.271894
O O6 0.830094 0.512465 0.311881
O O7 0.838164 0.484438 0.200986
O O8 0.750000 0.089355 0.500000
O O9 0.806827 0.193174 0.563695
O O10 0.664680 0.164680 0.572624
O O11 0.763311 0.076180 0.616522
O O12 0.242233 0.436453 0.390976
O O13 0.531853 0.867175 0.901977
O O14 0.501517 0.001517 0.932505
O O15 0.637104 0.973080 0.904646
O O16 0.583909 0.916092 0.000000
O O17 0.324255 0.321701 0.575186
O O18 0.403528 0.250000 0.500000
O O19 0.111722 0.888279 0.123166
O O20 0.058134 0.753528 0.114527
O O21 0.619286 0.380715 0.113584
#
# Coordination Sequence:
#
# PCOD8313452 Si02
#       8
#    16  16  16  16  16  16  16  16
#     4  10  20  33  48  71 104 137 166 209 260 306
#     4  10  20  33  48  71 104 137 166 209 260 306
#     4   9  19  35  51  69  99 136 170 208 253 304
#     4  12  19  30  52  78  95 126 172 212 253 311
#     4   9  18  34  58  81 103 141 190 222 244 300
#     4   9  19  35  51  69  95 124 159 208 260 309
#     4  10  19  34  54  79 111 144 178 217 265 314
#     4  10  19  34  54  79 111 144 178 217 265 314
#
# _framework density 17.063732999999999
#
# number of rings (size 3 to 8) (size 9 to 14) (size 15 to 20)
#    0.000    2.125    2.500    2.625    0.000    0.750 
#    0.000    0.000    0.000    0.375    0.000   14.875 
#    0.000    0.000    0.000    0.000    0.000    0.000 
#
# Total GULP energy -1586983.787136 kJ/mol
# GULP energy per Si atom -12398.310837 kJ/mol
# Density = 1.702489 g / cm^3
# Si number density = 17.063733 Si / 1000 Ang^3
#
#
#
# Elastic Constant Matrix: (Units=GPa)
#
#
# Indices 1 2 3 4 5 6 
#
# 1 81.7324 24.5401 32.1573 0.0000 0.0000 0.0000
# 2 24.5401 81.7325 32.1572 0.0000 0.0000 0.0000
# 3 32.1573 32.1572 77.3445 0.0000 0.0000 0.0000
# 4 0.0000 0.0000 0.0000 27.7596 0.0000 0.0000
# 5 0.0000 0.0000 0.0000 0.0000 27.7597 0.0000
# 6 0.0000 0.0000 0.0000 0.0000 0.0000 8.3753
#
#
#
# Elastic Compliance Matrix: (Units=1/GPa)
#
#
# Indices 1 2 3 4 5 6 
#
# 1 0.015029 -0.002456 -0.005228 0.000000 0.000000 0.000000
# 2 -0.002456 0.015029 -0.005228 0.000000 0.000000 0.000000
# 3 -0.005228 -0.005228 0.017276 0.000000 0.000000 0.000000
# 4 0.000000 0.000000 0.000000 0.036024 0.000000 0.000000
# 5 0.000000 0.000000 0.000000 0.000000 0.036023 0.000000
# 6 0.000000 0.000000 0.000000 0.000000 0.000000 0.119399
#
#
# Mechanical properties :
#
#
# Convention : Reuss Voigt Hill
#
# Bulk Modulus (GPa) = 46.48457 46.50208 46.49333
# Shear Modulus (GPa) = 18.39769 22.90924 20.65346
#
# Velocity S-wave (km/s) = 3.28712 3.66808 3.48281
# Velocity P-wave (km/s) = 6.45815 6.72688 6.59389
#
# Compressibility (1/GPa) = 0.02151251
#
# Stress axis : x y z
#
# Youngs Moduli (GPa) = 66.53729 66.53742 57.88345
#
# Poissons Ratio (x) = 0.16340 0.30259
# Poissons Ratio (y) = 0.16340 0.30259
# Poissons Ratio (z) = 0.34783 0.34783
#
# Static dielectric constant tensor:
#      x y z
#    x 3.274870 0.000000 0.000000 
#    y 0.000000 3.274860 0.000000 
#    z 0.000000 0.000000 3.314040 
# 
# 
# High freq. dielectric constant tensor:
#      x y z
#    x 1.650130 0.000000 0.000000 
#    y 0.000000 1.650130 0.000000 
#    z 0.000000 0.000000 1.667730 
# 
# From -- ./inp_files/6308.got.cif
#   From: 2010.03.12/outbox.cif.g09.slc.cpg/sg125_4_cif.got.tgz:6308.got - 2010.04.06 16:47:52.
