data_PCOD8313519
_publ_section_title
;
Structure prediction by ZEFSAII (Michael W. Deem and Ramdas Pophale) SiO2 
 PCOD8313519
Probable space group: P 4/N B M
;
_chemical_formula_sum "Si O2"
_cell_formula_units_Z 112
_cell_length_a 13.756003
_cell_length_b 13.756003
_cell_length_c 34.152630
_cell_angle_alpha 90.000000
_cell_angle_beta 90.000000
_cell_angle_gamma 90.000000
_cell_volume 6462.620842
_symmetry_space_group_name_H-M "P 4/N B M"
_symmetry_group_IT_number 125
_space_group.IT_coordinate_system_code '2'
_symmetry_cell_setting 'tetragonal'
loop_
_space_group_symop_operation_xyz
x,y,z
1/2-y,x,z
1/2-x,1/2-y,z
y,1/2-x,z
x,1/2-y,-z
1/2-x,y,-z
y,x,-z
1/2-y,1/2-x,-z
-x,-y,-z
1/2+y,-x,-z
1/2+x,1/2+y,-z
-y,1/2+x,-z
-x,1/2+y,z
1/2+x,-y,z
-y,-x,z
1/2+y,1/2+x,z
loop_
_atom_site_type_symbol
_atom_site_label
_atom_site_fract_x
_atom_site_fract_y
_atom_site_fract_z
Si Si1 0.991893 0.653325 0.348362
Si Si2 0.512572 0.851878 0.611003
Si Si3 0.011134 0.350429 0.479537
Si Si4 0.752015 0.407086 0.045544
Si Si5 0.275867 0.407819 0.814466
Si Si6 0.593284 0.711210 0.730503
Si Si7 0.736696 0.588700 0.100915
O O1 0.893183 0.605348 0.365217
O O2 0.982674 0.685027 0.303159
O O3 0.080724 0.580724 0.353311
O O4 0.017598 0.747383 0.373293
O O5 0.421314 0.921314 0.617391
O O6 0.539007 0.839567 0.565719
O O7 0.983750 0.250000 0.500000
O O8 0.105885 0.394116 0.500000
O O9 0.918402 0.418402 0.485772
O O10 0.664650 0.335351 0.056284
O O11 0.854320 0.354320 0.056142
O O12 0.736238 0.506082 0.068634
O O13 0.750000 0.433692 0.000000
O O14 0.171808 0.358845 0.814186
O O15 0.293139 0.463680 0.772979
O O16 0.277215 0.464337 0.856161
O O17 0.680401 0.634339 0.726493
O O18 0.837390 0.647007 0.095955
#
# Coordination Sequence:
#
# PCOD8313519 Si02
#       7
#    16  16  16  16  16  16  16
#     4  11  21  34  53  77 106 139 172 210 253 298
#     4  10  22  37  54  78 106 133 167 210 254 302
#     4  10  21  38  57  78 104 134 168 209 254 300
#     4   9  19  35  51  67  93 133 178 220 260 305
#     4   7  12  24  45  71 100 130 159 199 251 300
#     4   9  15  28  51  76 100 129 168 212 251 292
#     4   9  17  30  49  76 106 131 161 208 261 312
#
# _framework density 17.330431000000001
#
# number of rings (size 3 to 8) (size 9 to 14) (size 15 to 20)
#    0.000    2.714    1.429    3.000    0.000    3.714 
#    0.000    5.714    0.000    6.000    0.000    0.000 
#    0.000    0.000    0.000    0.000    0.000    0.000 
#
# Total GULP energy -1387656.323891 kJ/mol
# GULP energy per Si atom -12389.788606 kJ/mol
# Density = 1.729099 g / cm^3
# Si number density = 17.330431 Si / 1000 Ang^3
#
#
#
# Elastic Constant Matrix: (Units=GPa)
#
#
# Indices 1 2 3 4 5 6 
#
# 1 75.2200 19.9552 58.4901 0.0000 0.0000 0.0000
# 2 19.9552 75.2215 58.4908 0.0000 0.0000 0.0000
# 3 58.4901 58.4908 141.4677 0.0000 0.0000 0.0000
# 4 0.0000 0.0000 0.0000 18.5141 0.0000 0.0000
# 5 0.0000 0.0000 0.0000 0.0000 18.5148 0.0000
# 6 0.0000 0.0000 0.0000 0.0000 0.0000 8.2402
#
#
#
# Elastic Compliance Matrix: (Units=1/GPa)
#
#
# Indices 1 2 3 4 5 6 
#
# 1 0.019729 0.001634 -0.008833 0.000000 0.000000 0.000000
# 2 0.001634 0.019729 -0.008833 0.000000 0.000000 0.000000
# 3 -0.008833 -0.008833 0.014373 0.000000 0.000000 0.000000
# 4 0.000000 0.000000 0.000000 0.054013 0.000000 0.000000
# 5 0.000000 0.000000 0.000000 0.000000 0.054011 0.000000
# 6 0.000000 0.000000 0.000000 0.000000 0.000000 0.121356
#
#
# Mechanical properties :
#
#
# Convention : Reuss Voigt Hill
#
# Bulk Modulus (GPa) = 45.93880 62.86459 54.40170
# Shear Modulus (GPa) = 15.50251 19.38535 17.44393
#
# Velocity S-wave (km/s) = 2.99411 3.34814 3.17606
# Velocity P-wave (km/s) = 6.20629 7.16237 6.70140
#
# Compressibility (1/GPa) = 0.02176809
#
# Stress axis : x y z
#
# Youngs Moduli (GPa) = 50.68693 50.68787 69.57705
#
# Poissons Ratio (x) = -0.08284 0.61455
# Poissons Ratio (y) = -0.08284 0.61455
# Poissons Ratio (z) = 0.44770 0.44771
#
# Static dielectric constant tensor:
#      x y z
#    x 2.973240 0.000000 0.000000 
#    y 0.000000 2.973230 0.000000 
#    z 0.000000 0.000000 3.705090 
# 
# 
# High freq. dielectric constant tensor:
#      x y z
#    x 1.644960 0.000000 0.000000 
#    y 0.000000 1.644960 0.000000 
#    z 0.000000 0.000000 1.693680 
# 
# From -- ./inp_files/6640.got.cif
#   From: 2010.03.12/outbox.cif.g09.slc.cpg/sg125_4_cif.got.tgz:6640.got - 2010.04.06 16:47:52.
