data_PCOD8313707
_publ_section_title
;
Structure prediction by ZEFSAII (Michael W. Deem and Ramdas Pophale) SiO2 
 PCOD8313707
Probable space group: P 4/N N C
;
_chemical_formula_sum "Si O2"
_cell_formula_units_Z 96
_cell_length_a 15.455222
_cell_length_b 15.455222
_cell_length_c 21.553545
_cell_angle_alpha 90.000000
_cell_angle_beta 90.000000
_cell_angle_gamma 90.000000
_cell_volume 5148.363539
_symmetry_space_group_name_H-M "P 4/N N C"
_symmetry_group_IT_number 126
_space_group.IT_coordinate_system_code '2'
_symmetry_cell_setting 'tetragonal'
loop_
_space_group_symop_operation_xyz
x,y,z
1/2-y,x,z
1/2-x,1/2-y,z
y,1/2-x,z
x,1/2-y,1/2-z
1/2-x,y,1/2-z
y,x,1/2-z
1/2-y,1/2-x,1/2-z
-x,-y,-z
1/2+y,-x,-z
1/2+x,1/2+y,-z
-y,1/2+x,-z
-x,1/2+y,1/2+z
1/2+x,-y,1/2+z
-y,-x,1/2+z
1/2+y,1/2+x,1/2+z
loop_
_atom_site_type_symbol
_atom_site_label
_atom_site_fract_x
_atom_site_fract_y
_atom_site_fract_z
Si Si1 0.656860 0.257326 0.151098
Si Si2 0.250000 0.986622 0.250000
Si Si3 0.563581 0.563581 0.750000
Si Si4 0.462811 0.016046 0.865952
Si Si5 0.082299 0.847605 0.426721
Si Si6 0.854871 0.830231 0.178384
Si Si7 0.605772 0.345696 0.942109
O O1 0.750000 0.250000 0.186361
O O2 0.576411 0.228715 0.192681
O O3 0.642539 0.356165 0.132624
O O4 0.663558 0.199219 0.089371
O O5 0.166361 0.047701 0.256518
O O6 0.524210 0.523589 0.812932
O O7 0.502972 0.090048 0.909993
O O8 0.381787 0.058090 0.832121
O O9 0.426009 0.942192 0.910242
O O10 0.131760 0.883652 0.486369
O O11 0.055363 0.746690 0.436451
O O12 0.766007 0.869971 0.149670
O O13 0.832581 0.832581 0.250000
#
# Coordination Sequence:
#
# PCOD8313707 Si02
#       7
#    16   8   8  16  16  16  16
#     4  10  21  36  63  91 124 155 189 243 307 354
#     4  12  23  47  58  92 120 156 200 255 299 354
#     4  12  26  39  64  81 122 148 208 250 298 356
#     4  12  22  38  56  93 114 160 194 254 291 352
#     4  11  22  38  61  88 120 157 197 242 297 359
#     4   9  18  33  53  80 120 160 194 237 290 353
#     4  11  22  38  61  88 120 157 197 242 297 359
#
# _framework density 18.646702999999999
#
# number of rings (size 3 to 8) (size 9 to 14) (size 15 to 20)
#    0.000    1.167    5.833    2.250    0.000    0.167 
#    0.000    0.000    0.000    0.000    0.000    0.000 
#    0.000    0.000    0.000    0.000    0.000    0.000 
#
# Total GULP energy -1189697.739155 kJ/mol
# GULP energy per Si atom -12392.684783 kJ/mol
# Density = 1.860426 g / cm^3
# Si number density = 18.646703 Si / 1000 Ang^3
#
#
#
# Elastic Constant Matrix: (Units=GPa)
#
#
# Indices 1 2 3 4 5 6 
#
# 1 89.8029 42.7626 23.3341 0.0000 0.0000 0.0000
# 2 42.7626 89.8029 23.3341 0.0000 0.0000 0.0000
# 3 23.3341 23.3341 65.6205 0.0000 0.0000 0.0000
# 4 0.0000 0.0000 0.0000 23.3040 0.0000 0.0000
# 5 0.0000 0.0000 0.0000 0.0000 23.3040 0.0000
# 6 0.0000 0.0000 0.0000 0.0000 0.0000 33.7080
#
#
#
# Elastic Compliance Matrix: (Units=1/GPa)
#
#
# Indices 1 2 3 4 5 6 
#
# 1 0.014941 -0.006318 -0.003066 0.000000 0.000000 0.000000
# 2 -0.006318 0.014941 -0.003066 0.000000 0.000000 0.000000
# 3 -0.003066 -0.003066 0.017420 0.000000 0.000000 0.000000
# 4 0.000000 0.000000 0.000000 0.042911 0.000000 0.000000
# 5 0.000000 0.000000 0.000000 0.000000 0.042911 0.000000
# 6 0.000000 0.000000 0.000000 0.000000 0.000000 0.029667
#
#
# Mechanical properties :
#
#
# Convention : Reuss Voigt Hill
#
# Bulk Modulus (GPa) = 44.64158 47.12089 45.88123
# Shear Modulus (GPa) = 25.62041 26.44958 26.03500
#
# Velocity S-wave (km/s) = 3.71076 3.77033 3.74066
# Velocity P-wave (km/s) = 6.50787 6.65425 6.58147
#
# Compressibility (1/GPa) = 0.02240064
#
# Stress axis : x y z
#
# Youngs Moduli (GPa) = 66.93161 66.93161 57.40596
#
# Poissons Ratio (x) = 0.42286 0.17602
# Poissons Ratio (y) = 0.42286 0.17602
# Poissons Ratio (z) = 0.20523 0.20523
#
# Static dielectric constant tensor:
#      x y z
#    x 3.461070 0.000000 0.000000 
#    y 0.000000 3.461070 0.000000 
#    z 0.000000 0.000000 3.257430 
# 
# 
# High freq. dielectric constant tensor:
#      x y z
#    x 1.725820 0.000000 0.000000 
#    y 0.000000 1.725820 0.000000 
#    z 0.000000 0.000000 1.712940 
# 
# From -- ./inp_files/5305.got.cif
#   From: 2010.03.12/outbox.cif.g09.slc.cpg/sg126_3_cif.got.tgz:5305.got - 2010.04.06 16:55:23.
