data_PCOD8313659
_publ_section_title
;
Structure prediction by ZEFSAII (Michael W. Deem and Ramdas Pophale) SiO2 
 PCOD8313659
Probable space group: P 4/N N C
;
_chemical_formula_sum "Si O2"
_cell_formula_units_Z 112
_cell_length_a 15.259939
_cell_length_b 15.259939
_cell_length_c 26.478772
_cell_angle_alpha 90.000000
_cell_angle_beta 90.000000
_cell_angle_gamma 90.000000
_cell_volume 6165.998791
_symmetry_space_group_name_H-M "P 4/N N C"
_symmetry_group_IT_number 126
_space_group.IT_coordinate_system_code '2'
_symmetry_cell_setting 'tetragonal'
loop_
_space_group_symop_operation_xyz
x,y,z
1/2-y,x,z
1/2-x,1/2-y,z
y,1/2-x,z
x,1/2-y,1/2-z
1/2-x,y,1/2-z
y,x,1/2-z
1/2-y,1/2-x,1/2-z
-x,-y,-z
1/2+y,-x,-z
1/2+x,1/2+y,-z
-y,1/2+x,-z
-x,1/2+y,1/2+z
1/2+x,-y,1/2+z
-y,-x,1/2+z
1/2+y,1/2+x,1/2+z
loop_
_atom_site_type_symbol
_atom_site_label
_atom_site_fract_x
_atom_site_fract_y
_atom_site_fract_z
Si Si1 0.338612 0.363888 0.525309
Si Si2 0.387879 0.985874 0.899795
Si Si3 0.154250 0.762346 0.128500
Si Si4 0.633515 0.434139 0.636081
Si Si5 0.480281 0.984119 0.803943
Si Si6 0.084801 0.702220 0.802894
Si Si7 0.555424 0.532169 0.547805
O O1 0.234724 0.371537 0.530624
O O2 0.377307 0.424715 0.569378
O O3 0.375193 0.395122 0.470861
O O4 0.309739 0.916255 0.908451
O O5 0.399882 0.012493 0.840857
O O6 0.478988 0.935081 0.914210
O O7 0.250000 0.750000 0.101475
O O8 0.113418 0.668961 0.142980
O O9 0.167498 0.819898 0.179050
O O10 0.573130 0.488618 0.673524
O O11 0.733239 0.453268 0.653502
O O12 0.614429 0.459822 0.577449
O O13 0.468159 0.031842 0.750000
O O14 0.481279 0.878813 0.796594
O O15 0.097733 0.750000 0.750000
O O16 0.500000 0.500000 0.500000
#
# Coordination Sequence:
#
# PCOD8313659 Si02
#       7
#    16  16  16  16  16  16  16
#     4  10  22  38  61  82 105 146 194 242 290 346
#     4   9  20  36  57  80 116 147 185 236 286 342
#     4   9  20  33  54  83 114 148 186 225 287 339
#     4  10  20  34  59  81 116 152 185 234 284 345
#     4  10  19  34  54  85 113 153 194 222 282 340
#     4  10  19  35  54  82 118 150 188 236 281 342
#     4   9  20  37  57  81 108 144 190 237 292 341
#
# _framework density 18.164131000000001
#
# number of rings (size 3 to 8) (size 9 to 14) (size 15 to 20)
#    0.000    2.429    1.429    0.000    6.000    7.143 
#    0.000    0.000    0.000    0.429    0.000    1.000 
#    0.000    0.000    0.000    0.000    0.000    0.000 
#
# Total GULP energy -1387466.215630 kJ/mol
# GULP energy per Si atom -12388.091211 kJ/mol
# Density = 1.812279 g / cm^3
# Si number density = 18.164131 Si / 1000 Ang^3
#
#
#
# Elastic Constant Matrix: (Units=GPa)
#
#
# Indices 1 2 3 4 5 6 
#
# 1 102.4601 59.7166 44.5941 0.0000 0.0000 0.0000
# 2 59.7166 102.4598 44.5941 0.0000 0.0000 0.0000
# 3 44.5941 44.5941 107.2735 0.0000 0.0000 0.0000
# 4 0.0000 0.0000 0.0000 28.5190 0.0000 0.0000
# 5 0.0000 0.0000 0.0000 0.0000 28.5192 0.0000
# 6 0.0000 0.0000 0.0000 0.0000 0.0000 32.6061
#
#
#
# Elastic Compliance Matrix: (Units=1/GPa)
#
#
# Indices 1 2 3 4 5 6 
#
# 1 0.015695 -0.007701 -0.003323 0.000000 0.000000 0.000000
# 2 -0.007701 0.015695 -0.003323 0.000000 0.000000 0.000000
# 3 -0.003323 -0.003323 0.012085 0.000000 0.000000 0.000000
# 4 0.000000 0.000000 0.000000 0.035064 0.000000 0.000000
# 5 0.000000 0.000000 0.000000 0.000000 0.035064 0.000000
# 6 0.000000 0.000000 0.000000 0.000000 0.000000 0.030669
#
#
# Mechanical properties :
#
#
# Convention : Reuss Voigt Hill
#
# Bulk Modulus (GPa) = 67.65905 67.77811 67.71858
# Shear Modulus (GPa) = 28.10698 28.81476 28.46087
#
# Velocity S-wave (km/s) = 3.93795 3.98723 3.96267
# Velocity P-wave (km/s) = 7.61618 7.65458 7.63540
#
# Compressibility (1/GPa) = 0.01477999
#
# Stress axis : x y z
#
# Youngs Moduli (GPa) = 63.71659 63.71643 82.74921
#
# Poissons Ratio (x) = 0.49068 0.27497
# Poissons Ratio (y) = 0.49068 0.27497
# Poissons Ratio (z) = 0.21173 0.21173
#
# Static dielectric constant tensor:
#      x y z
#    x 3.464390 0.000000 0.000000 
#    y 0.000000 3.464390 0.000000 
#    z 0.000000 0.000000 3.666760 
# 
# 
# High freq. dielectric constant tensor:
#      x y z
#    x 1.698240 0.000000 0.000000 
#    y 0.000000 1.698240 0.000000 
#    z 0.000000 0.000000 1.701270 
# 
# From -- ./inp_files/6252.got.cif
#   From: 2010.03.12/outbox.cif.g09.slc.cpg/sg126_4_cif.got.tgz:6252.got - 2010.04.06 16:55:23.
