data_PCOD8313869
_publ_section_title
;
Structure prediction by ZEFSAII (Michael W. Deem and Ramdas Pophale) SiO2 
 PCOD8313869
Probable space group: P 4/M B M
;
_chemical_formula_sum "Si O2"
_cell_formula_units_Z 104
_cell_length_a 20.829074
_cell_length_b 20.829074
_cell_length_c 13.422107
_cell_angle_alpha 90.000000
_cell_angle_beta 90.000000
_cell_angle_gamma 90.000000
_cell_volume 5823.185467
_symmetry_space_group_name_H-M "P 4/M B M"
_symmetry_group_IT_number 127
_symmetry_cell_setting 'tetragonal'
loop_
_space_group_symop_operation_xyz
x,y,z
-y,x,z
-x,-y,z
y,-x,z
1/2+x,1/2-y,-z
1/2-x,1/2+y,-z
1/2+y,1/2+x,-z
1/2-y,1/2-x,-z
-x,-y,-z
y,-x,-z
x,y,-z
-y,x,-z
1/2-x,1/2+y,z
1/2+x,1/2-y,z
1/2-y,1/2-x,z
1/2+y,1/2+x,z
loop_
_atom_site_type_symbol
_atom_site_label
_atom_site_fract_x
_atom_site_fract_y
_atom_site_fract_z
Si Si1 0.718291 0.885082 0.266841
Si Si2 0.811275 0.586212 0.272383
Si Si3 0.485066 0.192266 0.117456
Si Si4 0.549929 0.950072 0.117792
Si Si5 0.165738 0.090991 0.615667
Si Si6 0.874179 0.475012 0.382509
Si Si7 0.444854 0.684341 0.615334
O O1 0.679144 0.820857 0.238591
O O2 0.733379 0.927784 0.167591
O O3 0.785602 0.866418 0.317718
O O4 0.682843 0.927860 0.349834
O O5 0.843008 0.656993 0.259238
O O6 0.794695 0.555256 0.163852
O O7 0.863768 0.543246 0.330509
O O8 0.744115 0.589076 0.330262
O O9 0.467262 0.120603 0.153569
O O10 0.487000 0.203900 0.000000
O O11 0.500000 0.000000 0.165100
O O12 0.546749 0.953252 0.000000
O O13 0.183936 0.097566 0.500000
O O14 0.095050 0.119328 0.635591
O O15 0.169904 0.017074 0.652159
O O16 0.870321 0.484807 0.500000
O O17 0.942922 0.442922 0.352199
O O18 0.445100 0.702762 0.500000
#
# Coordination Sequence:
#
# PCOD8313869 Si02
#       7
#    16  16  16   8  16  16  16
#     4  10  18  30  51  77 104 138 178 216 255 308
#     4  11  22  33  49  75 109 145 180 218 259 311
#     4  10  19  32  50  73 102 142 185 226 268 305
#     4   9  16  26  42  68 101 135 177 223 262 300
#     4  10  20  36  58  82 110 138 170 215 266 323
#     4   9  17  29  45  66  97 138 178 212 249 297
#     4  10  21  37  57  82 109 138 172 214 267 323
#
# _framework density 17.859641
#
# number of rings (size 3 to 8) (size 9 to 14) (size 15 to 20)
#    0.000    2.077    3.846    1.385    1.077    4.308 
#    0.000    3.846    0.000    0.923    0.000    2.154 
#    0.000    1.231    0.000    0.000    0.000    0.000 
#
# Total GULP energy -1289155.080772 kJ/mol
# GULP energy per Si atom -12395.721931 kJ/mol
# Density = 1.781899 g / cm^3
# Si number density = 17.859641 Si / 1000 Ang^3
#
#
#
# Elastic Constant Matrix: (Units=GPa)
#
#
# Indices 1 2 3 4 5 6 
#
# 1 68.9755 43.0099 31.2920 0.0000 0.0000 0.0000
# 2 43.0099 68.9755 31.2919 0.0000 0.0000 0.0000
# 3 31.2920 31.2919 77.0348 0.0000 0.0000 0.0000
# 4 0.0000 0.0000 0.0000 19.7762 0.0000 0.0000
# 5 0.0000 0.0000 0.0000 0.0000 19.7762 0.0000
# 6 0.0000 0.0000 0.0000 0.0000 0.0000 19.1389
#
#
#
# Elastic Compliance Matrix: (Units=1/GPa)
#
#
# Indices 1 2 3 4 5 6 
#
# 1 0.025032 -0.013480 -0.004693 0.000000 0.000000 0.000000
# 2 -0.013480 0.025032 -0.004693 0.000000 0.000000 0.000000
# 3 -0.004693 -0.004693 0.016793 0.000000 0.000000 0.000000
# 4 0.000000 0.000000 0.000000 0.050566 0.000000 0.000000
# 5 0.000000 0.000000 0.000000 0.000000 0.050566 0.000000
# 6 0.000000 0.000000 0.000000 0.000000 0.000000 0.052249
#
#
# Mechanical properties :
#
#
# Convention : Reuss Voigt Hill
#
# Bulk Modulus (GPa) = 47.33148 47.35259 47.34203
# Shear Modulus (GPa) = 18.31420 19.03108 18.67264
#
# Velocity S-wave (km/s) = 3.20574 3.26788 3.23696
# Velocity P-wave (km/s) = 6.34522 6.38827 6.36678
#
# Compressibility (1/GPa) = 0.02112759
#
# Stress axis : x y z
#
# Youngs Moduli (GPa) = 39.94828 39.94832 59.54710
#
# Poissons Ratio (x) = 0.53851 0.27943
# Poissons Ratio (y) = 0.53851 0.27943
# Poissons Ratio (z) = 0.18746 0.18746
#
# Static dielectric constant tensor:
#      x y z
#    x 3.224590 0.000000 0.000000 
#    y 0.000000 3.224590 0.000000 
#    z 0.000000 0.000000 3.194840 
# 
# 
# High freq. dielectric constant tensor:
#      x y z
#    x 1.671010 0.000000 0.000000 
#    y 0.000000 1.671010 0.000000 
#    z 0.000000 0.000000 1.683330 
# 
# From -- ./inp_files/4606.got.cif
#   From: 2010.03.12/outbox.cif.g09.slc.cpg/sg127_3_cif.got.tgz:4606.got - 2010.04.06 17:03:15.
