data_PCOD8313756
_publ_section_title
;
Structure prediction by ZEFSAII (Michael W. Deem and Ramdas Pophale) SiO2 
 PCOD8313756
Probable space group: P 4/N N C
;
_chemical_formula_sum "Si O2"
_cell_formula_units_Z 68
_cell_length_a 16.538795
_cell_length_b 16.538795
_cell_length_c 12.877019
_cell_angle_alpha 90.000000
_cell_angle_beta 90.000000
_cell_angle_gamma 90.000000
_cell_volume 3522.273414
_symmetry_space_group_name_H-M "P 4/N N C"
_symmetry_group_IT_number 126
_space_group.IT_coordinate_system_code '2'
_symmetry_cell_setting 'tetragonal'
loop_
_space_group_symop_operation_xyz
x,y,z
1/2-y,x,z
1/2-x,1/2-y,z
y,1/2-x,z
x,1/2-y,1/2-z
1/2-x,y,1/2-z
y,x,1/2-z
1/2-y,1/2-x,1/2-z
-x,-y,-z
1/2+y,-x,-z
1/2+x,1/2+y,-z
-y,1/2+x,-z
-x,1/2+y,1/2+z
1/2+x,-y,1/2+z
-y,-x,1/2+z
1/2+y,1/2+x,1/2+z
loop_
_atom_site_type_symbol
_atom_site_label
_atom_site_fract_x
_atom_site_fract_y
_atom_site_fract_z
Si Si1 0.340229 0.471894 0.224255
Si Si2 0.750000 0.250000 0.750000
Si Si3 0.618165 0.752261 0.130782
Si Si4 0.703373 0.470708 0.993448
Si Si5 0.158495 0.881921 0.376475
O O1 0.250000 0.441878 0.250000
O O2 0.399954 0.399954 0.250000
O O3 0.362511 0.550238 0.291802
O O4 0.346857 0.493860 0.103213
O O5 0.808530 0.197059 0.679605
O O6 0.669043 0.671881 0.106888
O O7 0.589610 0.750000 0.250000
O O8 0.541152 0.753085 0.057251
O O9 0.639125 0.423754 0.064174
O O10 0.774011 0.411071 0.957144
#
# Coordination Sequence:
#
# PCOD8313756 Si02
#       5
#    16   4  16  16  16
#     4  10  24  45  61  95 135 164 213 268 316 383
#     4  12  20  46  64  84 128 174 204 270 308 380
#     4   9  21  42  65  93 128 166 216 263 309 390
#     4  11  23  40  66  94 121 174 209 266 326 379
#     4  11  24  41  63  93 127 164 220 265 314 387
#
# _framework density 19.305713999999998
#
# number of rings (size 3 to 8) (size 9 to 14) (size 15 to 20)
#    0.000    1.647    3.529    2.118    8.235    1.176 
#    4.235    0.000    0.000    0.000    0.000    0.000 
#    0.000    0.000    0.000    0.000    0.000    0.000 
#
# Total GULP energy -843520.185165 kJ/mol
# GULP energy per Si atom -12404.708605 kJ/mol
# Density = 1.926177 g / cm^3
# Si number density = 19.305714 Si / 1000 Ang^3
#
#
#
# Elastic Constant Matrix: (Units=GPa)
#
#
# Indices 1 2 3 4 5 6 
#
# 1 122.3857 69.0024 75.3927 0.0000 0.0000 0.0000
# 2 69.0024 122.3857 75.3927 0.0000 0.0000 0.0000
# 3 75.3927 75.3927 136.9475 0.0000 0.0000 0.0000
# 4 0.0000 0.0000 0.0000 30.9232 0.0000 0.0000
# 5 0.0000 0.0000 0.0000 0.0000 30.9232 0.0000
# 6 0.0000 0.0000 0.0000 0.0000 0.0000 33.0830
#
#
#
# Elastic Compliance Matrix: (Units=1/GPa)
#
#
# Indices 1 2 3 4 5 6 
#
# 1 0.013980 -0.004753 -0.005080 0.000000 0.000000 0.000000
# 2 -0.004753 0.013980 -0.005080 0.000000 0.000000 0.000000
# 3 -0.005080 -0.005080 0.012895 0.000000 0.000000 0.000000
# 4 0.000000 0.000000 0.000000 0.032338 0.000000 0.000000
# 5 0.000000 0.000000 0.000000 0.000000 0.032338 0.000000
# 6 0.000000 0.000000 0.000000 0.000000 0.000000 0.030227
#
#
# Mechanical properties :
#
#
# Convention : Reuss Voigt Hill
#
# Bulk Modulus (GPa) = 90.65906 91.25494 90.95700
# Shear Modulus (GPa) = 29.54057 29.78129 29.66093
#
# Velocity S-wave (km/s) = 3.91595 3.93188 3.92392
# Velocity P-wave (km/s) = 8.21632 8.24523 8.23079
#
# Compressibility (1/GPa) = 0.01103034
#
# Stress axis : x y z
#
# Youngs Moduli (GPa) = 71.53215 71.53215 77.54935
#
# Poissons Ratio (x) = 0.33997 0.39393
# Poissons Ratio (y) = 0.33997 0.39393
# Poissons Ratio (z) = 0.36336 0.36336
#
# Static dielectric constant tensor:
#      x y z
#    x 4.793930 0.000000 0.000000 
#    y 0.000000 4.793930 0.000000 
#    z 0.000000 0.000000 3.771840 
# 
# 
# High freq. dielectric constant tensor:
#      x y z
#    x 1.749880 0.000000 0.000000 
#    y 0.000000 1.749880 0.000000 
#    z 0.000000 0.000000 1.769460 
# 
# From -- ./inp_files/2656.got.cif
#   From: 2010.03.12/outbox.cif.g09.slc.cpg/sg126_2_cif.got.tgz:2656.got - 2010.04.06 16:55:23.
