data_PCOD8313816
_publ_section_title
;
Structure prediction by ZEFSAII (Michael W. Deem and Ramdas Pophale) SiO2 
 PCOD8313816
Probable space group: P 4/N N C
;
_chemical_formula_sum "Si O2"
_cell_formula_units_Z 48
_cell_length_a 12.276958
_cell_length_b 12.276958
_cell_length_c 13.493654
_cell_angle_alpha 90.000000
_cell_angle_beta 90.000000
_cell_angle_gamma 90.000000
_cell_volume 2033.813427
_symmetry_space_group_name_H-M "P 4/N N C"
_symmetry_group_IT_number 126
_space_group.IT_coordinate_system_code '2'
_symmetry_cell_setting 'tetragonal'
loop_
_space_group_symop_operation_xyz
x,y,z
1/2-y,x,z
1/2-x,1/2-y,z
y,1/2-x,z
x,1/2-y,1/2-z
1/2-x,y,1/2-z
y,x,1/2-z
1/2-y,1/2-x,1/2-z
-x,-y,-z
1/2+y,-x,-z
1/2+x,1/2+y,-z
-y,1/2+x,-z
-x,1/2+y,1/2+z
1/2+x,-y,1/2+z
-y,-x,1/2+z
1/2+y,1/2+x,1/2+z
loop_
_atom_site_type_symbol
_atom_site_label
_atom_site_fract_x
_atom_site_fract_y
_atom_site_fract_z
Si Si1 0.579637 0.777835 0.024403
Si Si2 0.491797 0.155619 0.180233
Si Si3 0.372953 0.777128 0.363308
O O1 0.626679 0.661037 0.060049
O O2 0.458778 0.791485 0.070408
O O3 0.580346 0.788074 0.904839
O O4 0.541003 0.250000 0.250000
O O5 0.426599 0.073402 0.250000
O O6 0.594416 0.100047 0.125650
O O7 0.250000 0.750000 0.399493
O O8 0.393002 0.750000 0.250000
#
# Coordination Sequence:
#
# PCOD8313816 Si02
#       3
#    16  16  16
#     4  11  27  46  73 109 145 192 245 306 372 440
#     4  12  25  45  74 105 144 192 244 305 361 436
#     4  11  27  47  69 105 149 193 243 302 370 444
#
# _framework density 23.600985000000001
#
# number of rings (size 3 to 8) (size 9 to 14) (size 15 to 20)
#    0.000    0.667    6.667    0.000    9.333    1.667 
#    0.000    1.667    0.000    0.000    0.000    0.000 
#    0.000    0.000    0.000    0.000    0.000    0.000 
#
# Total GULP energy -595044.624246 kJ/mol
# GULP energy per Si atom -12396.763005 kJ/mol
# Density = 2.354727 g / cm^3
# Si number density = 23.600985 Si / 1000 Ang^3
#
#
#
# Elastic Constant Matrix: (Units=GPa)
#
#
# Indices 1 2 3 4 5 6 
#
# 1 138.6628 54.7987 48.0183 0.0000 0.0000 0.0000
# 2 54.7987 138.6633 48.0197 0.0000 0.0000 0.0000
# 3 48.0183 48.0197 94.3325 0.0000 0.0000 0.0000
# 4 0.0000 0.0000 0.0000 30.4283 0.0000 0.0000
# 5 0.0000 0.0000 0.0000 0.0000 30.4278 0.0000
# 6 0.0000 0.0000 0.0000 0.0000 0.0000 29.2403
#
#
#
# Elastic Compliance Matrix: (Units=1/GPa)
#
#
# Indices 1 2 3 4 5 6 
#
# 1 0.009420 -0.002504 -0.003521 0.000000 0.000000 0.000000
# 2 -0.002504 0.009420 -0.003521 0.000000 0.000000 0.000000
# 3 -0.003521 -0.003521 0.014185 0.000000 0.000000 0.000000
# 4 0.000000 0.000000 0.000000 0.032864 0.000000 0.000000
# 5 0.000000 0.000000 0.000000 0.000000 0.032865 0.000000
# 6 0.000000 0.000000 0.000000 0.000000 0.000000 0.034199
#
#
# Mechanical properties :
#
#
# Convention : Reuss Voigt Hill
#
# Bulk Modulus (GPa) = 71.76023 74.81468 73.28745
# Shear Modulus (GPa) = 31.91003 32.74074 32.32538
#
# Velocity S-wave (km/s) = 3.68103 3.72864 3.70491
# Velocity P-wave (km/s) = 6.96694 7.09264 7.03007
#
# Compressibility (1/GPa) = 0.01393530
#
# Stress axis : x y z
#
# Youngs Moduli (GPa) = 106.15272 106.15180 70.49500
#
# Poissons Ratio (x) = 0.26576 0.24820
# Poissons Ratio (y) = 0.26576 0.24822
# Poissons Ratio (z) = 0.37375 0.37377
#
# Static dielectric constant tensor:
#      x y z
#    x 4.241840 0.000000 0.000000 
#    y 0.000000 4.241850 0.000000 
#    z 0.000000 0.000000 4.080360 
# 
# 
# High freq. dielectric constant tensor:
#      x y z
#    x 1.934560 0.000000 0.000000 
#    y 0.000000 1.934560 0.000000 
#    z 0.000000 0.000000 1.933730 
# 
# From -- ./inp_files/4126.got.cif
#   From: 2010.03.12/outbox.cif.g09.slc.cpg/sg126_3_cif.got.tgz:4126.got - 2010.04.06 16:55:23.
