data_PCOD8313517
_publ_section_title
;
Structure prediction by ZEFSAII (Michael W. Deem and Ramdas Pophale) SiO2 
 PCOD8313517
Probable space group: P 4/N B M
;
_chemical_formula_sum "Si O2"
_cell_formula_units_Z 64
_cell_length_a 25.813830
_cell_length_b 25.813830
_cell_length_c 5.226198
_cell_angle_alpha 90.000000
_cell_angle_beta 90.000000
_cell_angle_gamma 90.000000
_cell_volume 3482.496998
_symmetry_space_group_name_H-M "P 4/N B M"
_symmetry_group_IT_number 125
_space_group.IT_coordinate_system_code '2'
_symmetry_cell_setting 'tetragonal'
loop_
_space_group_symop_operation_xyz
x,y,z
1/2-y,x,z
1/2-x,1/2-y,z
y,1/2-x,z
x,1/2-y,-z
1/2-x,y,-z
y,x,-z
1/2-y,1/2-x,-z
-x,-y,-z
1/2+y,-x,-z
1/2+x,1/2+y,-z
-y,1/2+x,-z
-x,1/2+y,z
1/2+x,-y,z
-y,-x,z
1/2+y,1/2+x,z
loop_
_atom_site_type_symbol
_atom_site_label
_atom_site_fract_x
_atom_site_fract_y
_atom_site_fract_z
Si Si1 0.465250 0.310740 0.029157
Si Si2 0.634025 0.050885 0.221885
Si Si3 0.865307 0.217176 0.751609
Si Si4 0.862611 0.947175 0.535010
O O1 0.437883 0.324346 0.295745
O O2 0.474745 0.250000 0.000000
O O3 0.520496 0.341374 0.021607
O O4 0.430073 0.331162 0.790927
O O5 0.582006 0.082006 0.143259
O O6 0.677535 0.089512 0.328489
O O7 0.621219 0.007926 0.440243
O O8 0.853886 0.250000 0.500000
O O9 0.813455 0.186546 0.828557
O O10 0.881887 0.250000 0.000000
O O11 0.914376 0.914376 0.500000
#
# Coordination Sequence:
#
# PCOD8313517 Si02
#       4
#    16  16  16  16
#     4  10  21  37  61  84 115 156 192 231 283 334
#     4   9  23  36  57  83 116 156 196 238 287 345
#     4  11  24  39  57  80 109 150 202 254 301 344
#     4  10  22  38  59  87 119 149 190 237 282 346
#
# _framework density 18.377618999999999
#
# number of rings (size 3 to 8) (size 9 to 14) (size 15 to 20)
#    1.500    0.500    0.000    3.000    7.000    3.000 
#    0.000    1.250    0.000    0.000    0.000    0.000 
#    0.000   35.000    0.000    0.000    0.000    0.000 
#
# Total GULP energy -792929.890124 kJ/mol
# GULP energy per Si atom -12389.529533 kJ/mol
# Density = 1.833579 g / cm^3
# Si number density = 18.377619 Si / 1000 Ang^3
#
#
#
# Elastic Constant Matrix: (Units=GPa)
#
#
# Indices 1 2 3 4 5 6 
#
# 1 85.5184 69.1679 42.9836 0.0000 0.0000 0.0000
# 2 69.1679 85.5184 42.9836 0.0000 0.0000 0.0000
# 3 42.9836 42.9836 126.6938 0.0000 0.0000 0.0000
# 4 0.0000 0.0000 0.0000 21.7555 0.0000 0.0000
# 5 0.0000 0.0000 0.0000 0.0000 21.7555 0.0000
# 6 0.0000 0.0000 0.0000 0.0000 0.0000 18.2400
#
#
#
# Elastic Compliance Matrix: (Units=1/GPa)
#
#
# Indices 1 2 3 4 5 6 
#
# 1 0.034563 -0.026597 -0.002703 0.000000 0.000000 0.000000
# 2 -0.026597 0.034563 -0.002703 0.000000 0.000000 0.000000
# 3 -0.002703 -0.002703 0.009727 0.000000 0.000000 0.000000
# 4 0.000000 0.000000 0.000000 0.045965 0.000000 0.000000
# 5 0.000000 0.000000 0.000000 0.000000 0.045965 0.000000
# 6 0.000000 0.000000 0.000000 0.000000 0.000000 0.054825
#
#
# Mechanical properties :
#
#
# Convention : Reuss Voigt Hill
#
# Bulk Modulus (GPa) = 67.34417 67.55566 67.44992
# Shear Modulus (GPa) = 16.97425 21.85657 19.41541
#
# Velocity S-wave (km/s) = 3.04244 3.45237 3.25387
# Velocity P-wave (km/s) = 7.00472 7.26164 7.13434
#
# Compressibility (1/GPa) = 0.01484909
#
# Stress axis : x y z
#
# Youngs Moduli (GPa) = 28.93231 28.93231 102.80553
#
# Poissons Ratio (x) = 0.76950 0.27788
# Poissons Ratio (y) = 0.76950 0.27788
# Poissons Ratio (z) = 0.07820 0.07820
#
# Static dielectric constant tensor:
#      x y z
#    x 3.188550 0.000000 0.000000 
#    y 0.000000 3.188550 0.000000 
#    z 0.000000 0.000000 3.324400 
# 
# 
# High freq. dielectric constant tensor:
#      x y z
#    x 1.694960 0.000000 0.000000 
#    y 0.000000 1.694960 0.000000 
#    z 0.000000 0.000000 1.713980 
# 
# From -- ./inp_files/947.got.cif
#   From: 2010.03.12/outbox.cif.g09.slc.cpg/sg125_1_cif.got.tgz:947.got - 2010.04.06 16:47:52.
