data_PCOD8313654
_publ_section_title
;
Structure prediction by ZEFSAII (Michael W. Deem and Ramdas Pophale) SiO2 
 PCOD8313654
Probable space group: P 4/N N C
;
_chemical_formula_sum "Si O2"
_cell_formula_units_Z 80
_cell_length_a 28.363604
_cell_length_b 28.363604
_cell_length_c 5.284934
_cell_angle_alpha 90.000000
_cell_angle_beta 90.000000
_cell_angle_gamma 90.000000
_cell_volume 4251.697862
_symmetry_space_group_name_H-M "P 4/N N C"
_symmetry_group_IT_number 126
_space_group.IT_coordinate_system_code '2'
_symmetry_cell_setting 'tetragonal'
loop_
_space_group_symop_operation_xyz
x,y,z
1/2-y,x,z
1/2-x,1/2-y,z
y,1/2-x,z
x,1/2-y,1/2-z
1/2-x,y,1/2-z
y,x,1/2-z
1/2-y,1/2-x,1/2-z
-x,-y,-z
1/2+y,-x,-z
1/2+x,1/2+y,-z
-y,1/2+x,-z
-x,1/2+y,1/2+z
1/2+x,-y,1/2+z
-y,-x,1/2+z
1/2+y,1/2+x,1/2+z
loop_
_atom_site_type_symbol
_atom_site_label
_atom_site_fract_x
_atom_site_fract_y
_atom_site_fract_z
Si Si1 0.773256 0.053956 0.999101
Si Si2 0.274333 0.056165 0.500322
Si Si3 0.903781 0.371961 0.069632
Si Si4 0.551963 0.482346 0.907910
Si Si5 0.926665 0.614792 0.996643
O O1 0.750000 0.076918 0.250000
O O2 0.762782 0.998852 0.000232
O O3 0.750000 0.077286 0.750000
O O4 0.828703 0.062418 0.992550
O O5 0.250000 0.078929 0.750000
O O6 0.329880 0.064271 0.504313
O O7 0.250000 0.078804 0.250000
O O8 0.876762 0.366355 0.338057
O O9 0.934516 0.418696 0.102332
O O10 0.528895 0.488503 0.623860
O O11 0.586139 0.524759 0.981932
O O12 0.895507 0.604494 0.750000
O O13 0.899356 0.600645 0.250000
#
# Coordination Sequence:
#
# PCOD8313654 Si02
#       5
#    16  16  16  16  16
#     4  10  19  32  53  76 100 133 179 221 268 323
#     4  10  21  38  57  77 107 142 176 219 280 321
#     4  10  19  32  50  72 105 140 177 218 262 310
#     4  10  21  35  50  71 109 155 191 220 254 296
#     4  12  24  37  56  82 112 143 192 231 255 311
#
# _framework density 18.816012000000001
#
# number of rings (size 3 to 8) (size 9 to 14) (size 15 to 20)
#    0.000    1.600    2.000    3.600    0.000    2.400 
#    0.000    0.000    0.000    0.000    0.000    0.000 
#    0.000   56.000    0.000    0.000    0.000    0.000 
#
# Total GULP energy -991963.119314 kJ/mol
# GULP energy per Si atom -12399.538991 kJ/mol
# Density = 1.877319 g / cm^3
# Si number density = 18.816012 Si / 1000 Ang^3
#
#
#
# Elastic Constant Matrix: (Units=GPa)
#
#
# Indices 1 2 3 4 5 6 
#
# 1 75.4752 11.5592 51.2668 0.0000 0.0000 0.0000
# 2 11.5592 75.4739 51.2656 0.0000 0.0000 0.0000
# 3 51.2668 51.2656 210.4366 0.0000 0.0000 0.0000
# 4 0.0000 0.0000 0.0000 11.4337 0.0000 0.0000
# 5 0.0000 0.0000 0.0000 0.0000 11.4244 0.0000
# 6 0.0000 0.0000 0.0000 0.0000 0.0000 17.7199
#
#
#
# Elastic Compliance Matrix: (Units=1/GPa)
#
#
# Indices 1 2 3 4 5 6 
#
# 1 0.015880 0.000235 -0.003926 0.000000 0.000000 0.000000
# 2 0.000235 0.015880 -0.003926 0.000000 0.000000 0.000000
# 3 -0.003926 -0.003926 0.006665 0.000000 0.000000 0.000000
# 4 0.000000 0.000000 0.000000 0.087461 0.000000 0.000000
# 5 0.000000 0.000000 0.000000 0.000000 0.087532 0.000000
# 6 0.000000 0.000000 0.000000 0.000000 0.000000 0.056434
#
#
# Mechanical properties :
#
#
# Convention : Reuss Voigt Hill
#
# Bulk Modulus (GPa) = 43.12033 65.50766 54.31400
# Shear Modulus (GPa) = 17.07558 24.60190 20.83874
#
# Velocity S-wave (km/s) = 3.01575 3.61986 3.33152
# Velocity P-wave (km/s) = 5.92392 7.23613 6.61266
#
# Compressibility (1/GPa) = 0.02319092
#
# Stress axis : x y z
#
# Youngs Moduli (GPa) = 62.97183 62.97114 150.04127
#
# Poissons Ratio (x) = -0.01477 0.58904
# Poissons Ratio (y) = -0.01477 0.58903
# Poissons Ratio (z) = 0.24722 0.24721
#
# Static dielectric constant tensor:
#      x y z
#    x 3.159480 0.000000 0.000000 
#    y 0.000000 3.159500 0.000000 
#    z 0.000000 0.000000 3.821570 
# 
# 
# High freq. dielectric constant tensor:
#      x y z
#    x 1.703400 0.000000 0.000000 
#    y 0.000000 1.703400 0.000000 
#    z 0.000000 0.000000 1.773240 
# 
# From -- ./inp_files/581.got.cif
#   From: 2010.03.12/outbox.cif.g09.slc.cpg/sg126_1_cif.got.tgz:581.got - 2010.04.06 16:55:23.
