data_PCOD8313106
_publ_section_title
;
Structure prediction by ZEFSAII (Michael W. Deem and Ramdas Pophale) SiO2 
 PCOD8313106
Probable space group: P 4/M C C
;
_chemical_formula_sum "Si O2"
_cell_formula_units_Z 96
_cell_length_a 16.750248
_cell_length_b 16.750248
_cell_length_c 18.058813
_cell_angle_alpha 90.000000
_cell_angle_beta 90.000000
_cell_angle_gamma 90.000000
_cell_volume 5066.775756
_symmetry_space_group_name_H-M "P 4/M C C"
_symmetry_group_IT_number 124
_symmetry_cell_setting 'tetragonal'
loop_
_space_group_symop_operation_xyz
x,y,z
-y,x,z
-x,-y,z
y,-x,z
x,-y,1/2-z
-x,y,1/2-z
y,x,1/2-z
-y,-x,1/2-z
-x,-y,-z
y,-x,-z
x,y,-z
-y,x,-z
-x,y,1/2+z
x,-y,1/2+z
-y,-x,1/2+z
y,x,1/2+z
loop_
_atom_site_type_symbol
_atom_site_label
_atom_site_fract_x
_atom_site_fract_y
_atom_site_fract_z
Si Si1 0.051472 0.885505 0.412571
Si Si2 0.586496 0.300465 0.225346
Si Si3 0.832110 0.686789 0.302248
Si Si4 0.474545 0.908936 0.332876
Si Si5 0.753482 0.841723 0.352859
Si Si6 0.205360 0.592319 0.415255
O O1 0.054776 0.881124 0.500000
O O2 0.084282 0.804884 0.379098
O O3 0.960651 0.895952 0.385032
O O4 0.500000 0.277542 0.250000
O O5 0.609042 0.390959 0.250000
O O6 0.644395 0.248060 0.275873
O O7 0.594360 0.283709 0.137475
O O8 0.892728 0.621771 0.339803
O O9 0.804841 0.758769 0.356667
O O10 0.869470 0.725508 0.228593
O O11 0.500000 0.884651 0.250000
O O12 0.521299 0.853832 0.390882
O O13 0.500000 0.000000 0.349755
O O14 0.677792 0.837280 0.407497
O O15 0.231526 0.577743 0.500000
#
# Coordination Sequence:
#
# PCOD8313106 Si02
#       6
#    16  16  16  16  16  16
#     4   9  19  37  56  74 107 154 193 234 301 367
#     4  11  19  38  62  82 113 149 195 230 276 352
#     4  10  18  36  57  80 108 153 193 235 283 349
#     4  11  21  37  58  83 117 162 204 233 292 366
#     4  10  19  34  57  86 111 142 198 252 291 346
#     4  11  21  35  58  88 118 152 190 244 299 341
#
# _framework density 18.946960000000001
#
# number of rings (size 3 to 8) (size 9 to 14) (size 15 to 20)
#    0.000    1.667    8.333    1.000    0.000    1.833 
#    0.000    6.667    0.000    4.000    0.000    1.167 
#    0.000    0.000    0.000    0.000    0.000    0.000 
#
# Total GULP energy -1189729.057791 kJ/mol
# GULP energy per Si atom -12393.011019 kJ/mol
# Density = 1.890384 g / cm^3
# Si number density = 18.946960 Si / 1000 Ang^3
#
#
#
# Elastic Constant Matrix: (Units=GPa)
#
#
# Indices 1 2 3 4 5 6 
#
# 1 82.3503 39.1688 31.2471 0.0000 0.0000 0.0000
# 2 39.1688 82.3477 31.2472 0.0000 0.0000 0.0000
# 3 31.2471 31.2472 84.8809 0.0000 0.0000 0.0000
# 4 0.0000 0.0000 0.0000 19.6536 0.0000 0.0000
# 5 0.0000 0.0000 0.0000 0.0000 19.6533 0.0000
# 6 0.0000 0.0000 0.0000 0.0000 0.0000 6.1700
#
#
#
# Elastic Compliance Matrix: (Units=1/GPa)
#
#
# Indices 1 2 3 4 5 6 
#
# 1 0.016655 -0.006504 -0.003737 0.000000 0.000000 0.000000
# 2 -0.006504 0.016655 -0.003737 0.000000 0.000000 0.000000
# 3 -0.003737 -0.003737 0.014533 0.000000 0.000000 0.000000
# 4 0.000000 0.000000 0.000000 0.050881 0.000000 0.000000
# 5 0.000000 0.000000 0.000000 0.000000 0.050882 0.000000
# 6 0.000000 0.000000 0.000000 0.000000 0.000000 0.162075
#
#
# Mechanical properties :
#
#
# Convention : Reuss Voigt Hill
#
# Bulk Modulus (GPa) = 50.28397 50.32279 50.30338
# Shear Modulus (GPa) = 14.43981 18.95643 16.69812
#
# Velocity S-wave (km/s) = 2.76364 3.16650 2.97190
# Velocity P-wave (km/s) = 6.06470 6.32348 6.19544
#
# Compressibility (1/GPa) = 0.01988705
#
# Stress axis : x y z
#
# Youngs Moduli (GPa) = 60.04337 60.04124 68.81108
#
# Poissons Ratio (x) = 0.39050 0.25713
# Poissons Ratio (y) = 0.39051 0.25715
# Poissons Ratio (z) = 0.22437 0.22437
#
# Static dielectric constant tensor:
#      x y z
#    x 3.404180 0.000000 0.000000 
#    y 0.000000 3.404220 0.000000 
#    z 0.000000 0.000000 3.163100 
# 
# 
# High freq. dielectric constant tensor:
#      x y z
#    x 1.735740 0.000000 0.000000 
#    y 0.000000 1.735740 0.000000 
#    z 0.000000 0.000000 1.705060 
# 
# From -- ./inp_files/4258.got.cif
#   From: 2010.03.12/outbox.cif.g09.slc.cpg/sg124_3_cif.got.tgz:4258.got - 2010.04.06 16:38:57.
