data_PCOD8313051
_publ_section_title
;
Structure prediction by ZEFSAII (Michael W. Deem and Ramdas Pophale) SiO2 
 PCOD8313051
Probable space group: P 4/M M M
;
_chemical_formula_sum "Si O2"
_cell_formula_units_Z 80
_cell_length_a 14.152476
_cell_length_b 14.152476
_cell_length_c 24.850048
_cell_angle_alpha 90.000000
_cell_angle_beta 90.000000
_cell_angle_gamma 90.000000
_cell_volume 4977.280151
_symmetry_space_group_name_H-M "P 4/M M M"
_symmetry_group_IT_number 123
_symmetry_cell_setting 'tetragonal'
loop_
_space_group_symop_operation_xyz
x,y,z
-y,x,z
-x,-y,z
y,-x,z
x,-y,-z
-x,y,-z
y,x,-z
-y,-x,-z
-x,-y,-z
y,-x,-z
x,y,-z
-y,x,-z
-x,y,z
x,-y,z
-y,-x,z
y,x,z
loop_
_atom_site_type_symbol
_atom_site_label
_atom_site_fract_x
_atom_site_fract_y
_atom_site_fract_z
Si Si1 0.609126 0.763024 0.870795
Si Si2 0.608583 0.761506 0.560749
Si Si3 0.387972 0.895611 0.345367
Si Si4 0.607942 0.760070 0.252395
Si Si5 0.891795 0.739071 0.062785
O O1 0.500000 0.745046 0.886055
O O2 0.666249 0.666249 0.882491
O O3 0.620181 0.794404 0.808843
O O4 0.649604 0.848665 0.906107
O O5 0.621791 0.800000 0.500000
O O6 0.500000 0.736887 0.573027
O O7 0.665289 0.665289 0.570116
O O8 0.647142 0.841195 0.601327
O O9 0.500000 0.903712 0.345926
O O10 0.353955 0.842487 0.291367
O O11 0.342310 0.000000 0.345461
O O12 0.500000 0.735094 0.265713
O O13 0.665017 0.665017 0.263866
O O14 0.834262 0.834262 0.077358
O O15 0.000000 0.754624 0.080564
O O16 0.884254 0.715819 0.000000
#
# Coordination Sequence:
#
# PCOD8313051 Si02
#       5
#    16  16  16  16  16
#     4   9  18  31  46  66  92 121 153 187 221 261
#     4   9  17  28  42  61  85 112 141 174 212 255
#     4   9  17  28  41  58  82 112 144 176 209 246
#     4   9  17  29  45  65  89 116 145 177 213 253
#     4   9  18  32  49  69  92 117 147 186 231 276
#
# _framework density 16.073035000000001
#
# number of rings (size 3 to 8) (size 9 to 14) (size 15 to 20)
#    0.000    3.000    0.000    0.600    0.000    2.800 
#    0.000    9.000    0.000    3.600    0.000    2.800 
#    0.000    6.400    0.000    8.800    0.000    0.800 
#
# Total GULP energy -991885.813971 kJ/mol
# GULP energy per Si atom -12398.572675 kJ/mol
# Density = 1.603645 g / cm^3
# Si number density = 16.073035 Si / 1000 Ang^3
#
#
#
# Elastic Constant Matrix: (Units=GPa)
#
#
# Indices 1 2 3 4 5 6 
#
# 1 103.3041 49.8333 53.8649 0.0000 0.0000 0.0000
# 2 49.8333 103.3041 53.8649 0.0000 0.0000 0.0000
# 3 53.8649 53.8649 79.1065 0.0000 0.0000 0.0000
# 4 0.0000 0.0000 0.0000 24.9388 0.0000 0.0000
# 5 0.0000 0.0000 0.0000 0.0000 24.9388 0.0000
# 6 0.0000 0.0000 0.0000 0.0000 0.0000 10.9156
#
#
#
# Elastic Compliance Matrix: (Units=1/GPa)
#
#
# Indices 1 2 3 4 5 6 
#
# 1 0.015618 -0.003084 -0.008535 0.000000 0.000000 0.000000
# 2 -0.003084 0.015618 -0.008535 0.000000 0.000000 0.000000
# 3 -0.008535 -0.008535 0.024264 0.000000 0.000000 0.000000
# 4 0.000000 0.000000 0.000000 0.040098 0.000000 0.000000
# 5 0.000000 0.000000 0.000000 0.000000 0.040098 0.000000
# 6 0.000000 0.000000 0.000000 0.000000 0.000000 0.091612
#
#
# Mechanical properties :
#
#
# Convention : Reuss Voigt Hill
#
# Bulk Modulus (GPa) = 65.81767 66.76010 66.28889
# Shear Modulus (GPa) = 18.33656 20.70208 19.51932
#
# Velocity S-wave (km/s) = 3.38128 3.59277 3.48863
# Velocity P-wave (km/s) = 7.50214 7.67048 7.58678
#
# Compressibility (1/GPa) = 0.01519349
#
# Stress axis : x y z
#
# Youngs Moduli (GPa) = 64.02892 64.02892 41.21333
#
# Poissons Ratio (x) = 0.19745 0.35174
# Poissons Ratio (y) = 0.19745 0.35174
# Poissons Ratio (z) = 0.54647 0.54647
#
# Static dielectric constant tensor:
#      x y z
#    x 2.999660 0.000000 0.000000 
#    y 0.000000 2.999660 0.000000 
#    z 0.000000 0.000000 3.215450 
# 
# 
# High freq. dielectric constant tensor:
#      x y z
#    x 1.600120 0.000000 0.000000 
#    y 0.000000 1.600120 0.000000 
#    z 0.000000 0.000000 1.628930 
# 
# From -- ./inp_files/6251.got.cif
#   From: 2010.03.12/outbox.cif.g09.slc.cpg/sg123_4_cif.got.tgz:6251.got - 2010.04.06 16:26:55.
