data_PCOD8313806
_publ_section_title
;
Structure prediction by ZEFSAII (Michael W. Deem and Ramdas Pophale) SiO2 
 PCOD8313806
Probable space group: P 4/N N C
;
_chemical_formula_sum "Si O2"
_cell_formula_units_Z 72
_cell_length_a 19.926781
_cell_length_b 19.926781
_cell_length_c 8.830101
_cell_angle_alpha 90.000000
_cell_angle_beta 90.000000
_cell_angle_gamma 90.000000
_cell_volume 3506.226492
_symmetry_space_group_name_H-M "P 4/N N C"
_symmetry_group_IT_number 126
_space_group.IT_coordinate_system_code '2'
_symmetry_cell_setting 'tetragonal'
loop_
_space_group_symop_operation_xyz
x,y,z
1/2-y,x,z
1/2-x,1/2-y,z
y,1/2-x,z
x,1/2-y,1/2-z
1/2-x,y,1/2-z
y,x,1/2-z
1/2-y,1/2-x,1/2-z
-x,-y,-z
1/2+y,-x,-z
1/2+x,1/2+y,-z
-y,1/2+x,-z
-x,1/2+y,1/2+z
1/2+x,-y,1/2+z
-y,-x,1/2+z
1/2+y,1/2+x,1/2+z
loop_
_atom_site_type_symbol
_atom_site_label
_atom_site_fract_x
_atom_site_fract_y
_atom_site_fract_z
Si Si1 0.013672 0.816819 0.562959
Si Si2 0.250000 0.835160 0.750000
Si Si3 0.953896 0.943622 0.426640
Si Si4 0.666374 0.000143 0.905179
Si Si5 0.646204 0.338912 0.012830
O O1 0.980587 0.868308 0.447041
O O2 0.985755 0.837738 0.727136
O O3 0.990368 0.741123 0.529283
O O4 0.094442 0.815910 0.544865
O O5 0.295452 0.876587 0.866488
O O6 0.304087 0.797896 0.634493
O O7 0.955158 0.955158 0.250000
O O8 0.880156 0.950040 0.499646
O O9 0.000000 0.000000 0.500000
O O10 0.639930 0.076744 0.912321
#
# Coordination Sequence:
#
# PCOD8313806 Si02
#       5
#    16   8  16  16  16
#     4  11  24  43  65  94 127 167 214 267 326 380
#     4  12  28  41  56  86 128 174 231 260 322 372
#     4  12  26  40  68  95 128 171 218 268 323 383
#     4  11  24  43  65  94 127 167 214 267 326 380
#     4  12  24  40  62  86 126 174 214 274 308 384
#
# _framework density 20.534897000000001
#
# number of rings (size 3 to 8) (size 9 to 14) (size 15 to 20)
#    0.000    0.444    6.667    2.000    3.111    3.111 
#    0.000    0.000    0.000    0.667    0.000    4.667 
#    0.000    0.000    0.000    0.000    0.000    0.000 
#
# Total GULP energy -891953.840217 kJ/mol
# GULP energy per Si atom -12388.247781 kJ/mol
# Density = 2.048816 g / cm^3
# Si number density = 20.534897 Si / 1000 Ang^3
#
#
#
# Elastic Constant Matrix: (Units=GPa)
#
#
# Indices 1 2 3 4 5 6 
#
# 1 86.7411 41.9021 49.6117 0.0000 0.0000 0.0000
# 2 41.9021 86.7411 49.6117 0.0000 0.0000 0.0000
# 3 49.6117 49.6117 139.3304 0.0000 0.0000 0.0000
# 4 0.0000 0.0000 0.0000 32.4033 0.0000 0.0000
# 5 0.0000 0.0000 0.0000 0.0000 32.4033 0.0000
# 6 0.0000 0.0000 0.0000 0.0000 0.0000 24.6182
#
#
#
# Elastic Compliance Matrix: (Units=1/GPa)
#
#
# Indices 1 2 3 4 5 6 
#
# 1 0.016509 -0.005793 -0.003816 0.000000 0.000000 0.000000
# 2 -0.005793 0.016509 -0.003816 0.000000 0.000000 0.000000
# 3 -0.003816 -0.003816 0.009895 0.000000 0.000000 0.000000
# 4 0.000000 0.000000 0.000000 0.030861 0.000000 0.000000
# 5 0.000000 0.000000 0.000000 0.000000 0.030861 0.000000
# 6 0.000000 0.000000 0.000000 0.000000 0.000000 0.040620
#
#
# Mechanical properties :
#
#
# Convention : Reuss Voigt Hill
#
# Bulk Modulus (GPa) = 62.24955 66.11818 64.18386
# Shear Modulus (GPa) = 28.17541 29.33075 28.75308
#
# Velocity S-wave (km/s) = 3.70817 3.78343 3.74599
# Velocity P-wave (km/s) = 6.97953 7.16615 7.07346
#
# Compressibility (1/GPa) = 0.01606437
#
# Stress axis : x y z
#
# Youngs Moduli (GPa) = 60.57168 60.57168 101.06456
#
# Poissons Ratio (x) = 0.35087 0.38565
# Poissons Ratio (y) = 0.35087 0.38565
# Poissons Ratio (z) = 0.23114 0.23114
#
# Static dielectric constant tensor:
#      x y z
#    x 3.638500 0.000000 0.000000 
#    y 0.000000 3.638500 0.000000 
#    z 0.000000 0.000000 4.096000 
# 
# 
# High freq. dielectric constant tensor:
#      x y z
#    x 1.782270 0.000000 0.000000 
#    y 0.000000 1.782270 0.000000 
#    z 0.000000 0.000000 1.825810 
# 
# From -- ./inp_files/1602.got.cif
#   From: 2010.03.12/outbox.cif.g09.slc.cpg/sg126_1_cif.got.tgz:1602.got - 2010.04.06 16:55:23.
