data_PCOD8313330
_publ_section_title
;
Structure prediction by ZEFSAII (Michael W. Deem and Ramdas Pophale) SiO2 
 PCOD8313330
Probable space group: P 4/M C C
;
_chemical_formula_sum "Si O2"
_cell_formula_units_Z 96
_cell_length_a 23.658551
_cell_length_b 23.658551
_cell_length_c 8.719661
_cell_angle_alpha 90.000000
_cell_angle_beta 90.000000
_cell_angle_gamma 90.000000
_cell_volume 4880.630001
_symmetry_space_group_name_H-M "P 4/M C C"
_symmetry_group_IT_number 124
_symmetry_cell_setting 'tetragonal'
loop_
_space_group_symop_operation_xyz
x,y,z
-y,x,z
-x,-y,z
y,-x,z
x,-y,1/2-z
-x,y,1/2-z
y,x,1/2-z
-y,-x,1/2-z
-x,-y,-z
y,-x,-z
x,y,-z
-y,x,-z
-x,y,1/2+z
x,-y,1/2+z
-y,-x,1/2+z
y,x,1/2+z
loop_
_atom_site_type_symbol
_atom_site_label
_atom_site_fract_x
_atom_site_fract_y
_atom_site_fract_z
Si Si1 0.292361 0.058223 0.180770
Si Si2 0.646664 0.562562 0.819615
Si Si3 0.241194 0.368396 0.825849
Si Si4 0.823984 0.256240 0.676095
Si Si5 0.945778 0.585487 0.179409
Si Si6 0.448525 0.163403 0.824410
O O1 0.267195 0.116310 0.243983
O O2 0.357769 0.060124 0.222780
O O3 0.265192 0.000000 0.250000
O O4 0.283864 0.056611 0.000000
O O5 0.658694 0.500000 0.750000
O O6 0.589095 0.589095 0.750000
O O7 0.696316 0.608663 0.783193
O O8 0.638810 0.554836 0.000000
O O9 0.227304 0.302234 0.807198
O O10 0.198748 0.392452 0.698944
O O11 0.226648 0.387716 0.000000
O O12 0.801065 0.198936 0.750000
O O13 0.838296 0.246771 0.500000
O O14 0.891071 0.548963 0.214004
O O15 0.000000 0.552993 0.250000
O O16 0.952213 0.598416 0.000000
O O17 0.500000 0.200205 0.750000
O O18 0.456377 0.147045 0.000000
#
# Coordination Sequence:
#
# PCOD8313330 Si02
#       6
#    16  16  16  16  16  16
#     4  11  21  36  58  85 116 158 202 245 298 350
#     4  11  24  43  66  92 118 149 185 231 287 353
#     4  10  22  40  61  86 118 153 190 234 287 347
#     4  11  22  37  59  89 125 161 201 247 292 346
#     4  11  21  36  55  77 106 142 189 240 292 346
#     4  12  24  37  55  78 107 146 192 240 291 344
#
# _framework density 19.669591
#
# number of rings (size 3 to 8) (size 9 to 14) (size 15 to 20)
#    0.000    1.000    1.667    7.500    0.000    3.833 
#    0.000    2.500    0.000    0.000    0.000    0.000 
#    0.000    0.333    0.000    3.333    0.000    2.000 
#
# Total GULP energy -1189446.407048 kJ/mol
# GULP energy per Si atom -12390.066740 kJ/mol
# Density = 1.962482 g / cm^3
# Si number density = 19.669591 Si / 1000 Ang^3
#
#
#
# Elastic Constant Matrix: (Units=GPa)
#
#
# Indices 1 2 3 4 5 6 
#
# 1 88.6561 44.5862 49.4484 0.0000 0.0000 0.0000
# 2 44.5862 88.6618 49.4482 0.0000 0.0000 0.0000
# 3 49.4484 49.4482 156.8008 0.0000 0.0000 0.0000
# 4 0.0000 0.0000 0.0000 31.6077 0.0000 0.0000
# 5 0.0000 0.0000 0.0000 0.0000 31.6080 0.0000
# 6 0.0000 0.0000 0.0000 0.0000 0.0000 -7.1952
#
#
#
# Elastic Compliance Matrix: (Units=1/GPa)
#
#
# Indices 1 2 3 4 5 6 
#
# 1 0.016245 -0.006446 -0.003090 0.000000 0.000000 0.000000
# 2 -0.006446 0.016243 -0.003090 0.000000 0.000000 0.000000
# 3 -0.003090 -0.003090 0.008326 0.000000 0.000000 0.000000
# 4 0.000000 0.000000 0.000000 0.031638 0.000000 0.000000
# 5 0.000000 0.000000 0.000000 0.000000 0.031638 0.000000
# 6 0.000000 0.000000 0.000000 0.000000 0.000000 -0.138981
#
#
# Mechanical properties :
#
#
# Convention : Reuss Voigt Hill
#
# Bulk Modulus (GPa) = 64.25398 69.00938 66.63168
# Shear Modulus (GPa) = -1123.01057 23.91316 -549.54871
#
# Velocity S-wave (km/s) = -23.92022 3.49053 -16.73310
# Velocity P-wave (km/s) = 27.02156 7.16977 18.42226
#
# Compressibility (1/GPa) = 0.01556324
#
# Stress axis : x y z
#
# Youngs Moduli (GPa) = 61.55845 61.56332 120.09954
#
# Poissons Ratio (x) = 0.39682 0.37113
# Poissons Ratio (y) = 0.39679 0.37108
# Poissons Ratio (z) = 0.19023 0.19022
#
# Static dielectric constant tensor:
#      x y z
#    x 3.691560 0.000000 0.000000 
#    y 0.000000 3.691560 0.000000 
#    z 0.000000 0.000000 3.598810 
# 
# 
# High freq. dielectric constant tensor:
#      x y z
#    x 1.752160 0.000000 0.000000 
#    y 0.000000 1.752160 0.000000 
#    z 0.000000 0.000000 1.783980 
# 
# From -- ./inp_files/1315.got.cif
#   From: 2010.03.12/outbox.cif.g09.slc.cpg/sg124_1_cif.got.tgz:1315.got - 2010.04.06 16:38:57.
