data_PCOD8313359
_publ_section_title
;
Structure prediction by ZEFSAII (Michael W. Deem and Ramdas Pophale) SiO2 
 PCOD8313359
Probable space group: P 4/M C C
;
_chemical_formula_sum "Si O2"
_cell_formula_units_Z 80
_cell_length_a 22.903758
_cell_length_b 22.903758
_cell_length_c 9.465581
_cell_angle_alpha 90.000000
_cell_angle_beta 90.000000
_cell_angle_gamma 90.000000
_cell_volume 4965.474648
_symmetry_space_group_name_H-M "P 4/M C C"
_symmetry_group_IT_number 124
_symmetry_cell_setting 'tetragonal'
loop_
_space_group_symop_operation_xyz
x,y,z
-y,x,z
-x,-y,z
y,-x,z
x,-y,1/2-z
-x,y,1/2-z
y,x,1/2-z
-y,-x,1/2-z
-x,-y,-z
y,-x,-z
x,y,-z
-y,x,-z
-x,y,1/2+z
x,-y,1/2+z
-y,-x,1/2+z
y,x,1/2+z
loop_
_atom_site_type_symbol
_atom_site_label
_atom_site_fract_x
_atom_site_fract_y
_atom_site_fract_z
Si Si1 0.721467 0.200707 0.341848
Si Si2 0.223049 0.550104 0.658139
Si Si3 0.374492 0.876053 0.761946
Si Si4 0.376572 0.700225 0.660206
Si Si5 0.946907 0.419803 0.500000
Si Si6 0.446907 0.082627 0.000000
O O1 0.776777 0.223224 0.250000
O O2 0.744797 0.188997 0.500000
O O3 0.692225 0.139990 0.283472
O O4 0.671388 0.249039 0.344782
O O5 0.191513 0.500000 0.750000
O O6 0.241362 0.530422 0.500000
O O7 0.178620 0.603847 0.644912
O O8 0.278988 0.566959 0.753270
O O9 0.418022 0.885188 0.631575
O O10 0.380213 0.932498 0.862794
O O11 0.354263 0.645737 0.750000
O O12 0.392873 0.681710 0.500000
O O13 0.911004 0.482053 0.500000
O O14 0.014912 0.431457 0.500000
#
# Coordination Sequence:
#
# PCOD8313359 Si02
#       6
#    16  16  16  16   8   8
#     4   9  18  30  47  66  86 107 136 178 229 290
#     4  11  21  30  44  63  84 109 141 176 218 267
#     4  11  21  33  48  66  88 115 149 193 243 281
#     4   9  17  29  44  61  84 108 132 162 206 262
#     4  11  22  34  49  66  84 128 163 206 238 285
#     4  11  22  36  47  62  92 120 169 204 244 273
#
# _framework density 16.111249999999998
#
# number of rings (size 3 to 8) (size 9 to 14) (size 15 to 20)
#    0.000    1.800    2.000    3.600    4.200    4.000 
#    0.000    0.000    0.000    0.000    0.000    0.000 
#    0.000    0.400    0.000    4.000    0.000    2.600 
#
# Total GULP energy -991291.497423 kJ/mol
# GULP energy per Si atom -12391.143718 kJ/mol
# Density = 1.607458 g / cm^3
# Si number density = 16.111250 Si / 1000 Ang^3
#
#
#
# Elastic Constant Matrix: (Units=GPa)
#
#
# Indices 1 2 3 4 5 6 
#
# 1 36.5460 24.9501 26.1133 0.0000 0.0000 0.0000
# 2 24.9501 36.5467 26.1138 0.0000 0.0000 0.0000
# 3 26.1133 26.1138 142.0025 0.0000 0.0000 0.0000
# 4 0.0000 0.0000 0.0000 -3.2248 0.0000 0.0000
# 5 0.0000 0.0000 0.0000 0.0000 -3.2255 0.0000
# 6 0.0000 0.0000 0.0000 0.0000 0.0000 24.9249
#
#
#
# Elastic Compliance Matrix: (Units=1/GPa)
#
#
# Indices 1 2 3 4 5 6 
#
# 1 0.052753 -0.033482 -0.003544 0.000000 0.000000 0.000000
# 2 -0.033482 0.052752 -0.003544 0.000000 0.000000 0.000000
# 3 -0.003544 -0.003544 0.008346 0.000000 0.000000 0.000000
# 4 0.000000 0.000000 0.000000 -0.310093 0.000000 0.000000
# 5 0.000000 0.000000 0.000000 0.000000 -0.310032 0.000000
# 6 0.000000 0.000000 0.000000 0.000000 0.000000 0.040120
#
#
# Mechanical properties :
#
#
# Convention : Reuss Voigt Hill
#
# Bulk Modulus (GPa) = 30.56998 41.04994 35.80996
# Shear Modulus (GPa) = -13.36502 12.88946 -0.23778
#
# Velocity S-wave (km/s) = -2.88331 2.83155 -0.38459
# Velocity P-wave (km/s) = 2.81618 6.01869 4.69869
#
# Compressibility (1/GPa) = 0.03271183
#
# Stress axis : x y z
#
# Youngs Moduli (GPa) = 18.95619 18.95650 119.82505
#
# Poissons Ratio (x) = 0.63470 0.42463
# Poissons Ratio (y) = 0.63469 0.42464
# Poissons Ratio (z) = 0.06718 0.06718
#
# Static dielectric constant tensor:
#      x y z
#    x 2.828160 0.000000 0.000000 
#    y 0.000000 2.828160 0.000000 
#    z 0.000000 0.000000 3.347330 
# 
# 
# High freq. dielectric constant tensor:
#      x y z
#    x 1.572180 0.000000 0.000000 
#    y 0.000000 1.572180 0.000000 
#    z 0.000000 0.000000 1.649450 
# 
# From -- ./inp_files/1219.got.cif
#   From: 2010.03.12/outbox.cif.g09.slc.cpg/sg124_1_cif.got.tgz:1219.got - 2010.04.06 16:38:57.
