data_PCOD8313809
_publ_section_title
;
Structure prediction by ZEFSAII (Michael W. Deem and Ramdas Pophale) SiO2 
 PCOD8313809
Probable space group: P 4/N N C
;
_chemical_formula_sum "Si O2"
_cell_formula_units_Z 64
_cell_length_a 18.627495
_cell_length_b 18.627495
_cell_length_c 7.898534
_cell_angle_alpha 90.000000
_cell_angle_beta 90.000000
_cell_angle_gamma 90.000000
_cell_volume 2740.661525
_symmetry_space_group_name_H-M "P 4/N N C"
_symmetry_group_IT_number 126
_space_group.IT_coordinate_system_code '2'
_symmetry_cell_setting 'tetragonal'
loop_
_space_group_symop_operation_xyz
x,y,z
1/2-y,x,z
1/2-x,1/2-y,z
y,1/2-x,z
x,1/2-y,1/2-z
1/2-x,y,1/2-z
y,x,1/2-z
1/2-y,1/2-x,1/2-z
-x,-y,-z
1/2+y,-x,-z
1/2+x,1/2+y,-z
-y,1/2+x,-z
-x,1/2+y,1/2+z
1/2+x,-y,1/2+z
-y,-x,1/2+z
1/2+y,1/2+x,1/2+z
loop_
_atom_site_type_symbol
_atom_site_label
_atom_site_fract_x
_atom_site_fract_y
_atom_site_fract_z
Si Si1 0.327603 0.396619 0.390653
Si Si2 0.080841 0.302791 0.893272
Si Si3 0.326182 0.569448 0.724102
Si Si4 0.827071 0.047955 0.669087
O O1 0.333497 0.333497 0.250000
O O2 0.370285 0.372804 0.564193
O O3 0.245672 0.417850 0.435228
O O4 0.358406 0.468116 0.293860
O O5 0.114095 0.250000 0.750000
O O6 0.000577 0.327860 0.845854
O O7 0.250000 0.610728 0.750000
O O8 0.392541 0.619560 0.761953
O O9 0.326107 0.545387 0.532437
O O10 0.750000 0.064987 0.750000
#
# Coordination Sequence:
#
# PCOD8313809 Si02
#       4
#    16  16  16  16
#     4  12  26  45  78 110 154 199 259 314 380 458
#     4  11  24  48  71 107 155 201 246 318 380 461
#     4  11  25  47  77 106 155 195 249 317 384 459
#     4  12  26  48  76 111 151 195 255 316 387 459
#
# _framework density 23.352027
#
# number of rings (size 3 to 8) (size 9 to 14) (size 15 to 20)
#    0.000    0.500    5.000    4.500    3.500    2.000 
#    0.000    7.500    0.000    0.000    0.000    0.000 
#    0.000    0.000    0.000    0.000    0.000    0.000 
#
# Total GULP energy -792950.691198 kJ/mol
# GULP energy per Si atom -12389.854550 kJ/mol
# Density = 2.329888 g / cm^3
# Si number density = 23.352027 Si / 1000 Ang^3
#
#
#
# Elastic Constant Matrix: (Units=GPa)
#
#
# Indices 1 2 3 4 5 6 
#
# 1 144.2590 96.1978 48.6408 0.0000 0.0000 0.0000
# 2 96.1978 144.2590 48.6408 0.0000 0.0000 0.0000
# 3 48.6408 48.6408 79.6842 0.0000 0.0000 0.0000
# 4 0.0000 0.0000 0.0000 53.6227 0.0000 0.0000
# 5 0.0000 0.0000 0.0000 0.0000 53.6227 0.0000
# 6 0.0000 0.0000 0.0000 0.0000 0.0000 37.8900
#
#
#
# Elastic Compliance Matrix: (Units=1/GPa)
#
#
# Indices 1 2 3 4 5 6 
#
# 1 0.013165 -0.007642 -0.003371 0.000000 0.000000 0.000000
# 2 -0.007642 0.013165 -0.003371 0.000000 0.000000 0.000000
# 3 -0.003371 -0.003371 0.016665 0.000000 0.000000 0.000000
# 4 0.000000 0.000000 0.000000 0.018649 0.000000 0.000000
# 5 0.000000 0.000000 0.000000 0.000000 0.018649 0.000000
# 6 0.000000 0.000000 0.000000 0.000000 0.000000 0.026392
#
#
# Mechanical properties :
#
#
# Convention : Reuss Voigt Hill
#
# Bulk Modulus (GPa) = 70.29429 83.90675 77.10052
# Shear Modulus (GPa) = 35.66462 40.67526 38.16994
#
# Velocity S-wave (km/s) = 3.91226 4.17805 4.04734
# Velocity P-wave (km/s) = 7.11161 7.69962 7.41145
#
# Compressibility (1/GPa) = 0.01422591
#
# Stress axis : x y z
#
# Youngs Moduli (GPa) = 75.96062 75.96062 60.00561
#
# Poissons Ratio (x) = 0.58050 0.20228
# Poissons Ratio (y) = 0.58050 0.20228
# Poissons Ratio (z) = 0.25607 0.25607
#
# Static dielectric constant tensor:
#      x y z
#    x 3.554350 0.000000 0.000000 
#    y 0.000000 3.554350 0.000000 
#    z 0.000000 0.000000 4.660360 
# 
# 
# High freq. dielectric constant tensor:
#      x y z
#    x 1.914590 0.000000 0.000000 
#    y 0.000000 1.914590 0.000000 
#    z 0.000000 0.000000 1.961990 
# 
# From -- ./inp_files/1509.got.cif
#   From: 2010.03.12/outbox.cif.g09.slc.cpg/sg126_1_cif.got.tgz:1509.got - 2010.04.06 16:55:23.
