data_PCOD8313877
_publ_section_title
;
Structure prediction by ZEFSAII (Michael W. Deem and Ramdas Pophale) SiO2 
 PCOD8313877
Probable space group: P 4/M B M
;
_chemical_formula_sum "Si O2"
_cell_formula_units_Z 96
_cell_length_a 19.962284
_cell_length_b 19.962284
_cell_length_c 13.665396
_cell_angle_alpha 90.000000
_cell_angle_beta 90.000000
_cell_angle_gamma 90.000000
_cell_volume 5445.561676
_symmetry_space_group_name_H-M "P 4/M B M"
_symmetry_group_IT_number 127
_symmetry_cell_setting 'tetragonal'
loop_
_space_group_symop_operation_xyz
x,y,z
-y,x,z
-x,-y,z
y,-x,z
1/2+x,1/2-y,-z
1/2-x,1/2+y,-z
1/2+y,1/2+x,-z
1/2-y,1/2-x,-z
-x,-y,-z
y,-x,-z
x,y,-z
-y,x,-z
1/2-x,1/2+y,z
1/2+x,1/2-y,z
1/2-y,1/2-x,z
1/2+y,1/2+x,z
loop_
_atom_site_type_symbol
_atom_site_label
_atom_site_fract_x
_atom_site_fract_y
_atom_site_fract_z
Si Si1 0.241288 0.632240 0.717646
Si Si2 0.441563 0.692600 0.887987
Si Si3 0.332819 0.720940 0.393071
Si Si4 0.191532 0.417088 0.739592
Si Si5 0.535125 0.855426 0.386304
Si Si6 0.909403 0.174121 0.111975
O O1 0.193563 0.693563 0.743176
O O2 0.310046 0.656101 0.667314
O O3 0.207277 0.581379 0.642003
O O4 0.260065 0.600269 0.821669
O O5 0.440931 0.763424 0.830507
O O6 0.512543 0.654248 0.876122
O O7 0.385548 0.639581 0.852648
O O8 0.428954 0.712779 0.000000
O O9 0.356478 0.697709 0.500000
O O10 0.270332 0.770332 0.401190
O O11 0.395474 0.756370 0.343386
O O12 0.144018 0.355983 0.774297
O O13 0.144626 0.473388 0.689526
O O14 0.512500 0.848632 0.500000
O O15 0.575134 0.924867 0.371398
O O16 0.893484 0.193740 0.000000
#
# Coordination Sequence:
#
# PCOD8313877 Si02
#       6
#    16  16  16  16  16  16
#     4  10  18  31  52  78 107 140 177 221 270 318
#     4  10  21  37  57  82 108 137 174 216 268 324
#     4   9  17  29  47  74 105 134 168 214 265 314
#     4  11  21  34  54  79 108 141 179 224 269 315
#     4  10  21  36  54  77 108 147 187 224 263 312
#     4  10  20  35  56  80 107 137 173 217 265 322
#
# _framework density 17.629035999999999
#
# number of rings (size 3 to 8) (size 9 to 14) (size 15 to 20)
#    0.000    2.000    3.333    1.000    0.000    4.333 
#    0.000    4.167    0.000    0.500    0.000    1.167 
#    0.000    2.667    0.000    0.000    0.000    0.000 
#
# Total GULP energy -1189997.307125 kJ/mol
# GULP energy per Si atom -12395.805283 kJ/mol
# Density = 1.758891 g / cm^3
# Si number density = 17.629036 Si / 1000 Ang^3
#
#
#
# Elastic Constant Matrix: (Units=GPa)
#
#
# Indices 1 2 3 4 5 6 
#
# 1 72.8122 24.7503 33.7020 0.0000 0.0000 0.0000
# 2 24.7503 72.8122 33.7020 0.0000 0.0000 0.0000
# 3 33.7020 33.7020 90.6937 0.0000 0.0000 0.0000
# 4 0.0000 0.0000 0.0000 27.3523 0.0000 0.0000
# 5 0.0000 0.0000 0.0000 0.0000 27.3523 0.0000
# 6 0.0000 0.0000 0.0000 0.0000 0.0000 22.8579
#
#
#
# Elastic Compliance Matrix: (Units=1/GPa)
#
#
# Indices 1 2 3 4 5 6 
#
# 1 0.017298 -0.003508 -0.005124 0.000000 0.000000 0.000000
# 2 -0.003508 0.017298 -0.005124 0.000000 0.000000 0.000000
# 3 -0.005124 -0.005124 0.014835 0.000000 0.000000 0.000000
# 4 0.000000 0.000000 0.000000 0.036560 0.000000 0.000000
# 5 0.000000 0.000000 0.000000 0.000000 0.036560 0.000000
# 6 0.000000 0.000000 0.000000 0.000000 0.000000 0.043748
#
#
# Mechanical properties :
#
#
# Convention : Reuss Voigt Hill
#
# Bulk Modulus (GPa) = 45.62625 46.73630 46.18128
# Shear Modulus (GPa) = 24.86080 25.12343 24.99212
#
# Velocity S-wave (km/s) = 3.75936 3.77917 3.76928
# Velocity P-wave (km/s) = 6.69188 6.75362 6.72282
#
# Compressibility (1/GPa) = 0.02191721
#
# Stress axis : x y z
#
# Youngs Moduli (GPa) = 57.80886 57.80886 67.40963
#
# Poissons Ratio (x) = 0.20280 0.34544
# Poissons Ratio (y) = 0.20280 0.34544
# Poissons Ratio (z) = 0.29624 0.29624
#
# Static dielectric constant tensor:
#      x y z
#    x 3.194420 0.000000 0.000000 
#    y 0.000000 3.194420 0.000000 
#    z 0.000000 0.000000 3.365910 
# 
# 
# High freq. dielectric constant tensor:
#      x y z
#    x 1.671630 0.000000 0.000000 
#    y 0.000000 1.671630 0.000000 
#    z 0.000000 0.000000 1.686780 
# 
# From -- ./inp_files/3534.got.cif
#   From: 2010.03.12/outbox.cif.g09.slc.cpg/sg127_2_cif.got.tgz:3534.got - 2010.04.06 17:03:15.
