data_PCOD8313128
_publ_section_title
;
Structure prediction by ZEFSAII (Michael W. Deem and Ramdas Pophale) SiO2 
 PCOD8313128
Probable space group: P 4/M C C
;
_chemical_formula_sum "Si O2"
_cell_formula_units_Z 96
_cell_length_a 23.265324
_cell_length_b 23.265324
_cell_length_c 9.963679
_cell_angle_alpha 90.000000
_cell_angle_beta 90.000000
_cell_angle_gamma 90.000000
_cell_volume 5393.093348
_symmetry_space_group_name_H-M "P 4/M C C"
_symmetry_group_IT_number 124
_symmetry_cell_setting 'tetragonal'
loop_
_space_group_symop_operation_xyz
x,y,z
-y,x,z
-x,-y,z
y,-x,z
x,-y,1/2-z
-x,y,1/2-z
y,x,1/2-z
-y,-x,1/2-z
-x,-y,-z
y,-x,-z
x,y,-z
-y,x,-z
-x,y,1/2+z
x,-y,1/2+z
-y,-x,1/2+z
y,x,1/2+z
loop_
_atom_site_type_symbol
_atom_site_label
_atom_site_fract_x
_atom_site_fract_y
_atom_site_fract_z
Si Si1 0.055696 0.866306 0.338713
Si Si2 0.433321 0.729715 0.500000
Si Si3 0.051604 0.731904 0.346869
Si Si4 0.574284 0.134076 0.500000
Si Si5 0.136176 0.446006 0.000000
Si Si6 0.363613 0.864324 0.234563
Si Si7 0.363280 0.271284 0.745613
Si Si8 0.438896 0.272335 0.500000
O O1 0.106868 0.893133 0.250000
O O2 0.052532 0.885400 0.500000
O O3 0.066338 0.798667 0.332899
O O4 0.000000 0.883873 0.250000
O O5 0.435381 0.798230 0.500000
O O6 0.398732 0.708052 0.627059
O O7 0.496868 0.701569 0.500000
O O8 0.034653 0.717142 0.500000
O O9 0.107637 0.697204 0.300907
O O10 0.000000 0.713531 0.250000
O O11 0.509683 0.107912 0.500000
O O12 0.611627 0.113190 0.374682
O O13 0.115365 0.411859 0.130148
O O14 0.204475 0.447883 0.000000
O O15 0.352189 0.796456 0.235654
O O16 0.301176 0.301176 0.750000
O O17 0.402633 0.293779 0.625645
#
# Coordination Sequence:
#
# PCOD8313128 Si02
#       8
#    16   8  16   8   8  16  16   8
#     4  10  21  39  62  89 117 146 183 226 272 319
#     4   9  17  31  45  70 102 135 180 206 255 319
#     4  10  22  39  59  79 107 147 190 224 256 313
#     4   9  18  29  50  79  99 133 176 228 267 322
#     4   9  16  31  52  73 101 133 180 220 271 324
#     4  10  19  33  52  76 104 141 178 215 276 326
#     4  10  19  30  48  75 110 135 164 215 269 319
#     4   9  17  29  49  68  98 143 172 212 253 313
#
# _framework density 17.800546000000001
#
# number of rings (size 3 to 8) (size 9 to 14) (size 15 to 20)
#    0.000    2.333    0.833    2.000    1.167    5.500 
#    0.000    0.833    0.000    3.000    0.000    0.000 
#    0.000   23.333    0.000    0.000    0.000    0.000 
#
# Total GULP energy -1189761.590878 kJ/mol
# GULP energy per Si atom -12393.349905 kJ/mol
# Density = 1.776003 g / cm^3
# Si number density = 17.800546 Si / 1000 Ang^3
#
#
#
# Elastic Constant Matrix: (Units=GPa)
#
#
# Indices 1 2 3 4 5 6 
#
# 1 71.6175 46.7077 51.8694 0.0000 0.0000 0.0000
# 2 46.7077 71.6231 51.8707 0.0000 0.0000 0.0000
# 3 51.8694 51.8707 179.2544 0.0000 0.0000 0.0000
# 4 0.0000 0.0000 0.0000 -267.6157 0.0000 0.0000
# 5 0.0000 0.0000 0.0000 0.0000 -267.5556 0.0000
# 6 0.0000 0.0000 0.0000 0.0000 0.0000 10.1110
#
#
#
# Elastic Compliance Matrix: (Units=1/GPa)
#
#
# Indices 1 2 3 4 5 6 
#
# 1 0.025733 -0.014408 -0.003277 0.000000 0.000000 0.000000
# 2 -0.014408 0.025731 -0.003277 0.000000 0.000000 0.000000
# 3 -0.003277 -0.003277 0.007475 0.000000 0.000000 0.000000
# 4 0.000000 0.000000 0.000000 -0.003737 0.000000 0.000000
# 5 0.000000 0.000000 0.000000 0.000000 -0.003738 0.000000
# 6 0.000000 0.000000 0.000000 0.000000 0.000000 0.098903
#
#
# Mechanical properties :
#
#
# Convention : Reuss Voigt Hill
#
# Bulk Modulus (GPa) = 58.76898 69.26563 64.01731
# Shear Modulus (GPa) = 25.25726 -93.54225 -34.14249
#
# Velocity S-wave (km/s) = 3.77092 -7.25702 -4.38432
# Velocity P-wave (km/s) = 7.21434 5.58771 3.22678
#
# Compressibility (1/GPa) = 0.01701578
#
# Stress axis : x y z
#
# Youngs Moduli (GPa) = 38.86030 38.86364 133.77907
#
# Poissons Ratio (x) = 0.55996 0.43838
# Poissons Ratio (y) = 0.55991 0.43834
# Poissons Ratio (z) = 0.12734 0.12734
#
# Static dielectric constant tensor:
#      x y z
#    x 3.123240 0.000000 0.000000 
#    y 0.000000 3.123240 0.000000 
#    z 0.000000 0.000000 3.723520 
# 
# 
# High freq. dielectric constant tensor:
#      x y z
#    x 1.668510 0.000000 0.000000 
#    y 0.000000 1.668510 0.000000 
#    z 0.000000 0.000000 1.714410 
# 
# From -- ./inp_files/1461.got.cif
#   From: 2010.03.12/outbox.cif.g09.slc.cpg/sg124_1_cif.got.tgz:1461.got - 2010.04.06 16:38:57.
