data_PCOD8313543
_publ_section_title
;
Structure prediction by ZEFSAII (Michael W. Deem and Ramdas Pophale) SiO2 
 PCOD8313543
Probable space group: P 4/N B M
;
_chemical_formula_sum "Si O2"
_cell_formula_units_Z 112
_cell_length_a 13.351524
_cell_length_b 13.351524
_cell_length_c 33.908263
_cell_angle_alpha 90.000000
_cell_angle_beta 90.000000
_cell_angle_gamma 90.000000
_cell_volume 6044.595236
_symmetry_space_group_name_H-M "P 4/N B M"
_symmetry_group_IT_number 125
_space_group.IT_coordinate_system_code '2'
_symmetry_cell_setting 'tetragonal'
loop_
_space_group_symop_operation_xyz
x,y,z
1/2-y,x,z
1/2-x,1/2-y,z
y,1/2-x,z
x,1/2-y,-z
1/2-x,y,-z
y,x,-z
1/2-y,1/2-x,-z
-x,-y,-z
1/2+y,-x,-z
1/2+x,1/2+y,-z
-y,1/2+x,-z
-x,1/2+y,z
1/2+x,-y,z
-y,-x,z
1/2+y,1/2+x,z
loop_
_atom_site_type_symbol
_atom_site_label
_atom_site_fract_x
_atom_site_fract_y
_atom_site_fract_z
Si Si1 0.412970 0.746972 0.892848
Si Si2 0.587096 0.245012 0.195183
Si Si3 0.464581 0.374770 0.536763
Si Si4 0.267650 0.413683 0.654858
Si Si5 0.751602 0.586162 0.044442
Si Si6 0.736226 0.586085 0.256723
Si Si7 0.987442 0.325653 0.579193
O O1 0.360861 0.639140 0.897226
O O2 0.333425 0.833425 0.900786
O O3 0.459006 0.758870 0.848893
O O4 0.497948 0.755841 0.924832
O O5 0.670323 0.329678 0.196503
O O6 0.638348 0.138348 0.205696
O O7 0.502554 0.272420 0.226051
O O8 0.387201 0.387201 0.500000
O O9 0.566826 0.433175 0.526252
O O10 0.496168 0.260899 0.546357
O O11 0.408101 0.424913 0.573943
O O12 0.163235 0.358095 0.648427
O O13 0.270039 0.458731 0.698999
O O14 0.279866 0.503153 0.623180
O O15 0.849344 0.652633 0.051500
O O16 0.750000 0.542804 0.000000
O O17 0.839841 0.643673 0.249968
O O18 0.878557 0.378557 0.573983
#
# Coordination Sequence:
#
# PCOD8313543 Si02
#       7
#    16  16  16  16  16  16  16
#     4   9  19  35  53  74 102 137 178 224 271 322
#     4   9  19  36  54  74 105 143 181 222 272 330
#     4  10  22  39  57  84 117 146 187 231 270 324
#     4   9  17  34  56  79 110 145 186 229 267 316
#     4   9  19  35  52  73 104 139 174 216 268 325
#     4   9  19  34  54  81 110 141 181 229 274 322
#     4  11  21  35  59  86 114 150 188 229 274 322
#
# _framework density 18.528948
#
# number of rings (size 3 to 8) (size 9 to 14) (size 15 to 20)
#    0.000    2.571    1.429    2.571    0.000    4.000 
#    0.000   10.000    0.000    2.571    0.000    0.000 
#    0.000    0.000    0.000    0.000    0.000    0.000 
#
# Total GULP energy -1388321.931527 kJ/mol
# GULP energy per Si atom -12395.731531 kJ/mol
# Density = 1.848678 g / cm^3
# Si number density = 18.528948 Si / 1000 Ang^3
#
#
#
# Elastic Constant Matrix: (Units=GPa)
#
#
# Indices 1 2 3 4 5 6 
#
# 1 86.2258 24.2287 56.2116 0.0000 0.0000 0.0000
# 2 24.2287 86.2258 56.2116 0.0000 0.0000 0.0000
# 3 56.2116 56.2116 142.4729 0.0000 0.0000 0.0000
# 4 0.0000 0.0000 0.0000 32.1614 0.0000 0.0000
# 5 0.0000 0.0000 0.0000 0.0000 32.1614 0.0000
# 6 0.0000 0.0000 0.0000 0.0000 0.0000 16.3856
#
#
#
# Elastic Compliance Matrix: (Units=1/GPa)
#
#
# Indices 1 2 3 4 5 6 
#
# 1 0.015629 -0.000500 -0.005969 0.000000 0.000000 0.000000
# 2 -0.000500 0.015629 -0.005969 0.000000 0.000000 0.000000
# 3 -0.005969 -0.005969 0.011729 0.000000 0.000000 0.000000
# 4 0.000000 0.000000 0.000000 0.031093 0.000000 0.000000
# 5 0.000000 0.000000 0.000000 0.000000 0.031093 0.000000
# 6 0.000000 0.000000 0.000000 0.000000 0.000000 0.061029
#
#
# Mechanical properties :
#
#
# Convention : Reuss Voigt Hill
#
# Bulk Modulus (GPa) = 55.21587 65.35867 60.28727
# Shear Modulus (GPa) = 25.36567 28.02653 26.69610
#
# Velocity S-wave (km/s) = 3.70398 3.89341 3.79988
# Velocity P-wave (km/s) = 6.93953 7.45399 7.20136
#
# Compressibility (1/GPa) = 0.01811073
#
# Stress axis : x y z
#
# Youngs Moduli (GPa) = 63.98230 63.98230 85.25943
#
# Poissons Ratio (x) = 0.03202 0.50891
# Poissons Ratio (y) = 0.03202 0.50891
# Poissons Ratio (z) = 0.38191 0.38191
#
# Static dielectric constant tensor:
#      x y z
#    x 3.267990 0.000000 0.000000 
#    y 0.000000 3.267990 0.000000 
#    z 0.000000 0.000000 3.548150 
# 
# 
# High freq. dielectric constant tensor:
#      x y z
#    x 1.704910 0.000000 0.000000 
#    y 0.000000 1.704910 0.000000 
#    z 0.000000 0.000000 1.730730 
# 
# From -- ./inp_files/6658.got.cif
#   From: 2010.03.12/outbox.cif.g09.slc.cpg/sg125_4_cif.got.tgz:6658.got - 2010.04.06 16:47:52.
