data_PCOD8313336
_publ_section_title
;
Structure prediction by ZEFSAII (Michael W. Deem and Ramdas Pophale) SiO2 
 PCOD8313336
Probable space group: P 4/M C C
;
_chemical_formula_sum "Si O2"
_cell_formula_units_Z 72
_cell_length_a 15.328459
_cell_length_b 15.328459
_cell_length_c 14.405358
_cell_angle_alpha 90.000000
_cell_angle_beta 90.000000
_cell_angle_gamma 90.000000
_cell_volume 3384.706761
_symmetry_space_group_name_H-M "P 4/M C C"
_symmetry_group_IT_number 124
_symmetry_cell_setting 'tetragonal'
loop_
_space_group_symop_operation_xyz
x,y,z
-y,x,z
-x,-y,z
y,-x,z
x,-y,1/2-z
-x,y,1/2-z
y,x,1/2-z
-y,-x,1/2-z
-x,-y,-z
y,-x,-z
x,y,-z
-y,x,-z
-x,y,1/2+z
x,-y,1/2+z
-y,-x,1/2+z
y,x,1/2+z
loop_
_atom_site_type_symbol
_atom_site_label
_atom_site_fract_x
_atom_site_fract_y
_atom_site_fract_z
Si Si1 0.362612 0.497495 0.109684
Si Si2 0.922580 0.882023 0.394281
Si Si3 0.635927 0.899653 0.742661
Si Si4 0.162919 0.491387 0.611342
Si Si5 0.804812 0.804812 0.250000
O O1 0.415052 0.412052 0.146124
O O2 0.263189 0.495569 0.143818
O O3 0.363743 0.498443 0.000000
O O4 0.906418 0.856547 0.500000
O O5 0.875160 0.811814 0.332030
O O6 0.024312 0.881575 0.370922
O O7 0.567228 0.894782 0.658015
O O8 0.598134 0.871186 0.843094
O O9 0.708751 0.827571 0.713257
O O10 0.669205 0.000000 0.750000
O O11 0.150533 0.489690 0.500000
#
# Coordination Sequence:
#
# PCOD8313336 Si02
#       5
#    16  16  16  16   8
#     4   8  15  30  57  93 127 157 194 242 298 361
#     4   9  18  34  58  88 120 157 200 244 306 383
#     4  11  26  43  60  91 124 158 213 257 303 381
#     4  10  22  42  68  88 122 168 208 254 302 360
#     4  12  24  39  62  88 125 160 200 268 324 354
#
# _framework density 21.272151999999998
#
# number of rings (size 3 to 8) (size 9 to 14) (size 15 to 20)
#    0.000    2.222    0.000    4.667    3.111    4.444 
#    0.000    0.000    0.000    5.333    0.000    0.000 
#    0.000    0.000    0.000    0.000    0.000    0.000 
#
# Total GULP energy -892414.785596 kJ/mol
# GULP energy per Si atom -12394.649800 kJ/mol
# Density = 2.122374 g / cm^3
# Si number density = 21.272152 Si / 1000 Ang^3
#
#
#
# Elastic Constant Matrix: (Units=GPa)
#
#
# Indices 1 2 3 4 5 6 
#
# 1 84.8075 22.8536 12.9170 0.0000 0.0000 0.0000
# 2 22.8536 84.8075 12.9170 0.0000 0.0000 0.0000
# 3 12.9170 12.9170 95.4559 0.0000 0.0000 0.0000
# 4 0.0000 0.0000 0.0000 -0.0886 0.0000 0.0000
# 5 0.0000 0.0000 0.0000 0.0000 -0.0886 0.0000
# 6 0.0000 0.0000 0.0000 0.0000 0.0000 34.4554
#
#
#
# Elastic Compliance Matrix: (Units=1/GPa)
#
#
# Indices 1 2 3 4 5 6 
#
# 1 0.012871 -0.003270 -0.001299 0.000000 0.000000 0.000000
# 2 -0.003270 0.012871 -0.001299 0.000000 0.000000 0.000000
# 3 -0.001299 -0.001299 0.010828 0.000000 0.000000 0.000000
# 4 0.000000 0.000000 0.000000-11.280536 0.000000 0.000000
# 5 0.000000 0.000000 0.000000 0.000000-11.281307 0.000000
# 6 0.000000 0.000000 0.000000 0.000000 0.000000 0.029023
#
#
# Mechanical properties :
#
#
# Convention : Reuss Voigt Hill
#
# Bulk Modulus (GPa) = 40.27130 40.27176 40.27153
# Shear Modulus (GPa) = -0.22246 21.28119 10.52936
#
# Velocity S-wave (km/s) = -0.32373 3.16638 2.22724
# Velocity P-wave (km/s) = 4.33968 5.68689 5.05834
#
# Compressibility (1/GPa) = 0.02483158
#
# Stress axis : x y z
#
# Youngs Moduli (GPa) = 77.69654 77.69654 92.35642
#
# Poissons Ratio (x) = 0.25410 0.11998
# Poissons Ratio (y) = 0.25410 0.11998
# Poissons Ratio (z) = 0.10093 0.10093
#
# Static dielectric constant tensor:
#      x y z
#    x 3.867230 0.000000 0.000000 
#    y 0.000000 3.867230 0.000000 
#    z 0.000000 0.000000 3.656130 
# 
# 
# High freq. dielectric constant tensor:
#      x y z
#    x 1.830380 0.000000 0.000000 
#    y 0.000000 1.830380 0.000000 
#    z 0.000000 0.000000 1.833050 
# 
# From -- ./inp_files/4096.got.cif
#   From: 2010.03.12/outbox.cif.g09.slc.cpg/sg124_3_cif.got.tgz:4096.got - 2010.04.06 16:38:57.
