data_PCOD8313719
_publ_section_title
;
Structure prediction by ZEFSAII (Michael W. Deem and Ramdas Pophale) SiO2 
 PCOD8313719
Probable space group: P 4/N N C
;
_chemical_formula_sum "Si O2"
_cell_formula_units_Z 56
_cell_length_a 16.093145
_cell_length_b 16.093145
_cell_length_c 10.139306
_cell_angle_alpha 90.000000
_cell_angle_beta 90.000000
_cell_angle_gamma 90.000000
_cell_volume 2625.971926
_symmetry_space_group_name_H-M "P 4/N N C"
_symmetry_group_IT_number 126
_space_group.IT_coordinate_system_code '2'
_symmetry_cell_setting 'tetragonal'
loop_
_space_group_symop_operation_xyz
x,y,z
1/2-y,x,z
1/2-x,1/2-y,z
y,1/2-x,z
x,1/2-y,1/2-z
1/2-x,y,1/2-z
y,x,1/2-z
1/2-y,1/2-x,1/2-z
-x,-y,-z
1/2+y,-x,-z
1/2+x,1/2+y,-z
-y,1/2+x,-z
-x,1/2+y,1/2+z
1/2+x,-y,1/2+z
-y,-x,1/2+z
1/2+y,1/2+x,1/2+z
loop_
_atom_site_type_symbol
_atom_site_label
_atom_site_fract_x
_atom_site_fract_y
_atom_site_fract_z
Si Si1 0.201070 0.371023 0.480262
Si Si2 0.799357 0.049885 0.884511
Si Si3 0.078520 0.804900 0.133851
Si Si4 0.418765 0.250000 0.750000
O O1 0.143133 0.296125 0.429756
O O2 0.168688 0.458399 0.426106
O O3 0.198149 0.365922 0.641854
O O4 0.750000 0.044724 0.750000
O O5 0.882103 0.104172 0.869348
O O6 0.740312 0.091085 0.994021
O O7 0.122106 0.750000 0.250000
O O8 0.979659 0.812258 0.165746
#
# Coordination Sequence:
#
# PCOD8313719 Si02
#       4
#    16  16  16   8
#     4  10  21  39  65  89 118 164 214 258 305 370
#     4  11  22  36  60  90 127 158 203 254 314 366
#     4   9  20  37  59  90 121 161 205 248 298 374
#     4   8  18  37  61  92 118 152 214 258 302 360
#
# _framework density 21.325434999999999
#
# number of rings (size 3 to 8) (size 9 to 14) (size 15 to 20)
#    0.857    1.429    0.000    2.571    0.000    5.714 
#    0.000    7.143   12.571    0.000    0.000    0.000 
#    0.000    0.000    0.000    0.000    0.000    0.000 
#
# Total GULP energy -694194.252853 kJ/mol
# GULP energy per Si atom -12396.325944 kJ/mol
# Density = 2.127690 g / cm^3
# Si number density = 21.325435 Si / 1000 Ang^3
#
#
#
# Elastic Constant Matrix: (Units=GPa)
#
#
# Indices 1 2 3 4 5 6 
#
# 1 73.4051 17.8458 3.4292 0.0000 0.0000 0.0000
# 2 17.8458 73.4051 3.4292 0.0000 0.0000 0.0000
# 3 3.4292 3.4292 110.6847 0.0000 0.0000 0.0000
# 4 0.0000 0.0000 0.0000 13.6056 0.0000 0.0000
# 5 0.0000 0.0000 0.0000 0.0000 13.6056 0.0000
# 6 0.0000 0.0000 0.0000 0.0000 0.0000 13.3280
#
#
#
# Elastic Compliance Matrix: (Units=1/GPa)
#
#
# Indices 1 2 3 4 5 6 
#
# 1 0.014492 -0.003507 -0.000340 0.000000 0.000000 0.000000
# 2 -0.003507 0.014492 -0.000340 0.000000 0.000000 0.000000
# 3 -0.000340 -0.000340 0.009056 0.000000 0.000000 0.000000
# 4 0.000000 0.000000 0.000000 0.073499 0.000000 0.000000
# 5 0.000000 0.000000 0.000000 0.000000 0.073499 0.000000
# 6 0.000000 0.000000 0.000000 0.000000 0.000000 0.075030
#
#
# Mechanical properties :
#
#
# Convention : Reuss Voigt Hill
#
# Bulk Modulus (GPa) = 33.71175 34.10037 33.90606
# Shear Modulus (GPa) = 17.96424 23.62722 20.79573
#
# Velocity S-wave (km/s) = 2.90554 3.33218 3.12614
# Velocity P-wave (km/s) = 5.20565 5.55245 5.38184
#
# Compressibility (1/GPa) = 0.02966325
#
# Stress axis : x y z
#
# Youngs Moduli (GPa) = 69.00558 69.00558 110.42692
#
# Poissons Ratio (x) = 0.24202 0.03758
# Poissons Ratio (y) = 0.24202 0.03758
# Poissons Ratio (z) = 0.02348 0.02348
#
# Static dielectric constant tensor:
#      x y z
#    x 3.574160 0.000000 0.000000 
#    y 0.000000 3.574160 0.000000 
#    z 0.000000 0.000000 3.981620 
# 
# 
# High freq. dielectric constant tensor:
#      x y z
#    x 1.819070 0.000000 0.000000 
#    y 0.000000 1.819070 0.000000 
#    z 0.000000 0.000000 1.851100 
# 
# From -- ./inp_files/2494.got.cif
#   From: 2010.03.12/outbox.cif.g09.slc.cpg/sg126_2_cif.got.tgz:2494.got - 2010.04.06 16:55:23.
