data_PCOD8313236
_publ_section_title
;
Structure prediction by ZEFSAII (Michael W. Deem and Ramdas Pophale) SiO2 
 PCOD8313236
Probable space group: P 4/M C C
;
_chemical_formula_sum "Si O2"
_cell_formula_units_Z 96
_cell_length_a 24.034073
_cell_length_b 24.034073
_cell_length_c 8.830131
_cell_angle_alpha 90.000000
_cell_angle_beta 90.000000
_cell_angle_gamma 90.000000
_cell_volume 5100.607422
_symmetry_space_group_name_H-M "P 4/M C C"
_symmetry_group_IT_number 124
_symmetry_cell_setting 'tetragonal'
loop_
_space_group_symop_operation_xyz
x,y,z
-y,x,z
-x,-y,z
y,-x,z
x,-y,1/2-z
-x,y,1/2-z
y,x,1/2-z
-y,-x,1/2-z
-x,-y,-z
y,-x,-z
x,y,-z
-y,x,-z
-x,y,1/2+z
x,-y,1/2+z
-y,-x,1/2+z
y,x,1/2+z
loop_
_atom_site_type_symbol
_atom_site_label
_atom_site_fract_x
_atom_site_fract_y
_atom_site_fract_z
Si Si1 0.060176 0.143060 0.320973
Si Si2 0.443912 0.060300 0.320257
Si Si3 0.858900 0.359195 0.178025
Si Si4 0.555408 0.233786 0.324611
Si Si5 0.640035 0.556880 0.320771
Si Si6 0.767301 0.151249 0.322706
O O1 0.088150 0.088150 0.250000
O O2 0.055215 0.134790 0.500000
O O3 0.096656 0.197242 0.278102
O O4 0.000000 0.152308 0.250000
O O5 0.500000 0.087981 0.250000
O O6 0.449617 0.057098 0.500000
O O7 0.389211 0.093750 0.274067
O O8 0.436592 0.000000 0.250000
O O9 0.800929 0.389610 0.216458
O O10 0.855806 0.295706 0.235655
O O11 0.873210 0.362441 0.000000
O O12 0.500000 0.207847 0.250000
O O13 0.542880 0.232502 0.500000
O O14 0.565434 0.296416 0.268312
O O15 0.616185 0.500000 0.250000
O O16 0.608190 0.608190 0.250000
O O17 0.632500 0.555568 0.500000
O O18 0.793803 0.206198 0.250000
O O19 0.767829 0.161180 0.500000
#
# Coordination Sequence:
#
# PCOD8313236 Si02
#       6
#    16  16  16  16  16  16
#     4  10  20  36  57  82 110 143 178 217 262 310
#     4  11  22  37  56  80 110 145 181 224 274 325
#     4  10  20  36  56  81 110 143 183 226 268 318
#     4   9  19  34  53  75 104 137 172 215 265 313
#     4  10  20  35  53  76 103 135 171 213 262 317
#     4   9  20  37  56  78 110 146 181 222 268 314
#
# _framework density 18.821287999999999
#
# number of rings (size 3 to 8) (size 9 to 14) (size 15 to 20)
#    0.000    2.167    0.000    3.500    0.000    5.667 
#    0.000    3.333    0.000    0.000    0.000    0.000 
#    0.000    0.000    0.000    0.000    0.000    0.000 
#
# Total GULP energy -1190576.407574 kJ/mol
# GULP energy per Si atom -12401.837579 kJ/mol
# Density = 1.877845 g / cm^3
# Si number density = 18.821288 Si / 1000 Ang^3
#
#
#
# Elastic Constant Matrix: (Units=GPa)
#
#
# Indices 1 2 3 4 5 6 
#
# 1 137.1687 70.2058 53.0400 0.0000 0.0000 0.0000
# 2 70.2058 137.1661 53.0396 0.0000 0.0000 0.0000
# 3 53.0400 53.0396 87.0355 0.0000 0.0000 0.0000
# 4 0.0000 0.0000 0.0000 29.6774 0.0000 0.0000
# 5 0.0000 0.0000 0.0000 0.0000 29.6777 0.0000
# 6 0.0000 0.0000 0.0000 0.0000 0.0000 45.1856
#
#
#
# Elastic Compliance Matrix: (Units=1/GPa)
#
#
# Indices 1 2 3 4 5 6 
#
# 1 0.010970 -0.003964 -0.004270 0.000000 0.000000 0.000000
# 2 -0.003964 0.010970 -0.004270 0.000000 0.000000 0.000000
# 3 -0.004270 -0.004270 0.016694 0.000000 0.000000 0.000000
# 4 0.000000 0.000000 0.000000 0.033696 0.000000 0.000000
# 5 0.000000 0.000000 0.000000 0.000000 0.033695 0.000000
# 6 0.000000 0.000000 0.000000 0.000000 0.000000 0.022131
#
#
# Mechanical properties :
#
#
# Convention : Reuss Voigt Hill
#
# Bulk Modulus (GPa) = 73.38152 79.32680 76.35416
# Shear Modulus (GPa) = 31.70483 33.24711 32.47597
#
# Velocity S-wave (km/s) = 4.10874 4.20749 4.15841
# Velocity P-wave (km/s) = 7.84744 8.11436 7.98201
#
# Compressibility (1/GPa) = 0.01362741
#
# Stress axis : x y z
#
# Youngs Moduli (GPa) = 91.15747 91.15559 59.90351
#
# Poissons Ratio (x) = 0.36132 0.25577
# Poissons Ratio (y) = 0.36133 0.25577
# Poissons Ratio (z) = 0.38921 0.38921
#
# Static dielectric constant tensor:
#      x y z
#    x 3.606410 0.000000 0.000000 
#    y 0.000000 3.606420 0.000000 
#    z 0.000000 0.000000 3.444080 
# 
# 
# High freq. dielectric constant tensor:
#      x y z
#    x 1.733740 0.000000 0.000000 
#    y 0.000000 1.733740 0.000000 
#    z 0.000000 0.000000 1.733890 
# 
# From -- ./inp_files/1340.got.cif
#   From: 2010.03.12/outbox.cif.g09.slc.cpg/sg124_1_cif.got.tgz:1340.got - 2010.04.06 16:38:57.
