data_PCOD8313642
_publ_section_title
;
Structure prediction by ZEFSAII (Michael W. Deem and Ramdas Pophale) SiO2 
 PCOD8313642
Probable space group: P 4/N N C
;
_chemical_formula_sum "Si O2"
_cell_formula_units_Z 80
_cell_length_a 31.665117
_cell_length_b 31.665117
_cell_length_c 5.039209
_cell_angle_alpha 90.000000
_cell_angle_beta 90.000000
_cell_angle_gamma 90.000000
_cell_volume 5052.712239
_symmetry_space_group_name_H-M "P 4/N N C"
_symmetry_group_IT_number 126
_space_group.IT_coordinate_system_code '2'
_symmetry_cell_setting 'tetragonal'
loop_
_space_group_symop_operation_xyz
x,y,z
1/2-y,x,z
1/2-x,1/2-y,z
y,1/2-x,z
x,1/2-y,1/2-z
1/2-x,y,1/2-z
y,x,1/2-z
1/2-y,1/2-x,1/2-z
-x,-y,-z
1/2+y,-x,-z
1/2+x,1/2+y,-z
-y,1/2+x,-z
-x,1/2+y,1/2+z
1/2+x,-y,1/2+z
-y,-x,1/2+z
1/2+y,1/2+x,1/2+z
loop_
_atom_site_type_symbol
_atom_site_label
_atom_site_fract_x
_atom_site_fract_y
_atom_site_fract_z
Si Si1 0.479927 0.204517 0.798037
Si Si2 0.380666 0.445011 0.701541
Si Si3 0.115005 0.576265 0.251351
Si Si4 0.964232 0.203578 0.203251
Si Si5 0.514848 0.919524 0.797296
O O1 0.458387 0.250000 0.750000
O O2 0.444515 0.169275 0.749565
O O3 0.519427 0.199027 0.597759
O O4 0.496244 0.199877 0.097454
O O5 0.397719 0.397719 0.750000
O O6 0.389044 0.459761 0.402073
O O7 0.404664 0.477011 0.901484
O O8 0.104964 0.604581 0.502542
O O9 0.165093 0.567355 0.257632
O O10 0.085171 0.534705 0.242035
O O11 0.942718 0.250000 0.250000
O O12 0.532346 0.967655 0.750000
#
# Coordination Sequence:
#
# PCOD8313642 Si02
#       5
#    16  16  16  16  16
#     4  10  17  29  49  67  85 114 155 192 230 273
#     4  10  17  29  46  63  89 120 155 191 225 263
#     4  12  22  32  49  68  94 119 156 192 219 262
#     4  10  20  34  50  67  90 116 148 187 234 271
#     4  10  20  32  45  61  92 129 159 186 215 252
#
# _framework density 15.833079
#
# number of rings (size 3 to 8) (size 9 to 14) (size 15 to 20)
#    0.000    1.600    4.000    2.400    0.000    0.800 
#    0.000    0.000    0.000    0.000    0.000    0.000 
#    0.000    2.800    0.000    0.000    0.000   31.200 
#
# Total GULP energy -991799.934362 kJ/mol
# GULP energy per Si atom -12397.499180 kJ/mol
# Density = 1.579704 g / cm^3
# Si number density = 15.833079 Si / 1000 Ang^3
#
#
#
# Elastic Constant Matrix: (Units=GPa)
#
#
# Indices 1 2 3 4 5 6 
#
# 1 99.0187 38.5542 16.7133 0.0000 0.0000 0.0000
# 2 38.5542 99.0182 16.7133 0.0000 0.0000 0.0000
# 3 16.7133 16.7133 77.1010 0.0000 0.0000 0.0000
# 4 0.0000 0.0000 0.0000 19.5340 0.0000 0.0000
# 5 0.0000 0.0000 0.0000 0.0000 19.5345 0.0000
# 6 0.0000 0.0000 0.0000 0.0000 0.0000 16.3101
#
#
#
# Elastic Compliance Matrix: (Units=1/GPa)
#
#
# Indices 1 2 3 4 5 6 
#
# 1 0.012106 -0.004433 -0.001663 0.000000 0.000000 0.000000
# 2 -0.004433 0.012106 -0.001663 0.000000 0.000000 0.000000
# 3 -0.001663 -0.001663 0.013691 0.000000 0.000000 0.000000
# 4 0.000000 0.000000 0.000000 0.051193 0.000000 0.000000
# 5 0.000000 0.000000 0.000000 0.000000 0.051191 0.000000
# 6 0.000000 0.000000 0.000000 0.000000 0.000000 0.061312
#
#
# Mechanical properties :
#
#
# Convention : Reuss Voigt Hill
#
# Bulk Modulus (GPa) = 44.67479 46.56660 45.62070
# Shear Modulus (GPa) = 22.26389 24.61954 23.44172
#
# Velocity S-wave (km/s) = 3.75395 3.94755 3.85197
# Velocity P-wave (km/s) = 6.86053 7.08889 6.97565
#
# Compressibility (1/GPa) = 0.02238399
#
# Stress axis : x y z
#
# Youngs Moduli (GPa) = 82.60484 82.60444 73.04008
#
# Poissons Ratio (x) = 0.36617 0.12149
# Poissons Ratio (y) = 0.36617 0.12149
# Poissons Ratio (z) = 0.13740 0.13740
#
# Static dielectric constant tensor:
#      x y z
#    x 2.967900 0.000000 0.000000 
#    y 0.000000 2.967910 0.000000 
#    z 0.000000 0.000000 3.288550 
# 
# 
# High freq. dielectric constant tensor:
#      x y z
#    x 1.576400 0.000000 0.000000 
#    y 0.000000 1.576400 0.000000 
#    z 0.000000 0.000000 1.640180 
# 
# From -- ./inp_files/644.got.cif
#   From: 2010.03.12/outbox.cif.g09.slc.cpg/sg126_1_cif.got.tgz:644.got - 2010.04.06 16:55:23.
