data_PCOD8313715
_publ_section_title
;
Structure prediction by ZEFSAII (Michael W. Deem and Ramdas Pophale) SiO2 
 PCOD8313715
Probable space group: P 4/N N C
;
_chemical_formula_sum "Si O2"
_cell_formula_units_Z 112
_cell_length_a 13.649288
_cell_length_b 13.649288
_cell_length_c 29.822882
_cell_angle_alpha 90.000000
_cell_angle_beta 90.000000
_cell_angle_gamma 90.000000
_cell_volume 5556.094261
_symmetry_space_group_name_H-M "P 4/N N C"
_symmetry_group_IT_number 126
_space_group.IT_coordinate_system_code '2'
_symmetry_cell_setting 'tetragonal'
loop_
_space_group_symop_operation_xyz
x,y,z
1/2-y,x,z
1/2-x,1/2-y,z
y,1/2-x,z
x,1/2-y,1/2-z
1/2-x,y,1/2-z
y,x,1/2-z
1/2-y,1/2-x,1/2-z
-x,-y,-z
1/2+y,-x,-z
1/2+x,1/2+y,-z
-y,1/2+x,-z
-x,1/2+y,1/2+z
1/2+x,-y,1/2+z
-y,-x,1/2+z
1/2+y,1/2+x,1/2+z
loop_
_atom_site_type_symbol
_atom_site_label
_atom_site_fract_x
_atom_site_fract_y
_atom_site_fract_z
Si Si1 0.827516 0.028649 0.902005
Si Si2 0.184342 0.843171 0.345553
Si Si3 0.204587 0.514476 0.588976
Si Si4 0.652198 0.624980 0.835415
Si Si5 0.409423 0.737193 0.503487
Si Si6 0.974378 0.027563 0.702223
Si Si7 0.532907 0.602309 0.118339
O O1 0.753141 0.070822 0.864484
O O2 0.781103 0.028411 0.951341
O O3 0.923667 0.094903 0.901629
O O4 0.858801 0.917837 0.886456
O O5 0.250000 0.750000 0.327450
O O6 0.120403 0.805333 0.387366
O O7 0.113792 0.892594 0.306807
O O8 0.245828 0.519056 0.538596
O O9 0.102503 0.458287 0.585490
O O10 0.281209 0.447477 0.617410
O O11 0.766538 0.615347 0.825886
O O12 0.585149 0.559822 0.803105
O O13 0.337689 0.648384 0.491066
O O14 0.028808 0.028808 0.750000
O O15 0.061853 0.048866 0.668012
#
# Coordination Sequence:
#
# PCOD8313715 Si02
#       7
#    16  16  16  16  16  16  16
#     4  11  20  37  60  90 125 163 218 265 323 381
#     4  11  19  38  68  90 126 164 208 270 334 375
#     4  11  22  40  60  92 126 168 212 261 330 380
#     4  10  21  39  60  84 126 178 209 239 316 395
#     4  11  20  33  61  95 123 159 217 271 318 385
#     4  10  23  42  67  97 130 162 212 268 325 397
#     4  10  23  40  63  85 126 170 204 264 329 388
#
# _framework density 20.158044
#
# number of rings (size 3 to 8) (size 9 to 14) (size 15 to 20)
#    0.000    1.429    5.714    0.000    0.000    1.429 
#    2.571    3.571    6.286    0.000    0.000    4.000 
#    0.000    0.000    0.000    0.000    0.000    0.000 
#
# Total GULP energy -1387765.236483 kJ/mol
# GULP energy per Si atom -12390.761040 kJ/mol
# Density = 2.011216 g / cm^3
# Si number density = 20.158044 Si / 1000 Ang^3
#
#
#
# Elastic Constant Matrix: (Units=GPa)
#
#
# Indices 1 2 3 4 5 6 
#
# 1 75.6493 23.8407 31.3219 0.0000 0.0000 0.0000
# 2 23.8407 75.6493 31.3219 0.0000 0.0000 0.0000
# 3 31.3219 31.3219 91.6054 0.0000 0.0000 0.0000
# 4 0.0000 0.0000 0.0000 18.8652 0.0000 0.0000
# 5 0.0000 0.0000 0.0000 0.0000 18.8652 0.0000
# 6 0.0000 0.0000 0.0000 0.0000 0.0000 28.2103
#
#
#
# Elastic Compliance Matrix: (Units=1/GPa)
#
#
# Indices 1 2 3 4 5 6 
#
# 1 0.016055 -0.003246 -0.004380 0.000000 0.000000 0.000000
# 2 -0.003246 0.016055 -0.004380 0.000000 0.000000 0.000000
# 3 -0.004380 -0.004380 0.013911 0.000000 0.000000 0.000000
# 4 0.000000 0.000000 0.000000 0.053008 0.000000 0.000000
# 5 0.000000 0.000000 0.000000 0.000000 0.053008 0.000000
# 6 0.000000 0.000000 0.000000 0.000000 0.000000 0.035448
#
#
# Mechanical properties :
#
#
# Convention : Reuss Voigt Hill
#
# Bulk Modulus (GPa) = 45.43266 46.20813 45.82039
# Shear Modulus (GPa) = 22.84835 23.61607 23.23221
#
# Velocity S-wave (km/s) = 3.37034 3.42650 3.39854
# Velocity P-wave (km/s) = 6.14270 6.21508 6.17900
#
# Compressibility (1/GPa) = 0.02201060
#
# Stress axis : x y z
#
# Youngs Moduli (GPa) = 62.28445 62.28445 71.88349
#
# Poissons Ratio (x) = 0.20220 0.31483
# Poissons Ratio (y) = 0.20220 0.31483
# Poissons Ratio (z) = 0.27278 0.27278
#
# Static dielectric constant tensor:
#      x y z
#    x 3.770190 0.000000 0.000000 
#    y 0.000000 3.770190 0.000000 
#    z 0.000000 0.000000 3.355000 
# 
# 
# High freq. dielectric constant tensor:
#      x y z
#    x 1.785820 0.000000 0.000000 
#    y 0.000000 1.785820 0.000000 
#    z 0.000000 0.000000 1.760500 
# 
# From -- ./inp_files/6209.got.cif
#   From: 2010.03.12/outbox.cif.g09.slc.cpg/sg126_4_cif.got.tgz:6209.got - 2010.04.06 16:55:23.
