data_PCOD8313026
_publ_section_title
;
Structure prediction by ZEFSAII (Michael W. Deem and Ramdas Pophale) SiO2 
 PCOD8313026
Probable space group: P 4/M M M
;
_chemical_formula_sum "Si O2"
_cell_formula_units_Z 104
_cell_length_a 19.918961
_cell_length_b 19.918961
_cell_length_c 17.729203
_cell_angle_alpha 90.000000
_cell_angle_beta 90.000000
_cell_angle_gamma 90.000000
_cell_volume 7034.327358
_symmetry_space_group_name_H-M "P 4/M M M"
_symmetry_group_IT_number 123
_symmetry_cell_setting 'tetragonal'
loop_
_space_group_symop_operation_xyz
x,y,z
-y,x,z
-x,-y,z
y,-x,z
x,-y,-z
-x,y,-z
y,x,-z
-y,-x,-z
-x,-y,-z
y,-x,-z
x,y,-z
-y,x,-z
-x,y,z
x,-y,z
-y,-x,z
y,x,z
loop_
_atom_site_type_symbol
_atom_site_label
_atom_site_fract_x
_atom_site_fract_y
_atom_site_fract_z
Si Si1 0.924145 0.817697 0.910374
Si Si2 0.578237 0.135346 0.342404
Si Si3 0.263865 0.369732 0.414025
Si Si4 0.708960 0.182662 0.910896
Si Si5 0.322864 0.427306 0.271319
Si Si6 0.000000 0.579502 0.416428
Si Si7 0.814557 0.575346 0.183839
O O1 0.884446 0.884446 0.882146
O O2 0.882805 0.751427 0.884771
O O3 0.000000 0.816546 0.876625
O O4 0.927322 0.818867 0.000000
O O5 0.500000 0.150815 0.363166
O O6 0.627355 0.188022 0.383727
O O7 0.604574 0.064554 0.371652
O O8 0.587000 0.133164 0.252037
O O9 0.267953 0.396157 0.500000
O O10 0.293604 0.293604 0.408535
O O11 0.307824 0.417414 0.360044
O O12 0.750030 0.249971 0.885960
O O13 0.634157 0.178210 0.877055
O O14 0.699865 0.182968 0.000000
O O15 0.355474 0.500000 0.261917
O O16 0.374638 0.374638 0.237957
O O17 0.257567 0.419887 0.221332
O O18 0.000000 0.500000 0.421132
O O19 0.000000 0.610855 0.500000
O O20 0.825077 0.500000 0.148340
#
# Coordination Sequence:
#
# PCOD8313026 Si02
#       7
#    16  16  16  16  16   8  16
#     4   8  14  25  41  62  86 108 131 159 190 228
#     4   9  17  28  41  59  81 105 134 167 205 244
#     4   9  16  25  38  56  77 102 132 162 192 231
#     4   9  17  29  45  63  82 107 140 176 211 248
#     4   9  17  27  39  55  75 100 130 165 205 247
#     4   9  16  26  42  62  83 107 135 168 205 244
#     4   9  17  29  43  59  79 104 135 173 214 252
#
# _framework density 14.784641000000001
#
# number of rings (size 3 to 8) (size 9 to 14) (size 15 to 20)
#    0.000    3.154    0.000    3.231    0.000    3.077 
#    1.385    0.769    0.000    0.000    0.000    4.308 
#    0.000    0.000    0.000   14.308    0.000    1.615 
#
# Total GULP energy -1288509.443337 kJ/mol
# GULP energy per Si atom -12389.513878 kJ/mol
# Density = 1.475099 g / cm^3
# Si number density = 14.784641 Si / 1000 Ang^3
#
#
#
# Elastic Constant Matrix: (Units=GPa)
#
#
# Indices 1 2 3 4 5 6 
#
# 1 95.3775 45.9493 31.0809 0.0000 0.0000 0.0000
# 2 45.9493 95.3775 31.0809 0.0000 0.0000 0.0000
# 3 31.0809 31.0809 43.2018 0.0000 0.0000 0.0000
# 4 0.0000 0.0000 0.0000 16.0148 0.0000 0.0000
# 5 0.0000 0.0000 0.0000 0.0000 16.0148 0.0000
# 6 0.0000 0.0000 0.0000 0.0000 0.0000 15.9463
#
#
#
# Elastic Compliance Matrix: (Units=1/GPa)
#
#
# Indices 1 2 3 4 5 6 
#
# 1 0.015291 -0.004940 -0.007447 0.000000 0.000000 0.000000
# 2 -0.004940 0.015291 -0.007447 0.000000 0.000000 0.000000
# 3 -0.007447 -0.007447 0.033863 0.000000 0.000000 0.000000
# 4 0.000000 0.000000 0.000000 0.062442 0.000000 0.000000
# 5 0.000000 0.000000 0.000000 0.000000 0.062442 0.000000
# 6 0.000000 0.000000 0.000000 0.000000 0.000000 0.062710
#
#
# Mechanical properties :
#
#
# Convention : Reuss Voigt Hill
#
# Bulk Modulus (GPa) = 40.36027 50.01989 45.19008
# Shear Modulus (GPa) = 16.66846 17.98490 17.32668
#
# Velocity S-wave (km/s) = 3.36135 3.49156 3.42707
# Velocity P-wave (km/s) = 6.51329 7.08240 6.80380
#
# Compressibility (1/GPa) = 0.02477684
#
# Stress axis : x y z
#
# Youngs Moduli (GPa) = 65.39629 65.39629 29.53104
#
# Poissons Ratio (x) = 0.32306 0.21992
# Poissons Ratio (y) = 0.32306 0.21992
# Poissons Ratio (z) = 0.48702 0.48702
#
# Static dielectric constant tensor:
#      x y z
#    x 2.940250 0.000000 0.000000 
#    y 0.000000 2.940250 0.000000 
#    z 0.000000 0.000000 2.678830 
# 
# 
# High freq. dielectric constant tensor:
#      x y z
#    x 1.556180 0.000000 0.000000 
#    y 0.000000 1.556180 0.000000 
#    z 0.000000 0.000000 1.540490 
# 
# From -- ./inp_files/4507.got.cif
#   From: 2010.03.12/outbox.cif.g09.slc.cpg/sg123_3_cif.got.tgz:4507.got - 2010.04.06 16:26:55.
