data_PCOD8313676
_publ_section_title
;
Structure prediction by ZEFSAII (Michael W. Deem and Ramdas Pophale) SiO2 
 PCOD8313676
Probable space group: P 4/N N C
;
_chemical_formula_sum "Si O2"
_cell_formula_units_Z 112
_cell_length_a 14.970015
_cell_length_b 14.970015
_cell_length_c 29.800334
_cell_angle_alpha 90.000000
_cell_angle_beta 90.000000
_cell_angle_gamma 90.000000
_cell_volume 6678.295053
_symmetry_space_group_name_H-M "P 4/N N C"
_symmetry_group_IT_number 126
_space_group.IT_coordinate_system_code '2'
_symmetry_cell_setting 'tetragonal'
loop_
_space_group_symop_operation_xyz
x,y,z
1/2-y,x,z
1/2-x,1/2-y,z
y,1/2-x,z
x,1/2-y,1/2-z
1/2-x,y,1/2-z
y,x,1/2-z
1/2-y,1/2-x,1/2-z
-x,-y,-z
1/2+y,-x,-z
1/2+x,1/2+y,-z
-y,1/2+x,-z
-x,1/2+y,1/2+z
1/2+x,-y,1/2+z
-y,-x,1/2+z
1/2+y,1/2+x,1/2+z
loop_
_atom_site_type_symbol
_atom_site_label
_atom_site_fract_x
_atom_site_fract_y
_atom_site_fract_z
Si Si1 0.560974 0.079364 0.301088
Si Si2 0.750000 0.149178 0.197773
Si Si3 0.144220 0.651253 0.049925
Si Si4 0.492714 0.148669 0.388657
Si Si5 0.439026 0.920636 0.801088
Si Si6 0.855780 0.151253 0.950075
Si Si7 0.148669 0.492714 0.388657
O O1 0.664473 0.089199 0.315648
O O2 0.505499 0.141947 0.334898
O O3 0.546847 0.113746 0.250000
O O4 0.522949 0.977051 0.305568
O O5 0.750000 0.250000 0.175103
O O6 0.750000 0.166525 0.250000
O O7 0.664473 0.089199 0.184352
O O8 0.108974 0.580309 0.086376
O O9 0.103451 0.750000 0.060345
O O10 0.250000 0.658511 0.052709
O O11 0.117845 0.617845 1.000000
O O12 0.474194 0.250000 0.402674
O O13 0.407782 0.092218 0.404653
O O14 0.494501 0.858053 0.834898
O O15 0.891026 0.080309 0.913624
#
# Coordination Sequence:
#
# PCOD8313676 Si02
#       7
#    16  16  16  16  16  16  16
#     4   9  18  31  45  65  95 124 151 189 233 276
#     4   9  16  26  44  67  87 113 151 192 232 268
#     4   8  15  29  48  69  92 115 141 181 232 279
#     4  10  20  31  45  66  91 123 158 188 224 269
#     4   9  18  31  45  65  95 124 151 189 233 276
#     4   8  15  29  48  69  92 115 141 181 232 279
#     4  10  20  31  45  66  91 123 158 188 224 269
#
# _framework density 16.770747
#
# number of rings (size 3 to 8) (size 9 to 14) (size 15 to 20)
#    0.000    3.000    0.000    1.714    2.000    2.571 
#    0.000    0.000    0.000    0.429    0.000    7.000 
#    0.000    0.571    0.000    0.000    0.000    0.000 
#
# Total GULP energy -1387480.670274 kJ/mol
# GULP energy per Si atom -12388.220270 kJ/mol
# Density = 1.673258 g / cm^3
# Si number density = 16.770747 Si / 1000 Ang^3
#
#
#
# Elastic Constant Matrix: (Units=GPa)
#
#
# Indices 1 2 3 4 5 6 
#
# 1 94.7123 61.6813 31.2338 0.0000 0.0000 0.0000
# 2 61.6813 94.7123 31.2338 0.0000 0.0000 0.0000
# 3 31.2338 31.2338 76.7050 0.0000 0.0000 0.0000
# 4 0.0000 0.0000 0.0000 13.8727 0.0000 0.0000
# 5 0.0000 0.0000 0.0000 0.0000 13.8727 0.0000
# 6 0.0000 0.0000 0.0000 0.0000 0.0000 23.2590
#
#
#
# Elastic Compliance Matrix: (Units=1/GPa)
#
#
# Indices 1 2 3 4 5 6 
#
# 1 0.018955 -0.011319 -0.003109 0.000000 0.000000 0.000000
# 2 -0.011319 0.018955 -0.003109 0.000000 0.000000 0.000000
# 3 -0.003109 -0.003109 0.015569 0.000000 0.000000 0.000000
# 4 0.000000 0.000000 0.000000 0.072084 0.000000 0.000000
# 5 0.000000 0.000000 0.000000 0.000000 0.072084 0.000000
# 6 0.000000 0.000000 0.000000 0.000000 0.000000 0.042994
#
#
# Mechanical properties :
#
#
# Convention : Reuss Voigt Hill
#
# Bulk Modulus (GPa) = 54.33633 57.15860 55.74747
# Shear Modulus (GPa) = 17.73977 19.66626 18.70301
#
# Velocity S-wave (km/s) = 3.25588 3.42812 3.34311
# Velocity P-wave (km/s) = 6.82672 7.05873 6.94369
#
# Compressibility (1/GPa) = 0.01840389
#
# Stress axis : x y z
#
# Youngs Moduli (GPa) = 52.75564 52.75564 64.22940
#
# Poissons Ratio (x) = 0.59715 0.19971
# Poissons Ratio (y) = 0.59715 0.19971
# Poissons Ratio (z) = 0.16404 0.16404
#
# Static dielectric constant tensor:
#      x y z
#    x 3.175850 0.000000 0.000000 
#    y 0.000000 3.175850 0.000000 
#    z 0.000000 0.000000 3.317430 
# 
# 
# High freq. dielectric constant tensor:
#      x y z
#    x 1.620020 0.000000 0.000000 
#    y 0.000000 1.620020 0.000000 
#    z 0.000000 0.000000 1.652750 
# 
# From -- ./inp_files/6620.got.cif
#   From: 2010.03.12/outbox.cif.g09.slc.cpg/sg126_4_cif.got.tgz:6620.got - 2010.04.06 16:55:23.
