data_PCOD8313736
_publ_section_title
;
Structure prediction by ZEFSAII (Michael W. Deem and Ramdas Pophale) SiO2 
 PCOD8313736
Probable space group: P 4/N N C
;
_chemical_formula_sum "Si O2"
_cell_formula_units_Z 84
_cell_length_a 13.067382
_cell_length_b 13.067382
_cell_length_c 20.526460
_cell_angle_alpha 90.000000
_cell_angle_beta 90.000000
_cell_angle_gamma 90.000000
_cell_volume 3505.025899
_symmetry_space_group_name_H-M "P 4/N N C"
_symmetry_group_IT_number 126
_space_group.IT_coordinate_system_code '2'
_symmetry_cell_setting 'tetragonal'
loop_
_space_group_symop_operation_xyz
x,y,z
1/2-y,x,z
1/2-x,1/2-y,z
y,1/2-x,z
x,1/2-y,1/2-z
1/2-x,y,1/2-z
y,x,1/2-z
1/2-y,1/2-x,1/2-z
-x,-y,-z
1/2+y,-x,-z
1/2+x,1/2+y,-z
-y,1/2+x,-z
-x,1/2+y,1/2+z
1/2+x,-y,1/2+z
-y,-x,1/2+z
1/2+y,1/2+x,1/2+z
loop_
_atom_site_type_symbol
_atom_site_label
_atom_site_fract_x
_atom_site_fract_y
_atom_site_fract_z
Si Si1 0.149159 0.858057 0.134711
Si Si2 0.513411 0.533975 0.321255
Si Si3 0.056589 0.826852 0.429854
Si Si4 0.889626 0.665814 0.663104
Si Si5 0.250000 0.750000 0.250000
Si Si6 0.994735 0.207698 0.047870
O O1 0.141907 0.755454 0.091311
O O2 0.181023 0.825490 0.207071
O O3 0.228390 0.936687 0.103874
O O4 0.039536 0.912391 0.138553
O O5 0.559986 0.559986 0.250000
O O6 0.504323 0.636068 0.365463
O O7 0.400269 0.484088 0.309156
O O8 0.110757 0.921192 0.467587
O O9 0.981748 0.772521 0.482721
O O10 0.888493 0.784614 0.686403
O O11 0.901289 0.668119 0.583284
#
# Coordination Sequence:
#
# PCOD8313736 Si02
#       6
#    16  16  16  16   4  16
#     4  12  23  39  63  94 128 171 224 273 338 398
#     4  11  26  42  63  96 134 177 228 271 334 416
#     4  11  23  41  65  96 133 169 219 291 339 399
#     4  10  22  40  59  89 132 174 211 258 323 406
#     4  12  24  36  66  92 134 178 220 294 336 396
#     4  11  21  38  65  94 126 165 221 274 336 401
#
# _framework density 23.965585000000001
#
# number of rings (size 3 to 8) (size 9 to 14) (size 15 to 20)
#    0.000    0.952    5.714    1.143    2.667    3.048 
#    0.000    0.952    0.000    0.571    0.000    1.333 
#    0.000    0.000    0.000    0.000    0.000    0.000 
#
# Total GULP energy -1041273.332604 kJ/mol
# GULP energy per Si atom -12396.111102 kJ/mol
# Density = 2.391104 g / cm^3
# Si number density = 23.965585 Si / 1000 Ang^3
#
#
#
# Elastic Constant Matrix: (Units=GPa)
#
#
# Indices 1 2 3 4 5 6 
#
# 1 54.7296 7.5077 20.0584 0.0000 0.0000 0.0000
# 2 7.5077 54.7296 20.0584 0.0000 0.0000 0.0000
# 3 20.0584 20.0584 138.3912 0.0000 0.0000 0.0000
# 4 0.0000 0.0000 0.0000 41.9446 0.0000 0.0000
# 5 0.0000 0.0000 0.0000 0.0000 41.9446 0.0000
# 6 0.0000 0.0000 0.0000 0.0000 0.0000 26.8644
#
#
#
# Elastic Compliance Matrix: (Units=1/GPa)
#
#
# Indices 1 2 3 4 5 6 
#
# 1 0.019450 -0.001727 -0.002569 0.000000 0.000000 0.000000
# 2 -0.001727 0.019450 -0.002569 0.000000 0.000000 0.000000
# 3 -0.002569 -0.002569 0.007971 0.000000 0.000000 0.000000
# 4 0.000000 0.000000 0.000000 0.023841 0.000000 0.000000
# 5 0.000000 0.000000 0.000000 0.000000 0.023841 0.000000
# 6 0.000000 0.000000 0.000000 0.000000 0.000000 0.037224
#
#
# Mechanical properties :
#
#
# Convention : Reuss Voigt Hill
#
# Bulk Modulus (GPa) = 30.17325 38.12216 34.14770
# Shear Modulus (GPa) = 31.93824 35.49913 33.71869
#
# Velocity S-wave (km/s) = 3.65454 3.85288 3.75502
# Velocity P-wave (km/s) = 5.51589 5.97784 5.75150
#
# Compressibility (1/GPa) = 0.03314194
#
# Stress axis : x y z
#
# Youngs Moduli (GPa) = 51.41397 51.41397 125.46194
#
# Poissons Ratio (x) = 0.08877 0.32229
# Poissons Ratio (y) = 0.08877 0.32229
# Poissons Ratio (z) = 0.13207 0.13207
#
# Static dielectric constant tensor:
#      x y z
#    x 4.243770 0.000000 0.000000 
#    y 0.000000 4.243770 0.000000 
#    z 0.000000 0.000000 4.393480 
# 
# 
# High freq. dielectric constant tensor:
#      x y z
#    x 1.930570 0.000000 0.000000 
#    y 0.000000 1.930570 0.000000 
#    z 0.000000 0.000000 1.956460 
# 
# From -- ./inp_files/5168.got.cif
#   From: 2010.03.12/outbox.cif.g09.slc.cpg/sg126_3_cif.got.tgz:5168.got - 2010.04.06 16:55:23.
