data_PCOD8313101
_publ_section_title
;
Structure prediction by ZEFSAII (Michael W. Deem and Ramdas Pophale) SiO2 
 PCOD8313101
Probable space group: P 4/M C C
;
_chemical_formula_sum "Si O2"
_cell_formula_units_Z 80
_cell_length_a 15.404323
_cell_length_b 15.404323
_cell_length_c 18.742763
_cell_angle_alpha 90.000000
_cell_angle_beta 90.000000
_cell_angle_gamma 90.000000
_cell_volume 4447.529592
_symmetry_space_group_name_H-M "P 4/M C C"
_symmetry_group_IT_number 124
_symmetry_cell_setting 'tetragonal'
loop_
_space_group_symop_operation_xyz
x,y,z
-y,x,z
-x,-y,z
y,-x,z
x,-y,1/2-z
-x,y,1/2-z
y,x,1/2-z
-y,-x,1/2-z
-x,-y,-z
y,-x,-z
x,y,-z
-y,x,-z
-x,y,1/2+z
x,-y,1/2+z
-y,-x,1/2+z
y,x,1/2+z
loop_
_atom_site_type_symbol
_atom_site_label
_atom_site_fract_x
_atom_site_fract_y
_atom_site_fract_z
Si Si1 0.629563 0.472573 0.831783
Si Si2 0.960830 0.863086 0.417970
Si Si3 0.963182 0.304876 0.828813
Si Si4 0.543675 0.824400 0.825940
Si Si5 0.927975 0.573330 0.921048
O O1 0.601598 0.566093 0.865200
O O2 0.617759 0.500000 0.750000
O O3 0.725200 0.435039 0.844112
O O4 0.952047 0.831894 0.500000
O O5 0.894384 0.941268 0.402846
O O6 0.935136 0.785853 0.364286
O O7 0.880191 0.368452 0.829488
O O8 0.000000 0.289148 0.750000
O O9 0.040519 0.344580 0.875838
O O10 0.500000 0.840464 0.750000
O O11 0.471076 0.846113 0.884346
O O12 0.000000 0.500000 0.924349
O O13 0.902832 0.606020 0.000000
#
# Coordination Sequence:
#
# PCOD8313101 Si02
#       5
#    16  16  16  16  16
#     4   8  15  30  51  74 103 143 185 223 269 324
#     4   9  20  41  62  77 105 151 193 232 283 339
#     4  11  20  32  53  82 115 143 179 230 280 329
#     4  10  18  32  52  79 112 143 179 230 280 325
#     4   9  18  31  50  73 103 146 183 213 267 332
#
# _framework density 17.987513
#
# number of rings (size 3 to 8) (size 9 to 14) (size 15 to 20)
#    0.000    2.600    2.000    1.800    0.000    1.600 
#    3.600    3.000    0.000    1.200    0.000    1.400 
#    0.000    0.000    0.000    0.000    0.000    0.000 
#
# Total GULP energy -991117.441330 kJ/mol
# GULP energy per Si atom -12388.968017 kJ/mol
# Density = 1.794657 g / cm^3
# Si number density = 17.987513 Si / 1000 Ang^3
#
#
#
# Elastic Constant Matrix: (Units=GPa)
#
#
# Indices 1 2 3 4 5 6 
#
# 1 75.5165 81.8834 38.8929 0.0000 0.0000 0.0000
# 2 81.8834 75.5165 38.8929 0.0000 0.0000 0.0000
# 3 38.8929 38.8929 107.9438 0.0000 0.0000 0.0000
# 4 0.0000 0.0000 0.0000 16.9814 0.0000 0.0000
# 5 0.0000 0.0000 0.0000 0.0000 16.9814 0.0000
# 6 0.0000 0.0000 0.0000 0.0000 0.0000 16.0674
#
#
#
# Elastic Compliance Matrix: (Units=1/GPa)
#
#
# Indices 1 2 3 4 5 6 
#
# 1 -0.074667 0.082397 -0.002785 0.000000 0.000000 0.000000
# 2 0.082397 -0.074667 -0.002785 0.000000 0.000000 0.000000
# 3 -0.002785 -0.002785 0.011271 0.000000 0.000000 0.000000
# 4 0.000000 0.000000 0.000000 0.058888 0.000000 0.000000
# 5 0.000000 0.000000 0.000000 0.000000 0.058888 0.000000
# 6 0.000000 0.000000 0.000000 0.000000 0.000000 0.062238
#
#
# Mechanical properties :
#
#
# Convention : Reuss Voigt Hill
#
# Bulk Modulus (GPa) = 64.14333 64.25722 64.20027
# Shear Modulus (GPa) = -46.94552 16.62656 -15.15948
#
# Velocity S-wave (km/s) = -5.11426 3.04359 -2.90621
# Velocity P-wave (km/s) = 0.92908 6.93917 4.95052
#
# Compressibility (1/GPa) = 0.01559009
#
# Stress axis : x y z
#
# Youngs Moduli (GPa) = -13.39276 -13.39276 88.72323
#
# Poissons Ratio (x) = 1.10352 0.24710
# Poissons Ratio (y) = 1.10352 0.24710
# Poissons Ratio (z) = -0.03730 -0.03730
#
# Static dielectric constant tensor:
#      x y z
#    x 3.276450 0.000000 0.000000 
#    y 0.000000 3.276450 0.000000 
#    z 0.000000 0.000000 3.385970 
# 
# 
# High freq. dielectric constant tensor:
#      x y z
#    x 1.689150 0.000000 0.000000 
#    y 0.000000 1.689150 0.000000 
#    z 0.000000 0.000000 1.683430 
# 
# From -- ./inp_files/5053.got.cif
#   From: 2010.03.12/outbox.cif.g09.slc.cpg/sg124_3_cif.got.tgz:5053.got - 2010.04.06 16:38:57.
