data_PCOD8313629
_publ_section_title
;
Structure prediction by ZEFSAII (Michael W. Deem and Ramdas Pophale) SiO2 
 PCOD8313629
Probable space group: P 4/N B M
;
_chemical_formula_sum "Si O2"
_cell_formula_units_Z 96
_cell_length_a 14.832908
_cell_length_b 14.832908
_cell_length_c 21.362407
_cell_angle_alpha 90.000000
_cell_angle_beta 90.000000
_cell_angle_gamma 90.000000
_cell_volume 4700.053388
_symmetry_space_group_name_H-M "P 4/N B M"
_symmetry_group_IT_number 125
_space_group.IT_coordinate_system_code '2'
_symmetry_cell_setting 'tetragonal'
loop_
_space_group_symop_operation_xyz
x,y,z
1/2-y,x,z
1/2-x,1/2-y,z
y,1/2-x,z
x,1/2-y,-z
1/2-x,y,-z
y,x,-z
1/2-y,1/2-x,-z
-x,-y,-z
1/2+y,-x,-z
1/2+x,1/2+y,-z
-y,1/2+x,-z
-x,1/2+y,z
1/2+x,-y,z
-y,-x,z
1/2+y,1/2+x,z
loop_
_atom_site_type_symbol
_atom_site_label
_atom_site_fract_x
_atom_site_fract_y
_atom_site_fract_z
Si Si1 0.822547 0.322547 0.740691
Si Si2 0.380185 0.619816 0.876224
Si Si3 0.743775 0.999622 0.695035
Si Si4 0.356206 0.143795 0.500000
Si Si5 0.230919 0.998074 0.071291
Si Si6 0.243314 0.105999 0.813696
Si Si7 0.921266 0.928374 0.629969
Si Si8 0.478918 0.521083 0.071553
O O1 0.750000 0.250000 0.764087
O O2 0.867844 0.367844 0.801955
O O3 0.776019 0.394328 0.694006
O O4 0.286435 0.592009 0.910025
O O5 0.457523 0.542478 0.885714
O O6 0.746936 0.979946 0.769119
O O7 0.837113 0.979061 0.660941
O O8 0.665384 0.939802 0.664599
O O9 0.375758 0.250000 0.500000
O O10 0.405676 0.100037 0.441313
O O11 0.268573 0.078320 0.114116
O O12 0.125667 0.993057 0.086344
O O13 0.250000 0.023800 0.000000
O O14 0.334271 0.157864 0.798053
O O15 0.008424 0.991577 0.634406
O O16 0.500000 0.500000 0.000000
#
# Coordination Sequence:
#
# PCOD8313629 Si02
#       8
#     8   8  16   8  16  16  16   8
#     4  12  28  50  68 102 146 190 243 294 356 434
#     4  12  26  46  69 104 135 176 235 298 356 431
#     4  12  24  44  73 102 141 191 236 293 355 420
#     4  11  23  42  74 110 149 191 234 296 358 414
#     4  12  25  43  68  93 130 179 227 291 362 429
#     4  11  24  39  63  98 131 170 226 283 348 425
#     4  12  25  44  74 107 148 196 241 290 352 421
#     4  12  26  45  69  94 130 175 228 288 361 444
#
# _framework density 20.4253
#
# number of rings (size 3 to 8) (size 9 to 14) (size 15 to 20)
#    0.000    0.250    7.500    1.750    1.167    0.333 
#    1.500    1.667    0.000    0.000    0.000    1.167 
#    0.000    0.000    0.000    0.000    0.000    0.000 
#
# Total GULP energy -1190481.256293 kJ/mol
# GULP energy per Si atom -12400.846420 kJ/mol
# Density = 2.037881 g / cm^3
# Si number density = 20.425300 Si / 1000 Ang^3
#
#
#
# Elastic Constant Matrix: (Units=GPa)
#
#
# Indices 1 2 3 4 5 6 
#
# 1 101.6636 28.8945 23.8988 0.0000 0.0000 0.0000
# 2 28.8945 101.6643 23.8989 0.0000 0.0000 0.0000
# 3 23.8988 23.8989 112.1941 0.0000 0.0000 0.0000
# 4 0.0000 0.0000 0.0000 30.0664 0.0000 0.0000
# 5 0.0000 0.0000 0.0000 0.0000 30.0663 0.0000
# 6 0.0000 0.0000 0.0000 0.0000 0.0000 73.9917
#
#
#
# Elastic Compliance Matrix: (Units=1/GPa)
#
#
# Indices 1 2 3 4 5 6 
#
# 1 0.011025 -0.002717 -0.001770 0.000000 0.000000 0.000000
# 2 -0.002717 0.011025 -0.001770 0.000000 0.000000 0.000000
# 3 -0.001770 -0.001770 0.009667 0.000000 0.000000 0.000000
# 4 0.000000 0.000000 0.000000 0.033260 0.000000 0.000000
# 5 0.000000 0.000000 0.000000 0.000000 0.033260 0.000000
# 6 0.000000 0.000000 0.000000 0.000000 0.000000 0.013515
#
#
# Mechanical properties :
#
#
# Convention : Reuss Voigt Hill
#
# Bulk Modulus (GPa) = 52.07446 52.10071 52.08759
# Shear Modulus (GPa) = 38.26580 42.74686 40.50633
#
# Velocity S-wave (km/s) = 4.33303 4.57972 4.45808
# Velocity P-wave (km/s) = 7.11224 7.31631 7.21500
#
# Compressibility (1/GPa) = 0.01920327
#
# Stress axis : x y z
#
# Youngs Moduli (GPa) = 90.70567 90.70625 103.44471
#
# Poissons Ratio (x) = 0.24648 0.18305
# Poissons Ratio (y) = 0.24648 0.18305
# Poissons Ratio (z) = 0.16051 0.16051
#
# Static dielectric constant tensor:
#      x y z
#    x 3.811750 0.000000 0.000000 
#    y 0.000000 3.811740 0.000000 
#    z 0.000000 0.000000 3.655620 
# 
# 
# High freq. dielectric constant tensor:
#      x y z
#    x 1.807970 0.000000 0.000000 
#    y 0.000000 1.807970 0.000000 
#    z 0.000000 0.000000 1.799160 
# 
# From -- ./inp_files/5990.got.cif
#   From: 2010.03.12/outbox.cif.g09.slc.cpg/sg125_3_cif.got.tgz:5990.got - 2010.04.06 16:47:52.
