data_PCOD8313006
_publ_section_title
;
Structure prediction by ZEFSAII (Michael W. Deem and Ramdas Pophale) SiO2 
 PCOD8313006
Probable space group: P 4/M M M
;
_chemical_formula_sum "Si O2"
_cell_formula_units_Z 80
_cell_length_a 19.681480
_cell_length_b 19.681480
_cell_length_c 13.742703
_cell_angle_alpha 90.000000
_cell_angle_beta 90.000000
_cell_angle_gamma 90.000000
_cell_volume 5323.382435
_symmetry_space_group_name_H-M "P 4/M M M"
_symmetry_group_IT_number 123
_symmetry_cell_setting 'tetragonal'
loop_
_space_group_symop_operation_xyz
x,y,z
-y,x,z
-x,-y,z
y,-x,z
x,-y,-z
-x,y,-z
y,x,-z
-y,-x,-z
-x,-y,-z
y,-x,-z
x,y,-z
-y,x,-z
-x,y,z
x,-y,z
-y,-x,z
y,x,z
loop_
_atom_site_type_symbol
_atom_site_label
_atom_site_fract_x
_atom_site_fract_y
_atom_site_fract_z
Si Si1 0.814937 0.924303 0.795694
Si Si2 0.923660 0.267916 0.388945
Si Si3 0.169814 0.717134 0.893964
Si Si4 0.676622 0.209675 0.305026
Si Si5 0.576619 0.684885 0.615070
O O1 0.880377 0.880377 0.820128
O O2 0.797372 0.917793 0.681121
O O3 0.749596 0.901076 0.858346
O O4 0.833014 0.000000 0.826874
O O5 0.914037 0.243874 0.500000
O O6 0.862330 0.319332 0.361634
O O7 0.000000 0.300671 0.375444
O O8 0.222394 0.777607 0.904682
O O9 0.196310 0.665821 0.810574
O O10 0.160929 0.681005 0.000000
O O11 0.744731 0.255270 0.324221
O O12 0.609555 0.247547 0.340784
O O13 0.578248 0.692099 0.500000
O O14 0.500000 0.677332 0.654187
O O15 0.618433 0.618433 0.648882
#
# Coordination Sequence:
#
# PCOD8313006 Si02
#       5
#    16  16  16  16  16
#     4   9  17  26  35  50  72 100 135 172 212 259
#     4   9  16  25  38  56  78 103 132 171 216 256
#     4   8  14  25  40  56  73  93 121 164 214 253
#     4   9  16  26  42  62  81 104 138 176 210 247
#     4   9  17  28  43  65  92 120 146 169 194 227
#
# _framework density 15.028039
#
# number of rings (size 3 to 8) (size 9 to 14) (size 15 to 20)
#    0.000    3.200    0.000    2.400    0.000    3.200 
#    0.000    1.000    0.000    1.200    0.000    8.400 
#    0.000    0.000    0.000   17.800    0.000    1.800 
#
# Total GULP energy -991176.606331 kJ/mol
# GULP energy per Si atom -12389.707579 kJ/mol
# Density = 1.499383 g / cm^3
# Si number density = 15.028039 Si / 1000 Ang^3
#
#
#
# Elastic Constant Matrix: (Units=GPa)
#
#
# Indices 1 2 3 4 5 6 
#
# 1 77.0100 38.5734 8.6675 0.0000 0.0000 0.0000
# 2 38.5734 77.0100 8.6675 0.0000 0.0000 0.0000
# 3 8.6675 8.6675 46.8355 0.0000 0.0000 0.0000
# 4 0.0000 0.0000 0.0000 12.7006 0.0000 0.0000
# 5 0.0000 0.0000 0.0000 0.0000 12.7006 0.0000
# 6 0.0000 0.0000 0.0000 0.0000 0.0000 12.9729
#
#
#
# Elastic Compliance Matrix: (Units=1/GPa)
#
#
# Indices 1 2 3 4 5 6 
#
# 1 0.017458 -0.008559 -0.001647 0.000000 0.000000 0.000000
# 2 -0.008559 0.017458 -0.001647 0.000000 0.000000 0.000000
# 3 -0.001647 -0.001647 0.021961 0.000000 0.000000 0.000000
# 4 0.000000 0.000000 0.000000 0.078736 0.000000 0.000000
# 5 0.000000 0.000000 0.000000 0.000000 0.078736 0.000000
# 6 0.000000 0.000000 0.000000 0.000000 0.000000 0.077084
#
#
# Mechanical properties :
#
#
# Convention : Reuss Voigt Hill
#
# Bulk Modulus (GPa) = 30.14677 34.74137 32.44407
# Shear Modulus (GPa) = 15.32823 17.33796 16.33310
#
# Velocity S-wave (km/s) = 3.19717 3.40031 3.30030
# Velocity P-wave (km/s) = 5.80802 6.21161 6.01320
#
# Compressibility (1/GPa) = 0.03317105
#
# Stress axis : x y z
#
# Youngs Moduli (GPa) = 57.28098 57.28098 45.53561
#
# Poissons Ratio (x) = 0.49027 0.07499
# Poissons Ratio (y) = 0.49027 0.07499
# Poissons Ratio (z) = 0.09433 0.09433
#
# Static dielectric constant tensor:
#      x y z
#    x 2.762740 0.000000 0.000000 
#    y 0.000000 2.762740 0.000000 
#    z 0.000000 0.000000 3.184370 
# 
# 
# High freq. dielectric constant tensor:
#      x y z
#    x 1.548570 0.000000 0.000000 
#    y 0.000000 1.548570 0.000000 
#    z 0.000000 0.000000 1.578000 
# 
# From -- ./inp_files/4207.got.cif
#   From: 2010.03.12/outbox.cif.g09.slc.cpg/sg123_3_cif.got.tgz:4207.got - 2010.04.06 16:26:55.
