data_PCOD8313397
_publ_section_title
;
Structure prediction by ZEFSAII (Michael W. Deem and Ramdas Pophale) SiO2 
 PCOD8313397
Probable space group: P 4/M C C
;
_chemical_formula_sum "Si O2"
_cell_formula_units_Z 112
_cell_length_a 18.884738
_cell_length_b 18.884738
_cell_length_c 19.098968
_cell_angle_alpha 90.000000
_cell_angle_beta 90.000000
_cell_angle_gamma 90.000000
_cell_volume 6811.328545
_symmetry_space_group_name_H-M "P 4/M C C"
_symmetry_group_IT_number 124
_symmetry_cell_setting 'tetragonal'
loop_
_space_group_symop_operation_xyz
x,y,z
-y,x,z
-x,-y,z
y,-x,z
x,-y,1/2-z
-x,y,1/2-z
y,x,1/2-z
-y,-x,1/2-z
-x,-y,-z
y,-x,-z
x,y,-z
-y,x,-z
-x,y,1/2+z
x,-y,1/2+z
-y,-x,1/2+z
y,x,1/2+z
loop_
_atom_site_type_symbol
_atom_site_label
_atom_site_fract_x
_atom_site_fract_y
_atom_site_fract_z
Si Si1 0.411522 0.780739 0.916637
Si Si2 0.199932 0.566755 0.916377
Si Si3 0.040580 0.569115 0.916714
Si Si4 0.083148 0.079256 0.830908
Si Si5 0.845800 0.804518 0.082384
Si Si6 0.081160 0.665258 0.582879
Si Si7 0.295126 0.724356 0.417022
O O1 0.491866 0.766633 0.890543
O O2 0.386466 0.857258 0.887962
O O3 0.355700 0.721098 0.889497
O O4 0.410048 0.781664 0.000000
O O5 0.119993 0.574284 0.886545
O O6 0.247523 0.630670 0.885257
O O7 0.198395 0.570166 0.000000
O O8 0.000000 0.500000 0.887849
O O9 0.995639 0.637950 0.891246
O O10 0.044381 0.565196 0.000000
O O11 0.096666 0.096666 0.750000
O O12 0.137643 0.123583 0.877376
O O13 0.002294 0.098254 0.849097
O O14 0.904118 0.745924 0.105906
O O15 0.768083 0.777294 0.104745
O O16 0.849112 0.819733 0.000000
O O17 0.085278 0.660973 0.500000
O O18 0.300169 0.722760 0.500000
#
# Coordination Sequence:
#
# PCOD8313397 Si02
#       7
#    16  16  16  16  16  16  16
#     4   8  12  20  31  41  64 102 136 160 194 243
#     4   9  14  19  30  45  65 100 135 164 200 242
#     4   9  13  17  27  45  68  96 131 161 191 244
#     4   9  19  35  50  61  77 108 148 183 210 243
#     4   9  17  28  43  63  89 112 131 171 227 265
#     4   8  13  21  32  51  78 106 129 157 202 252
#     4   8  15  24  33  52  79 104 130 162 207 257
#
# _framework density 16.443194999999999
#
# number of rings (size 3 to 8) (size 9 to 14) (size 15 to 20)
#    0.000    3.429    1.429    2.143    0.000    1.714 
#    0.000    3.571    0.000    0.429    0.000    3.000 
#    0.000    4.571    0.571    0.000    0.000    0.000 
#
# Total GULP energy -1387567.042218 kJ/mol
# GULP energy per Si atom -12388.991448 kJ/mol
# Density = 1.640577 g / cm^3
# Si number density = 16.443195 Si / 1000 Ang^3
#
#
#
# Elastic Constant Matrix: (Units=GPa)
#
#
# Indices 1 2 3 4 5 6 
#
# 1 121.0616 78.0758 16.7203 0.0000 0.0000 0.0000
# 2 78.0758 121.0616 16.7203 0.0000 0.0000 0.0000
# 3 16.7203 16.7203 13.4184 0.0000 0.0000 0.0000
# 4 0.0000 0.0000 0.0000 4.4956 0.0000 0.0000
# 5 0.0000 0.0000 0.0000 0.0000 4.4956 0.0000
# 6 0.0000 0.0000 0.0000 0.0000 0.0000 29.9300
#
#
#
# Elastic Compliance Matrix: (Units=1/GPa)
#
#
# Indices 1 2 3 4 5 6 
#
# 1 0.014807 -0.008456 -0.007913 0.000000 0.000000 0.000000
# 2 -0.008456 0.014807 -0.007913 0.000000 0.000000 0.000000
# 3 -0.007913 -0.007913 0.094245 0.000000 0.000000 0.000000
# 4 0.000000 0.000000 0.000000 0.222440 0.000000 0.000000
# 5 0.000000 0.000000 0.000000 0.000000 0.222440 0.000000
# 6 0.000000 0.000000 0.000000 0.000000 0.000000 0.033411
#
#
# Mechanical properties :
#
#
# Convention : Reuss Voigt Hill
#
# Bulk Modulus (GPa) = 13.28133 53.17493 33.22813
# Shear Modulus (GPa) = 7.39848 17.38592 12.39220
#
# Velocity S-wave (km/s) = 2.12348 3.25519 2.74822
# Velocity P-wave (km/s) = 3.75591 6.82181 5.50654
#
# Compressibility (1/GPa) = 0.07529368
#
# Stress axis : x y z
#
# Youngs Moduli (GPa) = 67.53570 67.53570 10.61059
#
# Poissons Ratio (x) = 0.57111 0.08396
# Poissons Ratio (y) = 0.57111 0.08396
# Poissons Ratio (z) = 0.53442 0.53442
#
# Static dielectric constant tensor:
#      x y z
#    x 3.362040 0.000000 0.000000 
#    y 0.000000 3.362040 0.000000 
#    z 0.000000 0.000000 2.325350 
# 
# 
# High freq. dielectric constant tensor:
#      x y z
#    x 1.633850 0.000000 0.000000 
#    y 0.000000 1.633850 0.000000 
#    z 0.000000 0.000000 1.545690 
# 
# From -- ./inp_files/5520.got.cif
#   From: 2010.03.12/outbox.cif.g09.slc.cpg/sg124_3_cif.got.tgz:5520.got - 2010.04.06 16:38:57.
