data_PCOD8313247
_publ_section_title
;
Structure prediction by ZEFSAII (Michael W. Deem and Ramdas Pophale) SiO2 
 PCOD8313247
Probable space group: P 4/M C C
;
_chemical_formula_sum "Si O2"
_cell_formula_units_Z 96
_cell_length_a 23.543132
_cell_length_b 23.543132
_cell_length_c 8.529573
_cell_angle_alpha 90.000000
_cell_angle_beta 90.000000
_cell_angle_gamma 90.000000
_cell_volume 4727.763742
_symmetry_space_group_name_H-M "P 4/M C C"
_symmetry_group_IT_number 124
_symmetry_cell_setting 'tetragonal'
loop_
_space_group_symop_operation_xyz
x,y,z
-y,x,z
-x,-y,z
y,-x,z
x,-y,1/2-z
-x,y,1/2-z
y,x,1/2-z
-y,-x,1/2-z
-x,-y,-z
y,-x,-z
x,y,-z
-y,x,-z
-x,y,1/2+z
x,-y,1/2+z
-y,-x,1/2+z
y,x,1/2+z
loop_
_atom_site_type_symbol
_atom_site_label
_atom_site_fract_x
_atom_site_fract_y
_atom_site_fract_z
Si Si1 0.829442 0.555799 0.819737
Si Si2 0.710509 0.941190 0.823781
Si Si3 0.360279 0.751713 0.680555
Si Si4 0.942833 0.575937 0.323186
Si Si5 0.179803 0.740562 0.684493
Si Si6 0.564069 0.350212 0.814481
O O1 0.799094 0.500000 0.750000
O O2 0.809575 0.605456 0.705940
O O3 0.896652 0.551853 0.798084
O O4 0.812077 0.565705 0.000000
O O5 0.643285 0.943830 0.821510
O O6 0.729034 0.885089 0.730847
O O7 0.734912 0.000000 0.750000
O O8 0.734033 0.936520 0.000000
O O9 0.355594 0.734249 0.500000
O O10 0.299632 0.770185 0.746181
O O11 0.392506 0.700865 0.770818
O O12 0.932368 0.553466 0.500000
O O13 0.000000 0.551060 0.250000
O O14 0.197043 0.802958 0.750000
O O15 0.183696 0.736629 0.500000
O O16 0.500000 0.341026 0.750000
O O17 0.590867 0.409134 0.750000
O O18 0.559771 0.353506 0.000000
#
# Coordination Sequence:
#
# PCOD8313247 Si02
#       6
#    16  16  16  16  16  16
#     4  12  24  38  56  79 109 148 195 246 298 352
#     4  10  20  36  59  86 120 160 203 249 300 357
#     4  12  24  42  63  89 122 158 197 242 297 359
#     4  10  20  35  55  78 108 145 191 243 295 350
#     4  12  24  39  61  91 126 164 206 253 302 355
#     4  12  26  47  71  98 125 156 193 239 295 361
#
# _framework density 20.305582999999999
#
# number of rings (size 3 to 8) (size 9 to 14) (size 15 to 20)
#    0.000    0.667    1.667    8.000    0.000    1.833 
#    0.000    2.500    0.000    0.000    0.000    0.000 
#    0.000    0.333    0.000    3.333    0.000    2.000 
#
# Total GULP energy -1189866.422293 kJ/mol
# GULP energy per Si atom -12394.441899 kJ/mol
# Density = 2.025937 g / cm^3
# Si number density = 20.305583 Si / 1000 Ang^3
#
#
#
# Elastic Constant Matrix: (Units=GPa)
#
#
# Indices 1 2 3 4 5 6 
#
# 1 32.1970 96.8220 40.2640 0.0000 0.0000 0.0000
# 2 96.8220 32.1803 40.2817 0.0000 0.0000 0.0000
# 3 40.2640 40.2817 173.9785 0.0000 0.0000 0.0000
# 4 0.0000 0.0000 0.0000 33.5734 0.0000 0.0000
# 5 0.0000 0.0000 0.0000 0.0000 33.5740 0.0000
# 6 0.0000 0.0000 0.0000 0.0000 0.0000 -22.5519
#
#
#
# Elastic Compliance Matrix: (Units=1/GPa)
#
#
# Indices 1 2 3 4 5 6 
#
# 1 -0.003204 0.012266 -0.002099 0.000000 0.000000 0.000000
# 2 0.012266 -0.003207 -0.002096 0.000000 0.000000 0.000000
# 3 -0.002099 -0.002096 0.006719 0.000000 0.000000 0.000000
# 4 0.000000 0.000000 0.000000 0.029785 0.000000 0.000000
# 5 0.000000 0.000000 0.000000 0.000000 0.029785 0.000000
# 6 0.000000 0.000000 0.000000 0.000000 0.000000 -0.044342
#
#
# Mechanical properties :
#
#
# Convention : Reuss Voigt Hill
#
# Bulk Modulus (GPa) = 60.78734 65.89904 63.34319
# Shear Modulus (GPa) = 1025.30224 12.98497 519.14360
#
# Velocity S-wave (km/s) = 22.49516 2.53153 16.00689
# Velocity P-wave (km/s) = 26.54639 6.40851 19.31036
#
# Compressibility (1/GPa) = 0.01645079
#
# Stress axis : x y z
#
# Youngs Moduli (GPa) = -312.12911 -311.78853 148.83470
#
# Poissons Ratio (x) = 3.82450 0.31234
# Poissons Ratio (y) = 3.82868 0.31199
# Poissons Ratio (z) = -0.65503 -0.65358
#
# Static dielectric constant tensor:
#      x y z
#    x 3.797810 0.000000 0.000000 
#    y 0.000000 3.797820 0.000000 
#    z 0.000000 0.000000 3.925020 
# 
# 
# High freq. dielectric constant tensor:
#      x y z
#    x 1.784720 0.000000 0.000000 
#    y 0.000000 1.784720 0.000000 
#    z 0.000000 0.000000 1.811100 
# 
# From -- ./inp_files/1348.got.cif
#   From: 2010.03.12/outbox.cif.g09.slc.cpg/sg124_1_cif.got.tgz:1348.got - 2010.04.06 16:38:57.
