data_PCOD8313170
_publ_section_title
;
Structure prediction by ZEFSAII (Michael W. Deem and Ramdas Pophale) SiO2 
 PCOD8313170
Probable space group: P 4/M C C
;
_chemical_formula_sum "Si O2"
_cell_formula_units_Z 96
_cell_length_a 23.383351
_cell_length_b 23.383351
_cell_length_c 9.133478
_cell_angle_alpha 90.000000
_cell_angle_beta 90.000000
_cell_angle_gamma 90.000000
_cell_volume 4994.013184
_symmetry_space_group_name_H-M "P 4/M C C"
_symmetry_group_IT_number 124
_symmetry_cell_setting 'tetragonal'
loop_
_space_group_symop_operation_xyz
x,y,z
-y,x,z
-x,-y,z
y,-x,z
x,-y,1/2-z
-x,y,1/2-z
y,x,1/2-z
-y,-x,1/2-z
-x,-y,-z
y,-x,-z
x,y,-z
-y,x,-z
-x,y,1/2+z
x,-y,1/2+z
-y,-x,1/2+z
y,x,1/2+z
loop_
_atom_site_type_symbol
_atom_site_label
_atom_site_fract_x
_atom_site_fract_y
_atom_site_fract_z
Si Si1 0.446718 0.922449 0.662934
Si Si2 0.787146 0.555078 0.663015
Si Si3 0.855012 0.061846 0.823278
Si Si4 0.249057 0.144661 0.338831
Si Si5 0.952555 0.663767 0.159705
Si Si6 0.682637 0.238994 0.674568
O O1 0.500000 0.947898 0.750000
O O2 0.447324 0.947319 0.500000
O O3 0.449216 0.854588 0.659744
O O4 0.391697 0.943889 0.744629
O O5 0.761683 0.500000 0.750000
O O6 0.761392 0.551149 0.500000
O O7 0.772094 0.617689 0.730926
O O8 0.912851 0.087150 0.750000
O O9 0.804267 0.106619 0.782264
O O10 0.842853 0.000000 0.750000
O O11 0.860599 0.055408 0.000000
O O12 0.235310 0.171383 0.500000
O O13 0.303451 0.105398 0.357431
O O14 0.269309 0.192335 0.223827
O O15 0.000000 0.700659 0.250000
O O16 0.976469 0.647772 0.000000
O O17 0.701389 0.298612 0.750000
O O18 0.684315 0.242066 0.500000
#
# Coordination Sequence:
#
# PCOD8313170 Si02
#       6
#    16  16  16  16  16  16
#     4  10  19  34  52  73 100 135 180 230 280 328
#     4   9  19  34  54  79 109 147 189 231 278 328
#     4  11  24  43  65  90 115 143 178 221 274 336
#     4  10  22  39  59  84 113 147 184 223 275 332
#     4  11  22  35  52  75 103 139 183 230 278 330
#     4  11  22  36  56  86 119 153 191 232 277 327
#
# _framework density 19.223016999999999
#
# number of rings (size 3 to 8) (size 9 to 14) (size 15 to 20)
#    0.000    1.667    1.667    3.000    0.000    5.833 
#    0.000    2.500    0.000    0.000    0.000    0.000 
#    0.000    0.333    0.000    3.667    0.000    2.667 
#
# Total GULP energy -1189449.253089 kJ/mol
# GULP energy per Si atom -12390.096386 kJ/mol
# Density = 1.917926 g / cm^3
# Si number density = 19.223017 Si / 1000 Ang^3
#
#
#
# Elastic Constant Matrix: (Units=GPa)
#
#
# Indices 1 2 3 4 5 6 
#
# 1 73.5386 48.7711 45.6676 0.0000 0.0000 0.0000
# 2 48.7711 73.5399 45.6682 0.0000 0.0000 0.0000
# 3 45.6676 45.6682 138.0330 0.0000 0.0000 0.0000
# 4 0.0000 0.0000 0.0000 32.2554 0.0000 0.0000
# 5 0.0000 0.0000 0.0000 0.0000 32.2555 0.0000
# 6 0.0000 0.0000 0.0000 0.0000 0.0000 19.8325
#
#
#
# Elastic Compliance Matrix: (Units=1/GPa)
#
#
# Indices 1 2 3 4 5 6 
#
# 1 0.025617 -0.014758 -0.003593 0.000000 0.000000 0.000000
# 2 -0.014758 0.025616 -0.003593 0.000000 0.000000 0.000000
# 3 -0.003593 -0.003593 0.009622 0.000000 0.000000 0.000000
# 4 0.000000 0.000000 0.000000 0.031003 0.000000 0.000000
# 5 0.000000 0.000000 0.000000 0.000000 0.031002 0.000000
# 6 0.000000 0.000000 0.000000 0.000000 0.000000 0.050422
#
#
# Mechanical properties :
#
#
# Convention : Reuss Voigt Hill
#
# Bulk Modulus (GPa) = 58.93126 62.81393 60.87260
# Shear Modulus (GPa) = 22.43916 26.53564 24.48740
#
# Velocity S-wave (km/s) = 3.42029 3.71942 3.57299
# Velocity P-wave (km/s) = 6.80596 7.15491 6.98262
#
# Compressibility (1/GPa) = 0.01696892
#
# Stress axis : x y z
#
# Youngs Moduli (GPa) = 39.03690 39.03754 103.93034
#
# Poissons Ratio (x) = 0.57611 0.37338
# Poissons Ratio (y) = 0.57610 0.37338
# Poissons Ratio (z) = 0.14024 0.14025
#
# Static dielectric constant tensor:
#      x y z
#    x 2.178060 0.000000 0.000000 
#    y 0.000000 2.178120 0.000000 
#    z 0.000000 0.000000 4.188950 
# 
# 
# High freq. dielectric constant tensor:
#      x y z
#    x 1.734880 0.000000 0.000000 
#    y 0.000000 1.734880 0.000000 
#    z 0.000000 0.000000 1.761870 
# 
# From -- ./inp_files/1314.got.cif
#   From: 2010.03.12/outbox.cif.g09.slc.cpg/sg124_1_cif.got.tgz:1314.got - 2010.04.06 16:38:57.
