data_PCOD8313555
_publ_section_title
;
Structure prediction by ZEFSAII (Michael W. Deem and Ramdas Pophale) SiO2 
 PCOD8313555
Probable space group: P 4/N B M
;
_chemical_formula_sum "Si O2"
_cell_formula_units_Z 34
_cell_length_a 10.003048
_cell_length_b 10.003048
_cell_length_c 16.897629
_cell_angle_alpha 90.000000
_cell_angle_beta 90.000000
_cell_angle_gamma 90.000000
_cell_volume 1690.793136
_symmetry_space_group_name_H-M "P 4/N B M"
_symmetry_group_IT_number 125
_space_group.IT_coordinate_system_code '2'
_symmetry_cell_setting 'tetragonal'
loop_
_space_group_symop_operation_xyz
x,y,z
1/2-y,x,z
1/2-x,1/2-y,z
y,1/2-x,z
x,1/2-y,-z
1/2-x,y,-z
y,x,-z
1/2-y,1/2-x,-z
-x,-y,-z
1/2+y,-x,-z
1/2+x,1/2+y,-z
-y,1/2+x,-z
-x,1/2+y,z
1/2+x,-y,z
-y,-x,z
1/2+y,1/2+x,z
loop_
_atom_site_type_symbol
_atom_site_label
_atom_site_fract_x
_atom_site_fract_y
_atom_site_fract_z
Si Si1 0.648477 0.351524 0.633366
Si Si2 0.382840 0.882840 0.142632
Si Si3 0.468231 0.250000 0.500000
Si Si4 0.407057 0.907057 0.798992
Si Si5 0.250000 0.750000 0.000000
O O1 0.750000 0.250000 0.677394
O O2 0.554090 0.259633 0.579204
O O3 0.570950 0.429051 0.703949
O O4 0.439824 0.747313 0.181856
O O5 0.496142 0.996142 0.150799
O O6 0.346035 0.846035 0.051947
O O7 0.383658 0.383658 0.500000
#
# Coordination Sequence:
#
# PCOD8313555 Si02
#       5
#     8   8   8   8   2
#     4  12  22  39  61  82 123 166 213 266 309 372
#     4  10  22  43  63 100 125 169 204 254 320 383
#     4  11  25  38  56  86 113 163 220 266 316 357
#     4  10  24  38  63  94 133 164 213 260 323 372
#     4   8  20  44  76  92 136 158 208 260 308 404
#
# _framework density 20.108903999999999
#
# number of rings (size 3 to 8) (size 9 to 14) (size 15 to 20)
#    0.000    1.647    4.706    0.706    6.588    4.706 
#    0.000    0.000    0.000   11.294    0.000    0.000 
#    0.000    0.000    0.000    0.000    0.000    0.000 
#
# Total GULP energy -421356.140905 kJ/mol
# GULP energy per Si atom -12392.827674 kJ/mol
# Density = 2.006314 g / cm^3
# Si number density = 20.108904 Si / 1000 Ang^3
#
#
#
# Elastic Constant Matrix: (Units=GPa)
#
#
# Indices 1 2 3 4 5 6 
#
# 1 115.4718 75.2362 47.4449 0.0000 0.0000 0.0000
# 2 75.2362 115.4718 47.4449 0.0000 0.0000 0.0000
# 3 47.4449 47.4449 164.0102 0.0000 0.0000 0.0000
# 4 0.0000 0.0000 0.0000 12.4263 0.0000 0.0000
# 5 0.0000 0.0000 0.0000 0.0000 12.4263 0.0000
# 6 0.0000 0.0000 0.0000 0.0000 0.0000 41.3082
#
#
#
# Elastic Compliance Matrix: (Units=1/GPa)
#
#
# Indices 1 2 3 4 5 6 
#
# 1 0.015489 -0.009364 -0.001772 0.000000 0.000000 0.000000
# 2 -0.009364 0.015489 -0.001772 0.000000 0.000000 0.000000
# 3 -0.001772 -0.001772 0.007122 0.000000 0.000000 0.000000
# 4 0.000000 0.000000 0.000000 0.080475 0.000000 0.000000
# 5 0.000000 0.000000 0.000000 0.000000 0.080475 0.000000
# 6 0.000000 0.000000 0.000000 0.000000 0.000000 0.024208
#
#
# Mechanical properties :
#
#
# Convention : Reuss Voigt Hill
#
# Bulk Modulus (GPa) = 81.39874 81.68952 81.54413
# Shear Modulus (GPa) = 19.74961 28.22068 23.98515
#
# Velocity S-wave (km/s) = 3.13730 3.75025 3.45739
# Velocity P-wave (km/s) = 7.32737 7.71131 7.52179
#
# Compressibility (1/GPa) = 0.01228520
#
# Stress axis : x y z
#
# Youngs Moduli (GPa) = 64.56022 64.56022 140.40327
#
# Poissons Ratio (x) = 0.60455 0.24878
# Poissons Ratio (y) = 0.60455 0.24878
# Poissons Ratio (z) = 0.11440 0.11440
#
# Static dielectric constant tensor:
#      x y z
#    x 3.491030 0.000000 0.000000 
#    y 0.000000 3.491030 0.000000 
#    z 0.000000 0.000000 3.652050 
# 
# 
# High freq. dielectric constant tensor:
#      x y z
#    x 1.781850 0.000000 0.000000 
#    y 0.000000 1.781850 0.000000 
#    z 0.000000 0.000000 1.791270 
# 
# From -- ./inp_files/4449.got.cif
#   From: 2010.03.12/outbox.cif.g09.slc.cpg/sg125_3_cif.got.tgz:4449.got - 2010.04.06 16:47:52.
