data_PCOD8313999
_publ_section_title
;
Structure prediction by ZEFSAII (Michael W. Deem and Ramdas Pophale) SiO2 
 PCOD8313999
Probable space group: P 4/M B M
;
_chemical_formula_sum "Si O2"
_cell_formula_units_Z 56
_cell_length_a 16.918631
_cell_length_b 16.918631
_cell_length_c 10.266858
_cell_angle_alpha 90.000000
_cell_angle_beta 90.000000
_cell_angle_gamma 90.000000
_cell_volume 2938.786203
_symmetry_space_group_name_H-M "P 4/M B M"
_symmetry_group_IT_number 127
_symmetry_cell_setting 'tetragonal'
loop_
_space_group_symop_operation_xyz
x,y,z
-y,x,z
-x,-y,z
y,-x,z
1/2+x,1/2-y,-z
1/2-x,1/2+y,-z
1/2+y,1/2+x,-z
1/2-y,1/2-x,-z
-x,-y,-z
y,-x,-z
x,y,-z
-y,x,-z
1/2-x,1/2+y,z
1/2+x,1/2-y,z
1/2-y,1/2-x,z
1/2+y,1/2+x,z
loop_
_atom_site_type_symbol
_atom_site_label
_atom_site_fract_x
_atom_site_fract_y
_atom_site_fract_z
Si Si1 0.995330 0.373499 0.000000
Si Si2 0.432466 0.800857 0.244178
Si Si3 0.187541 0.180177 0.147369
Si Si4 0.909073 0.280847 0.355705
O O1 0.010016 0.321192 0.874911
O O2 0.053358 0.446643 0.000000
O O3 0.904682 0.404682 0.000000
O O4 0.368990 0.868990 0.277225
O O5 0.391128 0.718146 0.209605
O O6 0.495737 0.792865 0.360378
O O7 0.251202 0.248799 0.138307
O O8 0.215786 0.112161 0.246017
O O9 0.172090 0.147310 0.000000
O O10 0.884756 0.249971 0.500000
O O11 0.863258 0.363258 0.326900
#
# Coordination Sequence:
#
# PCOD8313999 Si02
#       4
#     8  16  16  16
#     4   9  16  26  44  76 112 137 163 209 264 315
#     4  10  19  33  54  80 109 143 183 224 273 332
#     4   9  18  34  55  77 104 141 187 231 269 322
#     4  10  22  36  51  78 114 149 184 223 273 329
#
# _framework density 19.055485999999998
#
# number of rings (size 3 to 8) (size 9 to 14) (size 15 to 20)
#    0.000    2.429    1.429    0.857    2.000    3.429 
#    0.000    4.286    0.000    0.857    0.000    4.000 
#    0.000    0.000    0.000    0.000    0.000    0.000 
#
# Total GULP energy -693987.803988 kJ/mol
# GULP energy per Si atom -12392.639357 kJ/mol
# Density = 1.901212 g / cm^3
# Si number density = 19.055486 Si / 1000 Ang^3
#
#
#
# Elastic Constant Matrix: (Units=GPa)
#
#
# Indices 1 2 3 4 5 6 
#
# 1 76.0623 49.5626 46.5960 0.0000 0.0000 0.0000
# 2 49.5626 76.0622 46.5960 0.0000 0.0000 0.0000
# 3 46.5960 46.5960 108.4827 0.0000 0.0000 0.0000
# 4 0.0000 0.0000 0.0000 25.7292 0.0000 0.0000
# 5 0.0000 0.0000 0.0000 0.0000 25.7279 0.0000
# 6 0.0000 0.0000 0.0000 0.0000 0.0000 30.1923
#
#
#
# Elastic Compliance Matrix: (Units=1/GPa)
#
#
# Indices 1 2 3 4 5 6 
#
# 1 0.024710 -0.013027 -0.005018 0.000000 0.000000 0.000000
# 2 -0.013027 0.024710 -0.005018 0.000000 0.000000 0.000000
# 3 -0.005018 -0.005018 0.013529 0.000000 0.000000 0.000000
# 4 0.000000 0.000000 0.000000 0.038866 0.000000 0.000000
# 5 0.000000 0.000000 0.000000 0.000000 0.038868 0.000000
# 6 0.000000 0.000000 0.000000 0.000000 0.000000 0.033121
#
#
# Mechanical properties :
#
#
# Convention : Reuss Voigt Hill
#
# Bulk Modulus (GPa) = 59.44543 60.67960 60.06251
# Shear Modulus (GPa) = 22.16935 24.18672 23.17803
#
# Velocity S-wave (km/s) = 3.41458 3.56656 3.49140
# Velocity P-wave (km/s) = 6.84175 6.99094 6.91674
#
# Compressibility (1/GPa) = 0.01682215
#
# Stress axis : x y z
#
# Youngs Moduli (GPa) = 40.47024 40.47015 73.91647
#
# Poissons Ratio (x) = 0.52720 0.37091
# Poissons Ratio (y) = 0.52720 0.37091
# Poissons Ratio (z) = 0.20308 0.20308
#
# Static dielectric constant tensor:
#      x y z
#    x 3.323520 0.000000 0.000000 
#    y 0.000000 3.323520 0.000000 
#    z 0.000000 0.000000 3.750010 
# 
# 
# High freq. dielectric constant tensor:
#      x y z
#    x 1.715240 0.000000 0.000000 
#    y 0.000000 1.715240 0.000000 
#    z 0.000000 0.000000 1.746900 
# 
# From -- ./inp_files/1073.got.cif
#   From: 2010.03.12/outbox.cif.g09.slc.cpg/sg127_1_cif.got.tgz:1073.got - 2010.04.06 17:03:15.
