data_PCOD8313556
_publ_section_title
;
Structure prediction by ZEFSAII (Michael W. Deem and Ramdas Pophale) SiO2 
 PCOD8313556
Probable space group: P 4/N B M
;
_chemical_formula_sum "Si O2"
_cell_formula_units_Z 34
_cell_length_a 11.597975
_cell_length_b 11.597975
_cell_length_c 13.570858
_cell_angle_alpha 90.000000
_cell_angle_beta 90.000000
_cell_angle_gamma 90.000000
_cell_volume 1825.457149
_symmetry_space_group_name_H-M "P 4/N B M"
_symmetry_group_IT_number 125
_space_group.IT_coordinate_system_code '2'
_symmetry_cell_setting 'tetragonal'
loop_
_space_group_symop_operation_xyz
x,y,z
1/2-y,x,z
1/2-x,1/2-y,z
y,1/2-x,z
x,1/2-y,-z
1/2-x,y,-z
y,x,-z
1/2-y,1/2-x,-z
-x,-y,-z
1/2+y,-x,-z
1/2+x,1/2+y,-z
-y,1/2+x,-z
-x,1/2+y,z
1/2+x,-y,z
-y,-x,z
1/2+y,1/2+x,z
loop_
_atom_site_type_symbol
_atom_site_label
_atom_site_fract_x
_atom_site_fract_y
_atom_site_fract_z
Si Si1 0.784311 0.935853 0.302578
Si Si2 0.934599 0.250000 0.500000
Si Si3 0.840154 0.159847 0.188918
Si Si4 0.250000 0.750000 0.000000
O O1 0.658508 0.883071 0.287653
O O2 0.795919 0.986657 0.411831
O O3 0.805904 0.031966 0.220589
O O4 0.855322 0.144679 0.537974
O O5 0.750000 0.250000 0.239206
O O6 0.830481 0.169520 0.069769
#
# Coordination Sequence:
#
# PCOD8313556 Si02
#       4
#    16   8   8   2
#     4  11  24  39  61  94 130 168 207 251 299 360
#     4  11  22  35  58  94 130 171 211 246 292 358
#     4  10  22  43  66  89 118 157 207 251 317 374
#     4   8  24  44  68  98 108 156 204 256 328 378
#
# _framework density 18.625471000000001
#
# number of rings (size 3 to 8) (size 9 to 14) (size 15 to 20)
#    0.706    0.706    2.353    2.824    6.588    3.765 
#    0.000    4.706    0.000    2.824    0.000    0.000 
#    0.000    0.000    0.000    0.000    0.000    0.000 
#
# Total GULP energy -421646.008420 kJ/mol
# GULP energy per Si atom -12401.353189 kJ/mol
# Density = 1.858308 g / cm^3
# Si number density = 18.625471 Si / 1000 Ang^3
#
#
#
# Elastic Constant Matrix: (Units=GPa)
#
#
# Indices 1 2 3 4 5 6 
#
# 1 138.5098 69.5010 54.6319 0.0000 0.0000 0.0000
# 2 69.5010 138.5098 54.6319 0.0000 0.0000 0.0000
# 3 54.6319 54.6319 139.3645 0.0000 0.0000 0.0000
# 4 0.0000 0.0000 0.0000 11.2117 0.0000 0.0000
# 5 0.0000 0.0000 0.0000 0.0000 11.2117 0.0000
# 6 0.0000 0.0000 0.0000 0.0000 0.0000 18.9569
#
#
#
# Elastic Compliance Matrix: (Units=1/GPa)
#
#
# Indices 1 2 3 4 5 6 
#
# 1 0.010272 -0.004218 -0.002373 0.000000 0.000000 0.000000
# 2 -0.004218 0.010272 -0.002373 0.000000 0.000000 0.000000
# 3 -0.002373 -0.002373 0.009036 0.000000 0.000000 0.000000
# 4 0.000000 0.000000 0.000000 0.089193 0.000000 0.000000
# 5 0.000000 0.000000 0.000000 0.000000 0.089193 0.000000
# 6 0.000000 0.000000 0.000000 0.000000 0.000000 0.052751
#
#
# Mechanical properties :
#
#
# Convention : Reuss Voigt Hill
#
# Bulk Modulus (GPa) = 85.82770 85.99043 85.90906
# Shear Modulus (GPa) = 17.69715 24.11733 20.90724
#
# Velocity S-wave (km/s) = 3.08581 3.60232 3.35402
# Velocity P-wave (km/s) = 7.67314 7.97312 7.82457
#
# Compressibility (1/GPa) = 0.01165125
#
# Stress axis : x y z
#
# Youngs Moduli (GPa) = 97.34751 97.34751 110.66747
#
# Poissons Ratio (x) = 0.41065 0.26264
# Poissons Ratio (y) = 0.41065 0.26264
# Poissons Ratio (z) = 0.23103 0.23103
#
# Static dielectric constant tensor:
#      x y z
#    x 3.575460 0.000000 0.000000 
#    y 0.000000 3.575460 0.000000 
#    z 0.000000 0.000000 3.122520 
# 
# 
# High freq. dielectric constant tensor:
#      x y z
#    x 1.734750 0.000000 0.000000 
#    y 0.000000 1.734750 0.000000 
#    z 0.000000 0.000000 1.696700 
# 
# From -- ./inp_files/3243.got.cif
#   From: 2010.03.12/outbox.cif.g09.slc.cpg/sg125_2_cif.got.tgz:3243.got - 2010.04.06 16:47:52.
