data_PCOD8313861
_publ_section_title
;
Structure prediction by ZEFSAII (Michael W. Deem and Ramdas Pophale) SiO2 
 PCOD8313861
Probable space group: P 4/M B M
;
_chemical_formula_sum "Si O2"
_cell_formula_units_Z 96
_cell_length_a 24.087678
_cell_length_b 24.087678
_cell_length_c 9.154986
_cell_angle_alpha 90.000000
_cell_angle_beta 90.000000
_cell_angle_gamma 90.000000
_cell_volume 5311.871476
_symmetry_space_group_name_H-M "P 4/M B M"
_symmetry_group_IT_number 127
_symmetry_cell_setting 'tetragonal'
loop_
_space_group_symop_operation_xyz
x,y,z
-y,x,z
-x,-y,z
y,-x,z
1/2+x,1/2-y,-z
1/2-x,1/2+y,-z
1/2+y,1/2+x,-z
1/2-y,1/2-x,-z
-x,-y,-z
y,-x,-z
x,y,-z
-y,x,-z
1/2-x,1/2+y,z
1/2+x,1/2-y,z
1/2-y,1/2-x,z
1/2+y,1/2+x,z
loop_
_atom_site_type_symbol
_atom_site_label
_atom_site_fract_x
_atom_site_fract_y
_atom_site_fract_z
Si Si1 0.556075 0.727874 0.670870
Si Si2 0.864249 0.862160 0.669882
Si Si3 0.146337 0.556396 0.670400
Si Si4 0.444595 0.852609 0.169329
Si Si5 0.554597 0.427783 0.159997
Si Si6 0.259598 0.431133 0.325745
O O1 0.557444 0.716100 0.500000
O O2 0.603575 0.687352 0.743550
O O3 0.573823 0.790661 0.708454
O O4 0.492421 0.717603 0.725865
O O5 0.853828 0.858870 0.500000
O O6 0.920258 0.894759 0.705414
O O7 0.879703 0.799611 0.724212
O O8 0.140886 0.541342 0.500000
O O9 0.107513 0.607513 0.715347
O O10 0.128342 0.502970 0.762480
O O11 0.402785 0.902785 0.193195
O O12 0.419703 0.799077 0.250552
O O13 0.453070 0.838245 0.000000
O O14 0.576428 0.489568 0.175604
O O15 0.572829 0.404542 0.000000
O O16 0.251435 0.432294 0.500000
#
# Coordination Sequence:
#
# PCOD8313861 Si02
#       6
#    16  16  16  16  16  16
#     4   8  15  29  47  70 101 130 160 202 247 290
#     4  10  18  29  48  72  96 126 167 211 250 288
#     4   9  18  34  56  79 104 134 163 195 242 301
#     4  10  21  36  54  76 102 131 162 201 248 294
#     4   9  18  30  41  58  89 126 163 207 257 303
#     4   9  18  32  50  73 101 133 168 206 248 296
#
# _framework density 18.072727
#
# number of rings (size 3 to 8) (size 9 to 14) (size 15 to 20)
#    0.000    2.833    0.000    3.000    0.000    4.667 
#    0.000    8.333    0.000    3.000    0.000    0.000 
#    0.000    0.000    0.000    0.000    0.000    0.000 
#
# Total GULP energy -1189253.994108 kJ/mol
# GULP energy per Si atom -12388.062439 kJ/mol
# Density = 1.803159 g / cm^3
# Si number density = 18.072727 Si / 1000 Ang^3
#
#
#
# Elastic Constant Matrix: (Units=GPa)
#
#
# Indices 1 2 3 4 5 6 
#
# 1 72.9148 57.3110 31.7336 0.0000 0.0000 0.0000
# 2 57.3110 72.9148 31.7336 0.0000 0.0000 0.0000
# 3 31.7336 31.7336 24.4088 0.0000 0.0000 0.0000
# 4 0.0000 0.0000 0.0000 17.5945 0.0000 0.0000
# 5 0.0000 0.0000 0.0000 0.0000 17.5945 0.0000
# 6 0.0000 0.0000 0.0000 0.0000 0.0000 35.8895
#
#
#
# Elastic Compliance Matrix: (Units=1/GPa)
#
#
# Indices 1 2 3 4 5 6 
#
# 1 0.042523 -0.021564 -0.027248 0.000000 0.000000 0.000000
# 2 -0.021564 0.042523 -0.027248 0.000000 0.000000 0.000000
# 3 -0.027248 -0.027248 0.111820 0.000000 0.000000 0.000000
# 4 0.000000 0.000000 0.000000 0.056836 0.000000 0.000000
# 5 0.000000 0.000000 0.000000 0.000000 0.056836 0.000000
# 6 0.000000 0.000000 0.000000 0.000000 0.000000 0.027863
#
#
# Mechanical properties :
#
#
# Convention : Reuss Voigt Hill
#
# Bulk Modulus (GPa) = 22.34948 45.75498 34.05223
# Shear Modulus (GPa) = 9.89242 17.51303 13.70272
#
# Velocity S-wave (km/s) = 2.34213 3.11630 2.75653
# Velocity P-wave (km/s) = 4.43929 6.19036 5.38646
#
# Compressibility (1/GPa) = 0.04474377
#
# Stress axis : x y z
#
# Youngs Moduli (GPa) = 23.51675 23.51675 8.94295
#
# Poissons Ratio (x) = 0.50712 0.24368
# Poissons Ratio (y) = 0.50712 0.24368
# Poissons Ratio (z) = 0.64080 0.64080
#
# Static dielectric constant tensor:
#      x y z
#    x 3.442170 0.000000 0.000000 
#    y 0.000000 3.442170 0.000000 
#    z 0.000000 0.000000 3.183810 
# 
# 
# High freq. dielectric constant tensor:
#      x y z
#    x 1.694560 0.000000 0.000000 
#    y 0.000000 1.694560 0.000000 
#    z 0.000000 0.000000 1.676830 
# 
# From -- ./inp_files/1962.got.cif
#   From: 2010.03.12/outbox.cif.g09.slc.cpg/sg127_1_cif.got.tgz:1962.got - 2010.04.06 17:03:15.
