data_PCOD8313987
_publ_section_title
;
Structure prediction by ZEFSAII (Michael W. Deem and Ramdas Pophale) SiO2 
 PCOD8313987
Probable space group: P 4/M B M
;
_chemical_formula_sum "Si O2"
_cell_formula_units_Z 72
_cell_length_a 16.244713
_cell_length_b 16.244713
_cell_length_c 14.510522
_cell_angle_alpha 90.000000
_cell_angle_beta 90.000000
_cell_angle_gamma 90.000000
_cell_volume 3829.191815
_symmetry_space_group_name_H-M "P 4/M B M"
_symmetry_group_IT_number 127
_symmetry_cell_setting 'tetragonal'
loop_
_space_group_symop_operation_xyz
x,y,z
-y,x,z
-x,-y,z
y,-x,z
1/2+x,1/2-y,-z
1/2-x,1/2+y,-z
1/2+y,1/2+x,-z
1/2-y,1/2-x,-z
-x,-y,-z
y,-x,-z
x,y,-z
-y,x,-z
1/2-x,1/2+y,z
1/2+x,1/2-y,z
1/2-y,1/2-x,z
1/2+y,1/2+x,z
loop_
_atom_site_type_symbol
_atom_site_label
_atom_site_fract_x
_atom_site_fract_y
_atom_site_fract_z
Si Si1 0.317382 0.317621 0.602839
Si Si2 0.882827 0.936222 0.892286
Si Si3 0.005084 0.630357 0.500000
Si Si4 0.901328 0.264624 0.234968
Si Si5 0.198673 0.437625 0.318231
O O1 0.351839 0.340215 0.500000
O O2 0.236398 0.263603 0.588410
O O3 0.385684 0.270885 0.662393
O O4 0.287295 0.395765 0.663184
O O5 0.807604 0.892625 0.839787
O O6 0.967501 0.890101 0.865579
O O7 0.865413 0.926783 0.000000
O O8 0.948662 0.551339 0.500000
O O9 0.988663 0.682242 0.589907
O O10 0.100619 0.600619 0.500000
O O11 0.837125 0.337125 0.209662
O O12 0.995535 0.297468 0.235521
O O13 0.127616 0.372385 0.292346
#
# Coordination Sequence:
#
# PCOD8313987 Si02
#       5
#    16  16   8  16  16
#     4   9  18  32  47  68 103 145 185 224 263 300
#     4   9  19  39  64  83 101 132 177 225 270 322
#     4   9  16  26  42  64  90 129 179 215 238 281
#     4  11  22  32  51  83 113 140 174 222 276 327
#     4  10  19  33  50  69 102 148 187 218 259 312
#
# _framework density 18.802923
#
# number of rings (size 3 to 8) (size 9 to 14) (size 15 to 20)
#    0.000    2.333    1.111    2.667    1.556    1.778 
#    0.000    0.000    0.000    2.000    0.000    6.222 
#    0.000    0.000    0.000    0.000    0.000    0.000 
#
# Total GULP energy -892357.476326 kJ/mol
# GULP energy per Si atom -12393.853838 kJ/mol
# Density = 1.876013 g / cm^3
# Si number density = 18.802923 Si / 1000 Ang^3
#
#
#
# Elastic Constant Matrix: (Units=GPa)
#
#
# Indices 1 2 3 4 5 6 
#
# 1 81.1637 36.0343 30.1832 0.0000 0.0000 0.0000
# 2 36.0343 81.1640 30.1833 0.0000 0.0000 0.0000
# 3 30.1832 30.1833 57.7242 0.0000 0.0000 0.0000
# 4 0.0000 0.0000 0.0000 -437.3103 0.0000 0.0000
# 5 0.0000 0.0000 0.0000 0.0000 -437.2567 0.0000
# 6 0.0000 0.0000 0.0000 0.0000 0.0000 30.7778
#
#
#
# Elastic Compliance Matrix: (Units=1/GPa)
#
#
# Indices 1 2 3 4 5 6 
#
# 1 0.016918 -0.005240 -0.006106 0.000000 0.000000 0.000000
# 2 -0.005240 0.016918 -0.006106 0.000000 0.000000 0.000000
# 3 -0.006106 -0.006106 0.023709 0.000000 0.000000 0.000000
# 4 0.000000 0.000000 0.000000 -0.002287 0.000000 0.000000
# 5 0.000000 0.000000 0.000000 0.000000 -0.002287 0.000000
# 6 0.000000 0.000000 0.000000 0.000000 0.000000 0.032491
#
#
# Mechanical properties :
#
#
# Convention : Reuss Voigt Hill
#
# Bulk Modulus (GPa) = 44.16901 45.87260 45.02081
# Shear Modulus (GPa) = 39.08855 -160.51441 -60.71293
#
# Velocity S-wave (km/s) = 4.56439 -9.24944 -5.68851
# Velocity P-wave (km/s) = 7.16378 9.46678 4.37608
#
# Compressibility (1/GPa) = 0.02264031
#
# Stress axis : x y z
#
# Youngs Moduli (GPa) = 59.10832 59.10847 42.17743
#
# Poissons Ratio (x) = 0.30975 0.25754
# Poissons Ratio (y) = 0.30975 0.25754
# Poissons Ratio (z) = 0.36092 0.36092
#
# Static dielectric constant tensor:
#      x y z
#    x 3.400040 0.000000 0.000000 
#    y 0.000000 3.400040 0.000000 
#    z 0.000000 0.000000 3.185870 
# 
# 
# High freq. dielectric constant tensor:
#      x y z
#    x 1.725970 0.000000 0.000000 
#    y 0.000000 1.725970 0.000000 
#    z 0.000000 0.000000 1.702840 
# 
# From -- ./inp_files/3195.got.cif
#   From: 2010.03.12/outbox.cif.g09.slc.cpg/sg127_2_cif.got.tgz:3195.got - 2010.04.06 17:03:15.
