data_PCOD8313700
_publ_section_title
;
Structure prediction by ZEFSAII (Michael W. Deem and Ramdas Pophale) SiO2 
 PCOD8313700
Probable space group: P 4/N N C
;
_chemical_formula_sum "Si O2"
_cell_formula_units_Z 72
_cell_length_a 17.723512
_cell_length_b 17.723512
_cell_length_c 11.451688
_cell_angle_alpha 90.000000
_cell_angle_beta 90.000000
_cell_angle_gamma 90.000000
_cell_volume 3597.237188
_symmetry_space_group_name_H-M "P 4/N N C"
_symmetry_group_IT_number 126
_space_group.IT_coordinate_system_code '2'
_symmetry_cell_setting 'tetragonal'
loop_
_space_group_symop_operation_xyz
x,y,z
1/2-y,x,z
1/2-x,1/2-y,z
y,1/2-x,z
x,1/2-y,1/2-z
1/2-x,y,1/2-z
y,x,1/2-z
1/2-y,1/2-x,1/2-z
-x,-y,-z
1/2+y,-x,-z
1/2+x,1/2+y,-z
-y,1/2+x,-z
-x,1/2+y,1/2+z
1/2+x,-y,1/2+z
-y,-x,1/2+z
1/2+y,1/2+x,1/2+z
loop_
_atom_site_type_symbol
_atom_site_label
_atom_site_fract_x
_atom_site_fract_y
_atom_site_fract_z
Si Si1 0.375445 0.250000 0.250000
Si Si2 0.763807 0.367169 0.015560
Si Si3 0.937276 0.250000 0.750000
Si Si4 0.970749 0.529252 0.750000
Si Si5 0.327507 0.020386 0.087270
Si Si6 0.967233 0.614126 0.340388
O O1 0.324889 0.324889 0.250000
O O2 0.428673 0.257664 0.134777
O O3 0.727070 0.388864 0.138598
O O4 0.828829 0.306749 0.049688
O O5 0.796802 0.436828 0.941141
O O6 0.985778 0.321234 0.718291
O O7 0.889867 0.519408 0.810846
O O8 0.981945 0.462527 0.653512
O O9 0.362690 0.058458 0.970640
O O10 0.897426 0.602575 0.250000
#
# Coordination Sequence:
#
# PCOD8313700 Si02
#       6
#     8  16   8   8  16  16
#     4  11  26  46  64  93 130 168 222 281 334 396
#     4  10  23  39  62  93 134 176 214 263 324 404
#     4  10  20  41  58  89 130 168 210 268 332 377
#     4  10  20  40  65 102 129 168 226 272 322 402
#     4  11  22  41  67  96 131 181 218 275 341 391
#     4   9  22  37  65  97 133 166 221 278 322 401
#
# _framework density 20.015360999999999
#
# number of rings (size 3 to 8) (size 9 to 14) (size 15 to 20)
#    0.667    1.222    1.111    2.000    0.000   10.667 
#    0.000    0.000    0.000    0.333    0.000    0.000 
#    0.000    0.000    0.000    0.000    0.000    0.000 
#
# Total GULP energy -892103.803194 kJ/mol
# GULP energy per Si atom -12390.330600 kJ/mol
# Density = 1.996980 g / cm^3
# Si number density = 20.015361 Si / 1000 Ang^3
#
#
#
# Elastic Constant Matrix: (Units=GPa)
#
#
# Indices 1 2 3 4 5 6 
#
# 1 50.1684 87.6556 47.1153 0.0000 0.0000 0.0000
# 2 87.6556 50.1269 47.1110 0.0000 0.0000 0.0000
# 3 47.1153 47.1110 136.2769 0.0000 0.0000 0.0000
# 4 0.0000 0.0000 0.0000 20.9986 0.0000 0.0000
# 5 0.0000 0.0000 0.0000 0.0000 20.9956 0.0000
# 6 0.0000 0.0000 0.0000 0.0000 0.0000 21.4618
#
#
#
# Elastic Compliance Matrix: (Units=1/GPa)
#
#
# Indices 1 2 3 4 5 6 
#
# 1 -0.008574 0.018082 -0.003287 0.000000 0.000000 0.000000
# 2 0.018082 -0.008584 -0.003284 0.000000 0.000000 0.000000
# 3 -0.003287 -0.003284 0.009610 0.000000 0.000000 0.000000
# 4 0.000000 0.000000 0.000000 0.047622 0.000000 0.000000
# 5 0.000000 0.000000 0.000000 0.000000 0.047629 0.000000
# 6 0.000000 0.000000 0.000000 0.000000 0.000000 0.046594
#
#
# Mechanical properties :
#
#
# Convention : Reuss Voigt Hill
#
# Bulk Modulus (GPa) = 64.62288 66.70401 65.66344
# Shear Modulus (GPa) = 42.94316 16.33723 29.64019
#
# Velocity S-wave (km/s) = 4.63699 2.86008 3.85239
# Velocity P-wave (km/s) = 7.81189 6.65624 7.25711
#
# Compressibility (1/GPa) = 0.01547440
#
# Stress axis : x y z
#
# Youngs Moduli (GPa) = -116.63165 -116.49874 104.06215
#
# Poissons Ratio (x) = 2.10654 0.34202
# Poissons Ratio (y) = 2.10894 0.34175
# Poissons Ratio (z) = -0.38333 -0.38260
#
# Static dielectric constant tensor:
#      x y z
#    x 3.733410 0.000000 0.000000 
#    y 0.000000 3.733400 0.000000 
#    z 0.000000 0.000000 5.947910 
# 
# 
# High freq. dielectric constant tensor:
#      x y z
#    x 1.782850 0.000000 0.000000 
#    y 0.000000 1.782850 0.000000 
#    z 0.000000 0.000000 1.778570 
# 
# From -- ./inp_files/2699.got.cif
#   From: 2010.03.12/outbox.cif.g09.slc.cpg/sg126_2_cif.got.tgz:2699.got - 2010.04.06 16:55:23.
