data_PCOD8313884
_publ_section_title
;
Structure prediction by ZEFSAII (Michael W. Deem and Ramdas Pophale) SiO2 
 PCOD8313884
Probable space group: P 4/M B M
;
_chemical_formula_sum "Si O2"
_cell_formula_units_Z 96
_cell_length_a 21.435332
_cell_length_b 21.435332
_cell_length_c 11.780533
_cell_angle_alpha 90.000000
_cell_angle_beta 90.000000
_cell_angle_gamma 90.000000
_cell_volume 5412.842234
_symmetry_space_group_name_H-M "P 4/M B M"
_symmetry_group_IT_number 127
_symmetry_cell_setting 'tetragonal'
loop_
_space_group_symop_operation_xyz
x,y,z
-y,x,z
-x,-y,z
y,-x,z
1/2+x,1/2-y,-z
1/2-x,1/2+y,-z
1/2+y,1/2+x,-z
1/2-y,1/2-x,-z
-x,-y,-z
y,-x,-z
x,y,-z
-y,x,-z
1/2-x,1/2+y,z
1/2+x,1/2-y,z
1/2-y,1/2-x,z
1/2+y,1/2+x,z
loop_
_atom_site_type_symbol
_atom_site_label
_atom_site_fract_x
_atom_site_fract_y
_atom_site_fract_z
Si Si1 0.907682 0.306320 0.219027
Si Si2 0.630234 0.964854 0.000000
Si Si3 0.588596 0.185742 0.000000
Si Si4 0.727012 0.123358 0.769212
Si Si5 0.785867 0.817052 0.874233
Si Si6 0.259153 0.493053 0.366072
Si Si7 0.001836 0.900769 0.365158
O O1 0.855042 0.355042 0.265381
O O2 0.879954 0.239649 0.181557
O O3 0.957451 0.290359 0.316440
O O4 0.940985 0.334580 0.110340
O O5 0.629374 0.039256 0.000000
O O6 0.559111 0.940890 0.000000
O O7 0.581669 0.224652 0.115460
O O8 0.658893 0.158893 0.000000
O O9 0.664286 0.164286 0.749270
O O10 0.787693 0.166330 0.783996
O O11 0.736534 0.076846 0.664606
O O12 0.727497 0.772504 0.892223
O O13 0.815904 0.828503 0.000000
O O14 0.257053 0.500431 0.500000
O O15 0.329750 0.503222 0.318497
O O16 0.000942 0.899031 0.500000
O O17 0.062975 0.939160 0.322864
#
# Coordination Sequence:
#
# PCOD8313884 Si02
#       7
#    16   8   8  16  16  16  16
#     4  10  20  34  53  78 108 138 173 217 267 321
#     4  10  18  32  53  77 103 129 165 217 272 319
#     4  10  18  32  53  77 103 129 165 217 272 319
#     4  10  20  34  53  78 108 138 173 217 267 321
#     4   9  16  30  53  81 108 133 163 210 274 332
#     4  11  23  35  52  76 105 145 188 223 254 304
#     4   8  16  33  53  71  95 129 172 219 257 291
#
# _framework density 17.735600000000002
#
# number of rings (size 3 to 8) (size 9 to 14) (size 15 to 20)
#    0.000    2.333    3.333    0.500    2.333    0.833 
#    0.000    0.000    0.000    3.500    0.000    1.167 
#    0.000    4.000    0.000    0.000    0.000    0.000 
#
# Total GULP energy -1189662.679697 kJ/mol
# GULP energy per Si atom -12392.319580 kJ/mol
# Density = 1.769523 g / cm^3
# Si number density = 17.735600 Si / 1000 Ang^3
#
#
#
# Elastic Constant Matrix: (Units=GPa)
#
#
# Indices 1 2 3 4 5 6 
#
# 1 72.0276 16.8352 23.6142 0.0000 0.0000 0.0000
# 2 16.8352 72.0269 23.6140 0.0000 0.0000 0.0000
# 3 23.6142 23.6140 63.4857 0.0000 0.0000 0.0000
# 4 0.0000 0.0000 0.0000 -4.1690 0.0000 0.0000
# 5 0.0000 0.0000 0.0000 0.0000 -4.1455 0.0000
# 6 0.0000 0.0000 0.0000 0.0000 0.0000 26.0023
#
#
#
# Elastic Compliance Matrix: (Units=1/GPa)
#
#
# Indices 1 2 3 4 5 6 
#
# 1 0.016072 -0.002046 -0.005217 0.000000 0.000000 0.000000
# 2 -0.002046 0.016072 -0.005217 0.000000 0.000000 0.000000
# 3 -0.005217 -0.005217 0.019633 0.000000 0.000000 0.000000
# 4 0.000000 0.000000 0.000000 -0.239865 0.000000 0.000000
# 5 0.000000 0.000000 0.000000 0.000000 -0.241228 0.000000
# 6 0.000000 0.000000 0.000000 0.000000 0.000000 0.038458
#
#
# Mechanical properties :
#
#
# Convention : Reuss Voigt Hill
#
# Bulk Modulus (GPa) = 37.29065 37.29634 37.29350
# Shear Modulus (GPa) = -14.00724 13.10268 -0.45228
#
# Velocity S-wave (km/s) = -2.81335 2.72100 -0.50553
# Velocity P-wave (km/s) = 3.24318 5.56296 4.55328
#
# Compressibility (1/GPa) = 0.02681637
#
# Stress axis : x y z
#
# Youngs Moduli (GPa) = 62.21898 62.21845 50.93534
#
# Poissons Ratio (x) = 0.12731 0.26574
# Poissons Ratio (y) = 0.12731 0.26574
# Poissons Ratio (z) = 0.32461 0.32460
#
# Static dielectric constant tensor:
#      x y z
#    x 3.347000 0.000000 0.000000 
#    y 0.000000 3.347010 0.000000 
#    z 0.000000 0.000000 3.022360 
# 
# 
# High freq. dielectric constant tensor:
#      x y z
#    x 1.682530 0.000000 0.000000 
#    y 0.000000 1.682530 0.000000 
#    z 0.000000 0.000000 1.657760 
# 
# From -- ./inp_files/3588.got.cif
#   From: 2010.03.12/outbox.cif.g09.slc.cpg/sg127_2_cif.got.tgz:3588.got - 2010.04.06 17:03:15.
