data_PCOD8313505
_publ_section_title
;
Structure prediction by ZEFSAII (Michael W. Deem and Ramdas Pophale) SiO2 
 PCOD8313505
Probable space group: P 4/N B M
;
_chemical_formula_sum "Si O2"
_cell_formula_units_Z 96
_cell_length_a 19.505068
_cell_length_b 19.505068
_cell_length_c 13.451163
_cell_angle_alpha 90.000000
_cell_angle_beta 90.000000
_cell_angle_gamma 90.000000
_cell_volume 5117.463726
_symmetry_space_group_name_H-M "P 4/N B M"
_symmetry_group_IT_number 125
_space_group.IT_coordinate_system_code '2'
_symmetry_cell_setting 'tetragonal'
loop_
_space_group_symop_operation_xyz
x,y,z
1/2-y,x,z
1/2-x,1/2-y,z
y,1/2-x,z
x,1/2-y,-z
1/2-x,y,-z
y,x,-z
1/2-y,1/2-x,-z
-x,-y,-z
1/2+y,-x,-z
1/2+x,1/2+y,-z
-y,1/2+x,-z
-x,1/2+y,z
1/2+x,-y,z
-y,-x,z
1/2+y,1/2+x,z
loop_
_atom_site_type_symbol
_atom_site_label
_atom_site_fract_x
_atom_site_fract_y
_atom_site_fract_z
Si Si1 0.361920 0.247683 0.202515
Si Si2 0.418377 0.029689 0.601897
Si Si3 0.250000 0.444526 0.000000
Si Si4 0.145958 0.750000 0.000000
Si Si5 0.040475 0.239379 0.611458
Si Si6 0.518319 0.129867 0.693598
Si Si7 0.653572 0.454213 0.083746
O O1 0.319369 0.316579 0.202889
O O2 0.403804 0.251226 0.304059
O O3 0.403214 0.243073 0.100697
O O4 0.429035 0.070966 0.500000
O O5 0.338551 0.013043 0.622870
O O6 0.451881 0.080831 0.682311
O O7 0.456466 0.956466 0.599278
O O8 0.320941 0.488682 0.994594
O O9 0.102142 0.785726 0.913261
O O10 0.192971 0.807030 0.054670
O O11 0.070660 0.250000 0.500000
O O12 0.983478 0.299739 0.628454
O O13 0.587756 0.087756 0.665723
O O14 0.514003 0.149967 0.808029
O O15 0.581101 0.418900 0.051517
#
# Coordination Sequence:
#
# PCOD8313505 Si02
#       7
#    16  16   8   8  16  16  16
#     4  11  25  41  58  84 119 159 202 248 305 370
#     4  10  21  38  61  88 122 161 202 247 305 369
#     4  11  20  38  62  82 116 165 202 242 300 373
#     4   8  14  27  50  79 112 148 190 244 298 350
#     4  12  23  37  63  94 119 155 204 257 301 356
#     4  10  20  38  60  86 121 163 202 246 306 369
#     4   9  18  33  56  85 114 153 202 248 297 354
#
# _framework density 18.759291999999999
#
# number of rings (size 3 to 8) (size 9 to 14) (size 15 to 20)
#    0.000    1.750    3.333    1.500    0.000    0.667 
#    0.000    2.500    0.000    4.500    0.000    1.167 
#    0.000    0.000    0.000    0.000    0.000    0.000 
#
# Total GULP energy -1189284.121389 kJ/mol
# GULP energy per Si atom -12388.376264 kJ/mol
# Density = 1.871659 g / cm^3
# Si number density = 18.759292 Si / 1000 Ang^3
#
#
#
# Elastic Constant Matrix: (Units=GPa)
#
#
# Indices 1 2 3 4 5 6 
#
# 1 118.9885 53.3207 55.9722 0.0000 0.0000 0.0000
# 2 53.3207 118.9886 55.9723 0.0000 0.0000 0.0000
# 3 55.9722 55.9723 137.6111 0.0000 0.0000 0.0000
# 4 0.0000 0.0000 0.0000 -166.3038 0.0000 0.0000
# 5 0.0000 0.0000 0.0000 0.0000 -170.5211 0.0000
# 6 0.0000 0.0000 0.0000 0.0000 0.0000 28.3371
#
#
#
# Elastic Compliance Matrix: (Units=1/GPa)
#
#
# Indices 1 2 3 4 5 6 
#
# 1 0.011558 -0.003670 -0.003208 0.000000 0.000000 0.000000
# 2 -0.003670 0.011558 -0.003208 0.000000 0.000000 0.000000
# 3 -0.003208 -0.003208 0.009877 0.000000 0.000000 0.000000
# 4 0.000000 0.000000 0.000000 -0.006013 0.000000 0.000000
# 5 0.000000 0.000000 0.000000 0.000000 -0.005864 0.000000
# 6 0.000000 0.000000 0.000000 0.000000 0.000000 0.035289
#
#
# Mechanical properties :
#
#
# Convention : Reuss Voigt Hill
#
# Bulk Modulus (GPa) = 78.00791 78.45763 78.23277
# Shear Modulus (GPa) = 61.84178 -47.67604 7.08287
#
# Velocity S-wave (km/s) = 5.74783 -5.04676 1.94521
# Velocity P-wave (km/s) = 9.25872 2.82036 6.84391
#
# Compressibility (1/GPa) = 0.01281921
#
# Stress axis : x y z
#
# Youngs Moduli (GPa) = 86.51996 86.51999 101.24748
#
# Poissons Ratio (x) = 0.31754 0.32484
# Poissons Ratio (y) = 0.31754 0.32484
# Poissons Ratio (z) = 0.27758 0.27759
#
# Static dielectric constant tensor:
#      x y z
#    x 3.711380 0.000000 0.000000 
#    y 0.000000 3.711380 0.000000 
#    z 0.000000 0.000000 3.406390 
# 
# 
# High freq. dielectric constant tensor:
#      x y z
#    x 1.731690 0.000000 0.000000 
#    y 0.000000 1.731690 0.000000 
#    z 0.000000 0.000000 1.721780 
# 
# From -- ./inp_files/4215.got.cif
#   From: 2010.03.12/outbox.cif.g09.slc.cpg/sg125_3_cif.got.tgz:4215.got - 2010.04.06 16:47:52.
