data_PCOD8313166
_publ_section_title
;
Structure prediction by ZEFSAII (Michael W. Deem and Ramdas Pophale) SiO2 
 PCOD8313166
Probable space group: P 4/M C C
;
_chemical_formula_sum "Si O2"
_cell_formula_units_Z 96
_cell_length_a 13.507106
_cell_length_b 13.507106
_cell_length_c 31.638463
_cell_angle_alpha 90.000000
_cell_angle_beta 90.000000
_cell_angle_gamma 90.000000
_cell_volume 5772.181698
_symmetry_space_group_name_H-M "P 4/M C C"
_symmetry_group_IT_number 124
_symmetry_cell_setting 'tetragonal'
loop_
_space_group_symop_operation_xyz
x,y,z
-y,x,z
-x,-y,z
y,-x,z
x,-y,1/2-z
-x,y,1/2-z
y,x,1/2-z
-y,-x,1/2-z
-x,-y,-z
y,-x,-z
x,y,-z
-y,x,-z
-x,y,1/2+z
x,-y,1/2+z
-y,-x,1/2+z
y,x,1/2+z
loop_
_atom_site_type_symbol
_atom_site_label
_atom_site_fract_x
_atom_site_fract_y
_atom_site_fract_z
Si Si1 0.385645 0.614357 0.548043
Si Si2 0.285358 0.714644 0.375575
Si Si3 0.884502 0.280041 0.750000
Si Si4 0.114394 0.385443 0.162905
Si Si5 0.615011 0.384995 0.795666
Si Si6 0.114393 0.385442 0.337095
O O1 0.362846 0.500001 0.556944
O O2 0.358048 0.641953 0.500000
O O3 0.320046 0.679956 0.578724
O O4 0.170006 0.685569 0.370986
O O5 0.337057 0.662953 0.336066
O O6 0.314428 0.829998 0.370987
O O7 0.820270 0.179731 0.750000
O O8 0.859695 0.348166 0.709793
O O9 0.859695 0.348165 0.790208
O O10 0.000000 0.248283 0.750000
O O11 0.147977 0.500001 0.158901
O O12 0.000001 0.373923 0.152182
O O13 0.637390 0.500003 0.797990
O O14 0.656047 0.343954 0.750000
#
# Coordination Sequence:
#
# PCOD8313166 Si02
#       6
#    16  16  16  16  16  16
#     4   9  18  32  50  76 107 132 158 195 242 302
#     4  12  20  31  52  71  91 129 172 204 240 297
#     4  10  19  34  49  68  96 134 177 214 254 298
#     4  10  21  34  48  69  98 131 168 211 255 301
#     4   9  18  28  38  62  97 123 148 187 232 279
#     4  10  21  34  48  69  98 131 168 211 255 301
#
# _framework density 16.631492999999999
#
# number of rings (size 3 to 8) (size 9 to 14) (size 15 to 20)
#    0.000    2.000    1.667    4.500    2.333    3.500 
#    0.000    0.000    0.000    1.500    0.000    4.667 
#    0.000    0.000    0.000    1.500    0.000    0.333 
#
# Total GULP energy -1190102.460761 kJ/mol
# GULP energy per Si atom -12396.900633 kJ/mol
# Density = 1.659364 g / cm^3
# Si number density = 16.631493 Si / 1000 Ang^3
#
#
#
# Elastic Constant Matrix: (Units=GPa)
#
#
# Indices 1 2 3 4 5 6 
#
# 1 77.6199 42.8795 34.2606 0.0000 0.0000 0.0000
# 2 42.8795 77.6221 34.2602 0.0000 0.0000 0.0000
# 3 34.2606 34.2602 84.7202 0.0000 0.0000 0.0000
# 4 0.0000 0.0000 0.0000 18.0600 0.0000 0.0000
# 5 0.0000 0.0000 0.0000 0.0000 18.0607 0.0000
# 6 0.0000 0.0000 0.0000 0.0000 0.0000 25.1550
#
#
#
# Elastic Compliance Matrix: (Units=1/GPa)
#
#
# Indices 1 2 3 4 5 6 
#
# 1 0.019781 -0.009004 -0.004358 0.000000 0.000000 0.000000
# 2 -0.009004 0.019780 -0.004358 0.000000 0.000000 0.000000
# 3 -0.004358 -0.004358 0.015328 0.000000 0.000000 0.000000
# 4 0.000000 0.000000 0.000000 0.055371 0.000000 0.000000
# 5 0.000000 0.000000 0.000000 0.000000 0.055369 0.000000
# 6 0.000000 0.000000 0.000000 0.000000 0.000000 0.039754
#
#
# Mechanical properties :
#
#
# Convention : Reuss Voigt Hill
#
# Bulk Modulus (GPa) = 51.41475 51.41810 51.41643
# Shear Modulus (GPa) = 20.21792 20.82594 20.52193
#
# Velocity S-wave (km/s) = 3.49039 3.54248 3.51653
# Velocity P-wave (km/s) = 6.87204 6.90764 6.88986
#
# Compressibility (1/GPa) = 0.01944967
#
# Stress axis : x y z
#
# Youngs Moduli (GPa) = 50.55396 50.55589 65.23854
#
# Poissons Ratio (x) = 0.45518 0.28433
# Poissons Ratio (y) = 0.45517 0.28430
# Poissons Ratio (z) = 0.22033 0.22032
#
# Static dielectric constant tensor:
#      x y z
#    x 3.368890 0.000000 0.000000 
#    y 0.000000 3.368890 0.000000 
#    z 0.000000 0.000000 2.905040 
# 
# 
# High freq. dielectric constant tensor:
#      x y z
#    x 1.639140 0.000000 0.000000 
#    y 0.000000 1.639140 0.000000 
#    z 0.000000 0.000000 1.610430 
# 
# From -- ./inp_files/7205.got.cif
#   From: 2010.03.12/outbox.cif.g09.slc.cpg/sg124_4_cif.got.tgz:7205.got - 2010.04.06 16:38:57.
