data_PCOD8313314
_publ_section_title
;
Structure prediction by ZEFSAII (Michael W. Deem and Ramdas Pophale) SiO2 
 PCOD8313314
Probable space group: P 4/M C C
;
_chemical_formula_sum "Si O2"
_cell_formula_units_Z 96
_cell_length_a 14.944635
_cell_length_b 14.944635
_cell_length_c 21.697272
_cell_angle_alpha 90.000000
_cell_angle_beta 90.000000
_cell_angle_gamma 90.000000
_cell_volume 4845.914624
_symmetry_space_group_name_H-M "P 4/M C C"
_symmetry_group_IT_number 124
_symmetry_cell_setting 'tetragonal'
loop_
_space_group_symop_operation_xyz
x,y,z
-y,x,z
-x,-y,z
y,-x,z
x,-y,1/2-z
-x,y,1/2-z
y,x,1/2-z
-y,-x,1/2-z
-x,-y,-z
y,-x,-z
x,y,-z
-y,x,-z
-x,y,1/2+z
x,-y,1/2+z
-y,-x,1/2+z
y,x,1/2+z
loop_
_atom_site_type_symbol
_atom_site_label
_atom_site_fract_x
_atom_site_fract_y
_atom_site_fract_z
Si Si1 0.396077 0.396077 0.750000
Si Si2 0.802789 0.819692 0.321572
Si Si3 0.853782 0.989887 0.500000
Si Si4 0.523693 0.747357 0.070739
Si Si5 0.687484 0.339875 0.627407
Si Si6 0.060090 0.413706 0.430252
Si Si7 0.007663 0.238684 0.628317
O O1 0.500000 0.375277 0.750000
O O2 0.344067 0.357160 0.693054
O O3 0.791638 0.791638 0.250000
O O4 0.737242 0.763365 0.367317
O O5 0.904909 0.808157 0.343465
O O6 0.777789 0.924426 0.326322
O O7 0.795871 0.982641 0.560981
O O8 0.905215 0.082434 0.500000
O O9 0.607417 0.680550 0.079491
O O10 0.435836 0.727021 0.110124
O O11 0.558646 0.842670 0.093059
O O12 0.493858 0.747051 0.000000
O O13 0.064177 0.373485 0.500000
O O14 0.023609 0.344178 0.380123
O O15 0.000000 0.500000 0.429322
#
# Coordination Sequence:
#
# PCOD8313314 Si02
#       7
#     8  16   8  16  16  16  16
#     4  11  22  40  68  90 120 171 228 272 320 387
#     4  12  27  44  67  95 134 179 226 276 327 394
#     4  11  22  40  65  98 128 162 210 275 335 398
#     4  11  24  41  64 100 136 171 216 275 347 401
#     4  12  23  43  67  94 132 176 223 273 331 401
#     4  10  21  39  63  94 132 169 210 262 327 399
#     4  12  23  43  68  96 133 170 221 273 336 394
#
# _framework density 19.810500999999999
#
# number of rings (size 3 to 8) (size 9 to 14) (size 15 to 20)
#    0.000    0.667    6.667    2.000    0.000    0.667 
#    4.500    1.667    0.000    1.000    0.000    0.000 
#    0.000    0.000    0.000    0.000    0.000    0.000 
#
# Total GULP energy -1190565.707404 kJ/mol
# GULP energy per Si atom -12401.726119 kJ/mol
# Density = 1.976541 g / cm^3
# Si number density = 19.810501 Si / 1000 Ang^3
#
#
#
# Elastic Constant Matrix: (Units=GPa)
#
#
# Indices 1 2 3 4 5 6 
#
# 1 121.3777 48.4544 26.3147 0.0000 0.0000 0.0000
# 2 48.4544 121.3777 26.3147 0.0000 0.0000 0.0000
# 3 26.3147 26.3147 70.6421 0.0000 0.0000 0.0000
# 4 0.0000 0.0000 0.0000 -27.4214 0.0000 0.0000
# 5 0.0000 0.0000 0.0000 0.0000 -27.4214 0.0000
# 6 0.0000 0.0000 0.0000 0.0000 0.0000 7.4494
#
#
#
# Elastic Compliance Matrix: (Units=1/GPa)
#
#
# Indices 1 2 3 4 5 6 
#
# 1 0.010185 -0.003528 -0.002480 0.000000 0.000000 0.000000
# 2 -0.003528 0.010185 -0.002480 0.000000 0.000000 0.000000
# 3 -0.002480 -0.002480 0.016003 0.000000 0.000000 0.000000
# 4 0.000000 0.000000 0.000000 -0.036468 0.000000 0.000000
# 5 0.000000 0.000000 0.000000 0.000000 -0.036468 0.000000
# 6 0.000000 0.000000 0.000000 0.000000 0.000000 0.134239
#
#
# Mechanical properties :
#
#
# Convention : Reuss Voigt Hill
#
# Bulk Modulus (GPa) = 51.55205 57.28503 54.41854
# Shear Modulus (GPa) = 41.28251 4.67556 22.97904
#
# Velocity S-wave (km/s) = 4.56990 1.53794 3.40949
# Velocity P-wave (km/s) = 7.34332 5.66859 6.55962
#
# Compressibility (1/GPa) = 0.01939787
#
# Stress axis : x y z
#
# Youngs Moduli (GPa) = 98.18535 98.18535 62.48743
#
# Poissons Ratio (x) = 0.34642 0.15495
# Poissons Ratio (y) = 0.34642 0.15495
# Poissons Ratio (z) = 0.24346 0.24346
#
# Static dielectric constant tensor:
#      x y z
#    x 3.786090 0.000000 0.000000 
#    y 0.000000 3.786090 0.000000 
#    z 0.000000 0.000000 3.532830 
# 
# 
# High freq. dielectric constant tensor:
#      x y z
#    x 1.783530 0.000000 0.000000 
#    y 0.000000 1.783530 0.000000 
#    z 0.000000 0.000000 1.768070 
# 
# From -- ./inp_files/5369.got.cif
#   From: 2010.03.12/outbox.cif.g09.slc.cpg/sg124_3_cif.got.tgz:5369.got - 2010.04.06 16:38:57.
