data_PCOD8313612
_publ_section_title
;
Structure prediction by ZEFSAII (Michael W. Deem and Ramdas Pophale) SiO2 
 PCOD8313612
Probable space group: P 4/N B M
;
_chemical_formula_sum "Si O2"
_cell_formula_units_Z 40
_cell_length_a 10.823882
_cell_length_b 10.823882
_cell_length_c 16.036297
_cell_angle_alpha 90.000000
_cell_angle_beta 90.000000
_cell_angle_gamma 90.000000
_cell_volume 1878.755171
_symmetry_space_group_name_H-M "P 4/N B M"
_symmetry_group_IT_number 125
_space_group.IT_coordinate_system_code '2'
_symmetry_cell_setting 'tetragonal'
loop_
_space_group_symop_operation_xyz
x,y,z
1/2-y,x,z
1/2-x,1/2-y,z
y,1/2-x,z
x,1/2-y,-z
1/2-x,y,-z
y,x,-z
1/2-y,1/2-x,-z
-x,-y,-z
1/2+y,-x,-z
1/2+x,1/2+y,-z
-y,1/2+x,-z
-x,1/2+y,z
1/2+x,-y,z
-y,-x,z
1/2+y,1/2+x,z
loop_
_atom_site_type_symbol
_atom_site_label
_atom_site_fract_x
_atom_site_fract_y
_atom_site_fract_z
Si Si1 0.394965 0.605036 0.974207
Si Si2 0.766749 0.945735 0.322216
Si Si3 0.154204 0.845797 0.794850
Si Si4 0.750000 0.449083 0.500000
O O1 0.408986 0.591015 0.874178
O O2 0.427308 0.750000 0.000000
O O3 0.500000 0.500000 0.000000
O O4 0.638914 0.882220 0.298807
O O5 0.770596 0.064552 0.265242
O O6 0.781109 0.968575 0.420551
O O7 0.250000 0.750000 0.834973
O O8 0.866872 0.366872 0.474865
#
# Coordination Sequence:
#
# PCOD8313612 Si02
#       4
#     8  16   8   8
#     4  11  27  52  79 112 147 192 240 304 374 448
#     4  11  26  42  65  99 135 180 230 284 337 406
#     4  12  26  45  76  99 142 175 231 277 353 417
#     4  11  22  39  62  94 132 181 233 280 342 398
#
# _framework density 21.290692
#
# number of rings (size 3 to 8) (size 9 to 14) (size 15 to 20)
#    0.000    0.800    4.000    2.400   11.200    3.600 
#    0.000    0.000    0.000    0.000    0.000    0.000 
#    0.000    0.000    0.000    0.000    0.000    0.000 
#
# Total GULP energy -495722.000088 kJ/mol
# GULP energy per Si atom -12393.050002 kJ/mol
# Density = 2.124223 g / cm^3
# Si number density = 21.290692 Si / 1000 Ang^3
#
#
#
# Elastic Constant Matrix: (Units=GPa)
#
#
# Indices 1 2 3 4 5 6 
#
# 1 124.1977 40.1438 24.7406 0.0000 0.0000 0.0000
# 2 40.1438 124.1977 24.7406 0.0000 0.0000 0.0000
# 3 24.7406 24.7406 131.0877 0.0000 0.0000 0.0000
# 4 0.0000 0.0000 0.0000 -593.4257 0.0000 0.0000
# 5 0.0000 0.0000 0.0000 0.0000 -593.4257 0.0000
# 6 0.0000 0.0000 0.0000 0.0000 0.0000 21.2189
#
#
#
# Elastic Compliance Matrix: (Units=1/GPa)
#
#
# Indices 1 2 3 4 5 6 
#
# 1 0.009174 -0.002723 -0.001218 0.000000 0.000000 0.000000
# 2 -0.002723 0.009174 -0.001218 0.000000 0.000000 0.000000
# 3 -0.001218 -0.001218 0.008088 0.000000 0.000000 0.000000
# 4 0.000000 0.000000 0.000000 -0.001685 0.000000 0.000000
# 5 0.000000 0.000000 0.000000 0.000000 -0.001685 0.000000
# 6 0.000000 0.000000 0.000000 0.000000 0.000000 0.047128
#
#
# Mechanical properties :
#
#
# Convention : Reuss Voigt Hill
#
# Bulk Modulus (GPa) = 62.03229 62.08145 62.05687
# Shear Modulus (GPa) = 58.21813 -213.80265 -77.79226
#
# Velocity S-wave (km/s) = 5.23486 -10.03189 -6.05124
# Velocity P-wave (km/s) = 8.10787 10.24513 4.42861
#
# Compressibility (1/GPa) = 0.01612064
#
# Stress axis : x y z
#
# Youngs Moduli (GPa) = 108.99999 108.99999 123.63857
#
# Poissons Ratio (x) = 0.29679 0.15054
# Poissons Ratio (y) = 0.29679 0.15054
# Poissons Ratio (z) = 0.13272 0.13272
#
# Static dielectric constant tensor:
#      x y z
#    x 4.109710 0.000000 0.000000 
#    y 0.000000 4.109710 0.000000 
#    z 0.000000 0.000000 3.756250 
# 
# 
# High freq. dielectric constant tensor:
#      x y z
#    x 1.843980 0.000000 0.000000 
#    y 0.000000 1.843980 0.000000 
#    z 0.000000 0.000000 1.837770 
# 
# From -- ./inp_files/4481.got.cif
#   From: 2010.03.12/outbox.cif.g09.slc.cpg/sg125_3_cif.got.tgz:4481.got - 2010.04.06 16:47:52.
