data_PCOD8313760
_publ_section_title
;
Structure prediction by ZEFSAII (Michael W. Deem and Ramdas Pophale) SiO2 
 PCOD8313760
Probable space group: P 4/N N C
;
_chemical_formula_sum "Si O2"
_cell_formula_units_Z 80
_cell_length_a 11.793844
_cell_length_b 11.793844
_cell_length_c 31.829179
_cell_angle_alpha 90.000000
_cell_angle_beta 90.000000
_cell_angle_gamma 90.000000
_cell_volume 4427.271896
_symmetry_space_group_name_H-M "P 4/N N C"
_symmetry_group_IT_number 126
_space_group.IT_coordinate_system_code '2'
_symmetry_cell_setting 'tetragonal'
loop_
_space_group_symop_operation_xyz
x,y,z
1/2-y,x,z
1/2-x,1/2-y,z
y,1/2-x,z
x,1/2-y,1/2-z
1/2-x,y,1/2-z
y,x,1/2-z
1/2-y,1/2-x,1/2-z
-x,-y,-z
1/2+y,-x,-z
1/2+x,1/2+y,-z
-y,1/2+x,-z
-x,1/2+y,1/2+z
1/2+x,-y,1/2+z
-y,-x,1/2+z
1/2+y,1/2+x,1/2+z
loop_
_atom_site_type_symbol
_atom_site_label
_atom_site_fract_x
_atom_site_fract_y
_atom_site_fract_z
Si Si1 0.565485 0.714870 0.994590
Si Si2 0.364016 0.971206 0.625316
Si Si3 0.893265 0.870821 0.296160
Si Si4 0.740391 0.381175 0.573459
Si Si5 0.859739 0.487657 0.083246
O O1 0.660821 0.618836 0.988153
O O2 0.463413 0.691007 0.962273
O O3 0.509170 0.707339 0.040219
O O4 0.389838 0.839389 0.615108
O O5 0.229450 0.993445 0.621880
O O6 0.417046 0.015103 0.669758
O O7 0.418342 0.045306 0.588278
O O8 0.763665 0.905702 0.302218
O O9 0.921729 0.921729 0.250000
O O10 0.750000 0.250000 0.557888
O O11 0.866103 0.422162 0.584992
#
# Coordination Sequence:
#
# PCOD8313760 Si02
#       5
#    16  16  16  16  16
#     4  11  23  38  55  74 101 141 199 249 280 307
#     4  11  20  35  55  77 109 139 176 223 274 333
#     4   9  17  30  54  87 111 128 165 218 276 331
#     4  10  25  36  49  74 107 149 183 219 270 335
#     4  11  22  34  53  78 104 143 186 227 278 327
#
# _framework density 18.06982
#
# number of rings (size 3 to 8) (size 9 to 14) (size 15 to 20)
#    0.000    1.600    4.000    1.800    5.600    2.000 
#    0.000    0.000    0.000    1.200    0.000    0.000 
#    0.000    0.000    0.000    2.000    1.600    0.000 
#
# Total GULP energy -991232.371311 kJ/mol
# GULP energy per Si atom -12390.404641 kJ/mol
# Density = 1.802869 g / cm^3
# Si number density = 18.069820 Si / 1000 Ang^3
#
#
#
# Elastic Constant Matrix: (Units=GPa)
#
#
# Indices 1 2 3 4 5 6 
#
# 1 83.2964 24.4190 41.0711 0.0000 0.0000 0.0000
# 2 24.4190 83.2964 41.0711 0.0000 0.0000 0.0000
# 3 41.0711 41.0711 116.9354 0.0000 0.0000 0.0000
# 4 0.0000 0.0000 0.0000 25.5546 0.0000 0.0000
# 5 0.0000 0.0000 0.0000 0.0000 25.5546 0.0000
# 6 0.0000 0.0000 0.0000 0.0000 0.0000 17.5056
#
#
#
# Elastic Compliance Matrix: (Units=1/GPa)
#
#
# Indices 1 2 3 4 5 6 
#
# 1 0.014832 -0.002152 -0.004454 0.000000 0.000000 0.000000
# 2 -0.002152 0.014832 -0.004454 0.000000 0.000000 0.000000
# 3 -0.004454 -0.004454 0.011680 0.000000 0.000000 0.000000
# 4 0.000000 0.000000 0.000000 0.039132 0.000000 0.000000
# 5 0.000000 0.000000 0.000000 0.000000 0.039132 0.000000
# 6 0.000000 0.000000 0.000000 0.000000 0.000000 0.057125
#
#
# Mechanical properties :
#
#
# Convention : Reuss Voigt Hill
#
# Bulk Modulus (GPa) = 52.01343 55.18342 53.59843
# Shear Modulus (GPa) = 24.35931 25.52075 24.94003
#
# Velocity S-wave (km/s) = 3.67558 3.76219 3.71914
# Velocity P-wave (km/s) = 6.84547 7.03402 6.94038
#
# Compressibility (1/GPa) = 0.01922580
#
# Stress axis : x y z
#
# Youngs Moduli (GPa) = 67.42091 67.42091 85.61510
#
# Poissons Ratio (x) = 0.14511 0.38129
# Poissons Ratio (y) = 0.14511 0.38129
# Poissons Ratio (z) = 0.30026 0.30026
#
# Static dielectric constant tensor:
#      x y z
#    x 3.319380 0.000000 0.000000 
#    y 0.000000 3.319380 0.000000 
#    z 0.000000 0.000000 3.206870 
# 
# 
# High freq. dielectric constant tensor:
#      x y z
#    x 1.691750 0.000000 0.000000 
#    y 0.000000 1.691750 0.000000 
#    z 0.000000 0.000000 1.676760 
# 
# From -- ./inp_files/6426.got.cif
#   From: 2010.03.12/outbox.cif.g09.slc.cpg/sg126_4_cif.got.tgz:6426.got - 2010.04.06 16:55:23.
