data_PCOD8313117
_publ_section_title
;
Structure prediction by ZEFSAII (Michael W. Deem and Ramdas Pophale) SiO2 
 PCOD8313117
Probable space group: P 4/M C C
;
_chemical_formula_sum "Si O2"
_cell_formula_units_Z 96
_cell_length_a 14.960781
_cell_length_b 14.960781
_cell_length_c 26.802448
_cell_angle_alpha 90.000000
_cell_angle_beta 90.000000
_cell_angle_gamma 90.000000
_cell_volume 5999.057069
_symmetry_space_group_name_H-M "P 4/M C C"
_symmetry_group_IT_number 124
_symmetry_cell_setting 'tetragonal'
loop_
_space_group_symop_operation_xyz
x,y,z
-y,x,z
-x,-y,z
y,-x,z
x,-y,1/2-z
-x,y,1/2-z
y,x,1/2-z
-y,-x,1/2-z
-x,-y,-z
y,-x,-z
x,y,-z
-y,x,-z
-x,y,1/2+z
x,-y,1/2+z
-y,-x,1/2+z
y,x,1/2+z
loop_
_atom_site_type_symbol
_atom_site_label
_atom_site_fract_x
_atom_site_fract_y
_atom_site_fract_z
Si Si1 0.069568 0.245795 0.557555
Si Si2 0.192493 0.385939 0.941430
Si Si3 0.617362 0.573141 0.059208
Si Si4 0.211364 0.117606 0.598403
Si Si5 0.446580 0.915910 0.558504
Si Si6 0.110842 0.097151 0.694813
O O1 0.042612 0.254184 0.500000
O O2 0.155616 0.181925 0.561749
O O3 0.091895 0.345307 0.580073
O O4 0.987006 0.198124 0.585921
O O5 0.295069 0.372670 0.924480
O O6 0.135946 0.316834 0.908456
O O7 0.168561 0.489633 0.929508
O O8 0.175777 0.365675 0.000000
O O9 0.528921 0.621466 0.079836
O O10 0.615852 0.567075 0.000000
O O11 0.176868 0.141263 0.654214
O O12 0.435490 0.929160 0.500000
O O13 0.500000 0.000000 0.581577
O O14 0.134497 0.134497 0.750000
O O15 0.008271 0.123426 0.687369
#
# Coordination Sequence:
#
# PCOD8313117 Si02
#       6
#    16  16  16  16  16  16
#     4  11  22  32  44  67 103 139 165 192 232 284
#     4  10  19  29  44  66  96 131 169 200 229 282
#     4   8  15  27  41  59  87 123 161 202 242 269
#     4  12  21  32  47  71  97 126 165 203 241 287
#     4   9  17  31  44  56  86 133 170 194 219 265
#     4   9  18  35  54  69  88 118 158 207 251 291
#
# _framework density 16.002514999999999
#
# number of rings (size 3 to 8) (size 9 to 14) (size 15 to 20)
#    0.000    2.167    3.333    2.500    2.333    0.333 
#    0.000    0.833    0.000    0.000    0.000    1.167 
#    0.000    0.000    0.000    1.833    0.000    0.167 
#
# Total GULP energy -1189423.892053 kJ/mol
# GULP energy per Si atom -12389.832209 kJ/mol
# Density = 1.596609 g / cm^3
# Si number density = 16.002515 Si / 1000 Ang^3
#
#
#
# Elastic Constant Matrix: (Units=GPa)
#
#
# Indices 1 2 3 4 5 6 
#
# 1 76.6529 23.4732 19.9203 0.0000 0.0000 0.0000
# 2 23.4732 76.6529 19.9203 0.0000 0.0000 0.0000
# 3 19.9203 19.9203 61.4096 0.0000 0.0000 0.0000
# 4 0.0000 0.0000 0.0000 10.4417 0.0000 0.0000
# 5 0.0000 0.0000 0.0000 0.0000 10.4417 0.0000
# 6 0.0000 0.0000 0.0000 0.0000 0.0000 20.6564
#
#
#
# Elastic Compliance Matrix: (Units=1/GPa)
#
#
# Indices 1 2 3 4 5 6 
#
# 1 0.015136 -0.003668 -0.003720 0.000000 0.000000 0.000000
# 2 -0.003668 0.015136 -0.003720 0.000000 0.000000 0.000000
# 3 -0.003720 -0.003720 0.018697 0.000000 0.000000 0.000000
# 4 0.000000 0.000000 0.000000 0.095770 0.000000 0.000000
# 5 0.000000 0.000000 0.000000 0.000000 0.095770 0.000000
# 6 0.000000 0.000000 0.000000 0.000000 0.000000 0.048411
#
#
# Mechanical properties :
#
#
# Convention : Reuss Voigt Hill
#
# Bulk Modulus (GPa) = 37.37896 37.92698 37.65297
# Shear Modulus (GPa) = 15.62234 18.40139 17.01186
#
# Velocity S-wave (km/s) = 3.12788 3.39470 3.26402
# Velocity P-wave (km/s) = 6.03769 6.25439 6.14700
#
# Compressibility (1/GPa) = 0.02675301
#
# Stress axis : x y z
#
# Youngs Moduli (GPa) = 66.06825 66.06825 53.48322
#
# Poissons Ratio (x) = 0.24236 0.19895
# Poissons Ratio (y) = 0.24236 0.19895
# Poissons Ratio (z) = 0.24577 0.24577
#
# Static dielectric constant tensor:
#      x y z
#    x 3.162570 0.000000 0.000000 
#    y 0.000000 3.162570 0.000000 
#    z 0.000000 0.000000 2.573170 
# 
# 
# High freq. dielectric constant tensor:
#      x y z
#    x 1.620730 0.000000 0.000000 
#    y 0.000000 1.620730 0.000000 
#    z 0.000000 0.000000 1.540990 
# 
# From -- ./inp_files/7190.got.cif
#   From: 2010.03.12/outbox.cif.g09.slc.cpg/sg124_4_cif.got.tgz:7190.got - 2010.04.06 16:38:57.
