data_PCOD8313039
_publ_section_title
;
Structure prediction by ZEFSAII (Michael W. Deem and Ramdas Pophale) SiO2 
 PCOD8313039
Probable space group: P 4/M M M
;
_chemical_formula_sum "Si O2"
_cell_formula_units_Z 112
_cell_length_a 17.320285
_cell_length_b 17.320285
_cell_length_c 22.965397
_cell_angle_alpha 90.000000
_cell_angle_beta 90.000000
_cell_angle_gamma 90.000000
_cell_volume 6889.441634
_symmetry_space_group_name_H-M "P 4/M M M"
_symmetry_group_IT_number 123
_symmetry_cell_setting 'tetragonal'
loop_
_space_group_symop_operation_xyz
x,y,z
-y,x,z
-x,-y,z
y,-x,z
x,-y,-z
-x,y,-z
y,x,-z
-y,-x,-z
-x,-y,-z
y,-x,-z
x,y,-z
-y,x,-z
-x,y,z
x,-y,z
-y,-x,z
y,x,z
loop_
_atom_site_type_symbol
_atom_site_label
_atom_site_fract_x
_atom_site_fract_y
_atom_site_fract_z
Si Si1 0.589166 0.715299 0.208506
Si Si2 0.701685 0.830190 0.165426
Si Si3 0.215263 0.089262 0.066865
Si Si4 0.087246 0.211216 0.742418
Si Si5 0.199927 0.329219 0.435442
Si Si6 0.088225 0.787140 0.392075
Si Si7 0.712462 0.412563 0.657522
O O1 0.500000 0.698869 0.193239
O O2 0.637506 0.637506 0.194172
O O3 0.617839 0.789249 0.170382
O O4 0.600974 0.738755 0.276032
O O5 0.761576 0.761576 0.172725
O O6 0.714151 0.875441 0.104600
O O7 0.714855 0.889328 0.218770
O O8 0.136145 0.136145 0.079537
O O9 0.200361 0.000000 0.083420
O O10 0.240570 0.097767 0.000000
O O11 0.137159 0.137159 0.760884
O O12 0.099475 0.233100 0.675558
O O13 0.000000 0.187964 0.755931
O O14 0.202458 0.366737 0.500000
O O15 0.262776 0.262776 0.428278
O O16 0.117018 0.288666 0.426313
O O17 0.216645 0.393137 0.386068
O O18 0.136492 0.863508 0.409209
O O19 0.000000 0.803814 0.408792
O O20 0.686820 0.500000 0.647423
O O21 0.638221 0.361780 0.641591
#
# Coordination Sequence:
#
# PCOD8313039 Si02
#       7
#    16  16  16  16  16  16  16
#     4   9  17  29  47  70  93 115 138 169 211 259
#     4   9  16  27  43  62  86 117 152 183 212 251
#     4   9  17  28  43  65  93 125 159 193 226 257
#     4   9  16  25  39  59  83 112 143 177 217 257
#     4   9  17  29  44  60  80 110 146 177 204 243
#     4   9  17  28  42  61  83 106 136 176 221 266
#     4   9  17  29  46  69  94 116 138 166 203 249
#
# _framework density 16.256761000000001
#
# number of rings (size 3 to 8) (size 9 to 14) (size 15 to 20)
#    0.000    3.000    0.000    1.286    0.000    4.714 
#    0.000    3.571    0.000    5.143    0.000   12.000 
#    0.000    0.000    0.000    5.571    0.000    0.143 
#
# Total GULP energy -1388237.893993 kJ/mol
# GULP energy per Si atom -12394.981196 kJ/mol
# Density = 1.621976 g / cm^3
# Si number density = 16.256761 Si / 1000 Ang^3
#
#
#
# Elastic Constant Matrix: (Units=GPa)
#
#
# Indices 1 2 3 4 5 6 
#
# 1 72.5563 58.6218 39.1808 0.0000 0.0000 0.0000
# 2 58.6218 72.5563 39.1808 0.0000 0.0000 0.0000
# 3 39.1808 39.1808 63.1007 0.0000 0.0000 0.0000
# 4 0.0000 0.0000 0.0000 18.8800 0.0000 0.0000
# 5 0.0000 0.0000 0.0000 0.0000 18.8800 0.0000
# 6 0.0000 0.0000 0.0000 0.0000 0.0000 17.9282
#
#
#
# Elastic Compliance Matrix: (Units=1/GPa)
#
#
# Indices 1 2 3 4 5 6 
#
# 1 0.041941 -0.029823 -0.007524 0.000000 0.000000 0.000000
# 2 -0.029823 0.041941 -0.007524 0.000000 0.000000 0.000000
# 3 -0.007524 -0.007524 0.025192 0.000000 0.000000 0.000000
# 4 0.000000 0.000000 0.000000 0.052966 0.000000 0.000000
# 5 0.000000 0.000000 0.000000 0.000000 0.052966 0.000000
# 6 0.000000 0.000000 0.000000 0.000000 0.000000 0.055778
#
#
# Mechanical properties :
#
#
# Convention : Reuss Voigt Hill
#
# Bulk Modulus (GPa) = 51.73210 53.57557 52.65383
# Shear Modulus (GPa) = 13.62502 15.88628 14.75565
#
# Velocity S-wave (km/s) = 2.89816 3.12943 3.01601
# Velocity P-wave (km/s) = 6.56430 6.78861 6.67740
#
# Compressibility (1/GPa) = 0.01933036
#
# Stress axis : x y z
#
# Youngs Moduli (GPa) = 23.84294 23.84294 39.69533
#
# Poissons Ratio (x) = 0.71107 0.29868
# Poissons Ratio (y) = 0.71107 0.29868
# Poissons Ratio (z) = 0.17940 0.17940
#
# Static dielectric constant tensor:
#      x y z
#    x 2.981760 0.000000 0.000000 
#    y 0.000000 2.981760 0.000000 
#    z 0.000000 0.000000 3.115650 
# 
# 
# High freq. dielectric constant tensor:
#      x y z
#    x 1.604460 0.000000 0.000000 
#    y 0.000000 1.604460 0.000000 
#    z 0.000000 0.000000 1.621770 
# 
# From -- ./inp_files/6723.got.cif
#   From: 2010.03.12/outbox.cif.g09.slc.cpg/sg123_4_cif.got.tgz:6723.got - 2010.04.06 16:26:55.
