data_PCOD8313231
_publ_section_title
;
Structure prediction by ZEFSAII (Michael W. Deem and Ramdas Pophale) SiO2 
 PCOD8313231
Probable space group: P 4/M C C
;
_chemical_formula_sum "Si O2"
_cell_formula_units_Z 96
_cell_length_a 23.925308
_cell_length_b 23.925308
_cell_length_c 8.936237
_cell_angle_alpha 90.000000
_cell_angle_beta 90.000000
_cell_angle_gamma 90.000000
_cell_volume 5115.284026
_symmetry_space_group_name_H-M "P 4/M C C"
_symmetry_group_IT_number 124
_symmetry_cell_setting 'tetragonal'
loop_
_space_group_symop_operation_xyz
x,y,z
-y,x,z
-x,-y,z
y,-x,z
x,-y,1/2-z
-x,y,1/2-z
y,x,1/2-z
-y,-x,1/2-z
-x,-y,-z
y,-x,-z
x,y,-z
-y,x,-z
-x,y,1/2+z
x,-y,1/2+z
-y,-x,1/2+z
y,x,1/2+z
loop_
_atom_site_type_symbol
_atom_site_label
_atom_site_fract_x
_atom_site_fract_y
_atom_site_fract_z
Si Si1 0.555519 0.058597 0.325516
Si Si2 0.848028 0.766425 0.825175
Si Si3 0.850841 0.351999 0.173429
Si Si4 0.556268 0.637331 0.825776
Si Si5 0.142776 0.059970 0.323285
Si Si6 0.233029 0.556087 0.173219
O O1 0.500000 0.085395 0.250000
O O2 0.543249 0.050851 0.500000
O O3 0.609875 0.095545 0.297308
O O4 0.569075 0.000000 0.250000
O O5 0.793500 0.793500 0.750000
O O6 0.857034 0.703949 0.768007
O O7 0.902984 0.802634 0.786541
O O8 0.836582 0.764940 0.000000
O O9 0.797719 0.388074 0.231015
O O10 0.844529 0.335467 0.000000
O O11 0.500000 0.614266 0.750000
O O12 0.608875 0.608875 0.750000
O O13 0.564082 0.702235 0.792031
O O14 0.553941 0.623387 0.000000
O O15 0.088249 0.088249 0.250000
O O16 0.132884 0.053874 0.500000
O O17 0.152882 0.000000 0.250000
O O18 0.209888 0.500000 0.250000
O O19 0.219301 0.548222 0.000000
#
# Coordination Sequence:
#
# PCOD8313231 Si02
#       6
#    16  16  16  16  16  16
#     4  10  20  34  53  77 109 145 181 225 273 321
#     4  10  22  39  58  80 109 145 182 223 270 318
#     4  10  21  36  55  80 108 141 182 225 268 320
#     4  10  20  35  54  76 103 133 167 208 256 311
#     4  10  21  38  60  86 115 147 183 223 268 316
#     4   9  19  35  54  77 105 136 173 219 269 319
#
# _framework density 18.767287
#
# number of rings (size 3 to 8) (size 9 to 14) (size 15 to 20)
#    0.000    2.167    0.000    3.000    0.000    6.333 
#    0.000    6.667    0.000    0.000    0.000    0.000 
#    0.000    0.000    0.000    0.000    0.000    0.000 
#
# Total GULP energy -1190547.728736 kJ/mol
# GULP energy per Si atom -12401.538841 kJ/mol
# Density = 1.872457 g / cm^3
# Si number density = 18.767287 Si / 1000 Ang^3
#
#
#
# Elastic Constant Matrix: (Units=GPa)
#
#
# Indices 1 2 3 4 5 6 
#
# 1 118.0326 60.0087 64.4687 0.0000 0.0000 0.0000
# 2 60.0087 118.0326 64.4687 0.0000 0.0000 0.0000
# 3 64.4687 64.4687 107.2681 0.0000 0.0000 0.0000
# 4 0.0000 0.0000 0.0000 33.1804 0.0000 0.0000
# 5 0.0000 0.0000 0.0000 0.0000 33.1804 0.0000
# 6 0.0000 0.0000 0.0000 0.0000 0.0000 19.1646
#
#
#
# Elastic Compliance Matrix: (Units=1/GPa)
#
#
# Indices 1 2 3 4 5 6 
#
# 1 0.013590 -0.003644 -0.005977 0.000000 0.000000 0.000000
# 2 -0.003644 0.013590 -0.005977 0.000000 0.000000 0.000000
# 3 -0.005977 -0.005977 0.016507 0.000000 0.000000 0.000000
# 4 0.000000 0.000000 0.000000 0.030138 0.000000 0.000000
# 5 0.000000 0.000000 0.000000 0.000000 0.030138 0.000000
# 6 0.000000 0.000000 0.000000 0.000000 0.000000 0.052179
#
#
# Mechanical properties :
#
#
# Convention : Reuss Voigt Hill
#
# Bulk Modulus (GPa) = 80.07058 80.13615 80.10337
# Shear Modulus (GPa) = 26.10917 27.39757 26.75337
#
# Velocity S-wave (km/s) = 3.73393 3.82495 3.77972
# Velocity P-wave (km/s) = 7.83245 7.89301 7.86279
#
# Compressibility (1/GPa) = 0.01248898
#
# Stress axis : x y z
#
# Youngs Moduli (GPa) = 73.58445 73.58445 60.57989
#
# Poissons Ratio (x) = 0.26818 0.36210
# Poissons Ratio (y) = 0.26818 0.36210
# Poissons Ratio (z) = 0.43983 0.43983
#
# Static dielectric constant tensor:
#      x y z
#    x 3.578680 0.000000 0.000000 
#    y 0.000000 3.578680 0.000000 
#    z 0.000000 0.000000 3.543720 
# 
# 
# High freq. dielectric constant tensor:
#      x y z
#    x 1.732440 0.000000 0.000000 
#    y 0.000000 1.732440 0.000000 
#    z 0.000000 0.000000 1.737640 
# 
# From -- ./inp_files/1393.got.cif
#   From: 2010.03.12/outbox.cif.g09.slc.cpg/sg124_1_cif.got.tgz:1393.got - 2010.04.06 16:38:57.
