data_PCOD8313529
_publ_section_title
;
Structure prediction by ZEFSAII (Michael W. Deem and Ramdas Pophale) SiO2 
 PCOD8313529
Probable space group: P 4/N B M
;
_chemical_formula_sum "Si O2"
_cell_formula_units_Z 96
_cell_length_a 23.041520
_cell_length_b 23.041520
_cell_length_c 7.567469
_cell_angle_alpha 90.000000
_cell_angle_beta 90.000000
_cell_angle_gamma 90.000000
_cell_volume 4017.657407
_symmetry_space_group_name_H-M "P 4/N B M"
_symmetry_group_IT_number 125
_space_group.IT_coordinate_system_code '2'
_symmetry_cell_setting 'tetragonal'
loop_
_space_group_symop_operation_xyz
x,y,z
1/2-y,x,z
1/2-x,1/2-y,z
y,1/2-x,z
x,1/2-y,-z
1/2-x,y,-z
y,x,-z
1/2-y,1/2-x,-z
-x,-y,-z
1/2+y,-x,-z
1/2+x,1/2+y,-z
-y,1/2+x,-z
-x,1/2+y,z
1/2+x,-y,z
-y,-x,z
1/2+y,1/2+x,z
loop_
_atom_site_type_symbol
_atom_site_label
_atom_site_fract_x
_atom_site_fract_y
_atom_site_fract_z
Si Si1 0.628514 0.462786 0.707967
Si Si2 0.255288 0.079506 0.805429
Si Si3 0.703105 0.027008 0.617010
Si Si4 0.858886 0.871844 0.294236
Si Si5 0.089464 0.685990 0.024065
Si Si6 0.963489 0.551320 0.294388
O O1 0.599294 0.400707 0.669862
O O2 0.650339 0.487271 0.517724
O O3 0.583188 0.507687 0.792995
O O4 0.677430 0.455526 0.860256
O O5 0.207027 0.130365 0.777312
O O6 0.320587 0.103519 0.791426
O O7 0.240702 0.030075 0.664248
O O8 0.250000 0.052704 0.000000
O O9 0.750000 0.064907 0.500000
O O10 0.677357 0.058936 0.786660
O O11 0.859864 0.859864 0.500000
O O12 0.884435 0.937861 0.247612
O O13 0.141526 0.641526 0.011732
O O14 0.115298 0.750000 0.000000
O O15 0.960183 0.539818 0.500000
O O16 0.029035 0.529035 0.230867
#
# Coordination Sequence:
#
# PCOD8313529 Si02
#       6
#    16  16  16  16  16  16
#     4  10  21  39  65  99 138 177 224 285 350 420
#     4  12  27  44  68 102 143 182 236 296 351 426
#     4  12  22  39  68  99 130 180 232 284 342 415
#     4  11  23  44  69 101 135 186 238 289 358 423
#     4  11  24  42  65 100 137 180 234 287 352 422
#     4   9  18  35  65 100 136 176 222 282 352 417
#
# _framework density 23.894521999999998
#
# number of rings (size 3 to 8) (size 9 to 14) (size 15 to 20)
#    0.000    1.167    1.667    6.000    2.333    0.500 
#    0.000    2.500    0.000    2.000    0.000    0.000 
#    0.000    0.000    0.000    0.000    0.000    0.000 
#
# Total GULP energy -1189340.440015 kJ/mol
# GULP energy per Si atom -12388.962917 kJ/mol
# Density = 2.384014 g / cm^3
# Si number density = 23.894522 Si / 1000 Ang^3
#
#
#
# Elastic Constant Matrix: (Units=GPa)
#
#
# Indices 1 2 3 4 5 6 
#
# 1 59.6684 15.9371 15.7473 0.0000 0.0000 0.0000
# 2 15.9371 59.6678 15.7467 0.0000 0.0000 0.0000
# 3 15.7473 15.7467 131.1809 0.0000 0.0000 0.0000
# 4 0.0000 0.0000 0.0000 29.2722 0.0000 0.0000
# 5 0.0000 0.0000 0.0000 0.0000 29.2720 0.0000
# 6 0.0000 0.0000 0.0000 0.0000 0.0000 38.9391
#
#
#
# Elastic Compliance Matrix: (Units=1/GPa)
#
#
# Indices 1 2 3 4 5 6 
#
# 1 0.018395 -0.004472 -0.001671 0.000000 0.000000 0.000000
# 2 -0.004472 0.018395 -0.001671 0.000000 0.000000 0.000000
# 3 -0.001671 -0.001671 0.008024 0.000000 0.000000 0.000000
# 4 0.000000 0.000000 0.000000 0.034162 0.000000 0.000000
# 5 0.000000 0.000000 0.000000 0.000000 0.034162 0.000000
# 6 0.000000 0.000000 0.000000 0.000000 0.000000 0.025681
#
#
# Mechanical properties :
#
#
# Convention : Reuss Voigt Hill
#
# Bulk Modulus (GPa) = 34.26454 38.37550 36.32002
# Shear Modulus (GPa) = 30.45483 33.03571 31.74527
#
# Velocity S-wave (km/s) = 3.57396 3.72232 3.64889
# Velocity P-wave (km/s) = 5.60375 5.87958 5.74332
#
# Compressibility (1/GPa) = 0.02918469
#
# Stress axis : x y z
#
# Youngs Moduli (GPa) = 54.36297 54.36257 124.62129
#
# Poissons Ratio (x) = 0.24312 0.20829
# Poissons Ratio (y) = 0.24312 0.20827
# Poissons Ratio (z) = 0.09086 0.09085
#
# Static dielectric constant tensor:
#      x y z
#    x 4.576980 0.000000 0.000000 
#    y 0.000000 4.576990 0.000000 
#    z 0.000000 0.000000 4.449690 
# 
# 
# High freq. dielectric constant tensor:
#      x y z
#    x 1.941510 0.000000 0.000000 
#    y 0.000000 1.941510 0.000000 
#    z 0.000000 0.000000 1.955730 
# 
# From -- ./inp_files/2869.got.cif
#   From: 2010.03.12/outbox.cif.g09.slc.cpg/sg125_2_cif.got.tgz:2869.got - 2010.04.06 16:47:52.
