data_PCOD8313865
_publ_section_title
;
Structure prediction by ZEFSAII (Michael W. Deem and Ramdas Pophale) SiO2 
 PCOD8313865
Probable space group: P 4/M B M
;
_chemical_formula_sum "Si O2"
_cell_formula_units_Z 128
_cell_length_a 23.609339
_cell_length_b 23.609339
_cell_length_c 13.941327
_cell_angle_alpha 90.000000
_cell_angle_beta 90.000000
_cell_angle_gamma 90.000000
_cell_volume 7770.908050
_symmetry_space_group_name_H-M "P 4/M B M"
_symmetry_group_IT_number 127
_symmetry_cell_setting 'tetragonal'
loop_
_space_group_symop_operation_xyz
x,y,z
-y,x,z
-x,-y,z
y,-x,z
1/2+x,1/2-y,-z
1/2-x,1/2+y,-z
1/2+y,1/2+x,-z
1/2-y,1/2-x,-z
-x,-y,-z
y,-x,-z
x,y,-z
-y,x,-z
1/2-x,1/2+y,z
1/2+x,1/2-y,z
1/2-y,1/2-x,z
1/2+y,1/2+x,z
loop_
_atom_site_type_symbol
_atom_site_label
_atom_site_fract_x
_atom_site_fract_y
_atom_site_fract_z
Si Si1 0.147982 0.258732 0.107217
Si Si2 0.129117 0.722259 0.388114
Si Si3 0.429841 0.834621 0.225450
Si Si4 0.196688 0.210936 0.716528
Si Si5 0.003937 0.590913 0.106403
Si Si6 0.953454 0.924760 0.385619
Si Si7 0.284991 0.998641 0.391652
Si Si8 0.691352 0.587628 0.391380
O O1 0.186722 0.313279 0.093404
O O2 0.092918 0.279622 0.167359
O O3 0.181820 0.210550 0.168972
O O4 0.132030 0.235640 0.000000
O O5 0.132786 0.740853 0.500000
O O6 0.164104 0.664104 0.371409
O O7 0.154141 0.772357 0.320666
O O8 0.063935 0.713719 0.356313
O O9 0.381071 0.881071 0.238614
O O10 0.485088 0.856261 0.169044
O O11 0.455489 0.821993 0.329431
O O12 0.235496 0.264505 0.690935
O O13 0.137433 0.223319 0.664072
O O14 0.952884 0.547117 0.101046
O O15 0.059666 0.559666 0.149955
O O16 0.018022 0.612998 0.000000
O O17 0.954654 0.921868 0.500000
O O18 0.920272 0.870757 0.344127
O O19 0.018402 0.923255 0.348722
O O20 0.308733 0.996104 0.500000
O O21 0.221567 0.973567 0.385944
O O22 0.686517 0.608585 0.500000
#
# Coordination Sequence:
#
# PCOD8313865 Si02
#       8
#    16  16  16  16  16  16  16  16
#     4   9  17  30  49  72  96 122 154 198 254 309
#     4   9  19  35  52  68  92 132 175 207 237 284
#     4  10  18  30  47  69  98 130 162 198 249 299
#     4  10  19  32  50  73  94 121 162 205 246 290
#     4   8  14  25  43  67  90 113 148 195 242 287
#     4   8  15  27  42  63  91 121 150 180 222 276
#     4  10  21  33  45  67  99 133 168 204 242 281
#     4  10  19  28  43  68  97 127 155 194 240 280
#
# _framework density 16.471691
#
# number of rings (size 3 to 8) (size 9 to 14) (size 15 to 20)
#    0.000    2.750    1.250    1.500    1.750    3.000 
#    0.000    1.250    0.000    1.500    0.000    5.250 
#    0.000    0.000    0.000    1.375    0.000    0.125 
#
# Total GULP energy -1585847.315628 kJ/mol
# GULP energy per Si atom -12389.432153 kJ/mol
# Density = 1.643420 g / cm^3
# Si number density = 16.471691 Si / 1000 Ang^3
#
#
#
# Elastic Constant Matrix: (Units=GPa)
#
#
# Indices 1 2 3 4 5 6 
#
# 1 72.9442 27.7099 39.6068 0.0000 0.0000 0.0000
# 2 27.7099 72.9442 39.6068 0.0000 0.0000 0.0000
# 3 39.6068 39.6068 86.8125 0.0000 0.0000 0.0000
# 4 0.0000 0.0000 0.0000 16.2615 0.0000 0.0000
# 5 0.0000 0.0000 0.0000 0.0000 16.2615 0.0000
# 6 0.0000 0.0000 0.0000 0.0000 0.0000 19.4961
#
#
#
# Elastic Compliance Matrix: (Units=1/GPa)
#
#
# Indices 1 2 3 4 5 6 
#
# 1 0.018804 -0.003303 -0.007072 0.000000 0.000000 0.000000
# 2 -0.003303 0.018804 -0.007072 0.000000 0.000000 0.000000
# 3 -0.007072 -0.007072 0.017972 0.000000 0.000000 0.000000
# 4 0.000000 0.000000 0.000000 0.061495 0.000000 0.000000
# 5 0.000000 0.000000 0.000000 0.000000 0.061495 0.000000
# 6 0.000000 0.000000 0.000000 0.000000 0.000000 0.051292
#
#
# Mechanical properties :
#
#
# Convention : Reuss Voigt Hill
#
# Bulk Modulus (GPa) = 48.34312 49.61647 48.97980
# Shear Modulus (GPa) = 18.40599 18.78899 18.59749
#
# Velocity S-wave (km/s) = 3.34643 3.38106 3.36379
# Velocity P-wave (km/s) = 6.65916 6.74016 6.69978
#
# Compressibility (1/GPa) = 0.02068547
#
# Stress axis : x y z
#
# Youngs Moduli (GPa) = 53.18076 53.18076 55.64240
#
# Poissons Ratio (x) = 0.17567 0.39349
# Poissons Ratio (y) = 0.17567 0.39349
# Poissons Ratio (z) = 0.37609 0.37609
#
# Static dielectric constant tensor:
#      x y z
#    x 3.087210 0.000000 0.000000 
#    y 0.000000 3.087210 0.000000 
#    z 0.000000 0.000000 3.085580 
# 
# 
# High freq. dielectric constant tensor:
#      x y z
#    x 1.622500 0.000000 0.000000 
#    y 0.000000 1.622500 0.000000 
#    z 0.000000 0.000000 1.607990 
# 
# From -- ./inp_files/3883.got.cif
#   From: 2010.03.12/outbox.cif.g09.slc.cpg/sg127_2_cif.got.tgz:3883.got - 2010.04.06 17:03:15.
