data_PCOD8313370
_publ_section_title
;
Structure prediction by ZEFSAII (Michael W. Deem and Ramdas Pophale) SiO2 
 PCOD8313370
Probable space group: P 4/M C C
;
_chemical_formula_sum "Si O2"
_cell_formula_units_Z 104
_cell_length_a 20.173331
_cell_length_b 20.173331
_cell_length_c 14.015336
_cell_angle_alpha 90.000000
_cell_angle_beta 90.000000
_cell_angle_gamma 90.000000
_cell_volume 5703.727160
_symmetry_space_group_name_H-M "P 4/M C C"
_symmetry_group_IT_number 124
_symmetry_cell_setting 'tetragonal'
loop_
_space_group_symop_operation_xyz
x,y,z
-y,x,z
-x,-y,z
y,-x,z
x,-y,1/2-z
-x,y,1/2-z
y,x,1/2-z
-y,-x,1/2-z
-x,-y,-z
y,-x,-z
x,y,-z
-y,x,-z
-x,y,1/2+z
x,-y,1/2+z
-y,-x,1/2+z
y,x,1/2+z
loop_
_atom_site_type_symbol
_atom_site_label
_atom_site_fract_x
_atom_site_fract_y
_atom_site_fract_z
Si Si1 0.165893 0.700325 0.894205
Si Si2 0.950018 0.096304 0.111374
Si Si3 0.500000 0.287306 0.750000
Si Si4 0.074555 0.775681 0.229057
Si Si5 0.742286 0.826321 0.607838
Si Si6 0.396113 0.477368 0.389795
Si Si7 0.357207 0.751670 0.762052
O O1 0.097651 0.715923 0.840084
O O2 0.203130 0.770002 0.895469
O O3 0.209709 0.646524 0.838418
O O4 0.152350 0.672663 0.000000
O O5 0.918887 0.153277 0.176673
O O6 0.028077 0.088230 0.135432
O O7 0.940824 0.114230 0.000000
O O8 0.535021 0.329529 0.666948
O O9 0.564421 0.249125 0.790233
O O10 0.115466 0.773834 0.328107
O O11 0.000000 0.757311 0.250000
O O12 0.726691 0.851718 0.500000
O O13 0.676406 0.795422 0.655005
O O14 0.450093 0.422716 0.361514
O O15 0.379536 0.472562 0.500000
O O16 0.319953 0.680048 0.750000
#
# Coordination Sequence:
#
# PCOD8313370 Si02
#       7
#    16  16   8  16  16  16  16
#     4   9  19  37  55  71  98 137 178 220 267 315
#     4   9  20  35  48  69 108 153 184 210 253 305
#     4  12  20  29  52  82 105 132 174 226 272 320
#     4  11  22  31  53  80 103 129 178 229 262 306
#     4   9  20  38  55  70  99 142 181 221 270 318
#     4   9  18  30  42  64 105 151 185 208 237 289
#     4   9  19  34  52  77 107 139 177 216 265 317
#
# _framework density 18.233689999999999
#
# number of rings (size 3 to 8) (size 9 to 14) (size 15 to 20)
#    0.000    2.462    0.000    4.154    4.308    3.077 
#    0.000    3.846    0.000    0.000    0.000    9.692 
#    0.000    9.846    0.000    0.000    0.000    0.000 
#
# Total GULP energy -1289139.136833 kJ/mol
# GULP energy per Si atom -12395.568623 kJ/mol
# Density = 1.819219 g / cm^3
# Si number density = 18.233690 Si / 1000 Ang^3
#
#
#
# Elastic Constant Matrix: (Units=GPa)
#
#
# Indices 1 2 3 4 5 6 
#
# 1 75.4274 24.9601 29.2657 0.0000 0.0000 0.0000
# 2 24.9601 75.4280 29.2658 0.0000 0.0000 0.0000
# 3 29.2657 29.2658 107.3538 0.0000 0.0000 0.0000
# 4 0.0000 0.0000 0.0000 12.6587 0.0000 0.0000
# 5 0.0000 0.0000 0.0000 0.0000 12.6589 0.0000
# 6 0.0000 0.0000 0.0000 0.0000 0.0000 16.9585
#
#
#
# Elastic Compliance Matrix: (Units=1/GPa)
#
#
# Indices 1 2 3 4 5 6 
#
# 1 0.015829 -0.003985 -0.003229 0.000000 0.000000 0.000000
# 2 -0.003985 0.015829 -0.003229 0.000000 0.000000 0.000000
# 3 -0.003229 -0.003229 0.011075 0.000000 0.000000 0.000000
# 4 0.000000 0.000000 0.000000 0.078997 0.000000 0.000000
# 5 0.000000 0.000000 0.000000 0.000000 0.078996 0.000000
# 6 0.000000 0.000000 0.000000 0.000000 0.000000 0.058968
#
#
# Mechanical properties :
#
#
# Convention : Reuss Voigt Hill
#
# Bulk Modulus (GPa) = 45.77049 47.24358 46.50704
# Shear Modulus (GPa) = 17.36935 20.10304 18.73619
#
# Velocity S-wave (km/s) = 3.08976 3.32403 3.20903
# Velocity P-wave (km/s) = 6.15512 6.37954 6.26833
#
# Compressibility (1/GPa) = 0.02184814
#
# Stress axis : x y z
#
# Youngs Moduli (GPa) = 63.17376 63.17424 90.29026
#
# Poissons Ratio (x) = 0.25177 0.29153
# Poissons Ratio (y) = 0.25177 0.29153
# Poissons Ratio (z) = 0.20397 0.20398
#
# Static dielectric constant tensor:
#      x y z
#    x 3.305510 0.000000 0.000000 
#    y 0.000000 3.305670 0.000000 
#    z 0.000000 0.000000 3.795500 
# 
# 
# High freq. dielectric constant tensor:
#      x y z
#    x 1.677260 0.000000 0.000000 
#    y 0.000000 1.677260 0.000000 
#    z 0.000000 0.000000 1.725820 
# 
# From -- ./inp_files/3431.got.cif
#   From: 2010.03.12/outbox.cif.g09.slc.cpg/sg124_2_cif.got.tgz:3431.got - 2010.04.06 16:38:57.
