data_PCOD8313057
_publ_section_title
;
Structure prediction by ZEFSAII (Michael W. Deem and Ramdas Pophale) SiO2 
 PCOD8313057
Probable space group: P 4/M M M
;
_chemical_formula_sum "Si O2"
_cell_formula_units_Z 80
_cell_length_a 12.808119
_cell_length_b 12.808119
_cell_length_c 28.779993
_cell_angle_alpha 90.000000
_cell_angle_beta 90.000000
_cell_angle_gamma 90.000000
_cell_volume 4721.297768
_symmetry_space_group_name_H-M "P 4/M M M"
_symmetry_group_IT_number 123
_symmetry_cell_setting 'tetragonal'
loop_
_space_group_symop_operation_xyz
x,y,z
-y,x,z
-x,-y,z
y,-x,z
x,-y,-z
-x,y,-z
y,x,-z
-y,-x,-z
-x,-y,-z
y,-x,-z
x,y,-z
-y,x,-z
-x,y,z
x,-y,z
-y,-x,z
y,x,z
loop_
_atom_site_type_symbol
_atom_site_label
_atom_site_fract_x
_atom_site_fract_y
_atom_site_fract_z
Si Si1 0.876175 0.500000 0.895833
Si Si2 0.289681 0.880114 0.054636
Si Si3 0.115473 0.717343 0.367953
Si Si4 0.123787 0.500000 0.209155
Si Si5 0.705378 0.122510 0.263101
Si Si6 0.383145 0.785837 0.551222
O O1 0.836587 0.394873 0.921191
O O2 0.833283 0.500000 0.843336
O O3 0.000000 0.500000 0.897312
O O4 0.191789 0.808212 0.070006
O O5 0.265121 0.000000 0.069472
O O6 0.308749 0.873139 0.000000
O O7 0.185245 0.814756 0.381380
O O8 0.140281 0.672449 0.316774
O O9 0.128749 0.630382 0.408028
O O10 0.000000 0.761860 0.368822
O O11 0.163365 0.394103 0.233901
O O12 0.000000 0.500000 0.210725
O O13 0.807556 0.192445 0.250532
O O14 0.731064 0.000000 0.252909
O O15 0.356075 0.833244 0.500000
O O16 0.500000 0.744510 0.552068
O O17 0.314114 0.685887 0.562796
#
# Coordination Sequence:
#
# PCOD8313057 Si02
#       6
#     8  16  16   8  16  16
#     4   9  17  30  47  67  94 129 168 202 233 280
#     4   9  17  29  47  72 101 132 165 202 243 286
#     4   9  18  31  47  67  91 119 149 184 225 271
#     4   9  18  31  48  70  94 124 161 200 242 287
#     4   9  18  32  50  72  96 124 158 196 240 287
#     4   9  18  31  46  66  91 118 150 188 229 274
#
# _framework density 16.944495
#
# number of rings (size 3 to 8) (size 9 to 14) (size 15 to 20)
#    0.000    3.000    0.000    0.300    1.400    3.600 
#    0.000    5.000    0.000    0.600    0.000   11.200 
#    0.000    0.000    0.000    0.000    0.000    0.000 
#
# Total GULP energy -991434.078690 kJ/mol
# GULP energy per Si atom -12392.925984 kJ/mol
# Density = 1.690593 g / cm^3
# Si number density = 16.944495 Si / 1000 Ang^3
#
#
#
# Elastic Constant Matrix: (Units=GPa)
#
#
# Indices 1 2 3 4 5 6 
#
# 1 89.9166 46.1827 47.5404 0.0000 0.0000 0.0000
# 2 46.1827 89.9166 47.5404 0.0000 0.0000 0.0000
# 3 47.5404 47.5404 89.3790 0.0000 0.0000 0.0000
# 4 0.0000 0.0000 0.0000 21.4534 0.0000 0.0000
# 5 0.0000 0.0000 0.0000 0.0000 21.4534 0.0000
# 6 0.0000 0.0000 0.0000 0.0000 0.0000 14.2697
#
#
#
# Elastic Compliance Matrix: (Units=1/GPa)
#
#
# Indices 1 2 3 4 5 6 
#
# 1 0.017279 -0.005587 -0.006219 0.000000 0.000000 0.000000
# 2 -0.005587 0.017279 -0.006219 0.000000 0.000000 0.000000
# 3 -0.006219 -0.006219 0.017804 0.000000 0.000000 0.000000
# 4 0.000000 0.000000 0.000000 0.046613 0.000000 0.000000
# 5 0.000000 0.000000 0.000000 0.000000 0.046613 0.000000
# 6 0.000000 0.000000 0.000000 0.000000 0.000000 0.070078
#
#
# Mechanical properties :
#
#
# Convention : Reuss Voigt Hill
#
# Bulk Modulus (GPa) = 61.30317 61.30436 61.30377
# Shear Modulus (GPa) = 19.44369 19.96522 19.70445
#
# Velocity S-wave (km/s) = 3.39114 3.43632 3.41381
# Velocity P-wave (km/s) = 7.18265 7.21127 7.19698
#
# Compressibility (1/GPa) = 0.01631237
#
# Stress axis : x y z
#
# Youngs Moduli (GPa) = 57.87391 57.87391 56.16669
#
# Poissons Ratio (x) = 0.32332 0.34931
# Poissons Ratio (y) = 0.32332 0.34931
# Poissons Ratio (z) = 0.35992 0.35992
#
# Static dielectric constant tensor:
#      x y z
#    x 3.090940 0.000000 0.000000 
#    y 0.000000 3.090940 0.000000 
#    z 0.000000 0.000000 3.422650 
# 
# 
# High freq. dielectric constant tensor:
#      x y z
#    x 1.636000 0.000000 0.000000 
#    y 0.000000 1.636000 0.000000 
#    z 0.000000 0.000000 1.661720 
# 
# From -- ./inp_files/8403.got.cif
#   From: 2010.03.12/outbox.cif.g09.slc.cpg/sg123_5_cif.got.tgz:8403.got - 2010.04.06 16:26:55.
