data_PCOD8313733
_publ_section_title
;
Structure prediction by ZEFSAII (Michael W. Deem and Ramdas Pophale) SiO2 
 PCOD8313733
Probable space group: P 4/N N C
;
_chemical_formula_sum "Si O2"
_cell_formula_units_Z 112
_cell_length_a 15.553118
_cell_length_b 15.553118
_cell_length_c 22.806904
_cell_angle_alpha 90.000000
_cell_angle_beta 90.000000
_cell_angle_gamma 90.000000
_cell_volume 5516.978207
_symmetry_space_group_name_H-M "P 4/N N C"
_symmetry_group_IT_number 126
_space_group.IT_coordinate_system_code '2'
_symmetry_cell_setting 'tetragonal'
loop_
_space_group_symop_operation_xyz
x,y,z
1/2-y,x,z
1/2-x,1/2-y,z
y,1/2-x,z
x,1/2-y,1/2-z
1/2-x,y,1/2-z
y,x,1/2-z
1/2-y,1/2-x,1/2-z
-x,-y,-z
1/2+y,-x,-z
1/2+x,1/2+y,-z
-y,1/2+x,-z
-x,1/2+y,1/2+z
1/2+x,-y,1/2+z
-y,-x,1/2+z
1/2+y,1/2+x,1/2+z
loop_
_atom_site_type_symbol
_atom_site_label
_atom_site_fract_x
_atom_site_fract_y
_atom_site_fract_z
Si Si1 0.780772 0.883367 0.936060
Si Si2 0.349749 0.481471 0.736672
Si Si3 0.677746 0.064210 0.537582
Si Si4 0.929622 0.096334 0.166141
Si Si5 0.469383 0.231230 0.186333
Si Si6 0.672934 0.181808 0.423777
Si Si7 0.453248 0.561597 0.642275
O O1 0.686725 0.851592 0.953127
O O2 0.778933 0.900860 0.866102
O O3 0.809047 0.963811 0.976490
O O4 0.250000 0.482306 0.750000
O O5 0.386044 0.386044 0.750000
O O6 0.400717 0.549692 0.775430
O O7 0.372650 0.509505 0.670060
O O8 0.681691 0.128454 0.483454
O O9 0.761745 0.086290 0.576106
O O10 0.592625 0.076831 0.577496
O O11 0.842803 0.111884 0.127238
O O12 0.967648 0.188668 0.179872
O O13 0.999700 0.036081 0.133474
O O14 0.424476 0.250000 0.250000
O O15 0.523040 0.142048 0.184518
O O16 0.750000 0.250000 0.413596
#
# Coordination Sequence:
#
# PCOD8313733 Si02
#       7
#    16  16  16  16  16  16  16
#     4  10  22  39  59  85 120 163 211 253 296 356
#     4  10  23  41  64  92 121 160 208 257 307 367
#     4  11  22  39  61  85 122 157 204 247 313 359
#     4  11  23  39  61  90 126 160 207 249 306 371
#     4  11  19  32  57  89 127 165 193 240 290 359
#     4  12  24  41  60  89 123 160 197 262 306 370
#     4  10  22  39  59  91 124 162 203 252 301 371
#
# _framework density 20.300968999999998
#
# number of rings (size 3 to 8) (size 9 to 14) (size 15 to 20)
#    0.000    1.286    5.714    1.714    2.000    2.429 
#    0.000    1.429    0.000    0.000    0.000    0.000 
#    0.000    0.000    0.000    0.000    0.000    0.000 
#
# Total GULP energy -1387660.773003 kJ/mol
# GULP energy per Si atom -12389.828330 kJ/mol
# Density = 2.025476 g / cm^3
# Si number density = 20.300969 Si / 1000 Ang^3
#
#
#
# Elastic Constant Matrix: (Units=GPa)
#
#
# Indices 1 2 3 4 5 6 
#
# 1 113.2507 48.8324 22.3304 0.0000 0.0000 0.0000
# 2 48.8324 113.2507 22.3304 0.0000 0.0000 0.0000
# 3 22.3304 22.3304 42.7845 0.0000 0.0000 0.0000
# 4 0.0000 0.0000 0.0000 23.5186 0.0000 0.0000
# 5 0.0000 0.0000 0.0000 0.0000 23.5186 0.0000
# 6 0.0000 0.0000 0.0000 0.0000 0.0000 16.4915
#
#
#
# Elastic Compliance Matrix: (Units=1/GPa)
#
#
# Indices 1 2 3 4 5 6 
#
# 1 0.011365 -0.004159 -0.003761 0.000000 0.000000 0.000000
# 2 -0.004159 0.011365 -0.003761 0.000000 0.000000 0.000000
# 3 -0.003761 -0.003761 0.027299 0.000000 0.000000 0.000000
# 4 0.000000 0.000000 0.000000 0.042520 0.000000 0.000000
# 5 0.000000 0.000000 0.000000 0.000000 0.042520 0.000000
# 6 0.000000 0.000000 0.000000 0.000000 0.000000 0.060637
#
#
# Mechanical properties :
#
#
# Convention : Reuss Voigt Hill
#
# Bulk Modulus (GPa) = 37.49973 50.69693 44.09833
# Shear Modulus (GPa) = 21.93410 24.42523 23.17967
#
# Velocity S-wave (km/s) = 3.29058 3.47242 3.38272
# Velocity P-wave (km/s) = 5.74014 6.41122 6.08494
#
# Compressibility (1/GPa) = 0.02666686
#
# Stress axis : x y z
#
# Youngs Moduli (GPa) = 87.99122 87.99122 36.63147
#
# Poissons Ratio (x) = 0.36594 0.13777
# Poissons Ratio (y) = 0.36594 0.13777
# Poissons Ratio (z) = 0.33094 0.33094
#
# Static dielectric constant tensor:
#      x y z
#    x 3.803090 0.000000 0.000000 
#    y 0.000000 3.803090 0.000000 
#    z 0.000000 0.000000 3.646760 
# 
# 
# High freq. dielectric constant tensor:
#      x y z
#    x 1.793450 0.000000 0.000000 
#    y 0.000000 1.793450 0.000000 
#    z 0.000000 0.000000 1.773950 
# 
# From -- ./inp_files/5832.got.cif
#   From: 2010.03.12/outbox.cif.g09.slc.cpg/sg126_3_cif.got.tgz:5832.got - 2010.04.06 16:55:23.
