data_PCOD8313534
_publ_section_title
;
Structure prediction by ZEFSAII (Michael W. Deem and Ramdas Pophale) SiO2 
 PCOD8313534
Probable space group: P 4/N B M
;
_chemical_formula_sum "Si O2"
_cell_formula_units_Z 72
_cell_length_a 13.090391
_cell_length_b 13.090391
_cell_length_c 25.134094
_cell_angle_alpha 90.000000
_cell_angle_beta 90.000000
_cell_angle_gamma 90.000000
_cell_volume 4306.936538
_symmetry_space_group_name_H-M "P 4/N B M"
_symmetry_group_IT_number 125
_space_group.IT_coordinate_system_code '2'
_symmetry_cell_setting 'tetragonal'
loop_
_space_group_symop_operation_xyz
x,y,z
1/2-y,x,z
1/2-x,1/2-y,z
y,1/2-x,z
x,1/2-y,-z
1/2-x,y,-z
y,x,-z
1/2-y,1/2-x,-z
-x,-y,-z
1/2+y,-x,-z
1/2+x,1/2+y,-z
-y,1/2+x,-z
-x,1/2+y,z
1/2+x,-y,z
-y,-x,z
1/2+y,1/2+x,z
loop_
_atom_site_type_symbol
_atom_site_label
_atom_site_fract_x
_atom_site_fract_y
_atom_site_fract_z
Si Si1 0.368334 0.631667 0.781918
Si Si2 1.000000 0.500000 0.583267
Si Si3 0.868306 0.631696 0.940136
Si Si4 0.000000 0.000001 0.138958
Si Si5 0.131673 0.868328 0.337752
Si Si6 0.631673 0.131673 0.662249
Si Si7 0.368335 0.868335 0.781917
Si Si8 0.627907 0.627907 0.500000
O O1 0.430643 0.569358 0.824474
O O2 0.400287 0.599714 0.722080
O O3 0.391988 0.750001 0.790963
O O4 0.930275 0.430275 0.619439
O O5 0.925449 0.574549 0.550401
O O6 0.069727 0.569727 0.619436
O O7 0.891990 0.750002 0.931033
O O8 0.930676 0.569329 0.897633
O O9 0.900128 0.599873 0.000000
O O10 0.069353 0.930648 0.175530
O O11 0.108105 0.750000 0.346823
O O12 0.099713 0.900288 0.277922
O O13 0.750000 0.606733 0.500000
#
# Coordination Sequence:
#
# PCOD8313534 Si02
#       8
#     8   8  16   8   8   8   8   8
#     4   9  19  33  47  69 101 127 148 186 239 282
#     4  11  19  32  55  75  90 123 169 198 220 270
#     4   9  19  34  48  65  92 123 155 194 237 276
#     4  12  18  28  51  75  90 118 162 194 224 278
#     4   9  18  33  51  71  96 125 157 193 231 272
#     4   9  18  33  51  71  96 125 157 193 231 272
#     4   9  19  33  47  69 101 127 148 186 239 282
#     4  10  22  36  48  70 104 130 150 190 246 284
#
# _framework density 16.717220000000001
#
# number of rings (size 3 to 8) (size 9 to 14) (size 15 to 20)
#    0.000    2.333    0.000    5.667    0.000    0.000 
#    0.000    0.000    0.000    5.333    0.000   28.000 
#    0.000    0.000    0.000    0.000    0.000    0.000 
#
# Total GULP energy -892603.613020 kJ/mol
# GULP energy per Si atom -12397.272403 kJ/mol
# Density = 1.667917 g / cm^3
# Si number density = 16.717220 Si / 1000 Ang^3
#
#
#
# Elastic Constant Matrix: (Units=GPa)
#
#
# Indices 1 2 3 4 5 6 
#
# 1 92.3377 86.9250 95.1276 0.0000 0.0000 0.0000
# 2 86.9250 92.3376 95.1275 0.0000 0.0000 0.0000
# 3 95.1276 95.1275 167.3219 0.0000 0.0000 0.0000
# 4 0.0000 0.0000 0.0000 35.9805 0.0000 0.0000
# 5 0.0000 0.0000 0.0000 0.0000 35.9804 0.0000
# 6 0.0000 0.0000 0.0000 0.0000 0.0000 33.5047
#
#
#
# Elastic Compliance Matrix: (Units=1/GPa)
#
#
# Indices 1 2 3 4 5 6 
#
# 1 0.099410 -0.085344 -0.007997 0.000000 0.000000 0.000000
# 2 -0.085344 0.099409 -0.007996 0.000000 0.000000 0.000000
# 3 -0.007997 -0.007996 0.015069 0.000000 0.000000 0.000000
# 4 0.000000 0.000000 0.000000 0.027793 0.000000 0.000000
# 5 0.000000 0.000000 0.000000 0.000000 0.027793 0.000000
# 6 0.000000 0.000000 0.000000 0.000000 0.000000 0.029847
#
#
# Mechanical properties :
#
#
# Convention : Reuss Voigt Hill
#
# Bulk Modulus (GPa) = 89.17843 100.70638 94.94240
# Shear Modulus (GPa) = 9.88665 26.08093 17.98379
#
# Velocity S-wave (km/s) = 2.43452 3.95413 3.28344
# Velocity P-wave (km/s) = 7.83349 9.01214 8.44341
#
# Compressibility (1/GPa) = 0.01121347
#
# Stress axis : x y z
#
# Youngs Moduli (GPa) = 10.05939 10.05941 66.36111
#
# Poissons Ratio (x) = 0.85851 0.53067
# Poissons Ratio (y) = 0.85851 0.53065
# Poissons Ratio (z) = 0.08044 0.08044
#
# Static dielectric constant tensor:
#      x y z
#    x 3.160960 0.000000 0.000000 
#    y 0.000000 3.160960 0.000000 
#    z 0.000000 0.000000 3.247350 
# 
# 
# High freq. dielectric constant tensor:
#      x y z
#    x 1.647140 0.000000 0.000000 
#    y 0.000000 1.647140 0.000000 
#    z 0.000000 0.000000 1.658300 
# 
# From -- ./inp_files/6387.got.cif
#   From: 2010.03.12/outbox.cif.g09.slc.cpg/sg125_4_cif.got.tgz:6387.got - 2010.04.06 16:47:52.
