data_PCOD8313323
_publ_section_title
;
Structure prediction by ZEFSAII (Michael W. Deem and Ramdas Pophale) SiO2 
 PCOD8313323
Probable space group: P 4/M C C
;
_chemical_formula_sum "Si O2"
_cell_formula_units_Z 80
_cell_length_a 11.515183
_cell_length_b 11.515183
_cell_length_c 33.055079
_cell_angle_alpha 90.000000
_cell_angle_beta 90.000000
_cell_angle_gamma 90.000000
_cell_volume 4383.084949
_symmetry_space_group_name_H-M "P 4/M C C"
_symmetry_group_IT_number 124
_symmetry_cell_setting 'tetragonal'
loop_
_space_group_symop_operation_xyz
x,y,z
-y,x,z
-x,-y,z
y,-x,z
x,-y,1/2-z
-x,y,1/2-z
y,x,1/2-z
-y,-x,1/2-z
-x,-y,-z
y,-x,-z
x,y,-z
-y,x,-z
-x,y,1/2+z
x,-y,1/2+z
-y,-x,1/2+z
y,x,1/2+z
loop_
_atom_site_type_symbol
_atom_site_label
_atom_site_fract_x
_atom_site_fract_y
_atom_site_fract_z
Si Si1 0.000100 0.365822 0.682385
Si Si2 0.193187 0.009582 0.107772
Si Si3 0.181741 0.368088 0.751626
Si Si4 0.929344 0.384953 0.952332
Si Si5 0.674380 0.442840 0.951912
O O1 0.013683 0.279341 0.645411
O O2 0.103527 0.338733 0.713105
O O3 0.000000 0.500000 0.667552
O O4 0.881976 0.339100 0.706311
O O5 0.271620 0.013143 0.067504
O O6 0.108799 0.120446 0.108359
O O7 0.219359 0.500000 0.750000
O O8 0.298961 0.298961 0.750000
O O9 0.798495 0.401749 0.934989
O O10 0.000000 0.500000 0.940802
O O11 0.930657 0.362806 0.000000
O O12 0.645031 0.573740 0.936688
O O13 0.678668 0.444969 0.000000
#
# Coordination Sequence:
#
# PCOD8313323 Si02
#       5
#    16  16  16  16  16
#     4   9  18  35  56  78 105 139 182 221 258 309
#     4  11  24  38  53  76 108 145 182 225 273 320
#     4   9  17  30  54  84 110 139 172 211 260 316
#     4  10  22  37  56  78 103 139 180 220 272 331
#     4   8  15  30  54  80 100 122 163 221 271 311
#
# _framework density 18.251984
#
# number of rings (size 3 to 8) (size 9 to 14) (size 15 to 20)
#    0.000    2.600    0.000    3.600    2.800    1.000 
#    0.000    1.000    0.000    4.800    0.000    0.000 
#    0.000    0.000    0.000    0.000    0.000    0.000 
#
# Total GULP energy -991801.684269 kJ/mol
# GULP energy per Si atom -12397.521053 kJ/mol
# Density = 1.821044 g / cm^3
# Si number density = 18.251984 Si / 1000 Ang^3
#
#
#
# Elastic Constant Matrix: (Units=GPa)
#
#
# Indices 1 2 3 4 5 6 
#
# 1 119.9466 71.4699 53.9291 0.0000 0.0000 0.0000
# 2 71.4699 119.9466 53.9291 0.0000 0.0000 0.0000
# 3 53.9291 53.9291 71.8695 0.0000 0.0000 0.0000
# 4 0.0000 0.0000 0.0000 15.3058 0.0000 0.0000
# 5 0.0000 0.0000 0.0000 0.0000 15.3058 0.0000
# 6 0.0000 0.0000 0.0000 0.0000 0.0000 33.2435
#
#
#
# Elastic Compliance Matrix: (Units=1/GPa)
#
#
# Indices 1 2 3 4 5 6 
#
# 1 0.014840 -0.005789 -0.006792 0.000000 0.000000 0.000000
# 2 -0.005789 0.014840 -0.006792 0.000000 0.000000 0.000000
# 3 -0.006792 -0.006792 0.024107 0.000000 0.000000 0.000000
# 4 0.000000 0.000000 0.000000 0.065335 0.000000 0.000000
# 5 0.000000 0.000000 0.000000 0.000000 0.065335 0.000000
# 6 0.000000 0.000000 0.000000 0.000000 0.000000 0.030081
#
#
# Mechanical properties :
#
#
# Convention : Reuss Voigt Hill
#
# Bulk Modulus (GPa) = 66.48000 74.49098 70.48549
# Shear Modulus (GPa) = 19.35764 21.59999 20.47881
#
# Velocity S-wave (km/s) = 3.26018 3.44384 3.35327
# Velocity P-wave (km/s) = 7.11858 7.53090 7.32764
#
# Compressibility (1/GPa) = 0.01504212
#
# Stress axis : x y z
#
# Youngs Moduli (GPa) = 67.38619 67.38619 41.48187
#
# Poissons Ratio (x) = 0.39007 0.28174
# Poissons Ratio (y) = 0.39007 0.28174
# Poissons Ratio (z) = 0.45767 0.45767
#
# Static dielectric constant tensor:
#      x y z
#    x 3.487020 0.000000 0.000000 
#    y 0.000000 3.487020 0.000000 
#    z 0.000000 0.000000 3.133240 
# 
# 
# High freq. dielectric constant tensor:
#      x y z
#    x 1.713980 0.000000 0.000000 
#    y 0.000000 1.713980 0.000000 
#    z 0.000000 0.000000 1.686630 
# 
# From -- ./inp_files/6944.got.cif
#   From: 2010.03.12/outbox.cif.g09.slc.cpg/sg124_4_cif.got.tgz:6944.got - 2010.04.06 16:38:57.
