data_PCOD8313476
_publ_section_title
;
Structure prediction by ZEFSAII (Michael W. Deem and Ramdas Pophale) SiO2 
 PCOD8313476
Probable space group: P 4/N B M
;
_chemical_formula_sum "Si O2"
_cell_formula_units_Z 96
_cell_length_a 22.906690
_cell_length_b 22.906690
_cell_length_c 10.067741
_cell_angle_alpha 90.000000
_cell_angle_beta 90.000000
_cell_angle_gamma 90.000000
_cell_volume 5282.709284
_symmetry_space_group_name_H-M "P 4/N B M"
_symmetry_group_IT_number 125
_space_group.IT_coordinate_system_code '2'
_symmetry_cell_setting 'tetragonal'
loop_
_space_group_symop_operation_xyz
x,y,z
1/2-y,x,z
1/2-x,1/2-y,z
y,1/2-x,z
x,1/2-y,-z
1/2-x,y,-z
y,x,-z
1/2-y,1/2-x,-z
-x,-y,-z
1/2+y,-x,-z
1/2+x,1/2+y,-z
-y,1/2+x,-z
-x,1/2+y,z
1/2+x,-y,z
-y,-x,z
1/2+y,1/2+x,z
loop_
_atom_site_type_symbol
_atom_site_label
_atom_site_fract_x
_atom_site_fract_y
_atom_site_fract_z
Si Si1 0.034562 0.871492 0.258993
Si Si2 0.406905 0.090665 0.840615
Si Si3 0.415635 0.818565 0.485241
Si Si4 0.685813 0.684990 0.157453
Si Si5 0.183664 0.589551 0.988998
Si Si6 0.532498 0.370791 0.226868
O O1 0.065565 0.934436 0.258124
O O2 0.040354 0.840602 0.400980
O O3 0.968360 0.881320 0.218867
O O4 0.065999 0.828187 0.157125
O O5 0.362268 0.140082 0.792104
O O6 0.466778 0.106240 0.767239
O O7 0.414262 0.085739 0.000000
O O8 0.400976 0.750000 0.500000
O O9 0.354655 0.854655 0.490225
O O10 0.450535 0.829675 0.349587
O O11 0.750509 0.668279 0.209868
O O12 0.685831 0.685831 0.000000
O O13 0.147082 0.647082 0.023304
O O14 0.167661 0.539122 0.093992
O O15 0.250000 0.608536 0.000000
O O16 0.572174 0.427827 0.222584
#
# Coordination Sequence:
#
# PCOD8313476 Si02
#       6
#    16  16  16  16  16  16
#     4  10  21  36  55  80 112 145 184 235 282 335
#     4  11  20  33  56  85 108 149 188 225 286 356
#     4  10  22  40  59  83 116 154 194 240 291 338
#     4   8  16  30  45  68 104 137 171 219 268 320
#     4  10  20  34  53  79 110 144 184 234 285 334
#     4  10  21  36  55  80 112 145 184 235 282 335
#
# _framework density 18.172494
#
# number of rings (size 3 to 8) (size 9 to 14) (size 15 to 20)
#    0.000    2.167    1.667    2.000    0.000    4.333 
#    0.000    2.500    0.000    6.000    0.000    0.000 
#    0.000    4.000    0.000    0.000    0.000    0.000 
#
# Total GULP energy -1190387.731018 kJ/mol
# GULP energy per Si atom -12399.872198 kJ/mol
# Density = 1.813113 g / cm^3
# Si number density = 18.172494 Si / 1000 Ang^3
#
#
#
# Elastic Constant Matrix: (Units=GPa)
#
#
# Indices 1 2 3 4 5 6 
#
# 1 117.3063 59.4052 21.6980 0.0000 0.0000 0.0000
# 2 59.4052 117.3065 21.6979 0.0000 0.0000 0.0000
# 3 21.6980 21.6979 61.0901 0.0000 0.0000 0.0000
# 4 0.0000 0.0000 0.0000 20.1138 0.0000 0.0000
# 5 0.0000 0.0000 0.0000 0.0000 20.1138 0.0000
# 6 0.0000 0.0000 0.0000 0.0000 0.0000 17.3111
#
#
#
# Elastic Compliance Matrix: (Units=1/GPa)
#
#
# Indices 1 2 3 4 5 6 
#
# 1 0.011735 -0.005536 -0.002202 0.000000 0.000000 0.000000
# 2 -0.005536 0.011735 -0.002202 0.000000 0.000000 0.000000
# 3 -0.002202 -0.002202 0.017933 0.000000 0.000000 0.000000
# 4 0.000000 0.000000 0.000000 0.049717 0.000000 0.000000
# 5 0.000000 0.000000 0.000000 0.000000 0.049717 0.000000
# 6 0.000000 0.000000 0.000000 0.000000 0.000000 0.057766
#
#
# Mechanical properties :
#
#
# Convention : Reuss Voigt Hill
#
# Bulk Modulus (GPa) = 46.45797 55.70058 51.07928
# Shear Modulus (GPa) = 22.15734 24.36784 23.26259
#
# Velocity S-wave (km/s) = 3.49561 3.66583 3.58173
# Velocity P-wave (km/s) = 6.47401 6.97390 6.72860
#
# Compressibility (1/GPa) = 0.02152483
#
# Stress axis : x y z
#
# Youngs Moduli (GPa) = 85.21326 85.21344 55.76166
#
# Poissons Ratio (x) = 0.47170 0.12279
# Poissons Ratio (y) = 0.47170 0.12279
# Poissons Ratio (z) = 0.18764 0.18764
#
# Static dielectric constant tensor:
#      x y z
#    x 3.408020 0.000000 0.000000 
#    y 0.000000 3.408020 0.000000 
#    z 0.000000 0.000000 3.330300 
# 
# 
# High freq. dielectric constant tensor:
#      x y z
#    x 1.706270 0.000000 0.000000 
#    y 0.000000 1.706270 0.000000 
#    z 0.000000 0.000000 1.689790 
# 
# From -- ./inp_files/2910.got.cif
#   From: 2010.03.12/outbox.cif.g09.slc.cpg/sg125_2_cif.got.tgz:2910.got - 2010.04.06 16:47:52.
