data_PCOD8313943
_publ_section_title
;
Structure prediction by ZEFSAII (Michael W. Deem and Ramdas Pophale) SiO2 
 PCOD8313943
Probable space group: P 4/M B M
;
_chemical_formula_sum "Si O2"
_cell_formula_units_Z 80
_cell_length_a 15.614975
_cell_length_b 15.614975
_cell_length_c 18.817784
_cell_angle_alpha 90.000000
_cell_angle_beta 90.000000
_cell_angle_gamma 90.000000
_cell_volume 4588.292179
_symmetry_space_group_name_H-M "P 4/M B M"
_symmetry_group_IT_number 127
_symmetry_cell_setting 'tetragonal'
loop_
_space_group_symop_operation_xyz
x,y,z
-y,x,z
-x,-y,z
y,-x,z
1/2+x,1/2-y,-z
1/2-x,1/2+y,-z
1/2+y,1/2+x,-z
1/2-y,1/2-x,-z
-x,-y,-z
y,-x,-z
x,y,-z
-y,x,-z
1/2-x,1/2+y,z
1/2+x,1/2-y,z
1/2-y,1/2-x,z
1/2+y,1/2+x,z
loop_
_atom_site_type_symbol
_atom_site_label
_atom_site_fract_x
_atom_site_fract_y
_atom_site_fract_z
Si Si1 0.364109 0.529087 0.417115
Si Si2 0.411043 0.228050 0.310005
Si Si3 0.314048 0.957541 0.194459
Si Si4 0.679663 0.678795 0.189029
Si Si5 0.583955 0.773748 0.078740
O O1 0.399786 0.435202 0.397153
O O2 0.342850 0.533711 0.500000
O O3 0.275062 0.545949 0.376736
O O4 0.341276 0.158725 0.336766
O O5 0.481326 0.178397 0.262845
O O6 0.367143 0.301549 0.262816
O O7 0.389508 0.889508 0.200000
O O8 0.219241 0.915554 0.193255
O O9 0.323426 0.009121 0.120889
O O10 0.755578 0.744423 0.175520
O O11 0.612927 0.689487 0.123456
O O12 0.662952 0.837049 0.071592
O O13 0.552185 0.746303 0.000000
#
# Coordination Sequence:
#
# PCOD8313943 Si02
#       5
#    16  16  16  16  16
#     4   9  18  33  53  76 100 127 163 206 247 286
#     4  10  19  31  49  73 101 130 158 194 243 294
#     4  10  19  31  49  71  93 123 164 201 237 289
#     4   8  16  30  46  65  89 119 157 196 231 274
#     4   9  18  31  45  64  92 122 153 196 247 291
#
# _framework density 17.435682
#
# number of rings (size 3 to 8) (size 9 to 14) (size 15 to 20)
#    0.000    2.800    0.000    3.600    0.000    3.200 
#    0.000    3.000    0.000    7.200    0.000    7.000 
#    0.000    0.000    0.000    0.000    0.000    0.000 
#
# Total GULP energy -991676.395116 kJ/mol
# GULP energy per Si atom -12395.954939 kJ/mol
# Density = 1.739600 g / cm^3
# Si number density = 17.435682 Si / 1000 Ang^3
#
#
#
# Elastic Constant Matrix: (Units=GPa)
#
#
# Indices 1 2 3 4 5 6 
#
# 1 57.2405 15.6591 33.9388 0.0000 0.0000 0.0000
# 2 15.6591 57.2405 33.9388 0.0000 0.0000 0.0000
# 3 33.9388 33.9388 87.3968 0.0000 0.0000 0.0000
# 4 0.0000 0.0000 0.0000 15.2250 0.0000 0.0000
# 5 0.0000 0.0000 0.0000 0.0000 15.2250 0.0000
# 6 0.0000 0.0000 0.0000 0.0000 0.0000 25.4621
#
#
#
# Elastic Compliance Matrix: (Units=1/GPa)
#
#
# Indices 1 2 3 4 5 6 
#
# 1 0.022768 -0.001281 -0.008344 0.000000 0.000000 0.000000
# 2 -0.001281 0.022768 -0.008344 0.000000 0.000000 0.000000
# 3 -0.008344 -0.008344 0.017922 0.000000 0.000000 0.000000
# 4 0.000000 0.000000 0.000000 0.065682 0.000000 0.000000
# 5 0.000000 0.000000 0.000000 0.000000 0.065682 0.000000
# 6 0.000000 0.000000 0.000000 0.000000 0.000000 0.039274
#
#
# Mechanical properties :
#
#
# Convention : Reuss Voigt Hill
#
# Bulk Modulus (GPa) = 36.33713 40.99459 38.66586
# Shear Modulus (GPa) = 17.90786 19.07181 18.48984
#
# Velocity S-wave (km/s) = 3.20829 3.31091 3.26000
# Velocity P-wave (km/s) = 5.88303 6.17892 6.03279
#
# Compressibility (1/GPa) = 0.02752006
#
# Stress axis : x y z
#
# Youngs Moduli (GPa) = 43.92146 43.92146 55.79597
#
# Poissons Ratio (x) = 0.05628 0.46556
# Poissons Ratio (y) = 0.05628 0.46556
# Poissons Ratio (z) = 0.36648 0.36648
#
# Static dielectric constant tensor:
#      x y z
#    x 3.204170 0.000000 0.000000 
#    y 0.000000 3.204170 0.000000 
#    z 0.000000 0.000000 3.244120 
# 
# 
# High freq. dielectric constant tensor:
#      x y z
#    x 1.662500 0.000000 0.000000 
#    y 0.000000 1.662500 0.000000 
#    z 0.000000 0.000000 1.668850 
# 
# From -- ./inp_files/5623.got.cif
#   From: 2010.03.12/outbox.cif.g09.slc.cpg/sg127_3_cif.got.tgz:5623.got - 2010.04.06 17:03:15.
