data_PCOD8313959
_publ_section_title
;
Structure prediction by ZEFSAII (Michael W. Deem and Ramdas Pophale) SiO2 
 PCOD8313959
Probable space group: P 4/M B M
;
_chemical_formula_sum "Si O2"
_cell_formula_units_Z 120
_cell_length_a 14.761077
_cell_length_b 14.761077
_cell_length_c 29.518992
_cell_angle_alpha 90.000000
_cell_angle_beta 90.000000
_cell_angle_gamma 90.000000
_cell_volume 6431.875284
_symmetry_space_group_name_H-M "P 4/M B M"
_symmetry_group_IT_number 127
_symmetry_cell_setting 'tetragonal'
loop_
_space_group_symop_operation_xyz
x,y,z
-y,x,z
-x,-y,z
y,-x,z
1/2+x,1/2-y,-z
1/2-x,1/2+y,-z
1/2+y,1/2+x,-z
1/2-y,1/2-x,-z
-x,-y,-z
y,-x,-z
x,y,-z
-y,x,-z
1/2-x,1/2+y,z
1/2+x,1/2-y,z
1/2-y,1/2-x,z
1/2+y,1/2+x,z
loop_
_atom_site_type_symbol
_atom_site_label
_atom_site_fract_x
_atom_site_fract_y
_atom_site_fract_z
Si Si1 0.430485 0.069516 0.053622
Si Si2 0.183271 0.833192 0.098167
Si Si3 0.278444 0.632850 0.638740
Si Si4 0.217895 0.865464 0.720846
Si Si5 0.855433 0.500369 0.681517
Si Si6 0.764406 0.987147 0.946605
Si Si7 0.090001 0.118947 0.811943
Si Si8 0.084886 0.877918 0.450046
O O1 0.455166 0.167665 0.070820
O O2 0.500000 0.000000 0.076491
O O3 0.436351 0.063650 0.000000
O O4 0.240205 0.740205 0.092150
O O5 0.080255 0.831185 0.079764
O O6 0.182103 0.862577 0.150521
O O7 0.228992 0.909108 0.067299
O O8 0.225285 0.725285 0.639455
O O9 0.354999 0.648415 0.677839
O O10 0.212064 0.546292 0.645549
O O11 0.318795 0.627805 0.589049
O O12 0.272534 0.772534 0.728380
O O13 0.153818 0.881695 0.763052
O O14 0.288943 0.949591 0.717022
O O15 0.920661 0.420661 0.703090
O O16 0.922064 0.577937 0.659685
O O17 0.779771 0.976246 0.000000
O O18 0.982671 0.125452 0.817768
O O19 0.111175 0.839912 0.500000
O O20 0.977784 0.876458 0.444458
#
# Coordination Sequence:
#
# PCOD8313959 Si02
#       8
#     8  16  16  16  16  16  16  16
#     4   9  18  36  60  90 124 153 191 243 293 340
#     4  12  24  42  64  89 123 160 198 243 298 356
#     4  10  19  31  52  81 108 138 182 232 278 332
#     4  10  20  35  57  84 110 142 187 234 282 337
#     4   9  18  33  53  78 111 147 182 227 284 342
#     4  11  23  39  64  93 120 156 199 242 290 348
#     4  11  23  40  59  81 113 151 189 232 290 350
#     4   9  18  32  49  70 101 141 181 225 280 335
#
# _framework density 18.657080000000001
#
# number of rings (size 3 to 8) (size 9 to 14) (size 15 to 20)
#    0.000    1.800    2.000    3.200    0.000    1.867 
#    0.000    2.667    1.467    1.200    0.000    1.867 
#    0.000    0.000    0.000    0.000    0.000    0.000 
#
# Total GULP energy -1487201.868993 kJ/mol
# GULP energy per Si atom -12393.348908 kJ/mol
# Density = 1.861462 g / cm^3
# Si number density = 18.657080 Si / 1000 Ang^3
#
#
#
# Elastic Constant Matrix: (Units=GPa)
#
#
# Indices 1 2 3 4 5 6 
#
# 1 73.2845 26.9611 40.6388 0.0000 0.0000 0.0000
# 2 26.9611 73.2841 40.6392 0.0000 0.0000 0.0000
# 3 40.6388 40.6392 116.4916 0.0000 0.0000 0.0000
# 4 0.0000 0.0000 0.0000 28.0489 0.0000 0.0000
# 5 0.0000 0.0000 0.0000 0.0000 28.0491 0.0000
# 6 0.0000 0.0000 0.0000 0.0000 0.0000 28.5836
#
#
#
# Elastic Compliance Matrix: (Units=1/GPa)
#
#
# Indices 1 2 3 4 5 6 
#
# 1 0.017749 -0.003839 -0.004853 0.000000 0.000000 0.000000
# 2 -0.003839 0.017749 -0.004853 0.000000 0.000000 0.000000
# 3 -0.004853 -0.004853 0.011970 0.000000 0.000000 0.000000
# 4 0.000000 0.000000 0.000000 0.035652 0.000000 0.000000
# 5 0.000000 0.000000 0.000000 0.000000 0.035652 0.000000
# 6 0.000000 0.000000 0.000000 0.000000 0.000000 0.034985
#
#
# Mechanical properties :
#
#
# Convention : Reuss Voigt Hill
#
# Bulk Modulus (GPa) = 49.06876 53.28205 51.17540
# Shear Modulus (GPa) = 26.64712 27.25771 26.95242
#
# Velocity S-wave (km/s) = 3.78333 3.82643 3.80494
# Velocity P-wave (km/s) = 6.74108 6.93849 6.84050
#
# Compressibility (1/GPa) = 0.02037956
#
# Stress axis : x y z
#
# Youngs Moduli (GPa) = 56.34247 56.34182 83.54195
#
# Poissons Ratio (x) = 0.21628 0.40539
# Poissons Ratio (y) = 0.21629 0.40540
# Poissons Ratio (z) = 0.27340 0.27341
#
# Static dielectric constant tensor:
#      x y z
#    x 3.500650 0.000000 0.000000 
#    y 0.000000 3.500650 0.000000 
#    z 0.000000 0.000000 3.287000 
# 
# 
# High freq. dielectric constant tensor:
#      x y z
#    x 1.731690 0.000000 0.000000 
#    y 0.000000 1.731690 0.000000 
#    z 0.000000 0.000000 1.705800 
# 
# From -- ./inp_files/6680.got.cif
#   From: 2010.03.12/outbox.cif.g09.slc.cpg/sg127_4_cif.got.tgz:6680.got - 2010.04.06 17:03:15.
