data_PCOD8313769
_publ_section_title
;
Structure prediction by ZEFSAII (Michael W. Deem and Ramdas Pophale) SiO2 
 PCOD8313769
Probable space group: P 4/N N C
;
_chemical_formula_sum "Si O2"
_cell_formula_units_Z 64
_cell_length_a 13.171988
_cell_length_b 13.171988
_cell_length_c 18.667786
_cell_angle_alpha 90.000000
_cell_angle_beta 90.000000
_cell_angle_gamma 90.000000
_cell_volume 3238.884539
_symmetry_space_group_name_H-M "P 4/N N C"
_symmetry_group_IT_number 126
_space_group.IT_coordinate_system_code '2'
_symmetry_cell_setting 'tetragonal'
loop_
_space_group_symop_operation_xyz
x,y,z
1/2-y,x,z
1/2-x,1/2-y,z
y,1/2-x,z
x,1/2-y,1/2-z
1/2-x,y,1/2-z
y,x,1/2-z
1/2-y,1/2-x,1/2-z
-x,-y,-z
1/2+y,-x,-z
1/2+x,1/2+y,-z
-y,1/2+x,-z
-x,1/2+y,1/2+z
1/2+x,-y,1/2+z
-y,-x,1/2+z
1/2+y,1/2+x,1/2+z
loop_
_atom_site_type_symbol
_atom_site_label
_atom_site_fract_x
_atom_site_fract_y
_atom_site_fract_z
Si Si1 0.598837 0.809293 0.052151
Si Si2 0.714124 0.365912 0.675137
Si Si3 0.792625 0.400290 0.525616
Si Si4 0.513958 0.651622 0.297529
O O1 0.620230 0.692868 0.030351
O O2 0.587568 0.820816 0.137425
O O3 0.499907 0.844150 0.008173
O O4 0.750000 0.250000 0.671245
O O5 0.750000 0.415590 0.750000
O O6 0.766050 0.422952 0.608371
O O7 0.593676 0.380837 0.669260
O O8 0.872244 0.307773 0.520327
O O9 0.495348 0.750000 0.250000
O O10 0.561421 0.561421 0.250000
#
# Coordination Sequence:
#
# PCOD8313769 Si02
#       4
#    16  16  16  16
#     4  11  24  40  58  85 122 162 198 242 302 361
#     4  11  21  39  62  84 120 158 198 248 296 354
#     4  11  21  38  62  89 117 155 201 247 297 350
#     4  12  22  35  60  93 124 156 194 241 306 366
#
# _framework density 19.759889999999999
#
# number of rings (size 3 to 8) (size 9 to 14) (size 15 to 20)
#    0.000    0.750   10.000    0.000    0.000    1.250 
#    4.500    0.000    0.000    0.000    0.000    1.750 
#    0.000    0.000    0.000    0.000    0.000    0.000 
#
# Total GULP energy -793710.558442 kJ/mol
# GULP energy per Si atom -12401.727476 kJ/mol
# Density = 1.971492 g / cm^3
# Si number density = 19.759890 Si / 1000 Ang^3
#
#
#
# Elastic Constant Matrix: (Units=GPa)
#
#
# Indices 1 2 3 4 5 6 
#
# 1 67.6157 6.3814 10.2002 0.0000 0.0000 0.0000
# 2 6.3814 67.6157 10.2002 0.0000 0.0000 0.0000
# 3 10.2002 10.2002 125.6448 0.0000 0.0000 0.0000
# 4 0.0000 0.0000 0.0000 21.7995 0.0000 0.0000
# 5 0.0000 0.0000 0.0000 0.0000 21.7995 0.0000
# 6 0.0000 0.0000 0.0000 0.0000 0.0000 12.0572
#
#
#
# Elastic Compliance Matrix: (Units=1/GPa)
#
#
# Indices 1 2 3 4 5 6 
#
# 1 0.015077 -0.001254 -0.001122 0.000000 0.000000 0.000000
# 2 -0.001254 0.015077 -0.001122 0.000000 0.000000 0.000000
# 3 -0.001122 -0.001122 0.008141 0.000000 0.000000 0.000000
# 4 0.000000 0.000000 0.000000 0.045873 0.000000 0.000000
# 5 0.000000 0.000000 0.000000 0.000000 0.045873 0.000000
# 6 0.000000 0.000000 0.000000 0.000000 0.000000 0.082938
#
#
# Mechanical properties :
#
#
# Convention : Reuss Voigt Hill
#
# Bulk Modulus (GPa) = 31.94978 34.93775 33.44376
# Shear Modulus (GPa) = 21.70065 26.73753 24.21909
#
# Velocity S-wave (km/s) = 3.31753 3.68247 3.50475
# Velocity P-wave (km/s) = 5.55687 5.98334 5.77404
#
# Compressibility (1/GPa) = 0.03129912
#
# Stress axis : x y z
#
# Youngs Moduli (GPa) = 66.32585 66.32585 122.83271
#
# Poissons Ratio (x) = 0.08315 0.13785
# Poissons Ratio (y) = 0.08315 0.13785
# Poissons Ratio (z) = 0.07443 0.07443
#
# Static dielectric constant tensor:
#      x y z
#    x 3.428300 0.000000 0.000000 
#    y 0.000000 3.428300 0.000000 
#    z 0.000000 0.000000 3.908260 
# 
# 
# High freq. dielectric constant tensor:
#      x y z
#    x 1.750280 0.000000 0.000000 
#    y 0.000000 1.750280 0.000000 
#    z 0.000000 0.000000 1.781750 
# 
# From -- ./inp_files/4292.got.cif
#   From: 2010.03.12/outbox.cif.g09.slc.cpg/sg126_3_cif.got.tgz:4292.got - 2010.04.06 16:55:23.
