data_PCOD8313814
_publ_section_title
;
Structure prediction by ZEFSAII (Michael W. Deem and Ramdas Pophale) SiO2 
 PCOD8313814
Probable space group: P 4/N N C
;
_chemical_formula_sum "Si O2"
_cell_formula_units_Z 72
_cell_length_a 17.190324
_cell_length_b 17.190324
_cell_length_c 10.835023
_cell_angle_alpha 90.000000
_cell_angle_beta 90.000000
_cell_angle_gamma 90.000000
_cell_volume 3201.827734
_symmetry_space_group_name_H-M "P 4/N N C"
_symmetry_group_IT_number 126
_space_group.IT_coordinate_system_code '2'
_symmetry_cell_setting 'tetragonal'
loop_
_space_group_symop_operation_xyz
x,y,z
1/2-y,x,z
1/2-x,1/2-y,z
y,1/2-x,z
x,1/2-y,1/2-z
1/2-x,y,1/2-z
y,x,1/2-z
1/2-y,1/2-x,1/2-z
-x,-y,-z
1/2+y,-x,-z
1/2+x,1/2+y,-z
-y,1/2+x,-z
-x,1/2+y,1/2+z
1/2+x,-y,1/2+z
-y,-x,1/2+z
1/2+y,1/2+x,1/2+z
loop_
_atom_site_type_symbol
_atom_site_label
_atom_site_fract_x
_atom_site_fract_y
_atom_site_fract_z
Si Si1 0.363294 0.190542 0.024169
Si Si2 0.552736 0.665160 0.294466
Si Si3 0.904211 0.904211 0.750000
Si Si4 0.900293 0.083139 0.736756
Si Si5 0.846065 0.333590 0.010791
O O1 0.353831 0.282146 0.001526
O O2 0.391623 0.166477 0.157374
O O3 0.436571 0.163188 0.941725
O O4 0.529778 0.750000 0.250000
O O5 0.638605 0.638605 0.250000
O O6 0.489997 0.605150 0.240554
O O7 0.992295 0.892460 0.795526
O O8 0.877869 0.124198 0.609725
O O9 0.852650 0.109641 0.859569
O O10 0.856970 0.243520 0.977212
#
# Coordination Sequence:
#
# PCOD8313814 Si02
#       5
#    16  16   8  16  16
#     4  11  25  45  69  99 138 185 236 284 340 411
#     4  12  24  42  71 104 136 175 226 283 343 409
#     4  12  28  43  66  98 143 182 230 280 346 414
#     4  12  27  45  70 104 141 181 227 289 350 410
#     4  11  25  47  73 102 135 181 234 284 342 416
#
# _framework density 22.487155000000001
#
# number of rings (size 3 to 8) (size 9 to 14) (size 15 to 20)
#    0.000    0.444    3.333    4.667    3.111   10.000 
#    0.000    0.000    0.000    0.000    0.000    0.000 
#    0.000    0.000    0.000    0.000    0.000    0.000 
#
# Total GULP energy -892186.798003 kJ/mol
# GULP energy per Si atom -12391.483306 kJ/mol
# Density = 2.243597 g / cm^3
# Si number density = 22.487155 Si / 1000 Ang^3
#
#
#
# Elastic Constant Matrix: (Units=GPa)
#
#
# Indices 1 2 3 4 5 6 
#
# 1 63.8968 34.9956 13.0271 0.0000 0.0000 0.0000
# 2 34.9956 63.8968 13.0271 0.0000 0.0000 0.0000
# 3 13.0271 13.0271 125.4960 0.0000 0.0000 0.0000
# 4 0.0000 0.0000 0.0000 37.4044 0.0000 0.0000
# 5 0.0000 0.0000 0.0000 0.0000 37.4044 0.0000
# 6 0.0000 0.0000 0.0000 0.0000 0.0000 38.0891
#
#
#
# Elastic Compliance Matrix: (Units=1/GPa)
#
#
# Indices 1 2 3 4 5 6 
#
# 1 0.022498 -0.012102 -0.001079 0.000000 0.000000 0.000000
# 2 -0.012102 0.022498 -0.001079 0.000000 0.000000 0.000000
# 3 -0.001079 -0.001079 0.008192 0.000000 0.000000 0.000000
# 4 0.000000 0.000000 0.000000 0.026735 0.000000 0.000000
# 5 0.000000 0.000000 0.000000 0.000000 0.026735 0.000000
# 6 0.000000 0.000000 0.000000 0.000000 0.000000 0.026254
#
#
# Mechanical properties :
#
#
# Convention : Reuss Voigt Hill
#
# Bulk Modulus (GPa) = 40.53784 41.70994 41.12389
# Shear Modulus (GPa) = 29.47120 35.39555 32.43338
#
# Velocity S-wave (km/s) = 3.62412 3.97171 3.80189
# Velocity P-wave (km/s) = 5.96478 6.29454 6.13188
#
# Compressibility (1/GPa) = 0.02466831
#
# Stress axis : x y z
#
# Youngs Moduli (GPa) = 44.44747 44.44747 122.06390
#
# Poissons Ratio (x) = 0.53791 0.13173
# Poissons Ratio (y) = 0.53791 0.13173
# Poissons Ratio (z) = 0.04797 0.04797
#
# Static dielectric constant tensor:
#      x y z
#    x 4.295180 0.000000 0.000000 
#    y 0.000000 4.295180 0.000000 
#    z 0.000000 0.000000 4.141010 
# 
# 
# High freq. dielectric constant tensor:
#      x y z
#    x 1.897580 0.000000 0.000000 
#    y 0.000000 1.897580 0.000000 
#    z 0.000000 0.000000 1.894590 
# 
# From -- ./inp_files/2668.got.cif
#   From: 2010.03.12/outbox.cif.g09.slc.cpg/sg126_2_cif.got.tgz:2668.got - 2010.04.06 16:55:23.
