data_PCOD8313169
_publ_section_title
;
Structure prediction by ZEFSAII (Michael W. Deem and Ramdas Pophale) SiO2 
 PCOD8313169
Probable space group: P 4/M C C
;
_chemical_formula_sum "Si O2"
_cell_formula_units_Z 112
_cell_length_a 14.616391
_cell_length_b 14.616391
_cell_length_c 28.557211
_cell_angle_alpha 90.000000
_cell_angle_beta 90.000000
_cell_angle_gamma 90.000000
_cell_volume 6100.930741
_symmetry_space_group_name_H-M "P 4/M C C"
_symmetry_group_IT_number 124
_symmetry_cell_setting 'tetragonal'
loop_
_space_group_symop_operation_xyz
x,y,z
-y,x,z
-x,-y,z
y,-x,z
x,-y,1/2-z
-x,y,1/2-z
y,x,1/2-z
-y,-x,1/2-z
-x,-y,-z
y,-x,-z
x,y,-z
-y,x,-z
-x,y,1/2+z
x,-y,1/2+z
-y,-x,1/2+z
y,x,1/2+z
loop_
_atom_site_type_symbol
_atom_site_label
_atom_site_fract_x
_atom_site_fract_y
_atom_site_fract_z
Si Si1 0.536748 0.905722 0.446567
Si Si2 0.261745 0.159829 0.445339
Si Si3 0.232324 0.496257 0.375304
Si Si4 0.252624 0.838585 0.795369
Si Si5 0.686506 0.301748 0.128772
Si Si6 0.927249 0.867893 0.126648
Si Si7 0.452251 0.900917 0.206136
O O1 0.507588 0.903277 0.500000
O O2 0.645606 0.898417 0.439010
O O3 0.485853 0.818224 0.424887
O O4 0.500000 0.000000 0.423637
O O5 0.239436 0.178131 0.500000
O O6 0.270139 0.256325 0.417902
O O7 0.182469 0.100623 0.421401
O O8 0.280924 0.403575 0.362359
O O9 0.306882 0.576976 0.376587
O O10 0.152045 0.525353 0.340642
O O11 0.197822 0.802179 0.750000
O O12 0.284737 0.751234 0.824688
O O13 0.185674 0.900260 0.826448
O O14 0.342281 0.901203 0.784177
O O15 0.035670 0.876607 0.126949
O O16 0.500000 0.849685 0.250000
O O17 0.500000 0.000000 0.202017
#
# Coordination Sequence:
#
# PCOD8313169 Si02
#       7
#    16  16  16  16  16  16  16
#     4   9  18  32  52  78 103 129 166 214 268 319
#     4   9  19  36  55  77 105 136 174 219 267 316
#     4  10  19  34  51  73 107 140 171 216 262 311
#     4  10  21  38  58  80 109 143 177 222 277 326
#     4   9  20  34  53  78 105 139 176 215 264 322
#     4  10  23  39  53  76 108 142 182 219 257 317
#     4  10  21  34  54  83 107 133 175 224 272 322
#
# _framework density 18.357856000000002
#
# number of rings (size 3 to 8) (size 9 to 14) (size 15 to 20)
#    0.000    2.429    0.000    2.143    0.000    8.857 
#    0.000    2.857    0.000    0.000    0.000    6.000 
#    0.000    0.000    0.000    0.000    0.000    0.000 
#
# Total GULP energy -1388385.918529 kJ/mol
# GULP energy per Si atom -12396.302844 kJ/mol
# Density = 1.831607 g / cm^3
# Si number density = 18.357856 Si / 1000 Ang^3
#
#
#
# Elastic Constant Matrix: (Units=GPa)
#
#
# Indices 1 2 3 4 5 6 
#
# 1 88.9556 45.2285 25.6390 0.0000 0.0000 0.0000
# 2 45.2285 88.9551 25.6388 0.0000 0.0000 0.0000
# 3 25.6390 25.6388 92.6349 0.0000 0.0000 0.0000
# 4 0.0000 0.0000 0.0000 24.5788 0.0000 0.0000
# 5 0.0000 0.0000 0.0000 0.0000 24.5791 0.0000
# 6 0.0000 0.0000 0.0000 0.0000 0.0000 28.2563
#
#
#
# Elastic Compliance Matrix: (Units=1/GPa)
#
#
# Indices 1 2 3 4 5 6 
#
# 1 0.015602 -0.007268 -0.002307 0.000000 0.000000 0.000000
# 2 -0.007268 0.015602 -0.002307 0.000000 0.000000 0.000000
# 3 -0.002307 -0.002307 0.012072 0.000000 0.000000 0.000000
# 4 0.000000 0.000000 0.000000 0.040685 0.000000 0.000000
# 5 0.000000 0.000000 0.000000 0.000000 0.040685 0.000000
# 6 0.000000 0.000000 0.000000 0.000000 0.000000 0.035390
#
#
# Mechanical properties :
#
#
# Convention : Reuss Voigt Hill
#
# Bulk Modulus (GPa) = 51.24714 51.50648 51.37681
# Shear Modulus (GPa) = 26.27400 27.08544 26.67972
#
# Velocity S-wave (km/s) = 3.78724 3.84528 3.81637
# Velocity P-wave (km/s) = 6.86298 6.91612 6.88960
#
# Compressibility (1/GPa) = 0.01951329
#
# Stress axis : x y z
#
# Youngs Moduli (GPa) = 64.09618 64.09586 82.83712
#
# Poissons Ratio (x) = 0.46583 0.19107
# Poissons Ratio (y) = 0.46583 0.19107
# Poissons Ratio (z) = 0.14785 0.14784
#
# Static dielectric constant tensor:
#      x y z
#    x 3.355790 0.000000 0.000000 
#    y 0.000000 3.355790 0.000000 
#    z 0.000000 0.000000 3.640280 
# 
# 
# High freq. dielectric constant tensor:
#      x y z
#    x 1.707730 0.000000 0.000000 
#    y 0.000000 1.707730 0.000000 
#    z 0.000000 0.000000 1.723550 
# 
# From -- ./inp_files/7284.got.cif
#   From: 2010.03.12/outbox.cif.g09.slc.cpg/sg124_4_cif.got.tgz:7284.got - 2010.04.06 16:38:57.
