data_PCOD8313616
_publ_section_title
;
Structure prediction by ZEFSAII (Michael W. Deem and Ramdas Pophale) SiO2 
 PCOD8313616
Probable space group: P 4/N B M
;
_chemical_formula_sum "Si O2"
_cell_formula_units_Z 96
_cell_length_a 14.164510
_cell_length_b 14.164510
_cell_length_c 22.848932
_cell_angle_alpha 90.000000
_cell_angle_beta 90.000000
_cell_angle_gamma 90.000000
_cell_volume 4584.257623
_symmetry_space_group_name_H-M "P 4/N B M"
_symmetry_group_IT_number 125
_space_group.IT_coordinate_system_code '2'
_symmetry_cell_setting 'tetragonal'
loop_
_space_group_symop_operation_xyz
x,y,z
1/2-y,x,z
1/2-x,1/2-y,z
y,1/2-x,z
x,1/2-y,-z
1/2-x,y,-z
y,x,-z
1/2-y,1/2-x,-z
-x,-y,-z
1/2+y,-x,-z
1/2+x,1/2+y,-z
-y,1/2+x,-z
-x,1/2+y,z
1/2+x,-y,z
-y,-x,z
1/2+y,1/2+x,z
loop_
_atom_site_type_symbol
_atom_site_label
_atom_site_fract_x
_atom_site_fract_y
_atom_site_fract_z
Si Si1 0.823838 0.323838 0.138208
Si Si2 0.577513 0.575627 0.874329
Si Si3 0.039777 0.804114 0.666004
Si Si4 0.384133 0.330347 0.246607
Si Si5 0.005989 0.745476 0.069061
Si Si6 0.754979 0.596032 0.567306
Si Si7 0.170942 0.829059 0.266194
O O1 0.750000 0.250000 0.162697
O O2 0.769066 0.395375 0.097545
O O3 0.863403 0.363403 0.200782
O O4 0.528536 0.471465 0.868946
O O5 0.573698 0.634298 0.814482
O O6 0.518278 0.637230 0.919447
O O7 0.682438 0.568639 0.901145
O O8 0.121383 0.878618 0.650452
O O9 0.079589 0.713948 0.701576
O O10 0.958515 0.858664 0.703120
O O11 0.997650 0.762252 0.606086
O O12 0.282621 0.377717 0.253013
O O13 0.010549 0.750000 0.000000
O O14 0.845483 0.660746 0.581791
O O15 0.750000 0.564447 0.500000
O O16 0.250000 0.750000 0.265392
#
# Coordination Sequence:
#
# PCOD8313616 Si02
#       7
#     8  16  16  16  16  16   8
#     4  11  24  44  69  95 128 171 226 282 341 405
#     4  12  25  45  66  95 133 167 215 275 342 400
#     4  11  22  40  64  97 136 172 221 269 328 396
#     4  11  23  42  66  93 127 168 219 272 328 398
#     4  12  27  43  67  95 127 171 218 272 338 414
#     4   9  19  41  67  93 132 179 224 270 321 377
#     4   9  22  42  62  88 132 178 209 261 337 400
#
# _framework density 20.941230000000001
#
# number of rings (size 3 to 8) (size 9 to 14) (size 15 to 20)
#    0.000    1.167    2.500    4.000    2.333    3.667 
#    7.500    1.667    0.000    0.000    0.000    0.000 
#    0.000    0.000    0.000    0.000    0.000    0.000 
#
# Total GULP energy -1190213.576664 kJ/mol
# GULP energy per Si atom -12398.058090 kJ/mol
# Density = 2.089357 g / cm^3
# Si number density = 20.941230 Si / 1000 Ang^3
#
#
#
# Elastic Constant Matrix: (Units=GPa)
#
#
# Indices 1 2 3 4 5 6 
#
# 1 77.5605 2.5727 18.8702 0.0000 0.0000 0.0000
# 2 2.5727 77.5605 18.8702 0.0000 0.0000 0.0000
# 3 18.8702 18.8702 102.9325 0.0000 0.0000 0.0000
# 4 0.0000 0.0000 0.0000 27.9105 0.0000 0.0000
# 5 0.0000 0.0000 0.0000 0.0000 27.9105 0.0000
# 6 0.0000 0.0000 0.0000 0.0000 0.0000 27.8013
#
#
#
# Elastic Compliance Matrix: (Units=1/GPa)
#
#
# Indices 1 2 3 4 5 6 
#
# 1 0.013497 0.000162 -0.002504 0.000000 0.000000 0.000000
# 2 0.000162 0.013497 -0.002504 0.000000 0.000000 0.000000
# 3 -0.002504 -0.002504 0.010633 0.000000 0.000000 0.000000
# 4 0.000000 0.000000 0.000000 0.035829 0.000000 0.000000
# 5 0.000000 0.000000 0.000000 0.000000 0.035829 0.000000
# 6 0.000000 0.000000 0.000000 0.000000 0.000000 0.035969
#
#
# Mechanical properties :
#
#
# Convention : Reuss Voigt Hill
#
# Bulk Modulus (GPa) = 35.79820 37.63110 36.71465
# Shear Modulus (GPa) = 30.43980 31.24049 30.84014
#
# Velocity S-wave (km/s) = 3.81672 3.86660 3.84174
# Velocity P-wave (km/s) = 6.04606 6.15978 6.10319
#
# Compressibility (1/GPa) = 0.02793436
#
# Stress axis : x y z
#
# Youngs Moduli (GPa) = 74.09046 74.09046 94.04514
#
# Poissons Ratio (x) = -0.01197 0.23549
# Poissons Ratio (y) = -0.01197 0.23549
# Poissons Ratio (z) = 0.18552 0.18552
#
# Static dielectric constant tensor:
#      x y z
#    x 3.820710 0.000000 0.000000 
#    y 0.000000 3.820710 0.000000 
#    z 0.000000 0.000000 3.759430 
# 
# 
# High freq. dielectric constant tensor:
#      x y z
#    x 1.820020 0.000000 0.000000 
#    y 0.000000 1.820020 0.000000 
#    z 0.000000 0.000000 1.825930 
# 
# From -- ./inp_files/5976.got.cif
#   From: 2010.03.12/outbox.cif.g09.slc.cpg/sg125_3_cif.got.tgz:5976.got - 2010.04.06 16:47:52.
