data_PCOD8313656
_publ_section_title
;
Structure prediction by ZEFSAII (Michael W. Deem and Ramdas Pophale) SiO2 
 PCOD8313656
Probable space group: P 4/N N C
;
_chemical_formula_sum "Si O2"
_cell_formula_units_Z 112
_cell_length_a 15.116986
_cell_length_b 15.116986
_cell_length_c 24.133127
_cell_angle_alpha 90.000000
_cell_angle_beta 90.000000
_cell_angle_gamma 90.000000
_cell_volume 5514.980994
_symmetry_space_group_name_H-M "P 4/N N C"
_symmetry_group_IT_number 126
_space_group.IT_coordinate_system_code '2'
_symmetry_cell_setting 'tetragonal'
loop_
_space_group_symop_operation_xyz
x,y,z
1/2-y,x,z
1/2-x,1/2-y,z
y,1/2-x,z
x,1/2-y,1/2-z
1/2-x,y,1/2-z
y,x,1/2-z
1/2-y,1/2-x,1/2-z
-x,-y,-z
1/2+y,-x,-z
1/2+x,1/2+y,-z
-y,1/2+x,-z
-x,1/2+y,1/2+z
1/2+x,-y,1/2+z
-y,-x,1/2+z
1/2+y,1/2+x,1/2+z
loop_
_atom_site_type_symbol
_atom_site_label
_atom_site_fract_x
_atom_site_fract_y
_atom_site_fract_z
Si Si1 0.605926 0.740721 0.480456
Si Si2 0.624110 0.384175 0.429634
Si Si3 0.150326 0.355345 0.311151
Si Si4 0.204407 0.555107 0.043582
Si Si5 0.441829 0.098893 0.813051
Si Si6 0.977591 0.725121 0.365682
Si Si7 0.046527 0.025361 0.389205
O O1 0.667406 0.656807 0.488608
O O2 0.532302 0.740280 0.527748
O O3 0.562192 0.731761 0.420721
O O4 0.611971 0.277814 0.421962
O O5 0.671547 0.395796 0.488530
O O6 0.685229 0.424593 0.379971
O O7 0.532205 0.440253 0.429153
O O8 0.126898 0.253362 0.317792
O O9 0.115779 0.384222 0.250000
O O10 0.109454 0.409084 0.361280
O O11 0.117424 0.534552 0.078726
O O12 0.426876 0.073125 0.750000
O O13 0.480919 0.198218 0.819285
O O14 0.349012 0.090280 0.844896
O O15 0.512482 0.033107 0.838705
#
# Coordination Sequence:
#
# PCOD8313656 Si02
#       7
#    16  16  16  16  16  16  16
#     4  10  19  33  57  87 123 158 196 251 321 378
#     4  10  24  39  60  85 120 162 206 257 310 373
#     4   9  18  34  59  89 120 152 193 251 315 373
#     4  11  23  38  58  84 120 162 210 252 306 381
#     4  11  23  39  62  90 120 160 205 261 316 378
#     4  10  21  39  60  86 123 156 202 254 319 378
#     4  11  22  38  60  87 121 160 205 256 313 373
#
# _framework density 20.308319000000001
#
# number of rings (size 3 to 8) (size 9 to 14) (size 15 to 20)
#    0.000    1.714    1.429    3.429    4.000    0.571 
#    0.000    2.143    0.000    0.000    0.000    4.000 
#    0.000    0.000    0.000    0.000    0.000    0.000 
#
# Total GULP energy -1388530.489835 kJ/mol
# GULP energy per Si atom -12397.593659 kJ/mol
# Density = 2.026210 g / cm^3
# Si number density = 20.308319 Si / 1000 Ang^3
#
#
#
# Elastic Constant Matrix: (Units=GPa)
#
#
# Indices 1 2 3 4 5 6 
#
# 1 98.1372 38.5990 38.6253 0.0000 0.0000 0.0000
# 2 38.5990 98.1375 38.6254 0.0000 0.0000 0.0000
# 3 38.6253 38.6254 85.5238 0.0000 0.0000 0.0000
# 4 0.0000 0.0000 0.0000 21.7240 0.0000 0.0000
# 5 0.0000 0.0000 0.0000 0.0000 21.7234 0.0000
# 6 0.0000 0.0000 0.0000 0.0000 0.0000 22.9594
#
#
#
# Elastic Compliance Matrix: (Units=1/GPa)
#
#
# Indices 1 2 3 4 5 6 
#
# 1 0.013307 -0.003489 -0.004434 0.000000 0.000000 0.000000
# 2 -0.003489 0.013307 -0.004434 0.000000 0.000000 0.000000
# 3 -0.004434 -0.004434 0.015698 0.000000 0.000000 0.000000
# 4 0.000000 0.000000 0.000000 0.046032 0.000000 0.000000
# 5 0.000000 0.000000 0.000000 0.000000 0.046033 0.000000
# 6 0.000000 0.000000 0.000000 0.000000 0.000000 0.043555
#
#
# Mechanical properties :
#
#
# Convention : Reuss Voigt Hill
#
# Bulk Modulus (GPa) = 56.82564 57.05534 56.94049
# Shear Modulus (GPa) = 23.97922 24.34462 24.16192
#
# Velocity S-wave (km/s) = 3.43994 3.46605 3.45302
# Velocity P-wave (km/s) = 6.61965 6.64632 6.63300
#
# Compressibility (1/GPa) = 0.01759769
#
# Stress axis : x y z
#
# Youngs Moduli (GPa) = 75.14689 75.14710 63.70200
#
# Poissons Ratio (x) = 0.26216 0.28248
# Poissons Ratio (y) = 0.26216 0.28248
# Poissons Ratio (z) = 0.33323 0.33323
#
# Static dielectric constant tensor:
#      x y z
#    x 3.737310 0.000000 0.000000 
#    y 0.000000 3.737320 0.000000 
#    z 0.000000 0.000000 3.611830 
# 
# 
# High freq. dielectric constant tensor:
#      x y z
#    x 1.794240 0.000000 0.000000 
#    y 0.000000 1.794240 0.000000 
#    z 0.000000 0.000000 1.782110 
# 
# From -- ./inp_files/5839.got.cif
#   From: 2010.03.12/outbox.cif.g09.slc.cpg/sg126_3_cif.got.tgz:5839.got - 2010.04.06 16:55:23.
