data_PCOD8313340
_publ_section_title
;
Structure prediction by ZEFSAII (Michael W. Deem and Ramdas Pophale) SiO2 
 PCOD8313340
Probable space group: P 4/M C C
;
_chemical_formula_sum "Si O2"
_cell_formula_units_Z 72
_cell_length_a 11.639518
_cell_length_b 11.639518
_cell_length_c 26.753942
_cell_angle_alpha 90.000000
_cell_angle_beta 90.000000
_cell_angle_gamma 90.000000
_cell_volume 3624.580701
_symmetry_space_group_name_H-M "P 4/M C C"
_symmetry_group_IT_number 124
_symmetry_cell_setting 'tetragonal'
loop_
_space_group_symop_operation_xyz
x,y,z
-y,x,z
-x,-y,z
y,-x,z
x,-y,1/2-z
-x,y,1/2-z
y,x,1/2-z
-y,-x,1/2-z
-x,-y,-z
y,-x,-z
x,y,-z
-y,x,-z
-x,y,1/2+z
x,-y,1/2+z
-y,-x,1/2+z
y,x,1/2+z
loop_
_atom_site_type_symbol
_atom_site_label
_atom_site_fract_x
_atom_site_fract_y
_atom_site_fract_z
Si Si1 0.000000 0.192176 0.750000
Si Si2 0.128849 0.510322 0.415362
Si Si3 0.310004 0.539782 0.500000
Si Si4 0.139927 0.127590 0.000000
Si Si5 0.714893 0.081901 0.150063
Si Si6 0.858076 0.254990 0.100646
O O1 0.983179 0.277631 0.703080
O O2 0.112576 0.112576 0.750000
O O3 0.225341 0.559714 0.452781
O O4 0.118458 0.585981 0.364884
O O5 0.174885 0.387918 0.397208
O O6 0.000000 0.500000 0.440190
O O7 0.365418 0.411462 0.500000
O O8 0.201412 0.182291 0.048116
O O9 0.008008 0.160977 0.000000
O O10 0.794488 0.194009 0.147078
O O11 0.762984 0.994167 0.107968
#
# Coordination Sequence:
#
# PCOD8313340 Si02
#       6
#     8  16   8   8  16  16
#     4  11  22  38  67  92 118 151 198 259 316 372
#     4  10  23  39  57  86 127 171 203 247 313 372
#     4  11  22  39  63  89 120 169 224 262 294 357
#     4  11  21  31  52  86 120 160 201 244 287 361
#     4  11  22  38  62  86 122 159 203 257 310 373
#     4  11  21  37  57  89 125 165 203 245 307 367
#
# _framework density 19.864364999999999
#
# number of rings (size 3 to 8) (size 9 to 14) (size 15 to 20)
#    0.000    1.222    4.444    2.333    0.000    4.000 
#    0.000    5.000    0.000    0.000    0.000    0.000 
#    0.000    0.000    4.000    0.000    0.000    0.000 
#
# Total GULP energy -892369.741044 kJ/mol
# GULP energy per Si atom -12394.024181 kJ/mol
# Density = 1.981915 g / cm^3
# Si number density = 19.864365 Si / 1000 Ang^3
#
#
#
# Elastic Constant Matrix: (Units=GPa)
#
#
# Indices 1 2 3 4 5 6 
#
# 1 88.1872 36.8476 42.7236 0.0000 0.0000 0.0000
# 2 36.8476 88.1872 42.7236 0.0000 0.0000 0.0000
# 3 42.7236 42.7236 125.7538 0.0000 0.0000 0.0000
# 4 0.0000 0.0000 0.0000 26.4667 0.0000 0.0000
# 5 0.0000 0.0000 0.0000 0.0000 26.4667 0.0000
# 6 0.0000 0.0000 0.0000 0.0000 0.0000 24.1679
#
#
#
# Elastic Compliance Matrix: (Units=1/GPa)
#
#
# Indices 1 2 3 4 5 6 
#
# 1 0.014947 -0.004531 -0.003539 0.000000 0.000000 0.000000
# 2 -0.004531 0.014947 -0.003539 0.000000 0.000000 0.000000
# 3 -0.003539 -0.003539 0.010357 0.000000 0.000000 0.000000
# 4 0.000000 0.000000 0.000000 0.037783 0.000000 0.000000
# 5 0.000000 0.000000 0.000000 0.000000 0.037783 0.000000
# 6 0.000000 0.000000 0.000000 0.000000 0.000000 0.041377
#
#
# Mechanical properties :
#
#
# Convention : Reuss Voigt Hill
#
# Bulk Modulus (GPa) = 58.70709 60.74645 59.72677
# Shear Modulus (GPa) = 26.86874 27.40913 27.13893
#
# Velocity S-wave (km/s) = 3.68177 3.71861 3.70024
# Velocity P-wave (km/s) = 6.90595 7.00603 6.95617
#
# Compressibility (1/GPa) = 0.01703372
#
# Stress axis : x y z
#
# Youngs Moduli (GPa) = 66.90246 66.90246 96.55695
#
# Poissons Ratio (x) = 0.30314 0.34169
# Poissons Ratio (y) = 0.30314 0.34169
# Poissons Ratio (z) = 0.23675 0.23675
#
# Static dielectric constant tensor:
#      x y z
#    x 3.634210 0.000000 0.000000 
#    y 0.000000 3.634210 0.000000 
#    z 0.000000 0.000000 3.416200 
# 
# 
# High freq. dielectric constant tensor:
#      x y z
#    x 1.775760 0.000000 0.000000 
#    y 0.000000 1.775760 0.000000 
#    z 0.000000 0.000000 1.748550 
# 
# From -- ./inp_files/6517.got.cif
#   From: 2010.03.12/outbox.cif.g09.slc.cpg/sg124_4_cif.got.tgz:6517.got - 2010.04.06 16:38:57.
