data_PCOD8313478
_publ_section_title
;
Structure prediction by ZEFSAII (Michael W. Deem and Ramdas Pophale) SiO2 
 PCOD8313478
Probable space group: P 4/N B M
;
_chemical_formula_sum "Si O2"
_cell_formula_units_Z 72
_cell_length_a 11.511250
_cell_length_b 11.511250
_cell_length_c 27.083732
_cell_angle_alpha 90.000000
_cell_angle_beta 90.000000
_cell_angle_gamma 90.000000
_cell_volume 3588.834900
_symmetry_space_group_name_H-M "P 4/N B M"
_symmetry_group_IT_number 125
_space_group.IT_coordinate_system_code '2'
_symmetry_cell_setting 'tetragonal'
loop_
_space_group_symop_operation_xyz
x,y,z
1/2-y,x,z
1/2-x,1/2-y,z
y,1/2-x,z
x,1/2-y,-z
1/2-x,y,-z
y,x,-z
1/2-y,1/2-x,-z
-x,-y,-z
1/2+y,-x,-z
1/2+x,1/2+y,-z
-y,1/2+x,-z
-x,1/2+y,z
1/2+x,-y,z
-y,-x,z
1/2+y,1/2+x,z
loop_
_atom_site_type_symbol
_atom_site_label
_atom_site_fract_x
_atom_site_fract_y
_atom_site_fract_z
Si Si1 0.750000 0.435361 0.000000
Si Si2 0.521806 0.021806 0.418787
Si Si3 0.312146 0.069106 0.660259
Si Si4 0.153793 0.846207 0.277602
Si Si5 0.715641 0.563164 0.900704
Si Si6 0.881720 0.118281 0.486786
Si Si7 0.156585 0.843416 0.160855
O O1 0.796985 0.513842 0.044258
O O2 0.855347 0.355347 0.980299
O O3 0.481259 0.140394 0.391508
O O4 0.546065 0.046065 0.474602
O O5 0.421175 0.921175 0.429985
O O6 0.395933 0.179165 0.665163
O O7 0.319472 0.975123 0.703520
O O8 0.250000 0.750000 0.295430
O O9 0.149788 0.850213 0.219189
O O10 0.842273 0.616008 0.893023
O O11 0.695843 0.467008 0.859527
O O12 0.910412 0.250000 0.500000
O O13 0.250000 0.750000 0.142530
#
# Coordination Sequence:
#
# PCOD8313478 Si02
#       7
#     8   8  16   8  16   8   8
#     4  11  22  37  64  96 128 167 211 260 314 370
#     4  10  20  36  58  89 128 172 218 267 317 377
#     4  10  22  41  65  94 125 163 216 273 328 391
#     4  10  25  43  66  94 124 164 207 269 336 399
#     4  11  25  42  64  95 127 166 213 260 312 379
#     4  10  20  34  53  86 130 178 220 259 309 376
#     4  11  25  45  66  92 128 166 208 257 329 399
#
# _framework density 20.062221999999998
#
# number of rings (size 3 to 8) (size 9 to 14) (size 15 to 20)
#    0.000    1.556    1.111    2.667    6.222    3.556 
#    8.000    2.222    0.000    5.333    0.000    0.000 
#    0.000    0.000    0.000    0.000    0.000    0.000 
#
# Total GULP energy -892032.608513 kJ/mol
# GULP energy per Si atom -12389.341785 kJ/mol
# Density = 2.001656 g / cm^3
# Si number density = 20.062222 Si / 1000 Ang^3
#
#
#
# Elastic Constant Matrix: (Units=GPa)
#
#
# Indices 1 2 3 4 5 6 
#
# 1 548.1802 -337.2032 53.2793 0.0000 0.0000 0.0000
# 2 -337.2032 548.1802 53.2793 0.0000 0.0000 0.0000
# 3 53.2793 53.2793 101.5549 0.0000 0.0000 0.0000
# 4 0.0000 0.0000 0.0000 -251.1579 0.0000 0.0000
# 5 0.0000 0.0000 0.0000 0.0000 -251.1579 0.0000
# 6 0.0000 0.0000 0.0000 0.0000 0.0000 13.0942
#
#
#
# Elastic Compliance Matrix: (Units=1/GPa)
#
#
# Indices 1 2 3 4 5 6 
#
# 1 0.003789 0.002660 -0.003383 0.000000 0.000000 0.000000
# 2 0.002660 0.003789 -0.003383 0.000000 0.000000 0.000000
# 3 -0.003383 -0.003383 0.013397 0.000000 0.000000 0.000000
# 4 0.000000 0.000000 0.000000 -0.003982 0.000000 0.000000
# 5 0.000000 0.000000 0.000000 0.000000 -0.003982 0.000000
# 6 0.000000 0.000000 0.000000 0.000000 0.000000 0.076370
#
#
# Mechanical properties :
#
#
# Convention : Reuss Voigt Hill
#
# Bulk Modulus (GPa) = 78.36202 81.84736 80.10469
# Shear Modulus (GPa) = 49.09236 -2.60700 23.24268
#
# Velocity S-wave (km/s) = 4.95209 -1.14118 3.40741
# Velocity P-wave (km/s) = 8.47596 6.25691 7.44952
#
# Compressibility (1/GPa) = 0.01276128
#
# Stress axis : x y z
#
# Youngs Moduli (GPa) = 263.92019 263.92019 74.64502
#
# Poissons Ratio (x) = -0.70191 0.25254
# Poissons Ratio (y) = -0.70191 0.25254
# Poissons Ratio (z) = 0.89288 0.89288
#
# Static dielectric constant tensor:
#      x y z
#    x 3.955570 0.000000 0.000000 
#    y 0.000000 3.955570 0.000000 
#    z 0.000000 0.000000 3.444050 
# 
# 
# High freq. dielectric constant tensor:
#      x y z
#    x 1.799420 0.000000 0.000000 
#    y 0.000000 1.799420 0.000000 
#    z 0.000000 0.000000 1.773350 
# 
# From -- ./inp_files/6377.got.cif
#   From: 2010.03.12/outbox.cif.g09.slc.cpg/sg125_4_cif.got.tgz:6377.got - 2010.04.06 16:47:52.
