data_PCOD8313824
_publ_section_title
;
Structure prediction by ZEFSAII (Michael W. Deem and Ramdas Pophale) SiO2 
 PCOD8313824
Probable space group: P 4/N N C
;
_chemical_formula_sum "Si O2"
_cell_formula_units_Z 64
_cell_length_a 13.712283
_cell_length_b 13.712283
_cell_length_c 24.301400
_cell_angle_alpha 90.000000
_cell_angle_beta 90.000000
_cell_angle_gamma 90.000000
_cell_volume 4569.312171
_symmetry_space_group_name_H-M "P 4/N N C"
_symmetry_group_IT_number 126
_space_group.IT_coordinate_system_code '2'
_symmetry_cell_setting 'tetragonal'
loop_
_space_group_symop_operation_xyz
x,y,z
1/2-y,x,z
1/2-x,1/2-y,z
y,1/2-x,z
x,1/2-y,1/2-z
1/2-x,y,1/2-z
y,x,1/2-z
1/2-y,1/2-x,1/2-z
-x,-y,-z
1/2+y,-x,-z
1/2+x,1/2+y,-z
-y,1/2+x,-z
-x,1/2+y,1/2+z
1/2+x,-y,1/2+z
-y,-x,1/2+z
1/2+y,1/2+x,1/2+z
loop_
_atom_site_type_symbol
_atom_site_label
_atom_site_fract_x
_atom_site_fract_y
_atom_site_fract_z
Si Si1 0.636906 0.363094 1.000000
Si Si2 0.357670 0.516410 0.895138
Si Si3 0.865033 0.250000 0.686585
Si Si4 0.516410 0.357670 0.895138
O O1 0.575344 0.398545 0.947487
O O2 0.750000 0.381767 0.987073
O O3 0.601455 0.424656 0.052512
O O4 0.346410 0.590353 0.843159
O O5 0.430065 0.430065 0.878853
O O6 0.250000 0.472451 0.908953
O O7 0.750000 0.250000 0.678434
O O8 0.895818 0.250000 0.750000
O O9 0.909647 0.346410 0.656842
#
# Coordination Sequence:
#
# PCOD8313824 Si02
#       4
#    16  16  16  16
#     4   9  15  26  46  66  88 114 152 194 232 262
#     4   9  18  28  43  65  90 120 151 183 222 270
#     4   9  18  32  47  63  87 117 152 190 225 262
#     4   9  18  28  43  65  90 120 151 183 222 270
#
# _framework density 14.006485
#
# number of rings (size 3 to 8) (size 9 to 14) (size 15 to 20)
#    1.500    1.500    0.000    2.250    0.000    1.500 
#    0.000    0.000    0.000    1.500    0.000    0.000 
#    0.000    9.000    0.000   22.000    0.000    0.000 
#
# Total GULP energy -792888.190222 kJ/mol
# GULP energy per Si atom -12388.877972 kJ/mol
# Density = 1.397461 g / cm^3
# Si number density = 14.006485 Si / 1000 Ang^3
#
#
#
# Elastic Constant Matrix: (Units=GPa)
#
#
# Indices 1 2 3 4 5 6 
#
# 1 65.1343 45.1422 45.8621 0.0000 0.0000 0.0000
# 2 45.1422 65.1343 45.8621 0.0000 0.0000 0.0000
# 3 45.8621 45.8621 127.8582 0.0000 0.0000 0.0000
# 4 0.0000 0.0000 0.0000 13.3565 0.0000 0.0000
# 5 0.0000 0.0000 0.0000 0.0000 13.3565 0.0000
# 6 0.0000 0.0000 0.0000 0.0000 0.0000 27.6990
#
#
#
# Elastic Compliance Matrix: (Units=1/GPa)
#
#
# Indices 1 2 3 4 5 6 
#
# 1 0.031472 -0.018548 -0.004636 0.000000 0.000000 0.000000
# 2 -0.018548 0.031472 -0.004636 0.000000 0.000000 0.000000
# 3 -0.004636 -0.004636 0.011147 0.000000 0.000000 0.000000
# 4 0.000000 0.000000 0.000000 0.074870 0.000000 0.000000
# 5 0.000000 0.000000 0.000000 0.000000 0.074870 0.000000
# 6 0.000000 0.000000 0.000000 0.000000 0.000000 0.036102
#
#
# Mechanical properties :
#
#
# Convention : Reuss Voigt Hill
#
# Bulk Modulus (GPa) = 54.19550 59.09551 56.64551
# Shear Modulus (GPa) = 15.54136 18.96643 17.25390
#
# Velocity S-wave (km/s) = 3.33465 3.68383 3.51358
# Velocity P-wave (km/s) = 7.32146 7.77028 7.54920
#
# Compressibility (1/GPa) = 0.01845171
#
# Stress axis : x y z
#
# Youngs Moduli (GPa) = 31.77442 31.77442 89.71168
#
# Poissons Ratio (x) = 0.58935 0.41588
# Poissons Ratio (y) = 0.58935 0.41588
# Poissons Ratio (z) = 0.14730 0.14730
#
# Static dielectric constant tensor:
#      x y z
#    x 2.525770 0.000000 0.000000 
#    y 0.000000 2.525770 0.000000 
#    z 0.000000 0.000000 2.786270 
# 
# 
# High freq. dielectric constant tensor:
#      x y z
#    x 1.515910 0.000000 0.000000 
#    y 0.000000 1.515910 0.000000 
#    z 0.000000 0.000000 1.539490 
# 
# From -- ./inp_files/6056.got.cif
#   From: 2010.03.12/outbox.cif.g09.slc.cpg/sg126_4_cif.got.tgz:6056.got - 2010.04.06 16:55:23.
