data_PCOD8313613
_publ_section_title
;
Structure prediction by ZEFSAII (Michael W. Deem and Ramdas Pophale) SiO2 
 PCOD8313613
Probable space group: P 4/N B M
;
_chemical_formula_sum "Si O2"
_cell_formula_units_Z 96
_cell_length_a 14.547961
_cell_length_b 14.547961
_cell_length_c 23.756552
_cell_angle_alpha 90.000000
_cell_angle_beta 90.000000
_cell_angle_gamma 90.000000
_cell_volume 5027.911956
_symmetry_space_group_name_H-M "P 4/N B M"
_symmetry_group_IT_number 125
_space_group.IT_coordinate_system_code '2'
_symmetry_cell_setting 'tetragonal'
loop_
_space_group_symop_operation_xyz
x,y,z
1/2-y,x,z
1/2-x,1/2-y,z
y,1/2-x,z
x,1/2-y,-z
1/2-x,y,-z
y,x,-z
1/2-y,1/2-x,-z
-x,-y,-z
1/2+y,-x,-z
1/2+x,1/2+y,-z
-y,1/2+x,-z
-x,1/2+y,z
1/2+x,-y,z
-y,-x,z
1/2+y,1/2+x,z
loop_
_atom_site_type_symbol
_atom_site_label
_atom_site_fract_x
_atom_site_fract_y
_atom_site_fract_z
Si Si1 0.287774 0.102038 0.149511
Si Si2 0.421627 0.070251 0.674557
Si Si3 0.826259 0.326259 0.246907
Si Si4 0.174291 0.674291 0.875289
Si Si5 0.360526 0.146642 0.437184
Si Si6 0.984800 0.755610 0.731855
Si Si7 0.454716 0.798052 0.057981
O O1 0.360386 0.184418 0.148326
O O2 0.292269 0.039412 0.205541
O O3 0.321486 0.044027 0.095025
O O4 0.404651 0.075010 0.607669
O O5 0.481723 0.158028 0.690766
O O6 0.327228 0.080500 0.710592
O O7 0.476600 0.976600 0.688738
O O8 0.750000 0.250000 0.242397
O O9 0.860316 0.360316 0.185190
O O10 0.783297 0.413360 0.277420
O O11 0.250000 0.750000 0.865112
O O12 0.091006 0.714885 0.909372
O O13 0.377096 0.254282 0.427916
O O14 0.386960 0.113041 0.500000
O O15 0.386592 0.886592 0.050174
O O16 0.485045 0.750000 0.000000
#
# Coordination Sequence:
#
# PCOD8313613 Si02
#       7
#    16  16   8   8  16  16  16
#     4  11  25  44  63  86 122 165 201 247 311 365
#     4  12  24  37  61  94 125 165 213 256 310 377
#     4  11  22  40  60  89 128 165 195 251 316 371
#     4   9  18  32  60  86 112 149 186 235 297 354
#     4   9  18  35  61  89 118 159 210 261 312 365
#     4  12  23  39  62  92 124 162 208 253 307 378
#     4  11  22  40  65  94 118 150 200 249 302 366
#
# _framework density 19.093412000000001
#
# number of rings (size 3 to 8) (size 9 to 14) (size 15 to 20)
#    0.000    1.167    6.667    1.000    0.000    2.000 
#    3.000    1.667    0.000    0.000    0.000    0.000 
#    0.000    2.667    0.000    0.000    0.000    0.000 
#
# Total GULP energy -1189969.435190 kJ/mol
# GULP energy per Si atom -12395.514950 kJ/mol
# Density = 1.904995 g / cm^3
# Si number density = 19.093412 Si / 1000 Ang^3
#
#
#
# Elastic Constant Matrix: (Units=GPa)
#
#
# Indices 1 2 3 4 5 6 
#
# 1 71.4693 15.9873 30.9354 0.0000 0.0000 0.0000
# 2 15.9873 71.4697 30.9354 0.0000 0.0000 0.0000
# 3 30.9354 30.9354 115.1372 0.0000 0.0000 0.0000
# 4 0.0000 0.0000 0.0000 30.6373 0.0000 0.0000
# 5 0.0000 0.0000 0.0000 0.0000 30.6372 0.0000
# 6 0.0000 0.0000 0.0000 0.0000 0.0000 25.4949
#
#
#
# Elastic Compliance Matrix: (Units=1/GPa)
#
#
# Indices 1 2 3 4 5 6 
#
# 1 0.016071 -0.001953 -0.003793 0.000000 0.000000 0.000000
# 2 -0.001953 0.016071 -0.003793 0.000000 0.000000 0.000000
# 3 -0.003793 -0.003793 0.010724 0.000000 0.000000 0.000000
# 4 0.000000 0.000000 0.000000 0.032640 0.000000 0.000000
# 5 0.000000 0.000000 0.000000 0.000000 0.032640 0.000000
# 6 0.000000 0.000000 0.000000 0.000000 0.000000 0.039224
#
#
# Mechanical properties :
#
#
# Convention : Reuss Voigt Hill
#
# Bulk Modulus (GPa) = 42.04109 45.97693 44.00901
# Shear Modulus (GPa) = 28.67363 29.36841 29.02102
#
# Velocity S-wave (km/s) = 3.87945 3.92617 3.90288
# Velocity P-wave (km/s) = 6.49102 6.68471 6.58858
#
# Compressibility (1/GPa) = 0.02378625
#
# Stress axis : x y z
#
# Youngs Moduli (GPa) = 62.22464 62.22509 93.25219
#
# Poissons Ratio (x) = 0.12153 0.35372
# Poissons Ratio (y) = 0.12153 0.35372
# Poissons Ratio (z) = 0.23603 0.23603
#
# Static dielectric constant tensor:
#      x y z
#    x 3.275930 0.000000 0.000000 
#    y 0.000000 3.275930 0.000000 
#    z 0.000000 0.000000 3.616770 
# 
# 
# High freq. dielectric constant tensor:
#      x y z
#    x 1.734050 0.000000 0.000000 
#    y 0.000000 1.734050 0.000000 
#    z 0.000000 0.000000 1.746720 
# 
# From -- ./inp_files/5958.got.cif
#   From: 2010.03.12/outbox.cif.g09.slc.cpg/sg125_3_cif.got.tgz:5958.got - 2010.04.06 16:47:52.
