data_PCOD8313294
_publ_section_title
;
Structure prediction by ZEFSAII (Michael W. Deem and Ramdas Pophale) SiO2 
 PCOD8313294
Probable space group: P 4/M C C
;
_chemical_formula_sum "Si O2"
_cell_formula_units_Z 80
_cell_length_a 10.760080
_cell_length_b 10.760080
_cell_length_c 36.737294
_cell_angle_alpha 90.000000
_cell_angle_beta 90.000000
_cell_angle_gamma 90.000000
_cell_volume 4253.418977
_symmetry_space_group_name_H-M "P 4/M C C"
_symmetry_group_IT_number 124
_symmetry_cell_setting 'tetragonal'
loop_
_space_group_symop_operation_xyz
x,y,z
-y,x,z
-x,-y,z
y,-x,z
x,-y,1/2-z
-x,y,1/2-z
y,x,1/2-z
-y,-x,1/2-z
-x,-y,-z
y,-x,-z
x,y,-z
-y,x,-z
-x,y,1/2+z
x,-y,1/2+z
-y,-x,1/2+z
y,x,1/2+z
loop_
_atom_site_type_symbol
_atom_site_label
_atom_site_fract_x
_atom_site_fract_y
_atom_site_fract_z
Si Si1 0.011486 0.650113 0.686657
Si Si2 0.202689 0.020892 0.959870
Si Si3 0.631181 0.062669 0.391636
Si Si4 0.276436 0.755241 0.290175
Si Si5 0.411298 0.319216 0.140268
O O1 0.992546 0.693290 0.644845
O O2 0.906283 0.718607 0.711225
O O3 0.000000 0.500000 0.690855
O O4 0.145228 0.701673 0.696955
O O5 0.301430 0.027664 0.928313
O O6 0.108815 0.133795 0.955529
O O7 0.265912 0.027646 0.000000
O O8 0.630340 0.211988 0.387314
O O9 0.500000 0.000000 0.395981
O O10 0.300305 0.699696 0.250000
O O11 0.387650 0.716365 0.317458
O O12 0.556648 0.335281 0.132490
#
# Coordination Sequence:
#
# PCOD8313294 Si02
#       5
#    16  16  16  16  16
#     4  10  23  39  55  84 117 151 198 253 296 350
#     4   9  20  37  58  88 120 146 180 235 290 340
#     4  10  21  35  61  84 113 151 192 232 288 354
#     4  11  22  37  58  80 114 157 197 244 305 355
#     4  10  22  38  56  82 116 149 196 249 287 335
#
# _framework density 18.808398
#
# number of rings (size 3 to 8) (size 9 to 14) (size 15 to 20)
#    0.000    2.000    0.000    4.800    8.400    4.800 
#    0.000    2.000    0.000    0.000    0.000    1.400 
#    0.000    0.000    0.000    0.000    0.000    0.000 
#
# Total GULP energy -991553.206193 kJ/mol
# GULP energy per Si atom -12394.415077 kJ/mol
# Density = 1.876559 g / cm^3
# Si number density = 18.808398 Si / 1000 Ang^3
#
#
#
# Elastic Constant Matrix: (Units=GPa)
#
#
# Indices 1 2 3 4 5 6 
#
# 1 55.4142 33.6066 13.1594 0.0000 0.0000 0.0000
# 2 33.6066 55.4145 13.1596 0.0000 0.0000 0.0000
# 3 13.1594 13.1596 91.9038 0.0000 0.0000 0.0000
# 4 0.0000 0.0000 0.0000 14.2724 0.0000 0.0000
# 5 0.0000 0.0000 0.0000 0.0000 14.2722 0.0000
# 6 0.0000 0.0000 0.0000 0.0000 0.0000 27.2089
#
#
#
# Elastic Compliance Matrix: (Units=1/GPa)
#
#
# Indices 1 2 3 4 5 6 
#
# 1 0.028793 -0.017063 -0.001680 0.000000 0.000000 0.000000
# 2 -0.017063 0.028792 -0.001680 0.000000 0.000000 0.000000
# 3 -0.001680 -0.001680 0.011362 0.000000 0.000000 0.000000
# 4 0.000000 0.000000 0.000000 0.070065 0.000000 0.000000
# 5 0.000000 0.000000 0.000000 0.000000 0.070066 0.000000
# 6 0.000000 0.000000 0.000000 0.000000 0.000000 0.036753
#
#
# Mechanical properties :
#
#
# Convention : Reuss Voigt Hill
#
# Bulk Modulus (GPa) = 35.58291 35.84264 35.71278
# Shear Modulus (GPa) = 16.88946 20.67117 18.78031
#
# Velocity S-wave (km/s) = 2.99987 3.31877 3.16334
# Velocity P-wave (km/s) = 5.56405 5.81238 5.68957
#
# Compressibility (1/GPa) = 0.02810338
#
# Stress axis : x y z
#
# Youngs Moduli (GPa) = 34.73114 34.73129 88.01319
#
# Poissons Ratio (x) = 0.59261 0.14782
# Poissons Ratio (y) = 0.59261 0.14783
# Poissons Ratio (z) = 0.05833 0.05833
#
# Static dielectric constant tensor:
#      x y z
#    x 3.538760 0.000000 0.000000 
#    y 0.000000 3.538760 0.000000 
#    z 0.000000 0.000000 3.618020 
# 
# 
# High freq. dielectric constant tensor:
#      x y z
#    x 1.731360 0.000000 0.000000 
#    y 0.000000 1.731360 0.000000 
#    z 0.000000 0.000000 1.724380 
# 
# From -- ./inp_files/6928.got.cif
#   From: 2010.03.12/outbox.cif.g09.slc.cpg/sg124_4_cif.got.tgz:6928.got - 2010.04.06 16:38:57.
