data_PCOD8313325
_publ_section_title
;
Structure prediction by ZEFSAII (Michael W. Deem and Ramdas Pophale) SiO2 
 PCOD8313325
Probable space group: P 4/M C C
;
_chemical_formula_sum "Si O2"
_cell_formula_units_Z 88
_cell_length_a 15.092301
_cell_length_b 15.092301
_cell_length_c 19.780441
_cell_angle_alpha 90.000000
_cell_angle_beta 90.000000
_cell_angle_gamma 90.000000
_cell_volume 4505.540379
_symmetry_space_group_name_H-M "P 4/M C C"
_symmetry_group_IT_number 124
_symmetry_cell_setting 'tetragonal'
loop_
_space_group_symop_operation_xyz
x,y,z
-y,x,z
-x,-y,z
y,-x,z
x,-y,1/2-z
-x,y,1/2-z
y,x,1/2-z
-y,-x,1/2-z
-x,-y,-z
y,-x,-z
x,y,-z
-y,x,-z
-x,y,1/2+z
x,-y,1/2+z
-y,-x,1/2+z
y,x,1/2+z
loop_
_atom_site_type_symbol
_atom_site_label
_atom_site_fract_x
_atom_site_fract_y
_atom_site_fract_z
Si Si1 0.291533 0.822704 0.874511
Si Si2 0.105632 0.580961 0.000000
Si Si3 0.889878 0.087468 0.829425
Si Si4 0.395800 0.747067 0.249663
Si Si5 0.360505 0.545924 0.000000
Si Si6 0.764166 0.635416 0.601060
Si Si7 0.902207 0.386084 0.500000
O O1 0.194254 0.856851 0.854266
O O2 0.357042 0.811180 0.809292
O O3 0.281724 0.729379 0.911543
O O4 0.333446 0.885758 0.930791
O O5 0.141155 0.631738 0.065552
O O6 0.147046 0.480830 0.000000
O O7 0.002661 0.586047 0.000000
O O8 0.899543 0.100458 0.750000
O O9 0.985827 0.123046 0.855415
O O10 0.500000 0.731536 0.250000
O O11 0.349020 0.650981 0.250000
O O12 0.376070 0.791228 0.321342
O O13 0.389094 0.444521 0.000000
O O14 0.303119 0.563844 0.932018
#
# Coordination Sequence:
#
# PCOD8313325 Si02
#       7
#    16   8  16  16   8  16   8
#     4  11  23  40  62  92 123 164 202 255 321 374
#     4  10  23  41  60  86 116 164 211 254 303 370
#     4   9  19  38  65  93 123 157 199 253 314 382
#     4  10  22  38  60  92 124 163 205 258 311 363
#     4  10  23  37  59  91 119 164 210 249 303 362
#     4  10  22  37  64  83 121 159 206 250 303 364
#     4  11  24  40  61  84 120 164 208 255 312 371
#
# _framework density 19.531507999999999
#
# number of rings (size 3 to 8) (size 9 to 14) (size 15 to 20)
#    0.000    1.909    0.000    4.364   12.727    0.182 
#    0.000    0.000    0.000    4.364    0.000    0.000 
#    0.000    0.000    0.000    0.000    0.000    0.000 
#
# Total GULP energy -1090362.275400 kJ/mol
# GULP energy per Si atom -12390.480402 kJ/mol
# Density = 1.948705 g / cm^3
# Si number density = 19.531508 Si / 1000 Ang^3
#
#
#
# Elastic Constant Matrix: (Units=GPa)
#
#
# Indices 1 2 3 4 5 6 
#
# 1 84.9656 36.8823 51.9576 0.0000 0.0000 0.0000
# 2 36.8823 84.9666 51.9575 0.0000 0.0000 0.0000
# 3 51.9576 51.9575 127.1291 0.0000 0.0000 0.0000
# 4 0.0000 0.0000 0.0000 39.1303 0.0000 0.0000
# 5 0.0000 0.0000 0.0000 0.0000 39.1325 0.0000
# 6 0.0000 0.0000 0.0000 0.0000 0.0000 20.2064
#
#
#
# Elastic Compliance Matrix: (Units=1/GPa)
#
#
# Indices 1 2 3 4 5 6 
#
# 1 0.016698 -0.004100 -0.005149 0.000000 0.000000 0.000000
# 2 -0.004100 0.016697 -0.005149 0.000000 0.000000 0.000000
# 3 -0.005149 -0.005149 0.012075 0.000000 0.000000 0.000000
# 4 0.000000 0.000000 0.000000 0.025556 0.000000 0.000000
# 5 0.000000 0.000000 0.000000 0.000000 0.025554 0.000000
# 6 0.000000 0.000000 0.000000 0.000000 0.000000 0.049489
#
#
# Mechanical properties :
#
#
# Convention : Reuss Voigt Hill
#
# Bulk Modulus (GPa) = 59.96859 64.29510 62.13185
# Shear Modulus (GPa) = 27.71293 30.11143 28.91218
#
# Velocity S-wave (km/s) = 3.77089 3.93069 3.85162
# Velocity P-wave (km/s) = 7.05193 7.32056 7.18750
#
# Compressibility (1/GPa) = 0.01667540
#
# Stress axis : x y z
#
# Youngs Moduli (GPa) = 59.88884 59.88988 82.81854
#
# Poissons Ratio (x) = 0.24552 0.42642
# Poissons Ratio (y) = 0.24552 0.42641
# Poissons Ratio (z) = 0.30836 0.30835
#
# Static dielectric constant tensor:
#      x y z
#    x 3.727360 0.000000 0.000000 
#    y 0.000000 3.727330 0.000000 
#    z 0.000000 0.000000 3.607930 
# 
# 
# High freq. dielectric constant tensor:
#      x y z
#    x 1.763560 0.000000 0.000000 
#    y 0.000000 1.763560 0.000000 
#    z 0.000000 0.000000 1.761510 
# 
# From -- ./inp_files/5227.got.cif
#   From: 2010.03.12/outbox.cif.g09.slc.cpg/sg124_3_cif.got.tgz:5227.got - 2010.04.06 16:38:57.
