data_PCOD8313750
_publ_section_title
;
Structure prediction by ZEFSAII (Michael W. Deem and Ramdas Pophale) SiO2 
 PCOD8313750
Probable space group: P 4/N N C
;
_chemical_formula_sum "Si O2"
_cell_formula_units_Z 72
_cell_length_a 18.923545
_cell_length_b 18.923545
_cell_length_c 10.078325
_cell_angle_alpha 90.000000
_cell_angle_beta 90.000000
_cell_angle_gamma 90.000000
_cell_volume 3609.053780
_symmetry_space_group_name_H-M "P 4/N N C"
_symmetry_group_IT_number 126
_space_group.IT_coordinate_system_code '2'
_symmetry_cell_setting 'tetragonal'
loop_
_space_group_symop_operation_xyz
x,y,z
1/2-y,x,z
1/2-x,1/2-y,z
y,1/2-x,z
x,1/2-y,1/2-z
1/2-x,y,1/2-z
y,x,1/2-z
1/2-y,1/2-x,1/2-z
-x,-y,-z
1/2+y,-x,-z
1/2+x,1/2+y,-z
-y,1/2+x,-z
-x,1/2+y,1/2+z
1/2+x,-y,1/2+z
-y,-x,1/2+z
1/2+y,1/2+x,1/2+z
loop_
_atom_site_type_symbol
_atom_site_label
_atom_site_fract_x
_atom_site_fract_y
_atom_site_fract_z
Si Si1 0.662716 0.423236 0.883849
Si Si2 0.326445 0.576227 0.419063
Si Si3 0.660007 0.585726 0.875033
Si Si4 0.422776 0.301840 0.010512
Si Si5 0.367536 0.250000 0.750000
O O1 0.648192 0.405302 0.729662
O O2 0.743095 0.410289 0.927357
O O3 0.638765 0.504605 0.904638
O O4 0.620607 0.369674 0.975118
O O5 0.341521 0.495619 0.458644
O O6 0.618327 0.618327 0.750000
O O7 0.636463 0.637048 0.995440
O O8 0.745667 0.590009 0.868537
O O9 0.420647 0.256996 0.874804
O O10 0.319310 0.319310 0.750000
#
# Coordination Sequence:
#
# PCOD8313750 Si02
#       5
#    16  16  16  16   8
#     4  10  23  43  66  94 131 163 218 269 336 399
#     4  10  23  43  66  94 126 166 211 279 326 401
#     4  11  21  39  63  91 125 171 219 269 316 388
#     4  11  22  39  62  90 131 173 218 268 324 378
#     4  11  22  38  54  86 130 173 216 262 311 384
#
# _framework density 19.949826999999999
#
# number of rings (size 3 to 8) (size 9 to 14) (size 15 to 20)
#    0.000    1.444    4.444    0.667    0.000    6.222 
#    0.000    3.333    0.000    0.000    0.000    0.000 
#    0.000    0.000    0.000    0.000    0.000    0.000 
#
# Total GULP energy -892194.797151 kJ/mol
# GULP energy per Si atom -12391.594405 kJ/mol
# Density = 1.990442 g / cm^3
# Si number density = 19.949827 Si / 1000 Ang^3
#
#
#
# Elastic Constant Matrix: (Units=GPa)
#
#
# Indices 1 2 3 4 5 6 
#
# 1 101.8337 72.1297 61.4017 0.0000 0.0000 0.0000
# 2 72.1297 101.8337 61.4017 0.0000 0.0000 0.0000
# 3 61.4017 61.4017 138.1984 0.0000 0.0000 0.0000
# 4 0.0000 0.0000 0.0000 35.3384 0.0000 0.0000
# 5 0.0000 0.0000 0.0000 0.0000 35.3384 0.0000
# 6 0.0000 0.0000 0.0000 0.0000 0.0000 32.8550
#
#
#
# Elastic Compliance Matrix: (Units=1/GPa)
#
#
# Indices 1 2 3 4 5 6 
#
# 1 0.021020 -0.012645 -0.003721 0.000000 0.000000 0.000000
# 2 -0.012645 0.021020 -0.003721 0.000000 0.000000 0.000000
# 3 -0.003721 -0.003721 0.010543 0.000000 0.000000 0.000000
# 4 0.000000 0.000000 0.000000 0.028298 0.000000 0.000000
# 5 0.000000 0.000000 0.000000 0.000000 0.028298 0.000000
# 6 0.000000 0.000000 0.000000 0.000000 0.000000 0.030437
#
#
# Mechanical properties :
#
#
# Convention : Reuss Voigt Hill
#
# Bulk Modulus (GPa) = 80.59025 81.30357 80.94691
# Shear Modulus (GPa) = 27.18480 30.50186 28.84333
#
# Velocity S-wave (km/s) = 3.69543 3.91439 3.80648
# Velocity P-wave (km/s) = 7.66110 7.82767 7.74483
#
# Compressibility (1/GPa) = 0.01240845
#
# Stress axis : x y z
#
# Youngs Moduli (GPa) = 47.57312 47.57312 94.85403
#
# Poissons Ratio (x) = 0.60157 0.35296
# Poissons Ratio (y) = 0.60157 0.35296
# Poissons Ratio (z) = 0.17702 0.17702
#
# Static dielectric constant tensor:
#      x y z
#    x 3.625430 0.000000 0.000000 
#    y 0.000000 3.625430 0.000000 
#    z 0.000000 0.000000 3.769250 
# 
# 
# High freq. dielectric constant tensor:
#      x y z
#    x 1.772240 0.000000 0.000000 
#    y 0.000000 1.772240 0.000000 
#    z 0.000000 0.000000 1.789950 
# 
# From -- ./inp_files/2672.got.cif
#   From: 2010.03.12/outbox.cif.g09.slc.cpg/sg126_2_cif.got.tgz:2672.got - 2010.04.06 16:55:23.
