data_PCOD8313598
_publ_section_title
;
Structure prediction by ZEFSAII (Michael W. Deem and Ramdas Pophale) SiO2 
 PCOD8313598
Probable space group: P 4/N B M
;
_chemical_formula_sum "Si O2"
_cell_formula_units_Z 72
_cell_length_a 18.701614
_cell_length_b 18.701614
_cell_length_c 10.634416
_cell_angle_alpha 90.000000
_cell_angle_beta 90.000000
_cell_angle_gamma 90.000000
_cell_volume 3719.390890
_symmetry_space_group_name_H-M "P 4/N B M"
_symmetry_group_IT_number 125
_space_group.IT_coordinate_system_code '2'
_symmetry_cell_setting 'tetragonal'
loop_
_space_group_symop_operation_xyz
x,y,z
1/2-y,x,z
1/2-x,1/2-y,z
y,1/2-x,z
x,1/2-y,-z
1/2-x,y,-z
y,x,-z
1/2-y,1/2-x,-z
-x,-y,-z
1/2+y,-x,-z
1/2+x,1/2+y,-z
-y,1/2+x,-z
-x,1/2+y,z
1/2+x,-y,z
-y,-x,z
1/2+y,1/2+x,z
loop_
_atom_site_type_symbol
_atom_site_label
_atom_site_fract_x
_atom_site_fract_y
_atom_site_fract_z
Si Si1 0.083796 0.080846 0.645933
Si Si2 0.832598 0.665931 0.858762
Si Si3 0.169695 0.830306 0.853040
Si Si4 0.418557 0.918557 0.689374
Si Si5 0.082618 0.582618 0.297252
Si Si6 0.832373 0.332373 0.514135
Si Si7 0.671970 0.171970 0.146127
O O1 0.101031 0.101031 0.500000
O O2 0.129676 0.125038 0.745048
O O3 0.002168 0.096831 0.677579
O O4 0.101815 0.997668 0.666019
O O5 0.849556 0.749102 0.843717
O O6 0.858080 0.641921 0.000000
O O7 0.107072 0.892929 0.841708
O O8 0.149822 0.750539 0.799503
O O9 0.176941 0.823060 0.999660
O O10 0.378233 0.878233 0.580798
O O11 0.387535 0.887535 0.818684
O O12 0.139817 0.639817 0.353396
O O13 0.850175 0.250000 0.500000
#
# Coordination Sequence:
#
# PCOD8313598 Si02
#       7
#    16  16   8   8   8   8   8
#     4  11  23  41  60  84 122 161 197 241 300 354
#     4   9  21  43  66  88 116 149 193 251 306 358
#     4   9  19  36  57  84 119 155 196 248 297 347
#     4  11  21  39  56  79 121 160 192 239 288 348
#     4  11  21  39  56  79 121 160 192 239 288 348
#     4  11  22  35  56  84 112 151 196 233 278 338
#     4   9  19  36  57  84 119 155 196 248 297 347
#
# _framework density 19.358008999999999
#
# number of rings (size 3 to 8) (size 9 to 14) (size 15 to 20)
#    0.000    1.889    2.222    3.333    0.000    8.000 
#    0.000    7.778    0.000    0.000    0.000    0.000 
#    0.000    0.000    0.000    0.000    0.000    0.000 
#
# Total GULP energy -892016.901561 kJ/mol
# GULP energy per Si atom -12389.123633 kJ/mol
# Density = 1.931395 g / cm^3
# Si number density = 19.358009 Si / 1000 Ang^3
#
#
#
# Elastic Constant Matrix: (Units=GPa)
#
#
# Indices 1 2 3 4 5 6 
#
# 1 100.6920 80.5069 66.3561 0.0000 0.0000 0.0000
# 2 80.5069 100.6916 66.3560 0.0000 0.0000 0.0000
# 3 66.3561 66.3560 133.3662 0.0000 0.0000 0.0000
# 4 0.0000 0.0000 0.0000 31.9330 0.0000 0.0000
# 5 0.0000 0.0000 0.0000 0.0000 31.9329 0.0000
# 6 0.0000 0.0000 0.0000 0.0000 0.0000 40.0629
#
#
#
# Elastic Compliance Matrix: (Units=1/GPa)
#
#
# Indices 1 2 3 4 5 6 
#
# 1 0.029112 -0.020429 -0.004320 0.000000 0.000000 0.000000
# 2 -0.020429 0.029112 -0.004320 0.000000 0.000000 0.000000
# 3 -0.004320 -0.004320 0.011797 0.000000 0.000000 0.000000
# 4 0.000000 0.000000 0.000000 0.031316 0.000000 0.000000
# 5 0.000000 0.000000 0.000000 0.000000 0.031316 0.000000
# 6 0.000000 0.000000 0.000000 0.000000 0.000000 0.024961
#
#
# Mechanical properties :
#
#
# Convention : Reuss Voigt Hill
#
# Bulk Modulus (GPa) = 84.15863 84.57643 84.36753
# Shear Modulus (GPa) = 22.75681 28.88782 25.82232
#
# Velocity S-wave (km/s) = 3.43239 3.86721 3.65627
# Velocity P-wave (km/s) = 7.69919 7.98285 7.84231
#
# Compressibility (1/GPa) = 0.01188232
#
# Stress axis : x y z
#
# Youngs Moduli (GPa) = 34.34967 34.34952 84.76622
#
# Poissons Ratio (x) = 0.70174 0.36621
# Poissons Ratio (y) = 0.70175 0.36621
# Poissons Ratio (z) = 0.14840 0.14840
#
# Static dielectric constant tensor:
#      x y z
#    x 3.400310 0.000000 0.000000 
#    y 0.000000 3.400320 0.000000 
#    z 0.000000 0.000000 4.179360 
# 
# 
# High freq. dielectric constant tensor:
#      x y z
#    x 1.751080 0.000000 0.000000 
#    y 0.000000 1.751080 0.000000 
#    z 0.000000 0.000000 1.773370 
# 
# From -- ./inp_files/3900.got.cif
#   From: 2010.03.12/outbox.cif.g09.slc.cpg/sg125_2_cif.got.tgz:3900.got - 2010.04.06 16:47:52.
