data_PCOD8313827
_publ_section_title
;
Structure prediction by ZEFSAII (Michael W. Deem and Ramdas Pophale) SiO2 
 PCOD8313827
Probable space group: P 4/M B M
;
_chemical_formula_sum "Si O2"
_cell_formula_units_Z 112
_cell_length_a 17.232481
_cell_length_b 17.232481
_cell_length_c 23.392571
_cell_angle_alpha 90.000000
_cell_angle_beta 90.000000
_cell_angle_gamma 90.000000
_cell_volume 6946.620489
_symmetry_space_group_name_H-M "P 4/M B M"
_symmetry_group_IT_number 127
_symmetry_cell_setting 'tetragonal'
loop_
_space_group_symop_operation_xyz
x,y,z
-y,x,z
-x,-y,z
y,-x,z
1/2+x,1/2-y,-z
1/2-x,1/2+y,-z
1/2+y,1/2+x,-z
1/2-y,1/2-x,-z
-x,-y,-z
y,-x,-z
x,y,-z
-y,x,-z
1/2-x,1/2+y,z
1/2+x,1/2-y,z
1/2-y,1/2-x,z
1/2+y,1/2+x,z
loop_
_atom_site_type_symbol
_atom_site_label
_atom_site_fract_x
_atom_site_fract_y
_atom_site_fract_z
Si Si1 0.697537 0.671978 0.145508
Si Si2 0.873140 0.496442 0.563870
Si Si3 0.918090 0.293689 0.126872
Si Si4 0.677795 0.308075 0.727620
Si Si5 0.197193 0.572187 0.740009
Si Si6 0.075932 0.297271 0.066176
Si Si7 0.202125 0.428097 0.335132
O O1 0.757358 0.742643 0.148249
O O2 0.616213 0.706339 0.121776
O O3 0.688798 0.637066 0.209715
O O4 0.724182 0.605831 0.102382
O O5 0.838405 0.487550 0.500000
O O6 0.937732 0.562269 0.564349
O O7 0.802113 0.522523 0.605517
O O8 0.914949 0.414949 0.582376
O O9 0.854473 0.354473 0.106316
O O10 0.940460 0.305990 0.192543
O O11 0.988259 0.310489 0.084409
O O12 0.742935 0.242935 0.728964
O O13 0.721069 0.390407 0.717364
O O14 0.614417 0.285265 0.678232
O O15 0.126914 0.626914 0.719821
O O16 0.184909 0.487417 0.715277
O O17 0.125655 0.374346 0.079859
O O18 0.081337 0.275258 0.000000
O O19 0.135106 0.364895 0.334394
#
# Coordination Sequence:
#
# PCOD8313827 Si02
#       7
#    16  16  16  16  16  16  16
#     4   8  15  30  47  60  79 110 145 173 202 251
#     4   8  14  24  37  57  88 121 150 179 207 239
#     4   9  18  31  46  63  85 114 140 165 209 266
#     4   8  15  27  42  61  85 111 137 171 218 262
#     4   9  17  28  42  64  91 111 133 174 221 259
#     4  10  20  31  44  64  86 107 137 178 214 245
#     4  10  17  25  43  66  85 113 150 180 211 256
#
# _framework density 16.122948999999998
#
# number of rings (size 3 to 8) (size 9 to 14) (size 15 to 20)
#    0.000    3.143    0.000    3.429    0.000    3.714 
#    0.000    3.571    0.000    1.714    0.000    9.000 
#    0.000    0.000    0.000    1.286    0.000    1.286 
#
# Total GULP energy -1387533.062571 kJ/mol
# GULP energy per Si atom -12388.688059 kJ/mol
# Density = 1.608625 g / cm^3
# Si number density = 16.122949 Si / 1000 Ang^3
#
#
#
# Elastic Constant Matrix: (Units=GPa)
#
#
# Indices 1 2 3 4 5 6 
#
# 1 26.2652 17.3865 22.8438 0.0000 0.0000 0.0000
# 2 17.3865 26.2652 22.8438 0.0000 0.0000 0.0000
# 3 22.8438 22.8438 64.3212 0.0000 0.0000 0.0000
# 4 0.0000 0.0000 0.0000 22.5919 0.0000 0.0000
# 5 0.0000 0.0000 0.0000 0.0000 22.5919 0.0000
# 6 0.0000 0.0000 0.0000 0.0000 0.0000 11.8193
#
#
#
# Elastic Compliance Matrix: (Units=1/GPa)
#
#
# Indices 1 2 3 4 5 6 
#
# 1 0.074545 -0.038083 -0.012950 0.000000 0.000000 0.000000
# 2 -0.038083 0.074545 -0.012950 0.000000 0.000000 0.000000
# 3 -0.012950 -0.012950 0.024745 0.000000 0.000000 0.000000
# 4 0.000000 0.000000 0.000000 0.044264 0.000000 0.000000
# 5 0.000000 0.000000 0.000000 0.000000 0.044264 0.000000
# 6 0.000000 0.000000 0.000000 0.000000 0.000000 0.084607
#
#
# Mechanical properties :
#
#
# Convention : Reuss Voigt Hill
#
# Bulk Modulus (GPa) = 21.80026 27.00000 24.40013
# Shear Modulus (GPa) = 10.19938 14.98580 12.59259
#
# Velocity S-wave (km/s) = 2.51788 3.05203 2.79773
# Velocity P-wave (km/s) = 4.69080 5.40393 5.05995
#
# Compressibility (1/GPa) = 0.04587101
#
# Stress axis : x y z
#
# Youngs Moduli (GPa) = 13.41463 13.41463 40.41192
#
# Poissons Ratio (x) = 0.51087 0.52332
# Poissons Ratio (y) = 0.51087 0.52332
# Poissons Ratio (z) = 0.17371 0.17371
#
# Static dielectric constant tensor:
#      x y z
#    x 2.999040 0.000000 0.000000 
#    y 0.000000 2.999040 0.000000 
#    z 0.000000 0.000000 3.160880 
# 
# 
# High freq. dielectric constant tensor:
#      x y z
#    x 1.594950 0.000000 0.000000 
#    y 0.000000 1.594950 0.000000 
#    z 0.000000 0.000000 1.613390 
# 
# From -- ./inp_files/5945.got.cif
#   From: 2010.03.12/outbox.cif.g09.slc.cpg/sg127_3_cif.got.tgz:5945.got - 2010.04.06 17:03:15.
