data_PCOD8313605
_publ_section_title
;
Structure prediction by ZEFSAII (Michael W. Deem and Ramdas Pophale) SiO2 
 PCOD8313605
Probable space group: P 4/N B M
;
_chemical_formula_sum "Si O2"
_cell_formula_units_Z 80
_cell_length_a 15.816997
_cell_length_b 15.816997
_cell_length_c 18.174218
_cell_angle_alpha 90.000000
_cell_angle_beta 90.000000
_cell_angle_gamma 90.000000
_cell_volume 4546.778499
_symmetry_space_group_name_H-M "P 4/N B M"
_symmetry_group_IT_number 125
_space_group.IT_coordinate_system_code '2'
_symmetry_cell_setting 'tetragonal'
loop_
_space_group_symop_operation_xyz
x,y,z
1/2-y,x,z
1/2-x,1/2-y,z
y,1/2-x,z
x,1/2-y,-z
1/2-x,y,-z
y,x,-z
1/2-y,1/2-x,-z
-x,-y,-z
1/2+y,-x,-z
1/2+x,1/2+y,-z
-y,1/2+x,-z
-x,1/2+y,z
1/2+x,-y,z
-y,-x,z
1/2+y,1/2+x,z
loop_
_atom_site_type_symbol
_atom_site_label
_atom_site_fract_x
_atom_site_fract_y
_atom_site_fract_z
Si Si1 0.381118 0.118883 0.500000
Si Si2 0.313041 0.131718 0.652344
Si Si3 0.950278 0.312820 0.564724
Si Si4 0.542741 0.315064 0.697890
Si Si5 0.753950 0.112150 0.157042
Si Si6 0.888850 0.250000 0.000000
O O1 0.308586 0.122726 0.562696
O O2 0.469194 0.128676 0.544287
O O3 0.362959 0.215054 0.677092
O O4 0.357415 0.050672 0.691448
O O5 0.925862 0.250000 0.500000
O O6 0.872062 0.372062 0.580680
O O7 0.961279 0.258471 0.638015
O O8 0.615845 0.384155 0.682447
O O9 0.550300 0.271915 0.777374
O O10 0.846651 0.153350 0.171713
O O11 0.688243 0.188243 0.151562
O O12 0.749037 0.060423 0.078343
O O13 0.832855 0.167145 0.007522
#
# Coordination Sequence:
#
# PCOD8313605 Si02
#       6
#     8  16  16  16  16   8
#     4  12  21  41  56  72  90 123 183 234 266 294
#     4  11  22  39  58  74  94 128 177 229 270 303
#     4  12  24  36  51  71 100 138 175 211 258 315
#     4  11  22  36  51  77 110 139 169 211 266 319
#     4   8  14  26  46  73 109 146 175 207 253 315
#     4   7  10  20  42  72 102 139 182 210 238 299
#
# _framework density 17.594875999999999
#
# number of rings (size 3 to 8) (size 9 to 14) (size 15 to 20)
#    0.000    1.700    4.000    3.300    0.000    3.800 
#    0.000    0.000    0.000    0.000    0.000    1.400 
#    0.000    8.000    0.000    0.000    0.000    0.000 
#
# Total GULP energy -991066.888723 kJ/mol
# GULP energy per Si atom -12388.336109 kJ/mol
# Density = 1.755483 g / cm^3
# Si number density = 17.594876 Si / 1000 Ang^3
#
#
#
# Elastic Constant Matrix: (Units=GPa)
#
#
# Indices 1 2 3 4 5 6 
#
# 1 71.8342 34.5045 35.7020 0.0000 0.0000 0.0000
# 2 34.5045 71.8338 35.7019 0.0000 0.0000 0.0000
# 3 35.7020 35.7019 132.6679 0.0000 0.0000 0.0000
# 4 0.0000 0.0000 0.0000 0.0194 0.0000 0.0000
# 5 0.0000 0.0000 0.0000 0.0000 0.0211 0.0000
# 6 0.0000 0.0000 0.0000 0.0000 0.0000 3.3135
#
#
#
# Elastic Compliance Matrix: (Units=1/GPa)
#
#
# Indices 1 2 3 4 5 6 
#
# 1 0.019133 -0.007655 -0.003089 0.000000 0.000000 0.000000
# 2 -0.007655 0.019133 -0.003089 0.000000 0.000000 0.000000
# 3 -0.003089 -0.003089 0.009200 0.000000 0.000000 0.000000
# 4 0.000000 0.000000 0.000000 51.671071 0.000000 0.000000
# 5 0.000000 0.000000 0.000000 0.000000 47.436480 0.000000
# 6 0.000000 0.000000 0.000000 0.000000 0.000000 0.301792
#
#
# Mechanical properties :
#
#
# Convention : Reuss Voigt Hill
#
# Bulk Modulus (GPa) = 50.50300 54.23920 52.37110
# Shear Modulus (GPa) = 0.05026 12.03263 6.04144
#
# Velocity S-wave (km/s) = 0.16919 2.61793 1.85502
# Velocity P-wave (km/s) = 5.36691 6.32706 5.86666
#
# Compressibility (1/GPa) = 0.01980080
#
# Stress axis : x y z
#
# Youngs Moduli (GPa) = 52.26527 52.26494 108.69482
#
# Poissons Ratio (x) = 0.40010 0.33574
# Poissons Ratio (y) = 0.40010 0.33574
# Poissons Ratio (z) = 0.16144 0.16144
#
# Static dielectric constant tensor:
#      x y z
#    x 3.218100 0.000000 0.000000 
#    y 0.000000 3.218110 0.000000 
#    z 0.000000 0.000000 3.160460 
# 
# 
# High freq. dielectric constant tensor:
#      x y z
#    x 1.660430 0.000000 0.000000 
#    y 0.000000 1.660430 0.000000 
#    z 0.000000 0.000000 1.671250 
# 
# From -- ./inp_files/5420.got.cif
#   From: 2010.03.12/outbox.cif.g09.slc.cpg/sg125_3_cif.got.tgz:5420.got - 2010.04.06 16:47:52.
