data_PCOD8313017
_publ_section_title
;
Structure prediction by ZEFSAII (Michael W. Deem and Ramdas Pophale) SiO2 
 PCOD8313017
Probable space group: P 4/M M M
;
_chemical_formula_sum "Si O2"
_cell_formula_units_Z 64
_cell_length_a 14.218665
_cell_length_b 14.218665
_cell_length_c 19.810656
_cell_angle_alpha 90.000000
_cell_angle_beta 90.000000
_cell_angle_gamma 90.000000
_cell_volume 4005.128929
_symmetry_space_group_name_H-M "P 4/M M M"
_symmetry_group_IT_number 123
_symmetry_cell_setting 'tetragonal'
loop_
_space_group_symop_operation_xyz
x,y,z
-y,x,z
-x,-y,z
y,-x,z
x,-y,-z
-x,y,-z
y,x,-z
-y,-x,-z
-x,-y,-z
y,-x,-z
x,y,-z
-y,x,-z
-x,y,z
x,-y,z
-y,-x,z
y,x,z
loop_
_atom_site_type_symbol
_atom_site_label
_atom_site_fract_x
_atom_site_fract_y
_atom_site_fract_z
Si Si1 0.388427 0.895573 0.574570
Si Si2 0.243448 0.607198 0.313933
Si Si3 0.608873 0.762715 0.839792
Si Si4 0.892215 0.740224 0.920986
O O1 0.360349 0.857221 0.500000
O O2 0.500000 0.900028 0.581322
O O3 0.346640 0.830321 0.633694
O O4 0.346635 0.000000 0.584470
O O5 0.262857 0.500000 0.332751
O O6 0.342751 0.657250 0.322341
O O7 0.204978 0.618442 0.237958
O O8 0.500000 0.745122 0.859350
O O9 0.666231 0.666231 0.853670
O O10 0.650278 0.847793 0.883785
O O11 0.834855 0.834855 0.902013
O O12 0.000000 0.754227 0.897850
O O13 0.885846 0.719257 0.000000
#
# Coordination Sequence:
#
# PCOD8313017 Si02
#       4
#    16  16  16  16
#     4   8  14  25  40  57  78 105 137 173 211 248
#     4   9  17  28  42  61  85 113 143 174 210 252
#     4   9  18  31  45  63  88 117 150 186 221 259
#     4   9  18  32  49  69  92 116 142 175 217 265
#
# _framework density 15.979511
#
# number of rings (size 3 to 8) (size 9 to 14) (size 15 to 20)
#    0.000    3.250    0.000    0.750    0.000    3.250 
#    0.000    7.500    0.000    0.000    0.000    7.000 
#    0.000    0.500    0.000    2.750    0.000    0.250 
#
# Total GULP energy -793288.569948 kJ/mol
# GULP energy per Si atom -12395.133905 kJ/mol
# Density = 1.594314 g / cm^3
# Si number density = 15.979511 Si / 1000 Ang^3
#
#
#
# Elastic Constant Matrix: (Units=GPa)
#
#
# Indices 1 2 3 4 5 6 
#
# 1 94.6031 44.4575 48.3056 0.0000 0.0000 0.0000
# 2 44.4575 94.6031 48.3056 0.0000 0.0000 0.0000
# 3 48.3056 48.3056 67.8412 0.0000 0.0000 0.0000
# 4 0.0000 0.0000 0.0000 25.7203 0.0000 0.0000
# 5 0.0000 0.0000 0.0000 0.0000 25.7203 0.0000
# 6 0.0000 0.0000 0.0000 0.0000 0.0000 11.6497
#
#
#
# Elastic Compliance Matrix: (Units=1/GPa)
#
#
# Indices 1 2 3 4 5 6 
#
# 1 0.017086 -0.002856 -0.010133 0.000000 0.000000 0.000000
# 2 -0.002856 0.017086 -0.010133 0.000000 0.000000 0.000000
# 3 -0.010133 -0.010133 0.029170 0.000000 0.000000 0.000000
# 4 0.000000 0.000000 0.000000 0.038880 0.000000 0.000000
# 5 0.000000 0.000000 0.000000 0.000000 0.038880 0.000000
# 6 0.000000 0.000000 0.000000 0.000000 0.000000 0.085839
#
#
# Mechanical properties :
#
#
# Convention : Reuss Voigt Hill
#
# Bulk Modulus (GPa) = 58.47819 59.90943 59.19381
# Shear Modulus (GPa) = 17.92852 20.34997 19.13925
#
# Velocity S-wave (km/s) = 3.35321 3.57249 3.46459
# Velocity P-wave (km/s) = 7.18799 7.38849 7.28893
#
# Compressibility (1/GPa) = 0.01710039
#
# Stress axis : x y z
#
# Youngs Moduli (GPa) = 58.52598 58.52598 34.28124
#
# Poissons Ratio (x) = 0.16712 0.34737
# Poissons Ratio (y) = 0.16712 0.34737
# Poissons Ratio (z) = 0.59304 0.59304
#
# Static dielectric constant tensor:
#      x y z
#    x 2.982850 0.000000 0.000000 
#    y 0.000000 2.982850 0.000000 
#    z 0.000000 0.000000 3.214780 
# 
# 
# High freq. dielectric constant tensor:
#      x y z
#    x 1.596180 0.000000 0.000000 
#    y 0.000000 1.596180 0.000000 
#    z 0.000000 0.000000 1.620640 
# 
# From -- ./inp_files/3773.got.cif
#   From: 2010.03.12/outbox.cif.g09.slc.cpg/sg123_2_cif.got.tgz:3773.got - 2010.04.06 16:26:55.
