data_PCOD8313077
_publ_section_title
;
Structure prediction by ZEFSAII (Michael W. Deem and Ramdas Pophale) SiO2 
 PCOD8313077
Probable space group: P 4/M C C
;
_chemical_formula_sum "Si O2"
_cell_formula_units_Z 96
_cell_length_a 25.214325
_cell_length_b 25.214325
_cell_length_c 8.796898
_cell_angle_alpha 90.000000
_cell_angle_beta 90.000000
_cell_angle_gamma 90.000000
_cell_volume 5592.735096
_symmetry_space_group_name_H-M "P 4/M C C"
_symmetry_group_IT_number 124
_symmetry_cell_setting 'tetragonal'
loop_
_space_group_symop_operation_xyz
x,y,z
-y,x,z
-x,-y,z
y,-x,z
x,-y,1/2-z
-x,y,1/2-z
y,x,1/2-z
-y,-x,1/2-z
-x,-y,-z
y,-x,-z
x,y,-z
-y,x,-z
-x,y,1/2+z
x,-y,1/2+z
-y,-x,1/2+z
y,x,1/2+z
loop_
_atom_site_type_symbol
_atom_site_label
_atom_site_fract_x
_atom_site_fract_y
_atom_site_fract_z
Si Si1 0.758077 0.444775 0.177664
Si Si2 0.839216 0.366270 0.319470
Si Si3 0.049966 0.749238 0.322638
Si Si4 0.444955 0.634616 0.323152
Si Si5 0.245695 0.166006 0.674388
Si Si6 0.365744 0.947069 0.320213
O O1 0.776767 0.500000 0.250000
O O2 0.788715 0.397905 0.260814
O O3 0.696313 0.434949 0.209613
O O4 0.771392 0.445243 0.000000
O O5 0.844018 0.369381 0.500000
O O6 0.831464 0.305676 0.262652
O O7 0.893099 0.391040 0.247927
O O8 0.040380 0.736766 0.500000
O O9 0.106539 0.778445 0.300159
O O10 0.052322 0.695392 0.227685
O O11 0.000000 0.782198 0.250000
O O12 0.500000 0.615466 0.250000
O O13 0.396363 0.603638 0.250000
O O14 0.447686 0.621874 0.500000
O O15 0.208826 0.208826 0.750000
O O16 0.246891 0.181148 0.500000
O O17 0.372697 0.947395 0.500000
O O18 0.393572 0.000000 0.250000
#
# Coordination Sequence:
#
# PCOD8313077 Si02
#       6
#    16  16  16  16  16  16
#     4  10  21  37  56  77  99 129 165 202 241 285
#     4  10  20  34  50  71  98 129 165 204 242 288
#     4   9  16  27  42  63  89 122 162 201 240 286
#     4  10  21  37  57  80 106 132 163 200 243 291
#     4   9  19  31  44  66  98 130 161 197 240 285
#     4  10  17  27  45  69  95 124 159 200 244 290
#
# _framework density 17.165126000000001
#
# number of rings (size 3 to 8) (size 9 to 14) (size 15 to 20)
#    0.000    2.333    0.000    5.500    0.000    6.833 
#    0.000    4.167    0.000    0.500    0.000    3.500 
#    0.000    0.333    0.000    3.667    0.000    2.833 
#
# Total GULP energy -1189916.632018 kJ/mol
# GULP energy per Si atom -12394.964917 kJ/mol
# Density = 1.712606 g / cm^3
# Si number density = 17.165126 Si / 1000 Ang^3
#
#
#
# Elastic Constant Matrix: (Units=GPa)
#
#
# Indices 1 2 3 4 5 6 
#
# 1 86.5233 56.5794 49.1643 0.0000 0.0000 0.0000
# 2 56.5794 86.5158 49.1641 0.0000 0.0000 0.0000
# 3 49.1643 49.1641 112.9142 0.0000 0.0000 0.0000
# 4 0.0000 0.0000 0.0000 31.3481 0.0000 0.0000
# 5 0.0000 0.0000 0.0000 0.0000 31.3482 0.0000
# 6 0.0000 0.0000 0.0000 0.0000 0.0000 -6.6326
#
#
#
# Elastic Compliance Matrix: (Units=1/GPa)
#
#
# Indices 1 2 3 4 5 6 
#
# 1 0.021685 -0.011714 -0.004341 0.000000 0.000000 0.000000
# 2 -0.011714 0.021687 -0.004342 0.000000 0.000000 0.000000
# 3 -0.004341 -0.004342 0.012637 0.000000 0.000000 0.000000
# 4 0.000000 0.000000 0.000000 0.031900 0.000000 0.000000
# 5 0.000000 0.000000 0.000000 0.000000 0.031900 0.000000
# 6 0.000000 0.000000 0.000000 0.000000 0.000000 -0.150770
#
#
# Mechanical properties :
#
#
# Convention : Reuss Voigt Hill
#
# Bulk Modulus (GPa) = 65.73186 66.19653 65.96420
# Shear Modulus (GPa) = 335.45852 19.94910 177.70381
#
# Velocity S-wave (km/s) = 13.99480 3.41279 10.18581
# Velocity P-wave (km/s) = 17.30654 7.36055 13.29839
#
# Compressibility (1/GPa) = 0.01521332
#
# Stress axis : x y z
#
# Youngs Moduli (GPa) = 46.11583 46.11069 79.13169
#
# Poissons Ratio (x) = 0.54015 0.34353
# Poissons Ratio (y) = 0.54021 0.34361
# Poissons Ratio (z) = 0.20020 0.20022
#
# Static dielectric constant tensor:
#      x y z
#    x 3.357910 0.000000 0.000000 
#    y 0.000000 3.357900 0.000000 
#    z 0.000000 0.000000 3.346970 
# 
# 
# High freq. dielectric constant tensor:
#      x y z
#    x 1.645400 0.000000 0.000000 
#    y 0.000000 1.645400 0.000000 
#    z 0.000000 0.000000 1.679870 
# 
# From -- ./inp_files/1372.got.cif
#   From: 2010.03.12/outbox.cif.g09.slc.cpg/sg124_1_cif.got.tgz:1372.got - 2010.04.06 16:38:57.
