data_PCOD8313938
_publ_section_title
;
Structure prediction by ZEFSAII (Michael W. Deem and Ramdas Pophale) SiO2 
 PCOD8313938
Probable space group: P 4/M B M
;
_chemical_formula_sum "Si O2"
_cell_formula_units_Z 72
_cell_length_a 25.566755
_cell_length_b 25.566755
_cell_length_c 7.545479
_cell_angle_alpha 90.000000
_cell_angle_beta 90.000000
_cell_angle_gamma 90.000000
_cell_volume 4932.169965
_symmetry_space_group_name_H-M "P 4/M B M"
_symmetry_group_IT_number 127
_symmetry_cell_setting 'tetragonal'
loop_
_space_group_symop_operation_xyz
x,y,z
-y,x,z
-x,-y,z
y,-x,z
1/2+x,1/2-y,-z
1/2-x,1/2+y,-z
1/2+y,1/2+x,-z
1/2-y,1/2-x,-z
-x,-y,-z
y,-x,-z
x,y,-z
-y,x,-z
1/2-x,1/2+y,z
1/2+x,1/2-y,z
1/2-y,1/2-x,z
1/2+y,1/2+x,z
loop_
_atom_site_type_symbol
_atom_site_label
_atom_site_fract_x
_atom_site_fract_y
_atom_site_fract_z
Si Si1 0.733866 0.684490 0.000000
Si Si2 0.489730 0.660742 0.202953
Si Si3 0.646802 0.771536 0.000000
Si Si4 0.285715 0.590196 0.293683
Si Si5 0.177182 0.870054 0.298802
Si Si6 0.990055 0.084111 0.500000
O O1 0.724256 0.649510 0.825609
O O2 0.793314 0.706687 0.000000
O O3 0.695100 0.732681 0.000000
O O4 0.529866 0.708852 0.230135
O O5 0.431945 0.672066 0.272398
O O6 0.516317 0.616237 0.320963
O O7 0.487520 0.642610 0.000000
O O8 0.613364 0.761927 0.178451
O O9 0.669084 0.830917 0.000000
O O10 0.270488 0.593124 0.500000
O O11 0.339225 0.623166 0.254285
O O12 0.193746 0.858540 0.500000
O O13 0.941967 0.045885 0.500000
#
# Coordination Sequence:
#
# PCOD8313938 Si02
#       6
#     8  16   8  16  16   8
#     4   9  18  31  46  66  87 106 138 183 227 273
#     4  12  21  31  49  66  84 114 152 190 228 275
#     4   9  18  31  46  66  87 106 138 183 227 273
#     4  10  19  31  47  65  86 114 146 183 227 269
#     4  10  19  31  47  65  86 114 146 183 227 269
#     4  11  24  36  44  60  86 114 150 198 240 271
#
# _framework density 14.598038000000001
#
# number of rings (size 3 to 8) (size 9 to 14) (size 15 to 20)
#    0.000    1.667    4.444    1.333    0.000    3.556 
#    0.000    5.556    0.000    0.000    0.000    0.000 
#    0.000    0.000    0.000    0.000    0.000    8.889 
#
# Total GULP energy -892504.726846 kJ/mol
# GULP energy per Si atom -12395.898984 kJ/mol
# Density = 1.456481 g / cm^3
# Si number density = 14.598038 Si / 1000 Ang^3
#
#
#
# Elastic Constant Matrix: (Units=GPa)
#
#
# Indices 1 2 3 4 5 6 
#
# 1 33.0445 17.4640 18.4147 0.0000 0.0000 0.0000
# 2 17.4640 33.0445 18.4147 0.0000 0.0000 0.0000
# 3 18.4147 18.4147 117.5788 0.0000 0.0000 0.0000
# 4 0.0000 0.0000 0.0000 19.6717 0.0000 0.0000
# 5 0.0000 0.0000 0.0000 0.0000 19.6722 0.0000
# 6 0.0000 0.0000 0.0000 0.0000 0.0000 36.5121
#
#
#
# Elastic Compliance Matrix: (Units=1/GPa)
#
#
# Indices 1 2 3 4 5 6 
#
# 1 0.043267 -0.020916 -0.003501 0.000000 0.000000 0.000000
# 2 -0.020916 0.043267 -0.003501 0.000000 0.000000 0.000000
# 3 -0.003501 -0.003501 0.009601 0.000000 0.000000 0.000000
# 4 0.000000 0.000000 0.000000 0.050835 0.000000 0.000000
# 5 0.000000 0.000000 0.000000 0.000000 0.050833 0.000000
# 6 0.000000 0.000000 0.000000 0.000000 0.000000 0.027388
#
#
# Mechanical properties :
#
#
# Convention : Reuss Voigt Hill
#
# Bulk Modulus (GPa) = 24.81293 32.47273 28.64283
# Shear Modulus (GPa) = 16.98032 23.79616 20.38824
#
# Velocity S-wave (km/s) = 3.41426 4.04182 3.74122
# Velocity P-wave (km/s) = 5.70765 6.63887 6.19079
#
# Compressibility (1/GPa) = 0.04030157
#
# Stress axis : x y z
#
# Youngs Moduli (GPa) = 23.11234 23.11236 104.15133
#
# Poissons Ratio (x) = 0.48341 0.36459
# Poissons Ratio (y) = 0.48341 0.36459
# Poissons Ratio (z) = 0.08091 0.08091
#
# Static dielectric constant tensor:
#      x y z
#    x 2.790890 0.000000 0.000000 
#    y 0.000000 2.790890 0.000000 
#    z 0.000000 0.000000 2.980040 
# 
# 
# High freq. dielectric constant tensor:
#      x y z
#    x 1.525120 0.000000 0.000000 
#    y 0.000000 1.525120 0.000000 
#    z 0.000000 0.000000 1.583350 
# 
# From -- ./inp_files/1798.got.cif
#   From: 2010.03.12/outbox.cif.g09.slc.cpg/sg127_1_cif.got.tgz:1798.got - 2010.04.06 17:03:15.
