data_PCOD8313270
_publ_section_title
;
Structure prediction by ZEFSAII (Michael W. Deem and Ramdas Pophale) SiO2 
 PCOD8313270
Probable space group: P 4/M C C
;
_chemical_formula_sum "Si O2"
_cell_formula_units_Z 96
_cell_length_a 22.237557
_cell_length_b 22.237557
_cell_length_c 9.530335
_cell_angle_alpha 90.000000
_cell_angle_beta 90.000000
_cell_angle_gamma 90.000000
_cell_volume 4712.835871
_symmetry_space_group_name_H-M "P 4/M C C"
_symmetry_group_IT_number 124
_symmetry_cell_setting 'tetragonal'
loop_
_space_group_symop_operation_xyz
x,y,z
-y,x,z
-x,-y,z
y,-x,z
x,-y,1/2-z
-x,y,1/2-z
y,x,1/2-z
-y,-x,1/2-z
-x,-y,-z
y,-x,-z
x,y,-z
-y,x,-z
-x,y,1/2+z
x,-y,1/2+z
-y,-x,1/2+z
y,x,1/2+z
loop_
_atom_site_type_symbol
_atom_site_label
_atom_site_fract_x
_atom_site_fract_y
_atom_site_fract_z
Si Si1 0.311780 0.771617 0.666263
Si Si2 0.102770 0.549704 0.154098
Si Si3 0.550534 0.763023 0.151641
Si Si4 0.156254 0.907325 0.000000
Si Si5 0.642014 0.942648 0.340477
Si Si6 0.049917 0.176329 0.500000
Si Si7 0.240714 0.891049 0.756237
O O1 0.282935 0.717066 0.750000
O O2 0.305474 0.763152 0.500000
O O3 0.381661 0.767883 0.712769
O O4 0.275622 0.832061 0.706263
O O5 0.067828 0.500000 0.250000
O O6 0.169728 0.526562 0.126039
O O7 0.109140 0.610393 0.247711
O O8 0.071967 0.559992 0.000000
O O9 0.500000 0.730488 0.250000
O O10 0.551245 0.729578 0.000000
O O11 0.186570 0.876264 0.136487
O O12 0.086777 0.886543 0.000000
O O13 0.159892 0.979509 0.000000
O O14 0.617788 0.946271 0.500000
O O15 0.713183 0.932544 0.343800
O O16 0.622303 0.000000 0.250000
O O17 0.067311 0.216544 0.632331
#
# Coordination Sequence:
#
# PCOD8313270 Si02
#       7
#    16  16  16   8  16   8  16
#     4  11  23  39  62  93 128 165 207 258 305 362
#     4  10  20  37  57  81 115 154 201 250 301 351
#     4   9  19  36  56  84 121 164 207 250 301 351
#     4  12  26  47  66  98 113 159 191 245 310 384
#     4  12  25  39  59  83 111 150 199 247 302 365
#     4  12  26  45  72  88 127 147 197 245 312 378
#     4  12  25  42  62  91 124 156 192 243 308 375
#
# _framework density 20.369903000000001
#
# number of rings (size 3 to 8) (size 9 to 14) (size 15 to 20)
#    0.000    1.000    3.333    4.000    3.500    1.833 
#    0.000    1.667    0.000    2.000    0.000    0.000 
#    0.000    0.333    0.000    3.667    0.000    2.667 
#
# Total GULP energy -1189404.289757 kJ/mol
# GULP energy per Si atom -12389.628018 kJ/mol
# Density = 2.032354 g / cm^3
# Si number density = 20.369903 Si / 1000 Ang^3
#
#
#
# Elastic Constant Matrix: (Units=GPa)
#
#
# Indices 1 2 3 4 5 6 
#
# 1 90.4216 44.2977 46.0649 0.0000 0.0000 0.0000
# 2 44.2977 90.4210 46.0669 0.0000 0.0000 0.0000
# 3 46.0649 46.0669 162.1215 0.0000 0.0000 0.0000
# 4 0.0000 0.0000 0.0000 28.2756 0.0000 0.0000
# 5 0.0000 0.0000 0.0000 0.0000 28.2756 0.0000
# 6 0.0000 0.0000 0.0000 0.0000 0.0000 13.0108
#
#
#
# Elastic Compliance Matrix: (Units=1/GPa)
#
#
# Indices 1 2 3 4 5 6 
#
# 1 0.015447 -0.006234 -0.002618 0.000000 0.000000 0.000000
# 2 -0.006234 0.015447 -0.002618 0.000000 0.000000 0.000000
# 3 -0.002618 -0.002618 0.007656 0.000000 0.000000 0.000000
# 4 0.000000 0.000000 0.000000 0.035366 0.000000 0.000000
# 5 0.000000 0.000000 0.000000 0.000000 0.035366 0.000000
# 6 0.000000 0.000000 0.000000 0.000000 0.000000 0.076859
#
#
# Mechanical properties :
#
#
# Convention : Reuss Voigt Hill
#
# Bulk Modulus (GPa) = 64.05830 68.42479 66.24154
# Shear Modulus (GPa) = 23.33345 27.68135 25.50740
#
# Velocity S-wave (km/s) = 3.38818 3.69037 3.54250
# Velocity P-wave (km/s) = 6.84267 7.19878 7.02298
#
# Compressibility (1/GPa) = 0.01561078
#
# Stress axis : x y z
#
# Youngs Moduli (GPa) = 64.73804 64.73665 130.61790
#
# Poissons Ratio (x) = 0.40356 0.34192
# Poissons Ratio (y) = 0.40357 0.34196
# Poissons Ratio (z) = 0.16946 0.16948
#
# Static dielectric constant tensor:
#      x y z
#    x 3.534530 0.000000 0.000000 
#    y 0.000000 3.534530 0.000000 
#    z 0.000000 0.000000 4.284650 
# 
# 
# High freq. dielectric constant tensor:
#      x y z
#    x 1.771420 0.000000 0.000000 
#    y 0.000000 1.771420 0.000000 
#    z 0.000000 0.000000 1.818060 
# 
# From -- ./inp_files/1440.got.cif
#   From: 2010.03.12/outbox.cif.g09.slc.cpg/sg124_1_cif.got.tgz:1440.got - 2010.04.06 16:38:57.
