data_PCOD8313579
_publ_section_title
;
Structure prediction by ZEFSAII (Michael W. Deem and Ramdas Pophale) SiO2 
 PCOD8313579
Probable space group: P 4/N B M
;
_chemical_formula_sum "Si O2"
_cell_formula_units_Z 96
_cell_length_a 22.904062
_cell_length_b 22.904062
_cell_length_c 9.426730
_cell_angle_alpha 90.000000
_cell_angle_beta 90.000000
_cell_angle_gamma 90.000000
_cell_volume 4945.225380
_symmetry_space_group_name_H-M "P 4/N B M"
_symmetry_group_IT_number 125
_space_group.IT_coordinate_system_code '2'
_symmetry_cell_setting 'tetragonal'
loop_
_space_group_symop_operation_xyz
x,y,z
1/2-y,x,z
1/2-x,1/2-y,z
y,1/2-x,z
x,1/2-y,-z
1/2-x,y,-z
y,x,-z
1/2-y,1/2-x,-z
-x,-y,-z
1/2+y,-x,-z
1/2+x,1/2+y,-z
-y,1/2+x,-z
-x,1/2+y,z
1/2+x,-y,z
-y,-x,z
1/2+y,1/2+x,z
loop_
_atom_site_type_symbol
_atom_site_label
_atom_site_fract_x
_atom_site_fract_y
_atom_site_fract_z
Si Si1 0.866554 0.226574 0.847096
Si Si2 0.189449 0.318751 0.831763
Si Si3 0.916338 0.897759 0.166222
Si Si4 0.363800 0.960594 0.909767
Si Si5 0.521768 0.118529 0.771991
Si Si6 0.897898 0.195185 0.398451
O O1 0.816189 0.183812 0.792009
O O2 0.928185 0.192440 0.846722
O O3 0.868840 0.281705 0.745002
O O4 0.849516 0.250000 0.000000
O O5 0.168551 0.255167 0.777118
O O6 0.149214 0.370497 0.773041
O O7 0.184498 0.315503 0.000000
O O8 0.982045 0.874080 0.186771
O O9 0.904402 0.956364 0.256097
O O10 0.909415 0.909415 0.000000
O O11 0.421520 0.921520 0.898753
O O12 0.349884 0.975339 0.074377
O O13 0.562626 0.062626 0.772227
O O14 0.541912 0.162743 0.646685
O O15 0.911281 0.250000 0.500000
O O16 0.851692 0.148309 0.465679
#
# Coordination Sequence:
#
# PCOD8313579 Si02
#       6
#    16  16  16  16  16  16
#     4  11  21  34  52  75 105 138 175 226 282 328
#     4   8  14  24  35  55  93 132 162 196 240 295
#     4   9  16  26  46  74  98 136 173 207 261 328
#     4   9  17  30  47  73 105 132 167 217 272 326
#     4   9  17  31  49  71 102 134 170 219 270 319
#     4  11  23  38  54  75 104 142 188 233 275 328
#
# _framework density 19.412663999999999
#
# number of rings (size 3 to 8) (size 9 to 14) (size 15 to 20)
#    0.000    2.500    1.667    2.000    0.000    5.333 
#    3.000    0.000    0.000    1.000    0.000    4.667 
#    0.000    0.000    0.000    0.000    0.000    0.000 
#
# Total GULP energy -1189987.300290 kJ/mol
# GULP energy per Si atom -12395.701045 kJ/mol
# Density = 1.936848 g / cm^3
# Si number density = 19.412664 Si / 1000 Ang^3
#
#
#
# Elastic Constant Matrix: (Units=GPa)
#
#
# Indices 1 2 3 4 5 6 
#
# 1 103.4220 58.3307 16.0382 0.0000 0.0000 0.0000
# 2 58.3307 103.4222 16.0381 0.0000 0.0000 0.0000
# 3 16.0382 16.0381 38.8600 0.0000 0.0000 0.0000
# 4 0.0000 0.0000 0.0000 20.7583 0.0000 0.0000
# 5 0.0000 0.0000 0.0000 0.0000 20.7582 0.0000
# 6 0.0000 0.0000 0.0000 0.0000 0.0000 20.0537
#
#
#
# Elastic Compliance Matrix: (Units=1/GPa)
#
#
# Indices 1 2 3 4 5 6 
#
# 1 0.014455 -0.007722 -0.002779 0.000000 0.000000 0.000000
# 2 -0.007722 0.014455 -0.002779 0.000000 0.000000 0.000000
# 3 -0.002779 -0.002779 0.028027 0.000000 0.000000 0.000000
# 4 0.000000 0.000000 0.000000 0.048174 0.000000 0.000000
# 5 0.000000 0.000000 0.000000 0.000000 0.048174 0.000000
# 6 0.000000 0.000000 0.000000 0.000000 0.000000 0.049866
#
#
# Mechanical properties :
#
#
# Convention : Reuss Voigt Hill
#
# Bulk Modulus (GPa) = 32.91847 47.39090 40.15468
# Shear Modulus (GPa) = 20.84752 22.66720 21.75736
#
# Velocity S-wave (km/s) = 3.28062 3.42080 3.35144
# Velocity P-wave (km/s) = 5.59857 6.32992 5.97544
#
# Compressibility (1/GPa) = 0.03037809
#
# Stress axis : x y z
#
# Youngs Moduli (GPa) = 69.17893 69.17913 35.67962
#
# Poissons Ratio (x) = 0.53419 0.09915
# Poissons Ratio (y) = 0.53419 0.09915
# Poissons Ratio (z) = 0.19225 0.19224
#
# Static dielectric constant tensor:
#      x y z
#    x 3.701900 0.000000 0.000000 
#    y 0.000000 3.701890 0.000000 
#    z 0.000000 0.000000 3.003830 
# 
# 
# High freq. dielectric constant tensor:
#      x y z
#    x 1.760870 0.000000 0.000000 
#    y 0.000000 1.760870 0.000000 
#    z 0.000000 0.000000 1.691720 
# 
# From -- ./inp_files/2889.got.cif
#   From: 2010.03.12/outbox.cif.g09.slc.cpg/sg125_2_cif.got.tgz:2889.got - 2010.04.06 16:47:52.
