data_PCOD8313089
_publ_section_title
;
Structure prediction by ZEFSAII (Michael W. Deem and Ramdas Pophale) SiO2 
 PCOD8313089
Probable space group: P 4/M C C
;
_chemical_formula_sum "Si O2"
_cell_formula_units_Z 80
_cell_length_a 23.992922
_cell_length_b 23.992922
_cell_length_c 8.940611
_cell_angle_alpha 90.000000
_cell_angle_beta 90.000000
_cell_angle_gamma 90.000000
_cell_volume 5146.754865
_symmetry_space_group_name_H-M "P 4/M C C"
_symmetry_group_IT_number 124
_symmetry_cell_setting 'tetragonal'
loop_
_space_group_symop_operation_xyz
x,y,z
-y,x,z
-x,-y,z
y,-x,z
x,-y,1/2-z
-x,y,1/2-z
y,x,1/2-z
-y,-x,1/2-z
-x,-y,-z
y,-x,-z
x,y,-z
-y,x,-z
-x,y,1/2+z
x,-y,1/2+z
-y,-x,1/2+z
y,x,1/2+z
loop_
_atom_site_type_symbol
_atom_site_label
_atom_site_fract_x
_atom_site_fract_y
_atom_site_fract_z
Si Si1 0.807361 0.720501 0.821516
Si Si2 0.559363 0.355972 0.326306
Si Si3 0.024953 0.088163 0.000000
Si Si4 0.353051 0.730822 0.326767
Si Si5 0.000000 0.834763 0.750000
Si Si6 0.799650 0.117106 0.672144
O O1 0.763020 0.763020 0.750000
O O2 0.789856 0.658836 0.758962
O O3 0.866498 0.742004 0.757380
O O4 0.807657 0.720603 0.000000
O O5 0.500000 0.356298 0.250000
O O6 0.597891 0.402110 0.250000
O O7 0.553826 0.371638 0.500000
O O8 0.584342 0.293018 0.308297
O O9 0.035603 0.126024 0.141648
O O10 0.961299 0.068327 0.000000
O O11 0.314991 0.685010 0.250000
O O12 0.336683 0.737615 0.500000
O O13 0.950682 0.799715 0.673321
O O14 0.852870 0.147131 0.750000
O O15 0.798497 0.136970 0.500000
#
# Coordination Sequence:
#
# PCOD8313089 Si02
#       6
#    16  16   8  16   8  16
#     4  10  18  28  46  66  85 106 135 174 219 270
#     4  10  20  32  47  66  92 127 165 204 236 268
#     4  11  22  36  48  60  76 102 142 182 219 258
#     4   9  16  28  45  65  88 113 145 183 226 268
#     4  12  24  33  48  62  80 108 137 180 226 266
#     4  11  22  34  48  62  82 107 137 176 220 271
#
# _framework density 15.543775999999999
#
# number of rings (size 3 to 8) (size 9 to 14) (size 15 to 20)
#    0.000    1.700    1.000    7.800    2.800    3.400 
#    0.000    1.000    0.000    0.000    0.000    0.000 
#    0.000    0.000    0.000    0.900    0.000   13.600 
#
# Total GULP energy -991088.840285 kJ/mol
# GULP energy per Si atom -12388.610504 kJ/mol
# Density = 1.550840 g / cm^3
# Si number density = 15.543776 Si / 1000 Ang^3
#
#
#
# Elastic Constant Matrix: (Units=GPa)
#
#
# Indices 1 2 3 4 5 6 
#
# 1 58.9421 49.6587 37.1332 0.0000 0.0000 0.0000
# 2 49.6587 58.9427 37.1313 0.0000 0.0000 0.0000
# 3 37.1332 37.1313 140.7016 0.0000 0.0000 0.0000
# 4 0.0000 0.0000 0.0000 21.5948 0.0000 0.0000
# 5 0.0000 0.0000 0.0000 0.0000 21.5944 0.0000
# 6 0.0000 0.0000 0.0000 0.0000 0.0000 -466.3302
#
#
#
# Elastic Compliance Matrix: (Units=1/GPa)
#
#
# Indices 1 2 3 4 5 6 
#
# 1 0.059477 -0.048240 -0.002966 0.000000 0.000000 0.000000
# 2 -0.048240 0.059475 -0.002964 0.000000 0.000000 0.000000
# 3 -0.002966 -0.002964 0.008672 0.000000 0.000000 0.000000
# 4 0.000000 0.000000 0.000000 0.046307 0.000000 0.000000
# 5 0.000000 0.000000 0.000000 0.000000 0.046308 0.000000
# 6 0.000000 0.000000 0.000000 0.000000 0.000000 -0.002144
#
#
# Mechanical properties :
#
#
# Convention : Reuss Voigt Hill
#
# Bulk Modulus (GPa) = 51.85929 56.27030 54.06480
# Shear Modulus (GPa) = 15.02118 -75.65067 -30.31474
#
# Velocity S-wave (km/s) = 3.11204 -6.98392 -4.42099
# Velocity P-wave (km/s) = 6.80800 5.36225 2.96607
#
# Compressibility (1/GPa) = 0.01928295
#
# Stress axis : x y z
#
# Youngs Moduli (GPa) = 16.81333 16.81388 115.30947
#
# Poissons Ratio (x) = 0.81110 0.34203
# Poissons Ratio (y) = 0.81107 0.34180
# Poissons Ratio (z) = 0.04987 0.04984
#
# Static dielectric constant tensor:
#      x y z
#    x 3.216090 0.000000 0.000000 
#    y 0.000000 3.216090 0.000000 
#    z 0.000000 0.000000 3.228840 
# 
# 
# High freq. dielectric constant tensor:
#      x y z
#    x 1.563330 0.000000 0.000000 
#    y 0.000000 1.563330 0.000000 
#    z 0.000000 0.000000 1.625320 
# 
# From -- ./inp_files/1239.got.cif
#   From: 2010.03.12/outbox.cif.g09.slc.cpg/sg124_1_cif.got.tgz:1239.got - 2010.04.06 16:38:57.
