data_PCOD8313804
_publ_section_title
;
Structure prediction by ZEFSAII (Michael W. Deem and Ramdas Pophale) SiO2 
 PCOD8313804
Probable space group: P 4/N N C
;
_chemical_formula_sum "Si O2"
_cell_formula_units_Z 40
_cell_length_a 7.931437
_cell_length_b 7.931437
_cell_length_c 28.221504
_cell_angle_alpha 90.000000
_cell_angle_beta 90.000000
_cell_angle_gamma 90.000000
_cell_volume 1775.349706
_symmetry_space_group_name_H-M "P 4/N N C"
_symmetry_group_IT_number 126
_space_group.IT_coordinate_system_code '2'
_symmetry_cell_setting 'tetragonal'
loop_
_space_group_symop_operation_xyz
x,y,z
1/2-y,x,z
1/2-x,1/2-y,z
y,1/2-x,z
x,1/2-y,1/2-z
1/2-x,y,1/2-z
y,x,1/2-z
1/2-y,1/2-x,1/2-z
-x,-y,-z
1/2+y,-x,-z
1/2+x,1/2+y,-z
-y,1/2+x,-z
-x,1/2+y,1/2+z
1/2+x,-y,1/2+z
-y,-x,1/2+z
1/2+y,1/2+x,1/2+z
loop_
_atom_site_type_symbol
_atom_site_label
_atom_site_fract_x
_atom_site_fract_y
_atom_site_fract_z
Si Si1 0.484227 0.663756 0.328842
Si Si2 0.665346 0.484520 0.579860
Si Si3 0.250000 0.750000 0.750000
Si Si4 0.250000 0.750000 0.000000
O O1 0.642053 0.539949 0.327409
O O2 0.373785 0.633540 0.375514
O O3 0.366457 0.630610 0.283159
O O4 0.859074 0.539968 0.580753
O O5 0.637802 0.374793 0.532479
#
# Coordination Sequence:
#
# PCOD8313804 Si02
#       4
#    16  16   4   4
#     4  11  24  43  67  95 132 178 222 268 328 396
#     4  11  24  42  65  95 133 176 223 278 335 391
#     4  12  22  38  64  96 128 162 214 270 312 380
#     4  12  22  40  64  94 132 176 226 276 328 402
#
# _framework density 22.530771000000001
#
# number of rings (size 3 to 8) (size 9 to 14) (size 15 to 20)
#    0.000    0.800    0.000    8.400    0.000    1.600 
#    0.000    4.000    0.000    2.400    0.000    0.000 
#    0.000    0.000    0.000    0.000    0.000    0.000 
#
# Total GULP energy -496154.396273 kJ/mol
# GULP energy per Si atom -12403.859907 kJ/mol
# Density = 2.247949 g / cm^3
# Si number density = 22.530771 Si / 1000 Ang^3
#
#
#
# Elastic Constant Matrix: (Units=GPa)
#
#
# Indices 1 2 3 4 5 6 
#
# 1 132.9623 50.8074 79.7852 0.0000 0.0000 0.0000
# 2 50.8074 132.9623 79.7852 0.0000 0.0000 0.0000
# 3 79.7852 79.7852 218.7113 0.0000 0.0000 0.0000
# 4 0.0000 0.0000 0.0000 29.9429 0.0000 0.0000
# 5 0.0000 0.0000 0.0000 0.0000 29.9429 0.0000
# 6 0.0000 0.0000 0.0000 0.0000 0.0000 37.3570
#
#
#
# Elastic Compliance Matrix: (Units=1/GPa)
#
#
# Indices 1 2 3 4 5 6 
#
# 1 0.010068 -0.002104 -0.002905 0.000000 0.000000 0.000000
# 2 -0.002104 0.010068 -0.002905 0.000000 0.000000 0.000000
# 3 -0.002905 -0.002905 0.006692 0.000000 0.000000 0.000000
# 4 0.000000 0.000000 0.000000 0.033397 0.000000 0.000000
# 5 0.000000 0.000000 0.000000 0.000000 0.033397 0.000000
# 6 0.000000 0.000000 0.000000 0.000000 0.000000 0.026769
#
#
# Mechanical properties :
#
#
# Convention : Reuss Voigt Hill
#
# Bulk Modulus (GPa) = 90.91548 100.59905 95.75726
# Shear Modulus (GPa) = 35.74320 37.73244 36.73782
#
# Velocity S-wave (km/s) = 3.98731 4.09676 4.04240
# Velocity P-wave (km/s) = 7.85095 8.19295 8.02377
#
# Compressibility (1/GPa) = 0.01099923
#
# Stress axis : x y z
#
# Youngs Moduli (GPa) = 99.32211 99.32211 149.43248
#
# Poissons Ratio (x) = 0.20896 0.43416
# Poissons Ratio (y) = 0.20896 0.43416
# Poissons Ratio (z) = 0.28857 0.28857
#
# Static dielectric constant tensor:
#      x y z
#    x 4.044960 0.000000 0.000000 
#    y 0.000000 4.044960 0.000000 
#    z 0.000000 0.000000 4.224380 
# 
# 
# High freq. dielectric constant tensor:
#      x y z
#    x 1.891580 0.000000 0.000000 
#    y 0.000000 1.891580 0.000000 
#    z 0.000000 0.000000 1.904270 
# 
# From -- ./inp_files/5565.got.cif
#   From: 2010.03.12/outbox.cif.g09.slc.cpg/sg126_3_cif.got.tgz:5565.got - 2010.04.06 16:55:23.
