data_PCOD8313886
_publ_section_title
;
Structure prediction by ZEFSAII (Michael W. Deem and Ramdas Pophale) SiO2 
 PCOD8313886
Probable space group: P 4/M B M
;
_chemical_formula_sum "Si O2"
_cell_formula_units_Z 96
_cell_length_a 24.502084
_cell_length_b 24.502084
_cell_length_c 8.068680
_cell_angle_alpha 90.000000
_cell_angle_beta 90.000000
_cell_angle_gamma 90.000000
_cell_volume 4844.049146
_symmetry_space_group_name_H-M "P 4/M B M"
_symmetry_group_IT_number 127
_symmetry_cell_setting 'tetragonal'
loop_
_space_group_symop_operation_xyz
x,y,z
-y,x,z
-x,-y,z
y,-x,z
1/2+x,1/2-y,-z
1/2-x,1/2+y,-z
1/2+y,1/2+x,-z
1/2-y,1/2-x,-z
-x,-y,-z
y,-x,-z
x,y,-z
-y,x,-z
1/2-x,1/2+y,z
1/2+x,1/2-y,z
1/2-y,1/2-x,z
1/2+y,1/2+x,z
loop_
_atom_site_type_symbol
_atom_site_label
_atom_site_fract_x
_atom_site_fract_y
_atom_site_fract_z
Si Si1 0.859559 0.077482 0.807819
Si Si2 0.043890 0.456111 0.806666
Si Si3 0.654999 0.996809 0.309060
Si Si4 0.798983 0.866664 0.190906
Si Si5 0.069811 0.946007 0.500000
Si Si6 0.293465 0.206536 0.814454
Si Si7 0.874227 0.374227 0.689018
Si Si8 0.487114 0.274262 0.808937
O O1 0.841743 0.140629 0.794176
O O2 0.907651 0.074971 0.675111
O O3 0.812742 0.036259 0.743237
O O4 0.878094 0.065461 0.000000
O O5 0.106346 0.465399 0.754853
O O6 0.000000 0.500000 0.726253
O O7 0.038050 0.461951 0.000000
O O8 0.665231 0.008778 0.500000
O O9 0.712427 0.006701 0.218511
O O10 0.636300 0.936363 0.271066
O O11 0.759277 0.820999 0.276020
O O12 0.789395 0.927564 0.272372
O O13 0.780889 0.872351 0.000000
O O14 0.009800 0.923579 0.500000
O O15 0.339697 0.160304 0.818074
O O16 0.276590 0.223411 0.000000
O O17 0.858977 0.358977 0.500000
O O18 0.481896 0.287364 0.000000
#
# Coordination Sequence:
#
# PCOD8313886 Si02
#       8
#    16   8  16  16   8   8   8  16
#     4  10  22  41  61  87 125 162 200 249 307 372
#     4  11  23  37  56  81 114 156 202 251 299 356
#     4  11  22  36  56  82 119 156 193 242 304 366
#     4   9  18  34  57  85 114 151 195 244 307 362
#     4  11  24  40  62  93 120 152 203 247 298 368
#     4  10  18  32  56  82 112 147 193 251 301 352
#     4  10  20  33  49  83 120 150 187 238 307 362
#     4  10  20  36  60  85 113 153 199 244 299 368
#
# _framework density 19.818131000000001
#
# number of rings (size 3 to 8) (size 9 to 14) (size 15 to 20)
#    0.000    1.833    2.500    1.750    1.167    3.000 
#    3.000    1.667    0.000    3.000    0.000    0.000 
#    0.000    0.000    0.000    0.000    0.000    0.000 
#
# Total GULP energy -1189391.500940 kJ/mol
# GULP energy per Si atom -12389.494801 kJ/mol
# Density = 1.977302 g / cm^3
# Si number density = 19.818131 Si / 1000 Ang^3
#
#
#
# Elastic Constant Matrix: (Units=GPa)
#
#
# Indices 1 2 3 4 5 6 
#
# 1 107.3093 55.3090 14.0382 0.0000 0.0000 0.0000
# 2 55.3090 107.3080 14.0387 0.0000 0.0000 0.0000
# 3 14.0382 14.0387 46.0749 0.0000 0.0000 0.0000
# 4 0.0000 0.0000 0.0000 16.8225 0.0000 0.0000
# 5 0.0000 0.0000 0.0000 0.0000 16.8225 0.0000
# 6 0.0000 0.0000 0.0000 0.0000 0.0000 43.2966
#
#
#
# Elastic Compliance Matrix: (Units=1/GPa)
#
#
# Indices 1 2 3 4 5 6 
#
# 1 0.012861 -0.006370 -0.001978 0.000000 0.000000 0.000000
# 2 -0.006370 0.012861 -0.001978 0.000000 0.000000 0.000000
# 3 -0.001978 -0.001978 0.022909 0.000000 0.000000 0.000000
# 4 0.000000 0.000000 0.000000 0.059444 0.000000 0.000000
# 5 0.000000 0.000000 0.000000 0.000000 0.059444 0.000000
# 6 0.000000 0.000000 0.000000 0.000000 0.000000 0.023097
#
#
# Mechanical properties :
#
#
# Convention : Reuss Voigt Hill
#
# Bulk Modulus (GPa) = 35.73989 47.49599 41.61794
# Shear Modulus (GPa) = 22.66616 27.20873 24.93744
#
# Velocity S-wave (km/s) = 3.38554 3.70931 3.55112
# Velocity P-wave (km/s) = 5.77543 6.50871 6.15301
#
# Compressibility (1/GPa) = 0.02797994
#
# Stress axis : x y z
#
# Youngs Moduli (GPa) = 77.75579 77.75460 43.65103
#
# Poissons Ratio (x) = 0.49530 0.08632
# Poissons Ratio (y) = 0.49531 0.08633
# Poissons Ratio (z) = 0.15377 0.15378
#
# Static dielectric constant tensor:
#      x y z
#    x 3.695360 0.000000 0.000000 
#    y 0.000000 3.695360 0.000000 
#    z 0.000000 0.000000 3.507810 
# 
# 
# High freq. dielectric constant tensor:
#      x y z
#    x 1.770980 0.000000 0.000000 
#    y 0.000000 1.770980 0.000000 
#    z 0.000000 0.000000 1.756470 
# 
# From -- ./inp_files/2150.got.cif
#   From: 2010.03.12/outbox.cif.g09.slc.cpg/sg127_2_cif.got.tgz:2150.got - 2010.04.06 17:03:15.
