data_PCOD8313843
_publ_section_title
;
Structure prediction by ZEFSAII (Michael W. Deem and Ramdas Pophale) SiO2 
 PCOD8313843
Probable space group: P 4/M B M
;
_chemical_formula_sum "Si O2"
_cell_formula_units_Z 104
_cell_length_a 26.978892
_cell_length_b 26.978892
_cell_length_c 7.912031
_cell_angle_alpha 90.000000
_cell_angle_beta 90.000000
_cell_angle_gamma 90.000000
_cell_volume 5758.855738
_symmetry_space_group_name_H-M "P 4/M B M"
_symmetry_group_IT_number 127
_symmetry_cell_setting 'tetragonal'
loop_
_space_group_symop_operation_xyz
x,y,z
-y,x,z
-x,-y,z
y,-x,z
1/2+x,1/2-y,-z
1/2-x,1/2+y,-z
1/2+y,1/2+x,-z
1/2-y,1/2-x,-z
-x,-y,-z
y,-x,-z
x,y,-z
-y,x,-z
1/2-x,1/2+y,z
1/2+x,1/2-y,z
1/2-y,1/2-x,z
1/2+y,1/2+x,z
loop_
_atom_site_type_symbol
_atom_site_label
_atom_site_fract_x
_atom_site_fract_y
_atom_site_fract_z
Si Si1 0.077824 0.498727 0.200661
Si Si2 0.499917 0.282010 0.694516
Si Si3 0.317830 0.605067 0.300337
Si Si4 0.865480 0.074144 0.302395
Si Si5 0.073755 0.967302 0.000000
Si Si6 0.466699 0.181596 0.806417
Si Si7 0.285457 0.137810 0.305227
O O1 0.045956 0.545956 0.262121
O O2 0.133937 0.504341 0.269758
O O3 0.051831 0.448170 0.270038
O O4 0.078214 0.496491 0.000000
O O5 0.491192 0.269186 0.500000
O O6 0.452745 0.315122 0.758604
O O7 0.551980 0.310309 0.722050
O O8 0.501957 0.229813 0.791714
O O9 0.315073 0.607240 0.500000
O O10 0.368588 0.631633 0.241819
O O11 0.270022 0.634472 0.223860
O O12 0.882339 0.067771 0.500000
O O13 0.899159 0.043185 0.176235
O O14 0.025064 0.934952 0.000000
O O15 0.415436 0.188418 0.707862
O O16 0.452960 0.172004 0.000000
O O17 0.280322 0.151356 0.500000
O O18 0.319218 0.180783 0.217187
#
# Coordination Sequence:
#
# PCOD8313843 Si02
#       7
#    16  16  16  16   8  16  16
#     4   8  14  25  41  63  93 128 163 197 238 292
#     4   9  18  32  50  70  94 126 163 201 245 299
#     4   8  15  30  49  70  92 123 166 199 241 299
#     4  10  20  36  56  73 100 139 173 210 254 306
#     4  11  24  36  50  78 107 130 168 211 251 308
#     4  10  18  27  45  71  97 124 160 206 247 294
#     4   9  17  30  48  70  99 130 160 201 252 305
#
# _framework density 18.059144
#
# number of rings (size 3 to 8) (size 9 to 14) (size 15 to 20)
#    0.000    2.846    0.000    3.231    1.077    2.769 
#    5.538    0.769    0.000    2.769    0.000    7.538 
#    0.000    0.000    0.000    0.000    0.000    0.000 
#
# Total GULP energy -1288473.764500 kJ/mol
# GULP energy per Si atom -12389.170812 kJ/mol
# Density = 1.801804 g / cm^3
# Si number density = 18.059144 Si / 1000 Ang^3
#
#
#
# Elastic Constant Matrix: (Units=GPa)
#
#
# Indices 1 2 3 4 5 6 
#
# 1 121.9880 51.1288 12.0661 0.0000 0.0000 0.0000
# 2 51.1288 121.9880 12.0661 0.0000 0.0000 0.0000
# 3 12.0661 12.0661 38.3801 0.0000 0.0000 0.0000
# 4 0.0000 0.0000 0.0000 15.4296 0.0000 0.0000
# 5 0.0000 0.0000 0.0000 0.0000 15.4296 0.0000
# 6 0.0000 0.0000 0.0000 0.0000 0.0000 35.9785
#
#
#
# Elastic Compliance Matrix: (Units=1/GPa)
#
#
# Indices 1 2 3 4 5 6 
#
# 1 0.010077 -0.004036 -0.001899 0.000000 0.000000 0.000000
# 2 -0.004036 0.010077 -0.001899 0.000000 0.000000 0.000000
# 3 -0.001899 -0.001899 0.027249 0.000000 0.000000 0.000000
# 4 0.000000 0.000000 0.000000 0.064810 0.000000 0.000000
# 5 0.000000 0.000000 0.000000 0.000000 0.064810 0.000000
# 6 0.000000 0.000000 0.000000 0.000000 0.000000 0.027794
#
#
# Mechanical properties :
#
#
# Convention : Reuss Voigt Hill
#
# Bulk Modulus (GPa) = 31.51124 48.09756 39.80440
# Shear Modulus (GPa) = 21.63897 27.17390 24.40644
#
# Velocity S-wave (km/s) = 3.46530 3.88328 3.68023
# Velocity P-wave (km/s) = 5.78773 6.84088 6.33622
#
# Compressibility (1/GPa) = 0.03173471
#
# Stress axis : x y z
#
# Youngs Moduli (GPa) = 99.23742 99.23742 36.69814
#
# Poissons Ratio (x) = 0.40049 0.06970
# Poissons Ratio (y) = 0.40049 0.06970
# Poissons Ratio (z) = 0.18848 0.18848
#
# Static dielectric constant tensor:
#      x y z
#    x 3.603780 0.000000 0.000000 
#    y 0.000000 3.603780 0.000000 
#    z 0.000000 0.000000 3.121880 
# 
# 
# High freq. dielectric constant tensor:
#      x y z
#    x 1.688290 0.000000 0.000000 
#    y 0.000000 1.688290 0.000000 
#    z 0.000000 0.000000 1.681950 
# 
# From -- ./inp_files/2311.got.cif
#   From: 2010.03.12/outbox.cif.g09.slc.cpg/sg127_2_cif.got.tgz:2311.got - 2010.04.06 17:03:15.
