data_PCOD8313276
_publ_section_title
;
Structure prediction by ZEFSAII (Michael W. Deem and Ramdas Pophale) SiO2 
 PCOD8313276
Probable space group: P 4/M C C
;
_chemical_formula_sum "Si O2"
_cell_formula_units_Z 120
_cell_length_a 14.384692
_cell_length_b 14.384692
_cell_length_c 31.423040
_cell_angle_alpha 90.000000
_cell_angle_beta 90.000000
_cell_angle_gamma 90.000000
_cell_volume 6502.035450
_symmetry_space_group_name_H-M "P 4/M C C"
_symmetry_group_IT_number 124
_symmetry_cell_setting 'tetragonal'
loop_
_space_group_symop_operation_xyz
x,y,z
-y,x,z
-x,-y,z
y,-x,z
x,-y,1/2-z
-x,y,1/2-z
y,x,1/2-z
-y,-x,1/2-z
-x,-y,-z
y,-x,-z
x,y,-z
-y,x,-z
-x,y,1/2+z
x,-y,1/2+z
-y,-x,1/2+z
y,x,1/2+z
loop_
_atom_site_type_symbol
_atom_site_label
_atom_site_fract_x
_atom_site_fract_y
_atom_site_fract_z
Si Si1 0.359891 0.560826 0.651325
Si Si2 0.722552 0.995596 0.874071
Si Si3 0.402358 0.048734 0.451458
Si Si4 0.381428 0.401583 0.000000
Si Si5 0.797147 0.192231 0.130331
Si Si6 0.605231 0.964316 0.293372
Si Si7 0.327048 0.242377 0.707734
Si Si8 0.637712 0.749411 0.574696
O O1 0.379288 0.452721 0.646795
O O2 0.316744 0.592223 0.696409
O O3 0.283990 0.580641 0.615387
O O4 0.783126 0.903791 0.874269
O O5 0.671288 0.004276 0.919248
O O6 0.791886 0.081092 0.866289
O O7 0.649875 0.992313 0.835465
O O8 0.369213 0.031195 0.500000
O O9 0.412970 0.159331 0.443790
O O10 0.500000 0.000000 0.442703
O O11 0.487704 0.370492 0.000000
O O12 0.333548 0.358074 0.041110
O O13 0.752539 0.239981 0.171773
O O14 0.742896 0.226615 0.088220
O O15 0.616495 0.853667 0.290655
O O16 0.500000 0.000000 0.294063
O O17 0.654413 0.000000 0.250000
O O18 0.273555 0.273555 0.750000
#
# Coordination Sequence:
#
# PCOD8313276 Si02
#       8
#    16  16  16   8  16  16  16  16
#     4  10  22  37  53  77 113 154 195 234 275 334
#     4  10  20  38  57  81 114 148 183 238 289 345
#     4  10  21  37  56  83 113 142 182 235 289 345
#     4  11  22  34  53  80 110 143 181 224 266 322
#     4   9  21  37  58  82 108 145 185 229 290 344
#     4  10  21  35  57  87 115 147 193 244 290 347
#     4  10  21  37  57  84 116 152 191 239 291 350
#     4  10  20  38  55  79 110 143 185 229 279 336
#
# _framework density 18.455759
#
# number of rings (size 3 to 8) (size 9 to 14) (size 15 to 20)
#    0.000    2.067    0.667    2.800    0.000    9.333 
#    1.200    0.667    0.000    0.000    0.000    3.733 
#    0.000    0.000    0.000    0.000    0.000    0.000 
#
# Total GULP energy -1487841.829460 kJ/mol
# GULP energy per Si atom -12398.681912 kJ/mol
# Density = 1.841375 g / cm^3
# Si number density = 18.455759 Si / 1000 Ang^3
#
#
#
# Elastic Constant Matrix: (Units=GPa)
#
#
# Indices 1 2 3 4 5 6 
#
# 1 89.1865 53.0602 44.0179 0.0000 0.0000 0.0000
# 2 53.0602 89.1865 44.0179 0.0000 0.0000 0.0000
# 3 44.0179 44.0179 119.7398 0.0000 0.0000 0.0000
# 4 0.0000 0.0000 0.0000 23.2709 0.0000 0.0000
# 5 0.0000 0.0000 0.0000 0.0000 23.2709 0.0000
# 6 0.0000 0.0000 0.0000 0.0000 0.0000 28.5601
#
#
#
# Elastic Compliance Matrix: (Units=1/GPa)
#
#
# Indices 1 2 3 4 5 6 
#
# 1 0.018391 -0.009290 -0.003345 0.000000 0.000000 0.000000
# 2 -0.009290 0.018391 -0.003345 0.000000 0.000000 0.000000
# 3 -0.003345 -0.003345 0.010811 0.000000 0.000000 0.000000
# 4 0.000000 0.000000 0.000000 0.042972 0.000000 0.000000
# 5 0.000000 0.000000 0.000000 0.000000 0.042972 0.000000
# 6 0.000000 0.000000 0.000000 0.000000 0.000000 0.035014
#
#
# Mechanical properties :
#
#
# Convention : Reuss Voigt Hill
#
# Bulk Modulus (GPa) = 63.97829 64.47829 64.22829
# Shear Modulus (GPa) = 24.30459 25.48818 24.89638
#
# Velocity S-wave (km/s) = 3.63286 3.72027 3.67683
# Velocity P-wave (km/s) = 7.23450 7.31207 7.27339
#
# Compressibility (1/GPa) = 0.01563030
#
# Stress axis : x y z
#
# Youngs Moduli (GPa) = 54.37567 54.37567 92.49733
#
# Poissons Ratio (x) = 0.50515 0.30945
# Poissons Ratio (y) = 0.50515 0.30945
# Poissons Ratio (z) = 0.18191 0.18191
#
# Static dielectric constant tensor:
#      x y z
#    x 3.344370 0.000000 0.000000 
#    y 0.000000 3.344370 0.000000 
#    z 0.000000 0.000000 3.740690 
# 
# 
# High freq. dielectric constant tensor:
#      x y z
#    x 1.712880 0.000000 0.000000 
#    y 0.000000 1.712880 0.000000 
#    z 0.000000 0.000000 1.730230 
# 
# From -- ./inp_files/7346.got.cif
#   From: 2010.03.12/outbox.cif.g09.slc.cpg/sg124_4_cif.got.tgz:7346.got - 2010.04.06 16:38:57.
