data_PCOD8313222
_publ_section_title
;
Structure prediction by ZEFSAII (Michael W. Deem and Ramdas Pophale) SiO2 
 PCOD8313222
Probable space group: P 4/M C C
;
_chemical_formula_sum "Si O2"
_cell_formula_units_Z 64
_cell_length_a 18.401281
_cell_length_b 18.401281
_cell_length_c 9.774230
_cell_angle_alpha 90.000000
_cell_angle_beta 90.000000
_cell_angle_gamma 90.000000
_cell_volume 3309.624090
_symmetry_space_group_name_H-M "P 4/M C C"
_symmetry_group_IT_number 124
_symmetry_cell_setting 'tetragonal'
loop_
_space_group_symop_operation_xyz
x,y,z
-y,x,z
-x,-y,z
y,-x,z
x,-y,1/2-z
-x,y,1/2-z
y,x,1/2-z
-y,-x,1/2-z
-x,-y,-z
y,-x,-z
x,y,-z
-y,x,-z
-x,y,1/2+z
x,-y,1/2+z
-y,-x,1/2+z
y,x,1/2+z
loop_
_atom_site_type_symbol
_atom_site_label
_atom_site_fract_x
_atom_site_fract_y
_atom_site_fract_z
Si Si1 0.064324 0.151044 0.155864
Si Si2 0.320904 0.935653 0.154724
Si Si3 0.344209 0.774364 0.246534
Si Si4 0.294864 0.585023 0.000000
Si Si5 0.698988 0.416045 0.500000
O O1 0.135554 0.135554 0.250000
O O2 0.052402 0.235821 0.139467
O O3 0.000000 0.116622 0.250000
O O4 0.068996 0.117876 0.000000
O O5 0.334658 0.860177 0.231949
O O6 0.354209 0.000000 0.250000
O O7 0.354643 0.937020 0.000000
O O8 0.265541 0.734460 0.250000
O O9 0.391613 0.756184 0.377018
O O10 0.394349 0.746548 0.127133
O O11 0.315749 0.501145 0.000000
O O12 0.373575 0.622822 0.000000
#
# Coordination Sequence:
#
# PCOD8313222 Si02
#       5
#    16  16  16   8   8
#     4  10  20  34  50  73 102 138 180 230 289 348
#     4  10  21  36  56  82 113 146 190 247 298 346
#     4  10  20  37  59  87 118 158 202 243 291 350
#     4  10  22  35  63  91 121 161 194 238 288 350
#     4  10  20  39  59  91 125 155 198 236 290 346
#
# _framework density 19.337544999999999
#
# number of rings (size 3 to 8) (size 9 to 14) (size 15 to 20)
#    0.000    2.000    1.250    2.250    1.750    1.500 
#    0.000    1.250    0.000    9.000    0.000    0.000 
#    0.000    0.000    0.000    0.000    0.000    0.000 
#
# Total GULP energy -793069.846326 kJ/mol
# GULP energy per Si atom -12391.716349 kJ/mol
# Density = 1.929353 g / cm^3
# Si number density = 19.337545 Si / 1000 Ang^3
#
#
#
# Elastic Constant Matrix: (Units=GPa)
#
#
# Indices 1 2 3 4 5 6 
#
# 1 119.8737 32.5485 56.2004 0.0000 0.0000 0.0000
# 2 32.5485 119.8742 56.2001 0.0000 0.0000 0.0000
# 3 56.2004 56.2001 186.2341 0.0000 0.0000 0.0000
# 4 0.0000 0.0000 0.0000 38.8444 0.0000 0.0000
# 5 0.0000 0.0000 0.0000 0.0000 38.8426 0.0000
# 6 0.0000 0.0000 0.0000 0.0000 0.0000 16.3528
#
#
#
# Elastic Compliance Matrix: (Units=1/GPa)
#
#
# Indices 1 2 3 4 5 6 
#
# 1 0.009945 -0.001506 -0.002547 0.000000 0.000000 0.000000
# 2 -0.001506 0.009945 -0.002547 0.000000 0.000000 0.000000
# 3 -0.002547 -0.002547 0.006907 0.000000 0.000000 0.000000
# 4 0.000000 0.000000 0.000000 0.025744 0.000000 0.000000
# 5 0.000000 0.000000 0.000000 0.000000 0.025745 0.000000
# 6 0.000000 0.000000 0.000000 0.000000 0.000000 0.061152
#
#
# Mechanical properties :
#
#
# Convention : Reuss Voigt Hill
#
# Bulk Modulus (GPa) = 73.54242 79.54222 76.54232
# Shear Modulus (GPa) = 31.81300 37.54348 34.67824
#
# Velocity S-wave (km/s) = 4.06043 4.41100 4.23934
# Velocity P-wave (km/s) = 7.75218 8.19545 7.97690
#
# Compressibility (1/GPa) = 0.01359759
#
# Stress axis : x y z
#
# Youngs Moduli (GPa) = 100.55265 100.55330 144.79055
#
# Poissons Ratio (x) = 0.15147 0.36872
# Poissons Ratio (y) = 0.15147 0.36871
# Poissons Ratio (z) = 0.25606 0.25606
#
# Static dielectric constant tensor:
#      x y z
#    x 3.329730 0.000000 0.000000 
#    y 0.000000 3.329740 0.000000 
#    z 0.000000 0.000000 4.025180 
# 
# 
# High freq. dielectric constant tensor:
#      x y z
#    x 1.732670 0.000000 0.000000 
#    y 0.000000 1.732670 0.000000 
#    z 0.000000 0.000000 1.781080 
# 
# From -- ./inp_files/913.got.cif
#   From: 2010.03.12/outbox.cif.g09.slc.cpg/sg124_1_cif.got.tgz:913.got - 2010.04.06 16:38:57.
