data_PCOD8313777
_publ_section_title
;
Structure prediction by ZEFSAII (Michael W. Deem and Ramdas Pophale) SiO2 
 PCOD8313777
Probable space group: P 4/N N C
;
_chemical_formula_sum "Si O2"
_cell_formula_units_Z 80
_cell_length_a 13.882490
_cell_length_b 13.882490
_cell_length_c 20.001209
_cell_angle_alpha 90.000000
_cell_angle_beta 90.000000
_cell_angle_gamma 90.000000
_cell_volume 3854.703575
_symmetry_space_group_name_H-M "P 4/N N C"
_symmetry_group_IT_number 126
_space_group.IT_coordinate_system_code '2'
_symmetry_cell_setting 'tetragonal'
loop_
_space_group_symop_operation_xyz
x,y,z
1/2-y,x,z
1/2-x,1/2-y,z
y,1/2-x,z
x,1/2-y,1/2-z
1/2-x,y,1/2-z
y,x,1/2-z
1/2-y,1/2-x,1/2-z
-x,-y,-z
1/2+y,-x,-z
1/2+x,1/2+y,-z
-y,1/2+x,-z
-x,1/2+y,1/2+z
1/2+x,-y,1/2+z
-y,-x,1/2+z
1/2+y,1/2+x,1/2+z
loop_
_atom_site_type_symbol
_atom_site_label
_atom_site_fract_x
_atom_site_fract_y
_atom_site_fract_z
Si Si1 0.375126 0.156404 0.997542
Si Si2 0.442257 0.392314 0.862143
Si Si3 0.937602 0.131881 0.437044
Si Si4 0.474473 0.705393 0.318138
Si Si5 0.840592 0.183124 0.071022
O O1 0.383910 0.269886 0.010187
O O2 0.408442 0.130920 0.923270
O O3 0.450605 0.109016 0.048315
O O4 0.553451 0.410427 0.881756
O O5 0.442288 0.282141 0.838715
O O6 0.396960 0.468456 0.808311
O O7 0.924272 0.240622 0.407815
O O8 0.875041 0.122899 0.505542
O O9 0.429348 0.750000 0.250000
O O10 0.388065 0.689668 0.369968
O O11 0.750000 0.250000 0.053417
#
# Coordination Sequence:
#
# PCOD8313777 Si02
#       5
#    16  16  16  16  16
#     4  11  22  36  59  94 133 165 204 256 329 399
#     4  12  23  42  63  92 127 171 216 263 317 385
#     4  12  22  38  65  98 127 167 211 272 336 389
#     4  12  27  44  64  90 127 177 221 264 310 383
#     4  12  21  40  63  93 128 164 215 268 329 383
#
# _framework density 20.753867
#
# number of rings (size 3 to 8) (size 9 to 14) (size 15 to 20)
#    0.000    0.200    8.000    2.400    2.800    0.800 
#    0.000    1.000    0.000    0.000    0.000    0.000 
#    0.000    0.000    0.000    0.000    0.000    0.000 
#
# Total GULP energy -991140.874237 kJ/mol
# GULP energy per Si atom -12389.260928 kJ/mol
# Density = 2.070663 g / cm^3
# Si number density = 20.753867 Si / 1000 Ang^3
#
#
#
# Elastic Constant Matrix: (Units=GPa)
#
#
# Indices 1 2 3 4 5 6 
#
# 1 93.8568 37.0093 27.9295 0.0000 0.0000 0.0000
# 2 37.0093 93.8568 27.9295 0.0000 0.0000 0.0000
# 3 27.9295 27.9295 69.4303 0.0000 0.0000 0.0000
# 4 0.0000 0.0000 0.0000 20.7572 0.0000 0.0000
# 5 0.0000 0.0000 0.0000 0.0000 20.7572 0.0000
# 6 0.0000 0.0000 0.0000 0.0000 0.0000 26.0622
#
#
#
# Elastic Compliance Matrix: (Units=1/GPa)
#
#
# Indices 1 2 3 4 5 6 
#
# 1 0.013408 -0.004183 -0.003711 0.000000 0.000000 0.000000
# 2 -0.004183 0.013408 -0.003711 0.000000 0.000000 0.000000
# 3 -0.003711 -0.003711 0.017389 0.000000 0.000000 0.000000
# 4 0.000000 0.000000 0.000000 0.048176 0.000000 0.000000
# 5 0.000000 0.000000 0.000000 0.000000 0.048176 0.000000
# 6 0.000000 0.000000 0.000000 0.000000 0.000000 0.038370
#
#
# Mechanical properties :
#
#
# Convention : Reuss Voigt Hill
#
# Bulk Modulus (GPa) = 47.63003 49.20894 48.41948
# Shear Modulus (GPa) = 23.90799 24.46702 24.18751
#
# Velocity S-wave (km/s) = 3.39776 3.43726 3.41757
# Velocity P-wave (km/s) = 6.19619 6.28611 6.24131
#
# Compressibility (1/GPa) = 0.02099516
#
# Stress axis : x y z
#
# Youngs Moduli (GPa) = 74.58127 74.58127 57.50885
#
# Poissons Ratio (x) = 0.31195 0.21342
# Poissons Ratio (y) = 0.31195 0.21342
# Poissons Ratio (z) = 0.27678 0.27678
#
# Static dielectric constant tensor:
#      x y z
#    x 4.162450 0.000000 0.000000 
#    y 0.000000 4.162450 0.000000 
#    z 0.000000 0.000000 3.465530 
# 
# 
# High freq. dielectric constant tensor:
#      x y z
#    x 1.822860 0.000000 0.000000 
#    y 0.000000 1.822860 0.000000 
#    z 0.000000 0.000000 1.769890 
# 
# From -- ./inp_files/5070.got.cif
#   From: 2010.03.12/outbox.cif.g09.slc.cpg/sg126_3_cif.got.tgz:5070.got - 2010.04.06 16:55:23.
