data_PCOD8313932
_publ_section_title
;
Structure prediction by ZEFSAII (Michael W. Deem and Ramdas Pophale) SiO2 
 PCOD8313932
Probable space group: P 4/M B M
;
_chemical_formula_sum "Si O2"
_cell_formula_units_Z 72
_cell_length_a 14.166421
_cell_length_b 14.166421
_cell_length_c 18.579312
_cell_angle_alpha 90.000000
_cell_angle_beta 90.000000
_cell_angle_gamma 90.000000
_cell_volume 3728.635379
_symmetry_space_group_name_H-M "P 4/M B M"
_symmetry_group_IT_number 127
_symmetry_cell_setting 'tetragonal'
loop_
_space_group_symop_operation_xyz
x,y,z
-y,x,z
-x,-y,z
y,-x,z
1/2+x,1/2-y,-z
1/2-x,1/2+y,-z
1/2+y,1/2+x,-z
1/2-y,1/2-x,-z
-x,-y,-z
y,-x,-z
x,y,-z
-y,x,-z
1/2-x,1/2+y,z
1/2+x,1/2-y,z
1/2-y,1/2-x,z
1/2+y,1/2+x,z
loop_
_atom_site_type_symbol
_atom_site_label
_atom_site_fract_x
_atom_site_fract_y
_atom_site_fract_z
Si Si1 0.833791 0.513662 0.000000
Si Si2 0.075595 0.137690 0.500000
Si Si3 0.163101 0.179019 0.000000
Si Si4 0.908127 0.250435 0.718306
Si Si5 0.244210 0.598803 0.877020
Si Si6 0.265569 0.389836 0.648672
O O1 0.738439 0.571075 0.000000
O O2 0.832820 0.456282 0.074322
O O3 0.928609 0.571392 0.000000
O O4 0.110719 0.196282 0.431979
O O5 0.963257 0.126482 0.500000
O O6 0.163582 0.114955 0.927559
O O7 0.259313 0.240688 0.000000
O O8 0.847250 0.347250 0.708069
O O9 0.947871 0.234302 0.800027
O O10 0.845266 0.159424 0.698179
O O11 0.002565 0.255591 0.671068
O O12 0.200353 0.700353 0.855784
O O13 0.168116 0.331884 0.653132
#
# Coordination Sequence:
#
# PCOD8313932 Si02
#       6
#     8   8   8  16  16  16
#     4  10  19  30  54  80 101 146 200 238 290 359
#     4  11  21  40  68  95 126 160 202 251 294 356
#     4   8  16  31  50  72 102 141 185 228 280 345
#     4  10  23  40  61  91 124 161 205 254 311 371
#     4   9  19  35  51  74 112 146 183 243 297 349
#     4  11  23  41  66  92 125 163 201 250 309 366
#
# _framework density 19.310013000000001
#
# number of rings (size 3 to 8) (size 9 to 14) (size 15 to 20)
#    0.000    2.111    2.222    1.333    3.111    2.667 
#    0.000    2.778    0.000    6.667    0.000    0.000 
#    0.000    0.000    0.000    0.000    0.000    0.000 
#
# Total GULP energy -892056.146894 kJ/mol
# GULP energy per Si atom -12389.668707 kJ/mol
# Density = 1.926606 g / cm^3
# Si number density = 19.310013 Si / 1000 Ang^3
#
#
#
# Elastic Constant Matrix: (Units=GPa)
#
#
# Indices 1 2 3 4 5 6 
#
# 1 92.3362 50.1266 31.6524 0.0000 0.0000 0.0000
# 2 50.1266 92.3360 31.6536 0.0000 0.0000 0.0000
# 3 31.6524 31.6536 137.4042 0.0000 0.0000 0.0000
# 4 0.0000 0.0000 0.0000 16.4380 0.0000 0.0000
# 5 0.0000 0.0000 0.0000 0.0000 16.4355 0.0000
# 6 0.0000 0.0000 0.0000 0.0000 0.0000 35.6021
#
#
#
# Elastic Compliance Matrix: (Units=1/GPa)
#
#
# Indices 1 2 3 4 5 6 
#
# 1 0.015756 -0.007936 -0.001801 0.000000 0.000000 0.000000
# 2 -0.007936 0.015756 -0.001802 0.000000 0.000000 0.000000
# 3 -0.001801 -0.001802 0.008108 0.000000 0.000000 0.000000
# 4 0.000000 0.000000 0.000000 0.060834 0.000000 0.000000
# 5 0.000000 0.000000 0.000000 0.000000 0.060844 0.000000
# 6 0.000000 0.000000 0.000000 0.000000 0.000000 0.028088
#
#
# Mechanical properties :
#
#
# Convention : Reuss Voigt Hill
#
# Bulk Modulus (GPa) = 60.45277 60.99351 60.72314
# Shear Modulus (GPa) = 22.93823 27.60472 25.27147
#
# Velocity S-wave (km/s) = 3.45032 3.78505 3.62155
# Velocity P-wave (km/s) = 6.87367 7.12440 7.00016
#
# Compressibility (1/GPa) = 0.01654184
#
# Stress axis : x y z
#
# Youngs Moduli (GPa) = 63.46968 63.46912 123.33858
#
# Poissons Ratio (x) = 0.50367 0.22217
# Poissons Ratio (y) = 0.50368 0.22220
# Poissons Ratio (z) = 0.11433 0.11434
#
# Static dielectric constant tensor:
#      x y z
#    x 3.191460 0.000000 0.000000 
#    y 0.000000 3.191180 0.000000 
#    z 0.000000 0.000000 3.728420 
# 
# 
# High freq. dielectric constant tensor:
#      x y z
#    x 1.742610 0.000000 0.000000 
#    y 0.000000 1.742610 0.000000 
#    z 0.000000 0.000000 1.764660 
# 
# From -- ./inp_files/4976.got.cif
#   From: 2010.03.12/outbox.cif.g09.slc.cpg/sg127_3_cif.got.tgz:4976.got - 2010.04.06 17:03:15.
