data_PCOD8313634
_publ_section_title
;
Structure prediction by ZEFSAII (Michael W. Deem and Ramdas Pophale) SiO2 
 PCOD8313634
Probable space group: P 4/N B M
;
_chemical_formula_sum "Si O2"
_cell_formula_units_Z 66
_cell_length_a 17.018094
_cell_length_b 17.018094
_cell_length_c 13.371349
_cell_angle_alpha 90.000000
_cell_angle_beta 90.000000
_cell_angle_gamma 90.000000
_cell_volume 3872.550239
_symmetry_space_group_name_H-M "P 4/N B M"
_symmetry_group_IT_number 125
_space_group.IT_coordinate_system_code '2'
_symmetry_cell_setting 'tetragonal'
loop_
_space_group_symop_operation_xyz
x,y,z
1/2-y,x,z
1/2-x,1/2-y,z
y,1/2-x,z
x,1/2-y,-z
1/2-x,y,-z
y,x,-z
1/2-y,1/2-x,-z
-x,-y,-z
1/2+y,-x,-z
1/2+x,1/2+y,-z
-y,1/2+x,-z
-x,1/2+y,z
1/2+x,-y,z
-y,-x,z
1/2+y,1/2+x,z
loop_
_atom_site_type_symbol
_atom_site_label
_atom_site_fract_x
_atom_site_fract_y
_atom_site_fract_z
Si Si1 0.750000 0.250000 0.500000
Si Si2 0.047342 0.952659 0.585347
Si Si3 0.967827 0.708281 0.606887
Si Si4 0.369515 0.630486 0.417920
Si Si5 0.841060 0.657626 0.889965
Si Si6 0.582105 0.635508 0.690483
O O1 0.803052 0.303052 0.426265
O O2 0.106416 0.893585 0.530331
O O3 0.998055 0.905442 0.664698
O O4 0.000000 0.000000 0.500000
O O5 0.976167 0.750000 0.500000
O O6 0.898307 0.643799 0.608343
O O7 0.935660 0.771936 0.685147
O O8 0.051719 0.666405 0.635988
O O9 0.858584 0.749063 0.877911
O O10 0.885982 0.610033 0.802824
O O11 0.870319 0.629681 0.000000
#
# Coordination Sequence:
#
# PCOD8313634 Si02
#       6
#     2   8  16   8  16  16
#     4  12  20  36  60  68  92 144 214 236 216 288
#     4  12  20  36  49  70 115 152 174 209 281 332
#     4  12  22  34  52  77 113 146 185 217 267 328
#     4  12  22  38  52  74 106 154 190 227 257 303
#     4   9  18  34  54  77 103 133 177 229 278 321
#     4  12  21  34  54  79 107 148 178 226 275 331
#
# _framework density 17.043033000000001
#
# number of rings (size 3 to 8) (size 9 to 14) (size 15 to 20)
#    0.000    0.727    8.485    1.455    0.000    0.485 
#    0.000    1.818    0.000    0.000    0.000    0.000 
#    0.000    0.000    0.000    0.000    0.000    0.000 
#
# Total GULP energy -817612.653395 kJ/mol
# GULP energy per Si atom -12388.070506 kJ/mol
# Density = 1.700424 g / cm^3
# Si number density = 17.043033 Si / 1000 Ang^3
#
#
#
# Elastic Constant Matrix: (Units=GPa)
#
#
# Indices 1 2 3 4 5 6 
#
# 1 83.4471 52.9007 21.5710 0.0000 0.0000 0.0000
# 2 52.9007 83.4488 21.5712 0.0000 0.0000 0.0000
# 3 21.5710 21.5712 77.7531 0.0000 0.0000 0.0000
# 4 0.0000 0.0000 0.0000 29.1257 0.0000 0.0000
# 5 0.0000 0.0000 0.0000 0.0000 29.1256 0.0000
# 6 0.0000 0.0000 0.0000 0.0000 0.0000 37.3244
#
#
#
# Elastic Compliance Matrix: (Units=1/GPa)
#
#
# Indices 1 2 3 4 5 6 
#
# 1 0.020388 -0.012348 -0.002231 0.000000 0.000000 0.000000
# 2 -0.012348 0.020388 -0.002231 0.000000 0.000000 0.000000
# 3 -0.002231 -0.002231 0.014099 0.000000 0.000000 0.000000
# 4 0.000000 0.000000 0.000000 0.034334 0.000000 0.000000
# 5 0.000000 0.000000 0.000000 0.000000 0.034334 0.000000
# 6 0.000000 0.000000 0.000000 0.000000 0.000000 0.026792
#
#
# Mechanical properties :
#
#
# Convention : Reuss Voigt Hill
#
# Bulk Modulus (GPa) = 47.04423 48.52608 47.78516
# Shear Modulus (GPa) = 26.17270 29.02223 27.59746
#
# Velocity S-wave (km/s) = 3.92303 4.13107 4.02839
# Velocity P-wave (km/s) = 6.94142 7.16162 7.05238
#
# Compressibility (1/GPa) = 0.02125659
#
# Stress axis : x y z
#
# Youngs Moduli (GPa) = 49.04793 49.04893 70.92781
#
# Poissons Ratio (x) = 0.60566 0.15821
# Poissons Ratio (y) = 0.60565 0.15820
# Poissons Ratio (z) = 0.10940 0.10940
#
# Static dielectric constant tensor:
#      x y z
#    x 3.395230 0.000000 0.000000 
#    y 0.000000 3.395230 0.000000 
#    z 0.000000 0.000000 3.126980 
# 
# 
# High freq. dielectric constant tensor:
#      x y z
#    x 1.658730 0.000000 0.000000 
#    y 0.000000 1.658730 0.000000 
#    z 0.000000 0.000000 1.625570 
# 
# From -- ./inp_files/4715.got.cif
#   From: 2010.03.12/outbox.cif.g09.slc.cpg/sg125_3_cif.got.tgz:4715.got - 2010.04.06 16:47:52.
