data_PCOD8313889
_publ_section_title
;
Structure prediction by ZEFSAII (Michael W. Deem and Ramdas Pophale) SiO2 
 PCOD8313889
Probable space group: P 4/M B M
;
_chemical_formula_sum "Si O2"
_cell_formula_units_Z 104
_cell_length_a 19.128489
_cell_length_b 19.128489
_cell_length_c 16.540872
_cell_angle_alpha 90.000000
_cell_angle_beta 90.000000
_cell_angle_gamma 90.000000
_cell_volume 6052.290036
_symmetry_space_group_name_H-M "P 4/M B M"
_symmetry_group_IT_number 127
_symmetry_cell_setting 'tetragonal'
loop_
_space_group_symop_operation_xyz
x,y,z
-y,x,z
-x,-y,z
y,-x,z
1/2+x,1/2-y,-z
1/2-x,1/2+y,-z
1/2+y,1/2+x,-z
1/2-y,1/2-x,-z
-x,-y,-z
y,-x,-z
x,y,-z
-y,x,-z
1/2-x,1/2+y,z
1/2+x,1/2-y,z
1/2-y,1/2-x,z
1/2+y,1/2+x,z
loop_
_atom_site_type_symbol
_atom_site_label
_atom_site_fract_x
_atom_site_fract_y
_atom_site_fract_z
Si Si1 0.941733 0.441733 0.405024
Si Si2 0.718572 0.898720 0.842104
Si Si3 0.626941 0.240004 0.674117
Si Si4 0.530832 0.794627 0.675028
Si Si5 0.325942 0.397196 0.000000
Si Si6 0.173460 0.216164 0.155658
Si Si7 0.772047 0.841239 0.404832
Si Si8 0.711794 0.449052 0.000000
O O1 0.929630 0.429630 0.500000
O O2 0.965053 0.370128 0.364788
O O3 0.000000 0.500000 0.388035
O O4 0.652569 0.847432 0.856179
O O5 0.700639 0.953182 0.770687
O O6 0.789038 0.856282 0.818614
O O7 0.736344 0.941123 0.923597
O O8 0.670421 0.170421 0.649165
O O9 0.546036 0.232601 0.654215
O O10 0.632533 0.252733 0.769131
O O11 0.655902 0.306737 0.625061
O O12 0.583496 0.739417 0.634606
O O13 0.285854 0.380224 0.082275
O O14 0.332877 0.480123 0.000000
O O15 0.395900 0.352309 0.000000
O O16 0.234059 0.265942 0.123827
O O17 0.774529 0.849359 0.500000
O O18 0.707716 0.792285 0.376023
#
# Coordination Sequence:
#
# PCOD8313889 Si02
#       8
#     8  16  16  16   8  16  16   8
#     4  11  24  38  54  83 119 151 187 229 285 352
#     4  10  18  33  56  82 105 139 186 229 269 332
#     4  10  21  35  54  83 113 140 181 235 279 323
#     4  12  20  35  59  83 111 150 186 229 285 339
#     4  10  19  32  47  77 108 145 179 226 279 330
#     4   9  17  32  53  77 105 136 178 232 276 319
#     4  10  20  36  56  78 105 143 189 229 277 338
#     4  10  21  32  51  77 113 142 186 231 278 327
#
# _framework density 17.183579000000002
#
# number of rings (size 3 to 8) (size 9 to 14) (size 15 to 20)
#    0.000    1.769    3.077    2.308    0.000    3.231 
#    0.000    1.538    0.000    0.462    0.000    1.615 
#    0.000    0.000    0.000    0.000    0.000    0.000 
#
# Total GULP energy -1289397.465652 kJ/mol
# GULP energy per Si atom -12398.052554 kJ/mol
# Density = 1.714447 g / cm^3
# Si number density = 17.183579 Si / 1000 Ang^3
#
#
#
# Elastic Constant Matrix: (Units=GPa)
#
#
# Indices 1 2 3 4 5 6 
#
# 1 110.9630 50.0767 49.1924 0.0000 0.0000 0.0000
# 2 50.0767 110.9630 49.1924 0.0000 0.0000 0.0000
# 3 49.1924 49.1924 94.6185 0.0000 0.0000 0.0000
# 4 0.0000 0.0000 0.0000 20.1063 0.0000 0.0000
# 5 0.0000 0.0000 0.0000 0.0000 20.1063 0.0000
# 6 0.0000 0.0000 0.0000 0.0000 0.0000 19.7800
#
#
#
# Elastic Compliance Matrix: (Units=1/GPa)
#
#
# Indices 1 2 3 4 5 6 
#
# 1 0.012762 -0.003662 -0.004731 0.000000 0.000000 0.000000
# 2 -0.003662 0.012762 -0.004731 0.000000 0.000000 0.000000
# 3 -0.004731 -0.004731 0.015488 0.000000 0.000000 0.000000
# 4 0.000000 0.000000 0.000000 0.049736 0.000000 0.000000
# 5 0.000000 0.000000 0.000000 0.000000 0.049736 0.000000
# 6 0.000000 0.000000 0.000000 0.000000 0.000000 0.050556
#
#
# Mechanical properties :
#
#
# Convention : Reuss Voigt Hill
#
# Bulk Modulus (GPa) = 67.73333 68.16303 67.94818
# Shear Modulus (GPa) = 22.50125 23.20403 22.85264
#
# Velocity S-wave (km/s) = 3.62258 3.67871 3.65075
# Velocity P-wave (km/s) = 7.54986 7.60247 7.57621
#
# Compressibility (1/GPa) = 0.01476378
#
# Stress axis : x y z
#
# Youngs Moduli (GPa) = 78.35721 78.35721 64.56513
#
# Poissons Ratio (x) = 0.28694 0.30547
# Poissons Ratio (y) = 0.28694 0.30547
# Poissons Ratio (z) = 0.37072 0.37072
#
# Static dielectric constant tensor:
#      x y z
#    x 3.143650 0.000000 0.000000 
#    y 0.000000 3.143650 0.000000 
#    z 0.000000 0.000000 3.334080 
# 
# 
# High freq. dielectric constant tensor:
#      x y z
#    x 1.651610 0.000000 0.000000 
#    y 0.000000 1.651610 0.000000 
#    z 0.000000 0.000000 1.679810 
# 
# From -- ./inp_files/5266.got.cif
#   From: 2010.03.12/outbox.cif.g09.slc.cpg/sg127_3_cif.got.tgz:5266.got - 2010.04.06 17:03:15.
