data_PCOD8313344
_publ_section_title
;
Structure prediction by ZEFSAII (Michael W. Deem and Ramdas Pophale) SiO2 
 PCOD8313344
Probable space group: P 4/M C C
;
_chemical_formula_sum "Si O2"
_cell_formula_units_Z 96
_cell_length_a 15.709957
_cell_length_b 15.709957
_cell_length_c 19.567193
_cell_angle_alpha 90.000000
_cell_angle_beta 90.000000
_cell_angle_gamma 90.000000
_cell_volume 4829.237021
_symmetry_space_group_name_H-M "P 4/M C C"
_symmetry_group_IT_number 124
_symmetry_cell_setting 'tetragonal'
loop_
_space_group_symop_operation_xyz
x,y,z
-y,x,z
-x,-y,z
y,-x,z
x,-y,1/2-z
-x,y,1/2-z
y,x,1/2-z
-y,-x,1/2-z
-x,-y,-z
y,-x,-z
x,y,-z
-y,x,-z
-x,y,1/2+z
x,-y,1/2+z
-y,-x,1/2+z
y,x,1/2+z
loop_
_atom_site_type_symbol
_atom_site_label
_atom_site_fract_x
_atom_site_fract_y
_atom_site_fract_z
Si Si1 0.736779 0.736779 0.250000
Si Si2 0.812313 0.450218 0.919224
Si Si3 0.118264 0.942405 0.420230
Si Si4 0.114926 0.715948 0.855395
Si Si5 0.546179 0.623599 0.080706
Si Si6 0.647606 0.000000 0.250000
Si Si7 0.822896 0.572557 0.200617
O O1 0.743253 0.809420 0.193827
O O2 0.753451 0.648552 0.208449
O O3 0.870821 0.371852 0.896668
O O4 0.716609 0.421332 0.898530
O O5 0.832108 0.537043 0.877161
O O6 0.823418 0.469727 0.000000
O O7 0.107550 0.947428 0.500000
O O8 0.207229 0.897020 0.406919
O O9 0.038920 0.887313 0.390148
O O10 0.027597 0.706194 0.813301
O O11 0.449849 0.608566 0.109532
O O12 0.542316 0.616855 0.000000
O O13 0.593608 0.917804 0.272767
O O14 0.785969 0.500000 0.250000
#
# Coordination Sequence:
#
# PCOD8313344 Si02
#       7
#     8  16  16  16  16   8  16
#     4  10  24  40  64  92 120 166 214 256 314 374
#     4  11  23  37  60  94 128 162 208 265 314 371
#     4   9  20  40  64  91 129 170 204 256 331 394
#     4  11  23  40  63  93 124 163 215 265 312 380
#     4   8  16  32  52  76 112 156 195 239 300 357
#     4  10  23  42  66  83 118 170 208 259 314 364
#     4  11  22  43  66  87 121 170 208 256 312 380
#
# _framework density 19.878917999999999
#
# number of rings (size 3 to 8) (size 9 to 14) (size 15 to 20)
#    0.000    2.000    3.333    1.750    7.000    0.000 
#    0.000    3.333    0.000    0.250    0.000    0.000 
#    0.000    0.000    0.000    0.000    0.000    0.000 
#
# Total GULP energy -1189408.990930 kJ/mol
# GULP energy per Si atom -12389.676989 kJ/mol
# Density = 1.983367 g / cm^3
# Si number density = 19.878918 Si / 1000 Ang^3
#
#
#
# Elastic Constant Matrix: (Units=GPa)
#
#
# Indices 1 2 3 4 5 6 
#
# 1 94.1280 50.5270 34.9034 0.0000 0.0000 0.0000
# 2 50.5270 94.1280 34.9034 0.0000 0.0000 0.0000
# 3 34.9034 34.9034 90.3584 0.0000 0.0000 0.0000
# 4 0.0000 0.0000 0.0000 31.3487 0.0000 0.0000
# 5 0.0000 0.0000 0.0000 0.0000 31.3487 0.0000
# 6 0.0000 0.0000 0.0000 0.0000 0.0000 31.9335
#
#
#
# Elastic Compliance Matrix: (Units=1/GPa)
#
#
# Indices 1 2 3 4 5 6 
#
# 1 0.015716 -0.007219 -0.003282 0.000000 0.000000 0.000000
# 2 -0.007219 0.015716 -0.003282 0.000000 0.000000 0.000000
# 3 -0.003282 -0.003282 0.013603 0.000000 0.000000 0.000000
# 4 0.000000 0.000000 0.000000 0.031899 0.000000 0.000000
# 5 0.000000 0.000000 0.000000 0.000000 0.031899 0.000000
# 6 0.000000 0.000000 0.000000 0.000000 0.000000 0.031315
#
#
# Mechanical properties :
#
#
# Convention : Reuss Voigt Hill
#
# Bulk Modulus (GPa) = 57.24809 57.69800 57.47305
# Shear Modulus (GPa) = 28.81211 29.47820 29.14515
#
# Velocity S-wave (km/s) = 3.81120 3.85501 3.83317
# Velocity P-wave (km/s) = 6.94463 6.99303 6.96887
#
# Compressibility (1/GPa) = 0.01746783
#
# Stress axis : x y z
#
# Youngs Moduli (GPa) = 63.62913 63.62913 73.51485
#
# Poissons Ratio (x) = 0.45935 0.24129
# Poissons Ratio (y) = 0.45935 0.24129
# Poissons Ratio (z) = 0.20884 0.20884
#
# Static dielectric constant tensor:
#      x y z
#    x 3.783000 0.000000 0.000000 
#    y 0.000000 3.783000 0.000000 
#    z 0.000000 0.000000 3.527880 
# 
# 
# High freq. dielectric constant tensor:
#      x y z
#    x 1.776640 0.000000 0.000000 
#    y 0.000000 1.776640 0.000000 
#    z 0.000000 0.000000 1.761810 
# 
# From -- ./inp_files/5362.got.cif
#   From: 2010.03.12/outbox.cif.g09.slc.cpg/sg124_3_cif.got.tgz:5362.got - 2010.04.06 16:38:57.
