data_PCOD8313544
_publ_section_title
;
Structure prediction by ZEFSAII (Michael W. Deem and Ramdas Pophale) SiO2 
 PCOD8313544
Probable space group: P 4/N B M
;
_chemical_formula_sum "Si O2"
_cell_formula_units_Z 80
_cell_length_a 13.542736
_cell_length_b 13.542736
_cell_length_c 23.013533
_cell_angle_alpha 90.000000
_cell_angle_beta 90.000000
_cell_angle_gamma 90.000000
_cell_volume 4220.813092
_symmetry_space_group_name_H-M "P 4/N B M"
_symmetry_group_IT_number 125
_space_group.IT_coordinate_system_code '2'
_symmetry_cell_setting 'tetragonal'
loop_
_space_group_symop_operation_xyz
x,y,z
1/2-y,x,z
1/2-x,1/2-y,z
y,1/2-x,z
x,1/2-y,-z
1/2-x,y,-z
y,x,-z
1/2-y,1/2-x,-z
-x,-y,-z
1/2+y,-x,-z
1/2+x,1/2+y,-z
-y,1/2+x,-z
-x,1/2+y,z
1/2+x,-y,z
-y,-x,z
1/2+y,1/2+x,z
loop_
_atom_site_type_symbol
_atom_site_label
_atom_site_fract_x
_atom_site_fract_y
_atom_site_fract_z
Si Si1 0.745244 0.590698 0.068059
Si Si2 0.749859 0.411835 0.152495
Si Si3 0.474422 0.372269 0.322172
Si Si4 0.638537 0.868720 0.563486
Si Si5 0.988683 0.170833 0.729160
O O1 0.844290 0.649848 0.085490
O O2 0.736221 0.486169 0.099464
O O3 0.750000 0.568927 0.000000
O O4 0.648728 0.351273 0.163828
O O5 0.837597 0.337597 0.136237
O O6 0.777722 0.476364 0.208659
O O7 0.583078 0.416923 0.315182
O O8 0.431009 0.408693 0.384217
O O9 0.486626 0.255273 0.317620
O O10 0.403086 0.417465 0.271825
O O11 0.613399 0.754630 0.569475
O O12 0.597516 0.902485 0.500000
O O13 0.888957 0.111044 0.712063
#
# Coordination Sequence:
#
# PCOD8313544 Si02
#       5
#    16  16  16  16  16
#     4   9  20  39  60  85 117 150 189 237 285 332
#     4  10  22  39  58  82 115 153 190 233 286 340
#     4  11  21  35  59  84 110 152 192 229 281 341
#     4   9  17  32  54  79 110 143 181 234 290 329
#     4  10  23  39  55  84 119 147 187 235 281 340
#
# _framework density 18.953695
#
# number of rings (size 3 to 8) (size 9 to 14) (size 15 to 20)
#    0.000    2.200    2.000    1.800    2.800    3.600 
#    0.000    3.000    0.000    0.000    0.000    0.000 
#    0.000    0.000    0.000    0.000    0.000    0.000 
#
# Total GULP energy -991651.279605 kJ/mol
# GULP energy per Si atom -12395.640995 kJ/mol
# Density = 1.891056 g / cm^3
# Si number density = 18.953695 Si / 1000 Ang^3
#
#
#
# Elastic Constant Matrix: (Units=GPa)
#
#
# Indices 1 2 3 4 5 6 
#
# 1 90.5807 30.4602 36.4128 0.0000 0.0000 0.0000
# 2 30.4602 90.5804 36.4128 0.0000 0.0000 0.0000
# 3 36.4128 36.4128 84.0372 0.0000 0.0000 0.0000
# 4 0.0000 0.0000 0.0000 23.3393 0.0000 0.0000
# 5 0.0000 0.0000 0.0000 0.0000 23.3394 0.0000
# 6 0.0000 0.0000 0.0000 0.0000 0.0000 20.5945
#
#
#
# Elastic Compliance Matrix: (Units=1/GPa)
#
#
# Indices 1 2 3 4 5 6 
#
# 1 0.013904 -0.002729 -0.004842 0.000000 0.000000 0.000000
# 2 -0.002729 0.013904 -0.004842 0.000000 0.000000 0.000000
# 3 -0.004842 -0.004842 0.016096 0.000000 0.000000 0.000000
# 4 0.000000 0.000000 0.000000 0.042846 0.000000 0.000000
# 5 0.000000 0.000000 0.000000 0.000000 0.042846 0.000000
# 6 0.000000 0.000000 0.000000 0.000000 0.000000 0.048557
#
#
# Mechanical properties :
#
#
# Convention : Reuss Voigt Hill
#
# Bulk Modulus (GPa) = 52.41833 52.41887 52.41860
# Shear Modulus (GPa) = 23.88479 24.24880 24.06680
#
# Velocity S-wave (km/s) = 3.55373 3.58071 3.56725
# Velocity P-wave (km/s) = 6.67493 6.69415 6.68455
#
# Compressibility (1/GPa) = 0.01907730
#
# Stress axis : x y z
#
# Youngs Moduli (GPa) = 71.92125 71.92096 62.12903
#
# Poissons Ratio (x) = 0.19629 0.30083
# Poissons Ratio (y) = 0.19629 0.30083
# Poissons Ratio (z) = 0.34824 0.34824
#
# Static dielectric constant tensor:
#      x y z
#    x 3.371160 0.000000 0.000000 
#    y 0.000000 3.371160 0.000000 
#    z 0.000000 0.000000 3.457580 
# 
# 
# High freq. dielectric constant tensor:
#      x y z
#    x 1.731430 0.000000 0.000000 
#    y 0.000000 1.731430 0.000000 
#    z 0.000000 0.000000 1.735100 
# 
# From -- ./inp_files/5795.got.cif
#   From: 2010.03.12/outbox.cif.g09.slc.cpg/sg125_3_cif.got.tgz:5795.got - 2010.04.06 16:47:52.
