data_PCOD8313403
_publ_section_title
;
Structure prediction by ZEFSAII (Michael W. Deem and Ramdas Pophale) SiO2 
 PCOD8313403
Probable space group: P 4/N B M
;
_chemical_formula_sum "Si O2"
_cell_formula_units_Z 120
_cell_length_a 16.202318
_cell_length_b 16.202318
_cell_length_c 28.902595
_cell_angle_alpha 90.000000
_cell_angle_beta 90.000000
_cell_angle_gamma 90.000000
_cell_volume 7587.367864
_symmetry_space_group_name_H-M "P 4/N B M"
_symmetry_group_IT_number 125
_space_group.IT_coordinate_system_code '2'
_symmetry_cell_setting 'tetragonal'
loop_
_space_group_symop_operation_xyz
x,y,z
1/2-y,x,z
1/2-x,1/2-y,z
y,1/2-x,z
x,1/2-y,-z
1/2-x,y,-z
y,x,-z
1/2-y,1/2-x,-z
-x,-y,-z
1/2+y,-x,-z
1/2+x,1/2+y,-z
-y,1/2+x,-z
-x,1/2+y,z
1/2+x,-y,z
-y,-x,z
1/2+y,1/2+x,z
loop_
_atom_site_type_symbol
_atom_site_label
_atom_site_fract_x
_atom_site_fract_y
_atom_site_fract_z
Si Si1 0.250000 0.614455 0.500000
Si Si2 0.754112 0.383667 0.225013
Si Si3 0.745514 0.116028 0.050867
Si Si4 0.885344 0.253811 0.400895
Si Si5 0.369468 0.191325 0.720356
Si Si6 0.308956 0.369275 0.828601
Si Si7 0.320082 0.541907 0.686755
Si Si8 0.320829 0.541202 0.862937
O O1 0.169268 0.669268 0.504286
O O2 0.248711 0.565369 0.450729
O O3 0.690869 0.309132 0.225260
O O4 0.846927 0.346927 0.224903
O O5 0.740990 0.437721 0.270800
O O6 0.740657 0.437426 0.179166
O O7 0.809738 0.190263 0.052484
O O8 0.654518 0.154518 0.060352
O O9 0.768997 0.049878 0.089817
O O10 0.750000 0.073760 0.000000
O O11 0.812362 0.187639 0.401723
O O12 0.843794 0.343794 0.392421
O O13 0.948372 0.232359 0.360131
O O14 0.358739 0.287519 0.707008
O O15 0.387310 0.181775 0.774485
O O16 0.446286 0.153783 0.691641
O O17 0.212760 0.358826 0.841946
O O18 0.346885 0.445717 0.857435
O O19 0.401868 0.598133 0.687203
O O20 0.402704 0.597297 0.862514
#
# Coordination Sequence:
#
# PCOD8313403 Si02
#       8
#     8  16  16  16  16  16  16  16
#     4   7  10  18  32  52  80 115 154 182 198 245
#     4   9  16  24  35  57  91 122 138 156 204 270
#     4   8  14  25  42  65  92 121 150 177 212 263
#     4   8  13  21  35  57  87 121 149 173 212 265
#     4   9  18  33  49  60  79 117 158 183 204 247
#     4   9  18  33  50  63  82 117 155 182 208 253
#     4  10  17  26  42  64  91 115 137 176 223 263
#     4  10  17  27  46  68  90 113 142 182 222 256
#
# _framework density 15.815761999999999
#
# number of rings (size 3 to 8) (size 9 to 14) (size 15 to 20)
#    0.000    3.133    1.333    2.800    0.000    3.200 
#    0.000    2.667    0.000    0.800    0.000    4.667 
#    0.000    5.333    0.000    0.000    0.000    0.000 
#
# Total GULP energy -1486878.371337 kJ/mol
# GULP energy per Si atom -12390.653094 kJ/mol
# Density = 1.577976 g / cm^3
# Si number density = 15.815762 Si / 1000 Ang^3
#
#
#
# Elastic Constant Matrix: (Units=GPa)
#
#
# Indices 1 2 3 4 5 6 
#
# 1 61.2202 14.1004 26.3661 0.0000 0.0000 0.0000
# 2 14.1004 61.2202 26.3661 0.0000 0.0000 0.0000
# 3 26.3661 26.3661 111.5511 0.0000 0.0000 0.0000
# 4 0.0000 0.0000 0.0000 11.8355 0.0000 0.0000
# 5 0.0000 0.0000 0.0000 0.0000 11.8355 0.0000
# 6 0.0000 0.0000 0.0000 0.0000 0.0000 9.9866
#
#
#
# Elastic Compliance Matrix: (Units=1/GPa)
#
#
# Indices 1 2 3 4 5 6 
#
# 1 0.018566 -0.002657 -0.003760 0.000000 0.000000 0.000000
# 2 -0.002657 0.018566 -0.003760 0.000000 0.000000 0.000000
# 3 -0.003760 -0.003760 0.010742 0.000000 0.000000 0.000000
# 4 0.000000 0.000000 0.000000 0.084492 0.000000 0.000000
# 5 0.000000 0.000000 0.000000 0.000000 0.084492 0.000000
# 6 0.000000 0.000000 0.000000 0.000000 0.000000 0.100134
#
#
# Mechanical properties :
#
#
# Convention : Reuss Voigt Hill
#
# Bulk Modulus (GPa) = 36.33816 40.85075 38.59445
# Shear Modulus (GPa) = 14.42926 17.87546 16.15236
#
# Velocity S-wave (km/s) = 3.02376 3.36554 3.19922
# Velocity P-wave (km/s) = 5.93436 6.40216 6.17270
#
# Compressibility (1/GPa) = 0.02751928
#
# Stress axis : x y z
#
# Youngs Moduli (GPa) = 53.86245 53.86245 93.09216
#
# Poissons Ratio (x) = 0.14309 0.35005
# Poissons Ratio (y) = 0.14309 0.35005
# Poissons Ratio (z) = 0.20254 0.20254
#
# Static dielectric constant tensor:
#      x y z
#    x 2.765270 0.000000 0.000000 
#    y 0.000000 2.765270 0.000000 
#    z 0.000000 0.000000 3.296860 
# 
# 
# High freq. dielectric constant tensor:
#      x y z
#    x 1.574750 0.000000 0.000000 
#    y 0.000000 1.574750 0.000000 
#    z 0.000000 0.000000 1.605800 
# 
# From -- ./inp_files/6677.got.cif
#   From: 2010.03.12/outbox.cif.g09.slc.cpg/sg125_4_cif.got.tgz:6677.got - 2010.04.06 16:47:52.
