data_PCOD8313044
_publ_section_title
;
Structure prediction by ZEFSAII (Michael W. Deem and Ramdas Pophale) SiO2 
 PCOD8313044
Probable space group: P 4/M M M
;
_chemical_formula_sum "Si O2"
_cell_formula_units_Z 56
_cell_length_a 13.950940
_cell_length_b 13.950940
_cell_length_c 19.750606
_cell_angle_alpha 90.000000
_cell_angle_beta 90.000000
_cell_angle_gamma 90.000000
_cell_volume 3844.035301
_symmetry_space_group_name_H-M "P 4/M M M"
_symmetry_group_IT_number 123
_symmetry_cell_setting 'tetragonal'
loop_
_space_group_symop_operation_xyz
x,y,z
-y,x,z
-x,-y,z
y,-x,z
x,-y,-z
-x,y,-z
y,x,-z
-y,-x,-z
-x,-y,-z
y,-x,-z
x,y,-z
-y,x,-z
-x,y,z
x,-y,z
-y,-x,z
y,x,z
loop_
_atom_site_type_symbol
_atom_site_label
_atom_site_fract_x
_atom_site_fract_y
_atom_site_fract_z
Si Si1 0.887068 0.608485 0.701478
Si Si2 0.736617 0.893495 0.824557
Si Si3 0.387559 0.000000 0.920777
Si Si4 0.389848 0.235343 0.575558
O O1 0.855057 0.500000 0.719204
O O2 0.850665 0.679101 0.760500
O O3 0.844103 0.642215 0.629811
O O4 0.000000 0.614770 0.694779
O O5 0.822412 0.822412 0.844801
O O6 0.661630 0.905384 0.887301
O O7 0.778990 0.000000 0.807454
O O8 0.500000 0.000000 0.903584
O O9 0.367354 0.000000 0.000000
O O10 0.370162 0.194132 0.500000
O O11 0.500000 0.263447 0.584725
O O12 0.332084 0.332084 0.588818
#
# Coordination Sequence:
#
# PCOD8313044 Si02
#       4
#    16  16   8  16
#     4   9  16  27  44  62  83 111 145 185 224 261
#     4   9  18  29  45  66  90 120 149 177 215 261
#     4   9  18  32  49  67  90 118 147 180 215 255
#     4   9  17  27  39  57  81 109 141 179 223 269
#
# _framework density 14.568023999999999
#
# number of rings (size 3 to 8) (size 9 to 14) (size 15 to 20)
#    0.857    2.143    0.000    1.714    0.000    1.714 
#    0.000    4.286    0.000    0.857    0.000    0.000 
#    0.000    5.143    0.000   39.143    0.000    0.571 
#
# Total GULP energy -693898.488427 kJ/mol
# GULP energy per Si atom -12391.044436 kJ/mol
# Density = 1.453487 g / cm^3
# Si number density = 14.568024 Si / 1000 Ang^3
#
#
#
# Elastic Constant Matrix: (Units=GPa)
#
#
# Indices 1 2 3 4 5 6 
#
# 1 57.4034 42.0695 43.1384 0.0000 0.0000 0.0000
# 2 42.0695 57.4034 43.1384 0.0000 0.0000 0.0000
# 3 43.1384 43.1384 106.0899 0.0000 0.0000 0.0000
# 4 0.0000 0.0000 0.0000 19.2550 0.0000 0.0000
# 5 0.0000 0.0000 0.0000 0.0000 19.2550 0.0000
# 6 0.0000 0.0000 0.0000 0.0000 0.0000 24.9053
#
#
#
# Elastic Compliance Matrix: (Units=1/GPa)
#
#
# Indices 1 2 3 4 5 6 
#
# 1 0.040373 -0.024843 -0.006315 0.000000 0.000000 0.000000
# 2 -0.024843 0.040373 -0.006315 0.000000 0.000000 0.000000
# 3 -0.006315 -0.006315 0.014561 0.000000 0.000000 0.000000
# 4 0.000000 0.000000 0.000000 0.051935 0.000000 0.000000
# 5 0.000000 0.000000 0.000000 0.000000 0.051935 0.000000
# 6 0.000000 0.000000 0.000000 0.000000 0.000000 0.040152
#
#
# Mechanical properties :
#
#
# Convention : Reuss Voigt Hill
#
# Bulk Modulus (GPa) = 49.11050 53.06546 51.08798
# Shear Modulus (GPa) = 15.57342 18.85309 17.21325
#
# Velocity S-wave (km/s) = 3.27312 3.60132 3.44114
# Velocity P-wave (km/s) = 6.93317 7.33469 7.13676
#
# Compressibility (1/GPa) = 0.02036224
#
# Stress axis : x y z
#
# Youngs Moduli (GPa) = 24.76924 24.76924 68.67432
#
# Poissons Ratio (x) = 0.61533 0.43367
# Poissons Ratio (y) = 0.61533 0.43367
# Poissons Ratio (z) = 0.15641 0.15641
#
# Static dielectric constant tensor:
#      x y z
#    x 2.681200 0.000000 0.000000 
#    y 0.000000 2.681200 0.000000 
#    z 0.000000 0.000000 2.941450 
# 
# 
# High freq. dielectric constant tensor:
#      x y z
#    x 1.540790 0.000000 0.000000 
#    y 0.000000 1.540790 0.000000 
#    z 0.000000 0.000000 1.563800 
# 
# From -- ./inp_files/4882.got.cif
#   From: 2010.03.12/outbox.cif.g09.slc.cpg/sg123_3_cif.got.tgz:4882.got - 2010.04.06 16:26:55.
