data_PCOD8313761
_publ_section_title
;
Structure prediction by ZEFSAII (Michael W. Deem and Ramdas Pophale) SiO2 
 PCOD8313761
Probable space group: P 4/N N C
;
_chemical_formula_sum "Si O2"
_cell_formula_units_Z 64
_cell_length_a 11.572961
_cell_length_b 11.572961
_cell_length_c 19.985561
_cell_angle_alpha 90.000000
_cell_angle_beta 90.000000
_cell_angle_gamma 90.000000
_cell_volume 2676.734661
_symmetry_space_group_name_H-M "P 4/N N C"
_symmetry_group_IT_number 126
_space_group.IT_coordinate_system_code '2'
_symmetry_cell_setting 'tetragonal'
loop_
_space_group_symop_operation_xyz
x,y,z
1/2-y,x,z
1/2-x,1/2-y,z
y,1/2-x,z
x,1/2-y,1/2-z
1/2-x,y,1/2-z
y,x,1/2-z
1/2-y,1/2-x,1/2-z
-x,-y,-z
1/2+y,-x,-z
1/2+x,1/2+y,-z
-y,1/2+x,-z
-x,1/2+y,1/2+z
1/2+x,-y,1/2+z
-y,-x,1/2+z
1/2+y,1/2+x,1/2+z
loop_
_atom_site_type_symbol
_atom_site_label
_atom_site_fract_x
_atom_site_fract_y
_atom_site_fract_z
Si Si1 0.008236 0.638831 0.631762
Si Si2 0.866944 0.020816 0.799862
Si Si3 0.260026 0.616467 0.621488
Si Si4 0.438288 0.282339 0.992137
O O1 0.902694 0.549021 0.632188
O O2 0.001165 0.711260 0.563853
O O3 0.003182 0.725268 0.698833
O O4 0.131321 0.574390 0.640738
O O5 0.893506 0.155980 0.813372
O O6 0.957661 0.957661 0.750000
O O7 0.250000 0.750000 0.598135
O O8 0.307405 0.536887 0.562116
O O9 0.343078 0.382028 0.983367
#
# Coordination Sequence:
#
# PCOD8313761 Si02
#       4
#    16  16  16  16
#     4  11  23  41  65  98 132 177 233 284 347 414
#     4  11  24  43  65  94 133 183 228 283 342 417
#     4  10  25  40  65  99 135 178 226 285 355 415
#     4  11  23  41  66  98 139 180 231 290 352 423
#
# _framework density 23.90973
#
# number of rings (size 3 to 8) (size 9 to 14) (size 15 to 20)
#    0.000    1.250    2.500    2.250    7.000    3.500 
#    0.000    5.000    0.000    0.000    0.000    1.750 
#    0.000    0.000    0.000    0.000    0.000    0.000 
#
# Total GULP energy -792884.221427 kJ/mol
# GULP energy per Si atom -12388.815960 kJ/mol
# Density = 2.385531 g / cm^3
# Si number density = 23.909730 Si / 1000 Ang^3
#
#
#
# Elastic Constant Matrix: (Units=GPa)
#
#
# Indices 1 2 3 4 5 6 
#
# 1 109.1386 32.3958 24.2735 0.0000 0.0000 0.0000
# 2 32.3958 109.1386 24.2735 0.0000 0.0000 0.0000
# 3 24.2735 24.2735 74.2402 0.0000 0.0000 0.0000
# 4 0.0000 0.0000 0.0000 28.1866 0.0000 0.0000
# 5 0.0000 0.0000 0.0000 0.0000 28.1866 0.0000
# 6 0.0000 0.0000 0.0000 0.0000 0.0000 28.9701
#
#
#
# Elastic Compliance Matrix: (Units=1/GPa)
#
#
# Indices 1 2 3 4 5 6 
#
# 1 0.010494 -0.002536 -0.002602 0.000000 0.000000 0.000000
# 2 -0.002536 0.010494 -0.002602 0.000000 0.000000 0.000000
# 3 -0.002602 -0.002602 0.015171 0.000000 0.000000 0.000000
# 4 0.000000 0.000000 0.000000 0.035478 0.000000 0.000000
# 5 0.000000 0.000000 0.000000 0.000000 0.035478 0.000000
# 6 0.000000 0.000000 0.000000 0.000000 0.000000 0.034518
#
#
# Mechanical properties :
#
#
# Convention : Reuss Voigt Hill
#
# Bulk Modulus (GPa) = 48.35735 50.48923 49.42329
# Shear Modulus (GPa) = 30.48650 31.17365 30.83008
#
# Velocity S-wave (km/s) = 3.57468 3.61474 3.59477
# Velocity P-wave (km/s) = 6.10792 6.21162 6.15999
#
# Compressibility (1/GPa) = 0.02067938
#
# Stress axis : x y z
#
# Youngs Moduli (GPa) = 95.29068 95.29068 65.91425
#
# Poissons Ratio (x) = 0.24169 0.17150
# Poissons Ratio (y) = 0.24169 0.17150
# Poissons Ratio (z) = 0.24794 0.24794
#
# Static dielectric constant tensor:
#      x y z
#    x 4.895280 0.000000 0.000000 
#    y 0.000000 4.895280 0.000000 
#    z 0.000000 0.000000 4.594080 
# 
# 
# High freq. dielectric constant tensor:
#      x y z
#    x 1.955870 0.000000 0.000000 
#    y 0.000000 1.955870 0.000000 
#    z 0.000000 0.000000 1.963270 
# 
# From -- ./inp_files/4933.got.cif
#   From: 2010.03.12/outbox.cif.g09.slc.cpg/sg126_3_cif.got.tgz:4933.got - 2010.04.06 16:55:23.
