data_PCOD8313389
_publ_section_title
;
Structure prediction by ZEFSAII (Michael W. Deem and Ramdas Pophale) SiO2 
 PCOD8313389
Probable space group: P 4/M C C
;
_chemical_formula_sum "Si O2"
_cell_formula_units_Z 80
_cell_length_a 11.484454
_cell_length_b 11.484454
_cell_length_c 28.605872
_cell_angle_alpha 90.000000
_cell_angle_beta 90.000000
_cell_angle_gamma 90.000000
_cell_volume 3772.905227
_symmetry_space_group_name_H-M "P 4/M C C"
_symmetry_group_IT_number 124
_symmetry_cell_setting 'tetragonal'
loop_
_space_group_symop_operation_xyz
x,y,z
-y,x,z
-x,-y,z
y,-x,z
x,-y,1/2-z
-x,y,1/2-z
y,x,1/2-z
-y,-x,1/2-z
-x,-y,-z
y,-x,-z
x,y,-z
-y,x,-z
-x,y,1/2+z
x,-y,1/2+z
-y,-x,1/2+z
y,x,1/2+z
loop_
_atom_site_type_symbol
_atom_site_label
_atom_site_fract_x
_atom_site_fract_y
_atom_site_fract_z
Si Si1 0.609125 0.925517 0.946425
Si Si2 0.676536 0.431831 0.802240
Si Si3 0.813064 0.041846 0.375561
Si Si4 0.280484 0.886450 0.276468
Si Si5 0.445799 0.322166 0.087576
O O1 0.724653 0.952265 0.918115
O O2 0.582401 0.789739 0.942496
O O3 0.500000 0.000000 0.926726
O O4 0.632931 0.958996 0.000000
O O5 0.650103 0.565868 0.787336
O O6 0.792319 0.383823 0.777918
O O7 0.698182 0.430670 0.857346
O O8 0.748893 0.067467 0.327553
O O9 0.912652 0.137758 0.379152
O O10 0.167356 0.832645 0.250000
O O11 0.327469 0.000000 0.250000
O O12 0.576302 0.357001 0.073660
#
# Coordination Sequence:
#
# PCOD8313389 Si02
#       5
#    16  16  16  16  16
#     4  11  26  44  68 104 140 175 224 290 352 411
#     4   9  20  42  69  98 137 183 226 276 345 415
#     4  11  25  47  73  96 135 191 233 285 346 407
#     4  12  24  42  71 101 135 176 232 288 347 413
#     4   9  19  39  70 100 131 177 222 267 338 415
#
# _framework density 21.203817999999998
#
# number of rings (size 3 to 8) (size 9 to 14) (size 15 to 20)
#    0.000    1.600    4.000    1.200    2.800    2.600 
#    0.000    7.000    0.000    0.000    0.000    0.000 
#    0.000    0.000    0.000    0.000    0.000    0.000 
#
# Total GULP energy -992194.178346 kJ/mol
# GULP energy per Si atom -12402.427229 kJ/mol
# Density = 2.115556 g / cm^3
# Si number density = 21.203818 Si / 1000 Ang^3
#
#
#
# Elastic Constant Matrix: (Units=GPa)
#
#
# Indices 1 2 3 4 5 6 
#
# 1 117.2707 54.7895 56.4029 0.0000 0.0000 0.0000
# 2 54.7895 117.2707 56.4031 0.0000 0.0000 0.0000
# 3 56.4029 56.4031 98.5160 0.0000 0.0000 0.0000
# 4 0.0000 0.0000 0.0000 196.4288 0.0000 0.0000
# 5 0.0000 0.0000 0.0000 0.0000 196.4621 0.0000
# 6 0.0000 0.0000 0.0000 0.0000 0.0000 107.5087
#
#
#
# Elastic Compliance Matrix: (Units=1/GPa)
#
#
# Indices 1 2 3 4 5 6 
#
# 1 0.012655 -0.003350 -0.005327 0.000000 0.000000 0.000000
# 2 -0.003350 0.012655 -0.005327 0.000000 0.000000 0.000000
# 3 -0.005327 -0.005327 0.016250 0.000000 0.000000 0.000000
# 4 0.000000 0.000000 0.000000 0.005091 0.000000 0.000000
# 5 0.000000 0.000000 0.000000 0.000000 0.005090 0.000000
# 6 0.000000 0.000000 0.000000 0.000000 0.000000 0.009302
#
#
# Mechanical properties :
#
#
# Convention : Reuss Voigt Hill
#
# Bulk Modulus (GPa) = 73.79476 74.24983 74.02230
# Shear Modulus (GPa) = 53.43725 111.11070 82.27398
#
# Velocity S-wave (km/s) = 5.02558 7.24673 6.23584
# Velocity P-wave (km/s) = 8.27970 10.25248 9.31844
#
# Compressibility (1/GPa) = 0.01355110
#
# Stress axis : x y z
#
# Youngs Moduli (GPa) = 79.02260 79.02241 61.53707
#
# Poissons Ratio (x) = 0.26474 0.32781
# Poissons Ratio (y) = 0.26474 0.32781
# Poissons Ratio (z) = 0.42095 0.42096
#
# Static dielectric constant tensor:
#      x y z
#    x 3.879690 0.000000 0.000000 
#    y 0.000000 3.879700 0.000000 
#    z 0.000000 0.000000 3.894240 
# 
# 
# High freq. dielectric constant tensor:
#      x y z
#    x 1.835980 0.000000 0.000000 
#    y 0.000000 1.835980 0.000000 
#    z 0.000000 0.000000 1.843930 
# 
# From -- ./inp_files/6913.got.cif
#   From: 2010.03.12/outbox.cif.g09.slc.cpg/sg124_4_cif.got.tgz:6913.got - 2010.04.06 16:38:57.
