data_PCOD8313217
_publ_section_title
;
Structure prediction by ZEFSAII (Michael W. Deem and Ramdas Pophale) SiO2 
 PCOD8313217
Probable space group: P 4/M C C
;
_chemical_formula_sum "Si O2"
_cell_formula_units_Z 48
_cell_length_a 15.252709
_cell_length_b 15.252709
_cell_length_c 8.889483
_cell_angle_alpha 90.000000
_cell_angle_beta 90.000000
_cell_angle_gamma 90.000000
_cell_volume 2068.094945
_symmetry_space_group_name_H-M "P 4/M C C"
_symmetry_group_IT_number 124
_symmetry_cell_setting 'tetragonal'
loop_
_space_group_symop_operation_xyz
x,y,z
-y,x,z
-x,-y,z
y,-x,z
x,-y,1/2-z
-x,y,1/2-z
y,x,1/2-z
-y,-x,1/2-z
-x,-y,-z
y,-x,-z
x,y,-z
-y,x,-z
-x,y,1/2+z
x,-y,1/2+z
-y,-x,1/2+z
y,x,1/2+z
loop_
_atom_site_type_symbol
_atom_site_label
_atom_site_fract_x
_atom_site_fract_y
_atom_site_fract_z
Si Si1 0.414063 0.893460 0.667119
Si Si2 0.309283 0.419060 0.661568
Si Si3 0.773740 0.090151 0.818821
O O1 0.500000 0.934010 0.750000
O O2 0.401137 0.936029 0.500000
O O3 0.432060 0.792509 0.643435
O O4 0.328357 0.907626 0.769597
O O5 0.352286 0.500000 0.750000
O O6 0.329202 0.329202 0.750000
O O7 0.354838 0.412958 0.500000
O O8 0.827861 0.172140 0.750000
O O9 0.814068 0.000000 0.750000
O O10 0.780638 0.092024 0.000000
#
# Coordination Sequence:
#
# PCOD8313217 Si02
#       3
#    16  16  16
#     4  10  21  39  64  96 131 170 214 266 326 391
#     4  10  20  33  51  75 108 149 198 252 311 375
#     4  12  26  46  71 101 136 177 225 278 336 401
#
# _framework density 23.209768
#
# number of rings (size 3 to 8) (size 9 to 14) (size 15 to 20)
#    0.000    1.333    0.000    6.000    0.000    8.000 
#    0.000    6.667    0.000    0.000    0.000    0.000 
#    0.000    0.000    0.000    0.000    0.000    0.000 
#
# Total GULP energy -594785.367436 kJ/mol
# GULP energy per Si atom -12391.361822 kJ/mol
# Density = 2.315694 g / cm^3
# Si number density = 23.209768 Si / 1000 Ang^3
#
#
#
# Elastic Constant Matrix: (Units=GPa)
#
#
# Indices 1 2 3 4 5 6 
#
# 1 93.6389 45.9656 63.8301 0.0000 0.0000 0.0000
# 2 45.9656 93.6337 63.8283 0.0000 0.0000 0.0000
# 3 63.8301 63.8283 254.4598 0.0000 0.0000 0.0000
# 4 0.0000 0.0000 0.0000 22.8086 0.0000 0.0000
# 5 0.0000 0.0000 0.0000 0.0000 22.8075 0.0000
# 6 0.0000 0.0000 0.0000 0.0000 0.0000 -260.0674
#
#
#
# Elastic Compliance Matrix: (Units=1/GPa)
#
#
# Indices 1 2 3 4 5 6 
#
# 1 0.015136 -0.005841 -0.002332 0.000000 0.000000 0.000000
# 2 -0.005841 0.015137 -0.002332 0.000000 0.000000 0.000000
# 3 -0.002332 -0.002332 0.005100 0.000000 0.000000 0.000000
# 4 0.000000 0.000000 0.000000 0.043843 0.000000 0.000000
# 5 0.000000 0.000000 0.000000 0.000000 0.043845 0.000000
# 6 0.000000 0.000000 0.000000 0.000000 0.000000 -0.003845
#
#
# Mechanical properties :
#
#
# Convention : Reuss Voigt Hill
#
# Bulk Modulus (GPa) = 69.61954 87.66448 78.64201
# Shear Modulus (GPa) = 34.47994 -25.01634 4.73180
#
# Velocity S-wave (km/s) = 3.85850 -3.28660 1.42938
# Velocity P-wave (km/s) = 7.06482 4.84254 6.05648
#
# Compressibility (1/GPa) = 0.01436378
#
# Stress axis : x y z
#
# Youngs Moduli (GPa) = 66.06811 66.06438 196.09145
#
# Poissons Ratio (x) = 0.38588 0.45722
# Poissons Ratio (y) = 0.38590 0.45723
# Poissons Ratio (z) = 0.15405 0.15404
#
# Static dielectric constant tensor:
#      x y z
#    x 4.211690 0.000000 0.000000 
#    y 0.000000 4.211690 0.000000 
#    z 0.000000 0.000000 4.891230 
# 
# 
# High freq. dielectric constant tensor:
#      x y z
#    x 1.917640 0.000000 0.000000 
#    y 0.000000 1.917640 0.000000 
#    z 0.000000 0.000000 1.943480 
# 
# From -- ./inp_files/475.got.cif
#   From: 2010.03.12/outbox.cif.g09.slc.cpg/sg124_1_cif.got.tgz:475.got - 2010.04.06 16:38:57.
