data_PCOD8313911
_publ_section_title
;
Structure prediction by ZEFSAII (Michael W. Deem and Ramdas Pophale) SiO2 
 PCOD8313911
Probable space group: P 4/M B M
;
_chemical_formula_sum "Si O2"
_cell_formula_units_Z 96
_cell_length_a 25.059474
_cell_length_b 25.059474
_cell_length_c 9.483423
_cell_angle_alpha 90.000000
_cell_angle_beta 90.000000
_cell_angle_gamma 90.000000
_cell_volume 5955.373774
_symmetry_space_group_name_H-M "P 4/M B M"
_symmetry_group_IT_number 127
_symmetry_cell_setting 'tetragonal'
loop_
_space_group_symop_operation_xyz
x,y,z
-y,x,z
-x,-y,z
y,-x,z
1/2+x,1/2-y,-z
1/2-x,1/2+y,-z
1/2+y,1/2+x,-z
1/2-y,1/2-x,-z
-x,-y,-z
y,-x,-z
x,y,-z
-y,x,-z
1/2-x,1/2+y,z
1/2+x,1/2-y,z
1/2-y,1/2-x,z
1/2+y,1/2+x,z
loop_
_atom_site_type_symbol
_atom_site_label
_atom_site_fract_x
_atom_site_fract_y
_atom_site_fract_z
Si Si1 0.683116 0.607299 0.834349
Si Si2 0.611611 0.687899 0.334410
Si Si3 0.607781 0.193174 0.837381
Si Si4 0.393259 0.191115 0.332031
Si Si5 0.508259 0.314911 0.655463
Si Si6 0.990323 0.688211 0.656436
O O1 0.651768 0.654327 0.759359
O O2 0.745176 0.617593 0.800161
O O3 0.663987 0.550509 0.770385
O O4 0.671013 0.607060 0.000000
O O5 0.625472 0.682303 0.500000
O O6 0.618568 0.748786 0.281419
O O7 0.551575 0.666805 0.304278
O O8 0.660968 0.160968 0.794888
O O9 0.557511 0.168153 0.754917
O O10 0.593705 0.186206 0.000000
O O11 0.393356 0.190680 0.500000
O O12 0.348342 0.151659 0.269194
O O13 0.451834 0.170719 0.281594
O O14 0.523639 0.337345 0.500000
O O15 0.508840 0.251624 0.649164
O O16 0.981092 0.664466 0.500000
#
# Coordination Sequence:
#
# PCOD8313911 Si02
#       6
#    16  16  16  16  16  16
#     4  10  19  29  44  66  90 116 145 179 218 256
#     4   9  17  29  46  67  90 117 146 175 212 260
#     4   9  18  31  44  60  87 121 150 177 215 260
#     4   8  14  26  45  68  92 116 142 176 219 262
#     4   8  15  29  46  62  83 113 148 181 211 250
#     4   8  14  26  45  66  84 107 146 188 216 246
#
# _framework density 16.119895
#
# number of rings (size 3 to 8) (size 9 to 14) (size 15 to 20)
#    0.000    3.333    0.000    2.500    0.000    2.333 
#    0.000    2.500    0.000    2.500    0.000    7.000 
#    0.000    0.000    0.000    0.000    0.000    0.000 
#
# Total GULP energy -1189789.251891 kJ/mol
# GULP energy per Si atom -12393.638041 kJ/mol
# Density = 1.608321 g / cm^3
# Si number density = 16.119895 Si / 1000 Ang^3
#
#
#
# Elastic Constant Matrix: (Units=GPa)
#
#
# Indices 1 2 3 4 5 6 
#
# 1 93.2732 58.6556 52.5768 0.0000 0.0000 0.0000
# 2 58.6556 93.2732 52.5768 0.0000 0.0000 0.0000
# 3 52.5768 52.5768 73.3546 0.0000 0.0000 0.0000
# 4 0.0000 0.0000 0.0000 19.5658 0.0000 0.0000
# 5 0.0000 0.0000 0.0000 0.0000 19.5658 0.0000
# 6 0.0000 0.0000 0.0000 0.0000 0.0000 2.0485
#
#
#
# Elastic Compliance Matrix: (Units=1/GPa)
#
#
# Indices 1 2 3 4 5 6 
#
# 1 0.020974 -0.007913 -0.009362 0.000000 0.000000 0.000000
# 2 -0.007913 0.020974 -0.009362 0.000000 0.000000 0.000000
# 3 -0.009362 -0.009362 0.027053 0.000000 0.000000 0.000000
# 4 0.000000 0.000000 0.000000 0.051110 0.000000 0.000000
# 5 0.000000 0.000000 0.000000 0.000000 0.051110 0.000000
# 6 0.000000 0.000000 0.000000 0.000000 0.000000 0.488151
#
#
# Mechanical properties :
#
#
# Convention : Reuss Voigt Hill
#
# Bulk Modulus (GPa) = 63.57957 65.27992 64.42974
# Shear Modulus (GPa) = 6.96488 14.64214 10.80351
#
# Velocity S-wave (km/s) = 2.08088 3.01712 2.59163
# Velocity P-wave (km/s) = 6.73058 7.26097 7.00080
#
# Compressibility (1/GPa) = 0.01572832
#
# Stress axis : x y z
#
# Youngs Moduli (GPa) = 47.67733 47.67733 36.96495
#
# Poissons Ratio (x) = 0.37726 0.34606
# Poissons Ratio (y) = 0.37726 0.34606
# Poissons Ratio (z) = 0.44635 0.44635
#
# Static dielectric constant tensor:
#      x y z
#    x 3.118870 0.000000 0.000000 
#    y 0.000000 3.118870 0.000000 
#    z 0.000000 0.000000 3.035000 
# 
# 
# High freq. dielectric constant tensor:
#      x y z
#    x 1.605330 0.000000 0.000000 
#    y 0.000000 1.605330 0.000000 
#    z 0.000000 0.000000 1.605040 
# 
# From -- ./inp_files/2208.got.cif
#   From: 2010.03.12/outbox.cif.g09.slc.cpg/sg127_2_cif.got.tgz:2208.got - 2010.04.06 17:03:15.
