data_PCOD8313717
_publ_section_title
;
Structure prediction by ZEFSAII (Michael W. Deem and Ramdas Pophale) SiO2 
 PCOD8313717
Probable space group: P 4/N N C
;
_chemical_formula_sum "Si O2"
_cell_formula_units_Z 48
_cell_length_a 16.516570
_cell_length_b 16.516570
_cell_length_c 8.394706
_cell_angle_alpha 90.000000
_cell_angle_beta 90.000000
_cell_angle_gamma 90.000000
_cell_volume 2290.051323
_symmetry_space_group_name_H-M "P 4/N N C"
_symmetry_group_IT_number 126
_space_group.IT_coordinate_system_code '2'
_symmetry_cell_setting 'tetragonal'
loop_
_space_group_symop_operation_xyz
x,y,z
1/2-y,x,z
1/2-x,1/2-y,z
y,1/2-x,z
x,1/2-y,1/2-z
1/2-x,y,1/2-z
y,x,1/2-z
1/2-y,1/2-x,1/2-z
-x,-y,-z
1/2+y,-x,-z
1/2+x,1/2+y,-z
-y,1/2+x,-z
-x,1/2+y,1/2+z
1/2+x,-y,1/2+z
-y,-x,1/2+z
1/2+y,1/2+x,1/2+z
loop_
_atom_site_type_symbol
_atom_site_label
_atom_site_fract_x
_atom_site_fract_y
_atom_site_fract_z
Si Si1 0.127789 0.014100 0.466514
Si Si2 0.373926 0.733627 0.061056
Si Si3 0.017964 0.017964 0.750000
Si Si4 0.343379 0.156621 0.250000
O O1 0.210094 0.960441 0.478527
O O2 0.063555 0.970783 0.351548
O O3 0.097588 0.019114 0.645230
O O4 0.131928 0.106797 0.406568
O O5 0.381531 0.750000 0.250000
O O6 0.312196 0.658602 0.032998
O O7 0.363399 0.250000 0.250000
#
# Coordination Sequence:
#
# PCOD8313717 Si02
#       4
#    16  16   8   8
#     4  10  21  39  62  85 122 159 198 256 309 361
#     4  11  23  37  58  92 131 168 207 250 310 390
#     4   9  20  37  60  94 116 153 214 249 298 382
#     4  10  24  43  62  84 110 151 204 254 306 362
#
# _framework density 20.960228000000001
#
# number of rings (size 3 to 8) (size 9 to 14) (size 15 to 20)
#    0.000    1.833    0.000    4.000    0.000   13.333 
#    0.000    0.000    0.000    2.000    0.000    0.000 
#    0.000    0.000    0.000    0.000    0.000    0.000 
#
# Total GULP energy -594698.554779 kJ/mol
# GULP energy per Si atom -12389.553225 kJ/mol
# Density = 2.091252 g / cm^3
# Si number density = 20.960228 Si / 1000 Ang^3
#
#
#
# Elastic Constant Matrix: (Units=GPa)
#
#
# Indices 1 2 3 4 5 6 
#
# 1 94.1613 54.8120 47.6195 0.0000 0.0000 0.0000
# 2 54.8120 94.1698 47.6215 0.0000 0.0000 0.0000
# 3 47.6195 47.6215 127.8647 0.0000 0.0000 0.0000
# 4 0.0000 0.0000 0.0000 42.2097 0.0000 0.0000
# 5 0.0000 0.0000 0.0000 0.0000 42.2167 0.0000
# 6 0.0000 0.0000 0.0000 0.0000 0.0000 37.0045
#
#
#
# Elastic Compliance Matrix: (Units=1/GPa)
#
#
# Indices 1 2 3 4 5 6 
#
# 1 0.017111 -0.008300 -0.003281 0.000000 0.000000 0.000000
# 2 -0.008300 0.017110 -0.003281 0.000000 0.000000 0.000000
# 3 -0.003281 -0.003281 0.010265 0.000000 0.000000 0.000000
# 4 0.000000 0.000000 0.000000 0.023691 0.000000 0.000000
# 5 0.000000 0.000000 0.000000 0.000000 0.023687 0.000000
# 6 0.000000 0.000000 0.000000 0.000000 0.000000 0.027024
#
#
# Mechanical properties :
#
#
# Convention : Reuss Voigt Hill
#
# Bulk Modulus (GPa) = 67.74906 68.47795 68.11351
# Shear Modulus (GPa) = 32.56631 35.36237 33.96434
#
# Velocity S-wave (km/s) = 3.94600 4.11191 4.02981
# Velocity P-wave (km/s) = 7.29068 7.43539 7.36339
#
# Compressibility (1/GPa) = 0.01476035
#
# Stress axis : x y z
#
# Youngs Moduli (GPa) = 58.44146 58.44685 97.42104
#
# Poissons Ratio (x) = 0.48513 0.31966
# Poissons Ratio (y) = 0.48508 0.31964
# Poissons Ratio (z) = 0.19176 0.19176
#
# Static dielectric constant tensor:
#      x y z
#    x 3.980020 0.000000 0.000000 
#    y 0.000000 3.980030 0.000000 
#    z 0.000000 0.000000 3.871210 
# 
# 
# High freq. dielectric constant tensor:
#      x y z
#    x 1.816250 0.000000 0.000000 
#    y 0.000000 1.816240 0.000000 
#    z 0.000000 0.000000 1.826710 
# 
# From -- ./inp_files/1132.got.cif
#   From: 2010.03.12/outbox.cif.g09.slc.cpg/sg126_1_cif.got.tgz:1132.got - 2010.04.06 16:55:23.
