data_PCOD8313521
_publ_section_title
;
Structure prediction by ZEFSAII (Michael W. Deem and Ramdas Pophale) SiO2 
 PCOD8313521
Probable space group: P 4/N B M
;
_chemical_formula_sum "Si O2"
_cell_formula_units_Z 64
_cell_length_a 13.785402
_cell_length_b 13.785402
_cell_length_c 18.228282
_cell_angle_alpha 90.000000
_cell_angle_beta 90.000000
_cell_angle_gamma 90.000000
_cell_volume 3464.053646
_symmetry_space_group_name_H-M "P 4/N B M"
_symmetry_group_IT_number 125
_space_group.IT_coordinate_system_code '2'
_symmetry_cell_setting 'tetragonal'
loop_
_space_group_symop_operation_xyz
x,y,z
1/2-y,x,z
1/2-x,1/2-y,z
y,1/2-x,z
x,1/2-y,-z
1/2-x,y,-z
y,x,-z
1/2-y,1/2-x,-z
-x,-y,-z
1/2+y,-x,-z
1/2+x,1/2+y,-z
-y,1/2+x,-z
-x,1/2+y,z
1/2+x,-y,z
-y,-x,z
1/2+y,1/2+x,z
loop_
_atom_site_type_symbol
_atom_site_label
_atom_site_fract_x
_atom_site_fract_y
_atom_site_fract_z
Si Si1 0.989645 0.848821 0.037569
Si Si2 0.372872 0.147893 0.580633
Si Si3 0.142410 0.010595 0.720697
Si Si4 0.152631 0.004895 0.205976
O O1 0.976934 0.819160 0.122136
O O2 0.021041 0.750000 0.000000
O O3 0.892075 0.892075 0.000000
O O4 0.075675 0.924325 0.026312
O O5 0.383172 0.262652 0.591648
O O6 0.396326 0.103675 0.500000
O O7 0.447653 0.109629 0.641065
O O8 0.255995 0.004002 0.738887
O O9 0.095483 0.083282 0.778622
O O10 0.096764 0.903237 0.727615
O O11 0.096574 0.903427 0.217753
#
# Coordination Sequence:
#
# PCOD8313521 Si02
#       4
#    16  16  16  16
#     4  10  21  38  57  79 109 144 185 232 280 334
#     4   9  17  32  55  82 112 143 181 227 274 318
#     4  11  21  35  57  82 111 150 186 225 278 327
#     4  10  22  37  55  82 112 143 184 232 281 336
#
# _framework density 18.475466000000001
#
# number of rings (size 3 to 8) (size 9 to 14) (size 15 to 20)
#    0.000    2.000    2.500    2.250    0.000    5.000 
#    0.000    5.000    0.000    0.000    0.000    0.000 
#    0.000    0.000    0.000    0.000    0.000    0.000 
#
# Total GULP energy -793079.815573 kJ/mol
# GULP energy per Si atom -12391.872118 kJ/mol
# Density = 1.843342 g / cm^3
# Si number density = 18.475466 Si / 1000 Ang^3
#
#
#
# Elastic Constant Matrix: (Units=GPa)
#
#
# Indices 1 2 3 4 5 6 
#
# 1 65.2531 15.0875 32.1766 0.0000 0.0000 0.0000
# 2 15.0875 65.2535 32.1767 0.0000 0.0000 0.0000
# 3 32.1766 32.1767 126.0939 0.0000 0.0000 0.0000
# 4 0.0000 0.0000 0.0000 22.9290 0.0000 0.0000
# 5 0.0000 0.0000 0.0000 0.0000 22.9289 0.0000
# 6 0.0000 0.0000 0.0000 0.0000 0.0000 17.0739
#
#
#
# Elastic Compliance Matrix: (Units=1/GPa)
#
#
# Indices 1 2 3 4 5 6 
#
# 1 0.017789 -0.002145 -0.003992 0.000000 0.000000 0.000000
# 2 -0.002145 0.017789 -0.003992 0.000000 0.000000 0.000000
# 3 -0.003992 -0.003992 0.009968 0.000000 0.000000 0.000000
# 4 0.000000 0.000000 0.000000 0.043613 0.000000 0.000000
# 5 0.000000 0.000000 0.000000 0.000000 0.043613 0.000000
# 6 0.000000 0.000000 0.000000 0.000000 0.000000 0.058569
#
#
# Mechanical properties :
#
#
# Convention : Reuss Voigt Hill
#
# Bulk Modulus (GPa) = 39.54337 46.16466 42.85402
# Shear Modulus (GPa) = 22.72423 24.39699 23.56061
#
# Velocity S-wave (km/s) = 3.51089 3.63782 3.57492
# Velocity P-wave (km/s) = 6.15506 6.53347 6.34709
#
# Compressibility (1/GPa) = 0.02528869
#
# Stress axis : x y z
#
# Youngs Moduli (GPa) = 56.21330 56.21360 100.32026
#
# Poissons Ratio (x) = 0.12055 0.40050
# Poissons Ratio (y) = 0.12055 0.40050
# Poissons Ratio (z) = 0.22442 0.22442
#
# Static dielectric constant tensor:
#      x y z
#    x 3.219190 0.000000 0.000000 
#    y 0.000000 3.219190 0.000000 
#    z 0.000000 0.000000 3.669790 
# 
# 
# High freq. dielectric constant tensor:
#      x y z
#    x 1.704600 0.000000 0.000000 
#    y 0.000000 1.704600 0.000000 
#    z 0.000000 0.000000 1.733470 
# 
# From -- ./inp_files/4617.got.cif
#   From: 2010.03.12/outbox.cif.g09.slc.cpg/sg125_3_cif.got.tgz:4617.got - 2010.04.06 16:47:52.
