data_PCOD8313754
_publ_section_title
;
Structure prediction by ZEFSAII (Michael W. Deem and Ramdas Pophale) SiO2 
 PCOD8313754
Probable space group: P 4/N N C
;
_chemical_formula_sum "Si O2"
_cell_formula_units_Z 56
_cell_length_a 17.553681
_cell_length_b 17.553681
_cell_length_c 8.209593
_cell_angle_alpha 90.000000
_cell_angle_beta 90.000000
_cell_angle_gamma 90.000000
_cell_volume 2529.635984
_symmetry_space_group_name_H-M "P 4/N N C"
_symmetry_group_IT_number 126
_space_group.IT_coordinate_system_code '2'
_symmetry_cell_setting 'tetragonal'
loop_
_space_group_symop_operation_xyz
x,y,z
1/2-y,x,z
1/2-x,1/2-y,z
y,1/2-x,z
x,1/2-y,1/2-z
1/2-x,y,1/2-z
y,x,1/2-z
1/2-y,1/2-x,1/2-z
-x,-y,-z
1/2+y,-x,-z
1/2+x,1/2+y,-z
-y,1/2+x,-z
-x,1/2+y,1/2+z
1/2+x,-y,1/2+z
-y,-x,1/2+z
1/2+y,1/2+x,1/2+z
loop_
_atom_site_type_symbol
_atom_site_label
_atom_site_fract_x
_atom_site_fract_y
_atom_site_fract_z
Si Si1 0.502716 0.997285 0.750000
Si Si2 0.003208 0.873244 0.013987
Si Si3 0.770039 0.631515 0.940868
Si Si4 0.652622 0.291246 0.078432
O O1 0.510718 0.084979 0.688677
O O2 0.562746 0.974255 0.888772
O O3 0.948816 0.798305 0.014455
O O4 0.084660 0.847470 0.954973
O O5 0.836501 0.689266 0.003518
O O6 0.750000 0.625441 0.750000
O O7 0.642665 0.250000 0.250000
O O8 0.729515 0.341871 0.068876
#
# Coordination Sequence:
#
# PCOD8313754 Si02
#       4
#     8  16  16  16
#     4  10  24  38  58  90 118 154 208 240 296 382
#     4  11  22  41  60  85 122 159 195 253 305 353
#     4   9  18  34  60  89 112 146 197 241 288 354
#     4  11  23  39  61  90 121 158 206 253 306 373
#
# _framework density 22.137574000000001
#
# number of rings (size 3 to 8) (size 9 to 14) (size 15 to 20)
#    0.000    1.714    0.000    6.857    0.000    4.571 
#    0.000    4.286    0.000    1.714    0.000    0.000 
#    0.000    0.000    0.000    0.000    0.000    0.000 
#
# Total GULP energy -693741.387694 kJ/mol
# GULP energy per Si atom -12388.239066 kJ/mol
# Density = 2.208719 g / cm^3
# Si number density = 22.137574 Si / 1000 Ang^3
#
#
#
# Elastic Constant Matrix: (Units=GPa)
#
#
# Indices 1 2 3 4 5 6 
#
# 1 45.8053 38.1750 10.8941 0.0000 0.0000 0.0000
# 2 38.1750 45.8058 10.8946 0.0000 0.0000 0.0000
# 3 10.8941 10.8946 64.0824 0.0000 0.0000 0.0000
# 4 0.0000 0.0000 0.0000 22.7039 0.0000 0.0000
# 5 0.0000 0.0000 0.0000 0.0000 22.7027 0.0000
# 6 0.0000 0.0000 0.0000 0.0000 0.0000 45.1881
#
#
#
# Elastic Compliance Matrix: (Units=1/GPa)
#
#
# Indices 1 2 3 4 5 6 
#
# 1 0.071755 -0.059297 -0.002117 0.000000 0.000000 0.000000
# 2 -0.059297 0.071754 -0.002118 0.000000 0.000000 0.000000
# 3 -0.002117 -0.002118 0.016325 0.000000 0.000000 0.000000
# 4 0.000000 0.000000 0.000000 0.044045 0.000000 0.000000
# 5 0.000000 0.000000 0.000000 0.000000 0.044048 0.000000
# 6 0.000000 0.000000 0.000000 0.000000 0.000000 0.022130
#
#
# Mechanical properties :
#
#
# Convention : Reuss Voigt Hill
#
# Bulk Modulus (GPa) = 30.51768 30.62456 30.57112
# Shear Modulus (GPa) = 12.25355 24.50092 18.37723
#
# Velocity S-wave (km/s) = 2.35525 3.33041 2.88434
# Velocity P-wave (km/s) = 4.60561 5.35281 4.99321
#
# Compressibility (1/GPa) = 0.03276789
#
# Stress axis : x y z
#
# Youngs Moduli (GPa) = 13.93637 13.93648 61.25584
#
# Poissons Ratio (x) = 0.82640 0.12969
# Poissons Ratio (y) = 0.82639 0.12975
# Poissons Ratio (z) = 0.02951 0.02952
#
# Static dielectric constant tensor:
#      x y z
#    x 4.027660 0.000000 0.000000 
#    y 0.000000 4.027640 0.000000 
#    z 0.000000 0.000000 3.880200 
# 
# 
# High freq. dielectric constant tensor:
#      x y z
#    x 1.873560 0.000000 0.000000 
#    y 0.000000 1.873560 0.000000 
#    z 0.000000 0.000000 1.847950 
# 
# From -- ./inp_files/1245.got.cif
#   From: 2010.03.12/outbox.cif.g09.slc.cpg/sg126_1_cif.got.tgz:1245.got - 2010.04.06 16:55:23.
