data_PCOD8313158
_publ_section_title
;
Structure prediction by ZEFSAII (Michael W. Deem and Ramdas Pophale) SiO2 
 PCOD8313158
Probable space group: P 4/M C C
;
_chemical_formula_sum "Si O2"
_cell_formula_units_Z 128
_cell_length_a 20.220587
_cell_length_b 20.220587
_cell_length_c 17.848969
_cell_angle_alpha 90.000000
_cell_angle_beta 90.000000
_cell_angle_gamma 90.000000
_cell_volume 7297.946127
_symmetry_space_group_name_H-M "P 4/M C C"
_symmetry_group_IT_number 124
_symmetry_cell_setting 'tetragonal'
loop_
_space_group_symop_operation_xyz
x,y,z
-y,x,z
-x,-y,z
y,-x,z
x,-y,1/2-z
-x,y,1/2-z
y,x,1/2-z
-y,-x,1/2-z
-x,-y,-z
y,-x,-z
x,y,-z
-y,x,-z
-x,y,1/2+z
x,-y,1/2+z
-y,-x,1/2+z
y,x,1/2+z
loop_
_atom_site_type_symbol
_atom_site_label
_atom_site_fract_x
_atom_site_fract_y
_atom_site_fract_z
Si Si1 0.617956 0.933097 0.284397
Si Si2 0.817892 0.447814 0.189298
Si Si3 0.223696 0.682049 0.412897
Si Si4 0.746353 0.109717 0.414537
Si Si5 0.758097 0.019512 0.824588
Si Si6 0.799617 0.863608 0.412059
Si Si7 0.138811 0.559541 0.587743
Si Si8 0.236826 0.344637 0.587171
O O1 0.597259 0.871767 0.231515
O O2 0.696537 0.938414 0.291890
O O3 0.589458 0.923801 0.368383
O O4 0.586847 0.000000 0.250000
O O5 0.787705 0.500000 0.250000
O O6 0.849317 0.486638 0.119028
O O7 0.761827 0.403708 0.148403
O O8 0.222988 0.697794 0.500000
O O9 0.170032 0.732814 0.378773
O O10 0.203274 0.606571 0.395262
O O11 0.297669 0.701965 0.386668
O O12 0.747469 0.086931 0.500000
O O13 0.818469 0.137626 0.390879
O O14 0.692137 0.166714 0.403093
O O15 0.729779 0.044775 0.367131
O O16 0.805826 0.064039 0.875475
O O17 0.799508 0.000000 0.750000
O O18 0.794895 0.874310 0.500000
O O19 0.122286 0.557142 0.500000
O O20 0.245164 0.368227 0.500000
#
# Coordination Sequence:
#
# PCOD8313158 Si02
#       8
#    16  16  16  16  16  16  16  16
#     4  10  21  35  47  64  99 137 167 207 246 286
#     4  10  21  34  46  66 104 138 165 203 251 295
#     4   8  15  29  51  75  94 118 164 217 258 291
#     4   9  19  33  52  77  96 121 165 214 258 304
#     4  11  20  30  49  72  99 129 162 199 249 302
#     4   9  17  32  52  72  98 124 155 209 266 302
#     4  10  19  33  53  73  92 128 176 213 249 295
#     4   9  16  31  52  72  97 128 166 213 256 294
#
# _framework density 17.539180999999999
#
# number of rings (size 3 to 8) (size 9 to 14) (size 15 to 20)
#    0.000    2.500    1.250    3.750    0.000    3.250 
#    0.000    4.375    0.000    0.375    0.000    2.625 
#    0.000    0.500    0.000    8.000    0.000    7.375 
#
# Total GULP energy -1585815.382057 kJ/mol
# GULP energy per Si atom -12389.182672 kJ/mol
# Density = 1.749926 g / cm^3
# Si number density = 17.539181 Si / 1000 Ang^3
#
#
#
# Elastic Constant Matrix: (Units=GPa)
#
#
# Indices 1 2 3 4 5 6 
#
# 1 54.6261 25.0527 37.2612 0.0000 0.0000 0.0000
# 2 25.0527 54.6261 37.2612 0.0000 0.0000 0.0000
# 3 37.2612 37.2612 96.3541 0.0000 0.0000 0.0000
# 4 0.0000 0.0000 0.0000 26.3596 0.0000 0.0000
# 5 0.0000 0.0000 0.0000 0.0000 26.3596 0.0000
# 6 0.0000 0.0000 0.0000 0.0000 0.0000 14.9562
#
#
#
# Elastic Compliance Matrix: (Units=1/GPa)
#
#
# Indices 1 2 3 4 5 6 
#
# 1 0.026738 -0.007076 -0.007603 0.000000 0.000000 0.000000
# 2 -0.007076 0.026738 -0.007603 0.000000 0.000000 0.000000
# 3 -0.007603 -0.007603 0.016259 0.000000 0.000000 0.000000
# 4 0.000000 0.000000 0.000000 0.037937 0.000000 0.000000
# 5 0.000000 0.000000 0.000000 0.000000 0.037937 0.000000
# 6 0.000000 0.000000 0.000000 0.000000 0.000000 0.066862
#
#
# Mechanical properties :
#
#
# Convention : Reuss Voigt Hill
#
# Bulk Modulus (GPa) = 39.73161 44.97293 42.35227
# Shear Modulus (GPa) = 18.83763 20.60384 19.72074
#
# Velocity S-wave (km/s) = 3.28080 3.43115 3.35682
# Velocity P-wave (km/s) = 6.08718 6.43383 6.26290
#
# Compressibility (1/GPa) = 0.02516888
#
# Stress axis : x y z
#
# Youngs Moduli (GPa) = 37.40007 37.40007 61.50431
#
# Poissons Ratio (x) = 0.26465 0.46764
# Poissons Ratio (y) = 0.26465 0.46764
# Poissons Ratio (z) = 0.28437 0.28437
#
# Static dielectric constant tensor:
#      x y z
#    x 3.158920 0.000000 0.000000 
#    y 0.000000 3.158920 0.000000 
#    z 0.000000 0.000000 3.449720 
# 
# 
# High freq. dielectric constant tensor:
#      x y z
#    x 1.648830 0.000000 0.000000 
#    y 0.000000 1.648830 0.000000 
#    z 0.000000 0.000000 1.690780 
# 
# From -- ./inp_files/4618.got.cif
#   From: 2010.03.12/outbox.cif.g09.slc.cpg/sg124_3_cif.got.tgz:4618.got - 2010.04.06 16:38:57.
