data_PCOD8313479
_publ_section_title
;
Structure prediction by ZEFSAII (Michael W. Deem and Ramdas Pophale) SiO2 
 PCOD8313479
Probable space group: P 4/N B M
;
_chemical_formula_sum "Si O2"
_cell_formula_units_Z 40
_cell_length_a 21.026318
_cell_length_b 21.026318
_cell_length_c 5.273875
_cell_angle_alpha 90.000000
_cell_angle_beta 90.000000
_cell_angle_gamma 90.000000
_cell_volume 2331.612037
_symmetry_space_group_name_H-M "P 4/N B M"
_symmetry_group_IT_number 125
_space_group.IT_coordinate_system_code '2'
_symmetry_cell_setting 'tetragonal'
loop_
_space_group_symop_operation_xyz
x,y,z
1/2-y,x,z
1/2-x,1/2-y,z
y,1/2-x,z
x,1/2-y,-z
1/2-x,y,-z
y,x,-z
1/2-y,1/2-x,-z
-x,-y,-z
1/2+y,-x,-z
1/2+x,1/2+y,-z
-y,1/2+x,-z
-x,1/2+y,z
1/2+x,-y,z
-y,-x,z
1/2+y,1/2+x,z
loop_
_atom_site_type_symbol
_atom_site_label
_atom_site_fract_x
_atom_site_fract_y
_atom_site_fract_z
Si Si1 0.750000 0.148057 0.500000
Si Si2 0.028695 0.422148 0.249925
Si Si3 0.525634 0.216765 0.253405
O O1 0.691918 0.191918 0.597703
O O2 0.774247 0.102475 0.728756
O O3 0.072704 0.427297 0.500000
O O4 0.978025 0.478025 0.250208
O O5 0.990914 0.356761 0.248504
O O6 0.072732 0.427269 0.000000
O O7 0.493195 0.250000 0.500000
O O8 0.499633 0.250000 0.000000
#
# Coordination Sequence:
#
# PCOD8313479 Si02
#       3
#     8  16  16
#     4   9  20  34  50  72 106 152 189 218 252 306
#     4  10  20  34  54  78 106 142 185 231 279 325
#     4  10  21  35  53  76 109 142 183 221 271 314
#
# _framework density 17.155512999999999
#
# number of rings (size 3 to 8) (size 9 to 14) (size 15 to 20)
#    1.200    1.000    0.000    3.600    0.000    3.200 
#    0.000    2.000    0.000    0.000    0.000    0.000 
#    0.000   56.000    0.000    0.000    0.000    0.000 
#
# Total GULP energy -495681.968381 kJ/mol
# GULP energy per Si atom -12392.049210 kJ/mol
# Density = 1.711647 g / cm^3
# Si number density = 17.155513 Si / 1000 Ang^3
#
#
#
# Elastic Constant Matrix: (Units=GPa)
#
#
# Indices 1 2 3 4 5 6 
#
# 1 74.9554 24.0149 39.4891 0.0000 0.0000 0.0000
# 2 24.0149 74.9602 39.4913 0.0000 0.0000 0.0000
# 3 39.4891 39.4913 155.2374 0.0000 0.0000 0.0000
# 4 0.0000 0.0000 0.0000 16.1497 0.0000 0.0000
# 5 0.0000 0.0000 0.0000 0.0000 16.1506 0.0000
# 6 0.0000 0.0000 0.0000 0.0000 0.0000 34.8347
#
#
#
# Elastic Compliance Matrix: (Units=1/GPa)
#
#
# Indices 1 2 3 4 5 6 
#
# 1 0.016154 -0.003476 -0.003225 0.000000 0.000000 0.000000
# 2 -0.003476 0.016153 -0.003225 0.000000 0.000000 0.000000
# 3 -0.003225 -0.003225 0.008082 0.000000 0.000000 0.000000
# 4 0.000000 0.000000 0.000000 0.061921 0.000000 0.000000
# 5 0.000000 0.000000 0.000000 0.000000 0.061917 0.000000
# 6 0.000000 0.000000 0.000000 0.000000 0.000000 0.028707
#
#
# Mechanical properties :
#
#
# Convention : Reuss Voigt Hill
#
# Bulk Modulus (GPa) = 48.69170 56.79373 52.74272
# Shear Modulus (GPa) = 22.76530 26.90418 24.83474
#
# Velocity S-wave (km/s) = 3.64675 3.96441 3.80889
# Velocity P-wave (km/s) = 6.79528 7.35748 7.08196
#
# Compressibility (1/GPa) = 0.02053738
#
# Stress axis : x y z
#
# Youngs Moduli (GPa) = 61.90410 61.90765 123.72413
#
# Poissons Ratio (x) = 0.21521 0.39900
# Poissons Ratio (y) = 0.21520 0.39900
# Poissons Ratio (z) = 0.19963 0.19965
#
# Static dielectric constant tensor:
#      x y z
#    x 2.977070 0.000000 0.000000 
#    y 0.000000 2.977060 0.000000 
#    z 0.000000 0.000000 3.573910 
# 
# 
# High freq. dielectric constant tensor:
#      x y z
#    x 1.639750 0.000000 0.000000 
#    y 0.000000 1.639750 0.000000 
#    z 0.000000 0.000000 1.672830 
# 
# From -- ./inp_files/404.got.cif
#   From: 2010.03.12/outbox.cif.g09.slc.cpg/sg125_1_cif.got.tgz:404.got - 2010.04.06 16:47:52.
