data_PCOD8313192
_publ_section_title
;
Structure prediction by ZEFSAII (Michael W. Deem and Ramdas Pophale) SiO2 
 PCOD8313192
Probable space group: P 4/M C C
;
_chemical_formula_sum "Si O2"
_cell_formula_units_Z 96
_cell_length_a 25.289571
_cell_length_b 25.289571
_cell_length_c 9.004980
_cell_angle_alpha 90.000000
_cell_angle_beta 90.000000
_cell_angle_gamma 90.000000
_cell_volume 5759.246633
_symmetry_space_group_name_H-M "P 4/M C C"
_symmetry_group_IT_number 124
_symmetry_cell_setting 'tetragonal'
loop_
_space_group_symop_operation_xyz
x,y,z
-y,x,z
-x,-y,z
y,-x,z
x,-y,1/2-z
-x,y,1/2-z
y,x,1/2-z
-y,-x,1/2-z
-x,-y,-z
y,-x,-z
x,y,-z
-y,x,-z
-x,y,1/2+z
x,-y,1/2+z
-y,-x,1/2+z
y,x,1/2+z
loop_
_atom_site_type_symbol
_atom_site_label
_atom_site_fract_x
_atom_site_fract_y
_atom_site_fract_z
Si Si1 0.139799 0.549003 0.672045
Si Si2 0.857157 0.665482 0.173036
Si Si3 0.666031 0.744997 0.172180
Si Si4 0.252628 0.451142 0.672479
Si Si5 0.866573 0.945376 0.325072
Si Si6 0.744471 0.053506 0.172813
O O1 0.107711 0.500000 0.750000
O O2 0.144462 0.535449 0.500000
O O3 0.115534 0.607543 0.697682
O O4 0.196965 0.551133 0.745541
O O5 0.803467 0.672379 0.263188
O O6 0.898116 0.709190 0.232592
O O7 0.843665 0.673727 0.000000
O O8 0.705835 0.705835 0.250000
O O9 0.606630 0.721398 0.195548
O O10 0.680339 0.748321 0.000000
O O11 0.285204 0.500000 0.750000
O O12 0.245077 0.463847 0.500000
O O13 0.897975 0.897975 0.250000
O O14 0.878266 0.948096 0.500000
O O15 0.805316 0.934072 0.290421
O O16 0.884884 0.000000 0.250000
O O17 0.725377 0.000000 0.250000
O O18 0.735024 0.045293 0.000000
#
# Coordination Sequence:
#
# PCOD8313192 Si02
#       6
#    16  16  16  16  16  16
#     4   9  15  24  41  63  88 116 148 188 231 273
#     4   9  18  32  48  67  92 123 156 191 233 277
#     4  10  20  31  44  66  96 127 157 190 230 276
#     4   9  16  26  41  61  85 116 154 190 226 270
#     4  10  20  35  54  75  98 121 147 181 221 266
#     4   9  19  35  53  72  94 121 155 192 228 269
#
# _framework density 16.668847
#
# number of rings (size 3 to 8) (size 9 to 14) (size 15 to 20)
#    0.000    2.667    0.000    3.000    0.000    4.833 
#    0.000    2.500    0.000    0.500    0.000    3.500 
#    0.000    0.333    0.000    3.667    0.000    2.667 
#
# Total GULP energy -1189579.655906 kJ/mol
# GULP energy per Si atom -12391.454749 kJ/mol
# Density = 1.663091 g / cm^3
# Si number density = 16.668847 Si / 1000 Ang^3
#
#
#
# Elastic Constant Matrix: (Units=GPa)
#
#
# Indices 1 2 3 4 5 6 
#
# 1 98.5168 66.3004 55.2026 0.0000 0.0000 0.0000
# 2 66.3004 98.5168 55.2026 0.0000 0.0000 0.0000
# 3 55.2026 55.2026 104.1746 0.0000 0.0000 0.0000
# 4 0.0000 0.0000 0.0000 25.0535 0.0000 0.0000
# 5 0.0000 0.0000 0.0000 0.0000 25.0535 0.0000
# 6 0.0000 0.0000 0.0000 0.0000 0.0000 0.9316
#
#
#
# Elastic Compliance Matrix: (Units=1/GPa)
#
#
# Indices 1 2 3 4 5 6 
#
# 1 0.020223 -0.010817 -0.004984 0.000000 0.000000 0.000000
# 2 -0.010817 0.020223 -0.004984 0.000000 0.000000 0.000000
# 3 -0.004984 -0.004984 0.014882 0.000000 0.000000 0.000000
# 4 0.000000 0.000000 0.000000 0.039915 0.000000 0.000000
# 5 0.000000 0.000000 0.000000 0.000000 0.039915 0.000000
# 6 0.000000 0.000000 0.000000 0.000000 0.000000 1.073475
#
#
# Mechanical properties :
#
#
# Convention : Reuss Voigt Hill
#
# Bulk Modulus (GPa) = 72.69230 72.73547 72.71389
# Shear Modulus (GPa) = 3.98473 18.50788 11.24631
#
# Velocity S-wave (km/s) = 1.54781 3.33577 2.60030
# Velocity P-wave (km/s) = 6.84826 7.65290 7.26173
#
# Compressibility (1/GPa) = 0.01375661
#
# Stress axis : x y z
#
# Youngs Moduli (GPa) = 49.44832 49.44832 67.19631
#
# Poissons Ratio (x) = 0.53488 0.33493
# Poissons Ratio (y) = 0.53488 0.33493
# Poissons Ratio (z) = 0.24647 0.24647
#
# Static dielectric constant tensor:
#      x y z
#    x 3.416880 0.000000 0.000000 
#    y 0.000000 3.416880 0.000000 
#    z 0.000000 0.000000 3.273770 
# 
# 
# High freq. dielectric constant tensor:
#      x y z
#    x 1.625710 0.000000 0.000000 
#    y 0.000000 1.625710 0.000000 
#    z 0.000000 0.000000 1.657420 
# 
# From -- ./inp_files/1510.got.cif
#   From: 2010.03.12/outbox.cif.g09.slc.cpg/sg124_1_cif.got.tgz:1510.got - 2010.04.06 16:38:57.
