data_PCOD8313129
_publ_section_title
;
Structure prediction by ZEFSAII (Michael W. Deem and Ramdas Pophale) SiO2 
 PCOD8313129
Probable space group: P 4/M C C
;
_chemical_formula_sum "Si O2"
_cell_formula_units_Z 96
_cell_length_a 22.888984
_cell_length_b 22.888984
_cell_length_c 8.902944
_cell_angle_alpha 90.000000
_cell_angle_beta 90.000000
_cell_angle_gamma 90.000000
_cell_volume 4664.302116
_symmetry_space_group_name_H-M "P 4/M C C"
_symmetry_group_IT_number 124
_symmetry_cell_setting 'tetragonal'
loop_
_space_group_symop_operation_xyz
x,y,z
-y,x,z
-x,-y,z
y,-x,z
x,-y,1/2-z
-x,y,1/2-z
y,x,1/2-z
-y,-x,1/2-z
-x,-y,-z
y,-x,-z
x,y,-z
-y,x,-z
-x,y,1/2+z
x,-y,1/2+z
-y,-x,1/2+z
y,x,1/2+z
loop_
_atom_site_type_symbol
_atom_site_label
_atom_site_fract_x
_atom_site_fract_y
_atom_site_fract_z
Si Si1 0.277938 0.642485 0.833772
Si Si2 0.739339 0.814409 0.163539
Si Si3 0.078429 0.266896 0.832153
Si Si4 0.604855 0.055572 0.167945
Si Si5 0.436868 0.818237 0.179631
Si Si6 0.146647 0.058745 0.821550
O O1 0.338706 0.661295 0.750000
O O2 0.242784 0.701702 0.860308
O O3 0.237815 0.599196 0.737406
O O4 0.292305 0.615981 0.000000
O O5 0.799481 0.799481 0.250000
O O6 0.707403 0.859981 0.272392
O O7 0.754752 0.841771 0.000000
O O8 0.040539 0.325664 0.830937
O O9 0.058479 0.215936 0.718759
O O10 0.082583 0.240583 0.000000
O O11 0.588652 0.119115 0.238287
O O12 0.574664 0.000000 0.250000
O O13 0.580277 0.055685 0.000000
O O14 0.500000 0.811057 0.250000
O O15 0.438092 0.815485 0.000000
O O16 0.114380 0.114380 0.750000
O O17 0.119004 0.000000 0.750000
O O18 0.139018 0.057878 0.000000
#
# Coordination Sequence:
#
# PCOD8313129 Si02
#       6
#    16  16  16  16  16  16
#     4  10  20  35  58  88 121 159 198 246 300 357
#     4  10  19  30  49  78 110 144 180 224 279 341
#     4  11  21  37  58  83 113 146 183 232 290 352
#     4  10  23  39  58  81 113 154 202 255 308 360
#     4  11  23  41  61  87 120 162 209 259 307 363
#     4  12  26  45  65  88 113 144 183 232 290 360
#
# _framework density 20.581855999999998
#
# number of rings (size 3 to 8) (size 9 to 14) (size 15 to 20)
#    0.000    1.333    1.667    4.500    0.000    5.833 
#    0.000    2.500    0.000    0.000    0.000    0.000 
#    0.000    0.333    0.000    3.333    0.000    2.000 
#
# Total GULP energy -1189337.530856 kJ/mol
# GULP energy per Si atom -12388.932613 kJ/mol
# Density = 2.053501 g / cm^3
# Si number density = 20.581856 Si / 1000 Ang^3
#
#
#
# Elastic Constant Matrix: (Units=GPa)
#
#
# Indices 1 2 3 4 5 6 
#
# 1 83.0948 40.2537 42.2648 0.0000 0.0000 0.0000
# 2 40.2537 83.0963 42.2654 0.0000 0.0000 0.0000
# 3 42.2648 42.2654 150.3778 0.0000 0.0000 0.0000
# 4 0.0000 0.0000 0.0000 28.7985 0.0000 0.0000
# 5 0.0000 0.0000 0.0000 0.0000 28.7982 0.0000
# 6 0.0000 0.0000 0.0000 0.0000 0.0000 12.6432
#
#
#
# Elastic Compliance Matrix: (Units=1/GPa)
#
#
# Indices 1 2 3 4 5 6 
#
# 1 0.016692 -0.006650 -0.002822 0.000000 0.000000 0.000000
# 2 -0.006650 0.016691 -0.002822 0.000000 0.000000 0.000000
# 3 -0.002822 -0.002822 0.008236 0.000000 0.000000 0.000000
# 4 0.000000 0.000000 0.000000 0.034724 0.000000 0.000000
# 5 0.000000 0.000000 0.000000 0.000000 0.034724 0.000000
# 6 0.000000 0.000000 0.000000 0.000000 0.000000 0.079094
#
#
# Mechanical properties :
#
#
# Convention : Reuss Voigt Hill
#
# Bulk Modulus (GPa) = 58.72041 62.90410 60.81225
# Shear Modulus (GPa) = 22.68325 26.83363 24.75844
#
# Velocity S-wave (km/s) = 3.32339 3.61467 3.47208
# Velocity P-wave (km/s) = 6.58169 6.93183 6.75903
#
# Compressibility (1/GPa) = 0.01702985
#
# Stress axis : x y z
#
# Youngs Moduli (GPa) = 59.91072 59.91175 121.41381
#
# Poissons Ratio (x) = 0.39843 0.34265
# Poissons Ratio (y) = 0.39842 0.34265
# Poissons Ratio (z) = 0.16908 0.16908
#
# Static dielectric constant tensor:
#      x y z
#    x 3.540130 0.000000 0.000000 
#    y 0.000000 3.540130 0.000000 
#    z 0.000000 0.000000 4.120060 
# 
# 
# High freq. dielectric constant tensor:
#      x y z
#    x 1.780350 0.000000 0.000000 
#    y 0.000000 1.780350 0.000000 
#    z 0.000000 0.000000 1.821520 
# 
# From -- ./inp_files/1353.got.cif
#   From: 2010.03.12/outbox.cif.g09.slc.cpg/sg124_1_cif.got.tgz:1353.got - 2010.04.06 16:38:57.
