data_PCOD8313686
_publ_section_title
;
Structure prediction by ZEFSAII (Michael W. Deem and Ramdas Pophale) SiO2 
 PCOD8313686
Probable space group: P 4/N N C
;
_chemical_formula_sum "Si O2"
_cell_formula_units_Z 72
_cell_length_a 20.310388
_cell_length_b 20.310388
_cell_length_c 8.396185
_cell_angle_alpha 90.000000
_cell_angle_beta 90.000000
_cell_angle_gamma 90.000000
_cell_volume 3463.525897
_symmetry_space_group_name_H-M "P 4/N N C"
_symmetry_group_IT_number 126
_space_group.IT_coordinate_system_code '2'
_symmetry_cell_setting 'tetragonal'
loop_
_space_group_symop_operation_xyz
x,y,z
1/2-y,x,z
1/2-x,1/2-y,z
y,1/2-x,z
x,1/2-y,1/2-z
1/2-x,y,1/2-z
y,x,1/2-z
1/2-y,1/2-x,1/2-z
-x,-y,-z
1/2+y,-x,-z
1/2+x,1/2+y,-z
-y,1/2+x,-z
-x,1/2+y,1/2+z
1/2+x,-y,1/2+z
-y,-x,1/2+z
1/2+y,1/2+x,1/2+z
loop_
_atom_site_type_symbol
_atom_site_label
_atom_site_fract_x
_atom_site_fract_y
_atom_site_fract_z
Si Si1 0.731157 0.564974 0.081197
Si Si2 0.079059 0.947586 0.259793
Si Si3 0.417342 0.461653 0.974469
Si Si4 0.250000 0.141731 0.250000
Si Si5 0.848592 0.020914 0.458892
O O1 0.750000 0.602136 0.250000
O O2 0.655086 0.546829 0.098922
O O3 0.773543 0.497195 0.078804
O O4 0.748664 0.602006 0.916443
O O5 0.015293 0.959511 0.374225
O O6 0.071677 0.878239 0.170003
O O7 0.144406 0.943729 0.369417
O O8 0.089704 0.011996 0.152786
O O9 0.453673 0.392063 0.963361
O O10 0.315607 0.184394 0.250000
#
# Coordination Sequence:
#
# PCOD8313686 Si02
#       5
#    16  16  16   8  16
#     4  12  25  39  59  88 120 151 196 248 295 343
#     4  10  20  34  57  82 111 148 187 233 294 360
#     4  11  20  35  56  83 115 150 188 234 292 349
#     4  11  26  44  58  76 110 162 212 245 280 330
#     4  11  20  35  56  83 115 150 188 234 292 349
#
# _framework density 20.788063999999999
#
# number of rings (size 3 to 8) (size 9 to 14) (size 15 to 20)
#    0.000    1.000    2.222    8.000    0.000    2.667 
#    0.000    1.111    0.000    0.000    0.000    0.000 
#    0.000   62.222    0.000    0.000    0.000    0.000 
#
# Total GULP energy -892314.792505 kJ/mol
# GULP energy per Si atom -12393.261007 kJ/mol
# Density = 2.074075 g / cm^3
# Si number density = 20.788064 Si / 1000 Ang^3
#
#
#
# Elastic Constant Matrix: (Units=GPa)
#
#
# Indices 1 2 3 4 5 6 
#
# 1 62.8254 24.5329 21.5627 0.0000 0.0000 0.0000
# 2 24.5329 62.8259 21.5627 0.0000 0.0000 0.0000
# 3 21.5627 21.5627 166.4198 0.0000 0.0000 0.0000
# 4 0.0000 0.0000 0.0000 29.3466 0.0000 0.0000
# 5 0.0000 0.0000 0.0000 0.0000 29.3461 0.0000
# 6 0.0000 0.0000 0.0000 0.0000 0.0000 9.3687
#
#
#
# Elastic Compliance Matrix: (Units=1/GPa)
#
#
# Indices 1 2 3 4 5 6 
#
# 1 0.019172 -0.006943 -0.001585 0.000000 0.000000 0.000000
# 2 -0.006943 0.019172 -0.001585 0.000000 0.000000 0.000000
# 3 -0.001585 -0.001585 0.006420 0.000000 0.000000 0.000000
# 4 0.000000 0.000000 0.000000 0.034075 0.000000 0.000000
# 5 0.000000 0.000000 0.000000 0.000000 0.034076 0.000000
# 6 0.000000 0.000000 0.000000 0.000000 0.000000 0.106738
#
#
# Mechanical properties :
#
#
# Convention : Reuss Voigt Hill
#
# Bulk Modulus (GPa) = 40.74982 47.48752 44.11867
# Shear Modulus (GPa) = 20.15667 28.57313 24.36490
#
# Velocity S-wave (km/s) = 3.11726 3.71144 3.42725
# Velocity P-wave (km/s) = 5.70977 6.42337 6.07705
#
# Compressibility (1/GPa) = 0.02453999
#
# Stress axis : x y z
#
# Youngs Moduli (GPa) = 52.15930 52.15982 155.77512
#
# Poissons Ratio (x) = 0.36213 0.24683
# Poissons Ratio (y) = 0.36212 0.24683
# Poissons Ratio (z) = 0.08265 0.08265
#
# Static dielectric constant tensor:
#      x y z
#    x 3.601130 0.000000 0.000000 
#    y 0.000000 3.601130 0.000000 
#    z 0.000000 0.000000 4.536360 
# 
# 
# High freq. dielectric constant tensor:
#      x y z
#    x 1.778130 0.000000 0.000000 
#    y 0.000000 1.778130 0.000000 
#    z 0.000000 0.000000 1.862110 
# 
# From -- ./inp_files/1577.got.cif
#   From: 2010.03.12/outbox.cif.g09.slc.cpg/sg126_1_cif.got.tgz:1577.got - 2010.04.06 16:55:23.
