data_PCOD8313327
_publ_section_title
;
Structure prediction by ZEFSAII (Michael W. Deem and Ramdas Pophale) SiO2 
 PCOD8313327
Probable space group: P 4/M C C
;
_chemical_formula_sum "Si O2"
_cell_formula_units_Z 80
_cell_length_a 12.045073
_cell_length_b 12.045073
_cell_length_c 26.259616
_cell_angle_alpha 90.000000
_cell_angle_beta 90.000000
_cell_angle_gamma 90.000000
_cell_volume 3809.844445
_symmetry_space_group_name_H-M "P 4/M C C"
_symmetry_group_IT_number 124
_symmetry_cell_setting 'tetragonal'
loop_
_space_group_symop_operation_xyz
x,y,z
-y,x,z
-x,-y,z
y,-x,z
x,-y,1/2-z
-x,y,1/2-z
y,x,1/2-z
-y,-x,1/2-z
-x,-y,-z
y,-x,-z
x,y,-z
-y,x,-z
-x,y,1/2+z
x,-y,1/2+z
-y,-x,1/2+z
y,x,1/2+z
loop_
_atom_site_type_symbol
_atom_site_label
_atom_site_fract_x
_atom_site_fract_y
_atom_site_fract_z
Si Si1 0.216944 0.499364 0.193305
Si Si2 0.152868 0.748610 0.197224
Si Si3 0.599278 0.914865 0.555589
Si Si4 0.467430 0.674739 0.091801
Si Si5 0.700674 0.922970 0.659549
O O1 0.267846 0.500000 0.250000
O O2 0.174372 0.622080 0.182024
O O3 0.310772 0.463219 0.153214
O O4 0.114056 0.412580 0.188719
O O5 0.207050 0.792951 0.250000
O O6 0.212391 0.822191 0.154567
O O7 0.019819 0.759643 0.192739
O O8 0.658839 0.916588 0.500000
O O9 0.551938 0.791572 0.564871
O O10 0.679830 0.955452 0.600760
O O11 0.500000 0.000000 0.554990
O O12 0.372463 0.587708 0.075612
#
# Coordination Sequence:
#
# PCOD8313327 Si02
#       5
#    16  16  16  16  16
#     4  11  21  36  59  86 126 170 214 252 298 372
#     4  12  24  39  62  93 126 169 211 256 315 376
#     4  10  22  42  66  91 120 164 218 269 318 372
#     4  10  22  38  59  92 132 168 206 260 321 381
#     4  11  24  42  62  91 128 164 210 262 314 377
#
# _framework density 20.998234
#
# number of rings (size 3 to 8) (size 9 to 14) (size 15 to 20)
#    0.000    1.200    2.000    6.000    0.000    2.000 
#    0.000    6.000    0.000    0.000    0.000    1.400 
#    0.000    0.000    0.000    0.000    0.000    0.000 
#
# Total GULP energy -991517.182139 kJ/mol
# GULP energy per Si atom -12393.964777 kJ/mol
# Density = 2.095044 g / cm^3
# Si number density = 20.998234 Si / 1000 Ang^3
#
#
#
# Elastic Constant Matrix: (Units=GPa)
#
#
# Indices 1 2 3 4 5 6 
#
# 1 102.3481 45.6462 16.0334 0.0000 0.0000 0.0000
# 2 45.6462 102.3486 16.0331 0.0000 0.0000 0.0000
# 3 16.0334 16.0331 113.6164 0.0000 0.0000 0.0000
# 4 0.0000 0.0000 0.0000 15.9590 0.0000 0.0000
# 5 0.0000 0.0000 0.0000 0.0000 15.9589 0.0000
# 6 0.0000 0.0000 0.0000 0.0000 0.0000 29.1002
#
#
#
# Elastic Compliance Matrix: (Units=1/GPa)
#
#
# Indices 1 2 3 4 5 6 
#
# 1 0.012303 -0.005333 -0.000984 0.000000 0.000000 0.000000
# 2 -0.005333 0.012303 -0.000984 0.000000 0.000000 0.000000
# 3 -0.000984 -0.000984 0.009079 0.000000 0.000000 0.000000
# 4 0.000000 0.000000 0.000000 0.062661 0.000000 0.000000
# 5 0.000000 0.000000 0.000000 0.000000 0.062661 0.000000
# 6 0.000000 0.000000 0.000000 0.000000 0.000000 0.034364
#
#
# Mechanical properties :
#
#
# Convention : Reuss Voigt Hill
#
# Bulk Modulus (GPa) = 52.39719 52.63759 52.51739
# Shear Modulus (GPa) = 23.32822 28.24366 25.78594
#
# Velocity S-wave (km/s) = 3.33672 3.67147 3.50809
# Velocity P-wave (km/s) = 6.31287 6.56468 6.44000
#
# Compressibility (1/GPa) = 0.01908499
#
# Stress axis : x y z
#
# Youngs Moduli (GPa) = 81.28034 81.28081 110.14241
#
# Poissons Ratio (x) = 0.43347 0.10834
# Poissons Ratio (y) = 0.43346 0.10833
# Poissons Ratio (z) = 0.07995 0.07995
#
# Static dielectric constant tensor:
#      x y z
#    x 3.946130 0.000000 0.000000 
#    y 0.000000 3.946130 0.000000 
#    z 0.000000 0.000000 4.096350 
# 
# 
# High freq. dielectric constant tensor:
#      x y z
#    x 1.817230 0.000000 0.000000 
#    y 0.000000 1.817230 0.000000 
#    z 0.000000 0.000000 1.818130 
# 
# From -- ./inp_files/6952.got.cif
#   From: 2010.03.12/outbox.cif.g09.slc.cpg/sg124_4_cif.got.tgz:6952.got - 2010.04.06 16:38:57.
