data_PCOD8313162
_publ_section_title
;
Structure prediction by ZEFSAII (Michael W. Deem and Ramdas Pophale) SiO2 
 PCOD8313162
Probable space group: P 4/M C C
;
_chemical_formula_sum "Si O2"
_cell_formula_units_Z 88
_cell_length_a 15.303654
_cell_length_b 15.303654
_cell_length_c 21.738972
_cell_angle_alpha 90.000000
_cell_angle_beta 90.000000
_cell_angle_gamma 90.000000
_cell_volume 5091.306932
_symmetry_space_group_name_H-M "P 4/M C C"
_symmetry_group_IT_number 124
_symmetry_cell_setting 'tetragonal'
loop_
_space_group_symop_operation_xyz
x,y,z
-y,x,z
-x,-y,z
y,-x,z
x,-y,1/2-z
-x,y,1/2-z
y,x,1/2-z
-y,-x,1/2-z
-x,-y,-z
y,-x,-z
x,y,-z
-y,x,-z
-x,y,1/2+z
x,-y,1/2+z
-y,-x,1/2+z
y,x,1/2+z
loop_
_atom_site_type_symbol
_atom_site_label
_atom_site_fract_x
_atom_site_fract_y
_atom_site_fract_z
Si Si1 0.250672 0.532467 0.427122
Si Si2 0.014588 0.237309 0.123045
Si Si3 0.808289 0.833777 0.070943
Si Si4 0.059223 0.416141 0.929028
Si Si5 0.146050 0.000000 0.250000
Si Si6 0.342418 0.705037 0.426694
O O1 0.252996 0.524770 0.500000
O O2 0.154787 0.559193 0.405226
O O3 0.316770 0.607713 0.404290
O O4 0.275521 0.438252 0.398543
O O5 0.103214 0.189868 0.104939
O O6 0.023143 0.341282 0.115585
O O7 0.993749 0.210945 0.192514
O O8 0.936232 0.207465 0.078949
O O9 0.727430 0.776551 0.097857
O O10 0.820433 0.810450 0.000000
O O11 0.000000 0.500000 0.921815
O O12 0.060455 0.383156 0.000000
O O13 0.086121 0.913880 0.250000
O O14 0.344790 0.710111 0.500000
#
# Coordination Sequence:
#
# PCOD8313162 Si02
#       6
#    16  16  16  16   8  16
#     4   9  16  27  44  68 105 147 180 216 261 324
#     4  12  22  37  57  78 106 146 190 226 277 337
#     4  11  21  33  52  81 111 136 176 233 285 338
#     4  10  19  33  54  83 115 145 179 225 293 354
#     4  11  24  44  57  72 104 152 197 236 282 333
#     4   9  17  29  45  71 108 145 181 216 263 327
#
# _framework density 17.284364
#
# number of rings (size 3 to 8) (size 9 to 14) (size 15 to 20)
#    0.000    1.727    3.636    2.727    0.000    3.636 
#    0.000    3.182    0.000    0.000    0.000    0.000 
#    0.000    0.000    0.000    0.000    0.364    0.000 
#
# Total GULP energy -1091150.133270 kJ/mol
# GULP energy per Si atom -12399.433333 kJ/mol
# Density = 1.724502 g / cm^3
# Si number density = 17.284364 Si / 1000 Ang^3
#
#
#
# Elastic Constant Matrix: (Units=GPa)
#
#
# Indices 1 2 3 4 5 6 
#
# 1 134.1926 54.2289 32.3292 0.0000 0.0000 0.0000
# 2 54.2289 134.1927 32.3293 0.0000 0.0000 0.0000
# 3 32.3292 32.3293 48.5750 0.0000 0.0000 0.0000
# 4 0.0000 0.0000 0.0000 15.6636 0.0000 0.0000
# 5 0.0000 0.0000 0.0000 0.0000 15.6638 0.0000
# 6 0.0000 0.0000 0.0000 0.0000 0.0000 30.0261
#
#
#
# Elastic Compliance Matrix: (Units=1/GPa)
#
#
# Indices 1 2 3 4 5 6 
#
# 1 0.009692 -0.002814 -0.004578 0.000000 0.000000 0.000000
# 2 -0.002814 0.009692 -0.004578 0.000000 0.000000 0.000000
# 3 -0.004578 -0.004578 0.026680 0.000000 0.000000 0.000000
# 4 0.000000 0.000000 0.000000 0.063842 0.000000 0.000000
# 5 0.000000 0.000000 0.000000 0.000000 0.063841 0.000000
# 6 0.000000 0.000000 0.000000 0.000000 0.000000 0.033304
#
#
# Mechanical properties :
#
#
# Convention : Reuss Voigt Hill
#
# Bulk Modulus (GPa) = 45.19688 61.63722 53.41705
# Shear Modulus (GPa) = 20.97617 25.47558 23.22587
#
# Velocity S-wave (km/s) = 3.48744 3.84332 3.66970
# Velocity P-wave (km/s) = 6.51323 7.44533 6.99482
#
# Compressibility (1/GPa) = 0.02212542
#
# Stress axis : x y z
#
# Youngs Moduli (GPa) = 103.17883 103.17891 37.48097
#
# Poissons Ratio (x) = 0.29032 0.17158
# Poissons Ratio (y) = 0.29032 0.17158
# Poissons Ratio (z) = 0.47233 0.47233
#
# Static dielectric constant tensor:
#      x y z
#    x 3.463300 0.000000 0.000000 
#    y 0.000000 3.463300 0.000000 
#    z 0.000000 0.000000 2.726650 
# 
# 
# High freq. dielectric constant tensor:
#      x y z
#    x 1.685220 0.000000 0.000000 
#    y 0.000000 1.685220 0.000000 
#    z 0.000000 0.000000 1.598420 
# 
# From -- ./inp_files/5205.got.cif
#   From: 2010.03.12/outbox.cif.g09.slc.cpg/sg124_3_cif.got.tgz:5205.got - 2010.04.06 16:38:57.
