data_PCOD8313602
_publ_section_title
;
Structure prediction by ZEFSAII (Michael W. Deem and Ramdas Pophale) SiO2 
 PCOD8313602
Probable space group: P 4/N B M
;
_chemical_formula_sum "Si O2"
_cell_formula_units_Z 80
_cell_length_a 13.369138
_cell_length_b 13.369138
_cell_length_c 24.267837
_cell_angle_alpha 90.000000
_cell_angle_beta 90.000000
_cell_angle_gamma 90.000000
_cell_volume 4337.483959
_symmetry_space_group_name_H-M "P 4/N B M"
_symmetry_group_IT_number 125
_space_group.IT_coordinate_system_code '2'
_symmetry_cell_setting 'tetragonal'
loop_
_space_group_symop_operation_xyz
x,y,z
1/2-y,x,z
1/2-x,1/2-y,z
y,1/2-x,z
x,1/2-y,-z
1/2-x,y,-z
y,x,-z
1/2-y,1/2-x,-z
-x,-y,-z
1/2+y,-x,-z
1/2+x,1/2+y,-z
-y,1/2+x,-z
-x,1/2+y,z
1/2+x,-y,z
-y,-x,z
1/2+y,1/2+x,z
loop_
_atom_site_type_symbol
_atom_site_label
_atom_site_fract_x
_atom_site_fract_y
_atom_site_fract_z
Si Si1 0.149808 0.001695 0.969632
Si Si2 0.906110 0.796815 0.860211
Si Si3 0.087971 0.255163 0.435604
Si Si4 0.913060 0.724074 0.264277
Si Si5 0.415262 0.749247 0.350530
O O1 0.166026 0.013256 0.904094
O O2 0.250000 0.020704 0.000000
O O3 0.075157 0.075157 0.000000
O O4 0.110927 0.889074 0.977153
O O5 0.815450 0.871904 0.870610
O O6 0.948731 0.796601 0.798198
O O7 0.148672 0.154983 0.419238
O O8 0.064454 0.250000 0.500000
O O9 0.982953 0.264011 0.404634
O O10 0.862199 0.831514 0.276568
O O11 0.012937 0.719081 0.300282
O O12 0.353305 0.646696 0.338499
O O13 0.339080 0.839080 0.361510
#
# Coordination Sequence:
#
# PCOD8313602 Si02
#       5
#    16  16  16  16  16
#     4  11  22  35  55  83 112 146 185 224 274 334
#     4   9  17  33  58  84 106 134 177 231 280 319
#     4   9  19  37  61  87 112 140 181 235 289 337
#     4   9  19  36  59  86 109 135 182 236 281 327
#     4  11  24  38  52  77 115 156 192 225 272 333
#
# _framework density 18.443871000000001
#
# number of rings (size 3 to 8) (size 9 to 14) (size 15 to 20)
#    0.000    2.200    2.000    3.000    0.000    6.800 
#    0.000    7.000    0.000    0.000    0.000    0.000 
#    0.000    0.000    0.000    0.000    0.000    0.000 
#
# Total GULP energy -991307.999578 kJ/mol
# GULP energy per Si atom -12391.349995 kJ/mol
# Density = 1.840189 g / cm^3
# Si number density = 18.443871 Si / 1000 Ang^3
#
#
#
# Elastic Constant Matrix: (Units=GPa)
#
#
# Indices 1 2 3 4 5 6 
#
# 1 71.1659 42.3564 34.8947 0.0000 0.0000 0.0000
# 2 42.3564 71.1659 34.8947 0.0000 0.0000 0.0000
# 3 34.8947 34.8947 100.8910 0.0000 0.0000 0.0000
# 4 0.0000 0.0000 0.0000 11.8546 0.0000 0.0000
# 5 0.0000 0.0000 0.0000 0.0000 11.8546 0.0000
# 6 0.0000 0.0000 0.0000 0.0000 0.0000 17.6463
#
#
#
# Elastic Compliance Matrix: (Units=1/GPa)
#
#
# Indices 1 2 3 4 5 6 
#
# 1 0.022949 -0.011762 -0.003869 0.000000 0.000000 0.000000
# 2 -0.011762 0.022949 -0.003869 0.000000 0.000000 0.000000
# 3 -0.003869 -0.003869 0.012588 0.000000 0.000000 0.000000
# 4 0.000000 0.000000 0.000000 0.084355 0.000000 0.000000
# 5 0.000000 0.000000 0.000000 0.000000 0.084355 0.000000
# 6 0.000000 0.000000 0.000000 0.000000 0.000000 0.056669
#
#
# Mechanical properties :
#
#
# Convention : Reuss Voigt Hill
#
# Bulk Modulus (GPa) = 51.31924 51.94605 51.63264
# Shear Modulus (GPa) = 15.18086 17.00959 16.09522
#
# Velocity S-wave (km/s) = 2.87206 3.04013 2.95729
# Velocity P-wave (km/s) = 6.23564 6.36779 6.30206
#
# Compressibility (1/GPa) = 0.01948587
#
# Stress axis : x y z
#
# Youngs Moduli (GPa) = 43.57458 43.57458 79.43907
#
# Poissons Ratio (x) = 0.51250 0.30738
# Poissons Ratio (y) = 0.51250 0.30738
# Poissons Ratio (z) = 0.16861 0.16861
#
# Static dielectric constant tensor:
#      x y z
#    x 3.316960 0.000000 0.000000 
#    y 0.000000 3.316960 0.000000 
#    z 0.000000 0.000000 3.464130 
# 
# 
# High freq. dielectric constant tensor:
#      x y z
#    x 1.704020 0.000000 0.000000 
#    y 0.000000 1.704020 0.000000 
#    z 0.000000 0.000000 1.729870 
# 
# From -- ./inp_files/6489.got.cif
#   From: 2010.03.12/outbox.cif.g09.slc.cpg/sg125_4_cif.got.tgz:6489.got - 2010.04.06 16:47:52.
