data_PCOD8313186
_publ_section_title
;
Structure prediction by ZEFSAII (Michael W. Deem and Ramdas Pophale) SiO2 
 PCOD8313186
Probable space group: P 4/M C C
;
_chemical_formula_sum "Si O2"
_cell_formula_units_Z 88
_cell_length_a 13.017608
_cell_length_b 13.017608
_cell_length_c 28.172546
_cell_angle_alpha 90.000000
_cell_angle_beta 90.000000
_cell_angle_gamma 90.000000
_cell_volume 4774.066626
_symmetry_space_group_name_H-M "P 4/M C C"
_symmetry_group_IT_number 124
_symmetry_cell_setting 'tetragonal'
loop_
_space_group_symop_operation_xyz
x,y,z
-y,x,z
-x,-y,z
y,-x,z
x,-y,1/2-z
-x,y,1/2-z
y,x,1/2-z
-y,-x,1/2-z
-x,-y,-z
y,-x,-z
x,y,-z
-y,x,-z
-x,y,1/2+z
x,-y,1/2+z
-y,-x,1/2+z
y,x,1/2+z
loop_
_atom_site_type_symbol
_atom_site_label
_atom_site_fract_x
_atom_site_fract_y
_atom_site_fract_z
Si Si1 0.123735 0.880965 0.500000
Si Si2 0.631752 0.411829 0.944564
Si Si3 0.872189 0.604705 0.146348
Si Si4 0.617290 0.215638 0.753082
Si Si5 0.111506 0.374443 0.344300
Si Si6 0.238673 0.228231 0.913551
O O1 0.173880 0.832253 0.546994
O O2 0.002753 0.856052 0.500000
O O3 0.641201 0.527687 0.923441
O O4 0.731948 0.346161 0.934001
O O5 0.619337 0.420613 0.000000
O O6 0.836279 0.645132 0.197290
O O7 0.841091 0.484694 0.138971
O O8 0.825603 0.674635 0.104857
O O9 0.992629 0.620531 0.145152
O O10 0.500000 0.250208 0.750000
O O11 0.680664 0.319337 0.750000
O O12 0.642738 0.134801 0.711313
O O13 0.153519 0.273986 0.371381
#
# Coordination Sequence:
#
# PCOD8313186 Si02
#       6
#     8  16  16  16  16  16
#     4  11  26  44  58  77 106 144 190 241 300 342
#     4   9  18  33  53  78 109 143 174 208 259 324
#     4  10  21  36  57  85 113 144 184 228 277 332
#     4  10  19  36  57  82 116 150 181 222 276 336
#     4  10  21  36  57  85 113 144 184 228 277 332
#     4  12  20  37  60  81 109 143 187 233 274 331
#
# _framework density 18.432922000000001
#
# number of rings (size 3 to 8) (size 9 to 14) (size 15 to 20)
#    0.000    1.727    2.727    3.273    0.000    2.364 
#    0.000    0.000    0.000    4.364    0.000    1.273 
#    0.000    0.000    0.000    0.000    0.000    0.000 
#
# Total GULP energy -1090752.019791 kJ/mol
# GULP energy per Si atom -12394.909316 kJ/mol
# Density = 1.839097 g / cm^3
# Si number density = 18.432922 Si / 1000 Ang^3
#
#
#
# Elastic Constant Matrix: (Units=GPa)
#
#
# Indices 1 2 3 4 5 6 
#
# 1 72.1838 23.3983 30.0616 0.0000 0.0000 0.0000
# 2 23.3983 72.1845 30.0644 0.0000 0.0000 0.0000
# 3 30.0616 30.0644 85.8747 0.0000 0.0000 0.0000
# 4 0.0000 0.0000 0.0000 -632.9192 0.0000 0.0000
# 5 0.0000 0.0000 0.0000 0.0000 -615.4175 0.0000
# 6 0.0000 0.0000 0.0000 0.0000 0.0000 24.4628
#
#
#
# Elastic Compliance Matrix: (Units=1/GPa)
#
#
# Indices 1 2 3 4 5 6 
#
# 1 0.016957 -0.003540 -0.004697 0.000000 0.000000 0.000000
# 2 -0.003540 0.016957 -0.004697 0.000000 0.000000 0.000000
# 3 -0.004697 -0.004697 0.014933 0.000000 0.000000 0.000000
# 4 0.000000 0.000000 0.000000 -0.001580 0.000000 0.000000
# 5 0.000000 0.000000 0.000000 0.000000 -0.001625 0.000000
# 6 0.000000 0.000000 0.000000 0.000000 0.000000 0.040878
#
#
# Mechanical properties :
#
#
# Convention : Reuss Voigt Hill
#
# Bulk Modulus (GPa) = 43.51749 44.14351 43.83050
# Shear Modulus (GPa) = 41.64927 -234.99355 -96.67214
#
# Velocity S-wave (km/s) = 4.75858 -11.30321 -7.24977
# Velocity P-wave (km/s) = 7.33839 12.09752 6.80066
#
# Compressibility (1/GPa) = 0.02297926
#
# Stress axis : x y z
#
# Youngs Moduli (GPa) = 58.97241 58.97112 66.96359
#
# Poissons Ratio (x) = 0.20879 0.31450
# Poissons Ratio (y) = 0.20879 0.31455
# Poissons Ratio (z) = 0.27697 0.27701
#
# Static dielectric constant tensor:
#      x y z
#    x 3.448280 0.000000 0.000000 
#    y 0.000000 3.448270 0.000000 
#    z 0.000000 0.000000 3.445720 
# 
# 
# High freq. dielectric constant tensor:
#      x y z
#    x 1.716420 0.000000 0.000000 
#    y 0.000000 1.716420 0.000000 
#    z 0.000000 0.000000 1.713440 
# 
# From -- ./inp_files/7077.got.cif
#   From: 2010.03.12/outbox.cif.g09.slc.cpg/sg124_4_cif.got.tgz:7077.got - 2010.04.06 16:38:57.
