data_PCOD8313704
_publ_section_title
;
Structure prediction by ZEFSAII (Michael W. Deem and Ramdas Pophale) SiO2 
 PCOD8313704
Probable space group: P 4/N N C
;
_chemical_formula_sum "Si O2"
_cell_formula_units_Z 64
_cell_length_a 25.702428
_cell_length_b 25.702428
_cell_length_c 5.157873
_cell_angle_alpha 90.000000
_cell_angle_beta 90.000000
_cell_angle_gamma 90.000000
_cell_volume 3407.367267
_symmetry_space_group_name_H-M "P 4/N N C"
_symmetry_group_IT_number 126
_space_group.IT_coordinate_system_code '2'
_symmetry_cell_setting 'tetragonal'
loop_
_space_group_symop_operation_xyz
x,y,z
1/2-y,x,z
1/2-x,1/2-y,z
y,1/2-x,z
x,1/2-y,1/2-z
1/2-x,y,1/2-z
y,x,1/2-z
1/2-y,1/2-x,1/2-z
-x,-y,-z
1/2+y,-x,-z
1/2+x,1/2+y,-z
-y,1/2+x,-z
-x,1/2+y,1/2+z
1/2+x,-y,1/2+z
-y,-x,1/2+z
1/2+y,1/2+x,1/2+z
loop_
_atom_site_type_symbol
_atom_site_label
_atom_site_fract_x
_atom_site_fract_y
_atom_site_fract_z
Si Si1 0.105482 0.559416 0.273469
Si Si2 0.309001 0.645768 0.218601
Si Si3 0.603809 0.809978 0.252364
Si Si4 0.856649 0.557439 0.747638
O O1 0.073848 0.567068 0.538594
O O2 0.156993 0.594036 0.266422
O O3 0.124249 0.501090 0.246342
O O4 0.250000 0.627622 0.250000
O O5 0.325094 0.685150 0.445901
O O6 0.620718 0.750000 0.250000
O O7 0.656709 0.843292 0.250000
O O8 0.569206 0.821276 0.504041
O O9 0.568058 0.822432 0.005939
O O10 0.907830 0.592171 0.750000
#
# Coordination Sequence:
#
# PCOD8313704 Si02
#       4
#    16  16  16  16
#     4  10  21  37  55  79 110 141 178 222 269 324
#     4  10  21  35  51  73 100 131 170 214 259 312
#     4  10  21  37  57  83 114 147 186 230 275 328
#     4  10  21  37  57  83 112 143 184 228 271 326
#
# _framework density 18.782831999999999
#
# number of rings (size 3 to 8) (size 9 to 14) (size 15 to 20)
#    0.000    2.000    0.000    3.000    0.000    4.750 
#    0.000    0.000    0.000    4.500    0.000    0.000 
#    0.000    0.000    0.000    0.000    0.000    0.000 
#
# Total GULP energy -793910.764031 kJ/mol
# GULP energy per Si atom -12404.855688 kJ/mol
# Density = 1.874008 g / cm^3
# Si number density = 18.782832 Si / 1000 Ang^3
#
#
#
# Elastic Constant Matrix: (Units=GPa)
#
#
# Indices 1 2 3 4 5 6 
#
# 1 122.3338 25.0917 31.3021 0.0000 0.0000 0.0000
# 2 25.0917 122.3259 31.3008 0.0000 0.0000 0.0000
# 3 31.3021 31.3008 122.6208 0.0000 0.0000 0.0000
# 4 0.0000 0.0000 0.0000 -1.3067 0.0000 0.0000
# 5 0.0000 0.0000 0.0000 0.0000 -1.3136 0.0000
# 6 0.0000 0.0000 0.0000 0.0000 0.0000 17.0117
#
#
#
# Elastic Compliance Matrix: (Units=1/GPa)
#
#
# Indices 1 2 3 4 5 6 
#
# 1 0.008946 -0.001338 -0.001942 0.000000 0.000000 0.000000
# 2 -0.001338 0.008946 -0.001942 0.000000 0.000000 0.000000
# 3 -0.001942 -0.001942 0.009147 0.000000 0.000000 0.000000
# 4 0.000000 0.000000 0.000000 -0.765290 0.000000 0.000000
# 5 0.000000 0.000000 0.000000 0.000000 -0.761260 0.000000
# 6 0.000000 0.000000 0.000000 0.000000 0.000000 0.058783
#
#
# Mechanical properties :
#
#
# Convention : Reuss Voigt Hill
#
# Bulk Modulus (GPa) = 60.26152 60.29664 60.27908
# Shear Modulus (GPa) = -3.50938 21.51735 9.00399
#
# Velocity S-wave (km/s) = -1.36838 3.38832 2.19183
# Velocity P-wave (km/s) = 5.44576 6.89052 6.21030
#
# Compressibility (1/GPa) = 0.01659434
#
# Stress axis : x y z
#
# Youngs Moduli (GPa) = 111.78534 111.77815 109.32860
#
# Poissons Ratio (x) = 0.14956 0.21232
# Poissons Ratio (y) = 0.14957 0.21233
# Poissons Ratio (z) = 0.21709 0.21709
#
# Static dielectric constant tensor:
#      x y z
#    x 3.330460 0.000000 0.000000 
#    y 0.000000 3.330460 0.000000 
#    z 0.000000 0.000000 19.011940 
# 
# 
# High freq. dielectric constant tensor:
#      x y z
#    x 1.727720 0.000000 0.000000 
#    y 0.000000 1.727720 0.000000 
#    z 0.000000 0.000000 1.754330 
# 
# From -- ./inp_files/441.got.cif
#   From: 2010.03.12/outbox.cif.g09.slc.cpg/sg126_1_cif.got.tgz:441.got - 2010.04.06 16:55:23.
