data_PCOD8313308
_publ_section_title
;
Structure prediction by ZEFSAII (Michael W. Deem and Ramdas Pophale) SiO2 
 PCOD8313308
Probable space group: P 4/M C C
;
_chemical_formula_sum "Si O2"
_cell_formula_units_Z 72
_cell_length_a 19.820342
_cell_length_b 19.820342
_cell_length_c 8.846795
_cell_angle_alpha 90.000000
_cell_angle_beta 90.000000
_cell_angle_gamma 90.000000
_cell_volume 3475.427648
_symmetry_space_group_name_H-M "P 4/M C C"
_symmetry_group_IT_number 124
_symmetry_cell_setting 'tetragonal'
loop_
_space_group_symop_operation_xyz
x,y,z
-y,x,z
-x,-y,z
y,-x,z
x,-y,1/2-z
-x,y,1/2-z
y,x,1/2-z
-y,-x,1/2-z
-x,-y,-z
y,-x,-z
x,y,-z
-y,x,-z
-x,y,1/2+z
x,-y,1/2+z
-y,-x,1/2+z
y,x,1/2+z
loop_
_atom_site_type_symbol
_atom_site_label
_atom_site_fract_x
_atom_site_fract_y
_atom_site_fract_z
Si Si1 0.388648 0.491933 0.500000
Si Si2 0.685337 0.582957 0.828032
Si Si3 0.671510 0.070252 0.823473
Si Si4 0.827491 0.429875 0.179334
Si Si5 0.070154 0.828760 0.324265
O O1 0.435769 0.429027 0.500000
O O2 0.342141 0.503483 0.648185
O O3 0.628855 0.628855 0.750000
O O4 0.751474 0.584910 0.727898
O O5 0.701051 0.609894 0.000000
O O6 0.631508 0.128446 0.739033
O O7 0.750176 0.084031 0.794988
O O8 0.649144 0.000000 0.750000
O O9 0.653519 0.069202 0.000000
O O10 0.853819 0.500000 0.250000
O O11 0.831930 0.434798 0.000000
O O12 0.131480 0.868520 0.250000
O O13 0.066299 0.846047 0.500000
O O14 0.000000 0.851734 0.250000
#
# Coordination Sequence:
#
# PCOD8313308 Si02
#       5
#     8  16  16  16  16
#     4   9  22  40  62  92 124 163 215 261 325 387
#     4  10  23  38  62  87 123 163 206 259 318 382
#     4  10  22  43  68  97 129 165 210 259 316 381
#     4  12  26  43  66  91 124 163 209 266 326 386
#     4  10  21  38  64  95 133 172 214 258 307 365
#
# _framework density 20.716875999999999
#
# number of rings (size 3 to 8) (size 9 to 14) (size 15 to 20)
#    0.667    1.000    0.000    4.000    3.111    4.222 
#    0.000    6.667    0.000    0.000    0.000    0.000 
#    0.000    0.000    0.000    0.000    0.000    0.000 
#
# Total GULP energy -892307.808017 kJ/mol
# GULP energy per Si atom -12393.164000 kJ/mol
# Density = 2.066972 g / cm^3
# Si number density = 20.716876 Si / 1000 Ang^3
#
#
#
# Elastic Constant Matrix: (Units=GPa)
#
#
# Indices 1 2 3 4 5 6 
#
# 1 165.7527 130.0738 101.9399 0.0000 0.0000 0.0000
# 2 130.0738 165.7527 101.9399 0.0000 0.0000 0.0000
# 3 101.9399 101.9399 215.6010 0.0000 0.0000 0.0000
# 4 0.0000 0.0000 0.0000 33.2328 0.0000 0.0000
# 5 0.0000 0.0000 0.0000 0.0000 33.2328 0.0000
# 6 0.0000 0.0000 0.0000 0.0000 0.0000 47.3500
#
#
#
# Elastic Compliance Matrix: (Units=1/GPa)
#
#
# Indices 1 2 3 4 5 6 
#
# 1 0.016521 -0.011507 -0.002371 0.000000 0.000000 0.000000
# 2 -0.011507 0.016521 -0.002371 0.000000 0.000000 0.000000
# 3 -0.002371 -0.002371 0.006880 0.000000 0.000000 0.000000
# 4 0.000000 0.000000 0.000000 0.030091 0.000000 0.000000
# 5 0.000000 0.000000 0.000000 0.000000 0.030091 0.000000
# 6 0.000000 0.000000 0.000000 0.000000 0.000000 0.021119
#
#
# Mechanical properties :
#
#
# Convention : Reuss Voigt Hill
#
# Bulk Modulus (GPa) = 134.67333 135.00152 134.83742
# Shear Modulus (GPa) = 32.01125 36.97330 34.49228
#
# Velocity S-wave (km/s) = 3.93514 4.22915 4.08479
# Velocity P-wave (km/s) = 9.26255 9.44214 9.35278
#
# Compressibility (1/GPa) = 0.00742538
#
# Stress axis : x y z
#
# Youngs Moduli (GPa) = 60.52890 60.52890 145.34537
#
# Poissons Ratio (x) = 0.69649 0.34459
# Poissons Ratio (y) = 0.69649 0.34459
# Poissons Ratio (z) = 0.14351 0.14351
#
# Static dielectric constant tensor:
#      x y z
#    x 3.770660 0.000000 0.000000 
#    y 0.000000 3.770660 0.000000 
#    z 0.000000 0.000000 4.179450 
# 
# 
# High freq. dielectric constant tensor:
#      x y z
#    x 1.806320 0.000000 0.000000 
#    y 0.000000 1.806320 0.000000 
#    z 0.000000 0.000000 1.858270 
# 
# From -- ./inp_files/1039.got.cif
#   From: 2010.03.12/outbox.cif.g09.slc.cpg/sg124_1_cif.got.tgz:1039.got - 2010.04.06 16:38:57.
