data_PCOD8313001
_publ_section_title
;
Structure prediction by ZEFSAII (Michael W. Deem and Ramdas Pophale) SiO2 
 PCOD8313001
Probable space group: P 4/M M M
;
_chemical_formula_sum "Si O2"
_cell_formula_units_Z 120
_cell_length_a 17.786918
_cell_length_b 17.786918
_cell_length_c 27.965290
_cell_angle_alpha 90.000000
_cell_angle_beta 90.000000
_cell_angle_gamma 90.000000
_cell_volume 8847.503297
_symmetry_space_group_name_H-M "P 4/M M M"
_symmetry_group_IT_number 123
_symmetry_cell_setting 'tetragonal'
loop_
_space_group_symop_operation_xyz
x,y,z
-y,x,z
-x,-y,z
y,-x,z
x,-y,-z
-x,y,-z
y,x,-z
-y,-x,-z
-x,-y,-z
y,-x,-z
x,y,-z
-y,x,-z
-x,y,z
x,-y,z
-y,-x,z
y,x,z
loop_
_atom_site_type_symbol
_atom_site_label
_atom_site_fract_x
_atom_site_fract_y
_atom_site_fract_z
Si Si1 0.089224 0.644704 0.109356
Si Si2 0.150603 0.730528 0.445848
Si Si3 0.086443 0.208472 0.944646
Si Si4 0.912541 0.584549 0.592645
Si Si5 0.500000 0.089725 0.946120
Si Si6 0.795546 0.914139 0.645495
Si Si7 0.912174 0.645881 0.307472
Si Si8 0.584588 0.910454 0.791086
O O1 0.118648 0.722810 0.087127
O O2 0.121908 0.574150 0.079829
O O3 0.115425 0.636642 0.164533
O O4 0.000000 0.643453 0.105251
O O5 0.123993 0.745276 0.500000
O O6 0.235845 0.764156 0.438570
O O7 0.143931 0.641212 0.434912
O O8 0.094706 0.774706 0.410444
O O9 0.134529 0.134529 0.932668
O O10 0.000000 0.189807 0.931942
O O11 0.094132 0.231933 0.000000
O O12 0.896263 0.500000 0.574637
O O13 0.896529 0.587552 0.649527
O O14 0.000000 0.606838 0.582716
O O15 0.500000 0.000000 0.944281
O O16 0.500000 0.119889 0.000000
O O17 0.869923 0.869923 0.659825
O O18 0.727436 0.880640 0.677325
O O19 0.811879 0.000000 0.656983
O O20 0.874900 0.617498 0.258048
O O21 0.000000 0.654351 0.298826
O O22 0.500000 0.880234 0.798783
O O23 0.582496 0.000000 0.787862
#
# Coordination Sequence:
#
# PCOD8313001 Si02
#       8
#    16  16  16  16   8  16  16  16
#     4   9  15  23  34  53  75  93 116 147 185 229
#     4   9  17  28  40  53  73 102 129 152 185 235
#     4   9  17  28  40  52  68  94 130 171 208 235
#     4   9  16  25  38  58  80  98 121 154 192 233
#     4   9  14  20  32  50  74  98 114 135 174 226
#     4   9  17  28  40  53  69  92 127 167 203 238
#     4   8  14  24  37  52  71  96 119 144 183 229
#     4   9  14  21  35  54  74  92 111 138 173 220
#
# _framework density 13.563148
#
# number of rings (size 3 to 8) (size 9 to 14) (size 15 to 20)
#    0.000    3.133    0.667    2.000    0.000    4.800 
#    0.000    2.000    0.000    0.000    0.000    1.867 
#    0.000    5.600    0.000    1.467    0.000    0.333 
#
# Total GULP energy -1486995.093090 kJ/mol
# GULP energy per Si atom -12391.625776 kJ/mol
# Density = 1.353228 g / cm^3
# Si number density = 13.563148 Si / 1000 Ang^3
#
#
#
# Elastic Constant Matrix: (Units=GPa)
#
#
# Indices 1 2 3 4 5 6 
#
# 1 63.0467 35.4516 26.7261 0.0000 0.0000 0.0000
# 2 35.4516 63.0467 26.7261 0.0000 0.0000 0.0000
# 3 26.7261 26.7261 82.2582 0.0000 0.0000 0.0000
# 4 0.0000 0.0000 0.0000 13.8792 0.0000 0.0000
# 5 0.0000 0.0000 0.0000 0.0000 13.8792 0.0000
# 6 0.0000 0.0000 0.0000 0.0000 0.0000 7.9751
#
#
#
# Elastic Compliance Matrix: (Units=1/GPa)
#
#
# Indices 1 2 3 4 5 6 
#
# 1 0.024282 -0.011956 -0.004005 0.000000 0.000000 0.000000
# 2 -0.011956 0.024282 -0.004005 0.000000 0.000000 0.000000
# 3 -0.004005 -0.004005 0.014759 0.000000 0.000000 0.000000
# 4 0.000000 0.000000 0.000000 0.072050 0.000000 0.000000
# 5 0.000000 0.000000 0.000000 0.000000 0.072050 0.000000
# 6 0.000000 0.000000 0.000000 0.000000 0.000000 0.125391
#
#
# Mechanical properties :
#
#
# Convention : Reuss Voigt Hill
#
# Bulk Modulus (GPa) = 42.75006 42.90659 42.82833
# Shear Modulus (GPa) = 13.13911 15.10987 14.12449
#
# Velocity S-wave (km/s) = 3.11583 3.34134 3.23055
# Velocity P-wave (km/s) = 6.67325 6.82565 6.74988
#
# Compressibility (1/GPa) = 0.02339178
#
# Stress axis : x y z
#
# Youngs Moduli (GPa) = 41.18273 41.18273 67.75462
#
# Poissons Ratio (x) = 0.49239 0.27134
# Poissons Ratio (y) = 0.49239 0.27134
# Poissons Ratio (z) = 0.16492 0.16492
#
# Static dielectric constant tensor:
#      x y z
#    x 2.526830 0.000000 0.000000 
#    y 0.000000 2.526830 0.000000 
#    z 0.000000 0.000000 2.908880 
# 
# 
# High freq. dielectric constant tensor:
#      x y z
#    x 1.481690 0.000000 0.000000 
#    y 0.000000 1.481690 0.000000 
#    z 0.000000 0.000000 1.525510 
# 
# From -- ./inp_files/8249.got.cif
#   From: 2010.03.12/outbox.cif.g09.slc.cpg/sg123_5_cif.got.tgz:8249.got - 2010.04.06 16:26:55.
