data_PCOD8313267
_publ_section_title
;
Structure prediction by ZEFSAII (Michael W. Deem and Ramdas Pophale) SiO2 
 PCOD8313267
Probable space group: P 4/M C C
;
_chemical_formula_sum "Si O2"
_cell_formula_units_Z 96
_cell_length_a 15.361026
_cell_length_b 15.361026
_cell_length_c 22.010034
_cell_angle_alpha 90.000000
_cell_angle_beta 90.000000
_cell_angle_gamma 90.000000
_cell_volume 5193.512269
_symmetry_space_group_name_H-M "P 4/M C C"
_symmetry_group_IT_number 124
_symmetry_cell_setting 'tetragonal'
loop_
_space_group_symop_operation_xyz
x,y,z
-y,x,z
-x,-y,z
y,-x,z
x,-y,1/2-z
-x,y,1/2-z
y,x,1/2-z
-y,-x,1/2-z
-x,-y,-z
y,-x,-z
x,y,-z
-y,x,-z
-x,y,1/2+z
x,-y,1/2+z
-y,-x,1/2+z
y,x,1/2+z
loop_
_atom_site_type_symbol
_atom_site_label
_atom_site_fract_x
_atom_site_fract_y
_atom_site_fract_z
Si Si1 0.318267 0.303215 0.000000
Si Si2 0.068173 0.115807 0.071058
Si Si3 0.351421 0.103697 0.310998
Si Si4 0.676941 0.910333 0.173376
Si Si5 0.787980 0.769448 0.113156
Si Si6 0.766640 0.487579 0.500000
Si Si7 0.095403 0.507145 0.103100
O O1 0.278157 0.259531 0.060394
O O2 0.300814 0.406971 0.000000
O O3 0.422135 0.286995 0.000000
O O4 0.119457 0.203733 0.085038
O O5 0.969772 0.118538 0.097502
O O6 0.061812 0.106079 0.000000
O O7 0.355991 0.120046 0.239376
O O8 0.308992 0.188976 0.341600
O O9 0.448575 0.094416 0.336373
O O10 0.299742 0.013272 0.325580
O O11 0.757399 0.851428 0.153015
O O12 0.605053 0.887551 0.123217
O O13 0.828504 0.477965 0.441804
O O14 0.000000 0.500000 0.071254
#
# Coordination Sequence:
#
# PCOD8313267 Si02
#       7
#     8  16  16  16  16   8  16
#     4  12  26  39  64  81 118 140 190 246 294 362
#     4   9  18  31  47  72 111 154 193 232 275 324
#     4  10  21  36  56  83 116 154 192 233 283 337
#     4  10  21  36  56  83 116 154 192 233 283 337
#     4  12  20  36  54  85 109 154 191 246 277 334
#     4  12  23  45  58  92 112 148 192 229 303 352
#     4  10  20  36  60  86 121 147 180 235 292 349
#
# _framework density 18.4846
#
# number of rings (size 3 to 8) (size 9 to 14) (size 15 to 20)
#    0.000    1.500    4.167    2.750    0.000    2.167 
#    0.000    0.000    0.000    0.000    0.000    7.000 
#    0.000    2.667    0.000    0.000    0.000    0.000 
#
# Total GULP energy -1189903.874813 kJ/mol
# GULP energy per Si atom -12394.832029 kJ/mol
# Density = 1.844253 g / cm^3
# Si number density = 18.484600 Si / 1000 Ang^3
#
#
#
# Elastic Constant Matrix: (Units=GPa)
#
#
# Indices 1 2 3 4 5 6 
#
# 1 73.1366 28.7095 23.5273 0.0000 0.0000 0.0000
# 2 28.7095 73.1366 23.5273 0.0000 0.0000 0.0000
# 3 23.5273 23.5273 80.5290 0.0000 0.0000 0.0000
# 4 0.0000 0.0000 0.0000 22.8182 0.0000 0.0000
# 5 0.0000 0.0000 0.0000 0.0000 22.8182 0.0000
# 6 0.0000 0.0000 0.0000 0.0000 0.0000 33.0991
#
#
#
# Elastic Compliance Matrix: (Units=1/GPa)
#
#
# Indices 1 2 3 4 5 6 
#
# 1 0.016930 -0.005579 -0.003316 0.000000 0.000000 0.000000
# 2 -0.005579 0.016930 -0.003316 0.000000 0.000000 0.000000
# 3 -0.003316 -0.003316 0.014356 0.000000 0.000000 0.000000
# 4 0.000000 0.000000 0.000000 0.043825 0.000000 0.000000
# 5 0.000000 0.000000 0.000000 0.000000 0.043825 0.000000
# 6 0.000000 0.000000 0.000000 0.000000 0.000000 0.030212
#
#
# Mechanical properties :
#
#
# Convention : Reuss Voigt Hill
#
# Bulk Modulus (GPa) = 42.03025 42.03668 42.03346
# Shear Modulus (GPa) = 25.19773 25.81633 25.50703
#
# Velocity S-wave (km/s) = 3.69612 3.74122 3.71874
# Velocity P-wave (km/s) = 6.40332 6.43841 6.42089
#
# Compressibility (1/GPa) = 0.02379239
#
# Stress axis : x y z
#
# Youngs Moduli (GPa) = 59.06725 59.06725 69.65904
#
# Poissons Ratio (x) = 0.32953 0.23101
# Poissons Ratio (y) = 0.32953 0.23101
# Poissons Ratio (z) = 0.19588 0.19588
#
# Static dielectric constant tensor:
#      x y z
#    x 3.329260 0.000000 0.000000 
#    y 0.000000 3.329260 0.000000 
#    z 0.000000 0.000000 3.267810 
# 
# 
# High freq. dielectric constant tensor:
#      x y z
#    x 1.710690 0.000000 0.000000 
#    y 0.000000 1.710690 0.000000 
#    z 0.000000 0.000000 1.713610 
# 
# From -- ./inp_files/6046.got.cif
#   From: 2010.03.12/outbox.cif.g09.slc.cpg/sg124_4_cif.got.tgz:6046.got - 2010.04.06 16:38:57.
