data_PCOD8313910
_publ_section_title
;
Structure prediction by ZEFSAII (Michael W. Deem and Ramdas Pophale) SiO2 
 PCOD8313910
Probable space group: P 4/M B M
;
_chemical_formula_sum "Si O2"
_cell_formula_units_Z 96
_cell_length_a 21.540553
_cell_length_b 21.540553
_cell_length_c 13.423349
_cell_angle_alpha 90.000000
_cell_angle_beta 90.000000
_cell_angle_gamma 90.000000
_cell_volume 6228.372505
_symmetry_space_group_name_H-M "P 4/M B M"
_symmetry_group_IT_number 127
_symmetry_cell_setting 'tetragonal'
loop_
_space_group_symop_operation_xyz
x,y,z
-y,x,z
-x,-y,z
y,-x,z
1/2+x,1/2-y,-z
1/2-x,1/2+y,-z
1/2+y,1/2+x,-z
1/2-y,1/2-x,-z
-x,-y,-z
y,-x,-z
x,y,-z
-y,x,-z
1/2-x,1/2+y,z
1/2+x,1/2-y,z
1/2-y,1/2-x,z
1/2+y,1/2+x,z
loop_
_atom_site_type_symbol
_atom_site_label
_atom_site_fract_x
_atom_site_fract_y
_atom_site_fract_z
Si Si1 0.645555 0.248198 0.887442
Si Si2 0.399029 0.002793 0.610134
Si Si3 0.575977 0.828119 0.115409
Si Si4 0.946544 0.656712 0.203762
Si Si5 0.697669 0.378574 0.881078
Si Si6 0.039486 0.911579 0.118448
O O1 0.704013 0.204013 0.893604
O O2 0.593827 0.219191 0.812906
O O3 0.670879 0.312803 0.842343
O O4 0.617670 0.256383 0.000000
O O5 0.368699 0.009677 0.500000
O O6 0.431590 0.068411 0.641876
O O7 0.451932 0.951932 0.605846
O O8 0.346289 0.979098 0.687152
O O9 0.614548 0.885453 0.162009
O O10 0.503100 0.840824 0.126929
O O11 0.602665 0.764507 0.164453
O O12 0.589856 0.822565 0.000000
O O13 0.904017 0.595984 0.182650
O O14 0.651902 0.432019 0.840491
O O15 0.699881 0.375890 0.000000
O O16 0.969220 0.918745 0.157337
O O17 0.040605 0.911891 0.000000
#
# Coordination Sequence:
#
# PCOD8313910 Si02
#       6
#    16  16  16  16  16  16
#     4   9  17  28  40  55  79 112 147 177 205 243
#     4   8  14  26  44  64  85 108 134 168 214 263
#     4  10  20  30  39  55  82 117 152 177 202 244
#     4  10  19  29  43  64  86 108 139 180 220 255
#     4   9  17  27  41  54  74 109 147 179 205 241
#     4   8  14  23  35  53  72  91 123 170 219 253
#
# _framework density 15.413337
#
# number of rings (size 3 to 8) (size 9 to 14) (size 15 to 20)
#    0.000    3.000    0.000    2.500    2.333    4.000 
#    0.000    0.833    0.000    0.000    0.000    1.167 
#    0.000    5.333    0.000    0.000    0.000    1.667 
#
# Total GULP energy -1189258.724180 kJ/mol
# GULP energy per Si atom -12388.111710 kJ/mol
# Density = 1.537826 g / cm^3
# Si number density = 15.413337 Si / 1000 Ang^3
#
#
#
# Elastic Constant Matrix: (Units=GPa)
#
#
# Indices 1 2 3 4 5 6 
#
# 1 82.9481 42.0632 12.7757 0.0000 0.0000 0.0000
# 2 42.0632 82.9481 12.7757 0.0000 0.0000 0.0000
# 3 12.7757 12.7757 35.8328 0.0000 0.0000 0.0000
# 4 0.0000 0.0000 0.0000 9.9552 0.0000 0.0000
# 5 0.0000 0.0000 0.0000 0.0000 9.9552 0.0000
# 6 0.0000 0.0000 0.0000 0.0000 0.0000 23.7795
#
#
#
# Elastic Compliance Matrix: (Units=1/GPa)
#
#
# Indices 1 2 3 4 5 6 
#
# 1 0.016543 -0.007915 -0.003076 0.000000 0.000000 0.000000
# 2 -0.007915 0.016543 -0.003076 0.000000 0.000000 0.000000
# 3 -0.003076 -0.003076 0.030101 0.000000 0.000000 0.000000
# 4 0.000000 0.000000 0.000000 0.100450 0.000000 0.000000
# 5 0.000000 0.000000 0.000000 0.000000 0.100450 0.000000
# 6 0.000000 0.000000 0.000000 0.000000 0.000000 0.042053
#
#
# Mechanical properties :
#
#
# Convention : Reuss Voigt Hill
#
# Bulk Modulus (GPa) = 28.52890 37.43981 32.98436
# Shear Modulus (GPa) = 14.45252 17.67894 16.06573
#
# Velocity S-wave (km/s) = 3.06545 3.39040 3.23201
# Velocity P-wave (km/s) = 5.57483 6.29839 5.94762
#
# Compressibility (1/GPa) = 0.03505217
#
# Stress axis : x y z
#
# Youngs Moduli (GPa) = 60.44684 60.44684 33.22152
#
# Poissons Ratio (x) = 0.47846 0.10220
# Poissons Ratio (y) = 0.47846 0.10220
# Poissons Ratio (z) = 0.18595 0.18595
#
# Static dielectric constant tensor:
#      x y z
#    x 3.108200 0.000000 0.000000 
#    y 0.000000 3.108200 0.000000 
#    z 0.000000 0.000000 2.635800 
# 
# 
# High freq. dielectric constant tensor:
#      x y z
#    x 1.594950 0.000000 0.000000 
#    y 0.000000 1.594950 0.000000 
#    z 0.000000 0.000000 1.516880 
# 
# From -- ./inp_files/3562.got.cif
#   From: 2010.03.12/outbox.cif.g09.slc.cpg/sg127_2_cif.got.tgz:3562.got - 2010.04.06 17:03:15.
