data_PCOD8313587
_publ_section_title
;
Structure prediction by ZEFSAII (Michael W. Deem and Ramdas Pophale) SiO2 
 PCOD8313587
Probable space group: P 4/N B M
;
_chemical_formula_sum "Si O2"
_cell_formula_units_Z 112
_cell_length_a 14.454840
_cell_length_b 14.454840
_cell_length_c 27.843165
_cell_angle_alpha 90.000000
_cell_angle_beta 90.000000
_cell_angle_gamma 90.000000
_cell_volume 5817.617703
_symmetry_space_group_name_H-M "P 4/N B M"
_symmetry_group_IT_number 125
_space_group.IT_coordinate_system_code '2'
_symmetry_cell_setting 'tetragonal'
loop_
_space_group_symop_operation_xyz
x,y,z
1/2-y,x,z
1/2-x,1/2-y,z
y,1/2-x,z
x,1/2-y,-z
1/2-x,y,-z
y,x,-z
1/2-y,1/2-x,-z
-x,-y,-z
1/2+y,-x,-z
1/2+x,1/2+y,-z
-y,1/2+x,-z
-x,1/2+y,z
1/2+x,-y,z
-y,-x,z
1/2+y,1/2+x,z
loop_
_atom_site_type_symbol
_atom_site_label
_atom_site_fract_x
_atom_site_fract_y
_atom_site_fract_z
Si Si1 0.604482 0.247020 0.630533
Si Si2 0.480942 0.665076 0.534900
Si Si3 0.025479 0.125323 0.683530
Si Si4 0.006037 0.147359 0.977655
Si Si5 0.186720 0.111073 0.114047
Si Si6 0.149590 0.136943 0.596914
Si Si7 0.320846 0.116238 0.778137
O O1 0.666991 0.333010 0.613709
O O2 0.667980 0.167980 0.655634
O O3 0.558215 0.206861 0.583664
O O4 0.527488 0.281384 0.667832
O O5 0.502025 0.750000 0.500000
O O6 0.408243 0.591758 0.512213
O O7 0.574698 0.609896 0.552452
O O8 0.114985 0.106588 0.649821
O O9 0.047397 0.136520 0.739446
O O10 0.964402 0.035599 0.676749
O O11 0.028959 0.155690 0.921182
O O12 0.993910 0.250000 0.000000
O O13 0.093761 0.093761 0.000000
O O14 0.911376 0.088625 0.984798
O O15 0.294935 0.129955 0.105066
O O16 0.164593 0.077135 0.168118
O O17 0.258268 0.120651 0.590901
O O18 0.372243 0.212472 0.769965
#
# Coordination Sequence:
#
# PCOD8313587 Si02
#       7
#    16  16  16  16  16  16  16
#     4   9  19  37  59  82 110 142 181 228 273 330
#     4  11  23  41  64  89 112 139 179 227 280 337
#     4  11  21  36  59  87 115 150 195 237 288 346
#     4  11  22  35  58  90 124 166 214 264 319 377
#     4   9  17  33  58  85 116 156 205 261 313 362
#     4  11  23  41  60  81 114 152 183 222 277 337
#     4   9  19  35  56  84 118 155 194 243 308 364
#
# _framework density 19.251864999999999
#
# number of rings (size 3 to 8) (size 9 to 14) (size 15 to 20)
#    0.000    1.857    2.857    2.571    0.000    3.286 
#    0.000    1.429    0.000    1.714    0.000    2.000 
#    0.000    0.000    0.000    0.000    0.000    0.000 
#
# Total GULP energy -1388082.991618 kJ/mol
# GULP energy per Si atom -12393.598139 kJ/mol
# Density = 1.920805 g / cm^3
# Si number density = 19.251865 Si / 1000 Ang^3
#
#
#
# Elastic Constant Matrix: (Units=GPa)
#
#
# Indices 1 2 3 4 5 6 
#
# 1 97.9853 41.9626 43.2135 0.0000 0.0000 0.0000
# 2 41.9626 97.9853 43.2135 0.0000 0.0000 0.0000
# 3 43.2135 43.2135 110.8732 0.0000 0.0000 0.0000
# 4 0.0000 0.0000 0.0000 21.6199 0.0000 0.0000
# 5 0.0000 0.0000 0.0000 0.0000 21.6199 0.0000
# 6 0.0000 0.0000 0.0000 0.0000 0.0000 21.0058
#
#
#
# Elastic Compliance Matrix: (Units=1/GPa)
#
#
# Indices 1 2 3 4 5 6 
#
# 1 0.013630 -0.004220 -0.003668 0.000000 0.000000 0.000000
# 2 -0.004220 0.013630 -0.003668 0.000000 0.000000 0.000000
# 3 -0.003668 -0.003668 0.011878 0.000000 0.000000 0.000000
# 4 0.000000 0.000000 0.000000 0.046254 0.000000 0.000000
# 5 0.000000 0.000000 0.000000 0.000000 0.046254 0.000000
# 6 0.000000 0.000000 0.000000 0.000000 0.000000 0.047606
#
#
# Mechanical properties :
#
#
# Convention : Reuss Voigt Hill
#
# Bulk Modulus (GPa) = 62.38956 62.62480 62.50718
# Shear Modulus (GPa) = 24.07253 24.74607 24.40930
#
# Velocity S-wave (km/s) = 3.53994 3.58912 3.56461
# Velocity P-wave (km/s) = 7.01324 7.05518 7.03424
#
# Compressibility (1/GPa) = 0.01602832
#
# Stress axis : x y z
#
# Youngs Moduli (GPa) = 73.36597 73.36597 84.18600
#
# Poissons Ratio (x) = 0.30958 0.30878
# Poissons Ratio (y) = 0.30958 0.30878
# Poissons Ratio (z) = 0.26910 0.26910
#
# Static dielectric constant tensor:
#      x y z
#    x 3.663420 0.000000 0.000000 
#    y 0.000000 3.663420 0.000000 
#    z 0.000000 0.000000 3.501710 
# 
# 
# High freq. dielectric constant tensor:
#      x y z
#    x 1.747620 0.000000 0.000000 
#    y 0.000000 1.747620 0.000000 
#    z 0.000000 0.000000 1.739410 
# 
# From -- ./inp_files/6231.got.cif
#   From: 2010.03.12/outbox.cif.g09.slc.cpg/sg125_4_cif.got.tgz:6231.got - 2010.04.06 16:47:52.
