data_PCOD8313679
_publ_section_title
;
Structure prediction by ZEFSAII (Michael W. Deem and Ramdas Pophale) SiO2 
 PCOD8313679
Probable space group: P 4/N N C
;
_chemical_formula_sum "Si O2"
_cell_formula_units_Z 96
_cell_length_a 19.658470
_cell_length_b 19.658470
_cell_length_c 13.275437
_cell_angle_alpha 90.000000
_cell_angle_beta 90.000000
_cell_angle_gamma 90.000000
_cell_volume 5130.364883
_symmetry_space_group_name_H-M "P 4/N N C"
_symmetry_group_IT_number 126
_space_group.IT_coordinate_system_code '2'
_symmetry_cell_setting 'tetragonal'
loop_
_space_group_symop_operation_xyz
x,y,z
1/2-y,x,z
1/2-x,1/2-y,z
y,1/2-x,z
x,1/2-y,1/2-z
1/2-x,y,1/2-z
y,x,1/2-z
1/2-y,1/2-x,1/2-z
-x,-y,-z
1/2+y,-x,-z
1/2+x,1/2+y,-z
-y,1/2+x,-z
-x,1/2+y,1/2+z
1/2+x,-y,1/2+z
-y,-x,1/2+z
1/2+y,1/2+x,1/2+z
loop_
_atom_site_type_symbol
_atom_site_label
_atom_site_fract_x
_atom_site_fract_y
_atom_site_fract_z
Si Si1 0.295568 0.661961 0.537570
Si Si2 0.089138 0.657502 0.815943
Si Si3 0.400182 0.445936 0.455771
Si Si4 0.705687 0.046813 0.892941
Si Si5 0.174955 0.331637 0.367138
Si Si6 0.963928 0.491917 0.145212
O O1 0.215061 0.675248 0.546838
O O2 0.334089 0.670990 0.643925
O O3 0.309125 0.587373 0.495177
O O4 0.039391 0.713765 0.868666
O O5 0.087069 0.667828 0.697060
O O6 0.068061 0.582408 0.846901
O O7 0.328441 0.474662 0.413782
O O8 0.387804 0.366014 0.434188
O O9 0.459433 0.481952 0.392565
O O10 0.417416 0.460942 0.572556
O O11 0.155666 0.253767 0.392780
O O12 0.156803 0.343198 0.250000
O O13 0.967456 0.532545 0.250000
#
# Coordination Sequence:
#
# PCOD8313679 Si02
#       6
#    16  16  16  16  16  16
#     4   9  18  34  52  71 101 140 182 224 266 315
#     4  10  20  33  52  76 107 140 180 232 265 327
#     4  11  22  34  56  82 107 152 181 223 283 340
#     4  10  20  32  52  81 105 139 184 219 279 324
#     4   9  20  37  60  91 119 140 176 233 292 346
#     4  11  22  37  53  77 116 149 185 228 273 332
#
# _framework density 18.712119000000001
#
# number of rings (size 3 to 8) (size 9 to 14) (size 15 to 20)
#    0.000    2.000    3.333    1.000    2.333    2.000 
#    0.000    3.333    0.000    1.000    0.000    1.167 
#    0.000    0.000    0.000    0.000    0.000    0.000 
#
# Total GULP energy -1189702.020354 kJ/mol
# GULP energy per Si atom -12392.729379 kJ/mol
# Density = 1.866953 g / cm^3
# Si number density = 18.712119 Si / 1000 Ang^3
#
#
#
# Elastic Constant Matrix: (Units=GPa)
#
#
# Indices 1 2 3 4 5 6 
#
# 1 73.1646 33.0242 31.2833 0.0000 0.0000 0.0000
# 2 33.0242 73.1639 31.2834 0.0000 0.0000 0.0000
# 3 31.2833 31.2834 88.8225 0.0000 0.0000 0.0000
# 4 0.0000 0.0000 0.0000 26.4452 0.0000 0.0000
# 5 0.0000 0.0000 0.0000 0.0000 26.4454 0.0000
# 6 0.0000 0.0000 0.0000 0.0000 0.0000 28.8685
#
#
#
# Elastic Compliance Matrix: (Units=1/GPa)
#
#
# Indices 1 2 3 4 5 6 
#
# 1 0.018398 -0.006515 -0.004185 0.000000 0.000000 0.000000
# 2 -0.006515 0.018398 -0.004185 0.000000 0.000000 0.000000
# 3 -0.004185 -0.004185 0.014207 0.000000 0.000000 0.000000
# 4 0.000000 0.000000 0.000000 0.037814 0.000000 0.000000
# 5 0.000000 0.000000 0.000000 0.000000 0.037814 0.000000
# 6 0.000000 0.000000 0.000000 0.000000 0.000000 0.034640
#
#
# Mechanical properties :
#
#
# Convention : Reuss Voigt Hill
#
# Bulk Modulus (GPa) = 47.09908 47.37031 47.23470
# Shear Modulus (GPa) = 25.23748 25.65583 25.44666
#
# Velocity S-wave (km/s) = 3.67648 3.70683 3.69169
# Velocity P-wave (km/s) = 6.57625 6.60992 6.59310
#
# Compressibility (1/GPa) = 0.02123184
#
# Stress axis : x y z
#
# Youngs Moduli (GPa) = 54.35407 54.35342 70.39022
#
# Poissons Ratio (x) = 0.35410 0.29460
# Poissons Ratio (y) = 0.35410 0.29461
# Poissons Ratio (z) = 0.22748 0.22749
#
# Static dielectric constant tensor:
#      x y z
#    x 3.417070 0.000000 0.000000 
#    y 0.000000 3.417070 0.000000 
#    z 0.000000 0.000000 3.266600 
# 
# 
# High freq. dielectric constant tensor:
#      x y z
#    x 1.725470 0.000000 0.000000 
#    y 0.000000 1.725470 0.000000 
#    z 0.000000 0.000000 1.700820 
# 
# From -- ./inp_files/2904.got.cif
#   From: 2010.03.12/outbox.cif.g09.slc.cpg/sg126_2_cif.got.tgz:2904.got - 2010.04.06 16:55:23.
