data_PCOD8313952
_publ_section_title
;
Structure prediction by ZEFSAII (Michael W. Deem and Ramdas Pophale) SiO2 
 PCOD8313952
Probable space group: P 4/M B M
;
_chemical_formula_sum "Si O2"
_cell_formula_units_Z 112
_cell_length_a 14.177543
_cell_length_b 14.177543
_cell_length_c 29.529420
_cell_angle_alpha 90.000000
_cell_angle_beta 90.000000
_cell_angle_gamma 90.000000
_cell_volume 5935.493903
_symmetry_space_group_name_H-M "P 4/M B M"
_symmetry_group_IT_number 127
_symmetry_cell_setting 'tetragonal'
loop_
_space_group_symop_operation_xyz
x,y,z
-y,x,z
-x,-y,z
y,-x,z
1/2+x,1/2-y,-z
1/2-x,1/2+y,-z
1/2+y,1/2+x,-z
1/2-y,1/2-x,-z
-x,-y,-z
y,-x,-z
x,y,-z
-y,x,-z
1/2-x,1/2+y,z
1/2+x,1/2-y,z
1/2-y,1/2-x,z
1/2+y,1/2+x,z
loop_
_atom_site_type_symbol
_atom_site_label
_atom_site_fract_x
_atom_site_fract_y
_atom_site_fract_z
Si Si1 0.605083 0.386026 0.549270
Si Si2 0.001985 0.648828 0.674351
Si Si3 0.711067 0.637096 0.360117
Si Si4 0.403516 0.749870 0.052832
Si Si5 0.762456 0.890875 0.093267
Si Si6 0.869732 0.217712 0.275320
Si Si7 0.866993 0.922813 0.180943
O O1 0.630547 0.494552 0.553140
O O2 0.640206 0.347430 0.500000
O O3 0.653326 0.335332 0.591255
O O4 0.083489 0.583489 0.650642
O O5 0.047962 0.705727 0.715612
O O6 0.918635 0.581366 0.693505
O O7 0.957833 0.724845 0.639390
O O8 0.771551 0.728450 0.351637
O O9 0.637976 0.643135 0.317765
O O10 0.339476 0.839476 0.067357
O O11 0.347389 0.653558 0.063833
O O12 0.501359 0.754410 0.079569
O O13 0.426384 0.752176 0.000000
O O14 0.665787 0.834214 0.085076
O O15 0.789971 0.882581 0.146154
O O16 0.770961 0.270961 0.266038
O O17 0.899955 0.159716 0.232085
O O18 0.966208 0.873101 0.171951
#
# Coordination Sequence:
#
# PCOD8313952 Si02
#       7
#    16  16  16  16  16  16  16
#     4   9  18  32  49  69  96 131 169 212 266 325
#     4   9  18  33  51  72 102 138 174 215 266 324
#     4  10  19  31  51  77 103 132 172 222 269 320
#     4  10  22  40  64  94 122 154 200 246 292 348
#     4  11  22  40  62  87 122 160 196 242 295 347
#     4  10  20  34  53  79 106 139 183 227 274 328
#     4  11  22  37  56  80 112 149 191 236 286 343
#
# _framework density 18.869533000000001
#
# number of rings (size 3 to 8) (size 9 to 14) (size 15 to 20)
#    0.000    2.000    1.429    3.000    0.000    1.714 
#    0.000    4.286    0.000    3.000    0.000    2.000 
#    0.000    0.000    0.000    0.000    0.000    0.000 
#
# Total GULP energy -1388184.420293 kJ/mol
# GULP energy per Si atom -12394.503753 kJ/mol
# Density = 1.882659 g / cm^3
# Si number density = 18.869533 Si / 1000 Ang^3
#
#
#
# Elastic Constant Matrix: (Units=GPa)
#
#
# Indices 1 2 3 4 5 6 
#
# 1 41.3847 74.1420 32.1423 0.0000 0.0000 0.0000
# 2 74.1420 41.3847 32.1423 0.0000 0.0000 0.0000
# 3 32.1423 32.1423 114.3948 0.0000 0.0000 0.0000
# 4 0.0000 0.0000 0.0000 29.9114 0.0000 0.0000
# 5 0.0000 0.0000 0.0000 0.0000 29.9114 0.0000
# 6 0.0000 0.0000 0.0000 0.0000 0.0000 121.7823
#
#
#
# Elastic Compliance Matrix: (Units=1/GPa)
#
#
# Indices 1 2 3 4 5 6 
#
# 1 -0.010134 0.020394 -0.002883 0.000000 0.000000 0.000000
# 2 0.020394 -0.010134 -0.002883 0.000000 0.000000 0.000000
# 3 -0.002883 -0.002883 0.010362 0.000000 0.000000 0.000000
# 4 0.000000 0.000000 0.000000 0.033432 0.000000 0.000000
# 5 0.000000 0.000000 0.000000 0.000000 0.033432 0.000000
# 6 0.000000 0.000000 0.000000 0.000000 0.000000 0.008211
#
#
# Mechanical properties :
#
#
# Convention : Reuss Voigt Hill
#
# Bulk Modulus (GPa) = 51.67810 52.66861 52.17335
# Shear Modulus (GPa) = 118.02590 40.23689 79.13139
#
# Velocity S-wave (km/s) = 7.91733 4.62277 6.48283
# Velocity P-wave (km/s) = 10.53686 7.51438 9.15127
#
# Compressibility (1/GPa) = 0.01935056
#
# Stress axis : x y z
#
# Youngs Moduli (GPa) = -98.68040 -98.68040 96.50931
#
# Poissons Ratio (x) = 2.01248 0.27822
# Poissons Ratio (y) = 2.01248 0.27822
# Poissons Ratio (z) = -0.28448 -0.28448
#
# Static dielectric constant tensor:
#      x y z
#    x 3.519720 0.000000 0.000000 
#    y 0.000000 3.519720 0.000000 
#    z 0.000000 0.000000 3.412980 
# 
# 
# High freq. dielectric constant tensor:
#      x y z
#    x 1.733600 0.000000 0.000000 
#    y 0.000000 1.733600 0.000000 
#    z 0.000000 0.000000 1.724640 
# 
# From -- ./inp_files/6182.got.cif
#   From: 2010.03.12/outbox.cif.g09.slc.cpg/sg127_4_cif.got.tgz:6182.got - 2010.04.06 17:03:15.
