data_PCOD8313386
_publ_section_title
;
Structure prediction by ZEFSAII (Michael W. Deem and Ramdas Pophale) SiO2 
 PCOD8313386
Probable space group: P 4/M C C
;
_chemical_formula_sum "Si O2"
_cell_formula_units_Z 80
_cell_length_a 11.138109
_cell_length_b 11.138109
_cell_length_c 30.336120
_cell_angle_alpha 90.000000
_cell_angle_beta 90.000000
_cell_angle_gamma 90.000000
_cell_volume 3763.422360
_symmetry_space_group_name_H-M "P 4/M C C"
_symmetry_group_IT_number 124
_symmetry_cell_setting 'tetragonal'
loop_
_space_group_symop_operation_xyz
x,y,z
-y,x,z
-x,-y,z
y,-x,z
x,-y,1/2-z
-x,y,1/2-z
y,x,1/2-z
-y,-x,1/2-z
-x,-y,-z
y,-x,-z
x,y,-z
-y,x,-z
-x,y,1/2+z
x,-y,1/2+z
-y,-x,1/2+z
y,x,1/2+z
loop_
_atom_site_type_symbol
_atom_site_label
_atom_site_fract_x
_atom_site_fract_y
_atom_site_fract_z
Si Si1 0.931949 0.181953 0.312884
Si Si2 0.486433 0.302823 0.624836
Si Si3 0.181166 0.066497 0.583496
Si Si4 0.872918 0.444020 0.295493
Si Si5 0.877886 0.563670 0.050407
O O1 0.923813 0.207756 0.364771
O O2 0.886547 0.300845 0.288358
O O3 0.069505 0.152053 0.299431
O O4 0.610637 0.372785 0.626237
O O5 0.479632 0.218983 0.667006
O O6 0.487671 0.228925 0.579755
O O7 0.293826 0.110405 0.555806
O O8 0.070293 0.151611 0.570683
O O9 0.824905 0.500000 0.250000
O O10 0.000000 0.500000 0.309025
O O11 0.000000 0.500000 0.065763
O O12 0.847258 0.532830 0.000000
#
# Coordination Sequence:
#
# PCOD8313386 Si02
#       5
#    16  16  16  16  16
#     4   9  19  38  69 102 135 177 219 268 336 405
#     4  11  27  48  71  94 128 183 228 276 331 383
#     4   9  19  36  64 101 136 174 214 263 331 396
#     4  11  25  43  68 103 133 174 221 270 337 398
#     4  11  25  41  66  99 132 174 223 275 336 395
#
# _framework density 21.257247
#
# number of rings (size 3 to 8) (size 9 to 14) (size 15 to 20)
#    0.000    1.800    2.000    1.800    5.600    2.400 
#    3.600    3.000    0.000    4.800    0.000    0.000 
#    0.000    0.000    0.000    0.000    0.000    0.000 
#
# Total GULP energy -992417.023279 kJ/mol
# GULP energy per Si atom -12405.212791 kJ/mol
# Density = 2.120886 g / cm^3
# Si number density = 21.257247 Si / 1000 Ang^3
#
#
#
# Elastic Constant Matrix: (Units=GPa)
#
#
# Indices 1 2 3 4 5 6 
#
# 1 101.6303 24.1721 63.5549 0.0000 0.0000 0.0000
# 2 24.1721 101.6303 63.5549 0.0000 0.0000 0.0000
# 3 63.5549 63.5549 109.6468 0.0000 0.0000 0.0000
# 4 0.0000 0.0000 0.0000 17.2106 0.0000 0.0000
# 5 0.0000 0.0000 0.0000 0.0000 17.2106 0.0000
# 6 0.0000 0.0000 0.0000 0.0000 0.0000 1.7027
#
#
#
# Elastic Compliance Matrix: (Units=1/GPa)
#
#
# Indices 1 2 3 4 5 6 
#
# 1 0.016047 0.003137 -0.011120 0.000000 0.000000 0.000000
# 2 0.003137 0.016047 -0.011120 0.000000 0.000000 0.000000
# 3 -0.011120 -0.011120 0.022011 0.000000 0.000000 0.000000
# 4 0.000000 0.000000 0.000000 0.058104 0.000000 0.000000
# 5 0.000000 0.000000 0.000000 0.000000 0.058104 0.000000
# 6 0.000000 0.000000 0.000000 0.000000 0.000000 0.587318
#
#
# Mechanical properties :
#
#
# Convention : Reuss Voigt Hill
#
# Bulk Modulus (GPa) = 62.89180 68.38570 65.63875
# Shear Modulus (GPa) = 6.24113 17.99980 12.12047
#
# Velocity S-wave (km/s) = 1.71534 2.91307 2.39044
# Velocity P-wave (km/s) = 5.79426 6.59962 6.21001
#
# Compressibility (1/GPa) = 0.01590032
#
# Stress axis : x y z
#
# Youngs Moduli (GPa) = 62.31554 62.31554 45.43141
#
# Poissons Ratio (x) = -0.19549 0.50520
# Poissons Ratio (y) = -0.19549 0.50520
# Poissons Ratio (z) = 0.69295 0.69295
#
# Static dielectric constant tensor:
#      x y z
#    x 3.984170 0.000000 0.000000 
#    y 0.000000 3.984170 0.000000 
#    z 0.000000 0.000000 3.728590 
# 
# 
# High freq. dielectric constant tensor:
#      x y z
#    x 1.839420 0.000000 0.000000 
#    y 0.000000 1.839420 0.000000 
#    z 0.000000 0.000000 1.834320 
# 
# From -- ./inp_files/6918.got.cif
#   From: 2010.03.12/outbox.cif.g09.slc.cpg/sg124_4_cif.got.tgz:6918.got - 2010.04.06 16:38:57.
