data_PCOD8313568
_publ_section_title
;
Structure prediction by ZEFSAII (Michael W. Deem and Ramdas Pophale) SiO2 
 PCOD8313568
Probable space group: P 4/N B M
;
_chemical_formula_sum "Si O2"
_cell_formula_units_Z 42
_cell_length_a 12.063752
_cell_length_b 12.063752
_cell_length_c 15.158883
_cell_angle_alpha 90.000000
_cell_angle_beta 90.000000
_cell_angle_gamma 90.000000
_cell_volume 2206.134581
_symmetry_space_group_name_H-M "P 4/N B M"
_symmetry_group_IT_number 125
_space_group.IT_coordinate_system_code '2'
_symmetry_cell_setting 'tetragonal'
loop_
_space_group_symop_operation_xyz
x,y,z
1/2-y,x,z
1/2-x,1/2-y,z
y,1/2-x,z
x,1/2-y,-z
1/2-x,y,-z
y,x,-z
1/2-y,1/2-x,-z
-x,-y,-z
1/2+y,-x,-z
1/2+x,1/2+y,-z
-y,1/2+x,-z
-x,1/2+y,z
1/2+x,-y,z
-y,-x,z
1/2+y,1/2+x,z
loop_
_atom_site_type_symbol
_atom_site_label
_atom_site_fract_x
_atom_site_fract_y
_atom_site_fract_z
Si Si1 0.837549 0.337549 0.831313
Si Si2 0.215553 0.075670 0.754946
Si Si3 0.250000 0.750000 0.000000
Si Si4 0.660714 0.518479 0.438396
O O1 0.750000 0.250000 0.787132
O O2 0.806716 0.461147 0.803800
O O3 0.827507 0.327507 0.937835
O O4 0.336492 0.120841 0.782868
O O5 0.218149 0.062105 0.649736
O O6 0.750000 0.454409 0.500000
O O7 0.618678 0.618678 0.500000
O O8 0.562171 0.437830 0.409503
#
# Coordination Sequence:
#
# PCOD8313568 Si02
#       4
#     8  16   2  16
#     4  10  24  45  73  94 127 165 213 269 345 421
#     4  11  23  39  65  99 135 176 223 274 325 387
#     4   8  24  52  72 100 118 176 196 260 384 412
#     4  11  22  35  54  83 129 181 225 260 307 361
#
# _framework density 19.037822999999999
#
# number of rings (size 3 to 8) (size 9 to 14) (size 15 to 20)
#    0.571    0.762    5.714    0.000    2.667    2.286 
#    0.000    3.810    0.000    2.286    0.000    0.000 
#    0.000    0.000    0.000    0.000    0.000    0.000 
#
# Total GULP energy -520642.880042 kJ/mol
# GULP energy per Si atom -12396.259049 kJ/mol
# Density = 1.899449 g / cm^3
# Si number density = 19.037823 Si / 1000 Ang^3
#
#
#
# Elastic Constant Matrix: (Units=GPa)
#
#
# Indices 1 2 3 4 5 6 
#
# 1 138.3583 69.4098 55.4249 0.0000 0.0000 0.0000
# 2 69.4098 138.3583 55.4249 0.0000 0.0000 0.0000
# 3 55.4249 55.4249 107.5990 0.0000 0.0000 0.0000
# 4 0.0000 0.0000 0.0000 22.5177 0.0000 0.0000
# 5 0.0000 0.0000 0.0000 0.0000 22.5177 0.0000
# 6 0.0000 0.0000 0.0000 0.0000 0.0000 20.6617
#
#
#
# Elastic Compliance Matrix: (Units=1/GPa)
#
#
# Indices 1 2 3 4 5 6 
#
# 1 0.010570 -0.003933 -0.003419 0.000000 0.000000 0.000000
# 2 -0.003933 0.010570 -0.003419 0.000000 0.000000 0.000000
# 3 -0.003419 -0.003419 0.012816 0.000000 0.000000 0.000000
# 4 0.000000 0.000000 0.000000 0.044410 0.000000 0.000000
# 5 0.000000 0.000000 0.000000 0.000000 0.044410 0.000000
# 6 0.000000 0.000000 0.000000 0.000000 0.000000 0.048399
#
#
# Mechanical properties :
#
#
# Convention : Reuss Voigt Hill
#
# Bulk Modulus (GPa) = 80.54892 82.75942 81.65417
# Shear Modulus (GPa) = 25.39948 26.74313 26.07130
#
# Velocity S-wave (km/s) = 3.65658 3.75205 3.70462
# Velocity P-wave (km/s) = 7.76075 7.89531 7.82832
#
# Compressibility (1/GPa) = 0.01241482
#
# Stress axis : x y z
#
# Youngs Moduli (GPa) = 94.60438 94.60438 78.02838
#
# Poissons Ratio (x) = 0.37210 0.26676
# Poissons Ratio (y) = 0.37210 0.26676
# Poissons Ratio (z) = 0.32343 0.32343
#
# Static dielectric constant tensor:
#      x y z
#    x 3.466580 0.000000 0.000000 
#    y 0.000000 3.466580 0.000000 
#    z 0.000000 0.000000 3.231370 
# 
# 
# High freq. dielectric constant tensor:
#      x y z
#    x 1.745320 0.000000 0.000000 
#    y 0.000000 1.745320 0.000000 
#    z 0.000000 0.000000 1.714990 
# 
# From -- ./inp_files/5178.got.cif
#   From: 2010.03.12/outbox.cif.g09.slc.cpg/sg125_3_cif.got.tgz:5178.got - 2010.04.06 16:47:52.
