data_PCOD8313240
_publ_section_title
;
Structure prediction by ZEFSAII (Michael W. Deem and Ramdas Pophale) SiO2 
 PCOD8313240
Probable space group: P 4/M C C
;
_chemical_formula_sum "Si O2"
_cell_formula_units_Z 80
_cell_length_a 21.483172
_cell_length_b 21.483172
_cell_length_c 9.837179
_cell_angle_alpha 90.000000
_cell_angle_beta 90.000000
_cell_angle_gamma 90.000000
_cell_volume 4540.120556
_symmetry_space_group_name_H-M "P 4/M C C"
_symmetry_group_IT_number 124
_symmetry_cell_setting 'tetragonal'
loop_
_space_group_symop_operation_xyz
x,y,z
-y,x,z
-x,-y,z
y,-x,z
x,-y,1/2-z
-x,y,1/2-z
y,x,1/2-z
-y,-x,1/2-z
-x,-y,-z
y,-x,-z
x,y,-z
-y,x,-z
-x,y,1/2+z
x,-y,1/2+z
-y,-x,1/2+z
y,x,1/2+z
loop_
_atom_site_type_symbol
_atom_site_label
_atom_site_fract_x
_atom_site_fract_y
_atom_site_fract_z
Si Si1 0.383640 0.054566 0.842976
Si Si2 0.254897 0.892778 0.735507
Si Si3 0.934131 0.182401 0.500000
Si Si4 0.555063 0.815803 0.846770
Si Si5 0.765116 0.687345 0.659230
Si Si6 0.080214 0.164901 0.500000
O O1 0.310677 0.062601 0.811955
O O2 0.422193 0.115703 0.804851
O O3 0.411457 0.000000 0.750000
O O4 0.391746 0.036544 0.000000
O O5 0.227275 0.915873 0.876662
O O6 0.280001 0.822442 0.737054
O O7 0.198807 0.895323 0.632060
O O8 0.901423 0.114943 0.500000
O O9 0.005812 0.161678 0.500000
O O10 0.500000 0.792817 0.750000
O O11 0.612907 0.769119 0.833107
O O12 0.529417 0.815850 0.000000
O O13 0.705317 0.705317 0.750000
O O14 0.761797 0.708169 0.500000
#
# Coordination Sequence:
#
# PCOD8313240 Si02
#       6
#    16  16   8  16  16   8
#     4  10  20  35  54  76 105 135 174 223 261 311
#     4  11  22  37  54  78 102 126 164 216 277 324
#     4  12  26  35  58  70  95 129 163 211 276 338
#     4   9  20  37  52  75 113 150 180 219 261 307
#     4  10  20  36  58  84 113 138 176 226 265 308
#     4  12  22  41  52  74  95 123 163 215 266 340
#
# _framework density 17.620677000000001
#
# number of rings (size 3 to 8) (size 9 to 14) (size 15 to 20)
#    0.000    1.600    2.000    4.800    2.800    2.200 
#    3.600    2.000    0.000    2.400    0.000    0.000 
#    0.000    0.400    0.000    4.400    0.000    3.200 
#
# Total GULP energy -991888.753580 kJ/mol
# GULP energy per Si atom -12398.609420 kJ/mol
# Density = 1.758057 g / cm^3
# Si number density = 17.620677 Si / 1000 Ang^3
#
#
#
# Elastic Constant Matrix: (Units=GPa)
#
#
# Indices 1 2 3 4 5 6 
#
# 1 68.7286 26.9738 34.2501 0.0000 0.0000 0.0000
# 2 26.9738 68.7286 34.2501 0.0000 0.0000 0.0000
# 3 34.2501 34.2501 97.7044 0.0000 0.0000 0.0000
# 4 0.0000 0.0000 0.0000 28.2913 0.0000 0.0000
# 5 0.0000 0.0000 0.0000 0.0000 28.2913 0.0000
# 6 0.0000 0.0000 0.0000 0.0000 0.0000 10.4681
#
#
#
# Elastic Compliance Matrix: (Units=1/GPa)
#
#
# Indices 1 2 3 4 5 6 
#
# 1 0.018949 -0.005000 -0.004890 0.000000 0.000000 0.000000
# 2 -0.005000 0.018949 -0.004890 0.000000 0.000000 0.000000
# 3 -0.004890 -0.004890 0.013663 0.000000 0.000000 0.000000
# 4 0.000000 0.000000 0.000000 0.035347 0.000000 0.000000
# 5 0.000000 0.000000 0.000000 0.000000 0.035347 0.000000
# 6 0.000000 0.000000 0.000000 0.000000 0.000000 0.095529
#
#
# Mechanical properties :
#
#
# Convention : Reuss Voigt Hill
#
# Bulk Modulus (GPa) = 45.45044 47.34550 46.39797
# Shear Modulus (GPa) = 19.63272 22.72262 21.17767
#
# Velocity S-wave (km/s) = 3.34156 3.59492 3.47055
# Velocity P-wave (km/s) = 6.38262 6.64521 6.51524
#
# Compressibility (1/GPa) = 0.02200199
#
# Stress axis : x y z
#
# Youngs Moduli (GPa) = 52.77274 52.77274 73.18938
#
# Poissons Ratio (x) = 0.26387 0.35788
# Poissons Ratio (y) = 0.26387 0.35788
# Poissons Ratio (z) = 0.25805 0.25805
#
# Static dielectric constant tensor:
#      x y z
#    x 3.152000 0.000000 0.000000 
#    y 0.000000 3.152000 0.000000 
#    z 0.000000 0.000000 3.300340 
# 
# 
# High freq. dielectric constant tensor:
#      x y z
#    x 1.662510 0.000000 0.000000 
#    y 0.000000 1.662510 0.000000 
#    z 0.000000 0.000000 1.695890 
# 
# From -- ./inp_files/1257.got.cif
#   From: 2010.03.12/outbox.cif.g09.slc.cpg/sg124_1_cif.got.tgz:1257.got - 2010.04.06 16:38:57.
