data_PCOD8313210
_publ_section_title
;
Structure prediction by ZEFSAII (Michael W. Deem and Ramdas Pophale) SiO2 
 PCOD8313210
Probable space group: P 4/M C C
;
_chemical_formula_sum "Si O2"
_cell_formula_units_Z 96
_cell_length_a 28.956248
_cell_length_b 28.956248
_cell_length_c 8.933345
_cell_angle_alpha 90.000000
_cell_angle_beta 90.000000
_cell_angle_gamma 90.000000
_cell_volume 7490.290846
_symmetry_space_group_name_H-M "P 4/M C C"
_symmetry_group_IT_number 124
_symmetry_cell_setting 'tetragonal'
loop_
_space_group_symop_operation_xyz
x,y,z
-y,x,z
-x,-y,z
y,-x,z
x,-y,1/2-z
-x,y,1/2-z
y,x,1/2-z
-y,-x,1/2-z
-x,-y,-z
y,-x,-z
x,y,-z
-y,x,-z
-x,y,1/2+z
x,-y,1/2+z
-y,-x,1/2+z
y,x,1/2+z
loop_
_atom_site_type_symbol
_atom_site_label
_atom_site_fract_x
_atom_site_fract_y
_atom_site_fract_z
Si Si1 0.307070 0.886147 0.668227
Si Si2 0.382429 0.806489 0.664705
Si Si3 0.255736 0.319420 0.166262
Si Si4 0.757914 0.177224 0.830477
Si Si5 0.623545 0.050072 0.820732
Si Si6 0.882786 0.450004 0.820753
O O1 0.296880 0.904362 0.500000
O O2 0.342347 0.844162 0.660169
O O3 0.259727 0.868307 0.743773
O O4 0.328373 0.926700 0.769508
O O5 0.390355 0.785891 0.500000
O O6 0.367587 0.763575 0.767630
O O7 0.428690 0.832465 0.721009
O O8 0.301253 0.301253 0.250000
O O9 0.216140 0.281184 0.172427
O O10 0.271720 0.330359 0.000000
O O11 0.803844 0.196157 0.750000
O O12 0.770310 0.163624 0.000000
O O13 0.580027 0.077479 0.755490
O O14 0.621224 0.000000 0.750000
O O15 0.621121 0.048434 0.000000
O O16 0.885551 0.500000 0.750000
O O17 0.890135 0.450536 0.000000
#
# Coordination Sequence:
#
# PCOD8313210 Si02
#       6
#    16  16  16  16  16  16
#     4   9  16  27  40  54  71  90 111 137 169 207
#     4   8  15  26  38  51  69  88 107 132 164 201
#     4   9  15  21  32  49  69  90 111 131 155 189
#     4   9  15  22  33  51  72  94 115 135 160 194
#     4  11  21  33  46  58  71  88 112 144 183 226
#     4  10  20  33  46  59  72  88 111 143 182 223
#
# _framework density 12.816592
#
# number of rings (size 3 to 8) (size 9 to 14) (size 15 to 20)
#    0.000    2.667    0.000    4.500    0.000    9.000 
#    0.000    1.667    0.000    0.000    0.000    0.000 
#    0.000    0.000    0.000    0.000    0.000    0.000 
#
# Total GULP energy -1189862.073971 kJ/mol
# GULP energy per Si atom -12394.396604 kJ/mol
# Density = 1.278742 g / cm^3
# Si number density = 12.816592 Si / 1000 Ang^3
#
#
#
# Elastic Constant Matrix: (Units=GPa)
#
#
# Indices 1 2 3 4 5 6 
#
# 1 52.0291 53.5212 47.6877 0.0000 0.0000 0.0000
# 2 53.5212 52.0297 47.6879 0.0000 0.0000 0.0000
# 3 47.6877 47.6879 122.5252 0.0000 0.0000 0.0000
# 4 0.0000 0.0000 0.0000 18.3034 0.0000 0.0000
# 5 0.0000 0.0000 0.0000 0.0000 18.3032 0.0000
# 6 0.0000 0.0000 0.0000 0.0000 0.0000 14.8351
#
#
#
# Elastic Compliance Matrix: (Units=1/GPa)
#
#
# Indices 1 2 3 4 5 6 
#
# 1 -0.327853 0.342464 -0.005687 0.000000 0.000000 0.000000
# 2 0.342464 -0.327848 -0.005688 0.000000 0.000000 0.000000
# 3 -0.005687 -0.005688 0.012589 0.000000 0.000000 0.000000
# 4 0.000000 0.000000 0.000000 0.054635 0.000000 0.000000
# 5 0.000000 0.000000 0.000000 0.000000 0.054635 0.000000
# 6 0.000000 0.000000 0.000000 0.000000 0.000000 0.067408
#
#
# Mechanical properties :
#
#
# Convention : Reuss Voigt Hill
#
# Bulk Modulus (GPa) = 52.45147 58.26418 55.35782
# Shear Modulus (GPa) = -4.45531 15.46750 5.50609
#
# Velocity S-wave (km/s) = -1.86648 3.47772 2.07494
# Velocity P-wave (km/s) = 6.03063 7.85396 7.00190
#
# Compressibility (1/GPa) = 0.01906524
#
# Stress axis : x y z
#
# Youngs Moduli (GPa) = -3.05015 -3.05019 79.43449
#
# Poissons Ratio (x) = 1.04458 0.45175
# Poissons Ratio (y) = 1.04457 0.45185
# Poissons Ratio (z) = -0.01735 -0.01735
#
# Static dielectric constant tensor:
#      x y z
#    x 2.457980 0.000000 0.000000 
#    y 0.000000 2.457980 0.000000 
#    z 0.000000 0.000000 2.850510 
# 
# 
# High freq. dielectric constant tensor:
#      x y z
#    x 1.449060 0.000000 0.000000 
#    y 0.000000 1.449060 0.000000 
#    z 0.000000 0.000000 1.509570 
# 
# From -- ./inp_files/1524.got.cif
#   From: 2010.03.12/outbox.cif.g09.slc.cpg/sg124_1_cif.got.tgz:1524.got - 2010.04.06 16:38:57.
