data_PCOD8313290
_publ_section_title
;
Structure prediction by ZEFSAII (Michael W. Deem and Ramdas Pophale) SiO2 
 PCOD8313290
Probable space group: P 4/M C C
;
_chemical_formula_sum "Si O2"
_cell_formula_units_Z 112
_cell_length_a 13.472086
_cell_length_b 13.472086
_cell_length_c 37.051631
_cell_angle_alpha 90.000000
_cell_angle_beta 90.000000
_cell_angle_gamma 90.000000
_cell_volume 6724.763621
_symmetry_space_group_name_H-M "P 4/M C C"
_symmetry_group_IT_number 124
_symmetry_cell_setting 'tetragonal'
loop_
_space_group_symop_operation_xyz
x,y,z
-y,x,z
-x,-y,z
y,-x,z
x,-y,1/2-z
-x,y,1/2-z
y,x,1/2-z
-y,-x,1/2-z
-x,-y,-z
y,-x,-z
x,y,-z
-y,x,-z
-x,y,1/2+z
x,-y,1/2+z
-y,-x,1/2+z
y,x,1/2+z
loop_
_atom_site_type_symbol
_atom_site_label
_atom_site_fract_x
_atom_site_fract_y
_atom_site_fract_z
Si Si1 0.886968 0.725431 0.790231
Si Si2 0.887873 0.615355 0.638951
Si Si3 0.118715 0.890717 0.041717
Si Si4 0.388528 0.617137 0.458419
Si Si5 0.750083 0.249521 0.909630
Si Si6 0.610811 0.882336 0.639802
Si Si7 0.273194 0.112532 0.790536
O O1 0.865330 0.636369 0.818006
O O2 0.820758 0.820040 0.800055
O O3 0.864863 0.685628 0.749742
O O4 0.999501 0.763655 0.793630
O O5 0.827255 0.688027 0.613547
O O6 0.852586 0.502903 0.633035
O O7 0.866907 0.639695 0.680927
O O8 0.003393 0.629054 0.629105
O O9 0.191792 0.826343 0.065428
O O10 0.005727 0.862104 0.050758
O O11 0.141716 0.869351 0.000000
O O12 0.361987 0.503440 0.449824
O O13 0.365526 0.641280 0.500000
O O14 0.323515 0.687474 0.433871
O O15 0.677910 0.188140 0.884152
#
# Coordination Sequence:
#
# PCOD8313290 Si02
#       7
#    16  16  16  16  16  16  16
#     4   9  17  31  50  72  98 130 167 203 241 289
#     4  10  21  34  48  72 103 131 163 205 247 288
#     4   9  19  35  53  74 100 130 165 200 234 285
#     4   9  19  35  53  74  98 124 161 206 246 289
#     4  12  19  32  53  76  98 132 162 198 247 300
#     4  10  21  34  48  72 103 131 163 205 247 288
#     4   9  17  31  50  72  98 130 167 203 241 289
#
# _framework density 16.654859999999999
#
# number of rings (size 3 to 8) (size 9 to 14) (size 15 to 20)
#    0.000    2.286    1.429    3.000    0.000    0.857 
#    0.000    4.286    0.000    0.000    0.000   12.000 
#    0.000    2.286    0.000    0.000    0.000    0.000 
#
# Total GULP energy -1388689.147873 kJ/mol
# GULP energy per Si atom -12399.010249 kJ/mol
# Density = 1.661695 g / cm^3
# Si number density = 16.654860 Si / 1000 Ang^3
#
#
#
# Elastic Constant Matrix: (Units=GPa)
#
#
# Indices 1 2 3 4 5 6 
#
# 1 47.3306 20.3308 21.7005 0.0000 0.0000 0.0000
# 2 20.3308 47.3306 21.7005 0.0000 0.0000 0.0000
# 3 21.7005 21.7005 61.3467 0.0000 0.0000 0.0000
# 4 0.0000 0.0000 0.0000 28.0363 0.0000 0.0000
# 5 0.0000 0.0000 0.0000 0.0000 28.0363 0.0000
# 6 0.0000 0.0000 0.0000 0.0000 0.0000 30.8027
#
#
#
# Elastic Compliance Matrix: (Units=1/GPa)
#
#
# Indices 1 2 3 4 5 6 
#
# 1 0.028077 -0.008960 -0.006762 0.000000 0.000000 0.000000
# 2 -0.008960 0.028077 -0.006762 0.000000 0.000000 0.000000
# 3 -0.006762 -0.006762 0.021085 0.000000 0.000000 0.000000
# 4 0.000000 0.000000 0.000000 0.035668 0.000000 0.000000
# 5 0.000000 0.000000 0.000000 0.000000 0.035668 0.000000
# 6 0.000000 0.000000 0.000000 0.000000 0.000000 0.032465
#
#
# Mechanical properties :
#
#
# Convention : Reuss Voigt Hill
#
# Bulk Modulus (GPa) = 30.98883 31.49683 31.24283
# Shear Modulus (GPa) = 21.11784 23.52679 22.32231
#
# Velocity S-wave (km/s) = 3.56472 3.76254 3.66497
# Velocity P-wave (km/s) = 5.96572 6.15046 6.05880
#
# Compressibility (1/GPa) = 0.03226969
#
# Stress axis : x y z
#
# Youngs Moduli (GPa) = 35.61608 35.61608 47.42714
#
# Poissons Ratio (x) = 0.31912 0.32072
# Poissons Ratio (y) = 0.31912 0.32072
# Poissons Ratio (z) = 0.24085 0.24085
#
# Static dielectric constant tensor:
#      x y z
#    x 3.078290 0.000000 0.000000 
#    y 0.000000 3.078290 0.000000 
#    z 0.000000 0.000000 3.226930 
# 
# 
# High freq. dielectric constant tensor:
#      x y z
#    x 1.638850 0.000000 0.000000 
#    y 0.000000 1.638850 0.000000 
#    z 0.000000 0.000000 1.651220 
# 
# From -- ./inp_files/7280.got.cif
#   From: 2010.03.12/outbox.cif.g09.slc.cpg/sg124_4_cif.got.tgz:7280.got - 2010.04.06 16:38:57.
