data_PCOD8313213
_publ_section_title
;
Structure prediction by ZEFSAII (Michael W. Deem and Ramdas Pophale) SiO2 
 PCOD8313213
Probable space group: P 4/M C C
;
_chemical_formula_sum "Si O2"
_cell_formula_units_Z 96
_cell_length_a 25.293592
_cell_length_b 25.293592
_cell_length_c 8.663910
_cell_angle_alpha 90.000000
_cell_angle_beta 90.000000
_cell_angle_gamma 90.000000
_cell_volume 5542.873280
_symmetry_space_group_name_H-M "P 4/M C C"
_symmetry_group_IT_number 124
_symmetry_cell_setting 'tetragonal'
loop_
_space_group_symop_operation_xyz
x,y,z
-y,x,z
-x,-y,z
y,-x,z
x,-y,1/2-z
-x,y,1/2-z
y,x,1/2-z
-y,-x,1/2-z
-x,-y,-z
y,-x,-z
x,y,-z
-y,x,-z
-x,y,1/2+z
x,-y,1/2+z
-y,-x,1/2+z
y,x,1/2+z
loop_
_atom_site_type_symbol
_atom_site_label
_atom_site_fract_x
_atom_site_fract_y
_atom_site_fract_z
Si Si1 0.749047 0.332290 0.817943
Si Si2 0.446351 0.756556 0.828001
Si Si3 0.880931 0.551866 0.828211
Si Si4 0.053712 0.743753 0.680107
Si Si5 0.369021 0.050423 0.180613
Si Si6 0.166987 0.247694 0.317724
O O1 0.700039 0.299962 0.750000
O O2 0.743859 0.392676 0.763002
O O3 0.804710 0.303567 0.767991
O O4 0.743915 0.331761 0.000000
O O5 0.500000 0.732951 0.750000
O O6 0.452619 0.818785 0.837324
O O7 0.442032 0.732496 0.000000
O O8 0.905537 0.500000 0.750000
O O9 0.896015 0.599636 0.714502
O O10 0.904757 0.559241 0.000000
O O11 0.055660 0.756348 0.500000
O O12 0.050918 0.681947 0.711749
O O13 0.108015 0.762416 0.757307
O O14 0.000000 0.770750 0.750000
O O15 0.401750 0.000000 0.250000
O O16 0.354822 0.046827 0.000000
O O17 0.200099 0.200099 0.250000
O O18 0.165553 0.244211 0.500000
#
# Coordination Sequence:
#
# PCOD8313213 Si02
#       6
#    16  16  16  16  16  16
#     4  10  20  33  51  74 102 133 167 205 248 296
#     4  10  20  33  50  70  95 125 159 197 240 289
#     4  10  20  33  47  64  85 113 150 193 239 286
#     4  11  21  34  51  71  96 127 162 201 244 293
#     4  11  21  33  47  63  84 113 151 195 241 288
#     4  10  20  34  52  76 104 135 169 207 251 300
#
# _framework density 17.319535999999999
#
# number of rings (size 3 to 8) (size 9 to 14) (size 15 to 20)
#    0.000    1.667    0.000    7.000    0.000    7.000 
#    0.000    1.667    0.000    0.000    0.000    0.000 
#    0.000    0.667    0.000    6.667    0.000    4.000 
#
# Total GULP energy -1189617.460454 kJ/mol
# GULP energy per Si atom -12391.848546 kJ/mol
# Density = 1.728012 g / cm^3
# Si number density = 17.319536 Si / 1000 Ang^3
#
#
#
# Elastic Constant Matrix: (Units=GPa)
#
#
# Indices 1 2 3 4 5 6 
#
# 1 89.8770 37.3058 39.3320 0.0000 0.0000 0.0000
# 2 37.3058 89.8747 39.3334 0.0000 0.0000 0.0000
# 3 39.3320 39.3334 109.5534 0.0000 0.0000 0.0000
# 4 0.0000 0.0000 0.0000 28.4669 0.0000 0.0000
# 5 0.0000 0.0000 0.0000 0.0000 28.4671 0.0000
# 6 0.0000 0.0000 0.0000 0.0000 0.0000 18.8801
#
#
#
# Elastic Compliance Matrix: (Units=1/GPa)
#
#
# Indices 1 2 3 4 5 6 
#
# 1 0.014564 -0.004457 -0.003629 0.000000 0.000000 0.000000
# 2 -0.004457 0.014565 -0.003629 0.000000 0.000000 0.000000
# 3 -0.003629 -0.003629 0.011734 0.000000 0.000000 0.000000
# 4 0.000000 0.000000 0.000000 0.035129 0.000000 0.000000
# 5 0.000000 0.000000 0.000000 0.000000 0.035128 0.000000
# 6 0.000000 0.000000 0.000000 0.000000 0.000000 0.052966
#
#
# Mechanical properties :
#
#
# Convention : Reuss Voigt Hill
#
# Bulk Modulus (GPa) = 57.36240 57.91641 57.63941
# Shear Modulus (GPa) = 25.86293 26.71841 26.29067
#
# Velocity S-wave (km/s) = 3.86849 3.93195 3.90035
# Velocity P-wave (km/s) = 7.29010 7.35705 7.32365
#
# Compressibility (1/GPa) = 0.01743302
#
# Stress axis : x y z
#
# Youngs Moduli (GPa) = 68.66038 68.65741 85.22503
#
# Poissons Ratio (x) = 0.30604 0.30924
# Poissons Ratio (y) = 0.30605 0.30928
# Poissons Ratio (z) = 0.24914 0.24916
#
# Static dielectric constant tensor:
#      x y z
#    x 3.238850 0.000000 0.000000 
#    y 0.000000 3.238850 0.000000 
#    z 0.000000 0.000000 3.475440 
# 
# 
# High freq. dielectric constant tensor:
#      x y z
#    x 1.644060 0.000000 0.000000 
#    y 0.000000 1.644060 0.000000 
#    z 0.000000 0.000000 1.691610 
# 
# From -- ./inp_files/1337.got.cif
#   From: 2010.03.12/outbox.cif.g09.slc.cpg/sg124_1_cif.got.tgz:1337.got - 2010.04.06 16:38:57.
