data_PCOD8313887
_publ_section_title
;
Structure prediction by ZEFSAII (Michael W. Deem and Ramdas Pophale) SiO2 
 PCOD8313887
Probable space group: P 4/M B M
;
_chemical_formula_sum "Si O2"
_cell_formula_units_Z 72
_cell_length_a 17.453884
_cell_length_b 17.453884
_cell_length_c 12.842618
_cell_angle_alpha 90.000000
_cell_angle_beta 90.000000
_cell_angle_gamma 90.000000
_cell_volume 3912.350319
_symmetry_space_group_name_H-M "P 4/M B M"
_symmetry_group_IT_number 127
_symmetry_cell_setting 'tetragonal'
loop_
_space_group_symop_operation_xyz
x,y,z
-y,x,z
-x,-y,z
y,-x,z
1/2+x,1/2-y,-z
1/2-x,1/2+y,-z
1/2+y,1/2+x,-z
1/2-y,1/2-x,-z
-x,-y,-z
y,-x,-z
x,y,-z
-y,x,-z
1/2-x,1/2+y,z
1/2+x,1/2-y,z
1/2-y,1/2-x,z
1/2+y,1/2+x,z
loop_
_atom_site_type_symbol
_atom_site_label
_atom_site_fract_x
_atom_site_fract_y
_atom_site_fract_z
Si Si1 0.809215 0.309215 0.382493
Si Si2 0.212166 0.070418 0.700992
Si Si3 0.676782 0.948347 0.120728
Si Si4 0.592843 0.315237 0.619092
Si Si5 0.384923 0.884923 0.119603
Si Si6 0.806524 0.693477 0.303342
O O1 0.786497 0.286497 0.500000
O O2 0.786960 0.397745 0.362502
O O3 0.758996 0.258996 0.301345
O O4 0.242245 0.055077 0.817951
O O5 0.142194 0.130555 0.695961
O O6 0.178688 0.995292 0.647785
O O7 0.622369 0.877632 0.153570
O O8 0.631517 0.026538 0.146018
O O9 0.698516 0.943825 0.000000
O O10 0.605795 0.340923 0.500000
O O11 0.619858 0.227314 0.635805
O O12 0.330016 0.830016 0.186732
O O13 0.366208 0.866208 0.000000
#
# Coordination Sequence:
#
# PCOD8313887 Si02
#       6
#     8  16  16  16   8   8
#     4  10  20  36  55  78 111 150 190 237 289 339
#     4  11  21  37  58  82 114 150 197 234 286 345
#     4  10  20  37  59  85 115 150 189 234 287 342
#     4  11  22  37  57  83 116 153 191 239 287 338
#     4  10  19  34  58  87 115 147 185 234 290 342
#     4  10  18  33  54  81 111 140 183 230 289 335
#
# _framework density 18.40326
#
# number of rings (size 3 to 8) (size 9 to 14) (size 15 to 20)
#    0.000    1.556    3.333    4.667    0.000    1.778 
#    0.000    6.667    0.000    0.000    0.000    6.222 
#    0.000    0.000    0.000    0.000    0.000    0.000 
#
# Total GULP energy -892491.343916 kJ/mol
# GULP energy per Si atom -12395.713110 kJ/mol
# Density = 1.836137 g / cm^3
# Si number density = 18.403260 Si / 1000 Ang^3
#
#
#
# Elastic Constant Matrix: (Units=GPa)
#
#
# Indices 1 2 3 4 5 6 
#
# 1 93.8481 42.1153 43.8465 0.0000 0.0000 0.0000
# 2 42.1153 93.8481 43.8465 0.0000 0.0000 0.0000
# 3 43.8465 43.8465 98.3892 0.0000 0.0000 0.0000
# 4 0.0000 0.0000 0.0000 28.5086 0.0000 0.0000
# 5 0.0000 0.0000 0.0000 0.0000 28.5086 0.0000
# 6 0.0000 0.0000 0.0000 0.0000 0.0000 31.1637
#
#
#
# Elastic Compliance Matrix: (Units=1/GPa)
#
#
# Indices 1 2 3 4 5 6 
#
# 1 0.014826 -0.004504 -0.004600 0.000000 0.000000 0.000000
# 2 -0.004504 0.014826 -0.004600 0.000000 0.000000 0.000000
# 3 -0.004600 -0.004600 0.014263 0.000000 0.000000 0.000000
# 4 0.000000 0.000000 0.000000 0.035077 0.000000 0.000000
# 5 0.000000 0.000000 0.000000 0.000000 0.035077 0.000000
# 6 0.000000 0.000000 0.000000 0.000000 0.000000 0.032089
#
#
# Mechanical properties :
#
#
# Convention : Reuss Voigt Hill
#
# Bulk Modulus (GPa) = 60.57800 60.63356 60.60578
# Shear Modulus (GPa) = 27.92233 28.05466 27.98850
#
# Velocity S-wave (km/s) = 3.89941 3.90864 3.90403
# Velocity P-wave (km/s) = 7.29811 7.30676 7.30243
#
# Compressibility (1/GPa) = 0.01650764
#
# Stress axis : x y z
#
# Youngs Moduli (GPa) = 67.44968 67.44968 70.10935
#
# Poissons Ratio (x) = 0.30381 0.32249
# Poissons Ratio (y) = 0.30381 0.32249
# Poissons Ratio (z) = 0.31025 0.31025
#
# Static dielectric constant tensor:
#      x y z
#    x 3.396850 0.000000 0.000000 
#    y 0.000000 3.396850 0.000000 
#    z 0.000000 0.000000 3.329750 
# 
# 
# High freq. dielectric constant tensor:
#      x y z
#    x 1.709590 0.000000 0.000000 
#    y 0.000000 1.709590 0.000000 
#    z 0.000000 0.000000 1.705980 
# 
# From -- ./inp_files/3220.got.cif
#   From: 2010.03.12/outbox.cif.g09.slc.cpg/sg127_2_cif.got.tgz:3220.got - 2010.04.06 17:03:15.
