data_PCOD8313998
_publ_section_title
;
Structure prediction by ZEFSAII (Michael W. Deem and Ramdas Pophale) SiO2 
 PCOD8313998
Probable space group: P 4/M B M
;
_chemical_formula_sum "Si O2"
_cell_formula_units_Z 72
_cell_length_a 18.586120
_cell_length_b 18.586120
_cell_length_c 11.902193
_cell_angle_alpha 90.000000
_cell_angle_beta 90.000000
_cell_angle_gamma 90.000000
_cell_volume 4111.539453
_symmetry_space_group_name_H-M "P 4/M B M"
_symmetry_group_IT_number 127
_symmetry_cell_setting 'tetragonal'
loop_
_space_group_symop_operation_xyz
x,y,z
-y,x,z
-x,-y,z
y,-x,z
1/2+x,1/2-y,-z
1/2-x,1/2+y,-z
1/2+y,1/2+x,-z
1/2-y,1/2-x,-z
-x,-y,-z
y,-x,-z
x,y,-z
-y,x,-z
1/2-x,1/2+y,z
1/2+x,1/2-y,z
1/2-y,1/2-x,z
1/2+y,1/2+x,z
loop_
_atom_site_type_symbol
_atom_site_label
_atom_site_fract_x
_atom_site_fract_y
_atom_site_fract_z
Si Si1 0.377377 0.758067 0.630247
Si Si2 0.010689 0.710807 0.777931
Si Si3 0.712437 0.519165 0.000000
Si Si4 0.140187 0.834220 0.000000
Si Si5 0.338313 0.277768 0.762582
Si Si6 0.439561 0.060440 0.130399
O O1 0.387096 0.740764 0.500000
O O2 0.322514 0.822514 0.653135
O O3 0.453915 0.783131 0.677783
O O4 0.346819 0.685629 0.689000
O O5 0.973019 0.737998 0.891052
O O6 0.078438 0.759488 0.740655
O O7 0.033556 0.629310 0.801286
O O8 0.654313 0.581522 0.000000
O O9 0.669804 0.445246 0.000000
O O10 0.174667 0.795038 0.893145
O O11 0.291271 0.208730 0.728649
O O12 0.500000 0.000000 0.133583
O O13 0.420112 0.079889 0.000000
#
# Coordination Sequence:
#
# PCOD8313998 Si02
#       6
#    16  16   8   8  16   8
#     4  10  22  39  57  80 110 147 195 242 279 327
#     4  11  20  37  57  84 117 148 187 232 286 343
#     4  10  20  32  55  83 116 145 184 222 287 343
#     4  10  19  33  53  84 113 144 177 228 283 341
#     4  10  20  34  58  83 110 144 186 235 282 334
#     4  11  22  34  53  85 125 159 184 226 285 354
#
# _framework density 17.511686999999998
#
# number of rings (size 3 to 8) (size 9 to 14) (size 15 to 20)
#    0.000    1.667    4.444    1.000    0.000    1.111 
#    0.000    0.556    0.000    2.667    0.000    1.556 
#    0.000    0.000    0.000    0.000    0.000    0.000 
#
# Total GULP energy -892954.218697 kJ/mol
# GULP energy per Si atom -12402.141926 kJ/mol
# Density = 1.747183 g / cm^3
# Si number density = 17.511687 Si / 1000 Ang^3
#
#
#
# Elastic Constant Matrix: (Units=GPa)
#
#
# Indices 1 2 3 4 5 6 
#
# 1 83.4927 47.0476 49.5006 0.0000 0.0000 0.0000
# 2 47.0476 83.4925 49.5006 0.0000 0.0000 0.0000
# 3 49.5006 49.5006 112.9180 0.0000 0.0000 0.0000
# 4 0.0000 0.0000 0.0000 23.8032 0.0000 0.0000
# 5 0.0000 0.0000 0.0000 0.0000 23.8037 0.0000
# 6 0.0000 0.0000 0.0000 0.0000 0.0000 23.9386
#
#
#
# Elastic Compliance Matrix: (Units=1/GPa)
#
#
# Indices 1 2 3 4 5 6 
#
# 1 0.019457 -0.007981 -0.005031 0.000000 0.000000 0.000000
# 2 -0.007981 0.019457 -0.005031 0.000000 0.000000 0.000000
# 3 -0.005031 -0.005031 0.013267 0.000000 0.000000 0.000000
# 4 0.000000 0.000000 0.000000 0.042011 0.000000 0.000000
# 5 0.000000 0.000000 0.000000 0.000000 0.042010 0.000000
# 6 0.000000 0.000000 0.000000 0.000000 0.000000 0.041774
#
#
# Mechanical properties :
#
#
# Convention : Reuss Voigt Hill
#
# Bulk Modulus (GPa) = 62.12970 63.55563 62.84267
# Shear Modulus (GPa) = 22.78666 23.23273 23.00969
#
# Velocity S-wave (km/s) = 3.61116 3.64634 3.62879
# Velocity P-wave (km/s) = 7.27622 7.35525 7.31584
#
# Compressibility (1/GPa) = 0.01609536
#
# Stress axis : x y z
#
# Youngs Moduli (GPa) = 51.39503 51.39492 75.37695
#
# Poissons Ratio (x) = 0.41020 0.37920
# Poissons Ratio (y) = 0.41021 0.37920
# Poissons Ratio (z) = 0.25855 0.25855
#
# Static dielectric constant tensor:
#      x y z
#    x 3.228310 0.000000 0.000000 
#    y 0.000000 3.228320 0.000000 
#    z 0.000000 0.000000 3.249270 
# 
# 
# High freq. dielectric constant tensor:
#      x y z
#    x 1.677910 0.000000 0.000000 
#    y 0.000000 1.677910 0.000000 
#    z 0.000000 0.000000 1.670760 
# 
# From -- ./inp_files/3250.got.cif
#   From: 2010.03.12/outbox.cif.g09.slc.cpg/sg127_2_cif.got.tgz:3250.got - 2010.04.06 17:03:15.
