data_PCOD8313224
_publ_section_title
;
Structure prediction by ZEFSAII (Michael W. Deem and Ramdas Pophale) SiO2 
 PCOD8313224
Probable space group: P 4/M C C
;
_chemical_formula_sum "Si O2"
_cell_formula_units_Z 96
_cell_length_a 25.225973
_cell_length_b 25.225973
_cell_length_c 9.379207
_cell_angle_alpha 90.000000
_cell_angle_beta 90.000000
_cell_angle_gamma 90.000000
_cell_volume 5968.455690
_symmetry_space_group_name_H-M "P 4/M C C"
_symmetry_group_IT_number 124
_symmetry_cell_setting 'tetragonal'
loop_
_space_group_symop_operation_xyz
x,y,z
-y,x,z
-x,-y,z
y,-x,z
x,-y,1/2-z
-x,y,1/2-z
y,x,1/2-z
-y,-x,1/2-z
-x,-y,-z
y,-x,-z
x,y,-z
-y,x,-z
-x,y,1/2+z
x,-y,1/2+z
-y,-x,1/2+z
y,x,1/2+z
loop_
_atom_site_type_symbol
_atom_site_label
_atom_site_fract_x
_atom_site_fract_y
_atom_site_fract_z
Si Si1 0.834894 0.757479 0.830635
Si Si2 0.630807 0.553997 0.168549
Si Si3 0.836215 0.638413 0.169536
Si Si4 0.952017 0.632106 0.841962
Si Si5 0.047284 0.241854 0.156777
Si Si6 0.246335 0.447951 0.835301
O O1 0.794890 0.794890 0.750000
O O2 0.823268 0.697628 0.776998
O O3 0.894611 0.773928 0.784988
O O4 0.827345 0.762476 0.000000
O O5 0.615624 0.500000 0.250000
O O6 0.600451 0.600451 0.250000
O O7 0.692560 0.567219 0.188229
O O8 0.615713 0.550377 0.000000
O O9 0.894045 0.618413 0.225267
O O10 0.789792 0.599814 0.224191
O O11 0.839749 0.639955 0.000000
O O12 0.957000 0.695088 0.848841
O O13 0.000000 0.607362 0.750000
O O14 0.957353 0.607811 0.000000
O O15 0.000000 0.216989 0.250000
O O16 0.039720 0.217917 0.000000
O O17 0.230310 0.500000 0.750000
O O18 0.234385 0.459198 0.000000
#
# Coordination Sequence:
#
# PCOD8313224 Si02
#       6
#    16  16  16  16  16  16
#     4   9  17  28  41  61  90 119 145 175 214 259
#     4  10  20  34  52  73  95 117 143 176 214 257
#     4   8  15  29  46  62  85 119 149 174 216 266
#     4   8  13  23  40  60  82 108 140 178 217 256
#     4   8  14  24  38  56  79 109 144 178 211 250
#     4   9  18  33  51  68  88 116 149 183 216 253
#
# _framework density 16.084561999999998
#
# number of rings (size 3 to 8) (size 9 to 14) (size 15 to 20)
#    0.000    3.333    0.000    2.500    0.000    2.167 
#    0.000    5.000    0.000    0.500    0.000    3.500 
#    0.000    0.333    0.000    3.667    0.000    3.000 
#
# Total GULP energy -1189681.157781 kJ/mol
# GULP energy per Si atom -12392.512060 kJ/mol
# Density = 1.604795 g / cm^3
# Si number density = 16.084562 Si / 1000 Ang^3
#
#
#
# Elastic Constant Matrix: (Units=GPa)
#
#
# Indices 1 2 3 4 5 6 
#
# 1 100.7861 71.7515 48.8912 0.0000 0.0000 0.0000
# 2 71.7515 100.7861 48.8912 0.0000 0.0000 0.0000
# 3 48.8912 48.8912 65.7783 0.0000 0.0000 0.0000
# 4 0.0000 0.0000 0.0000 22.2862 0.0000 0.0000
# 5 0.0000 0.0000 0.0000 0.0000 22.2862 0.0000
# 6 0.0000 0.0000 0.0000 0.0000 0.0000 0.6441
#
#
#
# Elastic Compliance Matrix: (Units=1/GPa)
#
#
# Indices 1 2 3 4 5 6 
#
# 1 0.022228 -0.012214 -0.007443 0.000000 0.000000 0.000000
# 2 -0.012214 0.022228 -0.007443 0.000000 0.000000 0.000000
# 3 -0.007443 -0.007443 0.026267 0.000000 0.000000 0.000000
# 4 0.000000 0.000000 0.000000 0.044871 0.000000 0.000000
# 5 0.000000 0.000000 0.000000 0.000000 0.044871 0.000000
# 6 0.000000 0.000000 0.000000 0.000000 0.000000 1.552522
#
#
# Mechanical properties :
#
#
# Convention : Reuss Voigt Hill
#
# Bulk Modulus (GPa) = 60.52305 67.37979 63.95142
# Shear Modulus (GPa) = 2.82056 15.56441 9.19249
#
# Velocity S-wave (km/s) = 1.32567 3.11410 2.39322
# Velocity P-wave (km/s) = 6.32874 7.41027 6.89075
#
# Compressibility (1/GPa) = 0.01652263
#
# Stress axis : x y z
#
# Youngs Moduli (GPa) = 44.98846 44.98846 38.07015
#
# Poissons Ratio (x) = 0.54948 0.28337
# Poissons Ratio (y) = 0.54948 0.28337
# Poissons Ratio (z) = 0.33486 0.33486
#
# Static dielectric constant tensor:
#      x y z
#    x 3.053290 0.000000 0.000000 
#    y 0.000000 3.053290 0.000000 
#    z 0.000000 0.000000 3.090740 
# 
# 
# High freq. dielectric constant tensor:
#      x y z
#    x 1.603150 0.000000 0.000000 
#    y 0.000000 1.603150 0.000000 
#    z 0.000000 0.000000 1.606170 
# 
# From -- ./inp_files/2453.got.cif
#   From: 2010.03.12/outbox.cif.g09.slc.cpg/sg124_2_cif.got.tgz:2453.got - 2010.04.06 16:38:57.
