data_PCOD8313050
_publ_section_title
;
Structure prediction by ZEFSAII (Michael W. Deem and Ramdas Pophale) SiO2 
 PCOD8313050
Probable space group: P 4/M M M
;
_chemical_formula_sum "Si O2"
_cell_formula_units_Z 96
_cell_length_a 14.497475
_cell_length_b 14.497475
_cell_length_c 30.175344
_cell_angle_alpha 90.000000
_cell_angle_beta 90.000000
_cell_angle_gamma 90.000000
_cell_volume 6342.156679
_symmetry_space_group_name_H-M "P 4/M M M"
_symmetry_group_IT_number 123
_symmetry_cell_setting 'tetragonal'
loop_
_space_group_symop_operation_xyz
x,y,z
-y,x,z
-x,-y,z
y,-x,z
x,-y,-z
-x,y,-z
y,x,-z
-y,-x,-z
-x,-y,-z
y,-x,-z
x,y,-z
-y,x,-z
-x,y,z
x,-y,z
-y,-x,z
y,x,z
loop_
_atom_site_type_symbol
_atom_site_label
_atom_site_fract_x
_atom_site_fract_y
_atom_site_fract_z
Si Si1 0.745183 0.105877 0.550209
Si Si2 0.245526 0.605511 0.299547
Si Si3 0.605966 0.105925 0.374582
Si Si4 0.608931 0.897168 0.875441
Si Si5 0.606205 0.756410 0.949280
Si Si6 0.393431 0.756783 0.801368
O O1 0.710642 0.122550 0.500000
O O2 0.836155 0.163846 0.561019
O O3 0.663385 0.137513 0.582584
O O4 0.772309 0.000000 0.558045
O O5 0.273362 0.500000 0.307879
O O6 0.335985 0.664016 0.310381
O O7 0.163258 0.637130 0.331648
O O8 0.211314 0.620728 0.249286
O O9 0.500000 0.123907 0.386727
O O10 0.624416 0.000000 0.362518
O O11 0.500000 0.907497 0.875352
O O12 0.640729 0.841462 0.919157
O O13 0.640979 0.841377 0.831807
O O14 0.653621 0.000000 0.875467
O O15 0.500000 0.730994 0.938799
O O16 0.665791 0.665791 0.938391
O O17 0.618793 0.787793 0.000000
O O18 0.500000 0.731803 0.811285
O O19 0.334264 0.665737 0.812246
#
# Coordination Sequence:
#
# PCOD8313050 Si02
#       6
#    16  16  16  16  16  16
#     4   9  17  28  42  60  81 105 132 163 201 244
#     4   9  17  28  42  60  82 108 136 166 199 235
#     4   9  17  28  42  60  81 106 136 168 201 237
#     4   9  17  28  41  57  79 108 139 169 200 234
#     4   9  17  28  42  61  85 112 140 169 201 239
#     4   9  17  28  42  61  84 109 136 165 198 237
#
# _framework density 15.136806
#
# number of rings (size 3 to 8) (size 9 to 14) (size 15 to 20)
#    0.000    3.000    0.000    1.000    0.000    2.000 
#    0.000   10.000    0.000    3.000    0.000    0.000 
#    0.000    5.333    0.000   35.167    0.000    2.167 
#
# Total GULP energy -1190204.764492 kJ/mol
# GULP energy per Si atom -12397.966297 kJ/mol
# Density = 1.510235 g / cm^3
# Si number density = 15.136806 Si / 1000 Ang^3
#
#
#
# Elastic Constant Matrix: (Units=GPa)
#
#
# Indices 1 2 3 4 5 6 
#
# 1 80.6322 49.6737 62.0904 0.0000 0.0000 0.0000
# 2 49.6737 80.6322 62.0904 0.0000 0.0000 0.0000
# 3 62.0904 62.0904 112.2468 0.0000 0.0000 0.0000
# 4 0.0000 0.0000 0.0000 24.7563 0.0000 0.0000
# 5 0.0000 0.0000 0.0000 0.0000 24.7563 0.0000
# 6 0.0000 0.0000 0.0000 0.0000 0.0000 15.8855
#
#
#
# Elastic Compliance Matrix: (Units=1/GPa)
#
#
# Indices 1 2 3 4 5 6 
#
# 1 0.024266 -0.008036 -0.008978 0.000000 0.000000 0.000000
# 2 -0.008036 0.024266 -0.008978 0.000000 0.000000 0.000000
# 3 -0.008978 -0.008978 0.018841 0.000000 0.000000 0.000000
# 4 0.000000 0.000000 0.000000 0.040394 0.000000 0.000000
# 5 0.000000 0.000000 0.000000 0.000000 0.040394 0.000000
# 6 0.000000 0.000000 0.000000 0.000000 0.000000 0.062951
#
#
# Mechanical properties :
#
#
# Convention : Reuss Voigt Hill
#
# Bulk Modulus (GPa) = 64.97670 69.02445 67.00058
# Shear Modulus (GPa) = 18.64120 19.72341 19.18231
#
# Velocity S-wave (km/s) = 3.51310 3.61364 3.56373
# Velocity P-wave (km/s) = 7.71203 7.94422 7.82898
#
# Compressibility (1/GPa) = 0.01539013
#
# Stress axis : x y z
#
# Youngs Moduli (GPa) = 41.21052 41.21052 53.07506
#
# Poissons Ratio (x) = 0.33115 0.47650
# Poissons Ratio (y) = 0.33115 0.47650
# Poissons Ratio (z) = 0.36998 0.36998
#
# Static dielectric constant tensor:
#      x y z
#    x 2.870630 0.000000 0.000000 
#    y 0.000000 2.870630 0.000000 
#    z 0.000000 0.000000 3.094170 
# 
# 
# High freq. dielectric constant tensor:
#      x y z
#    x 1.562590 0.000000 0.000000 
#    y 0.000000 1.562590 0.000000 
#    z 0.000000 0.000000 1.592440 
# 
# From -- ./inp_files/8580.got.cif
#   From: 2010.03.12/outbox.cif.g09.slc.cpg/sg123_5_cif.got.tgz:8580.got - 2010.04.06 16:26:55.
