data_PCOD8313971
_publ_section_title
;
Structure prediction by ZEFSAII (Michael W. Deem and Ramdas Pophale) SiO2 
 PCOD8313971
Probable space group: P 4/M B M
;
_chemical_formula_sum "Si O2"
_cell_formula_units_Z 104
_cell_length_a 25.843155
_cell_length_b 25.843155
_cell_length_c 9.367004
_cell_angle_alpha 90.000000
_cell_angle_beta 90.000000
_cell_angle_gamma 90.000000
_cell_volume 6255.928413
_symmetry_space_group_name_H-M "P 4/M B M"
_symmetry_group_IT_number 127
_symmetry_cell_setting 'tetragonal'
loop_
_space_group_symop_operation_xyz
x,y,z
-y,x,z
-x,-y,z
y,-x,z
1/2+x,1/2-y,-z
1/2-x,1/2+y,-z
1/2+y,1/2+x,-z
1/2-y,1/2-x,-z
-x,-y,-z
y,-x,-z
x,y,-z
-y,x,-z
1/2-x,1/2+y,z
1/2+x,1/2-y,z
1/2-y,1/2-x,z
1/2+y,1/2+x,z
loop_
_atom_site_type_symbol
_atom_site_label
_atom_site_fract_x
_atom_site_fract_y
_atom_site_fract_z
Si Si1 0.184001 0.976433 0.842271
Si Si2 0.791407 0.136186 0.167698
Si Si3 0.194541 0.386984 0.337414
Si Si4 0.823653 0.407781 0.833386
Si Si5 0.220376 0.502925 0.666648
Si Si6 0.824354 0.244124 0.169128
Si Si7 0.913255 0.000032 0.000000
O O1 0.180063 0.916984 0.787599
O O2 0.221823 0.007937 0.736657
O O3 0.210403 0.977031 0.000000
O O4 0.124936 0.998937 0.859571
O O5 0.735519 0.141805 0.238325
O O6 0.825993 0.184652 0.221758
O O7 0.783047 0.140346 0.000000
O O8 0.211948 0.378207 0.500000
O O9 0.137853 0.362148 0.309068
O O10 0.194526 0.447616 0.302014
O O11 0.876860 0.376860 0.804293
O O12 0.821239 0.459074 0.738481
O O13 0.774627 0.374664 0.777242
O O14 0.819070 0.421861 0.000000
O O15 0.226439 0.514940 0.500000
O O16 0.772661 0.272661 0.227247
O O17 0.824681 0.247829 0.000000
O O18 0.948870 0.051682 0.000000
#
# Coordination Sequence:
#
# PCOD8313971 Si02
#       7
#    16  16  16  16  16  16   8
#     4   8  17  30  46  72  96 123 156 199 243 283
#     4   9  15  26  44  69  96 118 151 186 231 282
#     4   9  18  31  46  65  92 126 158 192 239 289
#     4   9  18  32  49  70  97 129 162 198 240 288
#     4  10  19  32  50  71  97 126 160 201 242 292
#     4   8  14  24  40  64  92 122 152 182 223 279
#     4   9  18  32  52  76  96 122 168 217 250 282
#
# _framework density 16.624231999999999
#
# number of rings (size 3 to 8) (size 9 to 14) (size 15 to 20)
#    0.462    2.692    0.000    1.846    0.000    3.077 
#    0.000    0.769    0.000    6.000    0.000    4.308 
#    0.000    0.000    0.000    0.000    0.000    0.000 
#
# Total GULP energy -1288402.803059 kJ/mol
# GULP energy per Si atom -12388.488491 kJ/mol
# Density = 1.658639 g / cm^3
# Si number density = 16.624232 Si / 1000 Ang^3
#
#
#
# Elastic Constant Matrix: (Units=GPa)
#
#
# Indices 1 2 3 4 5 6 
#
# 1 77.6721 37.1931 28.9971 0.0000 0.0000 0.0000
# 2 37.1931 77.6721 28.9971 0.0000 0.0000 0.0000
# 3 28.9971 28.9971 44.0612 0.0000 0.0000 0.0000
# 4 0.0000 0.0000 0.0000 16.1560 0.0000 0.0000
# 5 0.0000 0.0000 0.0000 0.0000 16.1560 0.0000
# 6 0.0000 0.0000 0.0000 0.0000 0.0000 22.3337
#
#
#
# Elastic Compliance Matrix: (Units=1/GPa)
#
#
# Indices 1 2 3 4 5 6 
#
# 1 0.018871 -0.005833 -0.008580 0.000000 0.000000 0.000000
# 2 -0.005833 0.018871 -0.008580 0.000000 0.000000 0.000000
# 3 -0.008580 -0.008580 0.033989 0.000000 0.000000 0.000000
# 4 0.000000 0.000000 0.000000 0.061897 0.000000 0.000000
# 5 0.000000 0.000000 0.000000 0.000000 0.061897 0.000000
# 6 0.000000 0.000000 0.000000 0.000000 0.000000 0.044775
#
#
# Mechanical properties :
#
#
# Convention : Reuss Voigt Hill
#
# Bulk Modulus (GPa) = 38.84444 43.30887 41.07666
# Shear Modulus (GPa) = 16.95667 17.87701 17.41684
#
# Velocity S-wave (km/s) = 3.19720 3.28282 3.24030
# Velocity P-wave (km/s) = 6.08657 6.36219 6.22591
#
# Compressibility (1/GPa) = 0.02574371
#
# Stress axis : x y z
#
# Youngs Moduli (GPa) = 52.99112 52.99112 29.42094
#
# Poissons Ratio (x) = 0.30910 0.25244
# Poissons Ratio (y) = 0.30910 0.25244
# Poissons Ratio (z) = 0.45469 0.45469
#
# Static dielectric constant tensor:
#      x y z
#    x 3.148660 0.000000 0.000000 
#    y 0.000000 3.148660 0.000000 
#    z 0.000000 0.000000 2.896370 
# 
# 
# High freq. dielectric constant tensor:
#      x y z
#    x 1.632210 0.000000 0.000000 
#    y 0.000000 1.632210 0.000000 
#    z 0.000000 0.000000 1.612170 
# 
# From -- ./inp_files/2306.got.cif
#   From: 2010.03.12/outbox.cif.g09.slc.cpg/sg127_2_cif.got.tgz:2306.got - 2010.04.06 17:03:15.
