data_PCOD8313819
_publ_section_title
;
Structure prediction by ZEFSAII (Michael W. Deem and Ramdas Pophale) SiO2 
 PCOD8313819
Probable space group: P 4/N N C
;
_chemical_formula_sum "Si O2"
_cell_formula_units_Z 116
_cell_length_a 17.057431
_cell_length_b 17.057431
_cell_length_c 17.922700
_cell_angle_alpha 90.000000
_cell_angle_beta 90.000000
_cell_angle_gamma 90.000000
_cell_volume 5214.716247
_symmetry_space_group_name_H-M "P 4/N N C"
_symmetry_group_IT_number 126
_space_group.IT_coordinate_system_code '2'
_symmetry_cell_setting 'tetragonal'
loop_
_space_group_symop_operation_xyz
x,y,z
1/2-y,x,z
1/2-x,1/2-y,z
y,1/2-x,z
x,1/2-y,1/2-z
1/2-x,y,1/2-z
y,x,1/2-z
1/2-y,1/2-x,1/2-z
-x,-y,-z
1/2+y,-x,-z
1/2+x,1/2+y,-z
-y,1/2+x,-z
-x,1/2+y,1/2+z
1/2+x,-y,1/2+z
-y,-x,1/2+z
1/2+y,1/2+x,1/2+z
loop_
_atom_site_type_symbol
_atom_site_label
_atom_site_fract_x
_atom_site_fract_y
_atom_site_fract_z
Si Si1 0.334024 0.607329 0.939774
Si Si2 0.250000 0.750000 0.500000
Si Si3 0.704223 0.447692 0.325412
Si Si4 0.469364 0.556520 0.844634
Si Si5 0.165862 0.565117 0.282804
Si Si6 0.098576 0.107367 0.828909
Si Si7 0.008736 0.373088 0.074331
Si Si8 0.817447 0.857715 0.025737
O O1 0.262218 0.569674 0.894035
O O2 0.413171 0.612419 0.892649
O O3 0.311880 0.697805 0.954105
O O4 0.358865 0.559391 0.013766
O O5 0.750000 0.468127 0.250000
O O6 0.645920 0.375433 0.308588
O O7 0.655972 0.522706 0.353749
O O8 0.487709 0.610327 0.772145
O O9 0.419862 0.483643 0.814231
O O10 0.538438 0.519932 0.894978
O O11 0.250000 0.587443 0.250000
O O12 0.180974 0.510961 0.354877
O O13 0.136053 0.136053 0.750000
O O14 0.164252 0.108871 0.892487
O O15 0.091557 0.351569 0.040538
O O16 0.725488 0.857092 0.016421
#
# Coordination Sequence:
#
# PCOD8313819 Si02
#       8
#    16   4  16  16  16  16  16  16
#     4  12  27  46  71 112 149 211 236 314 385 468
#     4  12  32  44  70 112 172 180 258 300 392 492
#     4  12  25  44  74 108 157 199 248 304 392 473
#     4  12  25  50  75 106 147 193 267 313 374 457
#     4  12  28  47  76 111 150 200 263 321 392 461
#     4  12  23  44  73 104 143 191 246 308 367 472
#     4  12  26  49  78 105 142 200 261 321 372 462
#     4  11  28  47  68 106 145 184 243 318 395 455
#
# _framework density 22.244738000000002
#
# number of rings (size 3 to 8) (size 9 to 14) (size 15 to 20)
#    0.000    0.138    5.517    2.483    7.724    0.276 
#    0.000    0.690    0.000    0.000    0.000    0.000 
#    0.000    0.000    0.000    0.000    0.000    0.000 
#
# Total GULP energy -1438241.484575 kJ/mol
# GULP energy per Si atom -12398.633488 kJ/mol
# Density = 2.219411 g / cm^3
# Si number density = 22.244738 Si / 1000 Ang^3
#
#
#
# Elastic Constant Matrix: (Units=GPa)
#
#
# Indices 1 2 3 4 5 6 
#
# 1 118.4907 -3.3889 46.0021 0.0000 0.0000 0.0000
# 2 -3.3889 118.4907 46.0021 0.0000 0.0000 0.0000
# 3 46.0021 46.0021 155.7425 0.0000 0.0000 0.0000
# 4 0.0000 0.0000 0.0000 60.7680 0.0000 0.0000
# 5 0.0000 0.0000 0.0000 0.0000 60.7680 0.0000
# 6 0.0000 0.0000 0.0000 0.0000 0.0000 36.5552
#
#
#
# Elastic Compliance Matrix: (Units=1/GPa)
#
#
# Indices 1 2 3 4 5 6 
#
# 1 0.009789 0.001584 -0.003359 0.000000 0.000000 0.000000
# 2 0.001584 0.009789 -0.003359 0.000000 0.000000 0.000000
# 3 -0.003359 -0.003359 0.008405 0.000000 0.000000 0.000000
# 4 0.000000 0.000000 0.000000 0.016456 0.000000 0.000000
# 5 0.000000 0.000000 0.000000 0.000000 0.016456 0.000000
# 6 0.000000 0.000000 0.000000 0.000000 0.000000 0.027356
#
#
# Mechanical properties :
#
#
# Convention : Reuss Voigt Hill
#
# Bulk Modulus (GPa) = 56.45127 63.32827 59.88977
# Shear Modulus (GPa) = 47.88124 51.89214 49.88669
#
# Velocity S-wave (km/s) = 4.64451 4.83513 4.74078
# Velocity P-wave (km/s) = 7.36169 7.72671 7.54640
#
# Compressibility (1/GPa) = 0.01771439
#
# Stress axis : x y z
#
# Youngs Moduli (GPa) = 102.15562 102.15562 118.97180
#
# Poissons Ratio (x) = -0.16183 0.39966
# Poissons Ratio (y) = -0.16183 0.39966
# Poissons Ratio (z) = 0.34317 0.34317
#
# Static dielectric constant tensor:
#      x y z
#    x 4.249820 0.000000 0.000000 
#    y 0.000000 4.249820 0.000000 
#    z 0.000000 0.000000 4.575400 
# 
# 
# High freq. dielectric constant tensor:
#      x y z
#    x 1.876510 0.000000 0.000000 
#    y 0.000000 1.876510 0.000000 
#    z 0.000000 0.000000 1.893270 
# 
# From -- ./inp_files/4614.got.cif
#   From: 2010.03.12/outbox.cif.g09.slc.cpg/sg126_3_cif.got.tgz:4614.got - 2010.04.06 16:55:23.
