data_PCOD8313161
_publ_section_title
;
Structure prediction by ZEFSAII (Michael W. Deem and Ramdas Pophale) SiO2 
 PCOD8313161
Probable space group: P 4/M C C
;
_chemical_formula_sum "Si O2"
_cell_formula_units_Z 64
_cell_length_a 20.153592
_cell_length_b 20.153592
_cell_length_c 8.777747
_cell_angle_alpha 90.000000
_cell_angle_beta 90.000000
_cell_angle_gamma 90.000000
_cell_volume 3565.233540
_symmetry_space_group_name_H-M "P 4/M C C"
_symmetry_group_IT_number 124
_symmetry_cell_setting 'tetragonal'
loop_
_space_group_symop_operation_xyz
x,y,z
-y,x,z
-x,-y,z
y,-x,z
x,-y,1/2-z
-x,y,1/2-z
y,x,1/2-z
-y,-x,1/2-z
-x,-y,-z
y,-x,-z
x,y,-z
-y,x,-z
-x,y,1/2+z
x,-y,1/2+z
-y,-x,1/2+z
y,x,1/2+z
loop_
_atom_site_type_symbol
_atom_site_label
_atom_site_fract_x
_atom_site_fract_y
_atom_site_fract_z
Si Si1 0.500000 0.697599 0.750000
Si Si2 0.639503 0.739216 0.325871
Si Si3 0.730224 0.166303 0.318406
Si Si4 0.395324 0.530779 0.000000
Si Si5 0.071690 0.824431 0.317540
O O1 0.558687 0.739300 0.671828
O O2 0.543481 0.650420 0.856995
O O3 0.674785 0.674785 0.250000
O O4 0.664365 0.742183 0.500000
O O5 0.658223 0.807767 0.236865
O O6 0.778925 0.221076 0.250000
O O7 0.734308 0.160671 0.500000
O O8 0.752049 0.096357 0.242726
O O9 0.418287 0.454721 0.000000
O O10 0.119617 0.880384 0.250000
O O11 0.071305 0.826825 0.500000
O O12 0.000000 0.838929 0.250000
#
# Coordination Sequence:
#
# PCOD8313161 Si02
#       5
#     8  16  16   8  16
#     4  12  24  33  50  70  95 128 174 220 272 324
#     4  11  22  35  52  71  97 130 171 222 275 325
#     4  10  19  33  54  77 103 136 176 220 268 312
#     4  11  22  36  48  64  92 130 169 210 260 328
#     4  11  21  36  56  83 118 153 189 220 256 300
#
# _framework density 17.951138
#
# number of rings (size 3 to 8) (size 9 to 14) (size 15 to 20)
#    0.000    1.125    1.250   10.500    3.500    1.250 
#    0.000    1.250    0.000    0.000    0.000    0.875 
#    0.000    6.000    0.000    0.000    0.000    0.000 
#
# Total GULP energy -793060.518219 kJ/mol
# GULP energy per Si atom -12391.570597 kJ/mol
# Density = 1.791028 g / cm^3
# Si number density = 17.951138 Si / 1000 Ang^3
#
#
#
# Elastic Constant Matrix: (Units=GPa)
#
#
# Indices 1 2 3 4 5 6 
#
# 1 69.6279 48.6571 33.2858 0.0000 0.0000 0.0000
# 2 48.6571 69.6255 33.2868 0.0000 0.0000 0.0000
# 3 33.2858 33.2868 169.2435 0.0000 0.0000 0.0000
# 4 0.0000 0.0000 0.0000 26.7653 0.0000 0.0000
# 5 0.0000 0.0000 0.0000 0.0000 26.7653 0.0000
# 6 0.0000 0.0000 0.0000 0.0000 0.0000 -89.7650
#
#
#
# Elastic Compliance Matrix: (Units=1/GPa)
#
#
# Indices 1 2 3 4 5 6 
#
# 1 0.028597 -0.019091 -0.001869 0.000000 0.000000 0.000000
# 2 -0.019091 0.028598 -0.001870 0.000000 0.000000 0.000000
# 3 -0.001869 -0.001870 0.006644 0.000000 0.000000 0.000000
# 4 0.000000 0.000000 0.000000 0.037362 0.000000 0.000000
# 5 0.000000 0.000000 0.000000 0.000000 0.037362 0.000000
# 6 0.000000 0.000000 0.000000 0.000000 0.000000 -0.011140
#
#
# Mechanical properties :
#
#
# Convention : Reuss Voigt Hill
#
# Bulk Modulus (GPa) = 55.01052 59.88405 57.44729
# Shear Modulus (GPa) = 27.91080 5.63760 16.77420
#
# Velocity S-wave (km/s) = 3.94740 1.77407 3.06017
# Velocity P-wave (km/s) = 7.17545 6.13419 6.67516
#
# Compressibility (1/GPa) = 0.01817834
#
# Stress axis : x y z
#
# Youngs Moduli (GPa) = 34.96905 34.96752 150.50922
#
# Poissons Ratio (x) = 0.66756 0.28137
# Poissons Ratio (y) = 0.66759 0.28145
# Poissons Ratio (z) = 0.06537 0.06539
#
# Static dielectric constant tensor:
#      x y z
#    x 3.494330 0.000000 0.000000 
#    y 0.000000 3.494350 0.000000 
#    z 0.000000 0.000000 3.558720 
# 
# 
# High freq. dielectric constant tensor:
#      x y z
#    x 1.669140 0.000000 0.000000 
#    y 0.000000 1.669140 0.000000 
#    z 0.000000 0.000000 1.723600 
# 
# From -- ./inp_files/892.got.cif
#   From: 2010.03.12/outbox.cif.g09.slc.cpg/sg124_1_cif.got.tgz:892.got - 2010.04.06 16:38:57.
