data_PCOD8313848
_publ_section_title
;
Structure prediction by ZEFSAII (Michael W. Deem and Ramdas Pophale) SiO2 
 PCOD8313848
Probable space group: P 4/M B M
;
_chemical_formula_sum "Si O2"
_cell_formula_units_Z 120
_cell_length_a 29.194682
_cell_length_b 29.194682
_cell_length_c 8.790025
_cell_angle_alpha 90.000000
_cell_angle_beta 90.000000
_cell_angle_gamma 90.000000
_cell_volume 7491.997236
_symmetry_space_group_name_H-M "P 4/M B M"
_symmetry_group_IT_number 127
_symmetry_cell_setting 'tetragonal'
loop_
_space_group_symop_operation_xyz
x,y,z
-y,x,z
-x,-y,z
y,-x,z
1/2+x,1/2-y,-z
1/2-x,1/2+y,-z
1/2+y,1/2+x,-z
1/2-y,1/2-x,-z
-x,-y,-z
y,-x,-z
x,y,-z
-y,x,-z
1/2-x,1/2+y,z
1/2+x,1/2-y,z
1/2-y,1/2-x,z
1/2+y,1/2+x,z
loop_
_atom_site_type_symbol
_atom_site_label
_atom_site_fract_x
_atom_site_fract_y
_atom_site_fract_z
Si Si1 0.155503 0.272471 0.320867
Si Si2 0.461445 0.038556 0.328243
Si Si3 0.896394 0.526740 0.172500
Si Si4 0.685824 0.627638 0.168614
Si Si5 0.781744 0.023732 0.829171
Si Si6 0.304056 0.943747 0.679080
Si Si7 0.501427 0.629285 0.679383
Si Si8 0.908142 0.090171 0.180990
O O1 0.157544 0.273771 0.500000
O O2 0.197671 0.302330 0.252891
O O3 0.159097 0.219189 0.270722
O O4 0.108062 0.294907 0.262598
O O5 0.447844 0.052157 0.500000
O O6 0.479788 0.083151 0.240031
O O7 0.500000 0.000000 0.329704
O O8 0.933995 0.566006 0.179205
O O9 0.854735 0.542099 0.276701
O O10 0.880077 0.518099 0.000000
O O11 0.703333 0.576065 0.170361
O O12 0.633109 0.625483 0.225337
O O13 0.688002 0.648396 0.000000
O O14 0.731361 0.020710 0.755854
O O15 0.817536 0.994770 0.728642
O O16 0.780709 0.003603 0.000000
O O17 0.297478 0.946756 0.500000
O O18 0.492445 0.625560 0.500000
O O19 0.548186 0.604554 0.723044
O O20 0.461236 0.604433 0.771510
O O21 0.917195 0.091164 0.000000
#
# Coordination Sequence:
#
# PCOD8313848 Si02
#       8
#    16   8  16  16  16  16  16  16
#     4   9  17  27  40  61  90 121 150 182 222 265
#     4   9  17  29  43  57  77 109 147 187 229 271
#     4  10  19  29  41  59  85 117 152 189 230 278
#     4   8  16  29  45  63  85 116 151 182 215 258
#     4   9  17  31  47  64  89 120 149 180 222 268
#     4  10  18  28  43  63  88 118 153 191 227 266
#     4  11  21  33  50  73  96 120 154 193 230 271
#     4  10  20  35  51  68  93 126 158 190 232 276
#
# _framework density 16.01709
#
# number of rings (size 3 to 8) (size 9 to 14) (size 15 to 20)
#    0.000    2.467    0.000    4.200    0.000    6.933 
#    0.000    1.333    0.000    0.000    0.000    0.000 
#    2.000    0.000    2.800    0.000    2.267    0.000 
#
# Total GULP energy -1487622.915925 kJ/mol
# GULP energy per Si atom -12396.857633 kJ/mol
# Density = 1.598063 g / cm^3
# Si number density = 16.017090 Si / 1000 Ang^3
#
#
#
# Elastic Constant Matrix: (Units=GPa)
#
#
# Indices 1 2 3 4 5 6 
#
# 1 60.0225 32.4837 17.4820 0.0000 0.0000 0.0000
# 2 32.4837 60.0223 17.4821 0.0000 0.0000 0.0000
# 3 17.4820 17.4821 61.3231 0.0000 0.0000 0.0000
# 4 0.0000 0.0000 0.0000 26.3702 0.0000 0.0000
# 5 0.0000 0.0000 0.0000 0.0000 26.3702 0.0000
# 6 0.0000 0.0000 0.0000 0.0000 0.0000 14.2157
#
#
#
# Elastic Compliance Matrix: (Units=1/GPa)
#
#
# Indices 1 2 3 4 5 6 
#
# 1 0.024214 -0.012098 -0.003454 0.000000 0.000000 0.000000
# 2 -0.012098 0.024214 -0.003454 0.000000 0.000000 0.000000
# 3 -0.003454 -0.003454 0.018276 0.000000 0.000000 0.000000
# 4 0.000000 0.000000 0.000000 0.037922 0.000000 0.000000
# 5 0.000000 0.000000 0.000000 0.000000 0.037922 0.000000
# 6 0.000000 0.000000 0.000000 0.000000 0.000000 0.070345
#
#
# Mechanical properties :
#
#
# Convention : Reuss Voigt Hill
#
# Bulk Modulus (GPa) = 34.85313 35.14037 34.99675
# Shear Modulus (GPa) = 19.19615 20.98590 20.09103
#
# Velocity S-wave (km/s) = 3.46566 3.62362 3.54552
# Velocity P-wave (km/s) = 6.14993 6.28446 6.21756
#
# Compressibility (1/GPa) = 0.02869183
#
# Stress axis : x y z
#
# Youngs Moduli (GPa) = 41.29843 41.29827 54.71546
#
# Poissons Ratio (x) = 0.49965 0.18898
# Poissons Ratio (y) = 0.49965 0.18898
# Poissons Ratio (z) = 0.14264 0.14264
#
# Static dielectric constant tensor:
#      x y z
#    x 3.006490 0.000000 0.000000 
#    y 0.000000 3.006490 0.000000 
#    z 0.000000 0.000000 3.167030 
# 
# 
# High freq. dielectric constant tensor:
#      x y z
#    x 1.591390 0.000000 0.000000 
#    y 0.000000 1.591390 0.000000 
#    z 0.000000 0.000000 1.628450 
# 
# From -- ./inp_files/2432.got.cif
#   From: 2010.03.12/outbox.cif.g09.slc.cpg/sg127_2_cif.got.tgz:2432.got - 2010.04.06 17:03:15.
