data_PCOD8313643
_publ_section_title
;
Structure prediction by ZEFSAII (Michael W. Deem and Ramdas Pophale) SiO2 
 PCOD8313643
Probable space group: P 4/N N C
;
_chemical_formula_sum "Si O2"
_cell_formula_units_Z 56
_cell_length_a 13.159984
_cell_length_b 13.159984
_cell_length_c 17.347244
_cell_angle_alpha 90.000000
_cell_angle_beta 90.000000
_cell_angle_gamma 90.000000
_cell_volume 3004.285555
_symmetry_space_group_name_H-M "P 4/N N C"
_symmetry_group_IT_number 126
_space_group.IT_coordinate_system_code '2'
_symmetry_cell_setting 'tetragonal'
loop_
_space_group_symop_operation_xyz
x,y,z
1/2-y,x,z
1/2-x,1/2-y,z
y,1/2-x,z
x,1/2-y,1/2-z
1/2-x,y,1/2-z
y,x,1/2-z
1/2-y,1/2-x,1/2-z
-x,-y,-z
1/2+y,-x,-z
1/2+x,1/2+y,-z
-y,1/2+x,-z
-x,1/2+y,1/2+z
1/2+x,-y,1/2+z
-y,-x,1/2+z
1/2+y,1/2+x,1/2+z
loop_
_atom_site_type_symbol
_atom_site_label
_atom_site_fract_x
_atom_site_fract_y
_atom_site_fract_z
Si Si1 0.907841 0.295996 0.484457
Si Si2 0.591088 0.704035 0.096579
Si Si3 0.691675 0.355566 0.678732
Si Si4 0.491632 0.750000 0.250000
O O1 0.875910 0.181145 0.500244
O O2 0.932803 0.306783 0.393183
O O3 0.002391 0.325940 0.537404
O O4 0.681069 0.625582 0.080618
O O5 0.559009 0.691721 0.186232
O O6 0.750000 0.250000 0.656032
O O7 0.750000 0.408350 0.750000
O O8 0.576690 0.331137 0.703386
#
# Coordination Sequence:
#
# PCOD8313643 Si02
#       4
#    16  16  16   8
#     4  11  18  35  58  85 110 143 188 234 283 327
#     4  11  24  38  55  80 117 156 186 225 277 334
#     4   9  16  29  55  83 110 141 178 232 283 327
#     4  10  17  35  54  80 110 148 186 222 274 332
#
# _framework density 18.640039999999999
#
# number of rings (size 3 to 8) (size 9 to 14) (size 15 to 20)
#    0.000    2.000    5.714    2.571    0.000    2.286 
#    0.000    0.000    0.000    0.000    0.000    2.000 
#    0.000    0.000    0.000    0.000    0.000    0.000 
#
# Total GULP energy -694272.853260 kJ/mol
# GULP energy per Si atom -12397.729523 kJ/mol
# Density = 1.859761 g / cm^3
# Si number density = 18.640040 Si / 1000 Ang^3
#
#
#
# Elastic Constant Matrix: (Units=GPa)
#
#
# Indices 1 2 3 4 5 6 
#
# 1 49.7287 -0.9970 10.0164 0.0000 0.0000 0.0000
# 2 -0.9970 49.7287 10.0164 0.0000 0.0000 0.0000
# 3 10.0164 10.0164 149.1930 0.0000 0.0000 0.0000
# 4 0.0000 0.0000 0.0000 18.7333 0.0000 0.0000
# 5 0.0000 0.0000 0.0000 0.0000 18.7333 0.0000
# 6 0.0000 0.0000 0.0000 0.0000 0.0000 8.6128
#
#
#
# Elastic Compliance Matrix: (Units=1/GPa)
#
#
# Indices 1 2 3 4 5 6 
#
# 1 0.020408 0.000695 -0.001417 0.000000 0.000000 0.000000
# 2 0.000695 0.020408 -0.001417 0.000000 0.000000 0.000000
# 3 -0.001417 -0.001417 0.006893 0.000000 0.000000 0.000000
# 4 0.000000 0.000000 0.000000 0.053381 0.000000 0.000000
# 5 0.000000 0.000000 0.000000 0.000000 0.053381 0.000000
# 6 0.000000 0.000000 0.000000 0.000000 0.000000 0.116106
#
#
# Mechanical properties :
#
#
# Convention : Reuss Voigt Hill
#
# Bulk Modulus (GPa) = 23.02468 31.85803 27.44135
# Shear Modulus (GPa) = 17.28112 24.52350 20.90231
#
# Velocity S-wave (km/s) = 3.04813 3.63110 3.35231
# Velocity P-wave (km/s) = 4.97667 5.89136 5.45323
#
# Compressibility (1/GPa) = 0.04343166
#
# Stress axis : x y z
#
# Youngs Moduli (GPa) = 48.99937 48.99937 145.07539
#
# Poissons Ratio (x) = -0.03403 0.20554
# Poissons Ratio (y) = -0.03403 0.20554
# Poissons Ratio (z) = 0.06942 0.06942
#
# Static dielectric constant tensor:
#      x y z
#    x 3.131080 0.000000 0.000000 
#    y 0.000000 3.131080 0.000000 
#    z 0.000000 0.000000 3.810330 
# 
# 
# High freq. dielectric constant tensor:
#      x y z
#    x 1.691250 0.000000 0.000000 
#    y 0.000000 1.691250 0.000000 
#    z 0.000000 0.000000 1.747420 
# 
# From -- ./inp_files/4194.got.cif
#   From: 2010.03.12/outbox.cif.g09.slc.cpg/sg126_3_cif.got.tgz:4194.got - 2010.04.06 16:55:23.
