data_PCOD8313527
_publ_section_title
;
Structure prediction by ZEFSAII (Michael W. Deem and Ramdas Pophale) SiO2 
 PCOD8313527
Probable space group: P 4/N B M
;
_chemical_formula_sum "Si O2"
_cell_formula_units_Z 48
_cell_length_a 14.461684
_cell_length_b 14.461684
_cell_length_c 11.565119
_cell_angle_alpha 90.000000
_cell_angle_beta 90.000000
_cell_angle_gamma 90.000000
_cell_volume 2418.732505
_symmetry_space_group_name_H-M "P 4/N B M"
_symmetry_group_IT_number 125
_space_group.IT_coordinate_system_code '2'
_symmetry_cell_setting 'tetragonal'
loop_
_space_group_symop_operation_xyz
x,y,z
1/2-y,x,z
1/2-x,1/2-y,z
y,1/2-x,z
x,1/2-y,-z
1/2-x,y,-z
y,x,-z
1/2-y,1/2-x,-z
-x,-y,-z
1/2+y,-x,-z
1/2+x,1/2+y,-z
-y,1/2+x,-z
-x,1/2+y,z
1/2+x,-y,z
-y,-x,z
1/2+y,1/2+x,z
loop_
_atom_site_type_symbol
_atom_site_label
_atom_site_fract_x
_atom_site_fract_y
_atom_site_fract_z
Si Si1 0.008145 0.142912 0.314926
Si Si2 0.648953 0.993378 0.945482
Si Si3 0.643794 0.643794 0.500000
Si Si4 0.750000 0.101150 0.500000
O O1 0.943339 0.056662 0.300415
O O2 0.960481 0.224921 0.388690
O O3 0.033803 0.174552 0.186386
O O4 0.097910 0.104174 0.383315
O O5 0.587407 0.087407 0.956885
O O6 0.750000 0.009703 0.000000
O O7 0.593060 0.906941 0.000000
O O8 0.750000 0.620335 0.500000
O O9 0.663274 0.163274 0.461515
#
# Coordination Sequence:
#
# PCOD8313527 Si02
#       4
#    16  16   8   8
#     4  10  21  39  61  88 119 157 200 248 311 364
#     4  10  24  43  64  93 127 168 218 263 311 375
#     4  11  23  36  54  86 121 155 196 244 300 363
#     4   9  18  34  59  90 118 148 195 252 308 367
#
# _framework density 19.845106000000001
#
# number of rings (size 3 to 8) (size 9 to 14) (size 15 to 20)
#    0.000    2.000    1.667    0.500    4.667    2.000 
#    0.000    3.333    0.000    0.000    0.000    0.000 
#    0.000    0.000    0.000    0.000    0.000    0.000 
#
# Total GULP energy -594772.217928 kJ/mol
# GULP energy per Si atom -12391.087873 kJ/mol
# Density = 1.979994 g / cm^3
# Si number density = 19.845106 Si / 1000 Ang^3
#
#
#
# Elastic Constant Matrix: (Units=GPa)
#
#
# Indices 1 2 3 4 5 6 
#
# 1 100.5948 39.4965 66.2983 0.0000 0.0000 0.0000
# 2 39.4965 100.5951 66.2991 0.0000 0.0000 0.0000
# 3 66.2983 66.2991 203.5853 0.0000 0.0000 0.0000
# 4 0.0000 0.0000 0.0000 36.3662 0.0000 0.0000
# 5 0.0000 0.0000 0.0000 0.0000 36.3661 0.0000
# 6 0.0000 0.0000 0.0000 0.0000 0.0000 -8.9950
#
#
#
# Elastic Compliance Matrix: (Units=1/GPa)
#
#
# Indices 1 2 3 4 5 6 
#
# 1 0.013343 -0.003024 -0.003360 0.000000 0.000000 0.000000
# 2 -0.003024 0.013343 -0.003360 0.000000 0.000000 0.000000
# 3 -0.003360 -0.003360 0.007101 0.000000 0.000000 0.000000
# 4 0.000000 0.000000 0.000000 0.027498 0.000000 0.000000
# 5 0.000000 0.000000 0.000000 0.000000 0.027498 0.000000
# 6 0.000000 0.000000 0.000000 0.000000 0.000000 -0.111172
#
#
# Mechanical properties :
#
#
# Convention : Reuss Voigt Hill
#
# Bulk Modulus (GPa) = 69.94616 83.21809 76.58212
# Shear Modulus (GPa) = 2680.23854 28.25956 1354.24905
#
# Velocity S-wave (km/s) = 36.79010 3.77769 26.15131
# Velocity P-wave (km/s) = 42.89527 7.81363 30.83064
#
# Compressibility (1/GPa) = 0.01429671
#
# Stress axis : x y z
#
# Youngs Moduli (GPa) = 74.94619 74.94605 140.83321
#
# Poissons Ratio (x) = 0.22664 0.47325
# Poissons Ratio (y) = 0.22665 0.47326
# Poissons Ratio (z) = 0.25184 0.25185
#
# Static dielectric constant tensor:
#      x y z
#    x 3.659210 0.000000 0.000000 
#    y 0.000000 3.659200 0.000000 
#    z 0.000000 0.000000 0.506870 
# 
# 
# High freq. dielectric constant tensor:
#      x y z
#    x 1.778260 0.000000 0.000000 
#    y 0.000000 1.778260 0.000000 
#    z 0.000000 0.000000 1.777700 
# 
# From -- ./inp_files/3466.got.cif
#   From: 2010.03.12/outbox.cif.g09.slc.cpg/sg125_2_cif.got.tgz:3466.got - 2010.04.06 16:47:52.
