data_PCOD8313983
_publ_section_title
;
Structure prediction by ZEFSAII (Michael W. Deem and Ramdas Pophale) SiO2 
 PCOD8313983
Probable space group: P 4/M B M
;
_chemical_formula_sum "Si O2"
_cell_formula_units_Z 56
_cell_length_a 17.638607
_cell_length_b 17.638607
_cell_length_c 8.110386
_cell_angle_alpha 90.000000
_cell_angle_beta 90.000000
_cell_angle_gamma 90.000000
_cell_volume 2523.306998
_symmetry_space_group_name_H-M "P 4/M B M"
_symmetry_group_IT_number 127
_symmetry_cell_setting 'tetragonal'
loop_
_space_group_symop_operation_xyz
x,y,z
-y,x,z
-x,-y,z
y,-x,z
1/2+x,1/2-y,-z
1/2-x,1/2+y,-z
1/2+y,1/2+x,-z
1/2-y,1/2-x,-z
-x,-y,-z
y,-x,-z
x,y,-z
-y,x,-z
1/2-x,1/2+y,z
1/2+x,1/2-y,z
1/2-y,1/2-x,z
1/2+y,1/2+x,z
loop_
_atom_site_type_symbol
_atom_site_label
_atom_site_fract_x
_atom_site_fract_y
_atom_site_fract_z
Si Si1 0.706266 0.324267 0.310986
Si Si2 0.502672 0.125035 0.500000
Si Si3 0.068310 0.099137 0.805328
Si Si4 0.557269 0.818563 0.179768
O O1 0.723017 0.343871 0.500000
O O2 0.740215 0.240215 0.270388
O O3 0.616524 0.331247 0.272211
O O4 0.747986 0.386441 0.199914
O O5 0.582007 0.082007 0.500000
O O6 0.500911 0.176552 0.333789
O O7 0.431312 0.068689 0.500000
O O8 0.981259 0.104212 0.745456
O O9 0.070790 0.104857 0.000000
O O10 0.603686 0.896315 0.175859
O O11 0.516198 0.808418 0.000000
#
# Coordination Sequence:
#
# PCOD8313983 Si02
#       4
#    16   8  16  16
#     4  10  19  32  53  82 114 147 189 240 289 344
#     4   9  16  26  40  62  94 129 172 228 283 338
#     4   9  19  36  57  84 118 152 189 239 297 354
#     4   9  16  27  44  67  97 134 177 226 279 331
#
# _framework density 22.193097000000002
#
# number of rings (size 3 to 8) (size 9 to 14) (size 15 to 20)
#    0.000    2.714    1.429    1.714    0.000    3.429 
#    0.000    4.286    0.000    1.714    0.000    4.000 
#    0.000    0.000    0.000    0.000    0.000    0.000 
#
# Total GULP energy -693887.764524 kJ/mol
# GULP energy per Si atom -12390.852938 kJ/mol
# Density = 2.214258 g / cm^3
# Si number density = 22.193097 Si / 1000 Ang^3
#
#
#
# Elastic Constant Matrix: (Units=GPa)
#
#
# Indices 1 2 3 4 5 6 
#
# 1 61.5233 37.2256 14.4304 0.0000 0.0000 0.0000
# 2 37.2256 61.5231 14.4304 0.0000 0.0000 0.0000
# 3 14.4304 14.4304 123.2640 0.0000 0.0000 0.0000
# 4 0.0000 0.0000 0.0000 21.8418 0.0000 0.0000
# 5 0.0000 0.0000 0.0000 0.0000 21.8418 0.0000
# 6 0.0000 0.0000 0.0000 0.0000 0.0000 28.8174
#
#
#
# Elastic Compliance Matrix: (Units=1/GPa)
#
#
# Indices 1 2 3 4 5 6 
#
# 1 0.025821 -0.015335 -0.001228 0.000000 0.000000 0.000000
# 2 -0.015335 0.025821 -0.001228 0.000000 0.000000 0.000000
# 3 -0.001228 -0.001228 0.008400 0.000000 0.000000 0.000000
# 4 0.000000 0.000000 0.000000 0.045784 0.000000 0.000000
# 5 0.000000 0.000000 0.000000 0.000000 0.045784 0.000000
# 6 0.000000 0.000000 0.000000 0.000000 0.000000 0.034701
#
#
# Mechanical properties :
#
#
# Convention : Reuss Voigt Hill
#
# Bulk Modulus (GPa) = 40.88151 42.05366 41.46758
# Shear Modulus (GPa) = 21.73487 26.51515 24.12501
#
# Velocity S-wave (km/s) = 3.13286 3.46026 3.30062
# Velocity P-wave (km/s) = 5.61669 5.91225 5.76636
#
# Compressibility (1/GPa) = 0.02446094
#
# Stress axis : x y z
#
# Youngs Moduli (GPa) = 38.72841 38.72831 119.04652
#
# Poissons Ratio (x) = 0.59391 0.14613
# Poissons Ratio (y) = 0.59392 0.14613
# Poissons Ratio (z) = 0.04754 0.04754
#
# Static dielectric constant tensor:
#      x y z
#    x 3.814460 0.000000 0.000000 
#    y 0.000000 3.814460 0.000000 
#    z 0.000000 0.000000 4.180640 
# 
# 
# High freq. dielectric constant tensor:
#      x y z
#    x 1.839720 0.000000 0.000000 
#    y 0.000000 1.839720 0.000000 
#    z 0.000000 0.000000 1.881930 
# 
# From -- ./inp_files/1071.got.cif
#   From: 2010.03.12/outbox.cif.g09.slc.cpg/sg127_1_cif.got.tgz:1071.got - 2010.04.06 17:03:15.
