data_PCOD8313779
_publ_section_title
;
Structure prediction by ZEFSAII (Michael W. Deem and Ramdas Pophale) SiO2 
 PCOD8313779
Probable space group: P 4/N N C
;
_chemical_formula_sum "Si O2"
_cell_formula_units_Z 80
_cell_length_a 11.208838
_cell_length_b 11.208838
_cell_length_c 32.396823
_cell_angle_alpha 90.000000
_cell_angle_beta 90.000000
_cell_angle_gamma 90.000000
_cell_volume 4070.273646
_symmetry_space_group_name_H-M "P 4/N N C"
_symmetry_group_IT_number 126
_space_group.IT_coordinate_system_code '2'
_symmetry_cell_setting 'tetragonal'
loop_
_space_group_symop_operation_xyz
x,y,z
1/2-y,x,z
1/2-x,1/2-y,z
y,1/2-x,z
x,1/2-y,1/2-z
1/2-x,y,1/2-z
y,x,1/2-z
1/2-y,1/2-x,1/2-z
-x,-y,-z
1/2+y,-x,-z
1/2+x,1/2+y,-z
-y,1/2+x,-z
-x,1/2+y,1/2+z
1/2+x,-y,1/2+z
-y,-x,1/2+z
1/2+y,1/2+x,1/2+z
loop_
_atom_site_type_symbol
_atom_site_label
_atom_site_fract_x
_atom_site_fract_y
_atom_site_fract_z
Si Si1 0.633019 0.325140 0.135869
Si Si2 0.768812 0.557880 0.797564
Si Si3 0.735310 0.060702 0.492726
Si Si4 0.199531 0.441402 0.593678
Si Si5 0.736682 0.938991 0.926335
O O1 0.750000 0.250000 0.140385
O O2 0.560203 0.299064 0.177308
O O3 0.667047 0.464412 0.129719
O O4 0.564908 0.274597 0.095983
O O5 0.877476 0.645606 0.809109
O O6 0.750000 0.523178 0.750000
O O7 0.635357 0.143783 0.514313
O O8 0.685488 0.006371 0.450372
O O9 0.763206 0.954126 0.524310
O O10 0.105598 0.334180 0.598020
O O11 0.624766 0.858615 0.912636
#
# Coordination Sequence:
#
# PCOD8313779 Si02
#       5
#    16  16  16  16  16
#     4  12  25  38  64  95 129 161 210 259 310 374
#     4   9  20  42  72 103 133 161 193 249 322 381
#     4  11  22  37  59  86 118 161 217 273 321 370
#     4  11  26  43  59  84 125 177 219 258 313 378
#     4  11  24  39  60  88 117 159 214 272 327 370
#
# _framework density 19.654699999999998
#
# number of rings (size 3 to 8) (size 9 to 14) (size 15 to 20)
#    0.000    1.200    2.000    4.200    8.400    5.200 
#    0.000    0.000    0.000    0.000    0.000    0.000 
#    0.000    0.000    0.000    0.000    0.000    0.000 
#
# Total GULP energy -992017.453670 kJ/mol
# GULP energy per Si atom -12400.218171 kJ/mol
# Density = 1.960997 g / cm^3
# Si number density = 19.654700 Si / 1000 Ang^3
#
#
#
# Elastic Constant Matrix: (Units=GPa)
#
#
# Indices 1 2 3 4 5 6 
#
# 1 133.6950 68.1391 60.8291 0.0000 0.0000 0.0000
# 2 68.1391 133.6950 60.8291 0.0000 0.0000 0.0000
# 3 60.8291 60.8291 87.2435 0.0000 0.0000 0.0000
# 4 0.0000 0.0000 0.0000 34.0750 0.0000 0.0000
# 5 0.0000 0.0000 0.0000 0.0000 34.0750 0.0000
# 6 0.0000 0.0000 0.0000 0.0000 0.0000 25.9610
#
#
#
# Elastic Compliance Matrix: (Units=1/GPa)
#
#
# Indices 1 2 3 4 5 6 
#
# 1 0.011900 -0.003354 -0.005959 0.000000 0.000000 0.000000
# 2 -0.003354 0.011900 -0.005959 0.000000 0.000000 0.000000
# 3 -0.005959 -0.005959 0.019771 0.000000 0.000000 0.000000
# 4 0.000000 0.000000 0.000000 0.029347 0.000000 0.000000
# 5 0.000000 0.000000 0.000000 0.000000 0.029347 0.000000
# 6 0.000000 0.000000 0.000000 0.000000 0.000000 0.038519
#
#
# Mechanical properties :
#
#
# Convention : Reuss Voigt Hill
#
# Bulk Modulus (GPa) = 76.75184 81.58092 79.16638
# Shear Modulus (GPa) = 28.46225 29.81126 29.13675
#
# Velocity S-wave (km/s) = 3.80954 3.89877 3.85441
# Velocity P-wave (km/s) = 7.64755 7.86539 7.75724
#
# Compressibility (1/GPa) = 0.01302900
#
# Stress axis : x y z
#
# Youngs Moduli (GPa) = 84.03205 84.03205 50.57790
#
# Poissons Ratio (x) = 0.28184 0.30138
# Poissons Ratio (y) = 0.28184 0.30138
# Poissons Ratio (z) = 0.50073 0.50073
#
# Static dielectric constant tensor:
#      x y z
#    x 3.662410 0.000000 0.000000 
#    y 0.000000 3.662410 0.000000 
#    z 0.000000 0.000000 3.447500 
# 
# 
# High freq. dielectric constant tensor:
#      x y z
#    x 1.774740 0.000000 0.000000 
#    y 0.000000 1.774740 0.000000 
#    z 0.000000 0.000000 1.744580 
# 
# From -- ./inp_files/6407.got.cif
#   From: 2010.03.12/outbox.cif.g09.slc.cpg/sg126_4_cif.got.tgz:6407.got - 2010.04.06 16:55:23.
