data_PCOD8313396
_publ_section_title
;
Structure prediction by ZEFSAII (Michael W. Deem and Ramdas Pophale) SiO2 
 PCOD8313396
Probable space group: P 4/M C C
;
_chemical_formula_sum "Si O2"
_cell_formula_units_Z 72
_cell_length_a 11.143074
_cell_length_b 11.143074
_cell_length_c 30.517861
_cell_angle_alpha 90.000000
_cell_angle_beta 90.000000
_cell_angle_gamma 90.000000
_cell_volume 3789.344761
_symmetry_space_group_name_H-M "P 4/M C C"
_symmetry_group_IT_number 124
_symmetry_cell_setting 'tetragonal'
loop_
_space_group_symop_operation_xyz
x,y,z
-y,x,z
-x,-y,z
y,-x,z
x,-y,1/2-z
-x,y,1/2-z
y,x,1/2-z
-y,-x,1/2-z
-x,-y,-z
y,-x,-z
x,y,-z
-y,x,-z
-x,y,1/2+z
x,-y,1/2+z
-y,-x,1/2+z
y,x,1/2+z
loop_
_atom_site_type_symbol
_atom_site_label
_atom_site_fract_x
_atom_site_fract_y
_atom_site_fract_z
Si Si1 0.687509 0.431007 0.595329
Si Si2 0.432859 0.315068 0.500000
Si Si3 0.195335 0.992925 0.800321
Si Si4 0.803871 0.019648 0.950577
Si Si5 0.935535 0.374892 0.373786
O O1 0.651372 0.570251 0.601916
O O2 0.749109 0.408672 0.546762
O O3 0.791007 0.393498 0.629292
O O4 0.570060 0.349851 0.500000
O O5 0.312421 0.983001 0.829892
O O6 0.113055 0.878237 0.811051
O O7 0.236361 0.000000 0.750000
O O8 0.697778 0.025551 0.916328
O O9 0.894402 0.128942 0.942827
O O10 0.751869 0.025279 0.000000
O O11 0.000000 0.500000 0.377618
#
# Coordination Sequence:
#
# PCOD8313396 Si02
#       5
#    16   8  16  16  16
#     4   9  20  37  54  76 115 165 207 238 278 335
#     4   7  12  30  53  68  94 151 212 240 258 299
#     4   9  20  42  70  91 110 142 186 239 299 356
#     4   9  20  40  60  79 114 162 202 244 300 349
#     4  12  25  33  56  92 122 147 191 240 295 343
#
# _framework density 19.000647000000001
#
# number of rings (size 3 to 8) (size 9 to 14) (size 15 to 20)
#    0.000    2.556    0.000    4.000    7.778    2.667 
#    0.000    0.000    0.000    0.000    0.000    0.000 
#    0.000    0.000    0.000    0.000    0.000    0.000 
#
# Total GULP energy -892349.443672 kJ/mol
# GULP energy per Si atom -12393.742273 kJ/mol
# Density = 1.895740 g / cm^3
# Si number density = 19.000647 Si / 1000 Ang^3
#
#
#
# Elastic Constant Matrix: (Units=GPa)
#
#
# Indices 1 2 3 4 5 6 
#
# 1 102.2333 39.4379 68.4212 0.0000 0.0000 0.0000
# 2 39.4379 102.2333 68.4212 0.0000 0.0000 0.0000
# 3 68.4212 68.4212 109.1875 0.0000 0.0000 0.0000
# 4 0.0000 0.0000 0.0000 27.9114 0.0000 0.0000
# 5 0.0000 0.0000 0.0000 0.0000 27.9114 0.0000
# 6 0.0000 0.0000 0.0000 0.0000 0.0000 15.2313
#
#
#
# Elastic Compliance Matrix: (Units=1/GPa)
#
#
# Indices 1 2 3 4 5 6 
#
# 1 0.016904 0.000979 -0.011206 0.000000 0.000000 0.000000
# 2 0.000979 0.016904 -0.011206 0.000000 0.000000 0.000000
# 3 -0.011206 -0.011206 0.023203 0.000000 0.000000 0.000000
# 4 0.000000 0.000000 0.000000 0.035828 0.000000 0.000000
# 5 0.000000 0.000000 0.000000 0.000000 0.035828 0.000000
# 6 0.000000 0.000000 0.000000 0.000000 0.000000 0.065654
#
#
# Mechanical properties :
#
#
# Convention : Reuss Voigt Hill
#
# Bulk Modulus (GPa) = 70.70060 74.02384 72.36222
# Shear Modulus (GPa) = 20.66970 23.36907 22.01938
#
# Velocity S-wave (km/s) = 3.30182 3.51081 3.40792
# Velocity P-wave (km/s) = 7.19906 7.44833 7.32475
#
# Compressibility (1/GPa) = 0.01414415
#
# Stress axis : x y z
#
# Youngs Moduli (GPa) = 59.15883 59.15883 43.09846
#
# Poissons Ratio (x) = -0.05791 0.48296
# Poissons Ratio (y) = -0.05791 0.48296
# Poissons Ratio (z) = 0.66293 0.66293
#
# Static dielectric constant tensor:
#      x y z
#    x 3.364580 0.000000 0.000000 
#    y 0.000000 3.364580 0.000000 
#    z 0.000000 0.000000 3.495830 
# 
# 
# High freq. dielectric constant tensor:
#      x y z
#    x 1.732540 0.000000 0.000000 
#    y 0.000000 1.732540 0.000000 
#    z 0.000000 0.000000 1.725440 
# 
# From -- ./inp_files/6466.got.cif
#   From: 2010.03.12/outbox.cif.g09.slc.cpg/sg124_4_cif.got.tgz:6466.got - 2010.04.06 16:38:57.
