data_PCOD8313695
_publ_section_title
;
Structure prediction by ZEFSAII (Michael W. Deem and Ramdas Pophale) SiO2 
 PCOD8313695
Probable space group: P 4/N N C
;
_chemical_formula_sum "Si O2"
_cell_formula_units_Z 48
_cell_length_a 16.432815
_cell_length_b 16.432815
_cell_length_c 8.713247
_cell_angle_alpha 90.000000
_cell_angle_beta 90.000000
_cell_angle_gamma 90.000000
_cell_volume 2352.902642
_symmetry_space_group_name_H-M "P 4/N N C"
_symmetry_group_IT_number 126
_space_group.IT_coordinate_system_code '2'
_symmetry_cell_setting 'tetragonal'
loop_
_space_group_symop_operation_xyz
x,y,z
1/2-y,x,z
1/2-x,1/2-y,z
y,1/2-x,z
x,1/2-y,1/2-z
1/2-x,y,1/2-z
y,x,1/2-z
1/2-y,1/2-x,1/2-z
-x,-y,-z
1/2+y,-x,-z
1/2+x,1/2+y,-z
-y,1/2+x,-z
-x,1/2+y,1/2+z
1/2+x,-y,1/2+z
-y,-x,1/2+z
1/2+y,1/2+x,1/2+z
loop_
_atom_site_type_symbol
_atom_site_label
_atom_site_fract_x
_atom_site_fract_y
_atom_site_fract_z
Si Si1 0.122496 0.015565 0.462480
Si Si2 0.271359 0.633132 0.424867
Si Si3 0.022927 0.022927 0.750000
Si Si4 0.344195 0.155806 0.250000
O O1 0.101990 0.021136 0.642007
O O2 0.126464 0.108248 0.401376
O O3 0.204582 0.961836 0.446623
O O4 0.055113 0.970260 0.359730
O O5 0.250000 0.651051 0.250000
O O6 0.191611 0.653586 0.526206
O O7 0.364011 0.250000 0.250000
#
# Coordination Sequence:
#
# PCOD8313695 Si02
#       4
#    16  16   8   8
#     4  10  20  38  59  84 120 157 195 249 304 354
#     4  11  22  36  56  88 125 159 197 240 300 380
#     4   9  20  35  58  90 116 153 208 243 292 378
#     4  10  22  41  62  82 108 149 202 252 304 360
#
# _framework density 20.400333
#
# number of rings (size 3 to 8) (size 9 to 14) (size 15 to 20)
#    0.000    1.833    0.000    5.000    0.000    5.333 
#    0.000    5.000    0.000    2.000    0.000    0.000 
#    0.000    0.000    0.000    0.000    0.000    0.000 
#
# Total GULP energy -595008.878147 kJ/mol
# GULP energy per Si atom -12396.018295 kJ/mol
# Density = 2.035390 g / cm^3
# Si number density = 20.400333 Si / 1000 Ang^3
#
#
#
# Elastic Constant Matrix: (Units=GPa)
#
#
# Indices 1 2 3 4 5 6 
#
# 1 71.3404 67.3184 52.3591 0.0000 0.0000 0.0000
# 2 67.3184 71.3524 52.3608 0.0000 0.0000 0.0000
# 3 52.3591 52.3608 171.7875 0.0000 0.0000 0.0000
# 4 0.0000 0.0000 0.0000 11.9954 0.0000 0.0000
# 5 0.0000 0.0000 0.0000 0.0000 11.9938 0.0000
# 6 0.0000 0.0000 0.0000 0.0000 0.0000 36.4494
#
#
#
# Elastic Compliance Matrix: (Units=1/GPa)
#
#
# Indices 1 2 3 4 5 6 
#
# 1 0.128828 -0.119448 -0.002858 0.000000 0.000000 0.000000
# 2 -0.119448 0.128803 -0.002853 0.000000 0.000000 0.000000
# 3 -0.002858 -0.002853 0.007562 0.000000 0.000000 0.000000
# 4 0.000000 0.000000 0.000000 0.083365 0.000000 0.000000
# 5 0.000000 0.000000 0.000000 0.000000 0.083376 0.000000
# 6 0.000000 0.000000 0.000000 0.000000 0.000000 0.027435
#
#
# Mechanical properties :
#
#
# Convention : Reuss Voigt Hill
#
# Bulk Modulus (GPa) = 67.22048 73.17299 70.19674
# Shear Modulus (GPa) = 6.99648 21.58385 14.29017
#
# Velocity S-wave (km/s) = 1.85393 3.25624 2.64954
# Velocity P-wave (km/s) = 6.13229 7.07700 6.62151
#
# Compressibility (1/GPa) = 0.01487642
#
# Stress axis : x y z
#
# Youngs Moduli (GPa) = 7.76227 7.76381 132.24512
#
# Poissons Ratio (x) = 0.92737 0.37795
# Poissons Ratio (y) = 0.92718 0.37725
# Poissons Ratio (z) = 0.02218 0.02215
#
# Static dielectric constant tensor:
#      x y z
#    x 3.708630 0.000000 0.000000 
#    y 0.000000 3.708600 0.000000 
#    z 0.000000 0.000000 3.729070 
# 
# 
# High freq. dielectric constant tensor:
#      x y z
#    x 1.788680 0.000000 0.000000 
#    y 0.000000 1.788670 0.000000 
#    z 0.000000 0.000000 1.801880 
# 
# From -- ./inp_files/1133.got.cif
#   From: 2010.03.12/outbox.cif.g09.slc.cpg/sg126_1_cif.got.tgz:1133.got - 2010.04.06 16:55:23.
