data_PCOD8313120
_publ_section_title
;
Structure prediction by ZEFSAII (Michael W. Deem and Ramdas Pophale) SiO2 
 PCOD8313120
Probable space group: P 4/M C C
;
_chemical_formula_sum "Si O2"
_cell_formula_units_Z 80
_cell_length_a 14.907747
_cell_length_b 14.907747
_cell_length_c 19.336777
_cell_angle_alpha 90.000000
_cell_angle_beta 90.000000
_cell_angle_gamma 90.000000
_cell_volume 4297.423122
_symmetry_space_group_name_H-M "P 4/M C C"
_symmetry_group_IT_number 124
_symmetry_cell_setting 'tetragonal'
loop_
_space_group_symop_operation_xyz
x,y,z
-y,x,z
-x,-y,z
y,-x,z
x,-y,1/2-z
-x,y,1/2-z
y,x,1/2-z
-y,-x,1/2-z
-x,-y,-z
y,-x,-z
x,y,-z
-y,x,-z
-x,y,1/2+z
x,-y,1/2+z
-y,-x,1/2+z
y,x,1/2+z
loop_
_atom_site_type_symbol
_atom_site_label
_atom_site_fract_x
_atom_site_fract_y
_atom_site_fract_z
Si Si1 0.754529 0.578294 0.416985
Si Si2 0.721564 0.617058 0.921369
Si Si3 0.272245 0.102832 0.421425
Si Si4 0.888972 0.093850 0.170616
Si Si5 0.408444 0.956344 0.582355
O O1 0.757991 0.578233 0.500000
O O2 0.721294 0.481982 0.387813
O O3 0.685813 0.651750 0.385624
O O4 0.854706 0.600698 0.389745
O O5 0.822132 0.652075 0.917042
O O6 0.689602 0.607996 0.000000
O O7 0.237838 0.090784 0.500000
O O8 0.188143 0.137975 0.376013
O O9 0.320478 0.012376 0.393025
O O10 0.877218 0.122783 0.250000
O O11 0.988917 0.123574 0.152257
O O12 0.411996 0.960241 0.500000
O O13 0.500000 0.000000 0.612227
#
# Coordination Sequence:
#
# PCOD8313120 Si02
#       5
#    16  16  16  16  16
#     4   9  16  26  39  59  95 139 171 206 253 306
#     4   9  17  27  40  64  98 132 173 212 250 301
#     4  10  19  29  48  78 102 128 175 222 258 307
#     4   9  20  38  53  67  96 137 174 202 255 323
#     4   9  15  26  42  63  99 138 165 204 267 315
#
# _framework density 18.615807
#
# number of rings (size 3 to 8) (size 9 to 14) (size 15 to 20)
#    0.000    2.800    2.000    0.600    2.800    1.200 
#    0.000    3.000    0.000    0.000    0.000    9.800 
#    0.000    0.000    0.000    1.800    0.000    2.000 
#
# Total GULP energy -991300.842383 kJ/mol
# GULP energy per Si atom -12391.260530 kJ/mol
# Density = 1.857344 g / cm^3
# Si number density = 18.615807 Si / 1000 Ang^3
#
#
#
# Elastic Constant Matrix: (Units=GPa)
#
#
# Indices 1 2 3 4 5 6 
#
# 1 114.9852 40.3147 21.1057 0.0000 0.0000 0.0000
# 2 40.3147 114.9857 21.1056 0.0000 0.0000 0.0000
# 3 21.1057 21.1056 25.8260 0.0000 0.0000 0.0000
# 4 0.0000 0.0000 0.0000 9.1724 0.0000 0.0000
# 5 0.0000 0.0000 0.0000 0.0000 9.1724 0.0000
# 6 0.0000 0.0000 0.0000 0.0000 0.0000 29.4984
#
#
#
# Elastic Compliance Matrix: (Units=1/GPa)
#
#
# Indices 1 2 3 4 5 6 
#
# 1 0.010835 -0.002557 -0.006765 0.000000 0.000000 0.000000
# 2 -0.002557 0.010835 -0.006765 0.000000 0.000000 0.000000
# 3 -0.006765 -0.006765 0.049777 0.000000 0.000000 0.000000
# 4 0.000000 0.000000 0.000000 0.109023 0.000000 0.000000
# 5 0.000000 0.000000 0.000000 0.000000 0.109023 0.000000
# 6 0.000000 0.000000 0.000000 0.000000 0.000000 0.033900
#
#
# Mechanical properties :
#
#
# Convention : Reuss Voigt Hill
#
# Bulk Modulus (GPa) = 25.46232 46.76099 36.11165
# Shear Modulus (GPa) = 13.56269 21.12004 17.34137
#
# Velocity S-wave (km/s) = 2.70211 3.37192 3.05542
# Velocity P-wave (km/s) = 4.84176 6.35085 5.64695
#
# Compressibility (1/GPa) = 0.03927372
#
# Stress axis : x y z
#
# Youngs Moduli (GPa) = 92.29329 92.29383 20.08940
#
# Poissons Ratio (x) = 0.23601 0.13590
# Poissons Ratio (y) = 0.23601 0.13590
# Poissons Ratio (z) = 0.62436 0.62435
#
# Static dielectric constant tensor:
#      x y z
#    x 3.555190 0.000000 0.000000 
#    y 0.000000 3.555190 0.000000 
#    z 0.000000 0.000000 2.680850 
# 
# 
# High freq. dielectric constant tensor:
#      x y z
#    x 1.732700 0.000000 0.000000 
#    y 0.000000 1.732700 0.000000 
#    z 0.000000 0.000000 1.632160 
# 
# From -- ./inp_files/5094.got.cif
#   From: 2010.03.12/outbox.cif.g09.slc.cpg/sg124_3_cif.got.tgz:5094.got - 2010.04.06 16:38:57.
