data_PCOD8313172
_publ_section_title
;
Structure prediction by ZEFSAII (Michael W. Deem and Ramdas Pophale) SiO2 
 PCOD8313172
Probable space group: P 4/M C C
;
_chemical_formula_sum "Si O2"
_cell_formula_units_Z 80
_cell_length_a 12.906613
_cell_length_b 12.906613
_cell_length_c 27.816125
_cell_angle_alpha 90.000000
_cell_angle_beta 90.000000
_cell_angle_gamma 90.000000
_cell_volume 4633.628437
_symmetry_space_group_name_H-M "P 4/M C C"
_symmetry_group_IT_number 124
_symmetry_cell_setting 'tetragonal'
loop_
_space_group_symop_operation_xyz
x,y,z
-y,x,z
-x,-y,z
y,-x,z
x,-y,1/2-z
-x,y,1/2-z
y,x,1/2-z
-y,-x,1/2-z
-x,-y,-z
y,-x,-z
x,y,-z
-y,x,-z
-x,y,1/2+z
x,-y,1/2+z
-y,-x,1/2+z
y,x,1/2+z
loop_
_atom_site_type_symbol
_atom_site_label
_atom_site_fract_x
_atom_site_fract_y
_atom_site_fract_z
Si Si1 0.714745 0.878938 0.000000
Si Si2 0.714746 0.878937 0.500000
Si Si3 0.617968 0.121372 0.900145
Si Si4 0.617967 0.121372 0.599855
Si Si5 0.376910 0.623090 0.750000
Si Si6 0.877278 0.122723 0.750000
Si Si7 0.750558 0.750561 0.173497
O O1 0.826901 0.826902 0.000000
O O2 0.651397 0.842904 0.953279
O O3 0.735481 0.000000 0.000000
O O4 0.651398 0.842903 0.546721
O O5 0.500001 0.153766 0.893158
O O6 0.681412 0.176647 0.859061
O O7 0.635383 0.000000 0.893923
O O8 0.681409 0.176647 0.640938
O O9 0.354718 0.500000 0.750000
O O10 0.324361 0.675638 0.796248
O O11 0.824984 0.175021 0.796096
O O12 0.000000 0.145133 0.750000
#
# Coordination Sequence:
#
# PCOD8313172 Si02
#       7
#     8   8  16  16   8   8  16
#     4  10  19  34  53  78 112 144 171 208 256 310
#     4  10  19  34  53  78 112 144 171 208 256 310
#     4  10  20  34  54  80 107 138 177 216 257 306
#     4  10  20  34  54  80 107 138 177 216 257 306
#     4  10  22  38  54  76 104 134 172 218 272 320
#     4  10  22  38  54  76 108 142 172 210 268 328
#     4  11  20  35  58  78 102 137 176 221 262 306
#
# _framework density 17.265089
#
# number of rings (size 3 to 8) (size 9 to 14) (size 15 to 20)
#    0.000    1.800    2.000    3.000    0.000    2.600 
#    0.000    0.000    0.000    9.600    0.000    1.400 
#    0.000    0.000    0.000    0.000    0.000    0.000 
#
# Total GULP energy -992039.668744 kJ/mol
# GULP energy per Si atom -12400.495859 kJ/mol
# Density = 1.722579 g / cm^3
# Si number density = 17.265089 Si / 1000 Ang^3
#
#
#
# Elastic Constant Matrix: (Units=GPa)
#
#
# Indices 1 2 3 4 5 6 
#
# 1 96.9600 80.0054 74.0008 0.0000 0.0000 0.0000
# 2 80.0054 96.9597 74.0010 0.0000 0.0000 0.0000
# 3 74.0008 74.0010 157.6475 0.0000 0.0000 0.0000
# 4 0.0000 0.0000 0.0000 29.1895 0.0000 0.0000
# 5 0.0000 0.0000 0.0000 0.0000 29.1901 0.0000
# 6 0.0000 0.0000 0.0000 0.0000 0.0000 33.2639
#
#
#
# Elastic Compliance Matrix: (Units=1/GPa)
#
#
# Indices 1 2 3 4 5 6 
#
# 1 0.034142 -0.024839 -0.004367 0.000000 0.000000 0.000000
# 2 -0.024839 0.034142 -0.004367 0.000000 0.000000 0.000000
# 3 -0.004367 -0.004367 0.010443 0.000000 0.000000 0.000000
# 4 0.000000 0.000000 0.000000 0.034259 0.000000 0.000000
# 5 0.000000 0.000000 0.000000 0.000000 0.034258 0.000000
# 6 0.000000 0.000000 0.000000 0.000000 0.000000 0.030063
#
#
# Mechanical properties :
#
#
# Convention : Reuss Voigt Hill
#
# Bulk Modulus (GPa) = 86.34543 89.73130 88.03837
# Shear Modulus (GPa) = 20.13580 26.56601 23.35091
#
# Velocity S-wave (km/s) = 3.41878 3.92690 3.68162
# Velocity P-wave (km/s) = 8.10581 8.52328 8.31716
#
# Compressibility (1/GPa) = 0.01158139
#
# Stress axis : x y z
#
# Youngs Moduli (GPa) = 29.28931 29.28909 95.75805
#
# Poissons Ratio (x) = 0.72752 0.41816
# Poissons Ratio (y) = 0.72752 0.41818
# Poissons Ratio (z) = 0.12790 0.12791
#
# Static dielectric constant tensor:
#      x y z
#    x 3.242680 0.000000 0.000000 
#    y 0.000000 3.242690 0.000000 
#    z 0.000000 0.000000 3.394210 
# 
# 
# High freq. dielectric constant tensor:
#      x y z
#    x 1.671600 0.000000 0.000000 
#    y 0.000000 1.671600 0.000000 
#    z 0.000000 0.000000 1.683510 
# 
# From -- ./inp_files/7047.got.cif
#   From: 2010.03.12/outbox.cif.g09.slc.cpg/sg124_4_cif.got.tgz:7047.got - 2010.04.06 16:38:57.
