data_PCOD8313489
_publ_section_title
;
Structure prediction by ZEFSAII (Michael W. Deem and Ramdas Pophale) SiO2 
 PCOD8313489
Probable space group: P 4/N B M
;
_chemical_formula_sum "Si O2"
_cell_formula_units_Z 96
_cell_length_a 24.276171
_cell_length_b 24.276171
_cell_length_c 8.635611
_cell_angle_alpha 90.000000
_cell_angle_beta 90.000000
_cell_angle_gamma 90.000000
_cell_volume 5089.246033
_symmetry_space_group_name_H-M "P 4/N B M"
_symmetry_group_IT_number 125
_space_group.IT_coordinate_system_code '2'
_symmetry_cell_setting 'tetragonal'
loop_
_space_group_symop_operation_xyz
x,y,z
1/2-y,x,z
1/2-x,1/2-y,z
y,1/2-x,z
x,1/2-y,-z
1/2-x,y,-z
y,x,-z
1/2-y,1/2-x,-z
-x,-y,-z
1/2+y,-x,-z
1/2+x,1/2+y,-z
-y,1/2+x,-z
-x,1/2+y,z
1/2+x,-y,z
-y,-x,z
1/2+y,1/2+x,z
loop_
_atom_site_type_symbol
_atom_site_label
_atom_site_fract_x
_atom_site_fract_y
_atom_site_fract_z
Si Si1 0.160883 0.750000 0.500000
Si Si2 0.568719 0.259458 0.256159
Si Si3 0.837834 0.074819 0.967443
Si Si4 0.023025 0.250000 0.500000
Si Si5 0.815300 0.694276 0.684186
Si Si6 0.359556 0.420303 0.370075
Si Si7 0.988514 0.923346 0.119555
O O1 0.198034 0.801967 0.453125
O O2 0.123913 0.766541 0.645489
O O3 0.565955 0.198562 0.185196
O O4 0.514810 0.270149 0.358556
O O5 0.570236 0.304161 0.123495
O O6 0.864983 0.135018 0.956340
O O7 0.883650 0.028031 0.976512
O O8 0.059297 0.302365 0.448055
O O9 0.826611 0.756313 0.747953
O O10 0.809558 0.690443 0.500000
O O11 0.866635 0.656080 0.735116
O O12 0.403506 0.403506 0.500000
O O13 0.389882 0.465182 0.265589
O O14 0.940980 0.940980 0.000000
O O15 0.023169 0.976832 0.178538
#
# Coordination Sequence:
#
# PCOD8313489 Si02
#       7
#     8  16  16   8  16  16  16
#     4  10  20  35  56  86 120 145 176 234 298 354
#     4  10  21  36  57  86 114 148 189 241 285 357
#     4  10  20  39  61  79 109 157 197 236 290 349
#     4  11  22  37  54  90 122 143 188 247 292 354
#     4   8  14  28  50  79 111 143 173 212 269 336
#     4  11  21  35  59  86 115 150 191 237 294 346
#     4  10  23  42  58  78 113 154 202 249 291 338
#
# _framework density 18.863306000000001
#
# number of rings (size 3 to 8) (size 9 to 14) (size 15 to 20)
#    0.000    2.083    1.667    3.500    2.333    0.333 
#    0.000    0.833    0.000    4.000    0.000    1.167 
#    0.000    0.000    0.000    0.000    0.000    0.000 
#
# Total GULP energy -1190082.080588 kJ/mol
# GULP energy per Si atom -12396.688339 kJ/mol
# Density = 1.882037 g / cm^3
# Si number density = 18.863306 Si / 1000 Ang^3
#
#
#
# Elastic Constant Matrix: (Units=GPa)
#
#
# Indices 1 2 3 4 5 6 
#
# 1 98.8190 42.1168 34.0180 0.0000 0.0000 0.0000
# 2 42.1168 98.8188 34.0180 0.0000 0.0000 0.0000
# 3 34.0180 34.0180 68.1663 0.0000 0.0000 0.0000
# 4 0.0000 0.0000 0.0000 16.4486 0.0000 0.0000
# 5 0.0000 0.0000 0.0000 0.0000 16.4486 0.0000
# 6 0.0000 0.0000 0.0000 0.0000 0.0000 28.6397
#
#
#
# Elastic Compliance Matrix: (Units=1/GPa)
#
#
# Indices 1 2 3 4 5 6 
#
# 1 0.013492 -0.004144 -0.004665 0.000000 0.000000 0.000000
# 2 -0.004144 0.013492 -0.004665 0.000000 0.000000 0.000000
# 3 -0.004665 -0.004665 0.019326 0.000000 0.000000 0.000000
# 4 0.000000 0.000000 0.000000 0.060796 0.000000 0.000000
# 5 0.000000 0.000000 0.000000 0.000000 0.060795 0.000000
# 6 0.000000 0.000000 0.000000 0.000000 0.000000 0.034917
#
#
# Mechanical properties :
#
#
# Convention : Reuss Voigt Hill
#
# Bulk Modulus (GPa) = 51.64879 54.01220 52.83050
# Shear Modulus (GPa) = 21.16687 22.68413 21.92550
#
# Velocity S-wave (km/s) = 3.35344 3.47155 3.41300
# Velocity P-wave (km/s) = 6.51414 6.69063 6.60297
#
# Compressibility (1/GPa) = 0.01936154
#
# Stress axis : x y z
#
# Youngs Moduli (GPa) = 74.11992 74.11971 51.74425
#
# Poissons Ratio (x) = 0.30718 0.24137
# Poissons Ratio (y) = 0.30718 0.24137
# Poissons Ratio (z) = 0.34575 0.34575
#
# Static dielectric constant tensor:
#      x y z
#    x 3.688060 0.000000 0.000000 
#    y 0.000000 3.688070 0.000000 
#    z 0.000000 0.000000 3.134830 
# 
# 
# High freq. dielectric constant tensor:
#      x y z
#    x 1.745270 0.000000 0.000000 
#    y 0.000000 1.745270 0.000000 
#    z 0.000000 0.000000 1.703410 
# 
# From -- ./inp_files/2937.got.cif
#   From: 2010.03.12/outbox.cif.g09.slc.cpg/sg125_2_cif.got.tgz:2937.got - 2010.04.06 16:47:52.
