data_PCOD8313727
_publ_section_title
;
Structure prediction by ZEFSAII (Michael W. Deem and Ramdas Pophale) SiO2 
 PCOD8313727
Probable space group: P 4/N N C
;
_chemical_formula_sum "Si O2"
_cell_formula_units_Z 88
_cell_length_a 14.555864
_cell_length_b 14.555864
_cell_length_c 20.902925
_cell_angle_alpha 90.000000
_cell_angle_beta 90.000000
_cell_angle_gamma 90.000000
_cell_volume 4428.769124
_symmetry_space_group_name_H-M "P 4/N N C"
_symmetry_group_IT_number 126
_space_group.IT_coordinate_system_code '2'
_symmetry_cell_setting 'tetragonal'
loop_
_space_group_symop_operation_xyz
x,y,z
1/2-y,x,z
1/2-x,1/2-y,z
y,1/2-x,z
x,1/2-y,1/2-z
1/2-x,y,1/2-z
y,x,1/2-z
1/2-y,1/2-x,1/2-z
-x,-y,-z
1/2+y,-x,-z
1/2+x,1/2+y,-z
-y,1/2+x,-z
-x,1/2+y,1/2+z
1/2+x,-y,1/2+z
-y,-x,1/2+z
1/2+y,1/2+x,1/2+z
loop_
_atom_site_type_symbol
_atom_site_label
_atom_site_fract_x
_atom_site_fract_y
_atom_site_fract_z
Si Si1 0.842529 0.123225 0.398628
Si Si2 0.627908 0.837482 0.601875
Si Si3 0.897805 0.480357 0.979206
Si Si4 0.422089 0.007721 0.311329
Si Si5 0.250000 0.946448 0.250000
Si Si6 0.858780 0.170973 0.128547
O O1 0.841438 0.074903 0.467393
O O2 0.915189 0.067088 0.353840
O O3 0.867828 0.230377 0.407331
O O4 0.740922 0.122813 0.368790
O O5 0.623288 0.729240 0.611026
O O6 0.581754 0.854005 0.532348
O O7 0.563980 0.895988 0.650822
O O8 0.896396 0.423728 0.912340
O O9 0.000000 0.500000 0.000000
O O10 0.316607 0.012202 0.289176
O O11 0.491352 0.008649 0.250000
O O12 0.312830 0.884303 0.202790
#
# Coordination Sequence:
#
# PCOD8313727 Si02
#       6
#    16  16  16  16   8  16
#     4  10  22  38  62  89 124 161 207 263 331 383
#     4  11  24  40  57  82 119 163 208 253 309 376
#     4  12  23  37  61  88 122 163 210 261 315 382
#     4  11  20  36  56  87 121 163 204 251 307 379
#     4  10  22  37  64  87 128 166 212 255 320 389
#     4  10  22  40  62  93 125 162 206 265 329 389
#
# _framework density 19.870080999999999
#
# number of rings (size 3 to 8) (size 9 to 14) (size 15 to 20)
#    0.000    1.273    1.818    5.455    2.545    7.273 
#    0.000    0.909    0.000    0.000    0.000    0.000 
#    0.000    0.000    0.000    0.727    0.000    0.000 
#
# Total GULP energy -1090239.631261 kJ/mol
# GULP energy per Si atom -12389.086719 kJ/mol
# Density = 1.982486 g / cm^3
# Si number density = 19.870081 Si / 1000 Ang^3
#
#
#
# Elastic Constant Matrix: (Units=GPa)
#
#
# Indices 1 2 3 4 5 6 
#
# 1 83.1723 33.3846 46.5569 0.0000 0.0000 0.0000
# 2 33.3846 83.1725 46.5570 0.0000 0.0000 0.0000
# 3 46.5569 46.5570 120.3110 0.0000 0.0000 0.0000
# 4 0.0000 0.0000 0.0000 37.3820 0.0000 0.0000
# 5 0.0000 0.0000 0.0000 0.0000 37.3819 0.0000
# 6 0.0000 0.0000 0.0000 0.0000 0.0000 21.3676
#
#
#
# Elastic Compliance Matrix: (Units=1/GPa)
#
#
# Indices 1 2 3 4 5 6 
#
# 1 0.016252 -0.003833 -0.004806 0.000000 0.000000 0.000000
# 2 -0.003833 0.016252 -0.004806 0.000000 0.000000 0.000000
# 3 -0.004806 -0.004806 0.012031 0.000000 0.000000 0.000000
# 4 0.000000 0.000000 0.000000 0.026751 0.000000 0.000000
# 5 0.000000 0.000000 0.000000 0.000000 0.026751 0.000000
# 6 0.000000 0.000000 0.000000 0.000000 0.000000 0.046800
#
#
# Mechanical properties :
#
#
# Convention : Reuss Voigt Hill
#
# Bulk Modulus (GPa) = 56.67108 59.96141 58.31625
# Shear Modulus (GPa) = 28.15196 29.90347 29.02771
#
# Velocity S-wave (km/s) = 3.76813 3.88358 3.82629
# Velocity P-wave (km/s) = 6.89307 7.09590 6.99522
#
# Compressibility (1/GPa) = 0.01764568
#
# Stress axis : x y z
#
# Youngs Moduli (GPa) = 61.53109 61.53132 83.11801
#
# Poissons Ratio (x) = 0.23587 0.39944
# Poissons Ratio (y) = 0.23587 0.39943
# Poissons Ratio (z) = 0.29570 0.29570
#
# Static dielectric constant tensor:
#      x y z
#    x 3.680400 0.000000 0.000000 
#    y 0.000000 3.680390 0.000000 
#    z 0.000000 0.000000 3.952960 
# 
# 
# High freq. dielectric constant tensor:
#      x y z
#    x 1.766870 0.000000 0.000000 
#    y 0.000000 1.766870 0.000000 
#    z 0.000000 0.000000 1.780430 
# 
# From -- ./inp_files/5138.got.cif
#   From: 2010.03.12/outbox.cif.g09.slc.cpg/sg126_3_cif.got.tgz:5138.got - 2010.04.06 16:55:23.
