data_PCOD8313113
_publ_section_title
;
Structure prediction by ZEFSAII (Michael W. Deem and Ramdas Pophale) SiO2 
 PCOD8313113
Probable space group: P 4/M C C
;
_chemical_formula_sum "Si O2"
_cell_formula_units_Z 96
_cell_length_a 24.688409
_cell_length_b 24.688409
_cell_length_c 8.811911
_cell_angle_alpha 90.000000
_cell_angle_beta 90.000000
_cell_angle_gamma 90.000000
_cell_volume 5371.014306
_symmetry_space_group_name_H-M "P 4/M C C"
_symmetry_group_IT_number 124
_symmetry_cell_setting 'tetragonal'
loop_
_space_group_symop_operation_xyz
x,y,z
-y,x,z
-x,-y,z
y,-x,z
x,-y,1/2-z
-x,y,1/2-z
y,x,1/2-z
-y,-x,1/2-z
-x,-y,-z
y,-x,-z
x,y,-z
-y,x,-z
-x,y,1/2+z
x,-y,1/2+z
-y,-x,1/2+z
y,x,1/2+z
loop_
_atom_site_type_symbol
_atom_site_label
_atom_site_fract_x
_atom_site_fract_y
_atom_site_fract_z
Si Si1 0.336219 0.141743 0.829783
Si Si2 0.341987 0.269005 0.166347
Si Si3 0.222045 0.857571 0.818328
Si Si4 0.444996 0.137841 0.671660
Si Si5 0.058906 0.861424 0.182478
Si Si6 0.732935 0.553135 0.169155
O O1 0.344404 0.205187 0.839894
O O2 0.284243 0.130679 0.724573
O O3 0.390882 0.116060 0.757269
O O4 0.327796 0.117961 0.000000
O O5 0.287469 0.287469 0.250000
O O6 0.394569 0.292219 0.250393
O O7 0.341227 0.294384 0.000000
O O8 0.199544 0.800457 0.750000
O O9 0.188093 0.905388 0.742408
O O10 0.215415 0.857065 0.000000
O O11 0.500000 0.115547 0.750000
O O12 0.443498 0.115877 0.500000
O O13 0.445407 0.202353 0.674167
O O14 0.082718 0.917283 0.250000
O O15 0.000000 0.852831 0.250000
O O16 0.058468 0.862925 0.000000
O O17 0.710330 0.500000 0.250000
O O18 0.710838 0.552458 0.000000
#
# Coordination Sequence:
#
# PCOD8313113 Si02
#       6
#    16  16  16  16  16  16
#     4  10  19  30  44  64  91 126 164 202 242 289
#     4  10  19  28  39  56  80 109 143 180 220 264
#     4  11  21  34  51  73 101 135 171 209 252 301
#     4   9  16  26  40  59  84 117 156 199 242 287
#     4  11  22  39  60  84 111 141 175 213 256 301
#     4   9  16  26  39  53  72  99 133 171 215 264
#
# _framework density 17.873719000000001
#
# number of rings (size 3 to 8) (size 9 to 14) (size 15 to 20)
#    0.000    2.000    0.000    6.500    0.000    7.500 
#    0.000    0.833    0.000    0.000    0.000    0.000 
#    0.000    1.000    0.000   10.000    0.000    6.667 
#
# Total GULP energy -1190071.108237 kJ/mol
# GULP energy per Si atom -12396.574044 kJ/mol
# Density = 1.783304 g / cm^3
# Si number density = 17.873719 Si / 1000 Ang^3
#
#
#
# Elastic Constant Matrix: (Units=GPa)
#
#
# Indices 1 2 3 4 5 6 
#
# 1 75.5692 11.7309 38.5180 0.0000 0.0000 0.0000
# 2 11.7309 75.5690 38.5182 0.0000 0.0000 0.0000
# 3 38.5180 38.5182 181.7960 0.0000 0.0000 0.0000
# 4 0.0000 0.0000 0.0000 26.2994 0.0000 0.0000
# 5 0.0000 0.0000 0.0000 0.0000 26.2997 0.0000
# 6 0.0000 0.0000 0.0000 0.0000 0.0000 7.9136
#
#
#
# Elastic Compliance Matrix: (Units=1/GPa)
#
#
# Indices 1 2 3 4 5 6 
#
# 1 0.014877 -0.000788 -0.002985 0.000000 0.000000 0.000000
# 2 -0.000788 0.014877 -0.002985 0.000000 0.000000 0.000000
# 3 -0.002985 -0.002985 0.006766 0.000000 0.000000 0.000000
# 4 0.000000 0.000000 0.000000 0.038024 0.000000 0.000000
# 5 0.000000 0.000000 0.000000 0.000000 0.038023 0.000000
# 6 0.000000 0.000000 0.000000 0.000000 0.000000 0.126365
#
#
# Mechanical properties :
#
#
# Convention : Reuss Voigt Hill
#
# Bulk Modulus (GPa) = 43.47255 56.71871 50.09563
# Shear Modulus (GPa) = 19.22231 28.38034 23.80133
#
# Velocity S-wave (km/s) = 3.28296 3.98908 3.65312
# Velocity P-wave (km/s) = 6.22457 7.28141 6.77363
#
# Compressibility (1/GPa) = 0.02300302
#
# Stress axis : x y z
#
# Youngs Moduli (GPa) = 67.21914 67.21886 147.80644
#
# Poissons Ratio (x) = 0.05296 0.44121
# Poissons Ratio (y) = 0.05296 0.44122
# Poissons Ratio (z) = 0.20065 0.20066
#
# Static dielectric constant tensor:
#      x y z
#    x 3.086750 0.000000 0.000000 
#    y 0.000000 3.086720 0.000000 
#    z 0.000000 0.000000 3.683070 
# 
# 
# High freq. dielectric constant tensor:
#      x y z
#    x 1.661170 0.000000 0.000000 
#    y 0.000000 1.661170 0.000000 
#    z 0.000000 0.000000 1.718420 
# 
# From -- ./inp_files/1332.got.cif
#   From: 2010.03.12/outbox.cif.g09.slc.cpg/sg124_1_cif.got.tgz:1332.got - 2010.04.06 16:38:57.
