data_PCOD8313431
_publ_section_title
;
Structure prediction by ZEFSAII (Michael W. Deem and Ramdas Pophale) SiO2 
 PCOD8313431
Probable space group: P 4/N B M
;
_chemical_formula_sum "Si O2"
_cell_formula_units_Z 112
_cell_length_a 15.675045
_cell_length_b 15.675045
_cell_length_c 24.627199
_cell_angle_alpha 90.000000
_cell_angle_beta 90.000000
_cell_angle_gamma 90.000000
_cell_volume 6051.076065
_symmetry_space_group_name_H-M "P 4/N B M"
_symmetry_group_IT_number 125
_space_group.IT_coordinate_system_code '2'
_symmetry_cell_setting 'tetragonal'
loop_
_space_group_symop_operation_xyz
x,y,z
1/2-y,x,z
1/2-x,1/2-y,z
y,1/2-x,z
x,1/2-y,-z
1/2-x,y,-z
y,x,-z
1/2-y,1/2-x,-z
-x,-y,-z
1/2+y,-x,-z
1/2+x,1/2+y,-z
-y,1/2+x,-z
-x,1/2+y,z
1/2+x,-y,z
-y,-x,z
1/2+y,1/2+x,z
loop_
_atom_site_type_symbol
_atom_site_label
_atom_site_fract_x
_atom_site_fract_y
_atom_site_fract_z
Si Si1 0.629222 0.514880 0.348341
Si Si2 0.443073 0.804390 0.804466
Si Si3 0.839962 0.644139 0.561948
Si Si4 0.065731 0.428773 0.240751
Si Si5 0.142895 0.163107 0.062480
Si Si6 0.885510 0.245751 0.690030
Si Si7 0.991121 0.354762 0.861441
O O1 0.557937 0.442064 0.348027
O O2 0.615653 0.572000 0.401718
O O3 0.617855 0.578613 0.296937
O O4 0.723249 0.469536 0.343428
O O5 0.380803 0.880803 0.824560
O O6 0.535548 0.838509 0.783748
O O7 0.401695 0.752767 0.754613
O O8 0.459572 0.743417 0.856792
O O9 0.867546 0.740143 0.575064
O O10 0.869263 0.630738 0.500000
O O11 0.124436 0.478716 0.198924
O O12 0.978985 0.478985 0.253320
O O13 0.237266 0.132755 0.077551
O O14 0.067068 0.121528 0.096865
O O15 0.135072 0.135072 0.000000
O O16 0.849131 0.150870 0.672736
O O17 0.812494 0.312494 0.677169
O O18 0.911963 0.411963 0.880426
#
# Coordination Sequence:
#
# PCOD8313431 Si02
#       7
#    16  16  16  16  16  16  16
#     4  10  19  32  52  79 108 136 179 232 276 329
#     4  10  19  31  48  71 108 152 187 217 264 327
#     4   9  20  38  55  71  97 135 175 220 278 337
#     4   9  19  31  44  72 108 137 166 216 271 312
#     4   9  19  37  58  77 100 135 179 225 277 335
#     4   9  17  30  48  72 106 146 182 217 266 329
#     4  11  20  32  51  77 110 142 180 228 275 324
#
# _framework density 18.509105000000002
#
# number of rings (size 3 to 8) (size 9 to 14) (size 15 to 20)
#    0.000    2.429    1.429    2.143    2.000    1.429 
#    0.000    0.000    0.000    3.429    0.000    0.000 
#    0.000    0.000    0.000    0.000    0.000    0.000 
#
# Total GULP energy -1387512.185644 kJ/mol
# GULP energy per Si atom -12388.501658 kJ/mol
# Density = 1.846698 g / cm^3
# Si number density = 18.509105 Si / 1000 Ang^3
#
#
#
# Elastic Constant Matrix: (Units=GPa)
#
#
# Indices 1 2 3 4 5 6 
#
# 1 78.7329 32.5078 39.9627 0.0000 0.0000 0.0000
# 2 32.5078 78.7330 39.9627 0.0000 0.0000 0.0000
# 3 39.9627 39.9627 72.4770 0.0000 0.0000 0.0000
# 4 0.0000 0.0000 0.0000 27.5455 0.0000 0.0000
# 5 0.0000 0.0000 0.0000 0.0000 27.5455 0.0000
# 6 0.0000 0.0000 0.0000 0.0000 0.0000 23.7969
#
#
#
# Elastic Compliance Matrix: (Units=1/GPa)
#
#
# Indices 1 2 3 4 5 6 
#
# 1 0.018260 -0.003373 -0.008209 0.000000 0.000000 0.000000
# 2 -0.003373 0.018260 -0.008209 0.000000 0.000000 0.000000
# 3 -0.008209 -0.008209 0.022850 0.000000 0.000000 0.000000
# 4 0.000000 0.000000 0.000000 0.036304 0.000000 0.000000
# 5 0.000000 0.000000 0.000000 0.000000 0.036304 0.000000
# 6 0.000000 0.000000 0.000000 0.000000 0.000000 0.042022
#
#
# Mechanical properties :
#
#
# Convention : Reuss Voigt Hill
#
# Bulk Modulus (GPa) = 50.53104 50.53436 50.53270
# Shear Modulus (GPa) = 22.70900 23.61155 23.16027
#
# Velocity S-wave (km/s) = 3.50653 3.57553 3.54120
# Velocity P-wave (km/s) = 6.61470 6.66390 6.63934
#
# Compressibility (1/GPa) = 0.01978982
#
# Stress axis : x y z
#
# Youngs Moduli (GPa) = 54.76357 54.76368 43.76414
#
# Poissons Ratio (x) = 0.18471 0.35925
# Poissons Ratio (y) = 0.18471 0.35924
# Poissons Ratio (z) = 0.44954 0.44954
#
# Static dielectric constant tensor:
#      x y z
#    x 3.437460 0.000000 0.000000 
#    y 0.000000 3.437470 0.000000 
#    z 0.000000 0.000000 3.095540 
# 
# 
# High freq. dielectric constant tensor:
#      x y z
#    x 1.715010 0.000000 0.000000 
#    y 0.000000 1.715010 0.000000 
#    z 0.000000 0.000000 1.685340 
# 
# From -- ./inp_files/6418.got.cif
#   From: 2010.03.12/outbox.cif.g09.slc.cpg/sg125_4_cif.got.tgz:6418.got - 2010.04.06 16:47:52.
