data_PCOD8313208
_publ_section_title
;
Structure prediction by ZEFSAII (Michael W. Deem and Ramdas Pophale) SiO2 
 PCOD8313208
Probable space group: P 4/M C C
;
_chemical_formula_sum "Si O2"
_cell_formula_units_Z 36
_cell_length_a 8.052026
_cell_length_b 8.052026
_cell_length_c 26.966080
_cell_angle_alpha 90.000000
_cell_angle_beta 90.000000
_cell_angle_gamma 90.000000
_cell_volume 1748.349106
_symmetry_space_group_name_H-M "P 4/M C C"
_symmetry_group_IT_number 124
_symmetry_cell_setting 'tetragonal'
loop_
_space_group_symop_operation_xyz
x,y,z
-y,x,z
-x,-y,z
y,-x,z
x,-y,1/2-z
-x,y,1/2-z
y,x,1/2-z
-y,-x,1/2-z
-x,-y,-z
y,-x,-z
x,y,-z
-y,x,-z
-x,y,1/2+z
x,-y,1/2+z
-y,-x,1/2+z
y,x,1/2+z
loop_
_atom_site_type_symbol
_atom_site_label
_atom_site_fract_x
_atom_site_fract_y
_atom_site_fract_z
Si Si1 0.000000 0.500000 0.416304
Si Si2 0.072468 0.263510 0.000000
Si Si3 0.500000 0.000000 0.750000
Si Si4 0.577333 0.764279 0.832278
O O1 0.101681 0.628007 0.450724
O O2 0.131381 0.398818 0.382650
O O3 0.882977 0.203233 0.000000
O O4 0.386680 0.116952 0.785209
O O5 0.386447 0.704357 0.830101
#
# Coordination Sequence:
#
# PCOD8313208 Si02
#       4
#     8   8   4  16
#     4  10  20  34  54  78 104 136 176 216 252 300
#     4  10  20  34  52  76 108 142 172 208 258 308
#     4  10  20  32  52  76 100 128 164 204 256 312
#     4  10  20  35  55  77 102 134 172 214 258 302
#
# _framework density 20.590852999999999
#
# number of rings (size 3 to 8) (size 9 to 14) (size 15 to 20)
#    0.000    2.000    0.000    4.000    0.000    1.778 
#    0.000    0.000    0.000   61.333    0.000    0.000 
#    0.000    0.000    0.000    0.000    0.000    0.000 
#
# Total GULP energy -446424.360748 kJ/mol
# GULP energy per Si atom -12400.676687 kJ/mol
# Density = 2.054399 g / cm^3
# Si number density = 20.590853 Si / 1000 Ang^3
#
#
#
# Elastic Constant Matrix: (Units=GPa)
#
#
# Indices 1 2 3 4 5 6 
#
# 1 63.1788 -4.9766 26.9159 0.0000 0.0000 0.0000
# 2 -4.9766 63.1788 26.9159 0.0000 0.0000 0.0000
# 3 26.9159 26.9159 152.3400 0.0000 0.0000 0.0000
# 4 0.0000 0.0000 0.0000 18.5308 0.0000 0.0000
# 5 0.0000 0.0000 0.0000 0.0000 18.5308 0.0000
# 6 0.0000 0.0000 0.0000 0.0000 0.0000 23.5285
#
#
#
# Elastic Compliance Matrix: (Units=1/GPa)
#
#
# Indices 1 2 3 4 5 6 
#
# 1 0.017605 0.002933 -0.003629 0.000000 0.000000 0.000000
# 2 0.002933 0.017605 -0.003629 0.000000 0.000000 0.000000
# 3 -0.003629 -0.003629 0.007847 0.000000 0.000000 0.000000
# 4 0.000000 0.000000 0.000000 0.053964 0.000000 0.000000
# 5 0.000000 0.000000 0.000000 0.000000 0.053964 0.000000
# 6 0.000000 0.000000 0.000000 0.000000 0.000000 0.042502
#
#
# Mechanical properties :
#
#
# Convention : Reuss Voigt Hill
#
# Bulk Modulus (GPa) = 29.06367 41.82312 35.44340
# Shear Modulus (GPa) = 23.40770 27.44084 25.42427
#
# Velocity S-wave (km/s) = 3.37531 3.65454 3.51769
# Velocity P-wave (km/s) = 5.41625 6.17763 5.80943
#
# Compressibility (1/GPa) = 0.03440721
#
# Stress axis : x y z
#
# Youngs Moduli (GPa) = 56.80198 56.80198 127.44515
#
# Poissons Ratio (x) = -0.16658 0.46246
# Poissons Ratio (y) = -0.16658 0.46246
# Poissons Ratio (z) = 0.20612 0.20612
#
# Static dielectric constant tensor:
#      x y z
#    x 3.524850 0.000000 0.000000 
#    y 0.000000 3.524850 0.000000 
#    z 0.000000 0.000000 3.918980 
# 
# 
# High freq. dielectric constant tensor:
#      x y z
#    x 1.789680 0.000000 0.000000 
#    y 0.000000 1.789680 0.000000 
#    z 0.000000 0.000000 1.830440 
# 
# From -- ./inp_files/5708.got.cif
#   From: 2010.03.12/outbox.cif.g09.slc.cpg/sg124_3_cif.got.tgz:5708.got - 2010.04.06 16:38:57.
