data_PCOD8313985
_publ_section_title
;
Structure prediction by ZEFSAII (Michael W. Deem and Ramdas Pophale) SiO2 
 PCOD8313985
Probable space group: P 4/M B M
;
_chemical_formula_sum "Si O2"
_cell_formula_units_Z 104
_cell_length_a 15.510004
_cell_length_b 15.510004
_cell_length_c 20.725307
_cell_angle_alpha 90.000000
_cell_angle_beta 90.000000
_cell_angle_gamma 90.000000
_cell_volume 4985.684496
_symmetry_space_group_name_H-M "P 4/M B M"
_symmetry_group_IT_number 127
_symmetry_cell_setting 'tetragonal'
loop_
_space_group_symop_operation_xyz
x,y,z
-y,x,z
-x,-y,z
y,-x,z
1/2+x,1/2-y,-z
1/2-x,1/2+y,-z
1/2+y,1/2+x,-z
1/2-y,1/2-x,-z
-x,-y,-z
y,-x,-z
x,y,-z
-y,x,-z
1/2-x,1/2+y,z
1/2+x,1/2-y,z
1/2-y,1/2-x,z
1/2+y,1/2+x,z
loop_
_atom_site_type_symbol
_atom_site_label
_atom_site_fract_x
_atom_site_fract_y
_atom_site_fract_z
Si Si1 0.140512 0.495917 0.000000
Si Si2 0.681583 0.676153 0.700968
Si Si3 0.879266 0.234602 0.570474
Si Si4 0.002314 0.365403 0.385163
Si Si5 0.930105 0.286436 0.124675
Si Si6 0.318838 0.955978 0.249688
Si Si7 0.569589 0.624338 0.811893
O O1 0.198806 0.508923 0.936806
O O2 0.100190 0.399811 0.000000
O O3 0.063931 0.563931 0.000000
O O4 0.735559 0.764442 0.711494
O O5 0.647381 0.668130 0.627051
O O6 0.737220 0.593309 0.719600
O O7 0.596960 0.674882 0.746413
O O8 0.877655 0.188630 0.500000
O O9 0.813097 0.313097 0.572423
O O10 0.975617 0.275179 0.581243
O O11 0.939557 0.439557 0.410896
O O12 0.101946 0.398055 0.399565
O O13 0.988097 0.357284 0.308149
O O14 0.846819 0.346819 0.122010
O O15 0.900958 0.185589 0.127883
O O16 0.984090 0.298412 0.189683
O O17 0.387762 0.887762 0.223017
O O18 0.466777 0.616102 0.815544
#
# Coordination Sequence:
#
# PCOD8313985 Si02
#       7
#     8  16  16  16  16  16  16
#     4   9  20  38  62  97 138 174 203 240 302 376
#     4  10  20  36  59  86 116 152 205 266 314 371
#     4   9  18  32  51  76 110 155 198 242 308 382
#     4   9  17  29  48  79 114 145 186 247 315 377
#     4  11  21  38  64  93 128 167 205 250 311 376
#     4  10  19  32  55  89 121 152 199 255 310 367
#     4  11  23  40  62  88 119 158 209 262 313 361
#
# _framework density 20.859722000000001
#
# number of rings (size 3 to 8) (size 9 to 14) (size 15 to 20)
#    0.000    2.077    1.538    2.308    0.000    3.077 
#    0.000    3.077    0.000    4.615    0.000    1.077 
#    0.000    0.000    0.000    0.000    0.000    0.000 
#
# Total GULP energy -1288526.505740 kJ/mol
# GULP energy per Si atom -12389.677940 kJ/mol
# Density = 2.081224 g / cm^3
# Si number density = 20.859722 Si / 1000 Ang^3
#
#
#
# Elastic Constant Matrix: (Units=GPa)
#
#
# Indices 1 2 3 4 5 6 
#
# 1 90.4343 31.5138 44.8146 0.0000 0.0000 0.0000
# 2 31.5138 90.4345 44.8146 0.0000 0.0000 0.0000
# 3 44.8146 44.8146 118.1053 0.0000 0.0000 0.0000
# 4 0.0000 0.0000 0.0000 20.5443 0.0000 0.0000
# 5 0.0000 0.0000 0.0000 0.0000 20.5440 0.0000
# 6 0.0000 0.0000 0.0000 0.0000 0.0000 20.0586
#
#
#
# Elastic Compliance Matrix: (Units=1/GPa)
#
#
# Indices 1 2 3 4 5 6 
#
# 1 0.014172 -0.002800 -0.004315 0.000000 0.000000 0.000000
# 2 -0.002800 0.014172 -0.004315 0.000000 0.000000 0.000000
# 3 -0.004315 -0.004315 0.011742 0.000000 0.000000 0.000000
# 4 0.000000 0.000000 0.000000 0.048675 0.000000 0.000000
# 5 0.000000 0.000000 0.000000 0.000000 0.048676 0.000000
# 6 0.000000 0.000000 0.000000 0.000000 0.000000 0.049854
#
#
# Mechanical properties :
#
#
# Convention : Reuss Voigt Hill
#
# Bulk Modulus (GPa) = 58.05483 60.14001 59.09742
# Shear Modulus (GPa) = 23.15974 24.08480 23.62227
#
# Velocity S-wave (km/s) = 3.33567 3.40164 3.36882
# Velocity P-wave (km/s) = 6.53660 6.65744 6.59729
#
# Compressibility (1/GPa) = 0.01722509
#
# Stress axis : x y z
#
# Youngs Moduli (GPa) = 70.56276 70.56285 85.16765
#
# Poissons Ratio (x) = 0.19759 0.36749
# Poissons Ratio (y) = 0.19759 0.36749
# Poissons Ratio (z) = 0.30447 0.30447
#
# Static dielectric constant tensor:
#      x y z
#    x 3.825460 0.000000 0.000000 
#    y 0.000000 3.825460 0.000000 
#    z 0.000000 0.000000 3.884040 
# 
# 
# High freq. dielectric constant tensor:
#      x y z
#    x 1.806520 0.000000 0.000000 
#    y 0.000000 1.806520 0.000000 
#    z 0.000000 0.000000 1.800980 
# 
# From -- ./inp_files/5210.got.cif
#   From: 2010.03.12/outbox.cif.g09.slc.cpg/sg127_3_cif.got.tgz:5210.got - 2010.04.06 17:03:15.
