data_PCOD8313597
_publ_section_title
;
Structure prediction by ZEFSAII (Michael W. Deem and Ramdas Pophale) SiO2 
 PCOD8313597
Probable space group: P 4/N B M
;
_chemical_formula_sum "Si O2"
_cell_formula_units_Z 72
_cell_length_a 15.110159
_cell_length_b 15.110159
_cell_length_c 15.910448
_cell_angle_alpha 90.000000
_cell_angle_beta 90.000000
_cell_angle_gamma 90.000000
_cell_volume 3632.624245
_symmetry_space_group_name_H-M "P 4/N B M"
_symmetry_group_IT_number 125
_space_group.IT_coordinate_system_code '2'
_symmetry_cell_setting 'tetragonal'
loop_
_space_group_symop_operation_xyz
x,y,z
1/2-y,x,z
1/2-x,1/2-y,z
y,1/2-x,z
x,1/2-y,-z
1/2-x,y,-z
y,x,-z
1/2-y,1/2-x,-z
-x,-y,-z
1/2+y,-x,-z
1/2+x,1/2+y,-z
-y,1/2+x,-z
-x,1/2+y,z
1/2+x,-y,z
-y,-x,z
1/2+y,1/2+x,z
loop_
_atom_site_type_symbol
_atom_site_label
_atom_site_fract_x
_atom_site_fract_y
_atom_site_fract_z
Si Si1 0.750000 0.023798 0.500000
Si Si2 0.613489 0.701594 0.621300
Si Si3 0.441346 0.792039 0.090490
Si Si4 0.825311 0.174690 0.609263
Si Si5 0.676285 0.176285 0.198462
Si Si6 0.798274 0.613177 0.813052
O O1 0.799508 0.082930 0.567755
O O2 0.681097 0.964750 0.555136
O O3 0.696321 0.639061 0.603856
O O4 0.581095 0.689998 0.716980
O O5 0.372108 0.872108 0.086118
O O6 0.410446 0.713444 0.152446
O O7 0.534586 0.828291 0.125221
O O8 0.454868 0.750000 0.000000
O O9 0.750000 0.250000 0.596080
O O10 0.846000 0.154001 0.705826
O O11 0.750000 0.250000 0.192764
O O12 0.860891 0.696696 0.830905
#
# Coordination Sequence:
#
# PCOD8313597 Si02
#       6
#     8  16  16   8   8  16
#     4  12  19  33  56  80 114 146 204 241 283 338
#     4   9  19  37  61  84 111 152 197 242 291 346
#     4  11  21  38  62  92 120 147 199 252 298 353
#     4  11  22  38  51  75 116 164 195 227 288 361
#     4   9  20  36  60  78 112 162 198 237 298 361
#     4   9  20  41  63  85 120 164 203 238 297 365
#
# _framework density 19.820383
#
# number of rings (size 3 to 8) (size 9 to 14) (size 15 to 20)
#    0.000    2.000    2.222    3.333    0.000    1.778 
#    4.000    4.444    4.889    0.000    0.000    0.000 
#    0.000    0.000    0.000    0.000    0.000    0.000 
#
# Total GULP energy -892687.743716 kJ/mol
# GULP energy per Si atom -12398.440885 kJ/mol
# Density = 1.977527 g / cm^3
# Si number density = 19.820383 Si / 1000 Ang^3
#
#
#
# Elastic Constant Matrix: (Units=GPa)
#
#
# Indices 1 2 3 4 5 6 
#
# 1 62.5957 -3.2139 37.6961 0.0000 0.0000 0.0000
# 2 -3.2139 62.5957 37.6961 0.0000 0.0000 0.0000
# 3 37.6961 37.6961 140.4992 0.0000 0.0000 0.0000
# 4 0.0000 0.0000 0.0000 21.6626 0.0000 0.0000
# 5 0.0000 0.0000 0.0000 0.0000 21.6626 0.0000
# 6 0.0000 0.0000 0.0000 0.0000 0.0000 12.6775
#
#
#
# Elastic Compliance Matrix: (Units=1/GPa)
#
#
# Indices 1 2 3 4 5 6 
#
# 1 0.020368 0.005172 -0.006852 0.000000 0.000000 0.000000
# 2 0.005172 0.020368 -0.006852 0.000000 0.000000 0.000000
# 3 -0.006852 -0.006852 0.010795 0.000000 0.000000 0.000000
# 4 0.000000 0.000000 0.000000 0.046162 0.000000 0.000000
# 5 0.000000 0.000000 0.000000 0.000000 0.046162 0.000000
# 6 0.000000 0.000000 0.000000 0.000000 0.000000 0.078880
#
#
# Mechanical properties :
#
#
# Convention : Reuss Voigt Hill
#
# Bulk Modulus (GPa) = 29.01489 45.56080 37.28785
# Shear Modulus (GPa) = 19.89744 24.10136 21.99940
#
# Velocity S-wave (km/s) = 3.17186 3.49089 3.33519
# Velocity P-wave (km/s) = 5.29952 6.26778 5.80388
#
# Compressibility (1/GPa) = 0.03446506
#
# Stress axis : x y z
#
# Youngs Moduli (GPa) = 49.09717 49.09717 92.63953
#
# Poissons Ratio (x) = -0.25395 0.63481
# Poissons Ratio (y) = -0.25395 0.63481
# Poissons Ratio (z) = 0.33644 0.33644
#
# Static dielectric constant tensor:
#      x y z
#    x 3.481800 0.000000 0.000000 
#    y 0.000000 3.481800 0.000000 
#    z 0.000000 0.000000 3.810960 
# 
# 
# High freq. dielectric constant tensor:
#      x y z
#    x 1.755340 0.000000 0.000000 
#    y 0.000000 1.755340 0.000000 
#    z 0.000000 0.000000 1.794590 
# 
# From -- ./inp_files/5365.got.cif
#   From: 2010.03.12/outbox.cif.g09.slc.cpg/sg125_3_cif.got.tgz:5365.got - 2010.04.06 16:47:52.
