data_PCOD8313989
_publ_section_title
;
Structure prediction by ZEFSAII (Michael W. Deem and Ramdas Pophale) SiO2 
 PCOD8313989
Probable space group: P 4/M B M
;
_chemical_formula_sum "Si O2"
_cell_formula_units_Z 104
_cell_length_a 18.314773
_cell_length_b 18.314773
_cell_length_c 17.098298
_cell_angle_alpha 90.000000
_cell_angle_beta 90.000000
_cell_angle_gamma 90.000000
_cell_volume 5735.297658
_symmetry_space_group_name_H-M "P 4/M B M"
_symmetry_group_IT_number 127
_symmetry_cell_setting 'tetragonal'
loop_
_space_group_symop_operation_xyz
x,y,z
-y,x,z
-x,-y,z
y,-x,z
1/2+x,1/2-y,-z
1/2-x,1/2+y,-z
1/2+y,1/2+x,-z
1/2-y,1/2-x,-z
-x,-y,-z
y,-x,-z
x,y,-z
-y,x,-z
1/2-x,1/2+y,z
1/2+x,1/2-y,z
1/2-y,1/2-x,z
1/2+y,1/2+x,z
loop_
_atom_site_type_symbol
_atom_site_label
_atom_site_fract_x
_atom_site_fract_y
_atom_site_fract_z
Si Si1 0.834460 0.144020 0.500000
Si Si2 0.061259 0.438742 0.590297
Si Si3 0.429789 0.591140 0.908107
Si Si4 0.164933 0.218623 0.665301
Si Si5 0.487630 0.787282 0.654815
Si Si6 0.826532 0.211127 0.089343
Si Si7 0.019212 0.786015 0.500000
Si Si8 0.379913 0.236692 0.242541
O O1 0.799068 0.182347 0.575087
O O2 0.921286 0.150930 0.500000
O O3 0.822580 0.058634 0.500000
O O4 0.081864 0.418137 0.500000
O O5 0.130403 0.464817 0.638873
O O6 0.000000 0.500000 0.591028
O O7 0.397429 0.512807 0.875405
O O8 0.374800 0.659503 0.888635
O O9 0.435579 0.584333 0.000000
O O10 0.210118 0.289883 0.690614
O O11 0.187502 0.150399 0.720031
O O12 0.079754 0.234932 0.675731
O O13 0.530537 0.762528 0.577225
O O14 0.538943 0.781523 0.730286
O O15 0.742139 0.242139 0.100108
O O16 0.878094 0.257175 0.148075
O O17 0.851885 0.225536 0.000000
O O18 0.328346 0.171655 0.273043
#
# Coordination Sequence:
#
# PCOD8313989 Si02
#       8
#     8   8  16  16  16  16   8  16
#     4  10  19  33  51  74 101 142 181 214 247 307
#     4  11  22  34  52  78 107 139 173 224 281 317
#     4   8  14  26  47  75 103 130 161 202 259 321
#     4  10  20  33  53  74 102 140 177 214 260 313
#     4  11  20  36  53  76 109 138 179 221 263 317
#     4   9  18  33  52  75 105 138 174 219 268 325
#     4  10  20  32  53  75 104 143 182 214 257 301
#     4  10  21  35  52  77 104 137 178 218 266 321
#
# _framework density 18.133323000000001
#
# number of rings (size 3 to 8) (size 9 to 14) (size 15 to 20)
#    0.000    2.231    3.077    1.154    0.000    1.385 
#    0.000    0.000    0.000    0.462    0.000    0.538 
#    0.000    3.077    0.000    0.462    0.000    0.000 
#
# Total GULP energy -1288549.141489 kJ/mol
# GULP energy per Si atom -12389.895591 kJ/mol
# Density = 1.809205 g / cm^3
# Si number density = 18.133323 Si / 1000 Ang^3
#
#
#
# Elastic Constant Matrix: (Units=GPa)
#
#
# Indices 1 2 3 4 5 6 
#
# 1 63.5004 62.8316 22.0906 0.0000 0.0000 0.0000
# 2 62.8316 63.5004 22.0907 0.0000 0.0000 0.0000
# 3 22.0906 22.0907 78.2235 0.0000 0.0000 0.0000
# 4 0.0000 0.0000 0.0000 18.7124 0.0000 0.0000
# 5 0.0000 0.0000 0.0000 0.0000 18.7124 0.0000
# 6 0.0000 0.0000 0.0000 0.0000 0.0000 25.9223
#
#
#
# Elastic Compliance Matrix: (Units=1/GPa)
#
#
# Indices 1 2 3 4 5 6 
#
# 1 0.752010 -0.743227 -0.002480 0.000000 0.000000 0.000000
# 2 -0.743227 0.752010 -0.002481 0.000000 0.000000 0.000000
# 3 -0.002480 -0.002481 0.014185 0.000000 0.000000 0.000000
# 4 0.000000 0.000000 0.000000 0.053441 0.000000 0.000000
# 5 0.000000 0.000000 0.000000 0.000000 0.053441 0.000000
# 6 0.000000 0.000000 0.000000 0.000000 0.000000 0.038577
#
#
# Mechanical properties :
#
#
# Convention : Reuss Voigt Hill
#
# Bulk Modulus (GPa) = 45.80962 46.58336 46.19649
# Shear Modulus (GPa) = 1.57862 19.21683 10.39773
#
# Velocity S-wave (km/s) = 0.93405 3.25892 2.39718
# Velocity P-wave (km/s) = 5.14595 6.31711 5.76136
#
# Compressibility (1/GPa) = 0.02182948
#
# Stress axis : x y z
#
# Youngs Moduli (GPa) = 1.32977 1.32977 70.49790
#
# Poissons Ratio (x) = 0.98832 0.17482
# Poissons Ratio (y) = 0.98832 0.17491
# Poissons Ratio (z) = 0.00330 0.00330
#
# Static dielectric constant tensor:
#      x y z
#    x 3.301780 0.000000 0.000000 
#    y 0.000000 3.301780 0.000000 
#    z 0.000000 0.000000 3.342800 
# 
# 
# High freq. dielectric constant tensor:
#      x y z
#    x 1.692140 0.000000 0.000000 
#    y 0.000000 1.692140 0.000000 
#    z 0.000000 0.000000 1.692970 
# 
# From -- ./inp_files/5261.got.cif
#   From: 2010.03.12/outbox.cif.g09.slc.cpg/sg127_3_cif.got.tgz:5261.got - 2010.04.06 17:03:15.
