data_PCOD8313047
_publ_section_title
;
Structure prediction by ZEFSAII (Michael W. Deem and Ramdas Pophale) SiO2 
 PCOD8313047
Probable space group: P 4/M M M
;
_chemical_formula_sum "Si O2"
_cell_formula_units_Z 112
_cell_length_a 18.395005
_cell_length_b 18.395005
_cell_length_c 22.112461
_cell_angle_alpha 90.000000
_cell_angle_beta 90.000000
_cell_angle_gamma 90.000000
_cell_volume 7482.330724
_symmetry_space_group_name_H-M "P 4/M M M"
_symmetry_group_IT_number 123
_symmetry_cell_setting 'tetragonal'
loop_
_space_group_symop_operation_xyz
x,y,z
-y,x,z
-x,-y,z
y,-x,z
x,-y,-z
-x,y,-z
y,x,-z
-y,-x,-z
-x,-y,-z
y,-x,-z
x,y,-z
-y,x,-z
-x,y,z
x,-y,z
-y,-x,z
y,x,z
loop_
_atom_site_type_symbol
_atom_site_label
_atom_site_fract_x
_atom_site_fract_y
_atom_site_fract_z
Si Si1 0.298378 0.582746 0.706407
Si Si2 0.083208 0.798816 0.319228
Si Si3 0.796562 0.584034 0.179132
Si Si4 0.346590 0.916920 0.249630
Si Si5 0.582805 0.152942 0.638312
Si Si6 0.416843 0.701395 0.931518
Si Si7 0.704656 0.083896 0.568198
O O1 0.326138 0.500000 0.703225
O O2 0.365823 0.634178 0.691763
O O3 0.266834 0.600227 0.772663
O O4 0.236351 0.597044 0.656575
O O5 0.133031 0.866970 0.302790
O O6 0.098004 0.735925 0.270315
O O7 0.103290 0.769912 0.386231
O O8 0.000000 0.824976 0.316807
O O9 0.820618 0.500000 0.183445
O O10 0.866471 0.634344 0.192275
O O11 0.767373 0.604711 0.112723
O O12 0.400620 0.898934 0.304731
O O13 0.357512 0.000000 0.230009
O O14 0.500000 0.140710 0.618258
O O15 0.634112 0.132782 0.582122
O O16 0.500000 0.677881 0.920027
O O17 0.369151 0.630849 0.917239
O O18 0.404795 0.729062 0.000000
O O19 0.730948 0.099638 0.500000
O O20 0.682097 0.000000 0.577420
#
# Coordination Sequence:
#
# PCOD8313047 Si02
#       7
#    16  16  16  16  16  16  16
#     4   9  17  28  41  58  80 104 132 167 204 242
#     4   9  18  31  45  62  83 105 131 163 196 232
#     4   9  17  27  40  60  84 109 137 169 203 239
#     4   9  17  28  43  63  84 106 133 164 198 239
#     4   9  17  27  40  60  83 105 131 164 199 237
#     4   9  17  28  41  58  82 112 146 182 214 243
#     4   9  18  30  42  59  83 108 132 158 191 233
#
# _framework density 14.968598
#
# number of rings (size 3 to 8) (size 9 to 14) (size 15 to 20)
#    0.000    3.000    0.000    3.000    0.000    8.714 
#    0.000    1.429    0.000    3.000    0.000    4.000 
#    0.000    0.000    0.000    3.143    0.000    0.000 
#
# Total GULP energy -1388701.752147 kJ/mol
# GULP energy per Si atom -12399.122787 kJ/mol
# Density = 1.493453 g / cm^3
# Si number density = 14.968598 Si / 1000 Ang^3
#
#
#
# Elastic Constant Matrix: (Units=GPa)
#
#
# Indices 1 2 3 4 5 6 
#
# 1 86.7866 64.0567 34.2404 0.0000 0.0000 0.0000
# 2 64.0567 86.7866 34.2404 0.0000 0.0000 0.0000
# 3 34.2404 34.2404 62.0683 0.0000 0.0000 0.0000
# 4 0.0000 0.0000 0.0000 17.8405 0.0000 0.0000
# 5 0.0000 0.0000 0.0000 0.0000 17.8405 0.0000
# 6 0.0000 0.0000 0.0000 0.0000 0.0000 27.3624
#
#
#
# Elastic Compliance Matrix: (Units=1/GPa)
#
#
# Indices 1 2 3 4 5 6 
#
# 1 0.026420 -0.017575 -0.004879 0.000000 0.000000 0.000000
# 2 -0.017575 0.026420 -0.004879 0.000000 0.000000 0.000000
# 3 -0.004879 -0.004879 0.021494 0.000000 0.000000 0.000000
# 4 0.000000 0.000000 0.000000 0.056052 0.000000 0.000000
# 5 0.000000 0.000000 0.000000 0.000000 0.056052 0.000000
# 6 0.000000 0.000000 0.000000 0.000000 0.000000 0.036547
#
#
# Mechanical properties :
#
#
# Convention : Reuss Voigt Hill
#
# Bulk Modulus (GPa) = 50.84670 55.63516 53.24093
# Shear Modulus (GPa) = 17.59277 19.48226 18.53752
#
# Velocity S-wave (km/s) = 3.43200 3.61160 3.52295
# Velocity P-wave (km/s) = 7.05319 7.39190 7.22453
#
# Compressibility (1/GPa) = 0.01966696
#
# Stress axis : x y z
#
# Youngs Moduli (GPa) = 37.85056 37.85056 46.52357
#
# Poissons Ratio (x) = 0.66523 0.22699
# Poissons Ratio (y) = 0.66523 0.22699
# Poissons Ratio (z) = 0.18468 0.18468
#
# Static dielectric constant tensor:
#      x y z
#    x 2.802210 0.000000 0.000000 
#    y 0.000000 2.802210 0.000000 
#    z 0.000000 0.000000 2.807310 
# 
# 
# High freq. dielectric constant tensor:
#      x y z
#    x 1.565260 0.000000 0.000000 
#    y 0.000000 1.565260 0.000000 
#    z 0.000000 0.000000 1.549720 
# 
# From -- ./inp_files/7561.got.cif
#   From: 2010.03.12/outbox.cif.g09.slc.cpg/sg123_4_cif.got.tgz:7561.got - 2010.04.06 16:26:55.
