data_PCOD8313990
_publ_section_title
;
Structure prediction by ZEFSAII (Michael W. Deem and Ramdas Pophale) SiO2 
 PCOD8313990
Probable space group: P 4/M B M
;
_chemical_formula_sum "Si O2"
_cell_formula_units_Z 120
_cell_length_a 17.351350
_cell_length_b 17.351350
_cell_length_c 22.428284
_cell_angle_alpha 90.000000
_cell_angle_beta 90.000000
_cell_angle_gamma 90.000000
_cell_volume 6752.468814
_symmetry_space_group_name_H-M "P 4/M B M"
_symmetry_group_IT_number 127
_symmetry_cell_setting 'tetragonal'
loop_
_space_group_symop_operation_xyz
x,y,z
-y,x,z
-x,-y,z
y,-x,z
1/2+x,1/2-y,-z
1/2-x,1/2+y,-z
1/2+y,1/2+x,-z
1/2-y,1/2-x,-z
-x,-y,-z
y,-x,-z
x,y,-z
-y,x,-z
1/2-x,1/2+y,z
1/2+x,1/2-y,z
1/2-y,1/2-x,z
1/2+y,1/2+x,z
loop_
_atom_site_type_symbol
_atom_site_label
_atom_site_fract_x
_atom_site_fract_y
_atom_site_fract_z
Si Si1 0.119808 0.976720 0.070410
Si Si2 0.176962 0.805975 0.433771
Si Si3 0.221230 0.407550 0.358812
Si Si4 0.113597 0.738246 0.781108
Si Si5 0.732822 0.643958 0.237153
Si Si6 0.435680 0.935680 0.070520
Si Si7 0.704185 0.920442 0.354032
Si Si8 0.723139 0.032313 0.863651
O O1 0.204538 0.958087 0.093190
O O2 0.060189 0.910791 0.092717
O O3 0.123267 0.976258 0.000000
O O4 0.143906 0.822535 0.500000
O O5 0.238941 0.738941 0.436196
O O6 0.218030 0.882723 0.409352
O O7 0.109678 0.779756 0.388891
O O8 0.147543 0.352458 0.356012
O O9 0.267388 0.409609 0.295777
O O10 0.189676 0.492107 0.374013
O O11 0.179157 0.679157 0.801860
O O12 0.147309 0.825957 0.780212
O O13 0.081951 0.717747 0.716275
O O14 0.047820 0.730889 0.829839
O O15 0.779803 0.720198 0.255459
O O16 0.774905 0.601651 0.183147
O O17 0.463826 0.855503 0.099009
O O18 0.500000 0.000000 0.084394
O O19 0.424251 0.924251 0.000000
O O20 0.628974 0.871027 0.371777
#
# Coordination Sequence:
#
# PCOD8313990 Si02
#       8
#    16  16  16  16  16   8  16  16
#     4   9  19  36  57  81 108 138 177 229 286 338
#     4   9  18  34  56  77 102 146 198 232 265 331
#     4  10  19  33  53  79 114 147 181 228 284 334
#     4  10  20  33  52  78 112 142 176 229 281 329
#     4  10  19  33  51  79 110 140 177 227 282 327
#     4  11  26  44  58  78 118 164 199 232 278 344
#     4  10  19  33  52  80 113 147 182 227 283 334
#     4  12  20  35  57  85 105 146 188 230 274 342
#
# _framework density 17.771277999999999
#
# number of rings (size 3 to 8) (size 9 to 14) (size 15 to 20)
#    0.000    1.933    3.333    2.000    0.000    0.800 
#    0.000    0.000    0.000    0.400    0.000    4.667 
#    0.000    0.000    0.000    0.000    0.000    0.000 
#
# Total GULP energy -1487690.862153 kJ/mol
# GULP energy per Si atom -12397.423851 kJ/mol
# Density = 1.773083 g / cm^3
# Si number density = 17.771278 Si / 1000 Ang^3
#
#
#
# Elastic Constant Matrix: (Units=GPa)
#
#
# Indices 1 2 3 4 5 6 
#
# 1 76.6387 30.8192 21.2606 0.0000 0.0000 0.0000
# 2 30.8192 76.6387 21.2606 0.0000 0.0000 0.0000
# 3 21.2606 21.2606 75.1289 0.0000 0.0000 0.0000
# 4 0.0000 0.0000 0.0000 18.3820 0.0000 0.0000
# 5 0.0000 0.0000 0.0000 0.0000 18.3820 0.0000
# 6 0.0000 0.0000 0.0000 0.0000 0.0000 20.6981
#
#
#
# Elastic Compliance Matrix: (Units=1/GPa)
#
#
# Indices 1 2 3 4 5 6 
#
# 1 0.016152 -0.005673 -0.002966 0.000000 0.000000 0.000000
# 2 -0.005673 0.016152 -0.002966 0.000000 0.000000 0.000000
# 3 -0.002966 -0.002966 0.014989 0.000000 0.000000 0.000000
# 4 0.000000 0.000000 0.000000 0.054401 0.000000 0.000000
# 5 0.000000 0.000000 0.000000 0.000000 0.054401 0.000000
# 6 0.000000 0.000000 0.000000 0.000000 0.000000 0.048314
#
#
# Mechanical properties :
#
#
# Convention : Reuss Voigt Hill
#
# Bulk Modulus (GPa) = 41.51870 41.67637 41.59753
# Shear Modulus (GPa) = 21.21838 21.83015 21.52427
#
# Velocity S-wave (km/s) = 3.45914 3.50865 3.48398
# Velocity P-wave (km/s) = 6.27437 6.31796 6.29620
#
# Compressibility (1/GPa) = 0.02408553
#
# Stress axis : x y z
#
# Youngs Moduli (GPa) = 61.91145 61.91145 66.71599
#
# Poissons Ratio (x) = 0.35120 0.19785
# Poissons Ratio (y) = 0.35120 0.19785
# Poissons Ratio (z) = 0.18360 0.18360
#
# Static dielectric constant tensor:
#      x y z
#    x 3.265830 0.000000 0.000000 
#    y 0.000000 3.265830 0.000000 
#    z 0.000000 0.000000 3.345940 
# 
# 
# High freq. dielectric constant tensor:
#      x y z
#    x 1.679670 0.000000 0.000000 
#    y 0.000000 1.679670 0.000000 
#    z 0.000000 0.000000 1.689780 
# 
# From -- ./inp_files/5972.got.cif
#   From: 2010.03.12/outbox.cif.g09.slc.cpg/sg127_3_cif.got.tgz:5972.got - 2010.04.06 17:03:15.
