data_PCOD8313960
_publ_section_title
;
Structure prediction by ZEFSAII (Michael W. Deem and Ramdas Pophale) SiO2 
 PCOD8313960
Probable space group: P 4/M B M
;
_chemical_formula_sum "Si O2"
_cell_formula_units_Z 120
_cell_length_a 14.723697
_cell_length_b 14.723697
_cell_length_c 29.350004
_cell_angle_alpha 90.000000
_cell_angle_beta 90.000000
_cell_angle_gamma 90.000000
_cell_volume 6362.706753
_symmetry_space_group_name_H-M "P 4/M B M"
_symmetry_group_IT_number 127
_symmetry_cell_setting 'tetragonal'
loop_
_space_group_symop_operation_xyz
x,y,z
-y,x,z
-x,-y,z
y,-x,z
1/2+x,1/2-y,-z
1/2-x,1/2+y,-z
1/2+y,1/2+x,-z
1/2-y,1/2-x,-z
-x,-y,-z
y,-x,-z
x,y,-z
-y,x,-z
1/2-x,1/2+y,z
1/2+x,1/2-y,z
1/2-y,1/2-x,z
1/2+y,1/2+x,z
loop_
_atom_site_type_symbol
_atom_site_label
_atom_site_fract_x
_atom_site_fract_y
_atom_site_fract_z
Si Si1 0.570260 0.070260 0.054080
Si Si2 0.178043 0.827702 0.095498
Si Si3 0.278315 0.632468 0.639806
Si Si4 0.216835 0.864969 0.722592
Si Si5 0.855028 0.500265 0.683948
Si Si6 0.761515 0.000647 0.946845
Si Si7 0.093199 0.116960 0.814180
Si Si8 0.084343 0.877083 0.449798
O O1 0.543414 0.168523 0.071550
O O2 0.500000 0.000000 0.075739
O O3 0.567513 0.067513 0.000000
O O4 0.266407 0.766407 0.084656
O O5 0.088534 0.772323 0.083028
O O6 0.178384 0.855975 0.148372
O O7 0.168484 0.918276 0.064158
O O8 0.225288 0.725288 0.640538
O O9 0.355471 0.648162 0.678911
O O10 0.211765 0.545948 0.647226
O O11 0.317761 0.626753 0.589660
O O12 0.271942 0.771942 0.729881
O O13 0.151061 0.879157 0.764730
O O14 0.287663 0.949844 0.719516
O O15 0.920171 0.420171 0.705696
O O16 0.921857 0.578144 0.662278
O O17 0.762760 0.975196 0.000000
O O18 0.985821 0.125827 0.820670
O O19 0.110594 0.838629 0.500000
O O20 0.976963 0.876283 0.444277
#
# Coordination Sequence:
#
# PCOD8313960 Si02
#       8
#     8  16  16  16  16  16  16  16
#     4   9  18  36  60  90 124 153 191 243 293 342
#     4  12  24  42  64  89 123 160 198 244 299 358
#     4  10  19  31  52  81 108 138 182 232 278 334
#     4  10  20  35  57  84 110 142 187 236 283 338
#     4   9  18  33  53  78 111 147 182 227 286 345
#     4  11  23  39  64  93 120 156 199 243 292 351
#     4  11  23  40  59  81 113 151 189 232 290 350
#     4   9  18  32  49  70 101 141 181 225 280 335
#
# _framework density 18.859898000000001
#
# number of rings (size 3 to 8) (size 9 to 14) (size 15 to 20)
#    0.000    1.800    2.000    3.200    0.000    1.867 
#    0.000    2.667    0.000    1.200    0.000    1.867 
#    0.000    0.000    0.000    0.000    0.000    0.000 
#
# Total GULP energy -1487205.254765 kJ/mol
# GULP energy per Si atom -12393.377123 kJ/mol
# Density = 1.881697 g / cm^3
# Si number density = 18.859898 Si / 1000 Ang^3
#
#
#
# Elastic Constant Matrix: (Units=GPa)
#
#
# Indices 1 2 3 4 5 6 
#
# 1 69.3778 32.4849 37.0435 0.0000 0.0000 0.0000
# 2 32.4849 69.3778 37.0435 0.0000 0.0000 0.0000
# 3 37.0435 37.0435 104.9436 0.0000 0.0000 0.0000
# 4 0.0000 0.0000 0.0000 29.9597 0.0000 0.0000
# 5 0.0000 0.0000 0.0000 0.0000 29.9597 0.0000
# 6 0.0000 0.0000 0.0000 0.0000 0.0000 26.6370
#
#
#
# Elastic Compliance Matrix: (Units=1/GPa)
#
#
# Indices 1 2 3 4 5 6 
#
# 1 0.020157 -0.006949 -0.004662 0.000000 0.000000 0.000000
# 2 -0.006949 0.020157 -0.004662 0.000000 0.000000 0.000000
# 3 -0.004662 -0.004662 0.012820 0.000000 0.000000 0.000000
# 4 0.000000 0.000000 0.000000 0.033378 0.000000 0.000000
# 5 0.000000 0.000000 0.000000 0.000000 0.033378 0.000000
# 6 0.000000 0.000000 0.000000 0.000000 0.000000 0.037542
#
#
# Mechanical properties :
#
#
# Convention : Reuss Voigt Hill
#
# Bulk Modulus (GPa) = 48.57314 50.76034 49.66674
# Shear Modulus (GPa) = 25.40120 26.45309 25.92714
#
# Velocity S-wave (km/s) = 3.67391 3.74921 3.71175
# Velocity P-wave (km/s) = 6.61872 6.76128 6.69038
#
# Compressibility (1/GPa) = 0.02058751
#
# Stress axis : x y z
#
# Youngs Moduli (GPa) = 49.61101 49.61101 78.00103
#
# Poissons Ratio (x) = 0.34473 0.36366
# Poissons Ratio (y) = 0.34473 0.36366
# Poissons Ratio (z) = 0.23130 0.23130
#
# Static dielectric constant tensor:
#      x y z
#    x 3.641670 0.000000 0.000000 
#    y 0.000000 3.641670 0.000000 
#    z 0.000000 0.000000 3.287650 
# 
# 
# High freq. dielectric constant tensor:
#      x y z
#    x 1.740480 0.000000 0.000000 
#    y 0.000000 1.740480 0.000000 
#    z 0.000000 0.000000 1.710990 
# 
# From -- ./inp_files/6681.got.cif
#   From: 2010.03.12/outbox.cif.g09.slc.cpg/sg127_4_cif.got.tgz:6681.got - 2010.04.06 17:03:15.
