data_PCOD8313799
_publ_section_title
;
Structure prediction by ZEFSAII (Michael W. Deem and Ramdas Pophale) SiO2 
 PCOD8313799
Probable space group: P 4/N N C
;
_chemical_formula_sum "Si O2"
_cell_formula_units_Z 32
_cell_length_a 12.814704
_cell_length_b 12.814704
_cell_length_c 7.161944
_cell_angle_alpha 90.000000
_cell_angle_beta 90.000000
_cell_angle_gamma 90.000000
_cell_volume 1176.110370
_symmetry_space_group_name_H-M "P 4/N N C"
_symmetry_group_IT_number 126
_space_group.IT_coordinate_system_code '2'
_symmetry_cell_setting 'tetragonal'
loop_
_space_group_symop_operation_xyz
x,y,z
1/2-y,x,z
1/2-x,1/2-y,z
y,1/2-x,z
x,1/2-y,1/2-z
1/2-x,y,1/2-z
y,x,1/2-z
1/2-y,1/2-x,1/2-z
-x,-y,-z
1/2+y,-x,-z
1/2+x,1/2+y,-z
-y,1/2+x,-z
-x,1/2+y,1/2+z
1/2+x,-y,1/2+z
-y,-x,1/2+z
1/2+y,1/2+x,1/2+z
loop_
_atom_site_type_symbol
_atom_site_label
_atom_site_fract_x
_atom_site_fract_y
_atom_site_fract_z
Si Si1 0.158142 0.009566 0.604788
Si Si2 0.516526 0.646152 0.607485
O O1 0.250000 0.026563 0.750000
O O2 0.100111 0.899181 0.630541
O O3 0.067806 0.099816 0.590856
O O4 0.226925 0.008542 0.407247
O O5 0.600769 0.600769 0.750000
#
# Coordination Sequence:
#
# PCOD8313799 Si02
#       2
#    16  16
#     4  11  23  43  71 102 138 180 227 280 339 404
#     4  11  24  44  69 102 139 177 228 282 335 404
#
# _framework density 27.208331000000001
#
# number of rings (size 3 to 8) (size 9 to 14) (size 15 to 20)
#    0.000    1.000    0.000    9.000    0.000    2.000 
#    0.000   12.500    0.000    0.000    0.000    0.000 
#    0.000    0.000    0.000    0.000    0.000    0.000 
#
# Total GULP energy -396575.913533 kJ/mol
# GULP energy per Si atom -12392.997298 kJ/mol
# Density = 2.714640 g / cm^3
# Si number density = 27.208331 Si / 1000 Ang^3
#
#
#
# Elastic Constant Matrix: (Units=GPa)
#
#
# Indices 1 2 3 4 5 6 
#
# 1 177.8703 60.5137 15.1275 0.0000 0.0000 0.0000
# 2 60.5137 177.8703 15.1275 0.0000 0.0000 0.0000
# 3 15.1275 15.1275 52.4190 0.0000 0.0000 0.0000
# 4 0.0000 0.0000 0.0000 40.5760 0.0000 0.0000
# 5 0.0000 0.0000 0.0000 0.0000 40.5760 0.0000
# 6 0.0000 0.0000 0.0000 0.0000 0.0000 23.5488
#
#
#
# Elastic Compliance Matrix: (Units=1/GPa)
#
#
# Indices 1 2 3 4 5 6 
#
# 1 0.006438 -0.002083 -0.001257 0.000000 0.000000 0.000000
# 2 -0.002083 0.006438 -0.001257 0.000000 0.000000 0.000000
# 3 -0.001257 -0.001257 0.019802 0.000000 0.000000 0.000000
# 4 0.000000 0.000000 0.000000 0.024645 0.000000 0.000000
# 5 0.000000 0.000000 0.000000 0.000000 0.024645 0.000000
# 6 0.000000 0.000000 0.000000 0.000000 0.000000 0.042465
#
#
# Mechanical properties :
#
#
# Convention : Reuss Voigt Hill
#
# Bulk Modulus (GPa) = 42.58105 65.52190 54.05147
# Shear Modulus (GPa) = 35.34710 42.09956 38.72333
#
# Velocity S-wave (km/s) = 3.60825 3.93785 3.77665
# Velocity P-wave (km/s) = 5.74833 6.69398 6.23910
#
# Compressibility (1/GPa) = 0.02348463
#
# Stress axis : x y z
#
# Youngs Moduli (GPa) = 155.33449 155.33449 50.49906
#
# Poissons Ratio (x) = 0.32361 0.06346
# Poissons Ratio (y) = 0.32361 0.06346
# Poissons Ratio (z) = 0.19520 0.19520
#
# Static dielectric constant tensor:
#      x y z
#    x 5.112510 0.000000 0.000000 
#    y 0.000000 5.112510 0.000000 
#    z 0.000000 0.000000 10.274050 
# 
# 
# High freq. dielectric constant tensor:
#      x y z
#    x 2.090420 0.000000 0.000000 
#    y 0.000000 2.090420 0.000000 
#    z 0.000000 0.000000 2.203610 
# 
# From -- ./inp_files/824.got.cif
#   From: 2010.03.12/outbox.cif.g09.slc.cpg/sg126_1_cif.got.tgz:824.got - 2010.04.06 16:55:23.
