data_PCOD8313525
_publ_section_title
;
Structure prediction by ZEFSAII (Michael W. Deem and Ramdas Pophale) SiO2 
 PCOD8313525
Probable space group: P 4/N B M
;
_chemical_formula_sum "Si O2"
_cell_formula_units_Z 96
_cell_length_a 14.547440
_cell_length_b 14.547440
_cell_length_c 23.270648
_cell_angle_alpha 90.000000
_cell_angle_beta 90.000000
_cell_angle_gamma 90.000000
_cell_volume 4924.720941
_symmetry_space_group_name_H-M "P 4/N B M"
_symmetry_group_IT_number 125
_space_group.IT_coordinate_system_code '2'
_symmetry_cell_setting 'tetragonal'
loop_
_space_group_symop_operation_xyz
x,y,z
1/2-y,x,z
1/2-x,1/2-y,z
y,1/2-x,z
x,1/2-y,-z
1/2-x,y,-z
y,x,-z
1/2-y,1/2-x,-z
-x,-y,-z
1/2+y,-x,-z
1/2+x,1/2+y,-z
-y,1/2+x,-z
-x,1/2+y,z
1/2+x,-y,z
-y,-x,z
1/2+y,1/2+x,z
loop_
_atom_site_type_symbol
_atom_site_label
_atom_site_fract_x
_atom_site_fract_y
_atom_site_fract_z
Si Si1 0.993620 0.647648 0.026554
Si Si2 0.992006 0.154013 0.660730
Si Si3 0.352257 0.360368 0.255238
Si Si4 0.483143 0.365076 0.157698
Si Si5 0.247886 0.604501 0.765583
Si Si6 0.900511 0.740653 0.564710
O O1 0.089084 0.589084 0.020014
O O2 0.963980 0.662046 0.092411
O O3 0.006171 0.750000 0.000000
O O4 0.908658 0.591343 0.000000
O O5 0.926507 0.073494 0.636747
O O6 0.941504 0.215822 0.707365
O O7 0.079425 0.105120 0.692729
O O8 0.016458 0.222803 0.608471
O O9 0.244775 0.378242 0.262569
O O10 0.389849 0.390972 0.192489
O O11 0.545394 0.454607 0.160638
O O12 0.530284 0.276512 0.186940
O O13 0.334964 0.665037 0.748235
O O14 0.166653 0.666653 0.792812
O O15 0.845716 0.833899 0.576047
O O16 0.939055 0.750000 0.500000
#
# Coordination Sequence:
#
# PCOD8313525 Si02
#       6
#    16  16  16  16  16  16
#     4  10  24  43  64  91 124 164 213 268 323 387
#     4  11  21  35  56  86 119 151 193 244 296 348
#     4  11  22  35  53  83 119 154 190 236 299 364
#     4  10  21  39  60  86 115 151 199 247 305 366
#     4   9  19  36  57  82 114 152 192 237 294 358
#     4   9  19  38  60  79 108 152 197 238 285 341
#
# _framework density 19.493489
#
# number of rings (size 3 to 8) (size 9 to 14) (size 15 to 20)
#    0.000    2.000    1.667    2.000    2.333    2.333 
#    0.000    4.167    0.000    0.000    0.000    0.000 
#    0.000    0.000    0.000    0.000    0.000    0.000 
#
# Total GULP energy -1189669.703421 kJ/mol
# GULP energy per Si atom -12392.392744 kJ/mol
# Density = 1.944912 g / cm^3
# Si number density = 19.493489 Si / 1000 Ang^3
#
#
#
# Elastic Constant Matrix: (Units=GPa)
#
#
# Indices 1 2 3 4 5 6 
#
# 1 95.9346 32.1421 50.3310 0.0000 0.0000 0.0000
# 2 32.1421 95.9347 50.3308 0.0000 0.0000 0.0000
# 3 50.3310 50.3308 141.2157 0.0000 0.0000 0.0000
# 4 0.0000 0.0000 0.0000 28.5818 0.0000 0.0000
# 5 0.0000 0.0000 0.0000 0.0000 28.5819 0.0000
# 6 0.0000 0.0000 0.0000 0.0000 0.0000 21.6054
#
#
#
# Elastic Compliance Matrix: (Units=1/GPa)
#
#
# Indices 1 2 3 4 5 6 
#
# 1 0.013261 -0.002415 -0.003866 0.000000 0.000000 0.000000
# 2 -0.002415 0.013261 -0.003866 0.000000 0.000000 0.000000
# 3 -0.003866 -0.003866 0.009837 0.000000 0.000000 0.000000
# 4 0.000000 0.000000 0.000000 0.034987 0.000000 0.000000
# 5 0.000000 0.000000 0.000000 0.000000 0.034987 0.000000
# 6 0.000000 0.000000 0.000000 0.000000 0.000000 0.046285
#
#
# Mechanical properties :
#
#
# Convention : Reuss Voigt Hill
#
# Bulk Modulus (GPa) = 62.24192 66.52142 64.38167
# Shear Modulus (GPa) = 28.04801 29.10589 28.57695
#
# Velocity S-wave (km/s) = 3.79732 3.86827 3.83296
# Velocity P-wave (km/s) = 7.15717 7.35869 7.25863
#
# Compressibility (1/GPa) = 0.01606634
#
# Stress axis : x y z
#
# Youngs Moduli (GPa) = 75.40942 75.40966 101.65817
#
# Poissons Ratio (x) = 0.18211 0.39298
# Poissons Ratio (y) = 0.18211 0.39297
# Poissons Ratio (z) = 0.29151 0.29151
#
# Static dielectric constant tensor:
#      x y z
#    x 3.664940 0.000000 0.000000 
#    y 0.000000 3.664940 0.000000 
#    z 0.000000 0.000000 3.681910 
# 
# 
# High freq. dielectric constant tensor:
#      x y z
#    x 1.757520 0.000000 0.000000 
#    y 0.000000 1.757520 0.000000 
#    z 0.000000 0.000000 1.755320 
# 
# From -- ./inp_files/5915.got.cif
#   From: 2010.03.12/outbox.cif.g09.slc.cpg/sg125_3_cif.got.tgz:5915.got - 2010.04.06 16:47:52.
