data_PCOD8313751
_publ_section_title
;
Structure prediction by ZEFSAII (Michael W. Deem and Ramdas Pophale) SiO2 
 PCOD8313751
Probable space group: P 4/N N C
;
_chemical_formula_sum "Si O2"
_cell_formula_units_Z 48
_cell_length_a 12.686740
_cell_length_b 12.686740
_cell_length_c 13.450233
_cell_angle_alpha 90.000000
_cell_angle_beta 90.000000
_cell_angle_gamma 90.000000
_cell_volume 2164.860353
_symmetry_space_group_name_H-M "P 4/N N C"
_symmetry_group_IT_number 126
_space_group.IT_coordinate_system_code '2'
_symmetry_cell_setting 'tetragonal'
loop_
_space_group_symop_operation_xyz
x,y,z
1/2-y,x,z
1/2-x,1/2-y,z
y,1/2-x,z
x,1/2-y,1/2-z
1/2-x,y,1/2-z
y,x,1/2-z
1/2-y,1/2-x,1/2-z
-x,-y,-z
1/2+y,-x,-z
1/2+x,1/2+y,-z
-y,1/2+x,-z
-x,1/2+y,1/2+z
1/2+x,-y,1/2+z
-y,-x,1/2+z
1/2+y,1/2+x,1/2+z
loop_
_atom_site_type_symbol
_atom_site_label
_atom_site_fract_x
_atom_site_fract_y
_atom_site_fract_z
Si Si1 0.582971 0.545499 0.142472
Si Si2 0.815423 0.122112 0.650690
Si Si3 0.775827 0.455332 0.058533
O O1 0.598940 0.598940 0.250000
O O2 0.551482 0.422582 0.158498
O O3 0.694627 0.550629 0.083562
O O4 0.491686 0.605100 0.079939
O O5 0.750000 0.108936 0.750000
O O6 0.753203 0.078372 0.554778
O O7 0.854211 0.255328 0.869746
#
# Coordination Sequence:
#
# PCOD8313751 Si02
#       3
#    16  16  16
#     4  10  23  43  71 101 143 183 240 287 365 419
#     4  10  25  43  72 101 142 185 239 292 369 418
#     4  10  24  44  69 102 144 182 240 297 355 427
#
# _framework density 22.172332999999998
#
# number of rings (size 3 to 8) (size 9 to 14) (size 15 to 20)
#    2.000    0.000    0.000    2.000    4.667    1.333 
#    6.000    1.667    0.000    0.000    0.000    2.333 
#    0.000    0.000    0.000    0.000    0.000    0.000 
#
# Total GULP energy -594744.545737 kJ/mol
# GULP energy per Si atom -12390.511370 kJ/mol
# Density = 2.212187 g / cm^3
# Si number density = 22.172333 Si / 1000 Ang^3
#
#
#
# Elastic Constant Matrix: (Units=GPa)
#
#
# Indices 1 2 3 4 5 6 
#
# 1 95.1886 54.1405 67.6291 0.0000 0.0000 0.0000
# 2 54.1405 95.1886 67.6291 0.0000 0.0000 0.0000
# 3 67.6291 67.6291 184.7080 0.0000 0.0000 0.0000
# 4 0.0000 0.0000 0.0000 38.9097 0.0000 0.0000
# 5 0.0000 0.0000 0.0000 0.0000 38.9097 0.0000
# 6 0.0000 0.0000 0.0000 0.0000 0.0000 19.6919
#
#
#
# Elastic Compliance Matrix: (Units=1/GPa)
#
#
# Indices 1 2 3 4 5 6 
#
# 1 0.017191 -0.007171 -0.003669 0.000000 0.000000 0.000000
# 2 -0.007171 0.017191 -0.003669 0.000000 0.000000 0.000000
# 3 -0.003669 -0.003669 0.008100 0.000000 0.000000 0.000000
# 4 0.000000 0.000000 0.000000 0.025701 0.000000 0.000000
# 5 0.000000 0.000000 0.000000 0.000000 0.025701 0.000000
# 6 0.000000 0.000000 0.000000 0.000000 0.000000 0.050782
#
#
# Mechanical properties :
#
#
# Convention : Reuss Voigt Hill
#
# Bulk Modulus (GPa) = 74.26577 83.76475 79.01526
# Shear Modulus (GPa) = 28.06315 31.88135 29.97225
#
# Velocity S-wave (km/s) = 3.56150 3.79606 3.68065
# Velocity P-wave (km/s) = 7.10492 7.55476 7.33329
#
# Compressibility (1/GPa) = 0.01346515
#
# Stress axis : x y z
#
# Youngs Moduli (GPa) = 58.17147 58.17147 123.45140
#
# Poissons Ratio (x) = 0.41715 0.45289
# Poissons Ratio (y) = 0.41715 0.45289
# Poissons Ratio (z) = 0.21340 0.21340
#
# Static dielectric constant tensor:
#      x y z
#    x 3.869050 0.000000 0.000000 
#    y 0.000000 3.869050 0.000000 
#    z 0.000000 0.000000 3.940950 
# 
# 
# High freq. dielectric constant tensor:
#      x y z
#    x 1.855380 0.000000 0.000000 
#    y 0.000000 1.855380 0.000000 
#    z 0.000000 0.000000 1.887110 
# 
# From -- ./inp_files/2276.got.cif
#   From: 2010.03.12/outbox.cif.g09.slc.cpg/sg126_2_cif.got.tgz:2276.got - 2010.04.06 16:55:23.
