data_PCOD8313970
_publ_section_title
;
Structure prediction by ZEFSAII (Michael W. Deem and Ramdas Pophale) SiO2 
 PCOD8313970
Probable space group: P 4/M B M
;
_chemical_formula_sum "Si O2"
_cell_formula_units_Z 72
_cell_length_a 21.378835
_cell_length_b 21.378835
_cell_length_c 8.751038
_cell_angle_alpha 90.000000
_cell_angle_beta 90.000000
_cell_angle_gamma 90.000000
_cell_volume 3999.702050
_symmetry_space_group_name_H-M "P 4/M B M"
_symmetry_group_IT_number 127
_symmetry_cell_setting 'tetragonal'
loop_
_space_group_symop_operation_xyz
x,y,z
-y,x,z
-x,-y,z
y,-x,z
1/2+x,1/2-y,-z
1/2-x,1/2+y,-z
1/2+y,1/2+x,-z
1/2-y,1/2-x,-z
-x,-y,-z
y,-x,-z
x,y,-z
-y,x,-z
1/2-x,1/2+y,z
1/2+x,1/2-y,z
1/2-y,1/2-x,z
1/2+y,1/2+x,z
loop_
_atom_site_type_symbol
_atom_site_label
_atom_site_fract_x
_atom_site_fract_y
_atom_site_fract_z
Si Si1 0.383827 0.215701 0.174756
Si Si2 0.097404 0.853276 0.823248
Si Si3 0.816548 0.037816 0.182546
Si Si4 0.812521 0.510607 0.321052
Si Si5 0.050707 0.449294 0.318192
O O1 0.320507 0.179494 0.209574
O O2 0.367425 0.287925 0.205689
O O3 0.437080 0.190298 0.285992
O O4 0.407190 0.207104 0.000000
O O5 0.139179 0.907826 0.747317
O O6 0.027147 0.846842 0.756365
O O7 0.091521 0.870097 0.000000
O O8 0.745534 0.046247 0.241491
O O9 0.813159 0.038922 0.000000
O O10 0.806963 0.522125 0.500000
O O11 0.879365 0.535128 0.258821
O O12 0.048320 0.451681 0.500000
O O13 0.000000 0.500000 0.253973
#
# Coordination Sequence:
#
# PCOD8313970 Si02
#       5
#    16  16  16  16   8
#     4   9  17  31  50  72  98 126 158 196 239 285
#     4   8  15  28  48  71  96 126 157 193 235 285
#     4   9  17  32  50  71  98 127 160 197 242 287
#     4  10  19  32  50  70  95 126 160 200 243 283
#     4   9  18  32  49  69  93 125 161 193 235 292
#
# _framework density 18.001341
#
# number of rings (size 3 to 8) (size 9 to 14) (size 15 to 20)
#    0.000    3.000    0.000    2.667    0.000    1.778 
#    2.000    8.889    0.000    4.000    0.000    6.222 
#    0.000    0.000    0.000    0.000    0.000    0.000 
#
# Total GULP energy -892351.163792 kJ/mol
# GULP energy per Si atom -12393.766164 kJ/mol
# Density = 1.796037 g / cm^3
# Si number density = 18.001341 Si / 1000 Ang^3
#
#
#
# Elastic Constant Matrix: (Units=GPa)
#
#
# Indices 1 2 3 4 5 6 
#
# 1 136.5838 98.4697 19.1381 0.0000 0.0000 0.0000
# 2 98.4697 136.5837 19.1381 0.0000 0.0000 0.0000
# 3 19.1381 19.1381 25.3880 0.0000 0.0000 0.0000
# 4 0.0000 0.0000 0.0000 19.7267 0.0000 0.0000
# 5 0.0000 0.0000 0.0000 0.0000 19.7268 0.0000
# 6 0.0000 0.0000 0.0000 0.0000 0.0000 38.7551
#
#
#
# Elastic Compliance Matrix: (Units=1/GPa)
#
#
# Indices 1 2 3 4 5 6 
#
# 1 0.015543 -0.010694 -0.003656 0.000000 0.000000 0.000000
# 2 -0.010694 0.015543 -0.003656 0.000000 0.000000 0.000000
# 3 -0.003656 -0.003656 0.044900 0.000000 0.000000 0.000000
# 4 0.000000 0.000000 0.000000 0.050693 0.000000 0.000000
# 5 0.000000 0.000000 0.000000 0.000000 0.050693 0.000000
# 6 0.000000 0.000000 0.000000 0.000000 0.000000 0.025803
#
#
# Mechanical properties :
#
#
# Convention : Reuss Voigt Hill
#
# Bulk Modulus (GPa) = 25.01472 63.56081 44.28776
# Shear Modulus (GPa) = 19.80109 26.42902 23.11506
#
# Velocity S-wave (km/s) = 3.32019 3.83583 3.58729
# Velocity P-wave (km/s) = 5.35018 7.41645 6.46638
#
# Compressibility (1/GPa) = 0.03997647
#
# Stress axis : x y z
#
# Youngs Moduli (GPa) = 64.33620 64.33614 22.27156
#
# Poissons Ratio (x) = 0.68799 0.08142
# Poissons Ratio (y) = 0.68799 0.08142
# Poissons Ratio (z) = 0.23520 0.23520
#
# Static dielectric constant tensor:
#      x y z
#    x 3.537990 0.000000 0.000000 
#    y 0.000000 3.537980 0.000000 
#    z 0.000000 0.000000 2.957570 
# 
# 
# High freq. dielectric constant tensor:
#      x y z
#    x 1.699440 0.000000 0.000000 
#    y 0.000000 1.699440 0.000000 
#    z 0.000000 0.000000 1.657910 
# 
# From -- ./inp_files/1554.got.cif
#   From: 2010.03.12/outbox.cif.g09.slc.cpg/sg127_1_cif.got.tgz:1554.got - 2010.04.06 17:03:15.
