data_PCOD8313422
_publ_section_title
;
Structure prediction by ZEFSAII (Michael W. Deem and Ramdas Pophale) SiO2 
 PCOD8313422
Probable space group: P 4/N B M
;
_chemical_formula_sum "Si O2"
_cell_formula_units_Z 112
_cell_length_a 23.794548
_cell_length_b 23.794548
_cell_length_c 12.454489
_cell_angle_alpha 90.000000
_cell_angle_beta 90.000000
_cell_angle_gamma 90.000000
_cell_volume 7051.488990
_symmetry_space_group_name_H-M "P 4/N B M"
_symmetry_group_IT_number 125
_space_group.IT_coordinate_system_code '2'
_symmetry_cell_setting 'tetragonal'
loop_
_space_group_symop_operation_xyz
x,y,z
1/2-y,x,z
1/2-x,1/2-y,z
y,1/2-x,z
x,1/2-y,-z
1/2-x,y,-z
y,x,-z
1/2-y,1/2-x,-z
-x,-y,-z
1/2+y,-x,-z
1/2+x,1/2+y,-z
-y,1/2+x,-z
-x,1/2+y,z
1/2+x,-y,z
-y,-x,z
1/2+y,1/2+x,z
loop_
_atom_site_type_symbol
_atom_site_label
_atom_site_fract_x
_atom_site_fract_y
_atom_site_fract_z
Si Si1 0.517199 0.388520 0.696178
Si Si2 0.614586 0.477169 0.457348
Si Si3 0.702167 0.113802 0.582283
Si Si4 0.975475 0.570107 0.255461
Si Si5 0.329801 0.575768 0.124190
Si Si6 0.630018 0.040549 0.909565
Si Si7 0.374099 0.785733 0.179014
O O1 0.567844 0.432157 0.689025
O O2 0.500013 0.368159 0.576170
O O3 0.464051 0.417426 0.755675
O O4 0.538234 0.335576 0.767764
O O5 0.557973 0.442028 0.473854
O O6 0.663992 0.440895 0.405582
O O7 0.602418 0.526379 0.370722
O O8 0.750000 0.099074 0.500000
O O9 0.665219 0.165219 0.536204
O O10 0.729207 0.131092 0.695612
O O11 0.029388 0.529388 0.256279
O O12 0.982981 0.613319 0.154290
O O13 0.377505 0.622496 0.116826
O O14 0.270865 0.609325 0.115997
O O15 0.336393 0.533158 0.022369
O O16 0.572291 0.072291 0.936956
O O17 0.668677 0.076793 0.830463
O O18 0.315183 0.815183 0.138682
#
# Coordination Sequence:
#
# PCOD8313422 Si02
#       7
#    16  16  16  16  16  16  16
#     4   9  17  26  40  63  86 104 125 165 221 268
#     4   9  15  26  41  58  80 103 131 168 208 260
#     4  10  19  29  42  58  79 108 141 182 228 267
#     4   9  15  26  44  62  79 103 133 164 208 269
#     4  10  20  31  42  60  84 106 138 188 232 262
#     4   9  17  30  45  59  77 104 139 176 212 256
#     4  10  19  32  46  58  76 109 151 186 218 258
#
# _framework density 15.883171000000001
#
# number of rings (size 3 to 8) (size 9 to 14) (size 15 to 20)
#    0.000    2.571    1.429    1.714    0.000    4.429 
#    0.000    4.286    0.000    2.571    0.000    0.000 
#    0.000    0.000    0.000    0.000    0.000    0.714 
#
# Total GULP energy -1387548.237193 kJ/mol
# GULP energy per Si atom -12388.823546 kJ/mol
# Density = 1.584702 g / cm^3
# Si number density = 15.883171 Si / 1000 Ang^3
#
#
#
# Elastic Constant Matrix: (Units=GPa)
#
#
# Indices 1 2 3 4 5 6 
#
# 1 30.7631 30.1883 27.1001 0.0000 0.0000 0.0000
# 2 30.1883 30.7631 27.1001 0.0000 0.0000 0.0000
# 3 27.1001 27.1001 94.7830 0.0000 0.0000 0.0000
# 4 0.0000 0.0000 0.0000 19.3129 0.0000 0.0000
# 5 0.0000 0.0000 0.0000 0.0000 19.3129 0.0000
# 6 0.0000 0.0000 0.0000 0.0000 0.0000 19.9276
#
#
#
# Elastic Compliance Matrix: (Units=1/GPa)
#
#
# Indices 1 2 3 4 5 6 
#
# 1 0.880933 -0.858933 -0.006290 0.000000 0.000000 0.000000
# 2 -0.858933 0.880933 -0.006290 0.000000 0.000000 0.000000
# 3 -0.006290 -0.006290 0.014147 0.000000 0.000000 0.000000
# 4 0.000000 0.000000 0.000000 0.051779 0.000000 0.000000
# 5 0.000000 0.000000 0.000000 0.000000 0.051779 0.000000
# 6 0.000000 0.000000 0.000000 0.000000 0.000000 0.050182
#
#
# Mechanical properties :
#
#
# Convention : Reuss Voigt Hill
#
# Bulk Modulus (GPa) = 30.31534 36.12068 33.21801
# Shear Modulus (GPa) = 1.35730 16.50540 8.93135
#
# Velocity S-wave (km/s) = 0.92542 3.22712 2.37389
# Velocity P-wave (km/s) = 4.50220 6.05612 5.33603
#
# Compressibility (1/GPa) = 0.03298660
#
# Stress axis : x y z
#
# Youngs Moduli (GPa) = 1.13516 1.13516 70.68470
#
# Poissons Ratio (x) = 0.97503 0.44462
# Poissons Ratio (y) = 0.97503 0.44462
# Poissons Ratio (z) = 0.00714 0.00714
#
# Static dielectric constant tensor:
#      x y z
#    x 2.720890 0.000000 0.000000 
#    y 0.000000 2.720890 0.000000 
#    z 0.000000 0.000000 3.361690 
# 
# 
# High freq. dielectric constant tensor:
#      x y z
#    x 1.560210 0.000000 0.000000 
#    y 0.000000 1.560210 0.000000 
#    z 0.000000 0.000000 1.634690 
# 
# From -- ./inp_files/4305.got.cif
#   From: 2010.03.12/outbox.cif.g09.slc.cpg/sg125_3_cif.got.tgz:4305.got - 2010.04.06 16:47:52.
