data_PCOD8313852
_publ_section_title
;
Structure prediction by ZEFSAII (Michael W. Deem and Ramdas Pophale) SiO2 
 PCOD8313852
Probable space group: P 4/M B M
;
_chemical_formula_sum "Si O2"
_cell_formula_units_Z 96
_cell_length_a 24.407697
_cell_length_b 24.407697
_cell_length_c 8.529563
_cell_angle_alpha 90.000000
_cell_angle_beta 90.000000
_cell_angle_gamma 90.000000
_cell_volume 5081.364953
_symmetry_space_group_name_H-M "P 4/M B M"
_symmetry_group_IT_number 127
_symmetry_cell_setting 'tetragonal'
loop_
_space_group_symop_operation_xyz
x,y,z
-y,x,z
-x,-y,z
y,-x,z
1/2+x,1/2-y,-z
1/2-x,1/2+y,-z
1/2+y,1/2+x,-z
1/2-y,1/2-x,-z
-x,-y,-z
y,-x,-z
x,y,-z
-y,x,-z
1/2-x,1/2+y,z
1/2+x,1/2-y,z
1/2-y,1/2-x,z
1/2+y,1/2+x,z
loop_
_atom_site_type_symbol
_atom_site_label
_atom_site_fract_x
_atom_site_fract_y
_atom_site_fract_z
Si Si1 0.938993 0.062390 0.813527
Si Si2 0.435835 0.151832 0.820469
Si Si3 0.850759 0.851109 0.815527
Si Si4 0.266322 0.146264 0.318195
Si Si5 0.229559 0.356775 0.813493
Si Si6 0.357495 0.942722 0.186443
O O1 0.895743 0.106704 0.743028
O O2 0.000869 0.076869 0.756348
O O3 0.937683 0.064441 0.000000
O O4 0.407081 0.092920 0.812551
O O5 0.405375 0.194998 0.711216
O O6 0.496090 0.144652 0.747276
O O7 0.436909 0.173467 0.000000
O O8 0.788203 0.865646 0.779293
O O9 0.861416 0.790675 0.742650
O O10 0.859556 0.850234 0.000000
O O11 0.251582 0.150314 0.500000
O O12 0.298279 0.201722 0.262488
O O13 0.198381 0.301620 0.753766
O O14 0.196304 0.410022 0.756437
O O15 0.232242 0.354798 0.000000
O O16 0.411646 0.911646 0.249936
O O17 0.359478 0.944038 0.000000
#
# Coordination Sequence:
#
# PCOD8313852 Si02
#       6
#    16  16  16  16  16  16
#     4   8  15  28  45  69 101 128 150 185 233 278
#     4   9  17  29  47  71  96 123 158 197 230 265
#     4  10  18  28  49  75  91 113 155 197 228 269
#     4  10  21  35  48  64  92 126 153 185 236 288
#     4   8  14  24  39  64  97 124 146 183 233 273
#     4   8  14  25  42  67  99 129 155 189 233 272
#
# _framework density 18.892561000000001
#
# number of rings (size 3 to 8) (size 9 to 14) (size 15 to 20)
#    0.000    3.167    0.000    2.500    0.000    3.333 
#    0.000    6.667    0.000    4.500    0.000    5.833 
#    0.000    0.000    0.000    0.000    0.000    0.000 
#
# Total GULP energy -1189725.629147 kJ/mol
# GULP energy per Si atom -12392.975304 kJ/mol
# Density = 1.884956 g / cm^3
# Si number density = 18.892561 Si / 1000 Ang^3
#
#
#
# Elastic Constant Matrix: (Units=GPa)
#
#
# Indices 1 2 3 4 5 6 
#
# 1 145.4830 94.1836 6.2951 0.0000 0.0000 0.0000
# 2 94.1836 145.4830 6.2951 0.0000 0.0000 0.0000
# 3 6.2951 6.2951 8.1867 0.0000 0.0000 0.0000
# 4 0.0000 0.0000 0.0000 5.8951 0.0000 0.0000
# 5 0.0000 0.0000 0.0000 0.0000 5.8951 0.0000
# 6 0.0000 0.0000 0.0000 0.0000 0.0000 27.5326
#
#
#
# Elastic Compliance Matrix: (Units=1/GPa)
#
#
# Indices 1 2 3 4 5 6 
#
# 1 0.011921 -0.007573 -0.003343 0.000000 0.000000 0.000000
# 2 -0.007573 0.011921 -0.003343 0.000000 0.000000 0.000000
# 3 -0.003343 -0.003343 0.127291 0.000000 0.000000 0.000000
# 4 0.000000 0.000000 0.000000 0.169631 0.000000 0.000000
# 5 0.000000 0.000000 0.000000 0.000000 0.169631 0.000000
# 6 0.000000 0.000000 0.000000 0.000000 0.000000 0.036321
#
#
# Mechanical properties :
#
#
# Convention : Reuss Voigt Hill
#
# Bulk Modulus (GPa) = 8.15569 56.96671 32.56120
# Shear Modulus (GPa) = 8.38777 20.68984 14.53880
#
# Velocity S-wave (km/s) = 2.10935 3.31287 2.77709
# Velocity P-wave (km/s) = 3.20293 6.69716 5.24932
#
# Compressibility (1/GPa) = 0.12261381
#
# Stress axis : x y z
#
# Youngs Moduli (GPa) = 83.88723 83.88723 7.85599
#
# Poissons Ratio (x) = 0.63525 0.02627
# Poissons Ratio (y) = 0.63525 0.02627
# Poissons Ratio (z) = 0.28047 0.28047
#
# Static dielectric constant tensor:
#      x y z
#    x 3.747220 0.000000 0.000000 
#    y 0.000000 3.747220 0.000000 
#    z 0.000000 0.000000 2.823420 
# 
# 
# High freq. dielectric constant tensor:
#      x y z
#    x 1.738750 0.000000 0.000000 
#    y 0.000000 1.738750 0.000000 
#    z 0.000000 0.000000 1.672270 
# 
# From -- ./inp_files/1945.got.cif
#   From: 2010.03.12/outbox.cif.g09.slc.cpg/sg127_1_cif.got.tgz:1945.got - 2010.04.06 17:03:15.
