data_PCOD8313694
_publ_section_title
;
Structure prediction by ZEFSAII (Michael W. Deem and Ramdas Pophale) SiO2 
 PCOD8313694
Probable space group: P 4/N N C
;
_chemical_formula_sum "Si O2"
_cell_formula_units_Z 128
_cell_length_a 16.196781
_cell_length_b 16.196781
_cell_length_c 23.424084
_cell_angle_alpha 90.000000
_cell_angle_beta 90.000000
_cell_angle_gamma 90.000000
_cell_volume 6144.973819
_symmetry_space_group_name_H-M "P 4/N N C"
_symmetry_group_IT_number 126
_space_group.IT_coordinate_system_code '2'
_symmetry_cell_setting 'tetragonal'
loop_
_space_group_symop_operation_xyz
x,y,z
1/2-y,x,z
1/2-x,1/2-y,z
y,1/2-x,z
x,1/2-y,1/2-z
1/2-x,y,1/2-z
y,x,1/2-z
1/2-y,1/2-x,1/2-z
-x,-y,-z
1/2+y,-x,-z
1/2+x,1/2+y,-z
-y,1/2+x,-z
-x,1/2+y,1/2+z
1/2+x,-y,1/2+z
-y,-x,1/2+z
1/2+y,1/2+x,1/2+z
loop_
_atom_site_type_symbol
_atom_site_label
_atom_site_fract_x
_atom_site_fract_y
_atom_site_fract_z
Si Si1 0.053995 0.514311 0.197524
Si Si2 0.022312 0.138245 0.520414
Si Si3 0.398815 0.382921 0.686775
Si Si4 0.467500 0.474060 0.422367
Si Si5 0.634849 0.102342 0.119163
Si Si6 0.754551 0.952782 0.382993
Si Si7 0.133953 0.716697 0.976065
Si Si8 0.346340 0.847289 0.755342
O O1 0.083713 0.472174 0.137668
O O2 0.109070 0.595568 0.208370
O O3 0.052359 0.447641 0.250000
O O4 0.956768 0.536276 0.187500
O O5 0.960989 0.202665 0.490651
O O6 0.073203 0.086807 0.471062
O O7 0.076486 0.198828 0.561853
O O8 0.973444 0.068990 0.557147
O O9 0.364025 0.364025 0.750000
O O10 0.454889 0.305192 0.671455
O O11 0.329673 0.393336 0.636863
O O12 0.559276 0.440373 0.413022
O O13 0.652999 0.189857 0.089079
O O14 0.618451 0.119254 0.185157
O O15 0.714648 0.045552 0.107964
O O16 0.158994 0.811725 0.981480
O O17 0.358265 0.750000 0.750000
O O18 0.250000 0.872056 0.750000
#
# Coordination Sequence:
#
# PCOD8313694 Si02
#       8
#    16  16  16  16  16  16  16  16
#     4  11  19  36  60  83 114 169 207 256 310 383
#     4  10  21  35  58  84 111 153 205 264 310 368
#     4  11  23  35  57  86 120 162 208 252 311 376
#     4  10  20  38  58  84 114 152 212 257 304 379
#     4  11  20  38  56  79 118 158 202 254 307 383
#     4  12  20  38  58  82 116 160 209 261 315 371
#     4  10  21  34  54  80 112 152 200 249 309 379
#     4  11  25  38  56  89 132 169 209 259 327 399
#
# _framework density 20.830031000000002
#
# number of rings (size 3 to 8) (size 9 to 14) (size 15 to 20)
#    0.000    1.250    5.000    1.875    0.000    3.250 
#    0.000    0.625    0.000    0.000    0.000    0.000 
#    0.000    0.250    0.000    0.000    0.000    0.000 
#
# Total GULP energy -1585696.218487 kJ/mol
# GULP energy per Si atom -12388.251707 kJ/mol
# Density = 2.078262 g / cm^3
# Si number density = 20.830031 Si / 1000 Ang^3
#
#
#
# Elastic Constant Matrix: (Units=GPa)
#
#
# Indices 1 2 3 4 5 6 
#
# 1 59.7272 14.2092 32.1594 0.0000 0.0000 0.0000
# 2 14.2092 59.7272 32.1594 0.0000 0.0000 0.0000
# 3 32.1594 32.1594 139.3231 0.0000 0.0000 0.0000
# 4 0.0000 0.0000 0.0000 36.4550 0.0000 0.0000
# 5 0.0000 0.0000 0.0000 0.0000 36.4550 0.0000
# 6 0.0000 0.0000 0.0000 0.0000 0.0000 25.3955
#
#
#
# Elastic Compliance Matrix: (Units=1/GPa)
#
#
# Indices 1 2 3 4 5 6 
#
# 1 0.019446 -0.002523 -0.003906 0.000000 0.000000 0.000000
# 2 -0.002523 0.019446 -0.003906 0.000000 0.000000 0.000000
# 3 -0.003906 -0.003906 0.008981 0.000000 0.000000 0.000000
# 4 0.000000 0.000000 0.000000 0.027431 0.000000 0.000000
# 5 0.000000 0.000000 0.000000 0.000000 0.027431 0.000000
# 6 0.000000 0.000000 0.000000 0.000000 0.000000 0.039377
#
#
# Mechanical properties :
#
#
# Convention : Reuss Voigt Hill
#
# Bulk Modulus (GPa) = 36.76167 46.20371 41.48269
# Shear Modulus (GPa) = 29.09487 31.67773 30.38630
#
# Velocity S-wave (km/s) = 3.74140 3.90394 3.82353
# Velocity P-wave (km/s) = 6.02916 6.52307 6.28097
#
# Compressibility (1/GPa) = 0.02720225
#
# Stress axis : x y z
#
# Youngs Moduli (GPa) = 51.42355 51.42355 111.34700
#
# Poissons Ratio (x) = 0.12974 0.43496
# Poissons Ratio (y) = 0.12974 0.43496
# Poissons Ratio (z) = 0.20088 0.20088
#
# Static dielectric constant tensor:
#      x y z
#    x 3.544750 0.000000 0.000000 
#    y 0.000000 3.544750 0.000000 
#    z 0.000000 0.000000 4.334020 
# 
# 
# High freq. dielectric constant tensor:
#      x y z
#    x 1.783730 0.000000 0.000000 
#    y 0.000000 1.783730 0.000000 
#    z 0.000000 0.000000 1.836340 
# 
# From -- ./inp_files/5980.got.cif
#   From: 2010.03.12/outbox.cif.g09.slc.cpg/sg126_3_cif.got.tgz:5980.got - 2010.04.06 16:55:23.
