data_PCOD8313807
_publ_section_title
;
Structure prediction by ZEFSAII (Michael W. Deem and Ramdas Pophale) SiO2 
 PCOD8313807
Probable space group: P 4/N N C
;
_chemical_formula_sum "Si O2"
_cell_formula_units_Z 40
_cell_length_a 15.261500
_cell_length_b 15.261500
_cell_length_c 7.498111
_cell_angle_alpha 90.000000
_cell_angle_beta 90.000000
_cell_angle_gamma 90.000000
_cell_volume 1746.410393
_symmetry_space_group_name_H-M "P 4/N N C"
_symmetry_group_IT_number 126
_space_group.IT_coordinate_system_code '2'
_symmetry_cell_setting 'tetragonal'
loop_
_space_group_symop_operation_xyz
x,y,z
1/2-y,x,z
1/2-x,1/2-y,z
y,1/2-x,z
x,1/2-y,1/2-z
1/2-x,y,1/2-z
y,x,1/2-z
1/2-y,1/2-x,1/2-z
-x,-y,-z
1/2+y,-x,-z
1/2+x,1/2+y,-z
-y,1/2+x,-z
-x,1/2+y,1/2+z
1/2+x,-y,1/2+z
-y,-x,1/2+z
1/2+y,1/2+x,1/2+z
loop_
_atom_site_type_symbol
_atom_site_label
_atom_site_fract_x
_atom_site_fract_y
_atom_site_fract_z
Si Si1 0.849939 0.849939 0.250000
Si Si2 0.591679 0.963130 0.941056
Si Si3 0.381918 0.783317 0.448561
O O1 0.750000 0.873494 0.250000
O O2 0.892758 0.883602 0.428680
O O3 0.582165 0.917836 0.750000
O O4 0.500000 0.000000 0.000000
O O5 0.668331 0.036380 0.956318
O O6 0.407299 0.750000 0.250000
O O7 0.352110 0.699294 0.566260
#
# Coordination Sequence:
#
# PCOD8313807 Si02
#       3
#     8  16  16
#     4  11  28  54  74 104 150 203 252 306 362 437
#     4  12  26  46  75 114 150 200 248 306 375 443
#     4  11  24  45  71 110 150 191 244 314 388 447
#
# _framework density 22.904122999999998
#
# number of rings (size 3 to 8) (size 9 to 14) (size 15 to 20)
#    0.000    0.600    2.000    6.000    5.600    1.600 
#    0.000    2.000    0.000    0.000    0.000    0.000 
#    0.000    0.000    0.000    0.000    0.000    0.000 
#
# Total GULP energy -495965.983048 kJ/mol
# GULP energy per Si atom -12399.149576 kJ/mol
# Density = 2.285199 g / cm^3
# Si number density = 22.904123 Si / 1000 Ang^3
#
#
#
# Elastic Constant Matrix: (Units=GPa)
#
#
# Indices 1 2 3 4 5 6 
#
# 1 159.4698 66.6306 86.3951 0.0000 0.0000 0.0000
# 2 66.6306 159.4704 86.3954 0.0000 0.0000 0.0000
# 3 86.3951 86.3954 207.8380 0.0000 0.0000 0.0000
# 4 0.0000 0.0000 0.0000 46.7599 0.0000 0.0000
# 5 0.0000 0.0000 0.0000 0.0000 46.7597 0.0000
# 6 0.0000 0.0000 0.0000 0.0000 0.0000 -15.5264
#
#
#
# Elastic Compliance Matrix: (Units=1/GPa)
#
#
# Indices 1 2 3 4 5 6 
#
# 1 0.008627 -0.002145 -0.002694 0.000000 0.000000 0.000000
# 2 -0.002145 0.008627 -0.002694 0.000000 0.000000 0.000000
# 3 -0.002694 -0.002694 0.007052 0.000000 0.000000 0.000000
# 4 0.000000 0.000000 0.000000 0.021386 0.000000 0.000000
# 5 0.000000 0.000000 0.000000 0.000000 0.021386 0.000000
# 6 0.000000 0.000000 0.000000 0.000000 0.000000 -0.064406
#
#
# Mechanical properties :
#
#
# Convention : Reuss Voigt Hill
#
# Bulk Modulus (GPa) = 108.25290 111.73561 109.99426
# Shear Modulus (GPa) = 240.19223 34.75577 137.47400
#
# Velocity S-wave (km/s) = 10.25164 3.89967 7.75576
# Velocity P-wave (km/s) = 13.69286 8.31664 11.32830
#
# Compressibility (1/GPa) = 0.00923763
#
# Stress axis : x y z
#
# Youngs Moduli (GPa) = 115.92008 115.92035 141.81304
#
# Poissons Ratio (x) = 0.24861 0.38211
# Poissons Ratio (y) = 0.24861 0.38211
# Poissons Ratio (z) = 0.31234 0.31234
#
# Static dielectric constant tensor:
#      x y z
#    x 4.337400 0.000000 0.000000 
#    y 0.000000 4.337410 0.000000 
#    z 0.000000 0.000000 4.359970 
# 
# 
# High freq. dielectric constant tensor:
#      x y z
#    x 1.915900 0.000000 0.000000 
#    y 0.000000 1.915900 0.000000 
#    z 0.000000 0.000000 1.912530 
# 
# From -- ./inp_files/941.got.cif
#   From: 2010.03.12/outbox.cif.g09.slc.cpg/sg126_1_cif.got.tgz:941.got - 2010.04.06 16:55:23.
