data_PCOD8313892
_publ_section_title
;
Structure prediction by ZEFSAII (Michael W. Deem and Ramdas Pophale) SiO2 
 PCOD8313892
Probable space group: P 4/M B M
;
_chemical_formula_sum "Si O2"
_cell_formula_units_Z 96
_cell_length_a 24.736994
_cell_length_b 24.736994
_cell_length_c 8.977203
_cell_angle_alpha 90.000000
_cell_angle_beta 90.000000
_cell_angle_gamma 90.000000
_cell_volume 5493.319935
_symmetry_space_group_name_H-M "P 4/M B M"
_symmetry_group_IT_number 127
_symmetry_cell_setting 'tetragonal'
loop_
_space_group_symop_operation_xyz
x,y,z
-y,x,z
-x,-y,z
y,-x,z
1/2+x,1/2-y,-z
1/2-x,1/2+y,-z
1/2+y,1/2+x,-z
1/2-y,1/2-x,-z
-x,-y,-z
y,-x,-z
x,y,-z
-y,x,-z
1/2-x,1/2+y,z
1/2+x,1/2-y,z
1/2-y,1/2-x,z
1/2+y,1/2+x,z
loop_
_atom_site_type_symbol
_atom_site_label
_atom_site_fract_x
_atom_site_fract_y
_atom_site_fract_z
Si Si1 0.880046 0.380046 0.823024
Si Si2 0.683829 0.095255 0.667871
Si Si3 0.145672 0.803753 0.177495
Si Si4 0.797566 0.297566 0.678548
Si Si5 0.527303 0.712459 0.165311
Si Si6 0.006254 0.661280 0.165430
Si Si7 0.411214 0.705746 0.175578
O O1 0.841117 0.341117 0.731131
O O2 0.869703 0.441402 0.774185
O O3 0.870392 0.370392 0.000000
O O4 0.700987 0.082164 0.500000
O O5 0.648487 0.148487 0.678907
O O6 0.649541 0.044424 0.728730
O O7 0.736927 0.107186 0.761872
O O8 0.185222 0.761218 0.258391
O O9 0.084512 0.800373 0.245274
O O10 0.163008 0.865008 0.216231
O O11 0.147545 0.791782 0.000000
O O12 0.794940 0.294940 0.500000
O O13 0.520547 0.776142 0.163227
O O14 0.471401 0.688390 0.238398
O O15 0.532961 0.688191 0.000000
O O16 0.991498 0.640982 0.000000
O O17 0.417517 0.713611 0.000000
#
# Coordination Sequence:
#
# PCOD8313892 Si02
#       7
#     8  16  16   8  16  16  16
#     4  10  18  34  55  75 100 131 166 210 259 301
#     4  10  21  35  49  67  99 137 168 207 259 304
#     4  10  19  34  54  74 103 137 170 210 254 302
#     4  12  24  32  46  77 113 136 164 206 255 314
#     4   8  14  29  51  73  96 125 164 207 246 290
#     4   9  17  31  53  74  94 126 170 212 249 299
#     4   9  19  33  53  77  96 130 177 211 246 301
#
# _framework density 17.475771000000002
#
# number of rings (size 3 to 8) (size 9 to 14) (size 15 to 20)
#    0.000    2.500    1.667    2.250    1.167    2.667 
#    0.000    0.417    0.000    3.000    0.000    3.500 
#    0.000    0.000    0.000    5.833    0.000    7.333 
#
# Total GULP energy -1189561.947713 kJ/mol
# GULP energy per Si atom -12391.270289 kJ/mol
# Density = 1.743600 g / cm^3
# Si number density = 17.475771 Si / 1000 Ang^3
#
#
#
# Elastic Constant Matrix: (Units=GPa)
#
#
# Indices 1 2 3 4 5 6 
#
# 1 79.6159 60.8284 29.3732 0.0000 0.0000 0.0000
# 2 60.8284 79.6159 29.3732 0.0000 0.0000 0.0000
# 3 29.3732 29.3732 44.7443 0.0000 0.0000 0.0000
# 4 0.0000 0.0000 0.0000 8.8996 0.0000 0.0000
# 5 0.0000 0.0000 0.0000 0.0000 8.8996 0.0000
# 6 0.0000 0.0000 0.0000 0.0000 0.0000 23.0746
#
#
#
# Elastic Compliance Matrix: (Units=1/GPa)
#
#
# Indices 1 2 3 4 5 6 
#
# 1 0.031521 -0.021706 -0.006444 0.000000 0.000000 0.000000
# 2 -0.021706 0.031521 -0.006444 0.000000 0.000000 0.000000
# 3 -0.006444 -0.006444 0.030809 0.000000 0.000000 0.000000
# 4 0.000000 0.000000 0.000000 0.112364 0.000000 0.000000
# 5 0.000000 0.000000 0.000000 0.000000 0.112364 0.000000
# 6 0.000000 0.000000 0.000000 0.000000 0.000000 0.043338
#
#
# Mechanical properties :
#
#
# Convention : Reuss Voigt Hill
#
# Bulk Modulus (GPa) = 40.54168 49.23618 44.88893
# Shear Modulus (GPa) = 11.38108 13.80152 12.59130
#
# Velocity S-wave (km/s) = 2.55473 2.81330 2.68713
# Velocity P-wave (km/s) = 5.65255 6.22800 5.94724
#
# Compressibility (1/GPa) = 0.02466597
#
# Stress axis : x y z
#
# Youngs Moduli (GPa) = 31.72458 31.72458 32.45776
#
# Poissons Ratio (x) = 0.68861 0.20914
# Poissons Ratio (y) = 0.68861 0.20914
# Poissons Ratio (z) = 0.20442 0.20442
#
# Static dielectric constant tensor:
#      x y z
#    x 3.425000 0.000000 0.000000 
#    y 0.000000 3.425000 0.000000 
#    z 0.000000 0.000000 3.135810 
# 
# 
# High freq. dielectric constant tensor:
#      x y z
#    x 1.669540 0.000000 0.000000 
#    y 0.000000 1.669540 0.000000 
#    z 0.000000 0.000000 1.649580 
# 
# From -- ./inp_files/2090.got.cif
#   From: 2010.03.12/outbox.cif.g09.slc.cpg/sg127_2_cif.got.tgz:2090.got - 2010.04.06 17:03:15.
