data_PCOD8313427
_publ_section_title
;
Structure prediction by ZEFSAII (Michael W. Deem and Ramdas Pophale) SiO2 
 PCOD8313427
Probable space group: P 4/N B M
;
_chemical_formula_sum "Si O2"
_cell_formula_units_Z 96
_cell_length_a 27.150300
_cell_length_b 27.150300
_cell_length_c 8.820331
_cell_angle_alpha 90.000000
_cell_angle_beta 90.000000
_cell_angle_gamma 90.000000
_cell_volume 6501.808122
_symmetry_space_group_name_H-M "P 4/N B M"
_symmetry_group_IT_number 125
_space_group.IT_coordinate_system_code '2'
_symmetry_cell_setting 'tetragonal'
loop_
_space_group_symop_operation_xyz
x,y,z
1/2-y,x,z
1/2-x,1/2-y,z
y,1/2-x,z
x,1/2-y,-z
1/2-x,y,-z
y,x,-z
1/2-y,1/2-x,-z
-x,-y,-z
1/2+y,-x,-z
1/2+x,1/2+y,-z
-y,1/2+x,-z
-x,1/2+y,z
1/2+x,-y,z
-y,-x,z
1/2+y,1/2+x,z
loop_
_atom_site_type_symbol
_atom_site_label
_atom_site_fract_x
_atom_site_fract_y
_atom_site_fract_z
Si Si1 0.099558 0.516243 0.660435
Si Si2 0.337623 0.917291 0.834917
Si Si3 0.035532 0.618457 0.331091
Si Si4 0.050205 0.467409 0.165214
Si Si5 0.650809 0.230458 0.329923
Si Si6 0.396927 0.816884 0.156567
O O1 0.059618 0.559618 0.655307
O O2 0.142925 0.529572 0.780682
O O3 0.124572 0.510465 0.495676
O O4 0.074444 0.465321 0.712991
O O5 0.384793 0.884793 0.872858
O O6 0.307608 0.893793 0.693978
O O7 0.304591 0.919385 0.988949
O O8 0.077579 0.577579 0.341919
O O9 0.058277 0.670657 0.273009
O O10 0.992852 0.601162 0.215039
O O11 0.007547 0.507547 0.158746
O O12 0.057021 0.442980 0.000000
O O13 0.651485 0.250000 0.500000
O O14 0.702996 0.202996 0.293452
O O15 0.640456 0.274900 0.214294
O O16 0.366307 0.866307 0.140869
#
# Coordination Sequence:
#
# PCOD8313427 Si02
#       6
#    16  16  16  16  16  16
#     4   9  15  24  38  55  76  97 116 139 168 209
#     4   9  18  31  44  57  72  91 115 145 186 234
#     4   9  16  25  38  56  75  95 117 140 172 215
#     4   9  15  22  34  54  78 100 119 137 161 201
#     4  11  22  34  46  58  71  89 118 158 203 248
#     4  10  19  31  45  57  71  91 116 150 193 238
#
# _framework density 14.765124
#
# number of rings (size 3 to 8) (size 9 to 14) (size 15 to 20)
#    0.000    2.500    0.000    3.500    0.000    9.833 
#    0.000    0.833    0.000    6.000    0.000    0.000 
#    0.000    0.000    0.000    0.000    0.000    0.000 
#
# Total GULP energy -1189372.284797 kJ/mol
# GULP energy per Si atom -12389.294633 kJ/mol
# Density = 1.473152 g / cm^3
# Si number density = 14.765124 Si / 1000 Ang^3
#
#
#
# Elastic Constant Matrix: (Units=GPa)
#
#
# Indices 1 2 3 4 5 6 
#
# 1 35.2899 34.6867 28.0353 0.0000 0.0000 0.0000
# 2 34.6867 35.2901 28.0353 0.0000 0.0000 0.0000
# 3 28.0353 28.0353 100.3430 0.0000 0.0000 0.0000
# 4 0.0000 0.0000 0.0000 17.1922 0.0000 0.0000
# 5 0.0000 0.0000 0.0000 0.0000 17.1921 0.0000
# 6 0.0000 0.0000 0.0000 0.0000 0.0000 32.5094
#
#
#
# Elastic Compliance Matrix: (Units=1/GPa)
#
#
# Indices 1 2 3 4 5 6 
#
# 1 0.837890 -0.819475 -0.005145 0.000000 0.000000 0.000000
# 2 -0.819475 0.837884 -0.005144 0.000000 0.000000 0.000000
# 3 -0.005145 -0.005144 0.012840 0.000000 0.000000 0.000000
# 4 0.000000 0.000000 0.000000 0.058166 0.000000 0.000000
# 5 0.000000 0.000000 0.000000 0.000000 0.058166 0.000000
# 6 0.000000 0.000000 0.000000 0.000000 0.000000 0.030760
#
#
# Mechanical properties :
#
#
# Convention : Reuss Voigt Hill
#
# Bulk Modulus (GPa) = 34.37839 39.15972 36.76906
# Shear Modulus (GPa) = 1.42656 18.72311 10.07484
#
# Velocity S-wave (km/s) = 0.98401 3.56485 2.61500
# Velocity P-wave (km/s) = 4.96237 6.59724 5.83732
#
# Compressibility (1/GPa) = 0.02908804
#
# Stress axis : x y z
#
# Youngs Moduli (GPa) = 1.19347 1.19348 77.87898
#
# Poissons Ratio (x) = 0.97803 0.40069
# Poissons Ratio (y) = 0.97802 0.40059
# Poissons Ratio (z) = 0.00614 0.00614
#
# Static dielectric constant tensor:
#      x y z
#    x 2.636930 0.000000 0.000000 
#    y 0.000000 2.636930 0.000000 
#    z 0.000000 0.000000 3.244800 
# 
# 
# High freq. dielectric constant tensor:
#      x y z
#    x 1.515390 0.000000 0.000000 
#    y 0.000000 1.515390 0.000000 
#    z 0.000000 0.000000 1.590230 
# 
# From -- ./inp_files/2966.got.cif
#   From: 2010.03.12/outbox.cif.g09.slc.cpg/sg125_2_cif.got.tgz:2966.got - 2010.04.06 16:47:52.
