data_PCOD8313043
_publ_section_title
;
Structure prediction by ZEFSAII (Michael W. Deem and Ramdas Pophale) SiO2 
 PCOD8313043
Probable space group: P 4/M M M
;
_chemical_formula_sum "Si O2"
_cell_formula_units_Z 88
_cell_length_a 13.870019
_cell_length_b 13.870019
_cell_length_c 29.537913
_cell_angle_alpha 90.000000
_cell_angle_beta 90.000000
_cell_angle_gamma 90.000000
_cell_volume 5682.427704
_symmetry_space_group_name_H-M "P 4/M M M"
_symmetry_group_IT_number 123
_symmetry_cell_setting 'tetragonal'
loop_
_space_group_symop_operation_xyz
x,y,z
-y,x,z
-x,-y,z
y,-x,z
x,-y,-z
-x,y,-z
y,x,-z
-y,-x,-z
-x,-y,-z
y,-x,-z
x,y,-z
-y,x,-z
-x,y,z
x,-y,z
-y,-x,z
y,x,z
loop_
_atom_site_type_symbol
_atom_site_label
_atom_site_fract_x
_atom_site_fract_y
_atom_site_fract_z
Si Si1 0.735193 0.107254 0.618195
Si Si2 0.613186 0.000000 0.447141
Si Si3 0.732671 0.110682 0.114816
Si Si4 0.389810 0.766202 0.052058
Si Si5 0.885917 0.393121 0.699808
Si Si6 0.110200 0.734100 0.782240
O O1 0.823219 0.176782 0.604961
O O2 0.676509 0.153454 0.660243
O O3 0.775989 0.000000 0.630982
O O4 0.661867 0.095273 0.575489
O O5 0.500000 0.000000 0.436371
O O6 0.635187 0.000000 0.500000
O O7 0.829975 0.170026 0.104761
O O8 0.646573 0.145490 0.082591
O O9 0.697812 0.125559 0.166470
O O10 0.756198 0.000000 0.104236
O O11 0.500000 0.743477 0.063881
O O12 0.330272 0.669729 0.063313
O O13 0.376876 0.797161 0.000000
O O14 0.840117 0.500000 0.695570
O O15 0.856777 0.351241 0.748843
O O16 0.000000 0.400733 0.694297
O O17 0.170503 0.829498 0.771811
O O18 0.000000 0.763144 0.773161
#
# Coordination Sequence:
#
# PCOD8313043 Si02
#       6
#    16   8  16  16  16  16
#     4   9  18  29  45  67  94 126 159 193 229 273
#     4   9  18  32  49  67  93 129 164 198 234 274
#     4   9  18  31  45  64  91 121 154 191 226 267
#     4   9  18  32  49  68  89 113 142 180 227 278
#     4   9  16  27  43  61  86 119 155 192 228 265
#     4   9  17  28  43  64  90 119 151 186 227 273
#
# _framework density 15.486338999999999
#
# number of rings (size 3 to 8) (size 9 to 14) (size 15 to 20)
#    0.545    2.455    0.000    1.091    0.000    2.545 
#    0.000    5.455    0.000    3.818    0.000    2.545 
#    0.000   17.091    0.000    8.000    0.000    0.000 
#
# Total GULP energy -1090786.056362 kJ/mol
# GULP energy per Si atom -12395.296095 kJ/mol
# Density = 1.545109 g / cm^3
# Si number density = 15.486339 Si / 1000 Ang^3
#
#
#
# Elastic Constant Matrix: (Units=GPa)
#
#
# Indices 1 2 3 4 5 6 
#
# 1 86.7971 45.1603 49.6509 0.0000 0.0000 0.0000
# 2 45.1603 86.7971 49.6509 0.0000 0.0000 0.0000
# 3 49.6509 49.6509 90.4308 0.0000 0.0000 0.0000
# 4 0.0000 0.0000 0.0000 21.7806 0.0000 0.0000
# 5 0.0000 0.0000 0.0000 0.0000 21.7806 0.0000
# 6 0.0000 0.0000 0.0000 0.0000 0.0000 10.6205
#
#
#
# Elastic Compliance Matrix: (Units=1/GPa)
#
#
# Indices 1 2 3 4 5 6 
#
# 1 0.018466 -0.005552 -0.007090 0.000000 0.000000 0.000000
# 2 -0.005552 0.018466 -0.007090 0.000000 0.000000 0.000000
# 3 -0.007090 -0.007090 0.018844 0.000000 0.000000 0.000000
# 4 0.000000 0.000000 0.000000 0.045912 0.000000 0.000000
# 5 0.000000 0.000000 0.000000 0.000000 0.045912 0.000000
# 6 0.000000 0.000000 0.000000 0.000000 0.000000 0.094157
#
#
# Mechanical properties :
#
#
# Convention : Reuss Voigt Hill
#
# Bulk Modulus (GPa) = 61.31039 61.43880 61.37459
# Shear Modulus (GPa) = 17.44233 18.80721 18.12477
#
# Velocity S-wave (km/s) = 3.35969 3.48866 3.42478
# Velocity P-wave (km/s) = 7.39770 7.48243 7.44018
#
# Compressibility (1/GPa) = 0.01631045
#
# Stress axis : x y z
#
# Youngs Moduli (GPa) = 54.15487 54.15487 53.06704
#
# Poissons Ratio (x) = 0.30065 0.37626
# Poissons Ratio (y) = 0.30065 0.37626
# Poissons Ratio (z) = 0.38398 0.38398
#
# Static dielectric constant tensor:
#      x y z
#    x 2.828580 0.000000 0.000000 
#    y 0.000000 2.828580 0.000000 
#    z 0.000000 0.000000 3.049000 
# 
# 
# High freq. dielectric constant tensor:
#      x y z
#    x 1.574790 0.000000 0.000000 
#    y 0.000000 1.574790 0.000000 
#    z 0.000000 0.000000 1.601180 
# 
# From -- ./inp_files/7950.got.cif
#   From: 2010.03.12/outbox.cif.g09.slc.cpg/sg123_4_cif.got.tgz:7950.got - 2010.04.06 16:26:55.
