data_PCOD8313757
_publ_section_title
;
Structure prediction by ZEFSAII (Michael W. Deem and Ramdas Pophale) SiO2 
 PCOD8313757
Probable space group: P 4/N N C
;
_chemical_formula_sum "Si O2"
_cell_formula_units_Z 56
_cell_length_a 16.959507
_cell_length_b 16.959507
_cell_length_c 8.829375
_cell_angle_alpha 90.000000
_cell_angle_beta 90.000000
_cell_angle_gamma 90.000000
_cell_volume 2539.547904
_symmetry_space_group_name_H-M "P 4/N N C"
_symmetry_group_IT_number 126
_space_group.IT_coordinate_system_code '2'
_symmetry_cell_setting 'tetragonal'
loop_
_space_group_symop_operation_xyz
x,y,z
1/2-y,x,z
1/2-x,1/2-y,z
y,1/2-x,z
x,1/2-y,1/2-z
1/2-x,y,1/2-z
y,x,1/2-z
1/2-y,1/2-x,1/2-z
-x,-y,-z
1/2+y,-x,-z
1/2+x,1/2+y,-z
-y,1/2+x,-z
-x,1/2+y,1/2+z
1/2+x,-y,1/2+z
-y,-x,1/2+z
1/2+y,1/2+x,1/2+z
loop_
_atom_site_type_symbol
_atom_site_label
_atom_site_fract_x
_atom_site_fract_y
_atom_site_fract_z
Si Si1 0.396271 0.940443 0.496387
Si Si2 0.035428 0.730169 0.421836
Si Si3 0.002685 0.497316 0.250000
Si Si4 0.621470 0.744805 0.919212
O O1 0.435446 0.854513 0.479435
O O2 0.302780 0.926097 0.484044
O O3 0.423623 0.001583 0.365088
O O4 0.421850 0.985861 0.652275
O O5 0.057041 0.750000 0.250000
O O6 0.942834 0.736025 0.450439
O O7 0.675836 0.669541 0.942976
O O8 0.584509 0.750000 0.750000
#
# Coordination Sequence:
#
# PCOD8313757 Si02
#       4
#    16  16   8  16
#     4  11  26  45  70 104 138 179 229 282 346 402
#     4  12  27  44  66  98 134 180 225 290 336 405
#     4  10  24  46  72 100 138 178 228 284 332 412
#     4   9  22  40  63  97 133 172 218 273 346 419
#
# _framework density 22.051169000000002
#
# number of rings (size 3 to 8) (size 9 to 14) (size 15 to 20)
#    0.000    1.429    2.857    0.857   12.000    1.714 
#    0.000    2.857    0.000    0.000    0.000    0.000 
#    0.000    0.000    0.000    0.000    0.000    0.000 
#
# Total GULP energy -693819.164447 kJ/mol
# GULP energy per Si atom -12389.627937 kJ/mol
# Density = 2.200098 g / cm^3
# Si number density = 22.051169 Si / 1000 Ang^3
#
#
#
# Elastic Constant Matrix: (Units=GPa)
#
#
# Indices 1 2 3 4 5 6 
#
# 1 115.2634 61.3432 38.0232 0.0000 0.0000 0.0000
# 2 61.3432 115.2630 38.0218 0.0000 0.0000 0.0000
# 3 38.0232 38.0218 77.4622 0.0000 0.0000 0.0000
# 4 0.0000 0.0000 0.0000 23.0173 0.0000 0.0000
# 5 0.0000 0.0000 0.0000 0.0000 23.0164 0.0000
# 6 0.0000 0.0000 0.0000 0.0000 0.0000 18.9356
#
#
#
# Elastic Compliance Matrix: (Units=1/GPa)
#
#
# Indices 1 2 3 4 5 6 
#
# 1 0.012863 -0.005683 -0.003524 0.000000 0.000000 0.000000
# 2 -0.005683 0.012863 -0.003524 0.000000 0.000000 0.000000
# 3 -0.003524 -0.003524 0.016369 0.000000 0.000000 0.000000
# 4 0.000000 0.000000 0.000000 0.043446 0.000000 0.000000
# 5 0.000000 0.000000 0.000000 0.000000 0.043447 0.000000
# 6 0.000000 0.000000 0.000000 0.000000 0.000000 0.052811
#
#
# Mechanical properties :
#
#
# Convention : Reuss Voigt Hill
#
# Bulk Modulus (GPa) = 60.12512 64.75167 62.43840
# Shear Modulus (GPa) = 23.49561 24.36721 23.93141
#
# Velocity S-wave (km/s) = 3.26775 3.32781 3.29791
# Velocity P-wave (km/s) = 6.44693 6.64784 6.54816
#
# Compressibility (1/GPa) = 0.01663198
#
# Stress axis : x y z
#
# Youngs Moduli (GPa) = 77.74254 77.74338 61.09007
#
# Poissons Ratio (x) = 0.44182 0.21531
# Poissons Ratio (y) = 0.44182 0.21528
# Poissons Ratio (z) = 0.27400 0.27397
#
# Static dielectric constant tensor:
#      x y z
#    x 3.931460 0.000000 0.000000 
#    y 0.000000 3.931460 0.000000 
#    z 0.000000 0.000000 4.114920 
# 
# 
# High freq. dielectric constant tensor:
#      x y z
#    x 1.863160 0.000000 0.000000 
#    y 0.000000 1.863160 0.000000 
#    z 0.000000 0.000000 1.872490 
# 
# From -- ./inp_files/1271.got.cif
#   From: 2010.03.12/outbox.cif.g09.slc.cpg/sg126_1_cif.got.tgz:1271.got - 2010.04.06 16:55:23.
