data_PCOD8313167
_publ_section_title
;
Structure prediction by ZEFSAII (Michael W. Deem and Ramdas Pophale) SiO2 
 PCOD8313167
Probable space group: P 4/M C C
;
_chemical_formula_sum "Si O2"
_cell_formula_units_Z 128
_cell_length_a 17.746794
_cell_length_b 17.746794
_cell_length_c 24.596308
_cell_angle_alpha 90.000000
_cell_angle_beta 90.000000
_cell_angle_gamma 90.000000
_cell_volume 7746.575162
_symmetry_space_group_name_H-M "P 4/M C C"
_symmetry_group_IT_number 124
_symmetry_cell_setting 'tetragonal'
loop_
_space_group_symop_operation_xyz
x,y,z
-y,x,z
-x,-y,z
y,-x,z
x,-y,1/2-z
-x,y,1/2-z
y,x,1/2-z
-y,-x,1/2-z
-x,-y,-z
y,-x,-z
x,y,-z
-y,x,-z
-x,y,1/2+z
x,-y,1/2+z
-y,-x,1/2+z
y,x,1/2+z
loop_
_atom_site_type_symbol
_atom_site_label
_atom_site_fract_x
_atom_site_fract_y
_atom_site_fract_z
Si Si1 0.575315 0.306198 0.893703
Si Si2 0.686349 0.192451 0.062202
Si Si3 0.410151 0.916239 0.866753
Si Si4 0.135238 0.588201 0.751379
Si Si5 0.424053 0.668820 0.440244
Si Si6 0.584779 0.088541 0.631369
Si Si7 0.803807 0.310869 0.060152
Si Si8 0.297010 0.415285 0.768394
O O1 0.620913 0.254302 0.935161
O O2 0.487876 0.293839 0.903772
O O3 0.596635 0.392577 0.907491
O O4 0.592548 0.284058 0.832448
O O5 0.656542 0.124354 0.099786
O O6 0.767801 0.229918 0.080798
O O7 0.693507 0.164381 0.000000
O O8 0.387372 0.908969 0.803097
O O9 0.496629 0.884572 0.876654
O O10 0.408530 0.002193 0.886554
O O11 0.146861 0.500000 0.750000
O O12 0.090372 0.610322 0.805507
O O13 0.220414 0.620680 0.756139
O O14 0.453509 0.644478 0.500000
O O15 0.361112 0.730971 0.445965
O O16 0.647368 0.136455 0.598821
O O17 0.840512 0.300285 0.000000
O O18 0.313572 0.500000 0.750000
O O19 0.368046 0.368046 0.750000
#
# Coordination Sequence:
#
# PCOD8313167 Si02
#       8
#    16  16  16  16  16  16  16  16
#     4  11  20  33  48  63  89 118 161 211 255 297
#     4  10  20  34  50  68  96 129 164 200 247 299
#     4  10  19  34  49  78 100 133 161 212 257 306
#     4   9  19  32  48  69  94 125 162 201 249 308
#     4  10  20  32  48  65  85 118 162 208 254 298
#     4  10  20  31  54  73 105 128 166 206 260 304
#     4   9  20  34  49  70  96 129 162 200 243 299
#     4  11  23  34  48  69  93 129 172 217 261 297
#
# _framework density 16.523430000000001
#
# number of rings (size 3 to 8) (size 9 to 14) (size 15 to 20)
#    0.000    2.000    1.250    3.750    7.000    3.875 
#    0.000    3.125    0.000    0.000    0.000    0.000 
#    0.000    0.500    0.000    2.750    0.000    5.250 
#
# Total GULP energy -1585686.080799 kJ/mol
# GULP energy per Si atom -12388.172506 kJ/mol
# Density = 1.648582 g / cm^3
# Si number density = 16.523430 Si / 1000 Ang^3
#
#
#
# Elastic Constant Matrix: (Units=GPa)
#
#
# Indices 1 2 3 4 5 6 
#
# 1 62.2450 26.8279 29.7001 0.0000 0.0000 0.0000
# 2 26.8279 62.2450 29.7001 0.0000 0.0000 0.0000
# 3 29.7001 29.7001 89.5838 0.0000 0.0000 0.0000
# 4 0.0000 0.0000 0.0000 20.3049 0.0000 0.0000
# 5 0.0000 0.0000 0.0000 0.0000 20.3049 0.0000
# 6 0.0000 0.0000 0.0000 0.0000 0.0000 22.6816
#
#
#
# Elastic Compliance Matrix: (Units=1/GPa)
#
#
# Indices 1 2 3 4 5 6 
#
# 1 0.021324 -0.006911 -0.004779 0.000000 0.000000 0.000000
# 2 -0.006911 0.021324 -0.004779 0.000000 0.000000 0.000000
# 3 -0.004779 -0.004779 0.014331 0.000000 0.000000 0.000000
# 4 0.000000 0.000000 0.000000 0.049249 0.000000 0.000000
# 5 0.000000 0.000000 0.000000 0.000000 0.049249 0.000000
# 6 0.000000 0.000000 0.000000 0.000000 0.000000 0.044089
#
#
# Mechanical properties :
#
#
# Convention : Reuss Voigt Hill
#
# Bulk Modulus (GPa) = 41.59055 42.94778 42.26917
# Shear Modulus (GPa) = 20.78857 21.18134 20.98495
#
# Velocity S-wave (km/s) = 3.55086 3.58424 3.56759
# Velocity P-wave (km/s) = 6.48357 6.57096 6.52741
#
# Compressibility (1/GPa) = 0.02404392
#
# Stress axis : x y z
#
# Youngs Moduli (GPa) = 46.89516 46.89516 69.77765
#
# Poissons Ratio (x) = 0.32408 0.33344
# Poissons Ratio (y) = 0.32408 0.33344
# Poissons Ratio (z) = 0.22409 0.22409
#
# Static dielectric constant tensor:
#      x y z
#    x 2.990470 0.000000 0.000000 
#    y 0.000000 2.990470 0.000000 
#    z 0.000000 0.000000 3.301360 
# 
# 
# High freq. dielectric constant tensor:
#      x y z
#    x 1.606900 0.000000 0.000000 
#    y 0.000000 1.606900 0.000000 
#    z 0.000000 0.000000 1.646940 
# 
# From -- ./inp_files/6266.got.cif
#   From: 2010.03.12/outbox.cif.g09.slc.cpg/sg124_4_cif.got.tgz:6266.got - 2010.04.06 16:38:57.
