data_PCOD8313878
_publ_section_title
;
Structure prediction by ZEFSAII (Michael W. Deem and Ramdas Pophale) SiO2 
 PCOD8313878
Probable space group: P 4/M B M
;
_chemical_formula_sum "Si O2"
_cell_formula_units_Z 96
_cell_length_a 17.421678
_cell_length_b 17.421678
_cell_length_c 18.445775
_cell_angle_alpha 90.000000
_cell_angle_beta 90.000000
_cell_angle_gamma 90.000000
_cell_volume 5598.566897
_symmetry_space_group_name_H-M "P 4/M B M"
_symmetry_group_IT_number 127
_symmetry_cell_setting 'tetragonal'
loop_
_space_group_symop_operation_xyz
x,y,z
-y,x,z
-x,-y,z
y,-x,z
1/2+x,1/2-y,-z
1/2-x,1/2+y,-z
1/2+y,1/2+x,-z
1/2-y,1/2-x,-z
-x,-y,-z
y,-x,-z
x,y,-z
-y,x,-z
1/2-x,1/2+y,z
1/2+x,1/2-y,z
1/2-y,1/2-x,z
1/2+y,1/2+x,z
loop_
_atom_site_type_symbol
_atom_site_label
_atom_site_fract_x
_atom_site_fract_y
_atom_site_fract_z
Si Si1 0.713057 0.662928 0.670425
Si Si2 0.317274 0.941561 0.584555
Si Si3 0.434697 0.275579 0.165893
Si Si4 0.590830 0.781711 0.675751
Si Si5 0.194436 0.896305 0.826926
Si Si6 0.833543 0.333543 0.080933
Si Si7 0.204462 0.295539 0.917410
O O1 0.773269 0.726732 0.696847
O O2 0.744671 0.612025 0.604387
O O3 0.636286 0.707402 0.643036
O O4 0.701679 0.608635 0.739864
O O5 0.314260 0.959271 0.500000
O O6 0.396433 0.896433 0.604894
O O7 0.310889 0.022082 0.625363
O O8 0.440099 0.245399 0.247433
O O9 0.378583 0.346361 0.150583
O O10 0.516438 0.312316 0.146718
O O11 0.409486 0.201207 0.119095
O O12 0.647240 0.852761 0.686228
O O13 0.267764 0.868436 0.872021
O O14 0.769049 0.269049 0.083144
O O15 0.856892 0.356892 0.000000
O O16 0.182248 0.317753 0.000000
#
# Coordination Sequence:
#
# PCOD8313878 Si02
#       7
#    16  16  16  16  16   8   8
#     4   9  17  32  53  75  99 132 175 219 253 301
#     4  10  21  35  52  76 105 136 171 216 270 319
#     4  10  19  32  53  80 105 137 173 211 260 310
#     4  10  19  33  54  77 101 133 176 215 258 311
#     4  10  18  31  53  78 106 135 172 215 258 307
#     4   9  18  34  54  77 106 135 171 215 253 300
#     4   9  18  32  52  77 102 136 176 211 251 303
#
# _framework density 17.147245000000002
#
# number of rings (size 3 to 8) (size 9 to 14) (size 15 to 20)
#    0.000    2.333    3.333    0.000    0.000    2.333 
#    0.000    2.500    0.000    1.000    0.000    7.000 
#    0.000    0.000    0.000    0.000    0.000    0.000 
#
# Total GULP energy -1189690.714604 kJ/mol
# GULP energy per Si atom -12392.611610 kJ/mol
# Density = 1.710822 g / cm^3
# Si number density = 17.147245 Si / 1000 Ang^3
#
#
#
# Elastic Constant Matrix: (Units=GPa)
#
#
# Indices 1 2 3 4 5 6 
#
# 1 97.9147 46.3168 31.8316 0.0000 0.0000 0.0000
# 2 46.3168 97.9146 31.8316 0.0000 0.0000 0.0000
# 3 31.8316 31.8316 59.1759 0.0000 0.0000 0.0000
# 4 0.0000 0.0000 0.0000 16.5820 0.0000 0.0000
# 5 0.0000 0.0000 0.0000 0.0000 16.5820 0.0000
# 6 0.0000 0.0000 0.0000 0.0000 0.0000 18.4199
#
#
#
# Elastic Compliance Matrix: (Units=1/GPa)
#
#
# Indices 1 2 3 4 5 6 
#
# 1 0.014236 -0.005144 -0.004891 0.000000 0.000000 0.000000
# 2 -0.005144 0.014236 -0.004891 0.000000 0.000000 0.000000
# 3 -0.004891 -0.004891 0.022160 0.000000 0.000000 0.000000
# 4 0.000000 0.000000 0.000000 0.060306 0.000000 0.000000
# 5 0.000000 0.000000 0.000000 0.000000 0.060306 0.000000
# 6 0.000000 0.000000 0.000000 0.000000 0.000000 0.054289
#
#
# Mechanical properties :
#
#
# Convention : Reuss Voigt Hill
#
# Bulk Modulus (GPa) = 48.11971 52.77389 50.44680
# Shear Modulus (GPa) = 19.06116 19.98513 19.52315
#
# Velocity S-wave (km/s) = 3.33771 3.41765 3.37791
# Velocity P-wave (km/s) = 6.55571 6.81304 6.68561
#
# Compressibility (1/GPa) = 0.02078150
#
# Stress axis : x y z
#
# Youngs Moduli (GPa) = 70.24267 70.24258 45.12553
#
# Poissons Ratio (x) = 0.36135 0.22070
# Poissons Ratio (y) = 0.36135 0.22070
# Poissons Ratio (z) = 0.34354 0.34354
#
# Static dielectric constant tensor:
#      x y z
#    x 3.172360 0.000000 0.000000 
#    y 0.000000 3.172360 0.000000 
#    z 0.000000 0.000000 3.139590 
# 
# 
# High freq. dielectric constant tensor:
#      x y z
#    x 1.653510 0.000000 0.000000 
#    y 0.000000 1.653510 0.000000 
#    z 0.000000 0.000000 1.655430 
# 
# From -- ./inp_files/5143.got.cif
#   From: 2010.03.12/outbox.cif.g09.slc.cpg/sg127_3_cif.got.tgz:5143.got - 2010.04.06 17:03:15.
