data_PCOD8313233
_publ_section_title
;
Structure prediction by ZEFSAII (Michael W. Deem and Ramdas Pophale) SiO2 
 PCOD8313233
Probable space group: P 4/M C C
;
_chemical_formula_sum "Si O2"
_cell_formula_units_Z 116
_cell_length_a 17.985956
_cell_length_b 17.985956
_cell_length_c 17.663466
_cell_angle_alpha 90.000000
_cell_angle_beta 90.000000
_cell_angle_gamma 90.000000
_cell_volume 5714.036102
_symmetry_space_group_name_H-M "P 4/M C C"
_symmetry_group_IT_number 124
_symmetry_cell_setting 'tetragonal'
loop_
_space_group_symop_operation_xyz
x,y,z
-y,x,z
-x,-y,z
y,-x,z
x,-y,1/2-z
-x,y,1/2-z
y,x,1/2-z
-y,-x,1/2-z
-x,-y,-z
y,-x,-z
x,y,-z
-y,x,-z
-x,y,1/2+z
x,-y,1/2+z
-y,-x,1/2+z
y,x,1/2+z
loop_
_atom_site_type_symbol
_atom_site_label
_atom_site_fract_x
_atom_site_fract_y
_atom_site_fract_z
Si Si1 0.651235 0.159625 0.336001
Si Si2 0.052199 0.154673 0.913393
Si Si3 0.296162 0.000993 0.836740
Si Si4 0.501532 0.621357 0.337177
Si Si5 0.228029 0.211531 0.586645
Si Si6 0.491589 0.222364 0.911343
Si Si7 0.000000 0.000000 0.863662
Si Si8 0.631026 0.153508 0.159933
O O1 0.730888 0.192617 0.355791
O O2 0.590697 0.199439 0.387421
O O3 0.635966 0.174420 0.247990
O O4 0.653639 0.072291 0.355589
O O5 0.997410 0.218830 0.882745
O O6 0.135372 0.183803 0.901951
O O7 0.048374 0.075261 0.872128
O O8 0.030509 0.140517 0.000000
O O9 0.349062 0.931994 0.856211
O O10 0.270770 0.000000 0.750000
O O11 0.427748 0.574102 0.354530
O O12 0.500000 0.647399 0.250000
O O13 0.505508 0.691984 0.391151
O O14 0.224033 0.239037 0.500000
O O15 0.313831 0.203962 0.610497
O O16 0.547815 0.168333 0.867464
O O17 0.502023 0.211235 0.000000
#
# Coordination Sequence:
#
# PCOD8313233 Si02
#       8
#    16  16  16  16  16  16   4  16
#     4  11  22  39  63  89 116 154 202 250 299 357
#     4  10  20  34  56  84 119 161 201 244 300 361
#     4   9  21  41  63  84 112 152 203 255 302 356
#     4   9  20  41  67  92 121 159 200 238 287 350
#     4  10  21  38  60  88 119 156 202 250 300 355
#     4  12  26  40  59  92 127 157 196 245 295 354
#     4  12  21  32  53  86 125 164 201 242 297 364
#     4  10  22  42  63  84 117 160 199 245 304 359
#
# _framework density 20.300885999999998
#
# number of rings (size 3 to 8) (size 9 to 14) (size 15 to 20)
#    0.000    1.793    0.000    4.345    1.931    3.862 
#    0.000    5.862    0.000    0.000    0.000    0.000 
#    0.000    0.000    0.000    0.000    0.000    0.000 
#
# Total GULP energy -1437106.972557 kJ/mol
# GULP energy per Si atom -12388.853212 kJ/mol
# Density = 2.025468 g / cm^3
# Si number density = 20.300886 Si / 1000 Ang^3
#
#
#
# Elastic Constant Matrix: (Units=GPa)
#
#
# Indices 1 2 3 4 5 6 
#
# 1 82.5411 37.5170 35.2741 0.0000 0.0000 0.0000
# 2 37.5170 82.5411 35.2741 0.0000 0.0000 0.0000
# 3 35.2741 35.2741 90.7974 0.0000 0.0000 0.0000
# 4 0.0000 0.0000 0.0000 6.1787 0.0000 0.0000
# 5 0.0000 0.0000 0.0000 0.0000 6.1787 0.0000
# 6 0.0000 0.0000 0.0000 0.0000 0.0000 27.9864
#
#
#
# Elastic Compliance Matrix: (Units=1/GPa)
#
#
# Indices 1 2 3 4 5 6 
#
# 1 0.016502 -0.005709 -0.004193 0.000000 0.000000 0.000000
# 2 -0.005709 0.016502 -0.004193 0.000000 0.000000 0.000000
# 3 -0.004193 -0.004193 0.014271 0.000000 0.000000 0.000000
# 4 0.000000 0.000000 0.000000 0.161847 0.000000 0.000000
# 5 0.000000 0.000000 0.000000 0.000000 0.161847 0.000000
# 6 0.000000 0.000000 0.000000 0.000000 0.000000 0.035732
#
#
# Mechanical properties :
#
#
# Convention : Reuss Voigt Hill
#
# Bulk Modulus (GPa) = 52.39548 52.44553 52.42051
# Shear Modulus (GPa) = 11.33138 17.92304 14.62721
#
# Velocity S-wave (km/s) = 2.36513 2.97454 2.68716
# Velocity P-wave (km/s) = 5.77269 6.13900 5.95866
#
# Compressibility (1/GPa) = 0.01908561
#
# Stress axis : x y z
#
# Youngs Moduli (GPa) = 60.59960 60.59960 70.06975
#
# Poissons Ratio (x) = 0.34593 0.29381
# Poissons Ratio (y) = 0.34593 0.29381
# Poissons Ratio (z) = 0.25410 0.25410
#
# Static dielectric constant tensor:
#      x y z
#    x 4.118880 0.000000 0.000000 
#    y 0.000000 4.118880 0.000000 
#    z 0.000000 0.000000 3.645100 
# 
# 
# High freq. dielectric constant tensor:
#      x y z
#    x 1.805970 0.000000 0.000000 
#    y 0.000000 1.805970 0.000000 
#    z 0.000000 0.000000 1.781110 
# 
# From -- ./inp_files/4420.got.cif
#   From: 2010.03.12/outbox.cif.g09.slc.cpg/sg124_3_cif.got.tgz:4420.got - 2010.04.06 16:38:57.
