data_PCOD8313503
_publ_section_title
;
Structure prediction by ZEFSAII (Michael W. Deem and Ramdas Pophale) SiO2 
 PCOD8313503
Probable space group: P 4/N B M
;
_chemical_formula_sum "Si O2"
_cell_formula_units_Z 96
_cell_length_a 15.410366
_cell_length_b 15.410366
_cell_length_c 20.512566
_cell_angle_alpha 90.000000
_cell_angle_beta 90.000000
_cell_angle_gamma 90.000000
_cell_volume 4871.311461
_symmetry_space_group_name_H-M "P 4/N B M"
_symmetry_group_IT_number 125
_space_group.IT_coordinate_system_code '2'
_symmetry_cell_setting 'tetragonal'
loop_
_space_group_symop_operation_xyz
x,y,z
1/2-y,x,z
1/2-x,1/2-y,z
y,1/2-x,z
x,1/2-y,-z
1/2-x,y,-z
y,x,-z
1/2-y,1/2-x,-z
-x,-y,-z
1/2+y,-x,-z
1/2+x,1/2+y,-z
-y,1/2+x,-z
-x,1/2+y,z
1/2+x,-y,z
-y,-x,z
1/2+y,1/2+x,z
loop_
_atom_site_type_symbol
_atom_site_label
_atom_site_fract_x
_atom_site_fract_y
_atom_site_fract_z
Si Si1 0.567961 0.210279 0.333444
Si Si2 0.173875 0.538703 0.451222
Si Si3 0.391022 0.755187 0.929690
Si Si4 0.543928 0.189418 0.800097
Si Si5 0.179166 0.373158 0.249627
Si Si6 0.429148 0.067953 0.362939
O O1 0.657379 0.157379 0.331407
O O2 0.577129 0.289896 0.383118
O O3 0.549576 0.242921 0.259991
O O4 0.490205 0.151718 0.363095
O O5 0.250000 0.510302 0.500000
O O6 0.115112 0.615112 0.483694
O O7 0.111019 0.456522 0.433993
O O8 0.315334 0.684667 0.931377
O O9 0.350192 0.850192 0.919759
O O10 0.453329 0.739250 0.868726
O O11 0.440638 0.750000 0.000000
O O12 0.618170 0.118170 0.793504
O O13 0.447516 0.146203 0.800424
O O14 0.133040 0.282285 0.239489
O O15 0.156249 0.412280 0.320230
O O16 0.485266 0.985266 0.336623
#
# Coordination Sequence:
#
# PCOD8313503 Si02
#       6
#    16  16  16  16  16  16
#     4  11  22  35  55  83 112 145 187 232 285 347
#     4  11  23  38  55  76 110 152 191 233 284 341
#     4   8  15  29  50  80 119 158 192 230 284 346
#     4  11  20  33  56  86 117 149 188 236 289 338
#     4  11  21  36  57  81 110 147 190 231 279 331
#     4  10  20  38  59  81 111 144 186 237 290 344
#
# _framework density 19.707218999999998
#
# number of rings (size 3 to 8) (size 9 to 14) (size 15 to 20)
#    0.000    1.667    3.333    2.500    0.000    3.500 
#    0.000    2.500    0.000    1.000    0.000    5.833 
#    0.000    0.000    0.000    0.000    0.000    0.000 
#
# Total GULP energy -1189403.961997 kJ/mol
# GULP energy per Si atom -12389.624604 kJ/mol
# Density = 1.966236 g / cm^3
# Si number density = 19.707219 Si / 1000 Ang^3
#
#
#
# Elastic Constant Matrix: (Units=GPa)
#
#
# Indices 1 2 3 4 5 6 
#
# 1 88.7243 29.8746 27.0945 0.0000 0.0000 0.0000
# 2 29.8746 88.7243 27.0945 0.0000 0.0000 0.0000
# 3 27.0945 27.0945 97.0334 0.0000 0.0000 0.0000
# 4 0.0000 0.0000 0.0000 22.3877 0.0000 0.0000
# 5 0.0000 0.0000 0.0000 0.0000 22.3877 0.0000
# 6 0.0000 0.0000 0.0000 0.0000 0.0000 26.1984
#
#
#
# Elastic Compliance Matrix: (Units=1/GPa)
#
#
# Indices 1 2 3 4 5 6 
#
# 1 0.013329 -0.003664 -0.002699 0.000000 0.000000 0.000000
# 2 -0.003664 0.013329 -0.002699 0.000000 0.000000 0.000000
# 3 -0.002699 -0.002699 0.011813 0.000000 0.000000 0.000000
# 4 0.000000 0.000000 0.000000 0.044667 0.000000 0.000000
# 5 0.000000 0.000000 0.000000 0.000000 0.044667 0.000000
# 6 0.000000 0.000000 0.000000 0.000000 0.000000 0.038170
#
#
# Mechanical properties :
#
#
# Convention : Reuss Voigt Hill
#
# Bulk Modulus (GPa) = 49.14556 49.17881 49.16219
# Shear Modulus (GPa) = 26.19447 26.88933 26.54190
#
# Velocity S-wave (km/s) = 3.64975 3.69784 3.67387
# Velocity P-wave (km/s) = 6.53857 6.57578 6.55720
#
# Compressibility (1/GPa) = 0.02034772
#
# Stress axis : x y z
#
# Youngs Moduli (GPa) = 75.02635 75.02635 84.65359
#
# Poissons Ratio (x) = 0.27488 0.22846
# Poissons Ratio (y) = 0.27488 0.22846
# Poissons Ratio (z) = 0.20247 0.20247
#
# Static dielectric constant tensor:
#      x y z
#    x 3.682480 0.000000 0.000000 
#    y 0.000000 3.682480 0.000000 
#    z 0.000000 0.000000 3.636750 
# 
# 
# High freq. dielectric constant tensor:
#      x y z
#    x 1.765570 0.000000 0.000000 
#    y 0.000000 1.765570 0.000000 
#    z 0.000000 0.000000 1.747230 
# 
# From -- ./inp_files/5903.got.cif
#   From: 2010.03.12/outbox.cif.g09.slc.cpg/sg125_3_cif.got.tgz:5903.got - 2010.04.06 16:47:52.
