data_PCOD8313426
_publ_section_title
;
Structure prediction by ZEFSAII (Michael W. Deem and Ramdas Pophale) SiO2 
 PCOD8313426
Probable space group: P 4/N B M
;
_chemical_formula_sum "Si O2"
_cell_formula_units_Z 112
_cell_length_a 30.166190
_cell_length_b 30.166190
_cell_length_c 9.317970
_cell_angle_alpha 90.000000
_cell_angle_beta 90.000000
_cell_angle_gamma 90.000000
_cell_volume 8479.343560
_symmetry_space_group_name_H-M "P 4/N B M"
_symmetry_group_IT_number 125
_space_group.IT_coordinate_system_code '2'
_symmetry_cell_setting 'tetragonal'
loop_
_space_group_symop_operation_xyz
x,y,z
1/2-y,x,z
1/2-x,1/2-y,z
y,1/2-x,z
x,1/2-y,-z
1/2-x,y,-z
y,x,-z
1/2-y,1/2-x,-z
-x,-y,-z
1/2+y,-x,-z
1/2+x,1/2+y,-z
-y,1/2+x,-z
-x,1/2+y,z
1/2+x,-y,z
-y,-x,z
1/2+y,1/2+x,z
loop_
_atom_site_type_symbol
_atom_site_label
_atom_site_fract_x
_atom_site_fract_y
_atom_site_fract_z
Si Si1 0.973746 0.399378 0.339565
Si Si2 0.250000 0.678162 0.500000
Si Si3 0.458398 0.466808 0.162332
Si Si4 0.250000 0.818003 0.000000
Si Si5 0.079099 0.651833 0.160893
Si Si6 0.338842 0.911615 0.828633
Si Si7 0.739642 0.117273 0.764177
Si Si8 0.592134 0.482016 0.338076
O O1 0.938831 0.438831 0.343716
O O2 0.950126 0.355519 0.277807
O O3 0.991798 0.389840 0.500750
O O4 0.013512 0.413554 0.232658
O O5 0.208564 0.708564 0.546364
O O6 0.235994 0.644962 0.378032
O O7 0.496260 0.503741 0.157234
O O8 0.473382 0.426198 0.264230
O O9 0.449511 0.449511 0.000000
O O10 0.225508 0.848137 0.886148
O O11 0.287367 0.787367 0.924518
O O12 0.122944 0.622944 0.196356
O O13 0.081097 0.700756 0.231444
O O14 0.036273 0.630412 0.234512
O O15 0.071347 0.654745 0.990516
O O16 0.366067 0.866067 0.803520
O O17 0.287511 0.903821 0.792507
O O18 0.552957 0.447044 0.350166
#
# Coordination Sequence:
#
# PCOD8313426 Si02
#       8
#    16   8  16   8  16  16  16  16
#     4   9  17  27  41  59  79  99 118 142 176 222
#     4  11  24  36  44  56  72  90 118 162 214 260
#     4   9  15  25  41  61  81  99 117 139 169 210
#     4  11  20  32  48  60  68  86 122 166 210 252
#     4  10  19  31  44  58  74  95 124 157 195 238
#     4  10  19  31  44  58  74  95 124 157 195 238
#     4  12  22  33  46  58  74  96 124 162 206 249
#     4   9  17  27  41  59  79  99 118 142 176 222
#
# _framework density 13.208569000000001
#
# number of rings (size 3 to 8) (size 9 to 14) (size 15 to 20)
#    0.000    2.000    1.429    3.857    2.000    6.286 
#    0.000    0.000    0.000    0.000    0.000    0.000 
#    0.000    0.000    0.000    0.000    0.000    0.000 
#
# Total GULP energy -1388329.352398 kJ/mol
# GULP energy per Si atom -12395.797789 kJ/mol
# Density = 1.317851 g / cm^3
# Si number density = 13.208569 Si / 1000 Ang^3
#
#
#
# Elastic Constant Matrix: (Units=GPa)
#
#
# Indices 1 2 3 4 5 6 
#
# 1 43.7447 33.5555 18.1958 0.0000 0.0000 0.0000
# 2 33.5555 43.7447 18.1958 0.0000 0.0000 0.0000
# 3 18.1958 18.1958 71.9591 0.0000 0.0000 0.0000
# 4 0.0000 0.0000 0.0000 18.7527 0.0000 0.0000
# 5 0.0000 0.0000 0.0000 0.0000 18.7527 0.0000
# 6 0.0000 0.0000 0.0000 0.0000 0.0000 17.9078
#
#
#
# Elastic Compliance Matrix: (Units=1/GPa)
#
#
# Indices 1 2 3 4 5 6 
#
# 1 0.056414 -0.041729 -0.003713 0.000000 0.000000 0.000000
# 2 -0.041729 0.056414 -0.003713 0.000000 0.000000 0.000000
# 3 -0.003713 -0.003713 0.015775 0.000000 0.000000 0.000000
# 4 0.000000 0.000000 0.000000 0.053326 0.000000 0.000000
# 5 0.000000 0.000000 0.000000 0.000000 0.053326 0.000000
# 6 0.000000 0.000000 0.000000 0.000000 0.000000 0.055842
#
#
# Mechanical properties :
#
#
# Convention : Reuss Voigt Hill
#
# Bulk Modulus (GPa) = 33.01290 33.26029 33.13660
# Shear Modulus (GPa) = 12.51555 17.04939 14.78247
#
# Velocity S-wave (km/s) = 3.08154 3.59664 3.34901
# Velocity P-wave (km/s) = 6.14077 6.51792 6.33215
#
# Compressibility (1/GPa) = 0.03029119
#
# Stress axis : x y z
#
# Youngs Moduli (GPa) = 17.72620 17.72620 63.39284
#
# Poissons Ratio (x) = 0.73970 0.23539
# Poissons Ratio (y) = 0.73970 0.23539
# Poissons Ratio (z) = 0.06582 0.06582
#
# Static dielectric constant tensor:
#      x y z
#    x 2.459430 0.000000 0.000000 
#    y 0.000000 2.459430 0.000000 
#    z 0.000000 0.000000 2.851790 
# 
# 
# High freq. dielectric constant tensor:
#      x y z
#    x 1.464380 0.000000 0.000000 
#    y 0.000000 1.464380 0.000000 
#    z 0.000000 0.000000 1.524100 
# 
# From -- ./inp_files/3156.got.cif
#   From: 2010.03.12/outbox.cif.g09.slc.cpg/sg125_2_cif.got.tgz:3156.got - 2010.04.06 16:47:52.
