data_PCOD8313573
_publ_section_title
;
Structure prediction by ZEFSAII (Michael W. Deem and Ramdas Pophale) SiO2 
 PCOD8313573
Probable space group: P 4/N B M
;
_chemical_formula_sum "Si O2"
_cell_formula_units_Z 112
_cell_length_a 15.764744
_cell_length_b 15.764744
_cell_length_c 22.386255
_cell_angle_alpha 90.000000
_cell_angle_beta 90.000000
_cell_angle_gamma 90.000000
_cell_volume 5563.592230
_symmetry_space_group_name_H-M "P 4/N B M"
_symmetry_group_IT_number 125
_space_group.IT_coordinate_system_code '2'
_symmetry_cell_setting 'tetragonal'
loop_
_space_group_symop_operation_xyz
x,y,z
1/2-y,x,z
1/2-x,1/2-y,z
y,1/2-x,z
x,1/2-y,-z
1/2-x,y,-z
y,x,-z
1/2-y,1/2-x,-z
-x,-y,-z
1/2+y,-x,-z
1/2+x,1/2+y,-z
-y,1/2+x,-z
-x,1/2+y,z
1/2+x,-y,z
-y,-x,z
1/2+y,1/2+x,z
loop_
_atom_site_type_symbol
_atom_site_label
_atom_site_fract_x
_atom_site_fract_y
_atom_site_fract_z
Si Si1 0.871982 0.513327 0.835528
Si Si2 0.459763 0.817776 0.448903
Si Si3 0.130812 0.181468 0.404308
Si Si4 0.676838 0.866715 0.733766
Si Si5 0.254772 0.612951 0.202664
Si Si6 0.387290 0.754761 0.664607
Si Si7 0.145768 0.340782 0.931736
O O1 0.871353 0.564571 0.773810
O O2 0.783397 0.459009 0.841547
O O3 0.887094 0.576683 0.890845
O O4 0.951706 0.451706 0.833490
O O5 0.441568 0.750000 0.500000
O O6 0.393708 0.893708 0.455930
O O7 0.555747 0.854779 0.446922
O O8 0.455602 0.767774 0.385585
O O9 0.218639 0.136454 0.419878
O O10 0.109908 0.163846 0.335162
O O11 0.635739 0.776159 0.749375
O O12 0.346095 0.653906 0.182008
O O13 0.189545 0.689545 0.206865
O O14 0.262389 0.571570 0.269170
O O15 0.317222 0.682779 0.664424
O O16 0.344405 0.844405 0.647813
O O17 0.133070 0.241623 0.917234
O O18 0.131334 0.368667 0.000000
#
# Coordination Sequence:
#
# PCOD8313573 Si02
#       7
#    16  16  16  16  16  16  16
#     4  11  20  29  50  85 119 146 175 219 272 323
#     4  11  22  35  54  80 109 141 182 234 287 341
#     4   9  20  40  62  80 101 137 183 229 282 341
#     4   9  18  35  58  80 105 140 182 225 274 336
#     4   8  15  28  45  68 103 146 182 209 253 324
#     4   8  14  27  47  69  98 140 183 218 259 318
#     4   9  19  38  61  78  97 136 189 236 277 322
#
# _framework density 20.130880000000001
#
# number of rings (size 3 to 8) (size 9 to 14) (size 15 to 20)
#    0.000    2.714    0.000    4.286    0.000    4.429 
#    0.000    5.714    0.000    3.429    0.000    0.000 
#    0.000    0.000    0.000    0.000    0.000    0.000 
#
# Total GULP energy -1387843.889663 kJ/mol
# GULP energy per Si atom -12391.463301 kJ/mol
# Density = 2.008506 g / cm^3
# Si number density = 20.130880 Si / 1000 Ang^3
#
#
#
# Elastic Constant Matrix: (Units=GPa)
#
#
# Indices 1 2 3 4 5 6 
#
# 1 86.7652 40.1021 48.9249 0.0000 0.0000 0.0000
# 2 40.1021 86.7651 48.9249 0.0000 0.0000 0.0000
# 3 48.9249 48.9249 66.6782 0.0000 0.0000 0.0000
# 4 0.0000 0.0000 0.0000 26.4662 0.0000 0.0000
# 5 0.0000 0.0000 0.0000 0.0000 26.4663 0.0000
# 6 0.0000 0.0000 0.0000 0.0000 0.0000 18.8352
#
#
#
# Elastic Compliance Matrix: (Units=1/GPa)
#
#
# Indices 1 2 3 4 5 6 
#
# 1 0.019794 -0.001636 -0.013324 0.000000 0.000000 0.000000
# 2 -0.001636 0.019794 -0.013324 0.000000 0.000000 0.000000
# 3 -0.013324 -0.013324 0.034550 0.000000 0.000000 0.000000
# 4 0.000000 0.000000 0.000000 0.037784 0.000000 0.000000
# 5 0.000000 0.000000 0.000000 0.000000 0.037784 0.000000
# 6 0.000000 0.000000 0.000000 0.000000 0.000000 0.053092
#
#
# Mechanical properties :
#
#
# Convention : Reuss Voigt Hill
#
# Bulk Modulus (GPa) = 56.90881 57.34580 57.12730
# Shear Modulus (GPa) = 18.85205 21.17064 20.01134
#
# Velocity S-wave (km/s) = 3.06351 3.24643 3.15630
# Velocity P-wave (km/s) = 6.39095 6.52693 6.45929
#
# Compressibility (1/GPa) = 0.01757197
#
# Stress axis : x y z
#
# Youngs Moduli (GPa) = 50.51931 50.51927 28.94356
#
# Poissons Ratio (x) = 0.08264 0.38564
# Poissons Ratio (y) = 0.08264 0.38564
# Poissons Ratio (z) = 0.67311 0.67311
#
# Static dielectric constant tensor:
#      x y z
#    x 3.588820 0.000000 0.000000 
#    y 0.000000 3.588810 0.000000 
#    z 0.000000 0.000000 3.562140 
# 
# 
# High freq. dielectric constant tensor:
#      x y z
#    x 1.776370 0.000000 0.000000 
#    y 0.000000 1.776370 0.000000 
#    z 0.000000 0.000000 1.768360 
# 
# From -- ./inp_files/6226.got.cif
#   From: 2010.03.12/outbox.cif.g09.slc.cpg/sg125_4_cif.got.tgz:6226.got - 2010.04.06 16:47:52.
