data_PCOD8313558
_publ_section_title
;
Structure prediction by ZEFSAII (Michael W. Deem and Ramdas Pophale) SiO2 
 PCOD8313558
Probable space group: P 4/N B M
;
_chemical_formula_sum "Si O2"
_cell_formula_units_Z 58
_cell_length_a 11.913419
_cell_length_b 11.913419
_cell_length_c 20.953439
_cell_angle_alpha 90.000000
_cell_angle_beta 90.000000
_cell_angle_gamma 90.000000
_cell_volume 2973.912216
_symmetry_space_group_name_H-M "P 4/N B M"
_symmetry_group_IT_number 125
_space_group.IT_coordinate_system_code '2'
_symmetry_cell_setting 'tetragonal'
loop_
_space_group_symop_operation_xyz
x,y,z
1/2-y,x,z
1/2-x,1/2-y,z
y,1/2-x,z
x,1/2-y,-z
1/2-x,y,-z
y,x,-z
1/2-y,1/2-x,-z
-x,-y,-z
1/2+y,-x,-z
1/2+x,1/2+y,-z
-y,1/2+x,-z
-x,1/2+y,z
1/2+x,-y,z
-y,-x,z
1/2+y,1/2+x,z
loop_
_atom_site_type_symbol
_atom_site_label
_atom_site_fract_x
_atom_site_fract_y
_atom_site_fract_z
Si Si1 0.250576 0.434179 0.571635
Si Si2 0.569157 0.253453 0.695088
Si Si3 0.162241 0.662241 0.122332
Si Si4 0.750000 0.250000 0.000000
Si Si5 0.223141 0.430347 0.185196
O O1 0.140048 0.360635 0.582635
O O2 0.250000 0.484153 0.500000
O O3 0.251495 0.535587 0.621138
O O4 0.625280 0.374720 0.709435
O O5 0.657205 0.157205 0.710570
O O6 0.462348 0.230166 0.740018
O O7 0.250000 0.750000 0.154843
O O8 0.198459 0.538095 0.142202
O O9 0.171652 0.671652 0.045157
O O10 0.124222 0.343283 0.169398
#
# Coordination Sequence:
#
# PCOD8313558 Si02
#       5
#    16  16   8   2  16
#     4   9  19  36  55  75 106 151 204 263 326 390
#     4  11  23  36  54  84 120 160 207 266 326 384
#     4  10  22  43  70  98 133 172 213 253 307 375
#     4   8  24  44  72 108 132 180 214 240 316 364
#     4  11  24  40  65  99 132 172 218 270 323 375
#
# _framework density 19.502931
#
# number of rings (size 3 to 8) (size 9 to 14) (size 15 to 20)
#    0.414    1.379    1.379    3.310    3.862    6.621 
#    0.000    6.897    0.000    1.655    0.000    0.000 
#    0.000    0.000    0.000    0.000    0.000    0.000 
#
# Total GULP energy -719111.200493 kJ/mol
# GULP energy per Si atom -12398.468974 kJ/mol
# Density = 1.945854 g / cm^3
# Si number density = 19.502931 Si / 1000 Ang^3
#
#
#
# Elastic Constant Matrix: (Units=GPa)
#
#
# Indices 1 2 3 4 5 6 
#
# 1 125.8476 58.7800 51.3954 0.0000 0.0000 0.0000
# 2 58.7800 125.8476 51.3954 0.0000 0.0000 0.0000
# 3 51.3954 51.3954 120.0610 0.0000 0.0000 0.0000
# 4 0.0000 0.0000 0.0000 25.4094 0.0000 0.0000
# 5 0.0000 0.0000 0.0000 0.0000 25.4094 0.0000
# 6 0.0000 0.0000 0.0000 0.0000 0.0000 18.4153
#
#
#
# Elastic Compliance Matrix: (Units=1/GPa)
#
#
# Indices 1 2 3 4 5 6 
#
# 1 0.011011 -0.003900 -0.003044 0.000000 0.000000 0.000000
# 2 -0.003900 0.011011 -0.003044 0.000000 0.000000 0.000000
# 3 -0.003044 -0.003044 0.010935 0.000000 0.000000 0.000000
# 4 0.000000 0.000000 0.000000 0.039356 0.000000 0.000000
# 5 0.000000 0.000000 0.000000 0.000000 0.039356 0.000000
# 6 0.000000 0.000000 0.000000 0.000000 0.000000 0.054303
#
#
# Mechanical properties :
#
#
# Convention : Reuss Voigt Hill
#
# Bulk Modulus (GPa) = 77.03497 77.21087 77.12292
# Shear Modulus (GPa) = 26.27800 27.85917 27.06858
#
# Velocity S-wave (km/s) = 3.67466 3.78360 3.72953
# Velocity P-wave (km/s) = 7.58875 7.66569 7.62732
#
# Compressibility (1/GPa) = 0.01298112
#
# Stress axis : x y z
#
# Youngs Moduli (GPa) = 90.82068 90.82068 91.44673
#
# Poissons Ratio (x) = 0.35416 0.27837
# Poissons Ratio (y) = 0.35416 0.27837
# Poissons Ratio (z) = 0.27647 0.27647
#
# Static dielectric constant tensor:
#      x y z
#    x 3.525890 0.000000 0.000000 
#    y 0.000000 3.525890 0.000000 
#    z 0.000000 0.000000 3.407130 
# 
# 
# High freq. dielectric constant tensor:
#      x y z
#    x 1.760160 0.000000 0.000000 
#    y 0.000000 1.760160 0.000000 
#    z 0.000000 0.000000 1.747880 
# 
# From -- ./inp_files/5744.got.cif
#   From: 2010.03.12/outbox.cif.g09.slc.cpg/sg125_3_cif.got.tgz:5744.got - 2010.04.06 16:47:52.
