data_PCOD8313094
_publ_section_title
;
Structure prediction by ZEFSAII (Michael W. Deem and Ramdas Pophale) SiO2 
 PCOD8313094
Probable space group: P 4/M C C
;
_chemical_formula_sum "Si O2"
_cell_formula_units_Z 88
_cell_length_a 14.764986
_cell_length_b 14.764986
_cell_length_c 24.109708
_cell_angle_alpha 90.000000
_cell_angle_beta 90.000000
_cell_angle_gamma 90.000000
_cell_volume 5256.032350
_symmetry_space_group_name_H-M "P 4/M C C"
_symmetry_group_IT_number 124
_symmetry_cell_setting 'tetragonal'
loop_
_space_group_symop_operation_xyz
x,y,z
-y,x,z
-x,-y,z
y,-x,z
x,-y,1/2-z
-x,y,1/2-z
y,x,1/2-z
-y,-x,1/2-z
-x,-y,-z
y,-x,-z
x,y,-z
-y,x,-z
-x,y,1/2+z
x,-y,1/2+z
-y,-x,1/2+z
y,x,1/2+z
loop_
_atom_site_type_symbol
_atom_site_label
_atom_site_fract_x
_atom_site_fract_y
_atom_site_fract_z
Si Si1 0.573109 0.244344 0.065723
Si Si2 0.899131 0.261468 0.100653
Si Si3 0.730790 0.372220 0.066019
Si Si4 0.959945 0.598661 0.065441
Si Si5 0.883875 0.913783 0.185574
Si Si6 0.931611 0.132936 0.000000
O O1 0.644693 0.316912 0.088598
O O2 0.475158 0.276088 0.087392
O O3 0.599714 0.143871 0.085788
O O4 0.572046 0.243517 0.000000
O O5 0.820267 0.332608 0.092439
O O6 0.875018 0.206738 0.157234
O O7 0.899272 0.186008 0.053612
O O8 0.990696 0.321876 0.100280
O O9 0.738515 0.366817 0.000000
O O10 0.000000 0.500000 0.078943
O O11 0.971359 0.620287 0.000000
O O12 0.887270 0.887270 0.250000
O O13 0.981005 0.877023 0.166124
O O14 0.038738 0.121059 0.000000
#
# Coordination Sequence:
#
# PCOD8313094 Si02
#       6
#    16  16  16  16  16   8
#     4   9  19  30  46  64 102 144 182 221 253 314
#     4  12  20  30  52  74 101 141 181 217 266 333
#     4  10  19  32  45  72 101 140 184 219 265 312
#     4  10  18  30  45  70 108 147 175 213 271 322
#     4   9  20  38  54  70  97 135 181 221 261 312
#     4  11  24  32  39  70 112 137 168 217 271 318
#
# _framework density 16.742667999999998
#
# number of rings (size 3 to 8) (size 9 to 14) (size 15 to 20)
#    0.000    1.909    3.636    1.636    5.091    1.818 
#    0.000    1.818    0.000    0.000    0.000    8.909 
#    0.000    0.000    0.000    1.636    0.000    0.182 
#
# Total GULP energy -1090604.225166 kJ/mol
# GULP energy per Si atom -12393.229831 kJ/mol
# Density = 1.670456 g / cm^3
# Si number density = 16.742668 Si / 1000 Ang^3
#
#
#
# Elastic Constant Matrix: (Units=GPa)
#
#
# Indices 1 2 3 4 5 6 
#
# 1 115.3029 49.1258 22.9096 0.0000 0.0000 0.0000
# 2 49.1258 115.3029 22.9096 0.0000 0.0000 0.0000
# 3 22.9096 22.9096 32.8188 0.0000 0.0000 0.0000
# 4 0.0000 0.0000 0.0000 15.2733 0.0000 0.0000
# 5 0.0000 0.0000 0.0000 0.0000 15.2733 0.0000
# 6 0.0000 0.0000 0.0000 0.0000 0.0000 31.4158
#
#
#
# Elastic Compliance Matrix: (Units=1/GPa)
#
#
# Indices 1 2 3 4 5 6 
#
# 1 0.011331 -0.003780 -0.005271 0.000000 0.000000 0.000000
# 2 -0.003780 0.011331 -0.005271 0.000000 0.000000 0.000000
# 3 -0.005271 -0.005271 0.037829 0.000000 0.000000 0.000000
# 4 0.000000 0.000000 0.000000 0.065474 0.000000 0.000000
# 5 0.000000 0.000000 0.000000 0.000000 0.065474 0.000000
# 6 0.000000 0.000000 0.000000 0.000000 0.000000 0.031831
#
#
# Mechanical properties :
#
#
# Convention : Reuss Voigt Hill
#
# Bulk Modulus (GPa) = 31.40016 50.36832 40.88424
# Shear Modulus (GPa) = 19.04561 23.62444 21.33503
#
# Velocity S-wave (km/s) = 3.37642 3.76045 3.57359
# Velocity P-wave (km/s) = 5.83057 7.00027 6.44202
#
# Compressibility (1/GPa) = 0.03184698
#
# Stress axis : x y z
#
# Youngs Moduli (GPa) = 88.25606 88.25606 26.43490
#
# Poissons Ratio (x) = 0.33363 0.13933
# Poissons Ratio (y) = 0.33363 0.13933
# Poissons Ratio (z) = 0.46517 0.46517
#
# Static dielectric constant tensor:
#      x y z
#    x 3.364320 0.000000 0.000000 
#    y 0.000000 3.364320 0.000000 
#    z 0.000000 0.000000 -1.887880 
# 
# 
# High freq. dielectric constant tensor:
#      x y z
#    x 1.656210 0.000000 0.000000 
#    y 0.000000 1.656210 0.000000 
#    z 0.000000 0.000000 1.576110 
# 
# From -- ./inp_files/5183.got.cif
#   From: 2010.03.12/outbox.cif.g09.slc.cpg/sg124_3_cif.got.tgz:5183.got - 2010.04.06 16:38:57.
