data_PCOD8313406
_publ_section_title
;
Structure prediction by ZEFSAII (Michael W. Deem and Ramdas Pophale) SiO2 
 PCOD8313406
Probable space group: P 4/N B M
;
_chemical_formula_sum "Si O2"
_cell_formula_units_Z 112
_cell_length_a 34.836493
_cell_length_b 34.836493
_cell_length_c 5.282258
_cell_angle_alpha 90.000000
_cell_angle_beta 90.000000
_cell_angle_gamma 90.000000
_cell_volume 6410.449238
_symmetry_space_group_name_H-M "P 4/N B M"
_symmetry_group_IT_number 125
_space_group.IT_coordinate_system_code '2'
_symmetry_cell_setting 'tetragonal'
loop_
_space_group_symop_operation_xyz
x,y,z
1/2-y,x,z
1/2-x,1/2-y,z
y,1/2-x,z
x,1/2-y,-z
1/2-x,y,-z
y,x,-z
1/2-y,1/2-x,-z
-x,-y,-z
1/2+y,-x,-z
1/2+x,1/2+y,-z
-y,1/2+x,-z
-x,1/2+y,z
1/2+x,-y,z
-y,-x,z
1/2+y,1/2+x,z
loop_
_atom_site_type_symbol
_atom_site_label
_atom_site_fract_x
_atom_site_fract_y
_atom_site_fract_z
Si Si1 0.466177 0.650001 0.822290
Si Si2 0.123223 0.938225 0.323094
Si Si3 0.769285 0.999191 0.248617
Si Si4 0.229820 0.090856 0.749491
Si Si5 0.411157 0.468798 0.841959
Si Si6 0.894134 0.860312 0.754998
Si Si7 0.941009 0.997120 0.658246
O O1 0.436448 0.645967 0.588899
O O2 0.492869 0.685885 0.763418
O O3 0.492465 0.612881 0.845687
O O4 0.443589 0.652905 0.089188
O O5 0.101657 0.898344 0.278576
O O6 0.093896 0.973394 0.341947
O O7 0.750000 0.017433 0.500000
O O8 0.762093 0.954136 0.250454
O O9 0.750000 0.017828 0.000000
O O10 0.250000 0.109000 0.500000
O O11 0.184784 0.098739 0.743300
O O12 0.250000 0.108842 0.000000
O O13 0.383304 0.433721 0.780474
O O14 0.443084 0.476760 0.621508
O O15 0.430510 0.464947 0.124329
O O16 0.872809 0.872809 0.500000
O O17 0.868108 0.868108 0.000000
O O18 0.980593 0.019408 0.716729
#
# Coordination Sequence:
#
# PCOD8313406 Si02
#       7
#    16  16  16  16  16  16  16
#     4  10  17  29  45  63  92 121 160 198 244 294
#     4   9  17  26  41  64  87 116 157 211 256 284
#     4  10  19  30  47  70  96 126 159 192 238 293
#     4  10  21  38  58  79 105 134 163 190 226 282
#     4  10  19  32  48  69  96 126 164 204 253 294
#     4  12  24  38  57  82 110 133 160 194 243 294
#     4   9  17  29  48  67  88 124 171 217 252 289
#
# _framework density 17.471475000000002
#
# number of rings (size 3 to 8) (size 9 to 14) (size 15 to 20)
#    0.000    2.000    1.429    3.429    0.000    3.429 
#    0.000    0.000    0.000    8.571    0.000    0.000 
#    0.000   20.000    0.000    0.000    0.000    0.000 
#
# Total GULP energy -1388867.231945 kJ/mol
# GULP energy per Si atom -12400.600285 kJ/mol
# Density = 1.743171 g / cm^3
# Si number density = 17.471475 Si / 1000 Ang^3
#
#
#
# Elastic Constant Matrix: (Units=GPa)
#
#
# Indices 1 2 3 4 5 6 
#
# 1 46.1582 25.8212 46.4305 0.0000 0.0000 0.0000
# 2 25.8212 46.1582 46.4305 0.0000 0.0000 0.0000
# 3 46.4305 46.4305 183.3121 0.0000 0.0000 0.0000
# 4 0.0000 0.0000 0.0000 18.0104 0.0000 0.0000
# 5 0.0000 0.0000 0.0000 0.0000 18.0104 0.0000
# 6 0.0000 0.0000 0.0000 0.0000 0.0000 16.1917
#
#
#
# Elastic Compliance Matrix: (Units=1/GPa)
#
#
# Indices 1 2 3 4 5 6 
#
# 1 0.034904 -0.014268 -0.005227 0.000000 0.000000 0.000000
# 2 -0.014268 0.034904 -0.005227 0.000000 0.000000 0.000000
# 3 -0.005227 -0.005227 0.008103 0.000000 0.000000 0.000000
# 4 0.000000 0.000000 0.000000 0.055524 0.000000 0.000000
# 5 0.000000 0.000000 0.000000 0.000000 0.055524 0.000000
# 6 0.000000 0.000000 0.000000 0.000000 0.000000 0.061760
#
#
# Mechanical properties :
#
#
# Convention : Reuss Voigt Hill
#
# Bulk Modulus (GPa) = 35.12757 56.99923 46.06340
# Shear Modulus (GPa) = 16.14729 20.90558 18.52643
#
# Velocity S-wave (km/s) = 3.04338 3.46288 3.25988
# Velocity P-wave (km/s) = 5.70078 6.97737 6.37113
#
# Compressibility (1/GPa) = 0.02846767
#
# Stress axis : x y z
#
# Youngs Moduli (GPa) = 28.65026 28.65026 123.41191
#
# Poissons Ratio (x) = 0.40877 0.64505
# Poissons Ratio (y) = 0.40877 0.64505
# Poissons Ratio (z) = 0.14975 0.14975
#
# Static dielectric constant tensor:
#      x y z
#    x 2.957530 0.000000 0.000000 
#    y 0.000000 2.957530 0.000000 
#    z 0.000000 0.000000 4.036320 
# 
# 
# High freq. dielectric constant tensor:
#      x y z
#    x 1.640330 0.000000 0.000000 
#    y 0.000000 1.640330 0.000000 
#    z 0.000000 0.000000 1.715650 
# 
# From -- ./inp_files/1366.got.cif
#   From: 2010.03.12/outbox.cif.g09.slc.cpg/sg125_1_cif.got.tgz:1366.got - 2010.04.06 16:47:52.
