data_PCOD8313542
_publ_section_title
;
Structure prediction by ZEFSAII (Michael W. Deem and Ramdas Pophale) SiO2 
 PCOD8313542
Probable space group: P 4/N B M
;
_chemical_formula_sum "Si O2"
_cell_formula_units_Z 48
_cell_length_a 13.579595
_cell_length_b 13.579595
_cell_length_c 13.105470
_cell_angle_alpha 90.000000
_cell_angle_beta 90.000000
_cell_angle_gamma 90.000000
_cell_volume 2416.719442
_symmetry_space_group_name_H-M "P 4/N B M"
_symmetry_group_IT_number 125
_space_group.IT_coordinate_system_code '2'
_symmetry_cell_setting 'tetragonal'
loop_
_space_group_symop_operation_xyz
x,y,z
1/2-y,x,z
1/2-x,1/2-y,z
y,1/2-x,z
x,1/2-y,-z
1/2-x,y,-z
y,x,-z
1/2-y,1/2-x,-z
-x,-y,-z
1/2+y,-x,-z
1/2+x,1/2+y,-z
-y,1/2+x,-z
-x,1/2+y,z
1/2+x,-y,z
-y,-x,z
1/2+y,1/2+x,z
loop_
_atom_site_type_symbol
_atom_site_label
_atom_site_fract_x
_atom_site_fract_y
_atom_site_fract_z
Si Si1 0.329993 0.510953 0.703490
Si Si2 0.364866 0.364866 0.000000
Si Si3 0.909014 0.250000 0.500000
Si Si4 0.872428 0.972676 0.795898
O O1 0.388254 0.611747 0.733098
O O2 0.282806 0.520596 0.591808
O O3 0.243909 0.487326 0.784265
O O4 0.405398 0.418786 0.705154
O O5 0.250000 0.387405 0.000000
O O6 0.418812 0.405752 0.899961
O O7 0.840718 0.159283 0.536993
O O8 0.919119 0.080882 0.793608
#
# Coordination Sequence:
#
# PCOD8313542 Si02
#       4
#    16   8   8  16
#     4  10  22  38  59  90 120 156 201 242 295 355
#     4  11  21  38  62  84 115 159 194 246 298 356
#     4   9  18  36  60  85 122 164 198 239 292 351
#     4  11  22  38  62  87 119 156 197 248 297 354
#
# _framework density 19.861637000000002
#
# number of rings (size 3 to 8) (size 9 to 14) (size 15 to 20)
#    0.000    1.667    3.333    1.500    0.000    4.000 
#    0.000    5.000    0.000    2.000    0.000    0.000 
#    0.000    0.000    0.000    0.000    0.000    0.000 
#
# Total GULP energy -595119.033362 kJ/mol
# GULP energy per Si atom -12398.313195 kJ/mol
# Density = 1.981643 g / cm^3
# Si number density = 19.861637 Si / 1000 Ang^3
#
#
#
# Elastic Constant Matrix: (Units=GPa)
#
#
# Indices 1 2 3 4 5 6 
#
# 1 124.1325 16.2182 30.0636 0.0000 0.0000 0.0000
# 2 16.2182 124.1325 30.0636 0.0000 0.0000 0.0000
# 3 30.0636 30.0636 92.1236 0.0000 0.0000 0.0000
# 4 0.0000 0.0000 0.0000 28.3502 0.0000 0.0000
# 5 0.0000 0.0000 0.0000 0.0000 28.3502 0.0000
# 6 0.0000 0.0000 0.0000 0.0000 0.0000 23.9883
#
#
#
# Elastic Compliance Matrix: (Units=1/GPa)
#
#
# Indices 1 2 3 4 5 6 
#
# 1 0.008775 -0.000492 -0.002703 0.000000 0.000000 0.000000
# 2 -0.000492 0.008775 -0.002703 0.000000 0.000000 0.000000
# 3 -0.002703 -0.002703 0.012619 0.000000 0.000000 0.000000
# 4 0.000000 0.000000 0.000000 0.035273 0.000000 0.000000
# 5 0.000000 0.000000 0.000000 0.000000 0.035273 0.000000
# 6 0.000000 0.000000 0.000000 0.000000 0.000000 0.041687
#
#
# Mechanical properties :
#
#
# Convention : Reuss Voigt Hill
#
# Bulk Modulus (GPa) = 54.42781 54.78659 54.60720
# Shear Modulus (GPa) = 31.18717 33.74063 32.46390
#
# Velocity S-wave (km/s) = 3.96690 4.12610 4.04728
# Velocity P-wave (km/s) = 6.96022 7.09532 7.02810
#
# Compressibility (1/GPa) = 0.01837296
#
# Stress axis : x y z
#
# Youngs Moduli (GPa) = 113.96251 113.96251 79.24418
#
# Poissons Ratio (x) = 0.05605 0.21420
# Poissons Ratio (y) = 0.05605 0.21420
# Poissons Ratio (z) = 0.30805 0.30805
#
# Static dielectric constant tensor:
#      x y z
#    x 3.583520 0.000000 0.000000 
#    y 0.000000 3.583520 0.000000 
#    z 0.000000 0.000000 3.523280 
# 
# 
# High freq. dielectric constant tensor:
#      x y z
#    x 1.776070 0.000000 0.000000 
#    y 0.000000 1.776070 0.000000 
#    z 0.000000 0.000000 1.763980 
# 
# From -- ./inp_files/3429.got.cif
#   From: 2010.03.12/outbox.cif.g09.slc.cpg/sg125_2_cif.got.tgz:3429.got - 2010.04.06 16:47:52.
