data_PCOD8313615
_publ_section_title
;
Structure prediction by ZEFSAII (Michael W. Deem and Ramdas Pophale) SiO2 
 PCOD8313615
Probable space group: P 4/N B M
;
_chemical_formula_sum "Si O2"
_cell_formula_units_Z 96
_cell_length_a 14.250287
_cell_length_b 14.250287
_cell_length_c 22.511902
_cell_angle_alpha 90.000000
_cell_angle_beta 90.000000
_cell_angle_gamma 90.000000
_cell_volume 4571.507238
_symmetry_space_group_name_H-M "P 4/N B M"
_symmetry_group_IT_number 125
_space_group.IT_coordinate_system_code '2'
_symmetry_cell_setting 'tetragonal'
loop_
_space_group_symop_operation_xyz
x,y,z
1/2-y,x,z
1/2-x,1/2-y,z
y,1/2-x,z
x,1/2-y,-z
1/2-x,y,-z
y,x,-z
1/2-y,1/2-x,-z
-x,-y,-z
1/2+y,-x,-z
1/2+x,1/2+y,-z
-y,1/2+x,-z
-x,1/2+y,z
1/2+x,-y,z
-y,-x,z
1/2+y,1/2+x,z
loop_
_atom_site_type_symbol
_atom_site_label
_atom_site_fract_x
_atom_site_fract_y
_atom_site_fract_z
Si Si1 0.664025 0.015273 0.456586
Si Si2 0.646365 0.864869 0.375194
Si Si3 0.248375 0.603223 0.661011
Si Si4 0.126352 0.026315 0.734138
Si Si5 0.110728 0.314578 0.856991
Si Si6 0.147685 0.493223 0.028449
O O1 0.750000 0.997281 0.500000
O O2 0.589010 0.089010 0.483618
O O3 0.704945 0.050968 0.394591
O O4 0.611713 0.917611 0.436247
O O5 0.618872 0.757309 0.375382
O O6 0.599028 0.909620 0.316564
O O7 0.335222 0.664779 0.636385
O O8 0.170041 0.670041 0.691139
O O9 0.285179 0.532960 0.710938
O O10 0.164640 0.082019 0.789976
O O11 0.039163 0.960838 0.752022
O O12 0.127372 0.205017 0.868664
O O13 0.028060 0.345468 0.901380
O O14 0.088038 0.588038 0.018543
O O15 0.250000 0.507677 0.000000
O O16 0.096583 0.403418 0.000000
#
# Coordination Sequence:
#
# PCOD8313615 Si02
#       6
#    16  16  16  16  16  16
#     4  11  23  41  65  93 118 151 203 264 325 394
#     4  11  23  42  62  85 123 166 205 252 319 390
#     4   9  19  38  62  87 119 159 201 255 325 391
#     4  11  22  40  64  95 130 166 218 275 332 397
#     4  11  23  40  66  99 135 179 230 284 338 399
#     4  11  23  43  71 104 143 187 236 289 345 410
#
# _framework density 20.999637
#
# number of rings (size 3 to 8) (size 9 to 14) (size 15 to 20)
#    0.000    1.333    3.333    2.500    0.000    3.167 
#    0.000    3.333    0.000    2.000    0.000    0.000 
#    0.000    0.000    0.000    0.000    0.000    0.000 
#
# Total GULP energy -1190162.637798 kJ/mol
# GULP energy per Si atom -12397.527477 kJ/mol
# Density = 2.095184 g / cm^3
# Si number density = 20.999637 Si / 1000 Ang^3
#
#
#
# Elastic Constant Matrix: (Units=GPa)
#
#
# Indices 1 2 3 4 5 6 
#
# 1 112.4924 48.0502 35.4814 0.0000 0.0000 0.0000
# 2 48.0502 112.4930 35.4818 0.0000 0.0000 0.0000
# 3 35.4814 35.4818 99.3914 0.0000 0.0000 0.0000
# 4 0.0000 0.0000 0.0000 31.2053 0.0000 0.0000
# 5 0.0000 0.0000 0.0000 0.0000 31.2052 0.0000
# 6 0.0000 0.0000 0.0000 0.0000 0.0000 375.4385
#
#
#
# Elastic Compliance Matrix: (Units=1/GPa)
#
#
# Indices 1 2 3 4 5 6 
#
# 1 0.011457 -0.004061 -0.002640 0.000000 0.000000 0.000000
# 2 -0.004061 0.011457 -0.002640 0.000000 0.000000 0.000000
# 3 -0.002640 -0.002640 0.011946 0.000000 0.000000 0.000000
# 4 0.000000 0.000000 0.000000 0.032046 0.000000 0.000000
# 5 0.000000 0.000000 0.000000 0.000000 0.032046 0.000000
# 6 0.000000 0.000000 0.000000 0.000000 0.000000 0.002664
#
#
# Mechanical properties :
#
#
# Convention : Reuss Voigt Hill
#
# Bulk Modulus (GPa) = 61.81573 62.48930 62.15251
# Shear Modulus (GPa) = 39.78026 101.26069 70.52048
#
# Velocity S-wave (km/s) = 4.35711 6.95161 5.80126
# Velocity P-wave (km/s) = 7.40358 9.70851 8.63331
#
# Compressibility (1/GPa) = 0.01617711
#
# Stress axis : x y z
#
# Youngs Moduli (GPa) = 87.28418 87.28440 83.70777
#
# Poissons Ratio (x) = 0.35445 0.22101
# Poissons Ratio (y) = 0.35445 0.22101
# Poissons Ratio (z) = 0.23045 0.23046
#
# Static dielectric constant tensor:
#      x y z
#    x 4.066720 0.000000 0.000000 
#    y 0.000000 4.066720 0.000000 
#    z 0.000000 0.000000 3.655980 
# 
# 
# High freq. dielectric constant tensor:
#      x y z
#    x 1.834980 0.000000 0.000000 
#    y 0.000000 1.834980 0.000000 
#    z 0.000000 0.000000 1.808440 
# 
# From -- ./inp_files/5900.got.cif
#   From: 2010.03.12/outbox.cif.g09.slc.cpg/sg125_3_cif.got.tgz:5900.got - 2010.04.06 16:47:52.
