data_PCOD8313781
_publ_section_title
;
Structure prediction by ZEFSAII (Michael W. Deem and Ramdas Pophale) SiO2 
 PCOD8313781
Probable space group: P 4/N N C
;
_chemical_formula_sum "Si O2"
_cell_formula_units_Z 72
_cell_length_a 10.952836
_cell_length_b 10.952836
_cell_length_c 27.364676
_cell_angle_alpha 90.000000
_cell_angle_beta 90.000000
_cell_angle_gamma 90.000000
_cell_volume 3282.792860
_symmetry_space_group_name_H-M "P 4/N N C"
_symmetry_group_IT_number 126
_space_group.IT_coordinate_system_code '2'
_symmetry_cell_setting 'tetragonal'
loop_
_space_group_symop_operation_xyz
x,y,z
1/2-y,x,z
1/2-x,1/2-y,z
y,1/2-x,z
x,1/2-y,1/2-z
1/2-x,y,1/2-z
y,x,1/2-z
1/2-y,1/2-x,1/2-z
-x,-y,-z
1/2+y,-x,-z
1/2+x,1/2+y,-z
-y,1/2+x,-z
-x,1/2+y,1/2+z
1/2+x,-y,1/2+z
-y,-x,1/2+z
1/2+y,1/2+x,1/2+z
loop_
_atom_site_type_symbol
_atom_site_label
_atom_site_fract_x
_atom_site_fract_y
_atom_site_fract_z
Si Si1 0.687509 0.374277 0.838518
Si Si2 0.250000 0.451242 0.250000
Si Si3 0.556863 0.688858 0.113447
Si Si4 0.557239 0.276876 0.990665
Si Si5 0.745187 0.942330 0.912327
O O1 0.750000 0.250000 0.823773
O O2 0.727498 0.467958 0.797351
O O3 0.542304 0.350442 0.845607
O O4 0.748237 0.423294 0.888861
O O5 0.129681 0.370320 0.250000
O O6 0.671079 0.598310 0.120029
O O7 0.496890 0.673445 0.060004
O O8 0.647595 0.375520 0.015306
O O9 0.447942 0.259613 0.029030
O O10 0.627562 0.867266 0.894298
#
# Coordination Sequence:
#
# PCOD8313781 Si02
#       5
#    16   8  16  16  16
#     4  12  26  45  74 107 139 182 232 288 359 423
#     4  11  27  52  82 112 139 173 224 296 366 421
#     4  11  26  44  67 101 146 195 238 286 349 421
#     4  11  22  37  61  99 141 190 244 293 344 408
#     4  11  24  40  65  99 137 186 241 297 350 404
#
# _framework density 21.932542999999999
#
# number of rings (size 3 to 8) (size 9 to 14) (size 15 to 20)
#    0.000    0.778    2.222    4.333    9.333    5.333 
#    0.000    0.000    0.000    0.000    0.000    0.000 
#    0.000    0.000    0.000    0.000    0.000    0.000 
#
# Total GULP energy -892743.872847 kJ/mol
# GULP energy per Si atom -12399.220456 kJ/mol
# Density = 2.188262 g / cm^3
# Si number density = 21.932543 Si / 1000 Ang^3
#
#
#
# Elastic Constant Matrix: (Units=GPa)
#
#
# Indices 1 2 3 4 5 6 
#
# 1 121.6223 55.3014 56.1409 0.0000 0.0000 0.0000
# 2 55.3014 121.6220 56.1410 0.0000 0.0000 0.0000
# 3 56.1409 56.1410 97.1224 0.0000 0.0000 0.0000
# 4 0.0000 0.0000 0.0000 39.1404 0.0000 0.0000
# 5 0.0000 0.0000 0.0000 0.0000 39.1390 0.0000
# 6 0.0000 0.0000 0.0000 0.0000 0.0000 31.0037
#
#
#
# Elastic Compliance Matrix: (Units=1/GPa)
#
#
# Indices 1 2 3 4 5 6 
#
# 1 0.012003 -0.003076 -0.005160 0.000000 0.000000 0.000000
# 2 -0.003076 0.012003 -0.005160 0.000000 0.000000 0.000000
# 3 -0.005160 -0.005160 0.016262 0.000000 0.000000 0.000000
# 4 0.000000 0.000000 0.000000 0.025549 0.000000 0.000000
# 5 0.000000 0.000000 0.000000 0.000000 0.025550 0.000000
# 6 0.000000 0.000000 0.000000 0.000000 0.000000 0.032254
#
#
# Mechanical properties :
#
#
# Convention : Reuss Voigt Hill
#
# Bulk Modulus (GPa) = 74.21071 75.05925 74.63498
# Shear Modulus (GPa) = 32.27803 33.37550 32.82676
#
# Velocity S-wave (km/s) = 3.84043 3.90517 3.87294
# Velocity P-wave (km/s) = 7.31946 7.39127 7.35546
#
# Compressibility (1/GPa) = 0.01347514
#
# Stress axis : x y z
#
# Youngs Moduli (GPa) = 83.31538 83.31490 61.49337
#
# Poissons Ratio (x) = 0.25625 0.31732
# Poissons Ratio (y) = 0.25625 0.31732
# Poissons Ratio (z) = 0.42992 0.42992
#
# Static dielectric constant tensor:
#      x y z
#    x 2.987990 0.000000 0.000000 
#    y 0.000000 2.982300 0.000000 
#    z 0.000000 0.000000 3.816720 
# 
# 
# High freq. dielectric constant tensor:
#      x y z
#    x 1.876920 0.000000 0.000000 
#    y 0.000000 1.876920 0.000000 
#    z 0.000000 0.000000 1.840850 
# 
# From -- ./inp_files/6150.got.cif
#   From: 2010.03.12/outbox.cif.g09.slc.cpg/sg126_4_cif.got.tgz:6150.got - 2010.04.06 16:55:23.
