data_PCOD8313501
_publ_section_title
;
Structure prediction by ZEFSAII (Michael W. Deem and Ramdas Pophale) SiO2 
 PCOD8313501
Probable space group: P 4/N B M
;
_chemical_formula_sum "Si O2"
_cell_formula_units_Z 96
_cell_length_a 19.814336
_cell_length_b 19.814336
_cell_length_c 12.666900
_cell_angle_alpha 90.000000
_cell_angle_beta 90.000000
_cell_angle_gamma 90.000000
_cell_volume 4973.125149
_symmetry_space_group_name_H-M "P 4/N B M"
_symmetry_group_IT_number 125
_space_group.IT_coordinate_system_code '2'
_symmetry_cell_setting 'tetragonal'
loop_
_space_group_symop_operation_xyz
x,y,z
1/2-y,x,z
1/2-x,1/2-y,z
y,1/2-x,z
x,1/2-y,-z
1/2-x,y,-z
y,x,-z
1/2-y,1/2-x,-z
-x,-y,-z
1/2+y,-x,-z
1/2+x,1/2+y,-z
-y,1/2+x,-z
-x,1/2+y,z
1/2+x,-y,z
-y,-x,z
1/2+y,1/2+x,z
loop_
_atom_site_type_symbol
_atom_site_label
_atom_site_fract_x
_atom_site_fract_y
_atom_site_fract_z
Si Si1 0.295435 0.507220 0.364629
Si Si2 0.674128 0.562495 0.018495
Si Si3 0.241461 0.356047 0.624559
Si Si4 0.880253 0.012726 0.829592
Si Si5 0.988075 0.903145 0.788376
Si Si6 0.954733 0.344792 0.581027
O O1 0.268398 0.432176 0.335766
O O2 0.333456 0.538105 0.265272
O O3 0.344274 0.506564 0.467852
O O4 0.232674 0.557526 0.385030
O O5 0.663162 0.505707 0.930815
O O6 0.750000 0.588508 0.000000
O O7 0.625747 0.625747 0.000000
O O8 0.659051 0.526798 0.131563
O O9 0.178112 0.311107 0.666679
O O10 0.250000 0.355743 0.500000
O O11 0.922977 0.950225 0.785882
O O12 0.926979 0.073022 0.867761
O O13 0.054093 0.945908 0.826008
O O14 0.997288 0.878660 0.668419
O O15 0.883541 0.383541 0.571610
#
# Coordination Sequence:
#
# PCOD8313501 Si02
#       6
#    16  16  16  16  16  16
#     4  11  21  34  56  79 110 149 181 228 265 331
#     4  10  20  37  58  79 109 145 184 221 267 326
#     4   9  18  32  49  72 107 148 189 222 251 307
#     4  10  21  35  56  84 108 137 182 231 278 322
#     4   9  19  35  56  79 107 140 178 227 276 320
#     4  10  21  36  52  78 110 143 182 224 278 324
#
# _framework density 19.303757999999998
#
# number of rings (size 3 to 8) (size 9 to 14) (size 15 to 20)
#    0.000    2.167    1.667    2.500    2.333    2.833 
#    0.000    2.500    0.000    8.500    0.000    0.000 
#    0.000    4.333    0.000    0.000    0.000    0.000 
#
# Total GULP energy -1189958.686569 kJ/mol
# GULP energy per Si atom -12395.402985 kJ/mol
# Density = 1.925982 g / cm^3
# Si number density = 19.303758 Si / 1000 Ang^3
#
#
#
# Elastic Constant Matrix: (Units=GPa)
#
#
# Indices 1 2 3 4 5 6 
#
# 1 73.9534 37.0929 25.1399 0.0000 0.0000 0.0000
# 2 37.0929 73.9534 25.1399 0.0000 0.0000 0.0000
# 3 25.1399 25.1399 80.9763 0.0000 0.0000 0.0000
# 4 0.0000 0.0000 0.0000 27.6401 0.0000 0.0000
# 5 0.0000 0.0000 0.0000 0.0000 27.6401 0.0000
# 6 0.0000 0.0000 0.0000 0.0000 0.0000 22.8775
#
#
#
# Elastic Compliance Matrix: (Units=1/GPa)
#
#
# Indices 1 2 3 4 5 6 
#
# 1 0.018804 -0.008326 -0.003253 0.000000 0.000000 0.000000
# 2 -0.008326 0.018804 -0.003253 0.000000 0.000000 0.000000
# 3 -0.003253 -0.003253 0.014369 0.000000 0.000000 0.000000
# 4 0.000000 0.000000 0.000000 0.036179 0.000000 0.000000
# 5 0.000000 0.000000 0.000000 0.000000 0.036179 0.000000
# 6 0.000000 0.000000 0.000000 0.000000 0.000000 0.043711
#
#
# Mechanical properties :
#
#
# Convention : Reuss Voigt Hill
#
# Bulk Modulus (GPa) = 44.81628 44.84760 44.83194
# Shear Modulus (GPa) = 24.37270 25.06556 24.71913
#
# Velocity S-wave (km/s) = 3.55715 3.60735 3.58234
# Velocity P-wave (km/s) = 6.33544 6.37445 6.35498
#
# Compressibility (1/GPa) = 0.02231332
#
# Stress axis : x y z
#
# Youngs Moduli (GPa) = 53.18090 53.18090 69.59340
#
# Poissons Ratio (x) = 0.44276 0.22639
# Poissons Ratio (y) = 0.44276 0.22639
# Poissons Ratio (z) = 0.17300 0.17300
#
# Static dielectric constant tensor:
#      x y z
#    x 3.536590 0.000000 0.000000 
#    y 0.000000 3.536590 0.000000 
#    z 0.000000 0.000000 3.548080 
# 
# 
# High freq. dielectric constant tensor:
#      x y z
#    x 1.736480 0.000000 0.000000 
#    y 0.000000 1.736480 0.000000 
#    z 0.000000 0.000000 1.751810 
# 
# From -- ./inp_files/4107.got.cif
#   From: 2010.03.12/outbox.cif.g09.slc.cpg/sg125_3_cif.got.tgz:4107.got - 2010.04.06 16:47:52.
