data_PCOD8313473
_publ_section_title
;
Structure prediction by ZEFSAII (Michael W. Deem and Ramdas Pophale) SiO2 
 PCOD8313473
Probable space group: P 4/N B M
;
_chemical_formula_sum "Si O2"
_cell_formula_units_Z 96
_cell_length_a 23.678936
_cell_length_b 23.678936
_cell_length_c 8.784801
_cell_angle_alpha 90.000000
_cell_angle_beta 90.000000
_cell_angle_gamma 90.000000
_cell_volume 4925.567731
_symmetry_space_group_name_H-M "P 4/N B M"
_symmetry_group_IT_number 125
_space_group.IT_coordinate_system_code '2'
_symmetry_cell_setting 'tetragonal'
loop_
_space_group_symop_operation_xyz
x,y,z
1/2-y,x,z
1/2-x,1/2-y,z
y,1/2-x,z
x,1/2-y,-z
1/2-x,y,-z
y,x,-z
1/2-y,1/2-x,-z
-x,-y,-z
1/2+y,-x,-z
1/2+x,1/2+y,-z
-y,1/2+x,-z
-x,1/2+y,z
1/2+x,-y,z
-y,-x,z
1/2+y,1/2+x,z
loop_
_atom_site_type_symbol
_atom_site_label
_atom_site_fract_x
_atom_site_fract_y
_atom_site_fract_z
Si Si1 0.138299 0.179845 0.349236
Si Si2 0.011643 0.348104 0.651753
Si Si3 0.881645 0.780372 0.152232
Si Si4 0.466961 0.626643 0.328737
Si Si5 0.511636 0.263061 0.835505
Si Si6 0.046134 0.047076 0.167413
O O1 0.175867 0.175867 0.500000
O O2 0.075928 0.161060 0.398093
O O3 0.136953 0.244524 0.299244
O O4 0.158582 0.144138 0.198372
O O5 0.010537 0.401858 0.761733
O O6 0.973328 0.361200 0.506939
O O7 0.986230 0.293170 0.734032
O O8 0.948382 0.785258 0.136787
O O9 0.856681 0.750000 0.000000
O O10 0.413263 0.586738 0.300248
O O11 0.454617 0.686036 0.244536
O O12 0.525568 0.598688 0.269423
O O13 0.539327 0.250000 0.000000
O O14 0.066904 0.066904 0.000000
O O15 0.005670 0.994331 0.150131
#
# Coordination Sequence:
#
# PCOD8313473 Si02
#       6
#    16  16  16  16  16  16
#     4  11  21  33  50  70  96 133 179 229 279 326
#     4  11  21  34  56  79 108 145 186 233 285 345
#     4  10  21  35  51  72  99 137 184 232 280 326
#     4  11  22  37  57  84 120 155 191 237 291 352
#     4  10  21  37  57  81 111 148 188 231 281 343
#     4  10  20  33  51  78 113 151 189 231 280 335
#
# _framework density 19.49014
#
# number of rings (size 3 to 8) (size 9 to 14) (size 15 to 20)
#    0.000    1.500    0.000    6.500    0.000    7.000 
#    0.000    2.500    0.000    0.000    0.000    0.000 
#    0.000   18.333    0.000    0.000    0.000    0.000 
#
# Total GULP energy -1190220.618575 kJ/mol
# GULP energy per Si atom -12398.131443 kJ/mol
# Density = 1.944578 g / cm^3
# Si number density = 19.490140 Si / 1000 Ang^3
#
#
#
# Elastic Constant Matrix: (Units=GPa)
#
#
# Indices 1 2 3 4 5 6 
#
# 1 69.5485 15.1317 44.4154 0.0000 0.0000 0.0000
# 2 15.1317 69.5485 44.4154 0.0000 0.0000 0.0000
# 3 44.4154 44.4154 131.7501 0.0000 0.0000 0.0000
# 4 0.0000 0.0000 0.0000 25.4814 0.0000 0.0000
# 5 0.0000 0.0000 0.0000 0.0000 25.4814 0.0000
# 6 0.0000 0.0000 0.0000 0.0000 0.0000 21.6026
#
#
#
# Elastic Compliance Matrix: (Units=1/GPa)
#
#
# Indices 1 2 3 4 5 6 
#
# 1 0.018323 -0.000053 -0.006159 0.000000 0.000000 0.000000
# 2 -0.000053 0.018323 -0.006159 0.000000 0.000000 0.000000
# 3 -0.006159 -0.006159 0.011743 0.000000 0.000000 0.000000
# 4 0.000000 0.000000 0.000000 0.039244 0.000000 0.000000
# 5 0.000000 0.000000 0.000000 0.000000 0.039244 0.000000
# 6 0.000000 0.000000 0.000000 0.000000 0.000000 0.046291
#
#
# Mechanical properties :
#
#
# Convention : Reuss Voigt Hill
#
# Bulk Modulus (GPa) = 42.28960 53.19689 47.74325
# Shear Modulus (GPa) = 24.29606 25.63872 24.96739
#
# Velocity S-wave (km/s) = 3.53453 3.63088 3.58303
# Velocity P-wave (km/s) = 6.19695 6.70307 6.45498
#
# Compressibility (1/GPa) = 0.02364648
#
# Stress axis : x y z
#
# Youngs Moduli (GPa) = 54.57479 54.57479 85.15774
#
# Poissons Ratio (x) = 0.00290 0.52451
# Poissons Ratio (y) = 0.00290 0.52451
# Poissons Ratio (z) = 0.33614 0.33614
#
# Static dielectric constant tensor:
#      x y z
#    x 3.353520 0.000000 0.000000 
#    y 0.000000 3.353520 0.000000 
#    z 0.000000 0.000000 3.777020 
# 
# 
# High freq. dielectric constant tensor:
#      x y z
#    x 1.732330 0.000000 0.000000 
#    y 0.000000 1.732330 0.000000 
#    z 0.000000 0.000000 1.781510 
# 
# From -- ./inp_files/2863.got.cif
#   From: 2010.03.12/outbox.cif.g09.slc.cpg/sg125_2_cif.got.tgz:2863.got - 2010.04.06 16:47:52.
