data_PCOD8313239
_publ_section_title
;
Structure prediction by ZEFSAII (Michael W. Deem and Ramdas Pophale) SiO2 
 PCOD8313239
Probable space group: P 4/M C C
;
_chemical_formula_sum "Si O2"
_cell_formula_units_Z 96
_cell_length_a 23.934353
_cell_length_b 23.934353
_cell_length_c 8.928921
_cell_angle_alpha 90.000000
_cell_angle_beta 90.000000
_cell_angle_gamma 90.000000
_cell_volume 5114.961445
_symmetry_space_group_name_H-M "P 4/M C C"
_symmetry_group_IT_number 124
_symmetry_cell_setting 'tetragonal'
loop_
_space_group_symop_operation_xyz
x,y,z
-y,x,z
-x,-y,z
y,-x,z
x,-y,1/2-z
-x,y,1/2-z
y,x,1/2-z
-y,-x,1/2-z
-x,-y,-z
y,-x,-z
x,y,-z
-y,x,-z
-x,y,1/2+z
x,-y,1/2+z
-y,-x,1/2+z
y,x,1/2+z
loop_
_atom_site_type_symbol
_atom_site_label
_atom_site_fract_x
_atom_site_fract_y
_atom_site_fract_z
Si Si1 0.442644 0.637142 0.673152
Si Si2 0.559116 0.941396 0.678890
Si Si3 0.649703 0.270096 0.327363
Si Si4 0.139468 0.058725 0.322787
Si Si5 0.354669 0.845285 0.824466
Si Si6 0.228681 0.850136 0.825916
O O1 0.500000 0.654536 0.750000
O O2 0.418437 0.581564 0.750000
O O3 0.452513 0.624122 0.500000
O O4 0.401397 0.688475 0.699105
O O5 0.500000 0.923655 0.750000
O O6 0.553628 0.947542 0.500000
O O7 0.603841 0.894510 0.725790
O O8 0.579123 0.000000 0.750000
O O9 0.705556 0.294445 0.250000
O O10 0.664225 0.261770 0.500000
O O11 0.629735 0.211753 0.258287
O O12 0.083042 0.083042 0.250000
O O13 0.131576 0.053434 0.500000
O O14 0.191568 0.097320 0.276241
O O15 0.153075 0.000000 0.250000
O O16 0.292026 0.863002 0.777770
O O17 0.359837 0.834163 0.000000
O O18 0.206567 0.793434 0.750000
O O19 0.223558 0.839371 0.000000
#
# Coordination Sequence:
#
# PCOD8313239 Si02
#       6
#    16  16  16  16  16  16
#     4  10  21  37  56  79 108 142 181 224 270 318
#     4  10  21  38  58  79 107 141 177 221 270 319
#     4  10  21  36  55  80 111 145 179 220 269 318
#     4  10  20  35  54  76 104 137 174 215 260 308
#     4  10  21  36  56  82 109 140 179 220 263 318
#     4   9  19  35  53  76 107 139 171 211 259 308
#
# _framework density 18.768470000000001
#
# number of rings (size 3 to 8) (size 9 to 14) (size 15 to 20)
#    0.000    2.167    0.000    3.000    0.000    7.667 
#    0.000    5.000    0.000    0.000    0.000    0.000 
#    0.000    0.000    0.000    0.000    0.000    0.000 
#
# Total GULP energy -1190693.077701 kJ/mol
# GULP energy per Si atom -12403.052893 kJ/mol
# Density = 1.872575 g / cm^3
# Si number density = 18.768470 Si / 1000 Ang^3
#
#
#
# Elastic Constant Matrix: (Units=GPa)
#
#
# Indices 1 2 3 4 5 6 
#
# 1 126.6116 67.8739 60.6621 0.0000 0.0000 0.0000
# 2 67.8739 126.6076 60.6612 0.0000 0.0000 0.0000
# 3 60.6621 60.6612 95.5093 0.0000 0.0000 0.0000
# 4 0.0000 0.0000 0.0000 32.8531 0.0000 0.0000
# 5 0.0000 0.0000 0.0000 0.0000 32.8525 0.0000
# 6 0.0000 0.0000 0.0000 0.0000 0.0000 26.7619
#
#
#
# Elastic Compliance Matrix: (Units=1/GPa)
#
#
# Indices 1 2 3 4 5 6 
#
# 1 0.012770 -0.004255 -0.005409 0.000000 0.000000 0.000000
# 2 -0.004255 0.012771 -0.005409 0.000000 0.000000 0.000000
# 3 -0.005409 -0.005409 0.017341 0.000000 0.000000 0.000000
# 4 0.000000 0.000000 0.000000 0.030439 0.000000 0.000000
# 5 0.000000 0.000000 0.000000 0.000000 0.030439 0.000000
# 6 0.000000 0.000000 0.000000 0.000000 0.000000 0.037367
#
#
# Mechanical properties :
#
#
# Convention : Reuss Voigt Hill
#
# Bulk Modulus (GPa) = 78.50808 80.79142 79.64975
# Shear Modulus (GPa) = 28.48727 29.12893 28.80810
#
# Velocity S-wave (km/s) = 3.90016 3.94383 3.92206
# Velocity P-wave (km/s) = 7.88684 7.99239 7.93979
#
# Compressibility (1/GPa) = 0.01273754
#
# Stress axis : x y z
#
# Youngs Moduli (GPa) = 78.30556 78.30299 57.66717
#
# Poissons Ratio (x) = 0.33316 0.31191
# Poissons Ratio (y) = 0.33317 0.31191
# Poissons Ratio (z) = 0.42354 0.42353
#
# Static dielectric constant tensor:
#      x y z
#    x 3.525370 0.000000 0.000000 
#    y 0.000000 3.525350 0.000000 
#    z 0.000000 0.000000 3.570320 
# 
# 
# High freq. dielectric constant tensor:
#      x y z
#    x 1.731290 0.000000 0.000000 
#    y 0.000000 1.731290 0.000000 
#    z 0.000000 0.000000 1.737970 
# 
# From -- ./inp_files/1380.got.cif
#   From: 2010.03.12/outbox.cif.g09.slc.cpg/sg124_1_cif.got.tgz:1380.got - 2010.04.06 16:38:57.
