data_PCOD8313032
_publ_section_title
;
Structure prediction by ZEFSAII (Michael W. Deem and Ramdas Pophale) SiO2 
 PCOD8313032
Probable space group: P 4/M M M
;
_chemical_formula_sum "Si O2"
_cell_formula_units_Z 96
_cell_length_a 24.893848
_cell_length_b 24.893848
_cell_length_c 11.865180
_cell_angle_alpha 90.000000
_cell_angle_beta 90.000000
_cell_angle_gamma 90.000000
_cell_volume 7352.895570
_symmetry_space_group_name_H-M "P 4/M M M"
_symmetry_group_IT_number 123
_symmetry_cell_setting 'tetragonal'
loop_
_space_group_symop_operation_xyz
x,y,z
-y,x,z
-x,-y,z
y,-x,z
x,-y,-z
-x,y,-z
y,x,-z
-y,-x,-z
-x,-y,-z
y,-x,-z
x,y,-z
-y,x,-z
-x,y,z
x,-y,z
-y,-x,z
y,x,z
loop_
_atom_site_type_symbol
_atom_site_label
_atom_site_fract_x
_atom_site_fract_y
_atom_site_fract_z
Si Si1 0.223392 0.866938 0.762338
Si Si2 0.795344 0.295343 0.373793
Si Si3 0.061560 0.851094 0.629693
Si Si4 0.366937 0.276608 0.762339
Si Si5 0.248039 0.338442 0.000000
Si Si6 0.648907 0.438440 0.370308
Si Si7 0.838443 0.748040 0.000000
O O1 0.178888 0.821113 0.757241
O O2 0.274288 0.848530 0.688644
O O3 0.198377 0.921007 0.709727
O O4 0.243470 0.876014 0.890445
O O5 0.811341 0.311340 0.500000
O O6 0.750001 0.250000 0.372513
O O7 0.774288 0.348529 0.311357
O O8 0.070380 0.833576 0.500000
O O9 0.095620 0.904381 0.657470
O O10 0.000000 0.865127 0.655091
O O11 0.321111 0.321111 0.757244
O O12 0.376013 0.256529 0.890445
O O13 0.421006 0.301623 0.709729
O O14 0.291122 0.291122 0.000000
O O15 0.188935 0.311064 0.000000
O O16 0.666427 0.429621 0.500000
O O17 0.634874 0.500000 0.344908
O O18 0.595621 0.404380 0.342537
O O19 0.791123 0.791123 0.000000
#
# Coordination Sequence:
#
# PCOD8313032 Si02
#       7
#    16  16  16  16   8  16   8
#     4   9  15  23  35  52  72  92 116 146 184 227
#     4   9  14  19  31  51  73  92 109 136 177 226
#     4   9  17  28  40  53  70  94 127 167 205 235
#     4   9  15  23  35  52  72  92 116 146 184 227
#     4   9  14  22  35  52  73  95 114 138 174 221
#     4   9  17  28  40  53  70  94 127 167 205 235
#     4   9  14  22  35  52  73  95 114 138 174 221
#
# _framework density 13.056081000000001
#
# number of rings (size 3 to 8) (size 9 to 14) (size 15 to 20)
#    0.000    3.000    1.667    1.000    0.000    4.333 
#    0.000    2.500    0.000    0.000    0.000    0.000 
#    0.000    6.667    0.000    0.000    0.000    0.833 
#
# Total GULP energy -1189920.170127 kJ/mol
# GULP energy per Si atom -12395.001772 kJ/mol
# Density = 1.302637 g / cm^3
# Si number density = 13.056081 Si / 1000 Ang^3
#
#
#
# Elastic Constant Matrix: (Units=GPa)
#
#
# Indices 1 2 3 4 5 6 
#
# 1 45.6801 43.9610 39.6543 0.0000 0.0000 0.0000
# 2 43.9610 45.6801 39.6543 0.0000 0.0000 0.0000
# 3 39.6543 39.6543 113.3946 0.0000 0.0000 0.0000
# 4 0.0000 0.0000 0.0000 14.5405 0.0000 0.0000
# 5 0.0000 0.0000 0.0000 0.0000 14.5405 0.0000
# 6 0.0000 0.0000 0.0000 0.0000 0.0000 13.4201
#
#
#
# Elastic Compliance Matrix: (Units=1/GPa)
#
#
# Indices 1 2 3 4 5 6 
#
# 1 0.298935 -0.282781 -0.005649 0.000000 0.000000 0.000000
# 2 -0.282781 0.298935 -0.005649 0.000000 0.000000 0.000000
# 3 -0.005649 -0.005649 0.012770 0.000000 0.000000 0.000000
# 4 0.000000 0.000000 0.000000 0.068773 0.000000 0.000000
# 5 0.000000 0.000000 0.000000 0.000000 0.068773 0.000000
# 6 0.000000 0.000000 0.000000 0.000000 0.000000 0.074515
#
#
# Mechanical properties :
#
#
# Convention : Reuss Voigt Hill
#
# Bulk Modulus (GPa) = 44.48231 50.14376 47.31304
# Shear Modulus (GPa) = 3.52522 13.93255 8.72888
#
# Velocity S-wave (km/s) = 1.64497 3.27024 2.58847
# Velocity P-wave (km/s) = 6.14427 7.26286 6.72686
#
# Compressibility (1/GPa) = 0.02248084
#
# Stress axis : x y z
#
# Youngs Moduli (GPa) = 3.34521 3.34521 78.31111
#
# Poissons Ratio (x) = 0.94596 0.44237
# Poissons Ratio (y) = 0.94596 0.44237
# Poissons Ratio (z) = 0.01890 0.01890
#
# Static dielectric constant tensor:
#      x y z
#    x 2.373800 0.000000 0.000000 
#    y 0.000000 2.373800 0.000000 
#    z 0.000000 0.000000 2.889630 
# 
# 
# High freq. dielectric constant tensor:
#      x y z
#    x 1.456430 0.000000 0.000000 
#    y 0.000000 1.456430 0.000000 
#    z 0.000000 0.000000 1.510240 
# 
# From -- ./inp_files/3331.got.cif
#   From: 2010.03.12/outbox.cif.g09.slc.cpg/sg123_2_cif.got.tgz:3331.got - 2010.04.06 16:26:55.
