data_PCOD8313810
_publ_section_title
;
Structure prediction by ZEFSAII (Michael W. Deem and Ramdas Pophale) SiO2 
 PCOD8313810
Probable space group: P 4/N N C
;
_chemical_formula_sum "Si O2"
_cell_formula_units_Z 64
_cell_length_a 14.233329
_cell_length_b 14.233329
_cell_length_c 18.043418
_cell_angle_alpha 90.000000
_cell_angle_beta 90.000000
_cell_angle_gamma 90.000000
_cell_volume 3655.373730
_symmetry_space_group_name_H-M "P 4/N N C"
_symmetry_group_IT_number 126
_space_group.IT_coordinate_system_code '2'
_symmetry_cell_setting 'tetragonal'
loop_
_space_group_symop_operation_xyz
x,y,z
1/2-y,x,z
1/2-x,1/2-y,z
y,1/2-x,z
x,1/2-y,1/2-z
1/2-x,y,1/2-z
y,x,1/2-z
1/2-y,1/2-x,1/2-z
-x,-y,-z
1/2+y,-x,-z
1/2+x,1/2+y,-z
-y,1/2+x,-z
-x,1/2+y,1/2+z
1/2+x,-y,1/2+z
-y,-x,1/2+z
1/2+y,1/2+x,1/2+z
loop_
_atom_site_type_symbol
_atom_site_label
_atom_site_fract_x
_atom_site_fract_y
_atom_site_fract_z
Si Si1 0.142144 0.742480 0.337021
Si Si2 0.884990 0.478476 0.430189
Si Si3 0.421288 0.554076 0.090232
Si Si4 0.607530 0.692184 0.543553
O O1 0.250000 0.750000 0.361398
O O2 0.128702 0.750000 0.250000
O O3 0.086191 0.826030 0.375771
O O4 0.103067 0.642090 0.360168
O O5 0.921015 0.418289 0.502130
O O6 0.823103 0.566827 0.460095
O O7 0.975674 0.517189 0.386326
O O8 0.344323 0.470604 0.102652
O O9 0.699356 0.628764 0.555873
#
# Coordination Sequence:
#
# PCOD8313810 Si02
#       4
#    16  16  16  16
#     4  11  25  38  55  85 118 153 195 238 295 351
#     4   9  20  34  57  82 113 148 192 236 286 338
#     4   9  21  34  58  87 111 150 196 236 285 338
#     4   9  17  30  54  88 115 139 187 239 282 334
#
# _framework density 17.508471
#
# number of rings (size 3 to 8) (size 9 to 14) (size 15 to 20)
#    1.500    1.000    0.000    1.500    7.000    1.000 
#    0.000    0.000    0.000    0.000    0.000    1.750 
#    0.000    0.000    0.000    0.000    0.000    0.000 
#
# Total GULP energy -793097.435228 kJ/mol
# GULP energy per Si atom -12392.147425 kJ/mol
# Density = 1.746862 g / cm^3
# Si number density = 17.508471 Si / 1000 Ang^3
#
#
#
# Elastic Constant Matrix: (Units=GPa)
#
#
# Indices 1 2 3 4 5 6 
#
# 1 133.1468 72.9878 51.2592 0.0000 0.0000 0.0000
# 2 72.9878 133.1468 51.2592 0.0000 0.0000 0.0000
# 3 51.2592 51.2592 50.6549 0.0000 0.0000 0.0000
# 4 0.0000 0.0000 0.0000 16.5016 0.0000 0.0000
# 5 0.0000 0.0000 0.0000 0.0000 16.5016 0.0000
# 6 0.0000 0.0000 0.0000 0.0000 0.0000 31.9805
#
#
#
# Elastic Compliance Matrix: (Units=1/GPa)
#
#
# Indices 1 2 3 4 5 6 
#
# 1 0.013194 -0.003428 -0.009883 0.000000 0.000000 0.000000
# 2 -0.003428 0.013194 -0.009883 0.000000 0.000000 0.000000
# 3 -0.009883 -0.009883 0.039743 0.000000 0.000000 0.000000
# 4 0.000000 0.000000 0.000000 0.060600 0.000000 0.000000
# 5 0.000000 0.000000 0.000000 0.000000 0.060600 0.000000
# 6 0.000000 0.000000 0.000000 0.000000 0.000000 0.031269
#
#
# Mechanical properties :
#
#
# Convention : Reuss Voigt Hill
#
# Bulk Modulus (GPa) = 50.64780 74.21791 62.43285
# Shear Modulus (GPa) = 18.41147 22.42624 20.41886
#
# Velocity S-wave (km/s) = 3.24632 3.58282 3.41871
# Velocity P-wave (km/s) = 6.56063 7.71992 7.16376
#
# Compressibility (1/GPa) = 0.01974419
#
# Stress axis : x y z
#
# Youngs Moduli (GPa) = 75.78949 75.78949 25.16178
#
# Poissons Ratio (x) = 0.25982 0.24867
# Poissons Ratio (y) = 0.25982 0.24867
# Poissons Ratio (z) = 0.74901 0.74901
#
# Static dielectric constant tensor:
#      x y z
#    x 3.263800 0.000000 0.000000 
#    y 0.000000 3.263800 0.000000 
#    z 0.000000 0.000000 2.829870 
# 
# 
# High freq. dielectric constant tensor:
#      x y z
#    x 1.688150 0.000000 0.000000 
#    y 0.000000 1.688150 0.000000 
#    z 0.000000 0.000000 1.628230 
# 
# From -- ./inp_files/4247.got.cif
#   From: 2010.03.12/outbox.cif.g09.slc.cpg/sg126_3_cif.got.tgz:4247.got - 2010.04.06 16:55:23.
