data_PCOD8313874
_publ_section_title
;
Structure prediction by ZEFSAII (Michael W. Deem and Ramdas Pophale) SiO2 
 PCOD8313874
Probable space group: P 4/M B M
;
_chemical_formula_sum "Si O2"
_cell_formula_units_Z 88
_cell_length_a 16.628860
_cell_length_b 16.628860
_cell_length_c 17.512577
_cell_angle_alpha 90.000000
_cell_angle_beta 90.000000
_cell_angle_gamma 90.000000
_cell_volume 4842.560015
_symmetry_space_group_name_H-M "P 4/M B M"
_symmetry_group_IT_number 127
_symmetry_cell_setting 'tetragonal'
loop_
_space_group_symop_operation_xyz
x,y,z
-y,x,z
-x,-y,z
y,-x,z
1/2+x,1/2-y,-z
1/2-x,1/2+y,-z
1/2+y,1/2+x,-z
1/2-y,1/2-x,-z
-x,-y,-z
y,-x,-z
x,y,-z
-y,x,-z
1/2-x,1/2+y,z
1/2+x,1/2-y,z
1/2-y,1/2-x,z
1/2+y,1/2+x,z
loop_
_atom_site_type_symbol
_atom_site_label
_atom_site_fract_x
_atom_site_fract_y
_atom_site_fract_z
Si Si1 0.880547 0.052241 0.910136
Si Si2 0.426852 0.792782 0.141004
Si Si3 0.910306 0.282146 0.412331
Si Si4 0.630062 0.996161 0.000000
Si Si5 0.500803 0.870807 0.714955
Si Si6 0.391060 0.560431 0.409536
O O1 0.803044 0.088471 0.865637
O O2 0.958878 0.104561 0.887384
O O3 0.865037 0.059383 0.000000
O O4 0.343057 0.843057 0.134538
O O5 0.472185 0.810084 0.219875
O O6 0.489179 0.816506 0.074606
O O7 0.940250 0.285758 0.500000
O O8 0.824709 0.324709 0.402134
O O9 0.978707 0.323085 0.361801
O O10 0.897051 0.190991 0.383216
O O11 0.556103 0.056103 0.000000
O O12 0.594919 0.905082 0.000000
O O13 0.577447 0.922554 0.744615
O O14 0.429207 0.929207 0.691239
O O15 0.391934 0.468434 0.377680
O O16 0.395899 0.558304 0.500000
#
# Coordination Sequence:
#
# PCOD8313874 Si02
#       6
#    16  16  16   8  16  16
#     4   9  18  34  55  75 101 139 174 200 238 297
#     4  10  18  31  52  75 101 129 163 210 252 288
#     4   9  17  30  49  72  97 127 166 211 254 297
#     4   9  16  26  44  71  98 124 155 192 238 292
#     4   9  18  32  49  70 100 137 169 202 253 307
#     4   8  14  27  48  71  94 122 157 197 244 299
#
# _framework density 18.172205999999999
#
# number of rings (size 3 to 8) (size 9 to 14) (size 15 to 20)
#    0.000    3.000    0.909    1.636    0.000    2.545 
#    0.000    6.364    0.000    9.818    0.000    0.000 
#    0.000    0.000    0.000    0.000    0.000    0.000 
#
# Total GULP energy -1090638.429622 kJ/mol
# GULP energy per Si atom -12393.618518 kJ/mol
# Density = 1.813084 g / cm^3
# Si number density = 18.172206 Si / 1000 Ang^3
#
#
#
# Elastic Constant Matrix: (Units=GPa)
#
#
# Indices 1 2 3 4 5 6 
#
# 1 111.6912 47.7232 35.6182 0.0000 0.0000 0.0000
# 2 47.7232 111.6913 35.6182 0.0000 0.0000 0.0000
# 3 35.6182 35.6182 56.8316 0.0000 0.0000 0.0000
# 4 0.0000 0.0000 0.0000 17.7878 0.0000 0.0000
# 5 0.0000 0.0000 0.0000 0.0000 17.7878 0.0000
# 6 0.0000 0.0000 0.0000 0.0000 0.0000 16.6911
#
#
#
# Elastic Compliance Matrix: (Units=1/GPa)
#
#
# Indices 1 2 3 4 5 6 
#
# 1 0.012173 -0.003460 -0.005461 0.000000 0.000000 0.000000
# 2 -0.003460 0.012173 -0.005461 0.000000 0.000000 0.000000
# 3 -0.005461 -0.005461 0.024441 0.000000 0.000000 0.000000
# 4 0.000000 0.000000 0.000000 0.056218 0.000000 0.000000
# 5 0.000000 0.000000 0.000000 0.000000 0.056218 0.000000
# 6 0.000000 0.000000 0.000000 0.000000 0.000000 0.059912
#
#
# Mechanical properties :
#
#
# Convention : Reuss Voigt Hill
#
# Bulk Modulus (GPa) = 49.94044 57.57038 53.75541
# Shear Modulus (GPa) = 19.48762 21.20364 20.34563
#
# Velocity S-wave (km/s) = 3.27828 3.41958 3.34967
# Velocity P-wave (km/s) = 6.47078 6.88045 6.67875
#
# Compressibility (1/GPa) = 0.02002385
#
# Stress axis : x y z
#
# Youngs Moduli (GPa) = 82.14892 82.14905 40.91511
#
# Poissons Ratio (x) = 0.28422 0.22343
# Poissons Ratio (y) = 0.28422 0.22343
# Poissons Ratio (z) = 0.44860 0.44860
#
# Static dielectric constant tensor:
#      x y z
#    x 3.428390 0.000000 0.000000 
#    y 0.000000 3.428390 0.000000 
#    z 0.000000 0.000000 3.131240 
# 
# 
# High freq. dielectric constant tensor:
#      x y z
#    x 1.696200 0.000000 0.000000 
#    y 0.000000 1.696200 0.000000 
#    z 0.000000 0.000000 1.682340 
# 
# From -- ./inp_files/4398.got.cif
#   From: 2010.03.12/outbox.cif.g09.slc.cpg/sg127_3_cif.got.tgz:4398.got - 2010.04.06 17:03:15.
