data_PCOD8313506
_publ_section_title
;
Structure prediction by ZEFSAII (Michael W. Deem and Ramdas Pophale) SiO2 
 PCOD8313506
Probable space group: P 4/N B M
;
_chemical_formula_sum "Si O2"
_cell_formula_units_Z 128
_cell_length_a 23.544606
_cell_length_b 23.544606
_cell_length_c 12.050894
_cell_angle_alpha 90.000000
_cell_angle_beta 90.000000
_cell_angle_gamma 90.000000
_cell_volume 6680.394671
_symmetry_space_group_name_H-M "P 4/N B M"
_symmetry_group_IT_number 125
_space_group.IT_coordinate_system_code '2'
_symmetry_cell_setting 'tetragonal'
loop_
_space_group_symop_operation_xyz
x,y,z
1/2-y,x,z
1/2-x,1/2-y,z
y,1/2-x,z
x,1/2-y,-z
1/2-x,y,-z
y,x,-z
1/2-y,1/2-x,-z
-x,-y,-z
1/2+y,-x,-z
1/2+x,1/2+y,-z
-y,1/2+x,-z
-x,1/2+y,z
1/2+x,-y,z
-y,-x,z
1/2+y,1/2+x,z
loop_
_atom_site_type_symbol
_atom_site_label
_atom_site_fract_x
_atom_site_fract_y
_atom_site_fract_z
Si Si1 0.883398 0.806934 0.081816
Si Si2 0.816387 0.409951 0.994096
Si Si3 0.385588 0.022709 0.401593
Si Si4 0.997244 0.586017 0.645563
Si Si5 0.316486 0.501967 0.177122
Si Si6 0.301166 0.377439 0.565874
Si Si7 0.806618 0.621586 0.807232
Si Si8 0.493420 0.686611 0.792557
O O1 0.857117 0.832183 0.195720
O O2 0.869899 0.738158 0.087658
O O3 0.951043 0.814797 0.086127
O O4 0.849961 0.849961 0.000000
O O5 0.852342 0.352342 0.985297
O O6 0.830389 0.449192 0.887850
O O7 0.750000 0.393860 0.000000
O O8 0.833679 0.442661 0.106762
O O9 0.444919 0.041922 0.346641
O O10 0.394471 0.991546 0.518757
O O11 0.353706 0.080968 0.426053
O O12 0.349957 0.980885 0.319513
O O13 0.053067 0.553067 0.686812
O O14 0.988786 0.639860 0.725048
O O15 0.254157 0.509228 0.231841
O O16 0.250000 0.406741 0.500000
O O17 0.320471 0.320471 0.500000
O O18 0.276302 0.367883 0.689671
O O19 0.830303 0.557887 0.825481
#
# Coordination Sequence:
#
# PCOD8313506 Si02
#       8
#    16  16  16  16  16  16  16  16
#     4  11  21  35  53  73 103 142 187 235 282 324
#     4  10  21  39  61  87 114 140 174 218 272 335
#     4  10  21  34  55  77 111 145 190 222 276 327
#     4  11  22  36  54  80 115 149 182 228 275 331
#     4  10  21  36  58  82 109 143 187 224 276 327
#     4  11  21  33  52  74 101 137 181 232 280 324
#     4  10  21  34  52  74 105 138 188 234 278 325
#     4   9  20  36  57  82 107 144 180 230 272 325
#
# _framework density 19.160543000000001
#
# number of rings (size 3 to 8) (size 9 to 14) (size 15 to 20)
#    0.000    1.750    1.250    4.500    5.250    3.500 
#    0.000    1.875    0.000    3.000    0.000    0.000 
#    0.000    0.000    0.000    6.500    0.000    0.000 
#
# Total GULP energy -1585978.860174 kJ/mol
# GULP energy per Si atom -12390.459845 kJ/mol
# Density = 1.911693 g / cm^3
# Si number density = 19.160543 Si / 1000 Ang^3
#
#
#
# Elastic Constant Matrix: (Units=GPa)
#
#
# Indices 1 2 3 4 5 6 
#
# 1 75.5158 41.0287 33.1635 0.0000 0.0000 0.0000
# 2 41.0287 75.5158 33.1635 0.0000 0.0000 0.0000
# 3 33.1635 33.1635 98.7587 0.0000 0.0000 0.0000
# 4 0.0000 0.0000 0.0000 26.4055 0.0000 0.0000
# 5 0.0000 0.0000 0.0000 0.0000 26.4055 0.0000
# 6 0.0000 0.0000 0.0000 0.0000 0.0000 26.8800
#
#
#
# Elastic Compliance Matrix: (Units=1/GPa)
#
#
# Indices 1 2 3 4 5 6 
#
# 1 0.019802 -0.009194 -0.003562 0.000000 0.000000 0.000000
# 2 -0.009194 0.019802 -0.003562 0.000000 0.000000 0.000000
# 3 -0.003562 -0.003562 0.012518 0.000000 0.000000 0.000000
# 4 0.000000 0.000000 0.000000 0.037871 0.000000 0.000000
# 5 0.000000 0.000000 0.000000 0.000000 0.037871 0.000000
# 6 0.000000 0.000000 0.000000 0.000000 0.000000 0.037202
#
#
# Mechanical properties :
#
#
# Convention : Reuss Voigt Hill
#
# Bulk Modulus (GPa) = 51.32159 51.61127 51.46643
# Shear Modulus (GPa) = 24.48601 25.43383 24.95992
#
# Velocity S-wave (km/s) = 3.57871 3.64731 3.61317
# Velocity P-wave (km/s) = 6.62717 6.68819 6.65775
#
# Compressibility (1/GPa) = 0.01948498
#
# Stress axis : x y z
#
# Youngs Moduli (GPa) = 50.49995 50.49995 79.88489
#
# Poissons Ratio (x) = 0.46431 0.28456
# Poissons Ratio (y) = 0.46431 0.28456
# Poissons Ratio (z) = 0.17988 0.17988
#
# Static dielectric constant tensor:
#      x y z
#    x 3.543280 0.000000 0.000000 
#    y 0.000000 3.543280 0.000000 
#    z 0.000000 0.000000 4.157220 
# 
# 
# High freq. dielectric constant tensor:
#      x y z
#    x 1.728590 0.000000 0.000000 
#    y 0.000000 1.728590 0.000000 
#    z 0.000000 0.000000 1.765590 
# 
# From -- ./inp_files/4379.got.cif
#   From: 2010.03.12/outbox.cif.g09.slc.cpg/sg125_3_cif.got.tgz:4379.got - 2010.04.06 16:47:52.
