data_PCOD8313811
_publ_section_title
;
Structure prediction by ZEFSAII (Michael W. Deem and Ramdas Pophale) SiO2 
 PCOD8313811
Probable space group: P 4/N N C
;
_chemical_formula_sum "Si O2"
_cell_formula_units_Z 96
_cell_length_a 14.993586
_cell_length_b 14.993586
_cell_length_c 20.280498
_cell_angle_alpha 90.000000
_cell_angle_beta 90.000000
_cell_angle_gamma 90.000000
_cell_volume 4559.210511
_symmetry_space_group_name_H-M "P 4/N N C"
_symmetry_group_IT_number 126
_space_group.IT_coordinate_system_code '2'
_symmetry_cell_setting 'tetragonal'
loop_
_space_group_symop_operation_xyz
x,y,z
1/2-y,x,z
1/2-x,1/2-y,z
y,1/2-x,z
x,1/2-y,1/2-z
1/2-x,y,1/2-z
y,x,1/2-z
1/2-y,1/2-x,1/2-z
-x,-y,-z
1/2+y,-x,-z
1/2+x,1/2+y,-z
-y,1/2+x,-z
-x,1/2+y,1/2+z
1/2+x,-y,1/2+z
-y,-x,1/2+z
1/2+y,1/2+x,1/2+z
loop_
_atom_site_type_symbol
_atom_site_label
_atom_site_fract_x
_atom_site_fract_y
_atom_site_fract_z
Si Si1 0.351819 0.854763 0.259385
Si Si2 0.356637 0.650011 0.990426
Si Si3 0.545973 0.407089 0.387431
Si Si4 0.300900 0.114427 0.433029
Si Si5 0.594771 0.044719 0.365019
Si Si6 0.799978 0.614413 0.413519
O O1 0.364245 0.750000 0.250000
O O2 0.250000 0.883530 0.250000
O O3 0.382928 0.882482 0.331877
O O4 0.412676 0.905912 0.206977
O O5 0.416078 0.598668 0.043924
O O6 0.254336 0.625337 0.003195
O O7 0.387427 0.622555 0.917743
O O8 0.469411 0.331407 0.389718
O O9 0.500401 0.500681 0.375761
O O10 0.363271 0.198867 0.415849
O O11 0.310943 0.089983 0.509792
O O12 0.671475 0.969665 0.369934
O O13 0.862798 0.698238 0.396199
#
# Coordination Sequence:
#
# PCOD8313811 Si02
#       6
#    16  16  16  16  16  16
#     4  11  27  50  68  88 129 181 218 274 340 393
#     4  11  25  42  66 101 136 174 218 273 327 386
#     4  12  25  40  69 100 128 169 226 272 330 389
#     4   9  20  38  64 101 140 173 205 262 339 397
#     4  12  25  40  69 100 128 169 226 272 330 389
#     4   9  20  38  64 101 140 173 205 262 339 397
#
# _framework density 21.056277000000001
#
# number of rings (size 3 to 8) (size 9 to 14) (size 15 to 20)
#    0.000    1.333    1.667    4.000    9.333    2.667 
#    0.000    0.000    0.000    0.000    0.000    0.000 
#    0.000    0.000    0.000    0.000    0.000    0.000 
#
# Total GULP energy -1191037.613559 kJ/mol
# GULP energy per Si atom -12406.641808 kJ/mol
# Density = 2.100835 g / cm^3
# Si number density = 21.056277 Si / 1000 Ang^3
#
#
#
# Elastic Constant Matrix: (Units=GPa)
#
#
# Indices 1 2 3 4 5 6 
#
# 1 83.5111 28.0492 20.8368 0.0000 0.0000 0.0000
# 2 28.0492 83.5111 20.8368 0.0000 0.0000 0.0000
# 3 20.8368 20.8368 67.5907 0.0000 0.0000 0.0000
# 4 0.0000 0.0000 0.0000 27.8975 0.0000 0.0000
# 5 0.0000 0.0000 0.0000 0.0000 27.8975 0.0000
# 6 0.0000 0.0000 0.0000 0.0000 0.0000 22.3282
#
#
#
# Elastic Compliance Matrix: (Units=1/GPa)
#
#
# Indices 1 2 3 4 5 6 
#
# 1 0.014080 -0.003950 -0.003123 0.000000 0.000000 0.000000
# 2 -0.003950 0.014080 -0.003123 0.000000 0.000000 0.000000
# 3 -0.003123 -0.003123 0.016720 0.000000 0.000000 0.000000
# 4 0.000000 0.000000 0.000000 0.035845 0.000000 0.000000
# 5 0.000000 0.000000 0.000000 0.000000 0.035845 0.000000
# 6 0.000000 0.000000 0.000000 0.000000 0.000000 0.044786
#
#
# Mechanical properties :
#
#
# Convention : Reuss Voigt Hill
#
# Bulk Modulus (GPa) = 40.83428 41.56207 41.19817
# Shear Modulus (GPa) = 26.32777 26.61733 26.47255
#
# Velocity S-wave (km/s) = 3.53987 3.55928 3.54959
# Velocity P-wave (km/s) = 6.01187 6.05580 6.03388
#
# Compressibility (1/GPa) = 0.02448923
#
# Stress axis : x y z
#
# Youngs Moduli (GPa) = 71.02085 71.02085 59.80708
#
# Poissons Ratio (x) = 0.28053 0.18678
# Poissons Ratio (y) = 0.28053 0.18678
# Poissons Ratio (z) = 0.22180 0.22180
#
# Static dielectric constant tensor:
#      x y z
#    x 3.922820 0.000000 0.000000 
#    y 0.000000 3.922820 0.000000 
#    z 0.000000 0.000000 3.683330 
# 
# 
# High freq. dielectric constant tensor:
#      x y z
#    x 1.840400 0.000000 0.000000 
#    y 0.000000 1.840400 0.000000 
#    z 0.000000 0.000000 1.802070 
# 
# From -- ./inp_files/5217.got.cif
#   From: 2010.03.12/outbox.cif.g09.slc.cpg/sg126_3_cif.got.tgz:5217.got - 2010.04.06 16:55:23.
