data_PCOD8313313
_publ_section_title
;
Structure prediction by ZEFSAII (Michael W. Deem and Ramdas Pophale) SiO2 
 PCOD8313313
Probable space group: P 4/M C C
;
_chemical_formula_sum "Si O2"
_cell_formula_units_Z 112
_cell_length_a 14.782349
_cell_length_b 14.782349
_cell_length_c 22.823720
_cell_angle_alpha 90.000000
_cell_angle_beta 90.000000
_cell_angle_gamma 90.000000
_cell_volume 4987.390040
_symmetry_space_group_name_H-M "P 4/M C C"
_symmetry_group_IT_number 124
_symmetry_cell_setting 'tetragonal'
loop_
_space_group_symop_operation_xyz
x,y,z
-y,x,z
-x,-y,z
y,-x,z
x,-y,1/2-z
-x,y,1/2-z
y,x,1/2-z
-y,-x,1/2-z
-x,-y,-z
y,-x,-z
x,y,-z
-y,x,-z
-x,y,1/2+z
x,-y,1/2+z
-y,-x,1/2+z
y,x,1/2+z
loop_
_atom_site_type_symbol
_atom_site_label
_atom_site_fract_x
_atom_site_fract_y
_atom_site_fract_z
Si Si1 0.603125 0.264123 0.564927
Si Si2 0.082755 0.544891 0.104746
Si Si3 0.668041 0.082110 0.291782
Si Si4 0.907212 0.885444 0.931491
Si Si5 0.773376 0.769380 0.854726
Si Si6 0.823736 0.577917 0.194696
Si Si7 0.353549 0.498732 0.841137
O O1 0.624384 0.301291 0.500000
O O2 0.575747 0.158920 0.559491
O O3 0.689874 0.269562 0.606890
O O4 0.517327 0.319864 0.591796
O O5 0.049692 0.628870 0.145623
O O6 0.112932 0.462507 0.145635
O O7 0.000000 0.500000 0.068650
O O8 0.745615 0.155289 0.306475
O O9 0.582326 0.130422 0.259092
O O10 0.704371 0.000000 0.250000
O O11 0.850504 0.811647 0.895948
O O12 0.013111 0.874422 0.915610
O O13 0.891438 0.867197 0.000000
O O14 0.809962 0.683582 0.820267
O O15 0.733312 0.516272 0.199396
O O16 0.412178 0.410508 0.827469
#
# Coordination Sequence:
#
# PCOD8313313 Si02
#       7
#    16  16  16  16  16  16  16
#     4  10  22  39  61  91 125 161 202 254 315 372
#     4  10  21  39  62  87 121 159 207 253 299 365
#     4  11  23  39  64  92 121 166 206 245 312 375
#     4   9  20  40  66  93 123 167 215 256 310 378
#     4  11  23  39  61  93 130 159 199 265 310 370
#     4  11  22  39  61  92 123 159 209 257 303 364
#     4  10  21  42  65  88 121 162 209 259 308 365
#
# _framework density 22.456634000000001
#
# number of rings (size 3 to 8) (size 9 to 14) (size 15 to 20)
#    0.000    1.714    2.857    1.714    2.000    0.857 
#    2.571    1.429    0.000    0.000    0.000    0.000 
#    0.000    0.000    0.000    0.000    0.000    0.000 
#
# Total GULP energy -1387662.047721 kJ/mol
# GULP energy per Si atom -12389.839712 kJ/mol
# Density = 2.240552 g / cm^3
# Si number density = 22.456634 Si / 1000 Ang^3
#
#
#
# Elastic Constant Matrix: (Units=GPa)
#
#
# Indices 1 2 3 4 5 6 
#
# 1 71.2159 6.6380 7.6369 0.0000 0.0000 0.0000
# 2 6.6380 71.2159 7.6369 0.0000 0.0000 0.0000
# 3 7.6369 7.6369 72.7269 0.0000 0.0000 0.0000
# 4 0.0000 0.0000 0.0000 21.9946 0.0000 0.0000
# 5 0.0000 0.0000 0.0000 0.0000 21.9946 0.0000
# 6 0.0000 0.0000 0.0000 0.0000 0.0000 39.2018
#
#
#
# Elastic Compliance Matrix: (Units=1/GPa)
#
#
# Indices 1 2 3 4 5 6 
#
# 1 0.014300 -0.001185 -0.001377 0.000000 0.000000 0.000000
# 2 -0.001185 0.014300 -0.001377 0.000000 0.000000 0.000000
# 3 -0.001377 -0.001377 0.014039 0.000000 0.000000 0.000000
# 4 0.000000 0.000000 0.000000 0.045466 0.000000 0.000000
# 5 0.000000 0.000000 0.000000 0.000000 0.045466 0.000000
# 6 0.000000 0.000000 0.000000 0.000000 0.000000 0.025509
#
#
# Mechanical properties :
#
#
# Convention : Reuss Voigt Hill
#
# Bulk Modulus (GPa) = 28.76853 28.77580 28.77217
# Shear Modulus (GPa) = 28.00412 29.52136 28.76274
#
# Velocity S-wave (km/s) = 3.53516 3.62967 3.58273
# Velocity P-wave (km/s) = 5.43155 5.51432 5.47309
#
# Compressibility (1/GPa) = 0.03476020
#
# Stress axis : x y z
#
# Youngs Moduli (GPa) = 69.93024 69.93024 71.22869
#
# Poissons Ratio (x) = 0.08288 0.09809
# Poissons Ratio (y) = 0.08288 0.09809
# Poissons Ratio (z) = 0.09630 0.09630
#
# Static dielectric constant tensor:
#      x y z
#    x 4.164870 0.000000 0.000000 
#    y 0.000000 4.164870 0.000000 
#    z 0.000000 0.000000 3.678930 
# 
# 
# High freq. dielectric constant tensor:
#      x y z
#    x 1.890690 0.000000 0.000000 
#    y 0.000000 1.890690 0.000000 
#    z 0.000000 0.000000 1.865860 
# 
# From -- ./inp_files/6073.got.cif
#   From: 2010.03.12/outbox.cif.g09.slc.cpg/sg124_4_cif.got.tgz:6073.got - 2010.04.06 16:38:57.
