data_PCOD8313142
_publ_section_title
;
Structure prediction by ZEFSAII (Michael W. Deem and Ramdas Pophale) SiO2 
 PCOD8313142
Probable space group: P 4/M C C
;
_chemical_formula_sum "Si O2"
_cell_formula_units_Z 96
_cell_length_a 18.004213
_cell_length_b 18.004213
_cell_length_c 16.954532
_cell_angle_alpha 90.000000
_cell_angle_beta 90.000000
_cell_angle_gamma 90.000000
_cell_volume 5495.840129
_symmetry_space_group_name_H-M "P 4/M C C"
_symmetry_group_IT_number 124
_symmetry_cell_setting 'tetragonal'
loop_
_space_group_symop_operation_xyz
x,y,z
-y,x,z
-x,-y,z
y,-x,z
x,-y,1/2-z
-x,y,1/2-z
y,x,1/2-z
-y,-x,1/2-z
-x,-y,-z
y,-x,-z
x,y,-z
-y,x,-z
-x,y,1/2+z
x,-y,1/2+z
-y,-x,1/2+z
y,x,1/2+z
loop_
_atom_site_type_symbol
_atom_site_label
_atom_site_fract_x
_atom_site_fract_y
_atom_site_fract_z
Si Si1 0.433690 0.398411 0.089253
Si Si2 0.863971 0.514651 0.590875
Si Si3 0.731290 0.565823 0.305540
Si Si4 0.902007 0.656954 0.910294
Si Si5 0.638389 0.955452 0.826618
Si Si6 0.821045 0.700843 0.239376
O O1 0.521754 0.398793 0.105106
O O2 0.398071 0.339018 0.148985
O O3 0.416940 0.373653 0.000000
O O4 0.858062 0.537541 0.500000
O O5 0.784864 0.528337 0.630367
O O6 0.889705 0.430496 0.601346
O O7 0.924576 0.565056 0.632948
O O8 0.702993 0.500000 0.250000
O O9 0.768669 0.630558 0.255240
O O10 0.846729 0.699927 0.851710
O O11 0.987242 0.677223 0.887514
O O12 0.885851 0.682125 0.000000
O O13 0.696094 0.890722 0.800162
O O14 0.611168 0.000000 0.750000
O O15 0.778161 0.778161 0.250000
#
# Coordination Sequence:
#
# PCOD8313142 Si02
#       6
#    16  16  16  16  16  16
#     4   9  20  37  52  66  85 117 173 243 298 329
#     4  10  19  31  48  76 103 129 167 212 260 312
#     4  11  21  32  49  70  97 134 176 220 266 316
#     4  10  19  34  54  77 103 139 175 213 259 312
#     4   9  19  32  53  76 104 135 170 211 252 306
#     4  10  22  37  50  75 109 143 174 213 262 317
#
# _framework density 17.467758
#
# number of rings (size 3 to 8) (size 9 to 14) (size 15 to 20)
#    0.000    2.167    1.667    2.000    2.333    3.333 
#    0.000    5.833    0.000    0.000    0.000    0.000 
#    0.000   27.000    0.000   13.500    0.000    0.000 
#
# Total GULP energy -1190316.759246 kJ/mol
# GULP energy per Si atom -12399.132909 kJ/mol
# Density = 1.742800 g / cm^3
# Si number density = 17.467758 Si / 1000 Ang^3
#
#
#
# Elastic Constant Matrix: (Units=GPa)
#
#
# Indices 1 2 3 4 5 6 
#
# 1 67.8762 16.7566 40.2012 0.0000 0.0000 0.0000
# 2 16.7566 67.8762 40.2012 0.0000 0.0000 0.0000
# 3 40.2012 40.2012 114.2763 0.0000 0.0000 0.0000
# 4 0.0000 0.0000 0.0000 19.9185 0.0000 0.0000
# 5 0.0000 0.0000 0.0000 0.0000 19.9185 0.0000
# 6 0.0000 0.0000 0.0000 0.0000 0.0000 18.2185
#
#
#
# Elastic Compliance Matrix: (Units=1/GPa)
#
#
# Indices 1 2 3 4 5 6 
#
# 1 0.018654 -0.000908 -0.006243 0.000000 0.000000 0.000000
# 2 -0.000908 0.018654 -0.006243 0.000000 0.000000 0.000000
# 3 -0.006243 -0.006243 0.013143 0.000000 0.000000 0.000000
# 4 0.000000 0.000000 0.000000 0.050205 0.000000 0.000000
# 5 0.000000 0.000000 0.000000 0.000000 0.050205 0.000000
# 6 0.000000 0.000000 0.000000 0.000000 0.000000 0.054889
#
#
# Mechanical properties :
#
#
# Convention : Reuss Voigt Hill
#
# Bulk Modulus (GPa) = 42.25769 49.37187 45.81478
# Shear Modulus (GPa) = 20.79640 21.80242 21.29941
#
# Velocity S-wave (km/s) = 3.45419 3.53675 3.49572
# Velocity P-wave (km/s) = 6.33663 6.70851 6.52522
#
# Compressibility (1/GPa) = 0.02366433
#
# Stress axis : x y z
#
# Youngs Moduli (GPa) = 53.60667 53.60667 76.08455
#
# Poissons Ratio (x) = 0.04865 0.47501
# Poissons Ratio (y) = 0.04865 0.47501
# Poissons Ratio (z) = 0.33467 0.33467
#
# Static dielectric constant tensor:
#      x y z
#    x 3.129690 0.000000 0.000000 
#    y 0.000000 3.129690 0.000000 
#    z 0.000000 0.000000 3.488690 
# 
# 
# High freq. dielectric constant tensor:
#      x y z
#    x 1.650230 0.000000 0.000000 
#    y 0.000000 1.650230 0.000000 
#    z 0.000000 0.000000 1.693180 
# 
# From -- ./inp_files/4255.got.cif
#   From: 2010.03.12/outbox.cif.g09.slc.cpg/sg124_3_cif.got.tgz:4255.got - 2010.04.06 16:38:57.
