data_PCOD8313098
_publ_section_title
;
Structure prediction by ZEFSAII (Michael W. Deem and Ramdas Pophale) SiO2 
 PCOD8313098
Probable space group: P 4/M C C
;
_chemical_formula_sum "Si O2"
_cell_formula_units_Z 128
_cell_length_a 21.319562
_cell_length_b 21.319562
_cell_length_c 17.555734
_cell_angle_alpha 90.000000
_cell_angle_beta 90.000000
_cell_angle_gamma 90.000000
_cell_volume 7979.497593
_symmetry_space_group_name_H-M "P 4/M C C"
_symmetry_group_IT_number 124
_symmetry_cell_setting 'tetragonal'
loop_
_space_group_symop_operation_xyz
x,y,z
-y,x,z
-x,-y,z
y,-x,z
x,-y,1/2-z
-x,y,1/2-z
y,x,1/2-z
-y,-x,1/2-z
-x,-y,-z
y,-x,-z
x,y,-z
-y,x,-z
-x,y,1/2+z
x,-y,1/2+z
-y,-x,1/2+z
y,x,1/2+z
loop_
_atom_site_type_symbol
_atom_site_label
_atom_site_fract_x
_atom_site_fract_y
_atom_site_fract_z
Si Si1 0.188001 0.771578 0.414374
Si Si2 0.360899 0.042134 0.181564
Si Si3 0.566654 0.141169 0.777847
Si Si4 0.779085 0.311372 0.716937
Si Si5 0.861796 0.959596 0.178284
Si Si6 0.249863 0.125332 0.172430
Si Si7 0.558454 0.954855 0.588755
Si Si8 0.146749 0.926324 0.088083
O O1 0.195716 0.749737 0.500000
O O2 0.213116 0.710839 0.369730
O O3 0.229067 0.834035 0.400137
O O4 0.116775 0.792414 0.395185
O O5 0.414210 0.087436 0.217402
O O6 0.307041 0.083333 0.143771
O O7 0.333328 0.000000 0.250000
O O8 0.383321 0.997757 0.113372
O O9 0.500000 0.168851 0.750000
O O10 0.615263 0.200733 0.777904
O O11 0.558640 0.109156 0.861312
O O12 0.709014 0.290986 0.750000
O O13 0.828936 0.269149 0.760396
O O14 0.804928 0.916855 0.208133
O O15 0.913312 0.913724 0.141725
O O16 0.887769 0.000000 0.250000
O O17 0.834521 0.003209 0.110477
O O18 0.563138 0.935661 0.500000
O O19 0.500000 0.000000 0.605474
O O20 0.126894 0.920518 0.000000
#
# Coordination Sequence:
#
# PCOD8313098 Si02
#       8
#    16  16  16  16  16  16  16  16
#     4   9  18  32  48  65  89 115 142 184 238 278
#     4   9  17  28  46  65  91 125 160 191 227 274
#     4  10  18  31  50  68  92 130 164 191 233 284
#     4   9  18  33  51  70  92 117 153 195 225 263
#     4  11  20  32  48  62  77  98 135 179 227 278
#     4   9  18  31  47  68  85 111 147 187 228 273
#     4  10  19  29  42  65  98 130 159 197 233 273
#     4  10  21  34  46  60  81 106 130 172 230 288
#
# _framework density 16.04111
#
# number of rings (size 3 to 8) (size 9 to 14) (size 15 to 20)
#    0.000    2.375    1.250    1.875    0.000    5.750 
#    0.000    2.500    0.000    0.000    0.000    0.000 
#    0.000    0.250    0.000    0.000    0.000    0.000 
#
# Total GULP energy -1586059.970566 kJ/mol
# GULP energy per Si atom -12391.093520 kJ/mol
# Density = 1.600460 g / cm^3
# Si number density = 16.041110 Si / 1000 Ang^3
#
#
#
# Elastic Constant Matrix: (Units=GPa)
#
#
# Indices 1 2 3 4 5 6 
#
# 1 67.9065 29.3071 25.2282 0.0000 0.0000 0.0000
# 2 29.3071 67.9057 25.2283 0.0000 0.0000 0.0000
# 3 25.2282 25.2283 68.8546 0.0000 0.0000 0.0000
# 4 0.0000 0.0000 0.0000 13.6722 0.0000 0.0000
# 5 0.0000 0.0000 0.0000 0.0000 13.6724 0.0000
# 6 0.0000 0.0000 0.0000 0.0000 0.0000 20.6008
#
#
#
# Elastic Compliance Matrix: (Units=1/GPa)
#
#
# Indices 1 2 3 4 5 6 
#
# 1 0.019305 -0.006603 -0.004654 0.000000 0.000000 0.000000
# 2 -0.006603 0.019305 -0.004654 0.000000 0.000000 0.000000
# 3 -0.004654 -0.004654 0.017934 0.000000 0.000000 0.000000
# 4 0.000000 0.000000 0.000000 0.073141 0.000000 0.000000
# 5 0.000000 0.000000 0.000000 0.000000 0.073140 0.000000
# 6 0.000000 0.000000 0.000000 0.000000 0.000000 0.048542
#
#
# Mechanical properties :
#
#
# Convention : Reuss Voigt Hill
#
# Bulk Modulus (GPa) = 40.44974 40.46599 40.45787
# Shear Modulus (GPa) = 17.15683 17.91595 17.53639
#
# Velocity S-wave (km/s) = 3.27395 3.34560 3.30997
# Velocity P-wave (km/s) = 6.28989 6.34076 6.31538
#
# Compressibility (1/GPa) = 0.02472204
#
# Stress axis : x y z
#
# Youngs Moduli (GPa) = 51.80085 51.80008 55.76037
#
# Poissons Ratio (x) = 0.34201 0.25951
# Poissons Ratio (y) = 0.34202 0.25952
# Poissons Ratio (z) = 0.24108 0.24109
#
# Static dielectric constant tensor:
#      x y z
#    x 2.977530 0.000000 0.000000 
#    y 0.000000 2.977530 0.000000 
#    z 0.000000 0.000000 3.028990 
# 
# 
# High freq. dielectric constant tensor:
#      x y z
#    x 1.587900 0.000000 0.000000 
#    y 0.000000 1.587900 0.000000 
#    z 0.000000 0.000000 1.619960 
# 
# From -- ./inp_files/4571.got.cif
#   From: 2010.03.12/outbox.cif.g09.slc.cpg/sg124_3_cif.got.tgz:4571.got - 2010.04.06 16:38:57.
