data_PCOD8313304
_publ_section_title
;
Structure prediction by ZEFSAII (Michael W. Deem and Ramdas Pophale) SiO2 
 PCOD8313304
Probable space group: P 4/M C C
;
_chemical_formula_sum "Si O2"
_cell_formula_units_Z 80
_cell_length_a 17.580804
_cell_length_b 17.580804
_cell_length_c 13.991590
_cell_angle_alpha 90.000000
_cell_angle_beta 90.000000
_cell_angle_gamma 90.000000
_cell_volume 4324.585968
_symmetry_space_group_name_H-M "P 4/M C C"
_symmetry_group_IT_number 124
_symmetry_cell_setting 'tetragonal'
loop_
_space_group_symop_operation_xyz
x,y,z
-y,x,z
-x,-y,z
y,-x,z
x,-y,1/2-z
-x,y,1/2-z
y,x,1/2-z
-y,-x,1/2-z
-x,-y,-z
y,-x,-z
x,y,-z
-y,x,-z
-x,y,1/2+z
x,-y,1/2+z
-y,-x,1/2+z
y,x,1/2+z
loop_
_atom_site_type_symbol
_atom_site_label
_atom_site_fract_x
_atom_site_fract_y
_atom_site_fract_z
Si Si1 0.125686 0.252408 0.742921
Si Si2 0.997067 0.707470 0.385752
Si Si3 0.251483 0.375569 0.747263
Si Si4 0.500077 0.770839 0.604629
Si Si5 0.542936 0.066566 0.648306
O O1 0.177636 0.177636 0.750000
O O2 0.067473 0.235031 0.655225
O O3 0.177903 0.325938 0.719897
O O4 0.078903 0.270110 0.841022
O O5 0.002831 0.709227 0.500000
O O6 0.963182 0.629055 0.343120
O O7 0.326081 0.326081 0.750000
O O8 0.272366 0.437924 0.667713
O O9 0.233668 0.416674 0.847809
O O10 0.506007 0.733456 0.500000
O O11 0.468147 0.856144 0.591295
O O12 0.500000 0.078299 0.750000
O O13 0.500000 0.000000 0.590463
#
# Coordination Sequence:
#
# PCOD8313304 Si02
#       5
#    16  16  16  16  16
#     4  10  21  38  58  81 117 157 192 234 288 347
#     4  11  22  36  56  84 114 149 194 241 287 340
#     4  10  21  38  56  79 115 153 189 233 282 336
#     4  11  21  35  55  82 111 146 189 232 283 338
#     4  11  19  31  52  79 116 150 179 221 279 348
#
# _framework density 18.498881999999998
#
# number of rings (size 3 to 8) (size 9 to 14) (size 15 to 20)
#    0.000    1.400    4.000    4.200    0.000    5.600 
#    0.000    4.000    0.000    9.600    0.000   11.200 
#    0.000    0.000    0.000    0.000    0.000    0.000 
#
# Total GULP energy -991071.996681 kJ/mol
# GULP energy per Si atom -12388.399959 kJ/mol
# Density = 1.845678 g / cm^3
# Si number density = 18.498882 Si / 1000 Ang^3
#
#
#
# Elastic Constant Matrix: (Units=GPa)
#
#
# Indices 1 2 3 4 5 6 
#
# 1 93.2249 47.0095 33.1117 0.0000 0.0000 0.0000
# 2 47.0095 93.2249 33.1117 0.0000 0.0000 0.0000
# 3 33.1117 33.1117 138.4826 0.0000 0.0000 0.0000
# 4 0.0000 0.0000 0.0000 6.9049 0.0000 0.0000
# 5 0.0000 0.0000 0.0000 0.0000 6.9049 0.0000
# 6 0.0000 0.0000 0.0000 0.0000 0.0000 26.6567
#
#
#
# Elastic Compliance Matrix: (Units=1/GPa)
#
#
# Indices 1 2 3 4 5 6 
#
# 1 0.014838 -0.006800 -0.001922 0.000000 0.000000 0.000000
# 2 -0.006800 0.014838 -0.001922 0.000000 0.000000 0.000000
# 3 -0.001922 -0.001922 0.008140 0.000000 0.000000 0.000000
# 4 0.000000 0.000000 0.000000 0.144826 0.000000 0.000000
# 5 0.000000 0.000000 0.000000 0.000000 0.144826 0.000000
# 6 0.000000 0.000000 0.000000 0.000000 0.000000 0.037514
#
#
# Mechanical properties :
#
#
# Convention : Reuss Voigt Hill
#
# Bulk Modulus (GPa) = 60.49901 61.26649 60.88275
# Shear Modulus (GPa) = 12.76229 22.20658 17.48443
#
# Velocity S-wave (km/s) = 2.62943 3.46848 3.07768
# Velocity P-wave (km/s) = 6.48026 7.01651 6.75371
#
# Compressibility (1/GPa) = 0.01652920
#
# Stress axis : x y z
#
# Youngs Moduli (GPa) = 67.39366 67.39366 122.84616
#
# Poissons Ratio (x) = 0.45825 0.23612
# Poissons Ratio (y) = 0.45825 0.23612
# Poissons Ratio (z) = 0.12953 0.12953
#
# Static dielectric constant tensor:
#      x y z
#    x 3.431560 0.000000 0.000000 
#    y 0.000000 3.431560 0.000000 
#    z 0.000000 0.000000 3.363300 
# 
# 
# High freq. dielectric constant tensor:
#      x y z
#    x 1.707540 0.000000 0.000000 
#    y 0.000000 1.707540 0.000000 
#    z 0.000000 0.000000 1.714710 
# 
# From -- ./inp_files/3085.got.cif
#   From: 2010.03.12/outbox.cif.g09.slc.cpg/sg124_2_cif.got.tgz:3085.got - 2010.04.06 16:38:57.
