data_PCOD8313776
_publ_section_title
;
Structure prediction by ZEFSAII (Michael W. Deem and Ramdas Pophale) SiO2 
 PCOD8313776
Probable space group: P 4/N N C
;
_chemical_formula_sum "Si O2"
_cell_formula_units_Z 88
_cell_length_a 11.255984
_cell_length_b 11.255984
_cell_length_c 30.499432
_cell_angle_alpha 90.000000
_cell_angle_beta 90.000000
_cell_angle_gamma 90.000000
_cell_volume 3864.191898
_symmetry_space_group_name_H-M "P 4/N N C"
_symmetry_group_IT_number 126
_space_group.IT_coordinate_system_code '2'
_symmetry_cell_setting 'tetragonal'
loop_
_space_group_symop_operation_xyz
x,y,z
1/2-y,x,z
1/2-x,1/2-y,z
y,1/2-x,z
x,1/2-y,1/2-z
1/2-x,y,1/2-z
y,x,1/2-z
1/2-y,1/2-x,1/2-z
-x,-y,-z
1/2+y,-x,-z
1/2+x,1/2+y,-z
-y,1/2+x,-z
-x,1/2+y,1/2+z
1/2+x,-y,1/2+z
-y,-x,1/2+z
1/2+y,1/2+x,1/2+z
loop_
_atom_site_type_symbol
_atom_site_label
_atom_site_fract_x
_atom_site_fract_y
_atom_site_fract_z
Si Si1 0.246370 0.064014 0.608601
Si Si2 0.533081 0.673146 0.016479
Si Si3 0.432280 0.314167 0.353525
Si Si4 0.652385 0.994756 0.545996
Si Si5 0.750000 0.552163 0.250000
Si Si6 0.375580 0.689382 0.172804
O O1 0.364402 0.130071 0.626274
O O2 0.262383 0.071323 0.555771
O O3 0.233674 0.929218 0.626157
O O4 0.465671 0.571880 0.044262
O O5 0.638285 0.620818 0.985954
O O6 0.445642 0.736108 0.979977
O O7 0.322105 0.399888 0.341539
O O8 0.459969 0.317251 0.404944
O O9 0.546665 0.356943 0.325928
O O10 0.867410 0.632591 0.250000
O O11 0.761859 0.467863 0.208138
O O12 0.250000 0.750000 0.180583
#
# Coordination Sequence:
#
# PCOD8313776 Si02
#       6
#    16  16  16  16   8  16
#     4  11  23  40  67 102 139 190 254 319 373 426
#     4  11  22  35  57  87 132 191 254 313 360 413
#     4  11  25  44  71 104 149 205 250 297 362 445
#     4  11  22  37  58  88 136 193 254 308 362 421
#     4  11  27  56  90 120 147 181 226 290 376 461
#     4  12  28  47  78 113 150 187 230 302 374 449
#
# _framework density 22.773195999999999
#
# number of rings (size 3 to 8) (size 9 to 14) (size 15 to 20)
#    0.000    0.818    5.455    1.364    5.091    3.636 
#    0.000    0.000    0.000    0.000    0.000    0.000 
#    0.000    0.000    0.000    0.000    0.000    0.000 
#
# Total GULP energy -1090533.152237 kJ/mol
# GULP energy per Si atom -12392.422185 kJ/mol
# Density = 2.272136 g / cm^3
# Si number density = 22.773196 Si / 1000 Ang^3
#
#
#
# Elastic Constant Matrix: (Units=GPa)
#
#
# Indices 1 2 3 4 5 6 
#
# 1 115.5160 44.2522 40.3909 0.0000 0.0000 0.0000
# 2 44.2522 115.5164 40.3909 0.0000 0.0000 0.0000
# 3 40.3909 40.3909 85.9816 0.0000 0.0000 0.0000
# 4 0.0000 0.0000 0.0000 37.5993 0.0000 0.0000
# 5 0.0000 0.0000 0.0000 0.0000 37.5994 0.0000
# 6 0.0000 0.0000 0.0000 0.0000 0.0000 29.9347
#
#
#
# Elastic Compliance Matrix: (Units=1/GPa)
#
#
# Indices 1 2 3 4 5 6 
#
# 1 0.011121 -0.002912 -0.003856 0.000000 0.000000 0.000000
# 2 -0.002912 0.011121 -0.003856 0.000000 0.000000 0.000000
# 3 -0.003856 -0.003856 0.015253 0.000000 0.000000 0.000000
# 4 0.000000 0.000000 0.000000 0.026596 0.000000 0.000000
# 5 0.000000 0.000000 0.000000 0.000000 0.026596 0.000000
# 6 0.000000 0.000000 0.000000 0.000000 0.000000 0.033406
#
#
# Mechanical properties :
#
#
# Convention : Reuss Voigt Hill
#
# Bulk Modulus (GPa) = 61.55266 63.00911 62.28088
# Shear Modulus (GPa) = 33.16600 33.82532 33.49566
#
# Velocity S-wave (km/s) = 3.82037 3.85816 3.83931
# Velocity P-wave (km/s) = 6.82258 6.89749 6.86013
#
# Compressibility (1/GPa) = 0.01624625
#
# Stress axis : x y z
#
# Youngs Moduli (GPa) = 89.92317 89.92357 65.55920
#
# Poissons Ratio (x) = 0.26184 0.25281
# Poissons Ratio (y) = 0.26183 0.25281
# Poissons Ratio (z) = 0.34676 0.34676
#
# Static dielectric constant tensor:
#      x y z
#    x 4.152700 0.000000 0.000000 
#    y 0.000000 4.152700 0.000000 
#    z 0.000000 0.000000 3.986500 
# 
# 
# High freq. dielectric constant tensor:
#      x y z
#    x 1.902560 0.000000 0.000000 
#    y 0.000000 1.902560 0.000000 
#    z 0.000000 0.000000 1.885250 
# 
# From -- ./inp_files/6565.got.cif
#   From: 2010.03.12/outbox.cif.g09.slc.cpg/sg126_4_cif.got.tgz:6565.got - 2010.04.06 16:55:23.
