data_PCOD8313183
_publ_section_title
;
Structure prediction by ZEFSAII (Michael W. Deem and Ramdas Pophale) SiO2 
 PCOD8313183
Probable space group: P 4/M C C
;
_chemical_formula_sum "Si O2"
_cell_formula_units_Z 96
_cell_length_a 18.500412
_cell_length_b 18.500412
_cell_length_c 15.618120
_cell_angle_alpha 90.000000
_cell_angle_beta 90.000000
_cell_angle_gamma 90.000000
_cell_volume 5345.539655
_symmetry_space_group_name_H-M "P 4/M C C"
_symmetry_group_IT_number 124
_symmetry_cell_setting 'tetragonal'
loop_
_space_group_symop_operation_xyz
x,y,z
-y,x,z
-x,-y,z
y,-x,z
x,-y,1/2-z
-x,y,1/2-z
y,x,1/2-z
-y,-x,1/2-z
-x,-y,-z
y,-x,-z
x,y,-z
-y,x,-z
-x,y,1/2+z
x,-y,1/2+z
-y,-x,1/2+z
y,x,1/2+z
loop_
_atom_site_type_symbol
_atom_site_label
_atom_site_fract_x
_atom_site_fract_y
_atom_site_fract_z
Si Si1 0.443124 0.400432 0.100392
Si Si2 0.867746 0.505380 0.596940
Si Si3 0.734184 0.565308 0.301863
Si Si4 0.913035 0.652374 0.900562
Si Si5 0.658745 0.922856 0.902698
Si Si6 0.819402 0.700637 0.250138
O O1 0.526987 0.402841 0.129953
O O2 0.403268 0.330667 0.140042
O O3 0.438346 0.392524 0.000000
O O4 0.843597 0.494586 0.500000
O O5 0.795925 0.523692 0.647008
O O6 0.905137 0.431422 0.629267
O O7 0.922958 0.571819 0.607909
O O8 0.698075 0.500000 0.250000
O O9 0.765889 0.632015 0.248533
O O10 0.864249 0.700827 0.838091
O O11 0.994461 0.680823 0.886798
O O12 0.889957 0.662778 0.000000
O O13 0.697923 0.870594 0.834500
O O14 0.679429 0.898186 0.000000
O O15 0.774866 0.774866 0.250000
#
# Coordination Sequence:
#
# PCOD8313183 Si02
#       6
#    16  16  16  16  16  16
#     4   9  20  37  53  66  81 117 181 251 306 342
#     4   9  17  31  50  77 104 130 169 218 266 318
#     4  11  21  32  48  69 102 134 178 220 276 324
#     4  10  19  35  57  81 105 142 182 221 265 319
#     4   9  19  35  58  81 108 140 179 221 268 319
#     4  11  24  37  50  78 115 147 180 218 270 328
#
# _framework density 17.958898000000001
#
# number of rings (size 3 to 8) (size 9 to 14) (size 15 to 20)
#    0.000    2.167    1.667    2.000    2.333    3.333 
#    0.000    2.500    0.000    0.000    0.000    0.000 
#    0.000    5.333    0.000   14.667    0.000    0.000 
#
# Total GULP energy -1189876.109210 kJ/mol
# GULP energy per Si atom -12394.542804 kJ/mol
# Density = 1.791802 g / cm^3
# Si number density = 17.958898 Si / 1000 Ang^3
#
#
#
# Elastic Constant Matrix: (Units=GPa)
#
#
# Indices 1 2 3 4 5 6 
#
# 1 80.5121 30.3835 49.0600 0.0000 0.0000 0.0000
# 2 30.3835 80.5121 49.0600 0.0000 0.0000 0.0000
# 3 49.0600 49.0600 92.4481 0.0000 0.0000 0.0000
# 4 0.0000 0.0000 0.0000 25.9135 0.0000 0.0000
# 5 0.0000 0.0000 0.0000 0.0000 25.9135 0.0000
# 6 0.0000 0.0000 0.0000 0.0000 0.0000 20.5492
#
#
#
# Elastic Compliance Matrix: (Units=1/GPa)
#
#
# Indices 1 2 3 4 5 6 
#
# 1 0.018474 -0.001475 -0.009021 0.000000 0.000000 0.000000
# 2 -0.001475 0.018474 -0.009021 0.000000 0.000000 0.000000
# 3 -0.009021 -0.009021 0.020391 0.000000 0.000000 0.000000
# 4 0.000000 0.000000 0.000000 0.038590 0.000000 0.000000
# 5 0.000000 0.000000 0.000000 0.000000 0.038590 0.000000
# 6 0.000000 0.000000 0.000000 0.000000 0.000000 0.048664
#
#
# Mechanical properties :
#
#
# Convention : Reuss Voigt Hill
#
# Bulk Modulus (GPa) = 54.62805 56.71993 55.67399
# Shear Modulus (GPa) = 21.89921 22.80651 22.35286
#
# Velocity S-wave (km/s) = 3.49579 3.56747 3.53181
# Velocity P-wave (km/s) = 6.83948 6.97287 6.90650
#
# Compressibility (1/GPa) = 0.01830561
#
# Stress axis : x y z
#
# Youngs Moduli (GPa) = 54.13007 54.13007 49.04006
#
# Poissons Ratio (x) = 0.07982 0.44240
# Poissons Ratio (y) = 0.07982 0.44240
# Poissons Ratio (z) = 0.48832 0.48832
#
# Static dielectric constant tensor:
#      x y z
#    x 3.152200 0.000000 0.000000 
#    y 0.000000 3.152200 0.000000 
#    z 0.000000 0.000000 3.499310 
# 
# 
# High freq. dielectric constant tensor:
#      x y z
#    x 1.669700 0.000000 0.000000 
#    y 0.000000 1.669700 0.000000 
#    z 0.000000 0.000000 1.708320 
# 
# From -- ./inp_files/4256.got.cif
#   From: 2010.03.12/outbox.cif.g09.slc.cpg/sg124_3_cif.got.tgz:4256.got - 2010.04.06 16:38:57.
