data_PCOD8313945
_publ_section_title
;
Structure prediction by ZEFSAII (Michael W. Deem and Ramdas Pophale) SiO2 
 PCOD8313945
Probable space group: P 4/M B M
;
_chemical_formula_sum "Si O2"
_cell_formula_units_Z 96
_cell_length_a 15.912772
_cell_length_b 15.912772
_cell_length_c 20.303795
_cell_angle_alpha 90.000000
_cell_angle_beta 90.000000
_cell_angle_gamma 90.000000
_cell_volume 5141.252104
_symmetry_space_group_name_H-M "P 4/M B M"
_symmetry_group_IT_number 127
_symmetry_cell_setting 'tetragonal'
loop_
_space_group_symop_operation_xyz
x,y,z
-y,x,z
-x,-y,z
y,-x,z
1/2+x,1/2-y,-z
1/2-x,1/2+y,-z
1/2+y,1/2+x,-z
1/2-y,1/2-x,-z
-x,-y,-z
y,-x,-z
x,y,-z
-y,x,-z
1/2-x,1/2+y,z
1/2+x,1/2-y,z
1/2-y,1/2-x,z
1/2+y,1/2+x,z
loop_
_atom_site_type_symbol
_atom_site_label
_atom_site_fract_x
_atom_site_fract_y
_atom_site_fract_z
Si Si1 0.177243 0.184038 0.299926
Si Si2 0.121350 0.062473 0.923665
Si Si3 0.632286 0.004439 0.614703
Si Si4 0.118167 0.759665 0.427476
Si Si5 0.739705 0.899246 0.177953
Si Si6 0.445391 0.810601 0.751179
O O1 0.236769 0.263232 0.310078
O O2 0.171318 0.134753 0.370198
O O3 0.212599 0.120920 0.245628
O O4 0.087686 0.220601 0.276713
O O5 0.196061 0.103563 0.882397
O O6 0.035639 0.111177 0.906258
O O7 0.143542 0.073784 0.000000
O O8 0.560537 0.939464 0.595454
O O9 0.718584 0.975544 0.579539
O O10 0.598419 0.098419 0.593347
O O11 0.644259 0.002809 0.693346
O O12 0.124939 0.801636 0.500000
O O13 0.184868 0.684868 0.418723
O O14 0.666654 0.833347 0.161858
O O15 0.702213 0.992738 0.186901
O O16 0.368209 0.868209 0.776559
#
# Coordination Sequence:
#
# PCOD8313945 Si02
#       6
#    16  16  16  16  16  16
#     4   9  18  31  46  69  98 131 175 220 262 313
#     4   9  19  37  59  83 112 145 182 222 263 310
#     4   9  16  27  44  68  97 127 161 205 262 328
#     4   9  16  28  45  64  93 132 170 214 269 323
#     4  11  20  32  54  81 109 140 176 220 271 323
#     4  10  19  31  49  73 103 135 171 218 265 317
#
# _framework density 18.672494
#
# number of rings (size 3 to 8) (size 9 to 14) (size 15 to 20)
#    0.000    2.500    1.667    2.000    0.000    1.667 
#    0.000    2.500    0.000    4.500    0.000    1.167 
#    0.000    1.333    0.000    0.000    0.000    0.000 
#
# Total GULP energy -1189756.194973 kJ/mol
# GULP energy per Si atom -12393.293698 kJ/mol
# Density = 1.862999 g / cm^3
# Si number density = 18.672494 Si / 1000 Ang^3
#
#
#
# Elastic Constant Matrix: (Units=GPa)
#
#
# Indices 1 2 3 4 5 6 
#
# 1 77.2833 41.8551 43.9164 0.0000 0.0000 0.0000
# 2 41.8551 77.2833 43.9164 0.0000 0.0000 0.0000
# 3 43.9164 43.9164 80.2356 0.0000 0.0000 0.0000
# 4 0.0000 0.0000 0.0000 24.5446 0.0000 0.0000
# 5 0.0000 0.0000 0.0000 0.0000 24.5446 0.0000
# 6 0.0000 0.0000 0.0000 0.0000 0.0000 26.3446
#
#
#
# Elastic Compliance Matrix: (Units=1/GPa)
#
#
# Indices 1 2 3 4 5 6 
#
# 1 0.021149 -0.007077 -0.007702 0.000000 0.000000 0.000000
# 2 -0.007077 0.021149 -0.007702 0.000000 0.000000 0.000000
# 3 -0.007702 -0.007702 0.020895 0.000000 0.000000 0.000000
# 4 0.000000 0.000000 0.000000 0.040742 0.000000 0.000000
# 5 0.000000 0.000000 0.000000 0.000000 0.040742 0.000000
# 6 0.000000 0.000000 0.000000 0.000000 0.000000 0.037958
#
#
# Mechanical properties :
#
#
# Convention : Reuss Voigt Hill
#
# Bulk Modulus (GPa) = 54.85494 54.90868 54.88181
# Shear Modulus (GPa) = 21.39726 22.09439 21.74582
#
# Velocity S-wave (km/s) = 3.38882 3.44358 3.41631
# Velocity P-wave (km/s) = 6.68979 6.72912 6.70949
#
# Compressibility (1/GPa) = 0.01822990
#
# Stress axis : x y z
#
# Youngs Moduli (GPa) = 47.28365 47.28365 47.85897
#
# Poissons Ratio (x) = 0.33463 0.36862
# Poissons Ratio (y) = 0.33463 0.36862
# Poissons Ratio (z) = 0.36419 0.36419
#
# Static dielectric constant tensor:
#      x y z
#    x 3.369660 0.000000 0.000000 
#    y 0.000000 3.369660 0.000000 
#    z 0.000000 0.000000 3.236930 
# 
# 
# High freq. dielectric constant tensor:
#      x y z
#    x 1.707050 0.000000 0.000000 
#    y 0.000000 1.707050 0.000000 
#    z 0.000000 0.000000 1.705980 
# 
# From -- ./inp_files/5790.got.cif
#   From: 2010.03.12/outbox.cif.g09.slc.cpg/sg127_3_cif.got.tgz:5790.got - 2010.04.06 17:03:15.
