data_PCOD8313863
_publ_section_title
;
Structure prediction by ZEFSAII (Michael W. Deem and Ramdas Pophale) SiO2 
 PCOD8313863
Probable space group: P 4/M B M
;
_chemical_formula_sum "Si O2"
_cell_formula_units_Z 96
_cell_length_a 19.075598
_cell_length_b 19.075598
_cell_length_c 18.392590
_cell_angle_alpha 90.000000
_cell_angle_beta 90.000000
_cell_angle_gamma 90.000000
_cell_volume 6692.666939
_symmetry_space_group_name_H-M "P 4/M B M"
_symmetry_group_IT_number 127
_symmetry_cell_setting 'tetragonal'
loop_
_space_group_symop_operation_xyz
x,y,z
-y,x,z
-x,-y,z
y,-x,z
1/2+x,1/2-y,-z
1/2-x,1/2+y,-z
1/2+y,1/2+x,-z
1/2-y,1/2-x,-z
-x,-y,-z
y,-x,-z
x,y,-z
-y,x,-z
1/2-x,1/2+y,z
1/2+x,1/2-y,z
1/2-y,1/2-x,z
1/2+y,1/2+x,z
loop_
_atom_site_type_symbol
_atom_site_label
_atom_site_fract_x
_atom_site_fract_y
_atom_site_fract_z
Si Si1 0.901328 0.062617 0.234557
Si Si2 0.402374 0.437895 0.923376
Si Si3 0.593226 0.569671 0.500000
Si Si4 0.224113 0.275887 0.415967
Si Si5 0.905843 0.809928 0.631708
Si Si6 0.699673 0.990897 0.586404
Si Si7 0.944818 0.555183 0.414194
Si Si8 0.159400 0.659400 0.582788
O O1 0.869076 0.083237 0.154594
O O2 0.848123 0.097412 0.291058
O O3 0.978793 0.094699 0.245327
O O4 0.478986 0.405513 0.924226
O O5 0.364173 0.413599 0.000000
O O6 0.514115 0.596962 0.500000
O O7 0.630812 0.601817 0.429793
O O8 0.206061 0.293940 0.500000
O O9 0.252567 0.344533 0.375641
O O10 0.282604 0.217397 0.410034
O O11 0.979347 0.769264 0.624100
O O12 0.711726 0.992596 0.500000
O O13 0.687345 0.912697 0.617845
O O14 0.633578 0.037677 0.610850
O O15 0.950938 0.549063 0.500000
O O16 0.000000 0.500000 0.379429
O O17 0.140543 0.640543 0.500000
#
# Coordination Sequence:
#
# PCOD8313863 Si02
#       8
#    16  16   8   8  16  16   8   8
#     4   9  18  30  44  66  92 117 145 174 210 258
#     4   7  10  20  40  64  89 113 136 167 206 248
#     4  11  24  35  46  62  79 111 154 181 213 262
#     4  11  23  36  42  59  78 111 155 196 223 263
#     4  12  22  32  48  58  86 116 145 187 228 258
#     4  10  18  30  44  62  73 103 138 183 228 269
#     4   9  15  27  45  61  78  86 128 190 242 265
#     4   9  20  30  46  58  75  96 145 187 221 262
#
# _framework density 14.344056999999999
#
# number of rings (size 3 to 8) (size 9 to 14) (size 15 to 20)
#    0.000    2.333    2.500    3.000    4.667    2.000 
#    0.000    0.000    0.000    0.000    0.000    0.583 
#    0.000    0.000    0.000    0.750    0.000    0.833 
#
# Total GULP energy -1189458.889509 kJ/mol
# GULP energy per Si atom -12390.196766 kJ/mol
# Density = 1.431141 g / cm^3
# Si number density = 14.344057 Si / 1000 Ang^3
#
#
#
# Elastic Constant Matrix: (Units=GPa)
#
#
# Indices 1 2 3 4 5 6 
#
# 1 52.4400 13.6621 29.3224 0.0000 0.0000 0.0000
# 2 13.6621 52.4403 29.3222 0.0000 0.0000 0.0000
# 3 29.3224 29.3222 111.4756 0.0000 0.0000 0.0000
# 4 0.0000 0.0000 0.0000 6.4575 0.0000 0.0000
# 5 0.0000 0.0000 0.0000 0.0000 6.4575 0.0000
# 6 0.0000 0.0000 0.0000 0.0000 0.0000 21.2532
#
#
#
# Elastic Compliance Matrix: (Units=1/GPa)
#
#
# Indices 1 2 3 4 5 6 
#
# 1 0.022760 -0.003027 -0.005191 0.000000 0.000000 0.000000
# 2 -0.003027 0.022760 -0.005190 0.000000 0.000000 0.000000
# 3 -0.005191 -0.005190 0.011701 0.000000 0.000000 0.000000
# 4 0.000000 0.000000 0.000000 0.154858 0.000000 0.000000
# 5 0.000000 0.000000 0.000000 0.000000 0.154859 0.000000
# 6 0.000000 0.000000 0.000000 0.000000 0.000000 0.047052
#
#
# Mechanical properties :
#
#
# Convention : Reuss Voigt Hill
#
# Bulk Modulus (GPa) = 32.88923 40.10771 36.49847
# Shear Modulus (GPa) = 11.08788 16.43692 13.76240
#
# Velocity S-wave (km/s) = 2.78329 3.38879 3.10086
# Velocity P-wave (km/s) = 5.77127 6.58284 6.19037
#
# Compressibility (1/GPa) = 0.03040509
#
# Stress axis : x y z
#
# Youngs Moduli (GPa) = 43.93579 43.93612 85.46138
#
# Poissons Ratio (x) = 0.13301 0.44359
# Poissons Ratio (y) = 0.13301 0.44359
# Poissons Ratio (z) = 0.22805 0.22805
#
# Static dielectric constant tensor:
#      x y z
#    x 2.760730 0.000000 0.000000 
#    y 0.000000 2.760740 0.000000 
#    z 0.000000 0.000000 2.860050 
# 
# 
# High freq. dielectric constant tensor:
#      x y z
#    x 1.537500 0.000000 0.000000 
#    y 0.000000 1.537500 0.000000 
#    z 0.000000 0.000000 1.508650 
# 
# From -- ./inp_files/5318.got.cif
#   From: 2010.03.12/outbox.cif.g09.slc.cpg/sg127_3_cif.got.tgz:5318.got - 2010.04.06 17:03:15.
