data_PCOD8313146
_publ_section_title
;
Structure prediction by ZEFSAII (Michael W. Deem and Ramdas Pophale) SiO2 
 PCOD8313146
Probable space group: P 4/M C C
;
_chemical_formula_sum "Si O2"
_cell_formula_units_Z 64
_cell_length_a 19.744543
_cell_length_b 19.744543
_cell_length_c 8.773681
_cell_angle_alpha 90.000000
_cell_angle_beta 90.000000
_cell_angle_gamma 90.000000
_cell_volume 3420.393026
_symmetry_space_group_name_H-M "P 4/M C C"
_symmetry_group_IT_number 124
_symmetry_cell_setting 'tetragonal'
loop_
_space_group_symop_operation_xyz
x,y,z
-y,x,z
-x,-y,z
y,-x,z
x,-y,1/2-z
-x,y,1/2-z
y,x,1/2-z
-y,-x,1/2-z
-x,-y,-z
y,-x,-z
x,y,-z
-y,x,-z
-x,y,1/2+z
x,-y,1/2+z
-y,-x,1/2+z
y,x,1/2+z
loop_
_atom_site_type_symbol
_atom_site_label
_atom_site_fract_x
_atom_site_fract_y
_atom_site_fract_z
Si Si1 0.066046 0.690473 0.680747
Si Si2 0.682223 0.781206 0.677646
Si Si3 0.672128 0.427266 0.319697
Si Si4 0.836525 0.934082 0.179038
O O1 0.056793 0.699780 0.500000
O O2 0.141024 0.661463 0.719927
O O3 0.064141 0.759543 0.772213
O O4 0.000000 0.648913 0.750000
O O5 0.752293 0.752293 0.750000
O O6 0.695116 0.775417 0.500000
O O7 0.619338 0.735314 0.730787
O O8 0.686293 0.500000 0.250000
O O9 0.603199 0.396802 0.250000
O O10 0.664455 0.432412 0.500000
O O11 0.866690 0.866690 0.250000
O O12 0.873884 0.000000 0.250000
O O13 0.845070 0.933954 0.000000
#
# Coordination Sequence:
#
# PCOD8313146 Si02
#       4
#    16  16  16  16
#     4  10  19  32  49  72  98 128 164 209 258 307
#     4   9  19  33  52  76 104 135 173 215 260 309
#     4  10  20  36  56  82 112 144 177 213 252 299
#     4  11  21  33  46  63  86 116 153 197 247 304
#
# _framework density 18.711299
#
# number of rings (size 3 to 8) (size 9 to 14) (size 15 to 20)
#    0.000    2.000    0.000    6.000    0.000    5.500 
#    0.000    2.500    0.000    0.750    0.000    5.250 
#    0.000    0.000    0.000    0.000    0.000    0.000 
#
# Total GULP energy -792992.450303 kJ/mol
# GULP energy per Si atom -12390.507036 kJ/mol
# Density = 1.866871 g / cm^3
# Si number density = 18.711299 Si / 1000 Ang^3
#
#
#
# Elastic Constant Matrix: (Units=GPa)
#
#
# Indices 1 2 3 4 5 6 
#
# 1 104.2624 35.4910 36.9321 0.0000 0.0000 0.0000
# 2 35.4910 104.2584 36.9315 0.0000 0.0000 0.0000
# 3 36.9321 36.9315 114.8490 0.0000 0.0000 0.0000
# 4 0.0000 0.0000 0.0000 21.6417 0.0000 0.0000
# 5 0.0000 0.0000 0.0000 0.0000 21.6414 0.0000
# 6 0.0000 0.0000 0.0000 0.0000 0.0000 25.3684
#
#
#
# Elastic Compliance Matrix: (Units=1/GPa)
#
#
# Indices 1 2 3 4 5 6 
#
# 1 0.011581 -0.002960 -0.002772 0.000000 0.000000 0.000000
# 2 -0.002960 0.011581 -0.002772 0.000000 0.000000 0.000000
# 3 -0.002772 -0.002772 0.010490 0.000000 0.000000 0.000000
# 4 0.000000 0.000000 0.000000 0.046207 0.000000 0.000000
# 5 0.000000 0.000000 0.000000 0.000000 0.046208 0.000000
# 6 0.000000 0.000000 0.000000 0.000000 0.000000 0.039419
#
#
# Mechanical properties :
#
#
# Convention : Reuss Voigt Hill
#
# Bulk Modulus (GPa) = 60.08598 60.23101 60.15849
# Shear Modulus (GPa) = 26.58969 27.99798 27.29383
#
# Velocity S-wave (km/s) = 3.77377 3.87242 3.82341
# Velocity P-wave (km/s) = 7.15334 7.22867 7.19111
#
# Compressibility (1/GPa) = 0.01664282
#
# Stress axis : x y z
#
# Youngs Moduli (GPa) = 86.34970 86.34629 95.32920
#
# Poissons Ratio (x) = 0.25561 0.26426
# Poissons Ratio (y) = 0.25562 0.26427
# Poissons Ratio (z) = 0.23937 0.23937
#
# Static dielectric constant tensor:
#      x y z
#    x 3.408580 0.000000 0.000000 
#    y 0.000000 3.408580 0.000000 
#    z 0.000000 0.000000 3.765450 
# 
# 
# High freq. dielectric constant tensor:
#      x y z
#    x 1.712650 0.000000 0.000000 
#    y 0.000000 1.712650 0.000000 
#    z 0.000000 0.000000 1.739150 
# 
# From -- ./inp_files/849.got.cif
#   From: 2010.03.12/outbox.cif.g09.slc.cpg/sg124_1_cif.got.tgz:849.got - 2010.04.06 16:38:57.
