data_PCOD8313934
_publ_section_title
;
Structure prediction by ZEFSAII (Michael W. Deem and Ramdas Pophale) SiO2 
 PCOD8313934
Probable space group: P 4/M B M
;
_chemical_formula_sum "Si O2"
_cell_formula_units_Z 128
_cell_length_a 19.837177
_cell_length_b 19.837177
_cell_length_c 19.218605
_cell_angle_alpha 90.000000
_cell_angle_beta 90.000000
_cell_angle_gamma 90.000000
_cell_volume 7562.782274
_symmetry_space_group_name_H-M "P 4/M B M"
_symmetry_group_IT_number 127
_symmetry_cell_setting 'tetragonal'
loop_
_space_group_symop_operation_xyz
x,y,z
-y,x,z
-x,-y,z
y,-x,z
1/2+x,1/2-y,-z
1/2-x,1/2+y,-z
1/2+y,1/2+x,-z
1/2-y,1/2-x,-z
-x,-y,-z
y,-x,-z
x,y,-z
-y,x,-z
1/2-x,1/2+y,z
1/2+x,1/2-y,z
1/2-y,1/2-x,z
1/2+y,1/2+x,z
loop_
_atom_site_type_symbol
_atom_site_label
_atom_site_fract_x
_atom_site_fract_y
_atom_site_fract_z
Si Si1 0.157881 0.230581 0.144227
Si Si2 0.768423 0.156603 0.301521
Si Si3 0.831905 0.439289 0.579962
Si Si4 0.019100 0.277624 0.917735
Si Si5 0.260411 0.132834 0.918494
Si Si6 0.163086 0.450303 0.690197
Si Si7 0.392696 0.002861 0.824093
Si Si8 0.836063 0.222254 0.422669
O O1 0.197549 0.302452 0.137295
O O2 0.162118 0.202980 0.223234
O O3 0.080357 0.238283 0.119775
O O4 0.191983 0.173045 0.097727
O O5 0.712074 0.212074 0.314719
O O6 0.736705 0.082853 0.309192
O O7 0.825054 0.167337 0.361309
O O8 0.844691 0.456162 0.500000
O O9 0.886992 0.386992 0.608323
O O10 0.842198 0.508166 0.620151
O O11 0.757409 0.408183 0.591052
O O12 0.944482 0.253172 0.891408
O O13 0.020734 0.355586 0.894539
O O14 0.029173 0.271204 0.000000
O O15 0.324796 0.175205 0.887162
O O16 0.270355 0.128668 0.000000
O O17 0.105655 0.394346 0.691163
O O18 0.157448 0.498277 0.757966
O O19 0.420986 0.079015 0.831874
O O20 0.454242 0.954242 0.809865
O O21 0.835483 0.188157 0.500000
O O22 0.779732 0.279732 0.421348
#
# Coordination Sequence:
#
# PCOD8313934 Si02
#       8
#    16  16  16  16  16  16  16  16
#     4  10  19  34  53  74 101 133 170 210 253 306
#     4   9  17  30  48  68  92 121 159 203 242 285
#     4   9  18  31  46  67  97 131 167 202 237 286
#     4  11  21  33  51  73  99 129 164 211 262 307
#     4   9  19  34  51  74 102 131 167 211 256 304
#     4  10  19  31  45  65  97 132 165 201 239 285
#     4  10  20  32  45  64  95 135 172 204 242 294
#     4   8  15  29  47  66  89 119 156 200 246 285
#
# _framework density 16.924987000000002
#
# number of rings (size 3 to 8) (size 9 to 14) (size 15 to 20)
#    0.000    2.500    1.250    2.250    0.000    4.750 
#    0.000    5.000    0.000    0.375    0.000    1.750 
#    0.000    0.500    0.000    2.750    0.000    0.250 
#
# Total GULP energy -1586167.953840 kJ/mol
# GULP energy per Si atom -12391.937139 kJ/mol
# Density = 1.688646 g / cm^3
# Si number density = 16.924987 Si / 1000 Ang^3
#
#
#
# Elastic Constant Matrix: (Units=GPa)
#
#
# Indices 1 2 3 4 5 6 
#
# 1 56.4742 22.9723 19.0255 0.0000 0.0000 0.0000
# 2 22.9723 56.4742 19.0255 0.0000 0.0000 0.0000
# 3 19.0255 19.0255 60.1407 0.0000 0.0000 0.0000
# 4 0.0000 0.0000 0.0000 26.3549 0.0000 0.0000
# 5 0.0000 0.0000 0.0000 0.0000 26.3549 0.0000
# 6 0.0000 0.0000 0.0000 0.0000 0.0000 13.4233
#
#
#
# Elastic Compliance Matrix: (Units=1/GPa)
#
#
# Indices 1 2 3 4 5 6 
#
# 1 0.022342 -0.007507 -0.004693 0.000000 0.000000 0.000000
# 2 -0.007507 0.022342 -0.004693 0.000000 0.000000 0.000000
# 3 -0.004693 -0.004693 0.019597 0.000000 0.000000 0.000000
# 4 0.000000 0.000000 0.000000 0.037944 0.000000 0.000000
# 5 0.000000 0.000000 0.000000 0.000000 0.037944 0.000000
# 6 0.000000 0.000000 0.000000 0.000000 0.000000 0.074498
#
#
# Mechanical properties :
#
#
# Convention : Reuss Voigt Hill
#
# Bulk Modulus (GPa) = 32.79270 32.79284 32.79277
# Shear Modulus (GPa) = 19.33364 20.69766 20.01565
#
# Velocity S-wave (km/s) = 3.38348 3.50080 3.44264
# Velocity P-wave (km/s) = 5.88908 5.97982 5.93463
#
# Compressibility (1/GPa) = 0.03049459
#
# Stress axis : x y z
#
# Youngs Moduli (GPa) = 44.75892 44.75892 51.02842
#
# Poissons Ratio (x) = 0.33601 0.23948
# Poissons Ratio (y) = 0.33601 0.23948
# Poissons Ratio (z) = 0.21005 0.21005
#
# Static dielectric constant tensor:
#      x y z
#    x 3.086500 0.000000 0.000000 
#    y 0.000000 3.086500 0.000000 
#    z 0.000000 0.000000 3.273360 
# 
# 
# High freq. dielectric constant tensor:
#      x y z
#    x 1.626600 0.000000 0.000000 
#    y 0.000000 1.626600 0.000000 
#    z 0.000000 0.000000 1.662250 
# 
# From -- ./inp_files/5396.got.cif
#   From: 2010.03.12/outbox.cif.g09.slc.cpg/sg127_3_cif.got.tgz:5396.got - 2010.04.06 17:03:15.
