data_PCOD8313348
_publ_section_title
;
Structure prediction by ZEFSAII (Michael W. Deem and Ramdas Pophale) SiO2 
 PCOD8313348
Probable space group: P 4/M C C
;
_chemical_formula_sum "Si O2"
_cell_formula_units_Z 80
_cell_length_a 11.922302
_cell_length_b 11.922302
_cell_length_c 28.219328
_cell_angle_alpha 90.000000
_cell_angle_beta 90.000000
_cell_angle_gamma 90.000000
_cell_volume 4011.131543
_symmetry_space_group_name_H-M "P 4/M C C"
_symmetry_group_IT_number 124
_symmetry_cell_setting 'tetragonal'
loop_
_space_group_symop_operation_xyz
x,y,z
-y,x,z
-x,-y,z
y,-x,z
x,-y,1/2-z
-x,y,1/2-z
y,x,1/2-z
-y,-x,1/2-z
-x,-y,-z
y,-x,-z
x,y,-z
-y,x,-z
-x,y,1/2+z
x,-y,1/2+z
-y,-x,1/2+z
y,x,1/2+z
loop_
_atom_site_type_symbol
_atom_site_label
_atom_site_fract_x
_atom_site_fract_y
_atom_site_fract_z
Si Si1 0.332319 0.423051 0.500000
Si Si2 0.331716 0.170652 0.923026
Si Si3 0.927639 0.828421 0.500000
Si Si4 0.500000 0.000000 0.625039
Si Si5 0.976872 0.324298 0.697329
Si Si6 0.221170 0.754197 0.174370
Si Si7 0.631542 0.368459 0.250000
O O1 0.445403 0.352442 0.500000
O O2 0.264534 0.392432 0.546657
O O3 0.429764 0.086272 0.906408
O O4 0.266838 0.239058 0.881579
O O5 0.241534 0.100233 0.952943
O O6 0.059180 0.854079 0.500000
O O7 0.580096 0.931867 0.661453
O O8 0.880665 0.230559 0.693992
O O9 0.000000 0.370862 0.750000
O O10 0.092179 0.274818 0.679849
O O11 0.308252 0.677898 0.203198
O O12 0.657397 0.500000 0.250000
#
# Coordination Sequence:
#
# PCOD8313348 Si02
#       7
#     8  16   8   8  16  16   8
#     4  10  24  43  66  94 128 173 216 282 344 404
#     4  10  25  42  66  98 128 174 225 276 340 407
#     4  10  24  45  68  94 130 171 214 282 348 412
#     4  10  25  37  64 100 124 180 218 275 325 392
#     4  11  22  41  63  97 135 179 222 267 331 396
#     4  11  25  40  67  98 133 179 218 280 333 399
#     4  11  26  44  64  95 136 184 232 273 326 392
#
# _framework density 19.944496999999998
#
# number of rings (size 3 to 8) (size 9 to 14) (size 15 to 20)
#    0.000    1.500    2.000    0.300   14.000    3.600 
#    0.000    3.000    0.000    0.000    0.000    0.000 
#    0.000    0.000    0.000    0.000    0.000    0.000 
#
# Total GULP energy -991749.019165 kJ/mol
# GULP energy per Si atom -12396.862740 kJ/mol
# Density = 1.989910 g / cm^3
# Si number density = 19.944497 Si / 1000 Ang^3
#
#
#
# Elastic Constant Matrix: (Units=GPa)
#
#
# Indices 1 2 3 4 5 6 
#
# 1 130.0240 73.7088 71.5582 0.0000 0.0000 0.0000
# 2 73.7088 130.0255 71.5585 0.0000 0.0000 0.0000
# 3 71.5582 71.5585 175.0926 0.0000 0.0000 0.0000
# 4 0.0000 0.0000 0.0000 -96.7822 0.0000 0.0000
# 5 0.0000 0.0000 0.0000 0.0000 -96.4075 0.0000
# 6 0.0000 0.0000 0.0000 0.0000 0.0000 2.9429
#
#
#
# Elastic Compliance Matrix: (Units=1/GPa)
#
#
# Indices 1 2 3 4 5 6 
#
# 1 0.012321 -0.005436 -0.002814 0.000000 0.000000 0.000000
# 2 -0.005436 0.012321 -0.002814 0.000000 0.000000 0.000000
# 3 -0.002814 -0.002814 0.008011 0.000000 0.000000 0.000000
# 4 0.000000 0.000000 0.000000 -0.010332 0.000000 0.000000
# 5 0.000000 0.000000 0.000000 0.000000 -0.010373 0.000000
# 6 0.000000 0.000000 0.000000 0.000000 0.000000 0.339804
#
#
# Mechanical properties :
#
#
# Convention : Reuss Voigt Hill
#
# Bulk Modulus (GPa) = 95.00349 96.53257 95.76803
# Shear Modulus (GPa) = 13.24896 -23.49493 -5.12299
#
# Velocity S-wave (km/s) = 2.58018 -3.43595 -1.60443
# Velocity P-wave (km/s) = 7.52421 5.72405 6.68500
#
# Compressibility (1/GPa) = 0.01052593
#
# Stress axis : x y z
#
# Youngs Moduli (GPa) = 81.16191 81.16292 124.82497
#
# Poissons Ratio (x) = 0.44120 0.35124
# Poissons Ratio (y) = 0.44119 0.35123
# Poissons Ratio (z) = 0.22838 0.22838
#
# Static dielectric constant tensor:
#      x y z
#    x 3.756040 0.000000 0.000000 
#    y 0.000000 3.756020 0.000000 
#    z 0.000000 0.000000 3.938210 
# 
# 
# High freq. dielectric constant tensor:
#      x y z
#    x 1.783700 0.000000 0.000000 
#    y 0.000000 1.783700 0.000000 
#    z 0.000000 0.000000 1.797090 
# 
# From -- ./inp_files/7050.got.cif
#   From: 2010.03.12/outbox.cif.g09.slc.cpg/sg124_4_cif.got.tgz:7050.got - 2010.04.06 16:38:57.
