data_PCOD8313494
_publ_section_title
;
Structure prediction by ZEFSAII (Michael W. Deem and Ramdas Pophale) SiO2 
 PCOD8313494
Probable space group: P 4/N B M
;
_chemical_formula_sum "Si O2"
_cell_formula_units_Z 88
_cell_length_a 17.851014
_cell_length_b 17.851014
_cell_length_c 13.122802
_cell_angle_alpha 90.000000
_cell_angle_beta 90.000000
_cell_angle_gamma 90.000000
_cell_volume 4181.695037
_symmetry_space_group_name_H-M "P 4/N B M"
_symmetry_group_IT_number 125
_space_group.IT_coordinate_system_code '2'
_symmetry_cell_setting 'tetragonal'
loop_
_space_group_symop_operation_xyz
x,y,z
1/2-y,x,z
1/2-x,1/2-y,z
y,1/2-x,z
x,1/2-y,-z
1/2-x,y,-z
y,x,-z
1/2-y,1/2-x,-z
-x,-y,-z
1/2+y,-x,-z
1/2+x,1/2+y,-z
-y,1/2+x,-z
-x,1/2+y,z
1/2+x,-y,z
-y,-x,z
1/2+y,1/2+x,z
loop_
_atom_site_type_symbol
_atom_site_label
_atom_site_fract_x
_atom_site_fract_y
_atom_site_fract_z
Si Si1 0.151003 0.179676 0.788080
Si Si2 0.075342 0.700461 0.599627
Si Si3 0.979845 0.602101 0.910553
Si Si4 0.867599 0.250897 0.199225
Si Si5 0.449113 0.750000 0.000000
Si Si6 0.410126 0.322068 0.570112
O O1 0.232320 0.146181 0.822720
O O2 0.084463 0.125668 0.829560
O O3 0.145105 0.179854 0.666261
O O4 0.088330 0.750000 0.500000
O O5 0.138781 0.638781 0.601999
O O6 0.075751 0.747484 0.705286
O O7 0.994755 0.663453 0.602667
O O8 0.049464 0.549464 0.866563
O O9 0.005314 0.680800 0.956138
O O10 0.943983 0.556017 0.000000
O O11 0.802960 0.197041 0.237215
O O12 0.833584 0.333584 0.176662
O O13 0.901860 0.218682 0.095198
O O14 0.398193 0.250000 0.500000
O O15 0.392845 0.392845 0.500000
#
# Coordination Sequence:
#
# PCOD8313494 Si02
#       6
#    16  16  16  16   8  16
#     4  11  23  41  71 101 129 173 225 277 332 402
#     4  10  22  39  60  90 130 173 216 264 327 397
#     4  11  25  44  64  93 136 179 217 274 345 406
#     4  10  20  35  60  90 119 159 213 270 321 377
#     4  12  22  39  64  89 124 170 224 270 322 394
#     4  11  22  39  64  93 127 164 211 272 333 389
#
# _framework density 21.044097000000001
#
# number of rings (size 3 to 8) (size 9 to 14) (size 15 to 20)
#    0.000    1.273    1.818    4.364    0.000    4.364 
#    0.000    0.909    0.000    0.000    0.000    0.000 
#    0.000    0.000    0.000    0.000    0.000    0.000 
#
# Total GULP energy -1090341.681129 kJ/mol
# GULP energy per Si atom -12390.246376 kJ/mol
# Density = 2.099620 g / cm^3
# Si number density = 21.044097 Si / 1000 Ang^3
#
#
#
# Elastic Constant Matrix: (Units=GPa)
#
#
# Indices 1 2 3 4 5 6 
#
# 1 99.6114 44.4580 36.2814 0.0000 0.0000 0.0000
# 2 44.4580 99.6113 36.2818 0.0000 0.0000 0.0000
# 3 36.2814 36.2818 122.4261 0.0000 0.0000 0.0000
# 4 0.0000 0.0000 0.0000 36.7639 0.0000 0.0000
# 5 0.0000 0.0000 0.0000 0.0000 36.7637 0.0000
# 6 0.0000 0.0000 0.0000 0.0000 0.0000 33.9458
#
#
#
# Elastic Compliance Matrix: (Units=1/GPa)
#
#
# Indices 1 2 3 4 5 6 
#
# 1 0.013145 -0.004986 -0.002418 0.000000 0.000000 0.000000
# 2 -0.004986 0.013145 -0.002418 0.000000 0.000000 0.000000
# 3 -0.002418 -0.002418 0.009601 0.000000 0.000000 0.000000
# 4 0.000000 0.000000 0.000000 0.027201 0.000000 0.000000
# 5 0.000000 0.000000 0.000000 0.000000 0.027201 0.000000
# 6 0.000000 0.000000 0.000000 0.000000 0.000000 0.029459
#
#
# Mechanical properties :
#
#
# Convention : Reuss Voigt Hill
#
# Bulk Modulus (GPa) = 61.54814 61.74346 61.64580
# Shear Modulus (GPa) = 34.52764 35.13651 34.83208
#
# Velocity S-wave (km/s) = 4.05498 4.09058 4.07282
# Velocity P-wave (km/s) = 7.15783 7.19126 7.17457
#
# Compressibility (1/GPa) = 0.01624745
#
# Stress axis : x y z
#
# Youngs Moduli (GPa) = 76.07411 76.07384 104.15218
#
# Poissons Ratio (x) = 0.37932 0.25183
# Poissons Ratio (y) = 0.37932 0.25184
# Poissons Ratio (z) = 0.18394 0.18395
#
# Static dielectric constant tensor:
#      x y z
#    x 3.916090 0.000000 0.000000 
#    y 0.000000 3.916090 0.000000 
#    z 0.000000 0.000000 4.049250 
# 
# 
# High freq. dielectric constant tensor:
#      x y z
#    x 1.826360 0.000000 0.000000 
#    y 0.000000 1.826360 0.000000 
#    z 0.000000 0.000000 1.834590 
# 
# From -- ./inp_files/4869.got.cif
#   From: 2010.03.12/outbox.cif.g09.slc.cpg/sg125_3_cif.got.tgz:4869.got - 2010.04.06 16:47:52.
