data_PCOD8313672
_publ_section_title
;
Structure prediction by ZEFSAII (Michael W. Deem and Ramdas Pophale) SiO2 
 PCOD8313672
Probable space group: P 4/N N C
;
_chemical_formula_sum "Si O2"
_cell_formula_units_Z 80
_cell_length_a 16.307686
_cell_length_b 16.307686
_cell_length_c 15.061950
_cell_angle_alpha 90.000000
_cell_angle_beta 90.000000
_cell_angle_gamma 90.000000
_cell_volume 4005.584362
_symmetry_space_group_name_H-M "P 4/N N C"
_symmetry_group_IT_number 126
_space_group.IT_coordinate_system_code '2'
_symmetry_cell_setting 'tetragonal'
loop_
_space_group_symop_operation_xyz
x,y,z
1/2-y,x,z
1/2-x,1/2-y,z
y,1/2-x,z
x,1/2-y,1/2-z
1/2-x,y,1/2-z
y,x,1/2-z
1/2-y,1/2-x,1/2-z
-x,-y,-z
1/2+y,-x,-z
1/2+x,1/2+y,-z
-y,1/2+x,-z
-x,1/2+y,1/2+z
1/2+x,-y,1/2+z
-y,-x,1/2+z
1/2+y,1/2+x,1/2+z
loop_
_atom_site_type_symbol
_atom_site_label
_atom_site_fract_x
_atom_site_fract_y
_atom_site_fract_z
Si Si1 0.407570 0.516885 0.577740
Si Si2 0.932262 0.072148 0.103493
Si Si3 0.062102 0.330770 0.308112
Si Si4 0.862962 0.817189 0.994694
Si Si5 0.156973 0.481402 0.745845
O O1 0.399797 0.586102 0.499279
O O2 0.503711 0.503910 0.596680
O O3 0.364964 0.432793 0.546799
O O4 0.363602 0.541390 0.670216
O O5 0.970638 0.148212 0.157178
O O6 0.854595 0.034729 0.155671
O O7 0.056272 0.250000 0.250000
O O8 0.093627 0.406374 0.250000
O O9 0.124714 0.319201 0.389075
O O10 0.778230 0.861079 0.022488
O O11 0.250000 0.450429 0.750000
O O12 0.097463 0.402538 0.750000
#
# Coordination Sequence:
#
# PCOD8313672 Si02
#       5
#    16  16  16  16  16
#     4   9  19  35  54  74 110 158 193 241 275 334
#     4   9  20  38  53  78 111 151 204 236 283 340
#     4  11  19  31  53  78 111 148 189 242 294 353
#     4  10  20  30  45  78 119 155 182 225 290 357
#     4  10  21  37  59  87 118 154 192 237 289 347
#
# _framework density 19.972117999999998
#
# number of rings (size 3 to 8) (size 9 to 14) (size 15 to 20)
#    0.000    2.200    2.000    1.800    5.600    0.400 
#    0.000    0.000    0.000    0.600    0.000    0.000 
#    0.000    0.000    0.000    0.000    0.000    0.000 
#
# Total GULP energy -991370.960468 kJ/mol
# GULP energy per Si atom -12392.137006 kJ/mol
# Density = 1.992666 g / cm^3
# Si number density = 19.972118 Si / 1000 Ang^3
#
#
#
# Elastic Constant Matrix: (Units=GPa)
#
#
# Indices 1 2 3 4 5 6 
#
# 1 49.9404 30.1894 25.5212 0.0000 0.0000 0.0000
# 2 30.1894 49.9414 25.5215 0.0000 0.0000 0.0000
# 3 25.5212 25.5215 124.4154 0.0000 0.0000 0.0000
# 4 0.0000 0.0000 0.0000 26.2373 0.0000 0.0000
# 5 0.0000 0.0000 0.0000 0.0000 26.2376 0.0000
# 6 0.0000 0.0000 0.0000 0.0000 0.0000 17.8494
#
#
#
# Elastic Compliance Matrix: (Units=1/GPa)
#
#
# Indices 1 2 3 4 5 6 
#
# 1 0.032493 -0.018137 -0.002945 0.000000 0.000000 0.000000
# 2 -0.018137 0.032492 -0.002945 0.000000 0.000000 0.000000
# 3 -0.002945 -0.002945 0.009246 0.000000 0.000000 0.000000
# 4 0.000000 0.000000 0.000000 0.038114 0.000000 0.000000
# 5 0.000000 0.000000 0.000000 0.000000 0.038113 0.000000
# 6 0.000000 0.000000 0.000000 0.000000 0.000000 0.056024
#
#
# Mechanical properties :
#
#
# Convention : Reuss Voigt Hill
#
# Bulk Modulus (GPa) = 38.20051 42.97351 40.58701
# Shear Modulus (GPa) = 18.99264 23.60254 21.29759
#
# Velocity S-wave (km/s) = 3.08711 3.44142 3.26907
# Velocity P-wave (km/s) = 5.64583 6.11185 5.88345
#
# Compressibility (1/GPa) = 0.02617766
#
# Stress axis : x y z
#
# Youngs Moduli (GPa) = 30.77628 30.77684 108.15836
#
# Poissons Ratio (x) = 0.55819 0.31850
# Poissons Ratio (y) = 0.55818 0.31850
# Poissons Ratio (z) = 0.09063 0.09063
#
# Static dielectric constant tensor:
#      x y z
#    x 3.286860 0.000000 0.000000 
#    y 0.000000 3.286850 0.000000 
#    z 0.000000 0.000000 4.364170 
# 
# 
# High freq. dielectric constant tensor:
#      x y z
#    x 1.739750 0.000000 0.000000 
#    y 0.000000 1.739750 0.000000 
#    z 0.000000 0.000000 1.811860 
# 
# From -- ./inp_files/3611.got.cif
#   From: 2010.03.12/outbox.cif.g09.slc.cpg/sg126_2_cif.got.tgz:3611.got - 2010.04.06 16:55:23.
