data_PCOD8313647
_publ_section_title
;
Structure prediction by ZEFSAII (Michael W. Deem and Ramdas Pophale) SiO2 
 PCOD8313647
Probable space group: P 4/N N C
;
_chemical_formula_sum "Si O2"
_cell_formula_units_Z 104
_cell_length_a 19.192707
_cell_length_b 19.192707
_cell_length_c 15.520429
_cell_angle_alpha 90.000000
_cell_angle_beta 90.000000
_cell_angle_gamma 90.000000
_cell_volume 5717.105257
_symmetry_space_group_name_H-M "P 4/N N C"
_symmetry_group_IT_number 126
_space_group.IT_coordinate_system_code '2'
_symmetry_cell_setting 'tetragonal'
loop_
_space_group_symop_operation_xyz
x,y,z
1/2-y,x,z
1/2-x,1/2-y,z
y,1/2-x,z
x,1/2-y,1/2-z
1/2-x,y,1/2-z
y,x,1/2-z
1/2-y,1/2-x,1/2-z
-x,-y,-z
1/2+y,-x,-z
1/2+x,1/2+y,-z
-y,1/2+x,-z
-x,1/2+y,1/2+z
1/2+x,-y,1/2+z
-y,-x,1/2+z
1/2+y,1/2+x,1/2+z
loop_
_atom_site_type_symbol
_atom_site_label
_atom_site_fract_x
_atom_site_fract_y
_atom_site_fract_z
Si Si1 0.403799 0.096202 0.250000
Si Si2 0.827146 0.077294 0.947588
Si Si3 0.952539 0.330623 0.241762
Si Si4 0.922671 0.331933 0.429387
Si Si5 0.190766 0.425273 0.495035
Si Si6 0.864819 0.755019 0.344203
Si Si7 0.415533 0.168031 0.422516
O O1 0.485279 0.113140 0.235621
O O2 0.382200 0.139811 0.333921
O O3 0.842416 0.091360 0.845927
O O4 0.745916 0.092269 0.962508
O O5 0.844921 0.998413 0.974156
O O6 0.874602 0.122755 0.009375
O O7 0.980938 0.250000 0.250000
O O8 0.904862 0.343273 0.327250
O O9 0.003897 0.352586 0.438261
O O10 0.233517 0.425738 0.585555
O O11 0.248546 0.408102 0.422051
O O12 0.130725 0.366922 0.497418
O O13 0.814711 0.821047 0.356126
O O14 0.900140 0.750000 0.250000
#
# Coordination Sequence:
#
# PCOD8313647 Si02
#       7
#     8  16  16  16  16  16  16
#     4  10  18  32  50  79 110 152 186 218 261 342
#     4  10  20  38  60  81 110 146 180 234 289 332
#     4   9  18  36  58  78 114 152 180 220 288 342
#     4   9  21  38  58  85 106 144 188 227 286 349
#     4  11  19  33  53  79 110 150 186 235 269 323
#     4   9  17  30  50  70  99 147 197 226 264 318
#     4  10  21  31  53  79 112 146 185 225 273 328
#
# _framework density 18.191023999999999
#
# number of rings (size 3 to 8) (size 9 to 14) (size 15 to 20)
#    0.000    2.308    3.077    1.385    0.000    1.231 
#    0.000    3.846    0.000    3.923    0.000    0.000 
#    0.000    0.000    0.000    0.000    0.000    0.000 
#
# Total GULP energy -1288430.075463 kJ/mol
# GULP energy per Si atom -12388.750726 kJ/mol
# Density = 1.814962 g / cm^3
# Si number density = 18.191024 Si / 1000 Ang^3
#
#
#
# Elastic Constant Matrix: (Units=GPa)
#
#
# Indices 1 2 3 4 5 6 
#
# 1 67.6195 56.7230 49.5178 0.0000 0.0000 0.0000
# 2 56.7230 67.6191 49.5180 0.0000 0.0000 0.0000
# 3 49.5178 49.5180 144.6179 0.0000 0.0000 0.0000
# 4 0.0000 0.0000 0.0000 31.4709 0.0000 0.0000
# 5 0.0000 0.0000 0.0000 0.0000 31.4708 0.0000
# 6 0.0000 0.0000 0.0000 0.0000 0.0000 31.5824
#
#
#
# Elastic Compliance Matrix: (Units=1/GPa)
#
#
# Indices 1 2 3 4 5 6 
#
# 1 0.051416 -0.040358 -0.003786 0.000000 0.000000 0.000000
# 2 -0.040358 0.051417 -0.003787 0.000000 0.000000 0.000000
# 3 -0.003786 -0.003787 0.009508 0.000000 0.000000 0.000000
# 4 0.000000 0.000000 0.000000 0.031775 0.000000 0.000000
# 5 0.000000 0.000000 0.000000 0.000000 0.031775 0.000000
# 6 0.000000 0.000000 0.000000 0.000000 0.000000 0.031663
#
#
# Mechanical properties :
#
#
# Convention : Reuss Voigt Hill
#
# Bulk Modulus (GPa) = 60.68530 65.70823 63.19677
# Shear Modulus (GPa) = 16.18601 27.17800 21.68200
#
# Velocity S-wave (km/s) = 2.98615 3.86947 3.45615
# Velocity P-wave (km/s) = 6.73216 7.49422 7.12339
#
# Compressibility (1/GPa) = 0.01647846
#
# Stress axis : x y z
#
# Youngs Moduli (GPa) = 19.44921 19.44899 105.17808
#
# Poissons Ratio (x) = 0.78493 0.39822
# Poissons Ratio (y) = 0.78494 0.39826
# Poissons Ratio (z) = 0.07364 0.07364
#
# Static dielectric constant tensor:
#      x y z
#    x 3.099670 0.000000 0.000000 
#    y 0.000000 3.099670 0.000000 
#    z 0.000000 0.000000 3.681700 
# 
# 
# High freq. dielectric constant tensor:
#      x y z
#    x 1.677310 0.000000 0.000000 
#    y 0.000000 1.677310 0.000000 
#    z 0.000000 0.000000 1.723160 
# 
# From -- ./inp_files/4556.got.cif
#   From: 2010.03.12/outbox.cif.g09.slc.cpg/sg126_3_cif.got.tgz:4556.got - 2010.04.06 16:55:23.
