data_PCOD8313504
_publ_section_title
;
Structure prediction by ZEFSAII (Michael W. Deem and Ramdas Pophale) SiO2 
 PCOD8313504
Probable space group: P 4/N B M
;
_chemical_formula_sum "Si O2"
_cell_formula_units_Z 112
_cell_length_a 14.758567
_cell_length_b 14.758567
_cell_length_c 23.889397
_cell_angle_alpha 90.000000
_cell_angle_beta 90.000000
_cell_angle_gamma 90.000000
_cell_volume 5203.476172
_symmetry_space_group_name_H-M "P 4/N B M"
_symmetry_group_IT_number 125
_space_group.IT_coordinate_system_code '2'
_symmetry_cell_setting 'tetragonal'
loop_
_space_group_symop_operation_xyz
x,y,z
1/2-y,x,z
1/2-x,1/2-y,z
y,1/2-x,z
x,1/2-y,-z
1/2-x,y,-z
y,x,-z
1/2-y,1/2-x,-z
-x,-y,-z
1/2+y,-x,-z
1/2+x,1/2+y,-z
-y,1/2+x,-z
-x,1/2+y,z
1/2+x,-y,z
-y,-x,z
1/2+y,1/2+x,z
loop_
_atom_site_type_symbol
_atom_site_label
_atom_site_fract_x
_atom_site_fract_y
_atom_site_fract_z
Si Si1 0.465930 0.673949 0.543463
Si Si2 0.103126 0.751690 0.111623
Si Si3 0.434649 0.789601 0.233584
Si Si4 0.438041 0.791698 0.645604
Si Si5 0.694217 0.886502 0.727659
Si Si6 0.918625 0.565965 0.627918
Si Si7 0.896654 0.749702 0.066281
O O1 0.496747 0.750000 0.500000
O O2 0.388153 0.611848 0.514880
O O3 0.426528 0.708174 0.603162
O O4 0.551491 0.612429 0.563081
O O5 0.160751 0.839250 0.089454
O O6 0.158888 0.658888 0.096133
O O7 0.099010 0.762462 0.178708
O O8 0.000532 0.749330 0.088274
O O9 0.377196 0.877196 0.246188
O O10 0.429860 0.726337 0.288122
O O11 0.538676 0.824164 0.224413
O O12 0.359086 0.859086 0.628156
O O13 0.535122 0.836978 0.632362
O O14 0.633573 0.799662 0.734713
O O15 0.671021 0.934390 0.667986
O O16 0.986838 0.486838 0.647973
O O17 0.840215 0.839843 0.085897
O O18 0.902923 0.750000 0.000000
#
# Coordination Sequence:
#
# PCOD8313504 Si02
#       7
#    16  16  16  16  16  16  16
#     4  11  23  38  56  80 113 147 187 242 299 360
#     4  10  23  41  61  94 138 179 223 275 329 389
#     4  11  22  39  60  85 122 165 206 249 303 366
#     4  11  22  37  60  84 109 150 198 241 295 358
#     4  11  21  36  58  84 114 150 193 240 294 355
#     4  10  20  38  60  83 111 144 190 241 295 362
#     4   9  20  42  70  98 132 176 228 283 335 390
#
# _framework density 21.524073000000001
#
# number of rings (size 3 to 8) (size 9 to 14) (size 15 to 20)
#    0.000    1.571    2.857    2.143    0.000    5.286 
#    0.000    7.143    0.000    0.000    0.000    1.000 
#    0.000    0.000    0.000    0.000    0.000    0.000 
#
# Total GULP energy -1387669.191810 kJ/mol
# GULP energy per Si atom -12389.903498 kJ/mol
# Density = 2.147508 g / cm^3
# Si number density = 21.524073 Si / 1000 Ang^3
#
#
#
# Elastic Constant Matrix: (Units=GPa)
#
#
# Indices 1 2 3 4 5 6 
#
# 1 132.5600 68.6700 30.4462 0.0000 0.0000 0.0000
# 2 68.6700 132.5600 30.4462 0.0000 0.0000 0.0000
# 3 30.4462 30.4462 55.9566 0.0000 0.0000 0.0000
# 4 0.0000 0.0000 0.0000 31.8422 0.0000 0.0000
# 5 0.0000 0.0000 0.0000 0.0000 31.8422 0.0000
# 6 0.0000 0.0000 0.0000 0.0000 0.0000 28.6614
#
#
#
# Elastic Compliance Matrix: (Units=1/GPa)
#
#
# Indices 1 2 3 4 5 6 
#
# 1 0.010800 -0.004851 -0.003237 0.000000 0.000000 0.000000
# 2 -0.004851 0.010800 -0.003237 0.000000 0.000000 0.000000
# 3 -0.003237 -0.003237 0.021393 0.000000 0.000000 0.000000
# 4 0.000000 0.000000 0.000000 0.031405 0.000000 0.000000
# 5 0.000000 0.000000 0.000000 0.000000 0.031405 0.000000
# 6 0.000000 0.000000 0.000000 0.000000 0.000000 0.034890
#
#
# Mechanical properties :
#
#
# Convention : Reuss Voigt Hill
#
# Bulk Modulus (GPa) = 49.15487 64.46681 56.81084
# Shear Modulus (GPa) = 29.39007 31.23679 30.31343
#
# Velocity S-wave (km/s) = 3.69921 3.81366 3.75687
# Velocity P-wave (km/s) = 6.41344 7.02909 6.72831
#
# Compressibility (1/GPa) = 0.02034387
#
# Stress axis : x y z
#
# Youngs Moduli (GPa) = 92.58920 92.58920 46.74353
#
# Poissons Ratio (x) = 0.44920 0.15130
# Poissons Ratio (y) = 0.44920 0.15130
# Poissons Ratio (z) = 0.29969 0.29969
#
# Static dielectric constant tensor:
#      x y z
#    x 4.141590 0.000000 0.000000 
#    y 0.000000 4.141590 0.000000 
#    z 0.000000 0.000000 3.704070 
# 
# 
# High freq. dielectric constant tensor:
#      x y z
#    x 1.855600 0.000000 0.000000 
#    y 0.000000 1.855600 0.000000 
#    z 0.000000 0.000000 1.821660 
# 
# From -- ./inp_files/6222.got.cif
#   From: 2010.03.12/outbox.cif.g09.slc.cpg/sg125_4_cif.got.tgz:6222.got - 2010.04.06 16:47:52.
