data_PCOD8313961
_publ_section_title
;
Structure prediction by ZEFSAII (Michael W. Deem and Ramdas Pophale) SiO2 
 PCOD8313961
Probable space group: P 4/M B M
;
_chemical_formula_sum "Si O2"
_cell_formula_units_Z 96
_cell_length_a 24.015333
_cell_length_b 24.015333
_cell_length_c 9.078013
_cell_angle_alpha 90.000000
_cell_angle_beta 90.000000
_cell_angle_gamma 90.000000
_cell_volume 5235.618895
_symmetry_space_group_name_H-M "P 4/M B M"
_symmetry_group_IT_number 127
_symmetry_cell_setting 'tetragonal'
loop_
_space_group_symop_operation_xyz
x,y,z
-y,x,z
-x,-y,z
y,-x,z
1/2+x,1/2-y,-z
1/2-x,1/2+y,-z
1/2+y,1/2+x,-z
1/2-y,1/2-x,-z
-x,-y,-z
y,-x,-z
x,y,-z
-y,x,-z
1/2-x,1/2+y,z
1/2+x,1/2-y,z
1/2-y,1/2-x,z
1/2+y,1/2+x,z
loop_
_atom_site_type_symbol
_atom_site_label
_atom_site_fract_x
_atom_site_fract_y
_atom_site_fract_z
Si Si1 0.562209 0.562706 0.174883
Si Si2 0.138012 0.727738 0.326021
Si Si3 0.634482 0.224081 0.831253
Si Si4 0.557344 0.851478 0.831874
Si Si5 0.851429 0.155412 0.172628
Si Si6 0.353384 0.945431 0.332930
O O1 0.499702 0.578121 0.230255
O O2 0.606869 0.607652 0.234000
O O3 0.563683 0.562929 0.000000
O O4 0.133177 0.731288 0.500000
O O5 0.193586 0.693586 0.278567
O O6 0.083668 0.697609 0.263916
O O7 0.137563 0.788697 0.260092
O O8 0.693788 0.193788 0.800506
O O9 0.637640 0.288724 0.793426
O O10 0.587144 0.200368 0.725576
O O11 0.616451 0.214437 0.000000
O O12 0.592629 0.907372 0.818175
O O13 0.497374 0.865989 0.769581
O O14 0.553133 0.831047 0.000000
O O15 0.860771 0.166530 0.000000
O O16 0.341682 0.964240 0.500000
O O17 0.407288 0.907288 0.322268
#
# Coordination Sequence:
#
# PCOD8313961 Si02
#       6
#    16  16  16  16  16  16
#     4   8  15  29  48  72 104 137 168 207 254 301
#     4  10  21  36  53  75 106 140 171 210 264 321
#     4   9  18  32  49  72 105 140 174 219 270 315
#     4  10  21  37  57  79 104 137 177 221 267 315
#     4  10  19  31  53  82 105 133 178 223 262 309
#     4  10  21  36  54  77 107 143 180 219 265 316
#
# _framework density 18.335940999999998
#
# number of rings (size 3 to 8) (size 9 to 14) (size 15 to 20)
#    0.000    2.500    0.000    2.500    0.000    6.000 
#    0.000    6.667    0.000    1.000    0.000    1.167 
#    0.000    0.000    0.000    0.000    0.000    0.000 
#
# Total GULP energy -1190412.934575 kJ/mol
# GULP energy per Si atom -12400.134735 kJ/mol
# Density = 1.829421 g / cm^3
# Si number density = 18.335941 Si / 1000 Ang^3
#
#
#
# Elastic Constant Matrix: (Units=GPa)
#
#
# Indices 1 2 3 4 5 6 
#
# 1 170.0762 17.9279 49.7466 0.0000 0.0000 0.0000
# 2 17.9279 170.0762 49.7466 0.0000 0.0000 0.0000
# 3 49.7466 49.7466 46.7225 0.0000 0.0000 0.0000
# 4 0.0000 0.0000 0.0000 21.9115 0.0000 0.0000
# 5 0.0000 0.0000 0.0000 0.0000 21.9115 0.0000
# 6 0.0000 0.0000 0.0000 0.0000 0.0000 19.2167
#
#
#
# Elastic Compliance Matrix: (Units=1/GPa)
#
#
# Indices 1 2 3 4 5 6 
#
# 1 0.009379 0.002806 -0.012973 0.000000 0.000000 0.000000
# 2 0.002806 0.009379 -0.012973 0.000000 0.000000 0.000000
# 3 -0.012973 -0.012973 0.049029 0.000000 0.000000 0.000000
# 4 0.000000 0.000000 0.000000 0.045638 0.000000 0.000000
# 5 0.000000 0.000000 0.000000 0.000000 0.045638 0.000000
# 6 0.000000 0.000000 0.000000 0.000000 0.000000 0.052038
#
#
# Mechanical properties :
#
#
# Convention : Reuss Voigt Hill
#
# Bulk Modulus (GPa) = 46.50069 69.07969 57.79019
# Shear Modulus (GPa) = 18.90009 30.57154 24.73581
#
# Velocity S-wave (km/s) = 3.21404 4.08769 3.67690
# Velocity P-wave (km/s) = 6.26010 7.74824 7.04358
#
# Compressibility (1/GPa) = 0.02150506
#
# Stress axis : x y z
#
# Youngs Moduli (GPa) = 106.62653 106.62653 20.39623
#
# Poissons Ratio (x) = -0.29919 0.26460
# Poissons Ratio (y) = -0.29919 0.26460
# Poissons Ratio (z) = 1.38328 1.38328
#
# Static dielectric constant tensor:
#      x y z
#    x 3.545660 0.000000 0.000000 
#    y 0.000000 3.545660 0.000000 
#    z 0.000000 0.000000 3.314310 
# 
# 
# High freq. dielectric constant tensor:
#      x y z
#    x 1.713150 0.000000 0.000000 
#    y 0.000000 1.713150 0.000000 
#    z 0.000000 0.000000 1.698030 
# 
# From -- ./inp_files/1931.got.cif
#   From: 2010.03.12/outbox.cif.g09.slc.cpg/sg127_1_cif.got.tgz:1931.got - 2010.04.06 17:03:15.
