data_PCOD8313890
_publ_section_title
;
Structure prediction by ZEFSAII (Michael W. Deem and Ramdas Pophale) SiO2 
 PCOD8313890
Probable space group: P 4/M B M
;
_chemical_formula_sum "Si O2"
_cell_formula_units_Z 96
_cell_length_a 22.914743
_cell_length_b 22.914743
_cell_length_c 10.134403
_cell_angle_alpha 90.000000
_cell_angle_beta 90.000000
_cell_angle_gamma 90.000000
_cell_volume 5321.427527
_symmetry_space_group_name_H-M "P 4/M B M"
_symmetry_group_IT_number 127
_symmetry_cell_setting 'tetragonal'
loop_
_space_group_symop_operation_xyz
x,y,z
-y,x,z
-x,-y,z
y,-x,z
1/2+x,1/2-y,-z
1/2-x,1/2+y,-z
1/2+y,1/2+x,-z
1/2-y,1/2-x,-z
-x,-y,-z
y,-x,-z
x,y,-z
-y,x,-z
1/2-x,1/2+y,z
1/2+x,1/2-y,z
1/2-y,1/2-x,z
1/2+y,1/2+x,z
loop_
_atom_site_type_symbol
_atom_site_label
_atom_site_fract_x
_atom_site_fract_y
_atom_site_fract_z
Si Si1 0.635134 0.958714 0.850893
Si Si2 0.024353 0.739180 0.649970
Si Si3 0.843932 0.656069 0.657051
Si Si4 0.464939 0.411220 0.142997
Si Si5 0.101164 0.845214 0.649207
Si Si6 0.419436 0.919436 0.147594
Si Si7 0.603598 0.277995 0.345417
O O1 0.600485 0.899516 0.819741
O O2 0.686429 0.965130 0.747195
O O3 0.590713 0.012089 0.834976
O O4 0.660724 0.957073 0.000000
O O5 0.013871 0.716565 0.500000
O O6 0.084330 0.776841 0.653120
O O7 0.964789 0.773191 0.695920
O O8 0.853404 0.646597 0.500000
O O9 0.886069 0.613932 0.737034
O O10 0.859465 0.721842 0.701847
O O11 0.532168 0.425477 0.155044
O O12 0.450713 0.370423 0.263975
O O13 0.452870 0.381391 0.000000
O O14 0.095729 0.869161 0.500000
O O15 0.163981 0.863551 0.711555
O O16 0.399034 0.899034 0.000000
O O17 0.609188 0.283232 0.500000
#
# Coordination Sequence:
#
# PCOD8313890 Si02
#       7
#    16  16   8  16  16   8  16
#     4  10  21  37  57  81 111 143 174 215 272 330
#     4  10  20  35  55  80 109 142 182 227 270 320
#     4  10  18  33  57  77 106 146 180 217 271 324
#     4   9  18  32  49  72 103 137 175 220 271 325
#     4  10  20  34  52  78 107 138 181 228 269 314
#     4  10  19  34  58  86 110 134 174 222 267 321
#     4   9  18  33  53  77 106 140 178 222 272 322
#
# _framework density 18.040271000000001
#
# number of rings (size 3 to 8) (size 9 to 14) (size 15 to 20)
#    0.000    2.333    1.667    1.750    0.000    4.000 
#    1.500    2.500    0.000    1.500    0.000    0.000 
#    0.000    0.000    0.000    0.000    0.000    0.000 
#
# Total GULP energy -1189537.573775 kJ/mol
# GULP energy per Si atom -12391.016393 kJ/mol
# Density = 1.799921 g / cm^3
# Si number density = 18.040271 Si / 1000 Ang^3
#
#
#
# Elastic Constant Matrix: (Units=GPa)
#
#
# Indices 1 2 3 4 5 6 
#
# 1 76.1084 52.0910 39.3574 0.0000 0.0000 0.0000
# 2 52.0910 76.1084 39.3572 0.0000 0.0000 0.0000
# 3 39.3574 39.3572 85.7559 0.0000 0.0000 0.0000
# 4 0.0000 0.0000 0.0000 24.5685 0.0000 0.0000
# 5 0.0000 0.0000 0.0000 0.0000 24.5684 0.0000
# 6 0.0000 0.0000 0.0000 0.0000 0.0000 33.1400
#
#
#
# Elastic Compliance Matrix: (Units=1/GPa)
#
#
# Indices 1 2 3 4 5 6 
#
# 1 0.026249 -0.015388 -0.004985 0.000000 0.000000 0.000000
# 2 -0.015388 0.026249 -0.004984 0.000000 0.000000 0.000000
# 3 -0.004985 -0.004984 0.016236 0.000000 0.000000 0.000000
# 4 0.000000 0.000000 0.000000 0.040703 0.000000 0.000000
# 5 0.000000 0.000000 0.000000 0.000000 0.040703 0.000000
# 6 0.000000 0.000000 0.000000 0.000000 0.000000 0.030175
#
#
# Mechanical properties :
#
#
# Convention : Reuss Voigt Hill
#
# Bulk Modulus (GPa) = 55.49444 55.50932 55.50188
# Shear Modulus (GPa) = 21.09399 23.59986 22.34693
#
# Velocity S-wave (km/s) = 3.42317 3.62080 3.52337
# Velocity P-wave (km/s) = 6.81560 6.95102 6.88364
#
# Compressibility (1/GPa) = 0.01801982
#
# Stress axis : x y z
#
# Youngs Moduli (GPa) = 38.09713 38.09716 61.59054
#
# Poissons Ratio (x) = 0.58623 0.30700
# Poissons Ratio (y) = 0.58623 0.30700
# Poissons Ratio (z) = 0.18990 0.18990
#
# Static dielectric constant tensor:
#      x y z
#    x 3.423000 0.000000 0.000000 
#    y 0.000000 3.423000 0.000000 
#    z 0.000000 0.000000 3.349020 
# 
# 
# High freq. dielectric constant tensor:
#      x y z
#    x 1.691820 0.000000 0.000000 
#    y 0.000000 1.691820 0.000000 
#    z 0.000000 0.000000 1.690970 
# 
# From -- ./inp_files/2079.got.cif
#   From: 2010.03.12/outbox.cif.g09.slc.cpg/sg127_2_cif.got.tgz:2079.got - 2010.04.06 17:03:15.
