data_PCOD8313832
_publ_section_title
;
Structure prediction by ZEFSAII (Michael W. Deem and Ramdas Pophale) SiO2 
 PCOD8313832
Probable space group: P 4/M B M
;
_chemical_formula_sum "Si O2"
_cell_formula_units_Z 104
_cell_length_a 16.355411
_cell_length_b 16.355411
_cell_length_c 23.586369
_cell_angle_alpha 90.000000
_cell_angle_beta 90.000000
_cell_angle_gamma 90.000000
_cell_volume 6309.341183
_symmetry_space_group_name_H-M "P 4/M B M"
_symmetry_group_IT_number 127
_symmetry_cell_setting 'tetragonal'
loop_
_space_group_symop_operation_xyz
x,y,z
-y,x,z
-x,-y,z
y,-x,z
1/2+x,1/2-y,-z
1/2-x,1/2+y,-z
1/2+y,1/2+x,-z
1/2-y,1/2-x,-z
-x,-y,-z
y,-x,-z
x,y,-z
-y,x,-z
1/2-x,1/2+y,z
1/2+x,1/2-y,z
1/2-y,1/2-x,z
1/2+y,1/2+x,z
loop_
_atom_site_type_symbol
_atom_site_label
_atom_site_fract_x
_atom_site_fract_y
_atom_site_fract_z
Si Si1 0.922160 0.710064 0.063808
Si Si2 0.004156 0.632468 0.165153
Si Si3 0.505344 0.131864 0.500000
Si Si4 0.571386 0.208016 0.272517
Si Si5 0.117372 0.941928 0.896546
Si Si6 0.495588 0.133532 0.621403
Si Si7 0.942569 0.881924 0.763215
O O1 0.838986 0.661015 0.077792
O O2 0.993628 0.684634 0.107584
O O3 0.903055 0.806024 0.070598
O O4 0.951998 0.690870 0.000000
O O5 0.941507 0.558494 0.165483
O O6 0.988517 0.688051 0.220058
O O7 0.096118 0.596118 0.167123
O O8 0.597883 0.097883 0.500000
O O9 0.491446 0.180311 0.559726
O O10 0.443497 0.056504 0.500000
O O11 0.653105 0.153105 0.271381
O O12 0.519763 0.196706 0.329883
O O13 0.595605 0.303388 0.268680
O O14 0.131864 0.935082 0.829913
O O15 0.036758 0.892273 0.914446
O O16 0.408299 0.091702 0.636118
O O17 0.562656 0.062656 0.617309
O O18 0.037609 0.892295 0.745477
#
# Coordination Sequence:
#
# PCOD8313832 Si02
#       7
#    16  16   8  16  16  16  16
#     4  10  20  33  49  68  92 121 150 184 227 275
#     4   9  17  29  44  63  90 122 150 177 216 268
#     4   7  10  18  32  54  90 131 162 184 213 264
#     4  10  17  27  47  72  95 118 150 193 235 274
#     4   9  18  34  55  72  86 112 152 193 231 275
#     4   8  13  21  36  62  96 130 158 185 223 273
#     4   9  18  33  51  68  90 121 155 189 229 277
#
# _framework density 16.483495999999999
#
# number of rings (size 3 to 8) (size 9 to 14) (size 15 to 20)
#    0.000    3.000    1.538    2.308    0.000    2.769 
#    0.000    4.615    0.000    0.000    0.000    1.077 
#    0.000    4.923    0.000    0.000    0.000    0.000 
#
# Total GULP energy -1288756.089012 kJ/mol
# GULP energy per Si atom -12391.885471 kJ/mol
# Density = 1.644598 g / cm^3
# Si number density = 16.483496 Si / 1000 Ang^3
#
#
#
# Elastic Constant Matrix: (Units=GPa)
#
#
# Indices 1 2 3 4 5 6 
#
# 1 67.0366 22.4258 28.8215 0.0000 0.0000 0.0000
# 2 22.4258 67.0367 28.8217 0.0000 0.0000 0.0000
# 3 28.8215 28.8217 106.2894 0.0000 0.0000 0.0000
# 4 0.0000 0.0000 0.0000 15.5297 0.0000 0.0000
# 5 0.0000 0.0000 0.0000 0.0000 15.5298 0.0000
# 6 0.0000 0.0000 0.0000 0.0000 0.0000 12.6834
#
#
#
# Elastic Compliance Matrix: (Units=1/GPa)
#
#
# Indices 1 2 3 4 5 6 
#
# 1 0.017980 -0.004436 -0.003673 0.000000 0.000000 0.000000
# 2 -0.004436 0.017980 -0.003673 0.000000 0.000000 0.000000
# 3 -0.003673 -0.003673 0.011400 0.000000 0.000000 0.000000
# 4 0.000000 0.000000 0.000000 0.064393 0.000000 0.000000
# 5 0.000000 0.000000 0.000000 0.000000 0.064393 0.000000
# 6 0.000000 0.000000 0.000000 0.000000 0.000000 0.078843
#
#
# Mechanical properties :
#
#
# Convention : Reuss Voigt Hill
#
# Bulk Modulus (GPa) = 42.02054 44.50008 43.26031
# Shear Modulus (GPa) = 17.45298 19.43482 18.44390
#
# Velocity S-wave (km/s) = 3.25747 3.43745 3.34867
# Velocity P-wave (km/s) = 6.30048 6.54294 6.42285
#
# Compressibility (1/GPa) = 0.02379789
#
# Stress axis : x y z
#
# Youngs Moduli (GPa) = 55.61680 55.61677 87.71881
#
# Poissons Ratio (x) = 0.24671 0.32216
# Poissons Ratio (y) = 0.24671 0.32217
# Poissons Ratio (z) = 0.20426 0.20426
#
# Static dielectric constant tensor:
#      x y z
#    x 2.919770 0.000000 0.000000 
#    y 0.000000 2.919770 0.000000 
#    z 0.000000 0.000000 3.331720 
# 
# 
# High freq. dielectric constant tensor:
#      x y z
#    x 1.604490 0.000000 0.000000 
#    y 0.000000 1.604490 0.000000 
#    z 0.000000 0.000000 1.633460 
# 
# From -- ./inp_files/5936.got.cif
#   From: 2010.03.12/outbox.cif.g09.slc.cpg/sg127_3_cif.got.tgz:5936.got - 2010.04.06 17:03:15.
