data_PCOD8313818
_publ_section_title
;
Structure prediction by ZEFSAII (Michael W. Deem and Ramdas Pophale) SiO2 
 PCOD8313818
Probable space group: P 4/N N C
;
_chemical_formula_sum "Si O2"
_cell_formula_units_Z 88
_cell_length_a 16.707378
_cell_length_b 16.707378
_cell_length_c 14.309340
_cell_angle_alpha 90.000000
_cell_angle_beta 90.000000
_cell_angle_gamma 90.000000
_cell_volume 3994.258793
_symmetry_space_group_name_H-M "P 4/N N C"
_symmetry_group_IT_number 126
_space_group.IT_coordinate_system_code '2'
_symmetry_cell_setting 'tetragonal'
loop_
_space_group_symop_operation_xyz
x,y,z
1/2-y,x,z
1/2-x,1/2-y,z
y,1/2-x,z
x,1/2-y,1/2-z
1/2-x,y,1/2-z
y,x,1/2-z
1/2-y,1/2-x,1/2-z
-x,-y,-z
1/2+y,-x,-z
1/2+x,1/2+y,-z
-y,1/2+x,-z
-x,1/2+y,1/2+z
1/2+x,-y,1/2+z
-y,-x,1/2+z
1/2+y,1/2+x,1/2+z
loop_
_atom_site_type_symbol
_atom_site_label
_atom_site_fract_x
_atom_site_fract_y
_atom_site_fract_z
Si Si1 0.500000 0.500000 0.250000
Si Si2 0.278070 0.120160 0.500000
Si Si3 0.605038 0.066883 0.895282
Si Si4 0.394962 0.566883 0.604718
Si Si5 0.515130 0.226997 0.853860
Si Si6 0.484870 0.773003 0.853860
O O1 0.498767 0.424265 0.178772
O O2 0.575735 0.501233 0.321228
O O3 0.344622 0.188755 0.500000
O O4 0.290995 0.066519 0.408521
O O5 0.290995 0.066519 0.591479
O O6 0.573463 0.150979 0.855855
O O7 0.700790 0.065152 0.900196
O O8 0.571496 0.051528 0.000000
O O9 0.299210 0.565152 0.599804
O O10 0.426537 0.650979 0.644145
O O11 0.490271 0.250000 0.750000
O O12 0.509729 0.750000 0.750000
#
# Coordination Sequence:
#
# PCOD8313818 Si02
#       6
#     8  16  16  16  16  16
#     4  12  26  40  72 104 142 188 250 284 354 416
#     4  11  28  46  68 101 140 190 238 289 356 424
#     4  12  25  44  70 107 139 190 237 296 357 423
#     4  12  25  44  70 107 139 190 237 296 357 423
#     4  12  25  46  72 103 144 184 236 293 361 423
#     4  12  25  46  72 103 144 184 236 293 361 423
#
# _framework density 22.031621999999999
#
# number of rings (size 3 to 8) (size 9 to 14) (size 15 to 20)
#    0.000    0.182    7.273    0.545    5.091    2.182 
#    0.000    5.455    0.000    0.000    0.000    0.000 
#    0.000    0.000    0.000    0.000    0.000    0.000 
#
# Total GULP energy -1091118.051349 kJ/mol
# GULP energy per Si atom -12399.068765 kJ/mol
# Density = 2.198148 g / cm^3
# Si number density = 22.031622 Si / 1000 Ang^3
#
#
#
# Elastic Constant Matrix: (Units=GPa)
#
#
# Indices 1 2 3 4 5 6 
#
# 1 80.4406 51.0171 16.2270 0.0000 0.0000 0.0000
# 2 51.0171 80.4406 16.2270 0.0000 0.0000 0.0000
# 3 16.2270 16.2270 171.5644 0.0000 0.0000 0.0000
# 4 0.0000 0.0000 0.0000 34.2080 0.0000 0.0000
# 5 0.0000 0.0000 0.0000 0.0000 34.2080 0.0000
# 6 0.0000 0.0000 0.0000 0.0000 0.0000 35.2164
#
#
#
# Elastic Compliance Matrix: (Units=1/GPa)
#
#
# Indices 1 2 3 4 5 6 
#
# 1 0.020888 -0.013099 -0.000737 0.000000 0.000000 0.000000
# 2 -0.013099 0.020888 -0.000737 0.000000 0.000000 0.000000
# 3 -0.000737 -0.000737 0.005968 0.000000 0.000000 0.000000
# 4 0.000000 0.000000 0.000000 0.029233 0.000000 0.000000
# 5 0.000000 0.000000 0.000000 0.000000 0.029233 0.000000
# 6 0.000000 0.000000 0.000000 0.000000 0.000000 0.028396
#
#
# Mechanical properties :
#
#
# Convention : Reuss Voigt Hill
#
# Bulk Modulus (GPa) = 53.76614 55.48753 54.62684
# Shear Modulus (GPa) = 29.42056 37.32477 33.37266
#
# Velocity S-wave (km/s) = 3.65825 4.12046 3.89622
# Velocity P-wave (km/s) = 6.50390 6.91937 6.71485
#
# Compressibility (1/GPa) = 0.01859907
#
# Stress axis : x y z
#
# Youngs Moduli (GPa) = 47.87516 47.87516 167.55832
#
# Poissons Ratio (x) = 0.62711 0.12344
# Poissons Ratio (y) = 0.62711 0.12344
# Poissons Ratio (z) = 0.03527 0.03527
#
# Static dielectric constant tensor:
#      x y z
#    x 4.010030 0.000000 0.000000 
#    y 0.000000 4.010030 0.000000 
#    z 0.000000 0.000000 4.446400 
# 
# 
# High freq. dielectric constant tensor:
#      x y z
#    x 1.859670 0.000000 0.000000 
#    y 0.000000 1.859670 0.000000 
#    z 0.000000 0.000000 1.900510 
# 
# From -- ./inp_files/3750.got.cif
#   From: 2010.03.12/outbox.cif.g09.slc.cpg/sg126_2_cif.got.tgz:3750.got - 2010.04.06 16:55:23.
