data_PCOD8313888
_publ_section_title
;
Structure prediction by ZEFSAII (Michael W. Deem and Ramdas Pophale) SiO2 
 PCOD8313888
Probable space group: P 4/M B M
;
_chemical_formula_sum "Si O2"
_cell_formula_units_Z 112
_cell_length_a 14.647845
_cell_length_b 14.647845
_cell_length_c 28.279193
_cell_angle_alpha 90.000000
_cell_angle_beta 90.000000
_cell_angle_gamma 90.000000
_cell_volume 6067.565640
_symmetry_space_group_name_H-M "P 4/M B M"
_symmetry_group_IT_number 127
_symmetry_cell_setting 'tetragonal'
loop_
_space_group_symop_operation_xyz
x,y,z
-y,x,z
-x,-y,z
y,-x,z
1/2+x,1/2-y,-z
1/2-x,1/2+y,-z
1/2+y,1/2+x,-z
1/2-y,1/2-x,-z
-x,-y,-z
y,-x,-z
x,y,-z
-y,x,-z
1/2-x,1/2+y,z
1/2+x,1/2-y,z
1/2-y,1/2-x,z
1/2+y,1/2+x,z
loop_
_atom_site_type_symbol
_atom_site_label
_atom_site_fract_x
_atom_site_fract_y
_atom_site_fract_z
Si Si1 0.436500 0.637420 0.214085
Si Si2 0.146665 0.034145 0.447495
Si Si3 0.504187 0.850987 0.051629
Si Si4 0.308658 0.346058 0.307641
Si Si5 0.049925 0.296972 0.148556
Si Si6 0.076649 0.576649 0.205393
Si Si7 0.574367 0.925634 0.310851
Si Si8 0.742576 0.476498 0.354033
O O1 0.380417 0.544292 0.214181
O O2 0.402043 0.696101 0.258763
O O3 0.416962 0.699157 0.168033
O O4 0.189671 0.044236 0.500000
O O5 0.224097 0.052638 0.408291
O O6 0.066752 0.107040 0.440569
O O7 0.431356 0.931356 0.053817
O O8 0.483184 0.781381 0.094344
O O9 0.604053 0.895948 0.058688
O O10 0.499410 0.801721 0.000000
O O11 0.237646 0.262355 0.307676
O O12 0.285924 0.418562 0.348349
O O13 0.410404 0.310946 0.317883
O O14 0.134117 0.365884 0.151469
O O15 0.963812 0.334859 0.178757
O O16 0.107284 0.607284 0.258491
O O17 0.000000 0.500000 0.205657
O O18 0.530114 0.848283 0.342751
O O19 0.500000 0.000000 0.299751
#
# Coordination Sequence:
#
# PCOD8313888 Si02
#       8
#    16  16  16  16  16   8   8  16
#     4  11  24  40  55  76 112 153 194 242 290 343
#     4   9  18  34  60  91 117 144 186 246 306 353
#     4   8  13  24  47  81 115 145 182 234 295 349
#     4  12  24  39  60  88 119 157 198 245 299 357
#     4  10  18  33  55  82 113 149 191 238 292 348
#     4   9  18  32  53  79 113 153 185 223 275 335
#     4  11  24  40  55  83 125 170 201 232 291 370
#     4  12  22  38  63  88 121 152 196 250 297 355
#
# _framework density 18.458804000000001
#
# number of rings (size 3 to 8) (size 9 to 14) (size 15 to 20)
#    0.000    1.714    4.286    2.571    0.000    1.429 
#    1.286    0.357    0.000    3.857    0.000    3.000 
#    0.000    0.000    0.000    0.000    0.000    0.000 
#
# Total GULP energy -1388333.268528 kJ/mol
# GULP energy per Si atom -12395.832755 kJ/mol
# Density = 1.841679 g / cm^3
# Si number density = 18.458804 Si / 1000 Ang^3
#
#
#
# Elastic Constant Matrix: (Units=GPa)
#
#
# Indices 1 2 3 4 5 6 
#
# 1 71.0022 8.2636 35.5094 0.0000 0.0000 0.0000
# 2 8.2636 71.0022 35.5094 0.0000 0.0000 0.0000
# 3 35.5094 35.5094 157.3604 0.0000 0.0000 0.0000
# 4 0.0000 0.0000 0.0000 28.1441 0.0000 0.0000
# 5 0.0000 0.0000 0.0000 0.0000 28.1441 0.0000
# 6 0.0000 0.0000 0.0000 0.0000 0.0000 24.1605
#
#
#
# Elastic Compliance Matrix: (Units=1/GPa)
#
#
# Indices 1 2 3 4 5 6 
#
# 1 0.015876 -0.000063 -0.003568 0.000000 0.000000 0.000000
# 2 -0.000063 0.015876 -0.003568 0.000000 0.000000 0.000000
# 3 -0.003568 -0.003568 0.007965 0.000000 0.000000 0.000000
# 4 0.000000 0.000000 0.000000 0.035531 0.000000 0.000000
# 5 0.000000 0.000000 0.000000 0.000000 0.035531 0.000000
# 6 0.000000 0.000000 0.000000 0.000000 0.000000 0.041390
#
#
# Mechanical properties :
#
#
# Convention : Reuss Voigt Hill
#
# Bulk Modulus (GPa) = 39.49790 50.88106 45.18948
# Shear Modulus (GPa) = 28.57001 30.76188 29.66594
#
# Velocity S-wave (km/s) = 3.93844 4.08673 4.01327
# Velocity P-wave (km/s) = 6.49046 7.06349 6.78303
#
# Compressibility (1/GPa) = 0.02531780
#
# Stress axis : x y z
#
# Youngs Moduli (GPa) = 62.98825 62.98825 125.54537
#
# Poissons Ratio (x) = 0.00398 0.44798
# Poissons Ratio (y) = 0.00398 0.44798
# Poissons Ratio (z) = 0.22476 0.22476
#
# Static dielectric constant tensor:
#      x y z
#    x 3.160800 0.000000 0.000000 
#    y 0.000000 3.160800 0.000000 
#    z 0.000000 0.000000 3.639910 
# 
# 
# High freq. dielectric constant tensor:
#      x y z
#    x 1.694290 0.000000 0.000000 
#    y 0.000000 1.694290 0.000000 
#    z 0.000000 0.000000 1.720820 
# 
# From -- ./inp_files/6433.got.cif
#   From: 2010.03.12/outbox.cif.g09.slc.cpg/sg127_4_cif.got.tgz:6433.got - 2010.04.06 17:03:15.
