data_PCOD8313136
_publ_section_title
;
Structure prediction by ZEFSAII (Michael W. Deem and Ramdas Pophale) SiO2 
 PCOD8313136
Probable space group: P 4/M C C
;
_chemical_formula_sum "Si O2"
_cell_formula_units_Z 120
_cell_length_a 18.028712
_cell_length_b 18.028712
_cell_length_c 24.318452
_cell_angle_alpha 90.000000
_cell_angle_beta 90.000000
_cell_angle_gamma 90.000000
_cell_volume 7904.334826
_symmetry_space_group_name_H-M "P 4/M C C"
_symmetry_group_IT_number 124
_symmetry_cell_setting 'tetragonal'
loop_
_space_group_symop_operation_xyz
x,y,z
-y,x,z
-x,-y,z
y,-x,z
x,-y,1/2-z
-x,y,1/2-z
y,x,1/2-z
-y,-x,1/2-z
-x,-y,-z
y,-x,-z
x,y,-z
-y,x,-z
-x,y,1/2+z
x,-y,1/2+z
-y,-x,1/2+z
y,x,1/2+z
loop_
_atom_site_type_symbol
_atom_site_label
_atom_site_fract_x
_atom_site_fract_y
_atom_site_fract_z
Si Si1 0.933502 0.272517 0.435825
Si Si2 0.569122 0.092594 0.640066
Si Si3 0.646628 0.916152 0.754709
Si Si4 0.697371 0.893271 0.063544
Si Si5 0.818482 0.076890 0.279206
Si Si6 0.596018 0.082341 0.861636
Si Si7 0.842742 0.864456 0.895632
Si Si8 0.104495 0.059454 0.000000
O O1 0.911652 0.263076 0.500000
O O2 0.898578 0.349022 0.412198
O O3 0.899374 0.204714 0.399496
O O4 0.021347 0.277129 0.427139
O O5 0.596305 0.124795 0.699280
O O6 0.617867 0.124438 0.590134
O O7 0.484851 0.118559 0.628974
O O8 0.582044 0.004891 0.642349
O O9 0.730776 0.913675 0.775830
O O10 0.633575 0.882900 0.693746
O O11 0.619034 0.000000 0.750000
O O12 0.756896 0.840117 0.095064
O O13 0.691586 0.872598 0.000000
O O14 0.852385 0.147616 0.250000
O O15 0.850105 0.084900 0.341141
O O16 0.844219 0.000000 0.250000
O O17 0.852002 0.921155 0.945688
O O18 0.027821 0.101323 0.000000
#
# Coordination Sequence:
#
# PCOD8313136 Si02
#       8
#    16  16  16  16  16  16  16   8
#     4  10  20  32  47  66  86 114 149 186 232 278
#     4   9  16  28  44  69  86 112 136 176 223 276
#     4   9  16  30  45  64  84 109 143 179 223 274
#     4  10  19  31  47  66  87 112 146 188 229 269
#     4  11  25  36  48  64  87 119 152 197 248 283
#     4   9  17  27  47  64  90 110 137 176 223 272
#     4  12  21  35  52  63  87 114 154 192 237 283
#     4  11  24  36  52  68  76 108 156 208 244 271
#
# _framework density 15.181543
#
# number of rings (size 3 to 8) (size 9 to 14) (size 15 to 20)
#    0.000    1.933    2.667    2.000    5.600    2.267 
#    0.000    2.667    0.000    0.000    0.000    0.000 
#    0.000    0.000    0.000    0.000    0.000    0.667 
#
# Total GULP energy -1486794.489477 kJ/mol
# GULP energy per Si atom -12389.954079 kJ/mol
# Density = 1.514699 g / cm^3
# Si number density = 15.181543 Si / 1000 Ang^3
#
#
#
# Elastic Constant Matrix: (Units=GPa)
#
#
# Indices 1 2 3 4 5 6 
#
# 1 46.8328 7.5291 22.7688 0.0000 0.0000 0.0000
# 2 7.5291 46.8297 22.7685 0.0000 0.0000 0.0000
# 3 22.7688 22.7685 101.0069 0.0000 0.0000 0.0000
# 4 0.0000 0.0000 0.0000 24.9774 0.0000 0.0000
# 5 0.0000 0.0000 0.0000 0.0000 24.9776 0.0000
# 6 0.0000 0.0000 0.0000 0.0000 0.0000 4.5756
#
#
#
# Elastic Compliance Matrix: (Units=1/GPa)
#
#
# Indices 1 2 3 4 5 6 
#
# 1 0.024060 -0.001383 -0.005112 0.000000 0.000000 0.000000
# 2 -0.001383 0.024062 -0.005112 0.000000 0.000000 0.000000
# 3 -0.005112 -0.005112 0.012205 0.000000 0.000000 0.000000
# 4 0.000000 0.000000 0.000000 0.040036 0.000000 0.000000
# 5 0.000000 0.000000 0.000000 0.000000 0.040036 0.000000
# 6 0.000000 0.000000 0.000000 0.000000 0.000000 0.218549
#
#
# Mechanical properties :
#
#
# Convention : Reuss Voigt Hill
#
# Bulk Modulus (GPa) = 26.94468 33.42245 30.18357
# Shear Modulus (GPa) = 12.67322 20.34632 16.50977
#
# Velocity S-wave (km/s) = 2.89239 3.66485 3.30129
# Velocity P-wave (km/s) = 5.37972 6.32227 5.86994
#
# Compressibility (1/GPa) = 0.03711307
#
# Stress axis : x y z
#
# Youngs Moduli (GPa) = 41.56253 41.55955 81.93377
#
# Poissons Ratio (x) = 0.05747 0.41883
# Poissons Ratio (y) = 0.05748 0.41886
# Poissons Ratio (z) = 0.21246 0.21246
#
# Static dielectric constant tensor:
#      x y z
#    x 2.793000 0.000000 0.000000 
#    y 0.000000 2.793000 0.000000 
#    z 0.000000 0.000000 3.253520 
# 
# 
# High freq. dielectric constant tensor:
#      x y z
#    x 1.542460 0.000000 0.000000 
#    y 0.000000 1.542460 0.000000 
#    z 0.000000 0.000000 1.605970 
# 
# From -- ./inp_files/6688.got.cif
#   From: 2010.03.12/outbox.cif.g09.slc.cpg/sg124_4_cif.got.tgz:6688.got - 2010.04.06 16:38:57.
