data_PCOD8313764
_publ_section_title
;
Structure prediction by ZEFSAII (Michael W. Deem and Ramdas Pophale) SiO2 
 PCOD8313764
Probable space group: P 4/N N C
;
_chemical_formula_sum "Si O2"
_cell_formula_units_Z 80
_cell_length_a 11.132323
_cell_length_b 11.132323
_cell_length_c 32.870478
_cell_angle_alpha 90.000000
_cell_angle_beta 90.000000
_cell_angle_gamma 90.000000
_cell_volume 4073.592825
_symmetry_space_group_name_H-M "P 4/N N C"
_symmetry_group_IT_number 126
_space_group.IT_coordinate_system_code '2'
_symmetry_cell_setting 'tetragonal'
loop_
_space_group_symop_operation_xyz
x,y,z
1/2-y,x,z
1/2-x,1/2-y,z
y,1/2-x,z
x,1/2-y,1/2-z
1/2-x,y,1/2-z
y,x,1/2-z
1/2-y,1/2-x,1/2-z
-x,-y,-z
1/2+y,-x,-z
1/2+x,1/2+y,-z
-y,1/2+x,-z
-x,1/2+y,1/2+z
1/2+x,-y,1/2+z
-y,-x,1/2+z
1/2+y,1/2+x,1/2+z
loop_
_atom_site_type_symbol
_atom_site_label
_atom_site_fract_x
_atom_site_fract_y
_atom_site_fract_z
Si Si1 0.102248 0.735232 0.895001
Si Si2 0.116439 0.394490 0.704421
Si Si3 0.650643 0.582614 0.054739
Si Si4 0.020775 0.512753 0.128323
Si Si5 0.806617 0.079455 0.986566
O O1 0.250000 0.750000 0.890522
O O2 0.022405 0.834238 0.870726
O O3 0.055468 0.740582 0.941507
O O4 0.049196 0.611004 0.878283
O O5 0.083987 0.256643 0.697313
O O6 0.072818 0.427183 0.750000
O O7 0.052197 0.478668 0.672501
O O8 0.791889 0.587801 0.060114
O O9 0.603959 0.501165 0.091111
O O10 0.624120 0.530154 0.009208
O O11 0.694203 0.106476 0.016255
#
# Coordination Sequence:
#
# PCOD8313764 Si02
#       5
#    16  16  16  16  16
#     4  12  25  41  63  91 122 171 217 264 320 377
#     4   9  18  36  66 100 129 157 198 262 333 388
#     4  11  23  36  57  87 113 151 211 271 320 368
#     4  12  24  41  63  88 128 168 211 261 318 386
#     4  11  20  37  56  78 117 162 208 256 319 374
#
# _framework density 19.638681999999999
#
# number of rings (size 3 to 8) (size 9 to 14) (size 15 to 20)
#    0.000    1.000    4.000    5.400    2.800    3.600 
#    0.000    1.000    0.000    3.600    0.000    1.400 
#    0.000    0.000    0.000    0.000    0.000    0.000 
#
# Total GULP energy -991050.145527 kJ/mol
# GULP energy per Si atom -12388.126819 kJ/mol
# Density = 1.959398 g / cm^3
# Si number density = 19.638682 Si / 1000 Ang^3
#
#
#
# Elastic Constant Matrix: (Units=GPa)
#
#
# Indices 1 2 3 4 5 6 
#
# 1 98.1108 38.9503 51.6310 0.0000 0.0000 0.0000
# 2 38.9503 98.1099 51.6301 0.0000 0.0000 0.0000
# 3 51.6310 51.6301 141.4231 0.0000 0.0000 0.0000
# 4 0.0000 0.0000 0.0000 12.2952 0.0000 0.0000
# 5 0.0000 0.0000 0.0000 0.0000 12.2947 0.0000
# 6 0.0000 0.0000 0.0000 0.0000 0.0000 33.1933
#
#
#
# Elastic Compliance Matrix: (Units=1/GPa)
#
#
# Indices 1 2 3 4 5 6 
#
# 1 0.013484 -0.003420 -0.003674 0.000000 0.000000 0.000000
# 2 -0.003420 0.013484 -0.003674 0.000000 0.000000 0.000000
# 3 -0.003674 -0.003674 0.009754 0.000000 0.000000 0.000000
# 4 0.000000 0.000000 0.000000 0.081333 0.000000 0.000000
# 5 0.000000 0.000000 0.000000 0.000000 0.081336 0.000000
# 6 0.000000 0.000000 0.000000 0.000000 0.000000 0.030127
#
#
# Mechanical properties :
#
#
# Convention : Reuss Voigt Hill
#
# Bulk Modulus (GPa) = 65.85345 69.11852 67.48599
# Shear Modulus (GPa) = 19.52255 24.58546 22.05401
#
# Velocity S-wave (km/s) = 3.15633 3.54204 3.35474
# Velocity P-wave (km/s) = 6.84752 7.21107 7.03165
#
# Compressibility (1/GPa) = 0.01518523
#
# Stress axis : x y z
#
# Youngs Moduli (GPa) = 74.16350 74.16329 102.52476
#
# Poissons Ratio (x) = 0.25361 0.37670
# Poissons Ratio (y) = 0.25361 0.37669
# Poissons Ratio (z) = 0.27250 0.27249
#
# Static dielectric constant tensor:
#      x y z
#    x 3.708040 0.000000 0.000000 
#    y 0.000000 3.708030 0.000000 
#    z 0.000000 0.000000 3.532730 
# 
# 
# High freq. dielectric constant tensor:
#      x y z
#    x 1.765670 0.000000 0.000000 
#    y 0.000000 1.765670 0.000000 
#    z 0.000000 0.000000 1.750100 
# 
# From -- ./inp_files/6409.got.cif
#   From: 2010.03.12/outbox.cif.g09.slc.cpg/sg126_4_cif.got.tgz:6409.got - 2010.04.06 16:55:23.
