data_PCOD8313227
_publ_section_title
;
Structure prediction by ZEFSAII (Michael W. Deem and Ramdas Pophale) SiO2 
 PCOD8313227
Probable space group: P 4/M C C
;
_chemical_formula_sum "Si O2"
_cell_formula_units_Z 96
_cell_length_a 23.169585
_cell_length_b 23.169585
_cell_length_c 8.958806
_cell_angle_alpha 90.000000
_cell_angle_beta 90.000000
_cell_angle_gamma 90.000000
_cell_volume 4809.352860
_symmetry_space_group_name_H-M "P 4/M C C"
_symmetry_group_IT_number 124
_symmetry_cell_setting 'tetragonal'
loop_
_space_group_symop_operation_xyz
x,y,z
-y,x,z
-x,-y,z
y,-x,z
x,-y,1/2-z
-x,y,1/2-z
y,x,1/2-z
-y,-x,1/2-z
-x,-y,-z
y,-x,-z
x,y,-z
-y,x,-z
-x,y,1/2+z
x,-y,1/2+z
-y,-x,1/2+z
y,x,1/2+z
loop_
_atom_site_type_symbol
_atom_site_label
_atom_site_fract_x
_atom_site_fract_y
_atom_site_fract_z
Si Si1 0.737226 0.177730 0.321843
Si Si2 0.051531 0.389612 0.839527
Si Si3 0.259025 0.054450 0.664431
Si Si4 0.746483 0.373576 0.831473
Si Si5 0.855226 0.557704 0.333913
Si Si6 0.645654 0.562442 0.178715
O O1 0.792587 0.207414 0.250000
O O2 0.740611 0.175041 0.500000
O O3 0.739414 0.112943 0.260121
O O4 0.681260 0.216252 0.274108
O O5 0.034317 0.323888 0.865214
O O6 0.110942 0.390912 0.747277
O O7 0.000000 0.421537 0.750000
O O8 0.059548 0.420302 0.000000
O O9 0.229839 0.064092 0.500000
O O10 0.228270 0.000000 0.750000
O O11 0.787545 0.429430 0.831571
O O12 0.694549 0.389956 0.720638
O O13 0.722728 0.362871 0.000000
O O14 0.870675 0.500000 0.250000
O O15 0.879090 0.553016 0.500000
O O16 0.659611 0.500000 0.250000
O O17 0.585635 0.585635 0.250000
O O18 0.641119 0.557165 0.000000
#
# Coordination Sequence:
#
# PCOD8313227 Si02
#       6
#    16  16  16  16  16  16
#     4  11  22  37  58  88 123 158 199 244 290 344
#     4  10  20  34  53  75 102 139 185 235 288 340
#     4  10  20  35  57  83 114 154 197 241 293 347
#     4  10  22  40  61  87 118 154 192 235 288 345
#     4  11  22  36  53  76 106 142 188 238 287 340
#     4  12  26  45  69  94 121 150 187 231 286 352
#
# _framework density 19.961106000000001
#
# number of rings (size 3 to 8) (size 9 to 14) (size 15 to 20)
#    0.000    1.333    1.667    4.500    0.000    7.167 
#    0.000    2.500    0.000    0.000    0.000    0.000 
#    0.000    0.333    0.000    3.333    0.000    2.000 
#
# Total GULP energy -1189741.867144 kJ/mol
# GULP energy per Si atom -12393.144449 kJ/mol
# Density = 1.991567 g / cm^3
# Si number density = 19.961106 Si / 1000 Ang^3
#
#
#
# Elastic Constant Matrix: (Units=GPa)
#
#
# Indices 1 2 3 4 5 6 
#
# 1 78.8640 36.6936 48.2547 0.0000 0.0000 0.0000
# 2 36.6936 78.8672 48.2561 0.0000 0.0000 0.0000
# 3 48.2547 48.2561 171.8567 0.0000 0.0000 0.0000
# 4 0.0000 0.0000 0.0000 30.8130 0.0000 0.0000
# 5 0.0000 0.0000 0.0000 0.0000 30.8126 0.0000
# 6 0.0000 0.0000 0.0000 0.0000 0.0000 17.9298
#
#
#
# Elastic Compliance Matrix: (Units=1/GPa)
#
#
# Indices 1 2 3 4 5 6 
#
# 1 0.017509 -0.006204 -0.003174 0.000000 0.000000 0.000000
# 2 -0.006204 0.017508 -0.003174 0.000000 0.000000 0.000000
# 3 -0.003174 -0.003174 0.007601 0.000000 0.000000 0.000000
# 4 0.000000 0.000000 0.000000 0.032454 0.000000 0.000000
# 5 0.000000 0.000000 0.000000 0.000000 0.032454 0.000000
# 6 0.000000 0.000000 0.000000 0.000000 0.000000 0.055773
#
#
# Mechanical properties :
#
#
# Convention : Reuss Voigt Hill
#
# Bulk Modulus (GPa) = 57.09819 66.22185 61.66002
# Shear Modulus (GPa) = 25.74110 29.00332 27.37221
#
# Velocity S-wave (km/s) = 3.59494 3.81595 3.70709
# Velocity P-wave (km/s) = 6.77483 7.25691 7.02001
#
# Compressibility (1/GPa) = 0.01751369
#
# Stress axis : x y z
#
# Youngs Moduli (GPa) = 57.11411 57.11623 131.55545
#
# Poissons Ratio (x) = 0.35435 0.41758
# Poissons Ratio (y) = 0.35433 0.41758
# Poissons Ratio (z) = 0.18129 0.18130
#
# Static dielectric constant tensor:
#      x y z
#    x 3.471850 0.000000 0.000000 
#    y 0.000000 3.471840 0.000000 
#    z 0.000000 0.000000 4.000860 
# 
# 
# High freq. dielectric constant tensor:
#      x y z
#    x 1.756760 0.000000 0.000000 
#    y 0.000000 1.756760 0.000000 
#    z 0.000000 0.000000 1.798760 
# 
# From -- ./inp_files/1335.got.cif
#   From: 2010.03.12/outbox.cif.g09.slc.cpg/sg124_1_cif.got.tgz:1335.got - 2010.04.06 16:38:57.
