data_PCOD8313767
_publ_section_title
;
Structure prediction by ZEFSAII (Michael W. Deem and Ramdas Pophale) SiO2 
 PCOD8313767
Probable space group: P 4/N N C
;
_chemical_formula_sum "Si O2"
_cell_formula_units_Z 96
_cell_length_a 14.314155
_cell_length_b 14.314155
_cell_length_c 22.769810
_cell_angle_alpha 90.000000
_cell_angle_beta 90.000000
_cell_angle_gamma 90.000000
_cell_volume 4665.420980
_symmetry_space_group_name_H-M "P 4/N N C"
_symmetry_group_IT_number 126
_space_group.IT_coordinate_system_code '2'
_symmetry_cell_setting 'tetragonal'
loop_
_space_group_symop_operation_xyz
x,y,z
1/2-y,x,z
1/2-x,1/2-y,z
y,1/2-x,z
x,1/2-y,1/2-z
1/2-x,y,1/2-z
y,x,1/2-z
1/2-y,1/2-x,1/2-z
-x,-y,-z
1/2+y,-x,-z
1/2+x,1/2+y,-z
-y,1/2+x,-z
-x,1/2+y,1/2+z
1/2+x,-y,1/2+z
-y,-x,1/2+z
1/2+y,1/2+x,1/2+z
loop_
_atom_site_type_symbol
_atom_site_label
_atom_site_fract_x
_atom_site_fract_y
_atom_site_fract_z
Si Si1 0.647423 0.505700 0.722999
Si Si2 0.851664 0.992210 0.221437
Si Si3 0.189993 0.390564 0.607050
Si Si4 0.044963 0.359325 0.022622
Si Si5 0.986705 0.679450 0.588872
Si Si6 0.349577 0.848678 0.514964
O O1 0.750000 0.489780 0.750000
O O2 0.594809 0.594809 0.750000
O O3 0.586538 0.411716 0.731366
O O4 0.659032 0.533531 0.655658
O O5 0.750000 0.006123 0.250000
O O6 0.903353 0.903353 0.250000
O O7 0.842610 0.971622 0.151788
O O8 0.129222 0.298516 0.618649
O O9 0.176418 0.423356 0.540747
O O10 0.058738 0.277657 0.070618
O O11 0.101038 0.446863 0.045645
O O12 0.937430 0.391625 0.019008
O O13 0.097895 0.676043 0.575773
O O14 0.363825 0.760175 0.470981
#
# Coordination Sequence:
#
# PCOD8313767 Si02
#       6
#    16  16  16  16  16  16
#     4  11  26  49  68  95 128 175 243 295 337 396
#     4  11  23  42  69 101 138 183 224 271 338 407
#     4  11  21  36  62 103 145 176 212 266 333 421
#     4  11  21  37  62  98 133 167 206 269 334 396
#     4  11  22  40  64  90 126 169 211 269 339 389
#     4   9  20  38  58  89 128 171 213 251 312 399
#
# _framework density 20.576920000000001
#
# number of rings (size 3 to 8) (size 9 to 14) (size 15 to 20)
#    0.000    1.333    3.333    2.500    0.000    1.000 
#    0.000   20.000    0.000    0.000    0.000    0.000 
#    0.000    0.000    0.000    0.000    0.000    0.000 
#
# Total GULP energy -1190258.916293 kJ/mol
# GULP energy per Si atom -12398.530378 kJ/mol
# Density = 2.053009 g / cm^3
# Si number density = 20.576920 Si / 1000 Ang^3
#
#
#
# Elastic Constant Matrix: (Units=GPa)
#
#
# Indices 1 2 3 4 5 6 
#
# 1 115.1620 49.8466 43.9890 0.0000 0.0000 0.0000
# 2 49.8466 115.1620 43.9890 0.0000 0.0000 0.0000
# 3 43.9890 43.9890 137.3917 0.0000 0.0000 0.0000
# 4 0.0000 0.0000 0.0000 28.2940 0.0000 0.0000
# 5 0.0000 0.0000 0.0000 0.0000 28.2940 0.0000
# 6 0.0000 0.0000 0.0000 0.0000 0.0000 24.2687
#
#
#
# Elastic Compliance Matrix: (Units=1/GPa)
#
#
# Indices 1 2 3 4 5 6 
#
# 1 0.011309 -0.004001 -0.002340 0.000000 0.000000 0.000000
# 2 -0.004001 0.011309 -0.002340 0.000000 0.000000 0.000000
# 3 -0.002340 -0.002340 0.008777 0.000000 0.000000 0.000000
# 4 0.000000 0.000000 0.000000 0.035343 0.000000 0.000000
# 5 0.000000 0.000000 0.000000 0.000000 0.035343 0.000000
# 6 0.000000 0.000000 0.000000 0.000000 0.000000 0.041205
#
#
# Mechanical properties :
#
#
# Convention : Reuss Voigt Hill
#
# Bulk Modulus (GPa) = 71.25921 71.48498 71.37210
# Shear Modulus (GPa) = 30.24333 31.49743 30.87038
#
# Velocity S-wave (km/s) = 3.83792 3.91668 3.87750
# Velocity P-wave (km/s) = 7.37193 7.43436 7.40321
#
# Compressibility (1/GPa) = 0.01403327
#
# Stress axis : x y z
#
# Youngs Moduli (GPa) = 88.42473 88.42473 113.93805
#
# Poissons Ratio (x) = 0.35381 0.26659
# Poissons Ratio (y) = 0.35381 0.26659
# Poissons Ratio (z) = 0.20689 0.20689
#
# Static dielectric constant tensor:
#      x y z
#    x 3.900650 0.000000 0.000000 
#    y 0.000000 3.900650 0.000000 
#    z 0.000000 0.000000 3.572730 
# 
# 
# High freq. dielectric constant tensor:
#      x y z
#    x 1.815470 0.000000 0.000000 
#    y 0.000000 1.815470 0.000000 
#    z 0.000000 0.000000 1.792530 
# 
# From -- ./inp_files/5269.got.cif
#   From: 2010.03.12/outbox.cif.g09.slc.cpg/sg126_3_cif.got.tgz:5269.got - 2010.04.06 16:55:23.
