data_PCOD8313644
_publ_section_title
;
Structure prediction by ZEFSAII (Michael W. Deem and Ramdas Pophale) SiO2 
 PCOD8313644
Probable space group: P 4/N N C
;
_chemical_formula_sum "Si O2"
_cell_formula_units_Z 96
_cell_length_a 24.851232
_cell_length_b 24.851232
_cell_length_c 9.678364
_cell_angle_alpha 90.000000
_cell_angle_beta 90.000000
_cell_angle_gamma 90.000000
_cell_volume 5977.200158
_symmetry_space_group_name_H-M "P 4/N N C"
_symmetry_group_IT_number 126
_space_group.IT_coordinate_system_code '2'
_symmetry_cell_setting 'tetragonal'
loop_
_space_group_symop_operation_xyz
x,y,z
1/2-y,x,z
1/2-x,1/2-y,z
y,1/2-x,z
x,1/2-y,1/2-z
1/2-x,y,1/2-z
y,x,1/2-z
1/2-y,1/2-x,1/2-z
-x,-y,-z
1/2+y,-x,-z
1/2+x,1/2+y,-z
-y,1/2+x,-z
-x,1/2+y,1/2+z
1/2+x,-y,1/2+z
-y,-x,1/2+z
1/2+y,1/2+x,1/2+z
loop_
_atom_site_type_symbol
_atom_site_label
_atom_site_fract_x
_atom_site_fract_y
_atom_site_fract_z
Si Si1 0.992209 0.419288 0.909778
Si Si2 0.309383 0.033551 0.021285
Si Si3 0.580920 0.005728 0.088710
Si Si4 0.694613 0.890893 0.216669
Si Si5 0.192598 0.032962 0.963679
Si Si6 0.101800 0.190244 0.276607
O O1 0.050035 0.448725 0.931499
O O2 0.976446 0.420502 0.748383
O O3 0.993089 0.358444 0.969512
O O4 0.946550 0.448882 0.996406
O O5 0.357604 0.997468 0.962983
O O6 0.306863 0.090918 0.941822
O O7 0.250406 0.004796 0.001162
O O8 0.320037 0.049157 0.180324
O O9 0.750000 0.858720 0.250000
O O10 0.643176 0.856825 0.250000
O O11 0.693676 0.945010 0.307824
O O12 0.183202 0.082861 0.066518
O O13 0.124659 0.250000 0.250000
O O14 0.148701 0.148701 0.250000
#
# Coordination Sequence:
#
# PCOD8313644 Si02
#       6
#    16  16  16  16  16  16
#     4  10  20  32  48  71  97 124 154 193 240 288
#     4  10  20  33  49  67  90 124 161 196 237 286
#     4  10  20  32  48  71  97 124 154 193 240 288
#     4  10  18  29  45  63  85 117 156 196 236 274
#     4  10  20  33  49  67  90 124 161 196 237 286
#     4  10  20  31  45  65  89 123 164 204 244 280
#
# _framework density 16.061031
#
# number of rings (size 3 to 8) (size 9 to 14) (size 15 to 20)
#    0.000    2.000    1.667    3.000    2.333    0.333 
#    0.000    0.000    0.000    6.000    0.000    0.000 
#    0.000    0.667    0.000    3.000    0.000    0.000 
#
# Total GULP energy -1189970.483203 kJ/mol
# GULP energy per Si atom -12395.525867 kJ/mol
# Density = 1.602448 g / cm^3
# Si number density = 16.061031 Si / 1000 Ang^3
#
#
#
# Elastic Constant Matrix: (Units=GPa)
#
#
# Indices 1 2 3 4 5 6 
#
# 1 91.2351 47.2196 30.1368 0.0000 0.0000 0.0000
# 2 47.2196 91.2337 30.1369 0.0000 0.0000 0.0000
# 3 30.1368 30.1369 65.9155 0.0000 0.0000 0.0000
# 4 0.0000 0.0000 0.0000 20.1262 0.0000 0.0000
# 5 0.0000 0.0000 0.0000 0.0000 20.1265 0.0000
# 6 0.0000 0.0000 0.0000 0.0000 0.0000 21.4147
#
#
#
# Elastic Compliance Matrix: (Units=1/GPa)
#
#
# Indices 1 2 3 4 5 6 
#
# 1 0.015868 -0.006851 -0.004123 0.000000 0.000000 0.000000
# 2 -0.006851 0.015869 -0.004123 0.000000 0.000000 0.000000
# 3 -0.004123 -0.004123 0.018941 0.000000 0.000000 0.000000
# 4 0.000000 0.000000 0.000000 0.049686 0.000000 0.000000
# 5 0.000000 0.000000 0.000000 0.000000 0.049686 0.000000
# 6 0.000000 0.000000 0.000000 0.000000 0.000000 0.046697
#
#
# Mechanical properties :
#
#
# Convention : Reuss Voigt Hill
#
# Bulk Modulus (GPa) = 48.81745 51.48567 50.15156
# Shear Modulus (GPa) = 21.38870 21.72624 21.55747
#
# Velocity S-wave (km/s) = 3.65322 3.68194 3.66761
# Velocity P-wave (km/s) = 6.94663 7.08530 7.01631
#
# Compressibility (1/GPa) = 0.02048448
#
# Stress axis : x y z
#
# Youngs Moduli (GPa) = 63.01845 63.01729 52.79597
#
# Poissons Ratio (x) = 0.43174 0.21766
# Poissons Ratio (y) = 0.43175 0.21767
# Poissons Ratio (z) = 0.25981 0.25981
#
# Static dielectric constant tensor:
#      x y z
#    x 2.913150 0.000000 0.000000 
#    y 0.000000 2.913150 0.000000 
#    z 0.000000 0.000000 3.340020 
# 
# 
# High freq. dielectric constant tensor:
#      x y z
#    x 1.586140 0.000000 0.000000 
#    y 0.000000 1.586140 0.000000 
#    z 0.000000 0.000000 1.643820 
# 
# From -- ./inp_files/1842.got.cif
#   From: 2010.03.12/outbox.cif.g09.slc.cpg/sg126_1_cif.got.tgz:1842.got - 2010.04.06 16:55:23.
