data_PCOD8313040
_publ_section_title
;
Structure prediction by ZEFSAII (Michael W. Deem and Ramdas Pophale) SiO2 
 PCOD8313040
Probable space group: P 4/M M M
;
_chemical_formula_sum "Si O2"
_cell_formula_units_Z 112
_cell_length_a 17.473939
_cell_length_b 17.473939
_cell_length_c 22.831021
_cell_angle_alpha 90.000000
_cell_angle_beta 90.000000
_cell_angle_gamma 90.000000
_cell_volume 6971.190714
_symmetry_space_group_name_H-M "P 4/M M M"
_symmetry_group_IT_number 123
_symmetry_cell_setting 'tetragonal'
loop_
_space_group_symop_operation_xyz
x,y,z
-y,x,z
-x,-y,z
y,-x,z
x,-y,-z
-x,y,-z
y,x,-z
-y,-x,-z
-x,-y,-z
y,-x,-z
x,y,-z
-y,x,-z
-x,y,z
x,-y,z
-y,-x,z
y,x,z
loop_
_atom_site_type_symbol
_atom_site_label
_atom_site_fract_x
_atom_site_fract_y
_atom_site_fract_z
Si Si1 0.086837 0.208746 0.391497
Si Si2 0.411389 0.284640 0.209116
Si Si3 0.913459 0.286927 0.726711
Si Si4 0.799648 0.672381 0.565104
Si Si5 0.088318 0.214232 0.067478
Si Si6 0.189498 0.586178 0.679091
Si Si7 0.175281 0.702026 0.158848
O O1 0.132302 0.132302 0.408969
O O2 0.092715 0.219890 0.321292
O O3 0.121163 0.282480 0.424354
O O4 0.000000 0.198916 0.412436
O O5 0.500000 0.301375 0.193101
O O6 0.360893 0.360893 0.197703
O O7 0.401601 0.261516 0.277302
O O8 0.382677 0.211320 0.169858
O O9 0.883043 0.364888 0.698499
O O10 0.864388 0.264338 0.783088
O O11 0.000000 0.301091 0.746763
O O12 0.800958 0.636027 0.500000
O O13 0.731059 0.731059 0.572660
O O14 0.785779 0.606573 0.612927
O O15 0.138928 0.138928 0.083097
O O16 0.115696 0.288824 0.104949
O O17 0.000000 0.194934 0.082061
O O18 0.098356 0.237140 0.000000
O O19 0.160672 0.500000 0.680855
O O20 0.247284 0.752717 0.142638
#
# Coordination Sequence:
#
# PCOD8313040 Si02
#       7
#    16  16  16  16  16  16  16
#     4   9  17  28  41  57  76  98 128 167 209 252
#     4   9  17  29  46  68  92 115 139 171 212 258
#     4   9  16  26  41  59  80 108 138 168 205 247
#     4   9  17  29  44  59  76 102 134 164 196 238
#     4   9  17  28  43  65  93 125 159 192 223 254
#     4   9  17  28  42  62  86 108 132 164 200 240
#     4   9  16  27  44  64  86 114 149 183 213 250
#
# _framework density 16.066122
#
# number of rings (size 3 to 8) (size 9 to 14) (size 15 to 20)
#    0.000    3.000    0.000    1.286    0.000    4.714 
#    0.000    0.714    0.000    1.714    0.000    9.000 
#    0.000    0.000    0.000   18.857    0.000    0.000 
#
# Total GULP energy -1387993.052883 kJ/mol
# GULP energy per Si atom -12392.795115 kJ/mol
# Density = 1.602955 g / cm^3
# Si number density = 16.066122 Si / 1000 Ang^3
#
#
#
# Elastic Constant Matrix: (Units=GPa)
#
#
# Indices 1 2 3 4 5 6 
#
# 1 71.8470 30.2264 25.3179 0.0000 0.0000 0.0000
# 2 30.2264 71.8470 25.3179 0.0000 0.0000 0.0000
# 3 25.3179 25.3179 75.3558 0.0000 0.0000 0.0000
# 4 0.0000 0.0000 0.0000 18.3235 0.0000 0.0000
# 5 0.0000 0.0000 0.0000 0.0000 18.3235 0.0000
# 6 0.0000 0.0000 0.0000 0.0000 0.0000 16.0491
#
#
#
# Elastic Compliance Matrix: (Units=1/GPa)
#
#
# Indices 1 2 3 4 5 6 
#
# 1 0.017891 -0.006135 -0.003950 0.000000 0.000000 0.000000
# 2 -0.006135 0.017891 -0.003950 0.000000 0.000000 0.000000
# 3 -0.003950 -0.003950 0.015924 0.000000 0.000000 0.000000
# 4 0.000000 0.000000 0.000000 0.054575 0.000000 0.000000
# 5 0.000000 0.000000 0.000000 0.000000 0.054575 0.000000
# 6 0.000000 0.000000 0.000000 0.000000 0.000000 0.062309
#
#
# Mechanical properties :
#
#
# Convention : Reuss Voigt Hill
#
# Bulk Modulus (GPa) = 42.30536 42.30823 42.30679
# Shear Modulus (GPa) = 19.29648 19.75172 19.52410
#
# Velocity S-wave (km/s) = 3.46940 3.51009 3.48980
# Velocity P-wave (km/s) = 6.51446 6.54359 6.52904
#
# Compressibility (1/GPa) = 0.02363767
#
# Stress axis : x y z
#
# Youngs Moduli (GPa) = 55.89275 55.89275 62.79635
#
# Poissons Ratio (x) = 0.34291 0.24804
# Poissons Ratio (y) = 0.34291 0.24804
# Poissons Ratio (z) = 0.22077 0.22077
#
# Static dielectric constant tensor:
#      x y z
#    x 2.957460 0.000000 0.000000 
#    y 0.000000 2.957460 0.000000 
#    z 0.000000 0.000000 3.138950 
# 
# 
# High freq. dielectric constant tensor:
#      x y z
#    x 1.602530 0.000000 0.000000 
#    y 0.000000 1.602530 0.000000 
#    z 0.000000 0.000000 1.611020 
# 
# From -- ./inp_files/6665.got.cif
#   From: 2010.03.12/outbox.cif.g09.slc.cpg/sg123_4_cif.got.tgz:6665.got - 2010.04.06 16:26:55.
