data_PCOD8313734
_publ_section_title
;
Structure prediction by ZEFSAII (Michael W. Deem and Ramdas Pophale) SiO2 
 PCOD8313734
Probable space group: P 4/N N C
;
_chemical_formula_sum "Si O2"
_cell_formula_units_Z 116
_cell_length_a 16.559280
_cell_length_b 16.559280
_cell_length_c 19.391598
_cell_angle_alpha 90.000000
_cell_angle_beta 90.000000
_cell_angle_gamma 90.000000
_cell_volume 5317.365320
_symmetry_space_group_name_H-M "P 4/N N C"
_symmetry_group_IT_number 126
_space_group.IT_coordinate_system_code '2'
_symmetry_cell_setting 'tetragonal'
loop_
_space_group_symop_operation_xyz
x,y,z
1/2-y,x,z
1/2-x,1/2-y,z
y,1/2-x,z
x,1/2-y,1/2-z
1/2-x,y,1/2-z
y,x,1/2-z
1/2-y,1/2-x,1/2-z
-x,-y,-z
1/2+y,-x,-z
1/2+x,1/2+y,-z
-y,1/2+x,-z
-x,1/2+y,1/2+z
1/2+x,-y,1/2+z
-y,-x,1/2+z
1/2+y,1/2+x,1/2+z
loop_
_atom_site_type_symbol
_atom_site_label
_atom_site_fract_x
_atom_site_fract_y
_atom_site_fract_z
Si Si1 0.133873 0.003179 0.232585
Si Si2 0.750000 0.250000 0.250000
Si Si3 0.509146 0.272202 0.136805
Si Si4 0.949189 0.671065 0.217682
Si Si5 0.786734 0.621824 0.973682
Si Si6 0.336143 0.903203 0.805311
Si Si7 0.256475 0.491366 0.913872
Si Si8 0.271198 0.622602 0.017275
O O1 0.204266 0.036225 0.182756
O O2 0.161917 0.964194 0.306055
O O3 0.096405 0.932430 0.186002
O O4 0.074007 0.074007 0.250000
O O5 0.696382 0.189355 0.202472
O O6 0.442548 0.308312 0.085403
O O7 0.589729 0.243586 0.095100
O O8 0.904361 0.750000 0.250000
O O9 0.908882 0.591119 0.250000
O O10 0.947139 0.676315 0.134443
O O11 0.044639 0.677832 0.235608
O O12 0.849119 0.694336 0.967039
O O13 0.795464 0.577958 0.047821
O O14 0.302673 0.952061 0.870091
O O15 0.300418 0.547045 0.970913
O O16 0.189366 0.658884 0.983571
#
# Coordination Sequence:
#
# PCOD8313734 Si02
#       8
#    16   4  16  16  16  16  16  16
#     4  11  23  40  65  94 131 172 211 269 346 407
#     4  12  20  40  64  88 132 170 220 266 324 384
#     4  10  22  41  62  95 127 160 220 276 332 397
#     4  10  22  40  59  91 132 171 223 273 324 394
#     4  10  22  41  66  90 119 169 219 270 327 390
#     4  11  23  39  60  96 128 171 214 272 326 398
#     4  10  22  39  59  92 128 164 216 263 327 379
#     4  10  22  39  63  89 125 167 218 269 317 388
#
# _framework density 21.815314999999998
#
# number of rings (size 3 to 8) (size 9 to 14) (size 15 to 20)
#    0.000    1.655    2.069    2.897    5.793    2.345 
#    0.000    0.000    0.000    9.931    0.000    0.000 
#    0.000    0.000    0.000    0.000    0.000    0.000 
#
# Total GULP energy -1437390.276386 kJ/mol
# GULP energy per Si atom -12391.295486 kJ/mol
# Density = 2.176566 g / cm^3
# Si number density = 21.815315 Si / 1000 Ang^3
#
#
#
# Elastic Constant Matrix: (Units=GPa)
#
#
# Indices 1 2 3 4 5 6 
#
# 1 87.8366 20.9864 29.7220 0.0000 0.0000 0.0000
# 2 20.9864 87.8380 29.7220 0.0000 0.0000 0.0000
# 3 29.7220 29.7220 126.0638 0.0000 0.0000 0.0000
# 4 0.0000 0.0000 0.0000 28.3032 0.0000 0.0000
# 5 0.0000 0.0000 0.0000 0.0000 28.3033 0.0000
# 6 0.0000 0.0000 0.0000 0.0000 0.0000 29.3075
#
#
#
# Elastic Compliance Matrix: (Units=1/GPa)
#
#
# Indices 1 2 3 4 5 6 
#
# 1 0.012753 -0.002206 -0.002487 0.000000 0.000000 0.000000
# 2 -0.002206 0.012753 -0.002487 0.000000 0.000000 0.000000
# 3 -0.002487 -0.002487 0.009105 0.000000 0.000000 0.000000
# 4 0.000000 0.000000 0.000000 0.035332 0.000000 0.000000
# 5 0.000000 0.000000 0.000000 0.000000 0.035332 0.000000
# 6 0.000000 0.000000 0.000000 0.000000 0.000000 0.034121
#
#
# Mechanical properties :
#
#
# Convention : Reuss Voigt Hill
#
# Bulk Modulus (GPa) = 49.37526 51.39992 50.38759
# Shear Modulus (GPa) = 31.15171 31.93667 31.54419
#
# Velocity S-wave (km/s) = 3.78295 3.83032 3.80671
# Velocity P-wave (km/s) = 6.46246 6.57072 6.51682
#
# Compressibility (1/GPa) = 0.02025306
#
# Stress axis : x y z
#
# Youngs Moduli (GPa) = 78.41155 78.41292 109.82839
#
# Poissons Ratio (x) = 0.17294 0.27312
# Poissons Ratio (y) = 0.17294 0.27312
# Poissons Ratio (z) = 0.19500 0.19500
#
# Static dielectric constant tensor:
#      x y z
#    x 3.851310 0.000000 0.000000 
#    y 0.000000 3.851310 0.000000 
#    z 0.000000 0.000000 4.136390 
# 
# 
# High freq. dielectric constant tensor:
#      x y z
#    x 1.846820 0.000000 0.000000 
#    y 0.000000 1.846820 0.000000 
#    z 0.000000 0.000000 1.869650 
# 
# From -- ./inp_files/4617.got.cif
#   From: 2010.03.12/outbox.cif.g09.slc.cpg/sg126_3_cif.got.tgz:4617.got - 2010.04.06 16:55:23.
