data_PCOD8313589
_publ_section_title
;
Structure prediction by ZEFSAII (Michael W. Deem and Ramdas Pophale) SiO2 
 PCOD8313589
Probable space group: P 4/N B M
;
_chemical_formula_sum "Si O2"
_cell_formula_units_Z 112
_cell_length_a 13.743978
_cell_length_b 13.743978
_cell_length_c 33.512338
_cell_angle_alpha 90.000000
_cell_angle_beta 90.000000
_cell_angle_gamma 90.000000
_cell_volume 6330.377808
_symmetry_space_group_name_H-M "P 4/N B M"
_symmetry_group_IT_number 125
_space_group.IT_coordinate_system_code '2'
_symmetry_cell_setting 'tetragonal'
loop_
_space_group_symop_operation_xyz
x,y,z
1/2-y,x,z
1/2-x,1/2-y,z
y,1/2-x,z
x,1/2-y,-z
1/2-x,y,-z
y,x,-z
1/2-y,1/2-x,-z
-x,-y,-z
1/2+y,-x,-z
1/2+x,1/2+y,-z
-y,1/2+x,-z
-x,1/2+y,z
1/2+x,-y,z
-y,-x,z
1/2+y,1/2+x,z
loop_
_atom_site_type_symbol
_atom_site_label
_atom_site_fract_x
_atom_site_fract_y
_atom_site_fract_z
Si Si1 0.592301 0.253151 0.954215
Si Si2 0.781656 0.906123 0.191464
Si Si3 0.341134 0.497693 0.730775
Si Si4 0.409194 0.233568 0.898371
Si Si5 0.857080 0.981880 0.688489
Si Si6 0.397052 0.315360 0.603015
Si Si7 0.649302 0.989092 0.479391
O O1 0.642070 0.357931 0.944472
O O2 0.670212 0.170212 0.945621
O O3 0.499623 0.230619 0.927570
O O4 0.558284 0.250000 0.000000
O O5 0.675590 0.862576 0.198472
O O6 0.807124 0.989718 0.223137
O O7 0.780652 0.948762 0.146671
O O8 0.409467 0.590534 0.725756
O O9 0.247138 0.515208 0.704089
O O10 0.394472 0.399711 0.715599
O O11 0.354786 0.335243 0.906133
O O12 0.925742 0.074259 0.690935
O O13 0.846289 0.948754 0.643359
O O14 0.298709 0.376748 0.600392
O O15 0.470141 0.341505 0.567553
O O16 0.750000 0.016616 0.500000
O O17 0.608276 0.891725 0.500000
O O18 0.579431 0.079431 0.487143
#
# Coordination Sequence:
#
# PCOD8313589 Si02
#       7
#    16  16  16  16  16  16  16
#     4   9  19  36  55  75 104 146 192 232 276 335
#     4   9  17  33  57  80 107 143 184 230 277 329
#     4  11  22  36  59  85 111 151 195 232 281 338
#     4   9  19  34  53  83 114 141 179 230 285 337
#     4  11  23  39  58  85 119 150 189 237 282 335
#     4  11  21  36  63  91 115 148 192 241 287 330
#     4  11  23  40  62  87 120 156 190 234 286 338
#
# _framework density 17.692466
#
# number of rings (size 3 to 8) (size 9 to 14) (size 15 to 20)
#    0.000    1.857    4.286    1.714    0.000    2.571 
#    0.000    5.714    0.000    1.714    0.000    0.000 
#    0.000    0.000    0.000    0.000    0.000    0.000 
#
# Total GULP energy -1388802.146438 kJ/mol
# GULP energy per Si atom -12400.019165 kJ/mol
# Density = 1.765220 g / cm^3
# Si number density = 17.692466 Si / 1000 Ang^3
#
#
#
# Elastic Constant Matrix: (Units=GPa)
#
#
# Indices 1 2 3 4 5 6 
#
# 1 93.9131 33.2640 54.7108 0.0000 0.0000 0.0000
# 2 33.2640 93.9135 54.7109 0.0000 0.0000 0.0000
# 3 54.7108 54.7109 135.6417 0.0000 0.0000 0.0000
# 4 0.0000 0.0000 0.0000 21.1932 0.0000 0.0000
# 5 0.0000 0.0000 0.0000 0.0000 21.1966 0.0000
# 6 0.0000 0.0000 0.0000 0.0000 0.0000 -37.1174
#
#
#
# Elastic Compliance Matrix: (Units=1/GPa)
#
#
# Indices 1 2 3 4 5 6 
#
# 1 0.014265 -0.002223 -0.004857 0.000000 0.000000 0.000000
# 2 -0.002223 0.014265 -0.004857 0.000000 0.000000 0.000000
# 3 -0.004857 -0.004857 0.011291 0.000000 0.000000 0.000000
# 4 0.000000 0.000000 0.000000 0.047185 0.000000 0.000000
# 5 0.000000 0.000000 0.000000 0.000000 0.047177 0.000000
# 6 0.000000 0.000000 0.000000 0.000000 0.000000 -0.026942
#
#
# Mechanical properties :
#
#
# Convention : Reuss Voigt Hill
#
# Bulk Modulus (GPa) = 62.71107 67.64886 65.17997
# Shear Modulus (GPa) = 36.64835 13.10666 24.87750
#
# Velocity S-wave (km/s) = 4.55621 2.72473 3.75388
# Velocity P-wave (km/s) = 7.94989 6.94390 7.46387
#
# Compressibility (1/GPa) = 0.01594615
#
# Stress axis : x y z
#
# Youngs Moduli (GPa) = 70.10073 70.10105 88.56923
#
# Poissons Ratio (x) = 0.15584 0.43019
# Poissons Ratio (y) = 0.15584 0.43019
# Poissons Ratio (z) = 0.34049 0.34049
#
# Static dielectric constant tensor:
#      x y z
#    x 3.171830 0.000000 0.000000 
#    y 0.000000 3.171830 0.000000 
#    z 0.000000 0.000000 3.406180 
# 
# 
# High freq. dielectric constant tensor:
#      x y z
#    x 1.677460 0.000000 0.000000 
#    y 0.000000 1.677460 0.000000 
#    z 0.000000 0.000000 1.698580 
# 
# From -- ./inp_files/6660.got.cif
#   From: 2010.03.12/outbox.cif.g09.slc.cpg/sg125_4_cif.got.tgz:6660.got - 2010.04.06 16:47:52.
