data_PCOD8313546
_publ_section_title
;
Structure prediction by ZEFSAII (Michael W. Deem and Ramdas Pophale) SiO2 
 PCOD8313546
Probable space group: P 4/N B M
;
_chemical_formula_sum "Si O2"
_cell_formula_units_Z 64
_cell_length_a 19.953115
_cell_length_b 19.953115
_cell_length_c 7.456350
_cell_angle_alpha 90.000000
_cell_angle_beta 90.000000
_cell_angle_gamma 90.000000
_cell_volume 2968.572752
_symmetry_space_group_name_H-M "P 4/N B M"
_symmetry_group_IT_number 125
_space_group.IT_coordinate_system_code '2'
_symmetry_cell_setting 'tetragonal'
loop_
_space_group_symop_operation_xyz
x,y,z
1/2-y,x,z
1/2-x,1/2-y,z
y,1/2-x,z
x,1/2-y,-z
1/2-x,y,-z
y,x,-z
1/2-y,1/2-x,-z
-x,-y,-z
1/2+y,-x,-z
1/2+x,1/2+y,-z
-y,1/2+x,-z
-x,1/2+y,z
1/2+x,-y,z
-y,-x,z
1/2+y,1/2+x,z
loop_
_atom_site_type_symbol
_atom_site_label
_atom_site_fract_x
_atom_site_fract_y
_atom_site_fract_z
Si Si1 0.145389 0.247299 0.288848
Si Si2 0.049317 0.657086 0.611629
Si Si3 0.789180 0.496418 0.746154
Si Si4 0.002345 0.104481 0.962044
O O1 0.185396 0.181817 0.215022
O O2 0.149122 0.250000 0.500000
O O3 0.068552 0.245917 0.229292
O O4 0.122025 0.622025 0.584641
O O5 0.058244 0.731071 0.701829
O O6 0.008184 0.660131 0.424081
O O7 0.004567 0.614040 0.749062
O O8 0.827365 0.483657 0.931780
O O9 0.077620 0.077620 0.000000
O O10 0.949977 0.050024 0.035240
#
# Coordination Sequence:
#
# PCOD8313546 Si02
#       4
#    16  16  16  16
#     4   9  18  32  53  83 121 157 195 243 291 353
#     4  10  22  40  59  88 121 155 205 254 301 362
#     4  11  21  38  67  86 114 168 203 246 316 358
#     4  10  23  39  58  90 127 157 199 255 304 363
#
# _framework density 21.559183999999998
#
# number of rings (size 3 to 8) (size 9 to 14) (size 15 to 20)
#    0.000    2.000    2.500    2.250    3.500    1.000 
#    0.000    3.750    0.000   12.750    0.000   17.500 
#    0.000    0.000    0.000    0.000    0.000    0.000 
#
# Total GULP energy -793127.099654 kJ/mol
# GULP energy per Si atom -12392.610932 kJ/mol
# Density = 2.151011 g / cm^3
# Si number density = 21.559184 Si / 1000 Ang^3
#
#
#
# Elastic Constant Matrix: (Units=GPa)
#
#
# Indices 1 2 3 4 5 6 
#
# 1 87.6255 47.0516 11.0781 0.0000 0.0000 0.0000
# 2 47.0516 87.6255 11.0781 0.0000 0.0000 0.0000
# 3 11.0781 11.0781 72.4610 0.0000 0.0000 0.0000
# 4 0.0000 0.0000 0.0000 22.0688 0.0000 0.0000
# 5 0.0000 0.0000 0.0000 0.0000 22.0688 0.0000
# 6 0.0000 0.0000 0.0000 0.0000 0.0000 41.6169
#
#
#
# Elastic Compliance Matrix: (Units=1/GPa)
#
#
# Indices 1 2 3 4 5 6 
#
# 1 0.016132 -0.008515 -0.001164 0.000000 0.000000 0.000000
# 2 -0.008515 0.016132 -0.001164 0.000000 0.000000 0.000000
# 3 -0.001164 -0.001164 0.014157 0.000000 0.000000 0.000000
# 4 0.000000 0.000000 0.000000 0.045313 0.000000 0.000000
# 5 0.000000 0.000000 0.000000 0.000000 0.045313 0.000000
# 6 0.000000 0.000000 0.000000 0.000000 0.000000 0.024029
#
#
# Mechanical properties :
#
#
# Convention : Reuss Voigt Hill
#
# Bulk Modulus (GPa) = 40.43319 42.90308 41.66813
# Shear Modulus (GPa) = 26.17722 29.05117 27.61420
#
# Velocity S-wave (km/s) = 3.48832 3.67482 3.58279
# Velocity P-wave (km/s) = 5.91775 6.16029 6.04023
#
# Compressibility (1/GPa) = 0.02473216
#
# Stress axis : x y z
#
# Youngs Moduli (GPa) = 61.99025 61.99025 70.63854
#
# Poissons Ratio (x) = 0.52784 0.08226
# Poissons Ratio (y) = 0.52784 0.08226
# Poissons Ratio (z) = 0.07219 0.07219
#
# Static dielectric constant tensor:
#      x y z
#    x 4.068170 0.000000 0.000000 
#    y 0.000000 4.068170 0.000000 
#    z 0.000000 0.000000 3.848860 
# 
# 
# High freq. dielectric constant tensor:
#      x y z
#    x 1.830500 0.000000 0.000000 
#    y 0.000000 1.830500 0.000000 
#    z 0.000000 0.000000 1.852170 
# 
# From -- ./inp_files/2406.got.cif
#   From: 2010.03.12/outbox.cif.g09.slc.cpg/sg125_2_cif.got.tgz:2406.got - 2010.04.06 16:47:52.
