data_PCOD8313268
_publ_section_title
;
Structure prediction by ZEFSAII (Michael W. Deem and Ramdas Pophale) SiO2 
 PCOD8313268
Probable space group: P 4/M C C
;
_chemical_formula_sum "Si O2"
_cell_formula_units_Z 72
_cell_length_a 14.987151
_cell_length_b 14.987151
_cell_length_c 16.131035
_cell_angle_alpha 90.000000
_cell_angle_beta 90.000000
_cell_angle_gamma 90.000000
_cell_volume 3623.267508
_symmetry_space_group_name_H-M "P 4/M C C"
_symmetry_group_IT_number 124
_symmetry_cell_setting 'tetragonal'
loop_
_space_group_symop_operation_xyz
x,y,z
-y,x,z
-x,-y,z
y,-x,z
x,-y,1/2-z
-x,y,1/2-z
y,x,1/2-z
-y,-x,1/2-z
-x,-y,-z
y,-x,-z
x,y,-z
-y,x,-z
-x,y,1/2+z
x,-y,1/2+z
-y,-x,1/2+z
y,x,1/2+z
loop_
_atom_site_type_symbol
_atom_site_label
_atom_site_fract_x
_atom_site_fract_y
_atom_site_fract_z
Si Si1 0.274606 0.005777 0.000000
Si Si2 0.220431 0.594163 0.215884
Si Si3 0.670602 0.729246 0.626776
Si Si4 0.970188 0.599875 0.657211
Si Si5 0.444912 0.361167 0.500000
Si Si6 0.801634 0.814120 0.500000
O O1 0.334709 0.998487 0.083415
O O2 0.214101 0.094655 0.000000
O O3 0.207457 0.921503 0.000000
O O4 0.251830 0.500000 0.250000
O O5 0.200139 0.650009 0.300327
O O6 0.301268 0.634371 0.164442
O O7 0.136110 0.594891 0.156090
O O8 0.581467 0.703342 0.576320
O O9 0.752515 0.772784 0.578794
O O10 0.000000 0.500000 0.636537
O O11 0.000000 0.630513 0.750000
O O12 0.549100 0.384209 0.500000
#
# Coordination Sequence:
#
# PCOD8313268 Si02
#       6
#     8  16  16  16   8   8
#     4  12  25  45  64  96 124 170 216 263 325 384
#     4  11  20  36  62  89 128 162 206 253 318 386
#     4  10  22  38  58  90 124 170 206 260 320 381
#     4  11  22  40  63  97 131 161 198 263 326 386
#     4  10  20  37  56  81 124 170 220 266 304 366
#     4  11  24  42  64  86 124 163 214 268 316 383
#
# _framework density 19.871566000000001
#
# number of rings (size 3 to 8) (size 9 to 14) (size 15 to 20)
#    0.000    1.222    4.444    3.000    0.000    0.222 
#    0.000    0.000    0.000    5.333    0.000    1.556 
#    0.000    0.000    0.000    0.000    0.000    0.000 
#
# Total GULP energy -892174.774808 kJ/mol
# GULP energy per Si atom -12391.316317 kJ/mol
# Density = 1.982634 g / cm^3
# Si number density = 19.871566 Si / 1000 Ang^3
#
#
#
# Elastic Constant Matrix: (Units=GPa)
#
#
# Indices 1 2 3 4 5 6 
#
# 1 97.1500 24.2917 35.1844 0.0000 0.0000 0.0000
# 2 24.2917 97.1500 35.1844 0.0000 0.0000 0.0000
# 3 35.1844 35.1844 108.6772 0.0000 0.0000 0.0000
# 4 0.0000 0.0000 0.0000 7.9266 0.0000 0.0000
# 5 0.0000 0.0000 0.0000 0.0000 7.9266 0.0000
# 6 0.0000 0.0000 0.0000 0.0000 0.0000 25.9180
#
#
#
# Elastic Compliance Matrix: (Units=1/GPa)
#
#
# Indices 1 2 3 4 5 6 
#
# 1 0.011931 -0.001795 -0.003281 0.000000 0.000000 0.000000
# 2 -0.001795 0.011931 -0.003281 0.000000 0.000000 0.000000
# 3 -0.003281 -0.003281 0.011326 0.000000 0.000000 0.000000
# 4 0.000000 0.000000 0.000000 0.126157 0.000000 0.000000
# 5 0.000000 0.000000 0.000000 0.000000 0.126157 0.000000
# 6 0.000000 0.000000 0.000000 0.000000 0.000000 0.038583
#
#
# Mechanical properties :
#
#
# Convention : Reuss Voigt Hill
#
# Bulk Modulus (GPa) = 54.13580 54.69978 54.41779
# Shear Modulus (GPa) = 14.32840 22.24205 18.28522
#
# Velocity S-wave (km/s) = 2.68815 3.34921 3.03672
# Velocity P-wave (km/s) = 6.07757 6.52248 6.30395
#
# Compressibility (1/GPa) = 0.01847206
#
# Stress axis : x y z
#
# Youngs Moduli (GPa) = 83.81842 83.81842 88.28983
#
# Poissons Ratio (x) = 0.15043 0.28972
# Poissons Ratio (y) = 0.15043 0.28972
# Poissons Ratio (z) = 0.27505 0.27505
#
# Static dielectric constant tensor:
#      x y z
#    x 3.568290 0.000000 0.000000 
#    y 0.000000 3.568290 0.000000 
#    z 0.000000 0.000000 3.945290 
# 
# 
# High freq. dielectric constant tensor:
#      x y z
#    x 1.766590 0.000000 0.000000 
#    y 0.000000 1.766590 0.000000 
#    z 0.000000 0.000000 1.793870 
# 
# From -- ./inp_files/4099.got.cif
#   From: 2010.03.12/outbox.cif.g09.slc.cpg/sg124_3_cif.got.tgz:4099.got - 2010.04.06 16:38:57.
