data_PCOD8313144
_publ_section_title
;
Structure prediction by ZEFSAII (Michael W. Deem and Ramdas Pophale) SiO2 
 PCOD8313144
Probable space group: P 4/M C C
;
_chemical_formula_sum "Si O2"
_cell_formula_units_Z 96
_cell_length_a 25.226689
_cell_length_b 25.226689
_cell_length_c 8.958407
_cell_angle_alpha 90.000000
_cell_angle_beta 90.000000
_cell_angle_gamma 90.000000
_cell_volume 5701.003345
_symmetry_space_group_name_H-M "P 4/M C C"
_symmetry_group_IT_number 124
_symmetry_cell_setting 'tetragonal'
loop_
_space_group_symop_operation_xyz
x,y,z
-y,x,z
-x,-y,z
y,-x,z
x,-y,1/2-z
-x,y,1/2-z
y,x,1/2-z
-y,-x,1/2-z
-x,-y,-z
y,-x,-z
x,y,-z
-y,x,-z
-x,y,1/2+z
x,-y,1/2+z
-y,-x,1/2+z
y,x,1/2+z
loop_
_atom_site_type_symbol
_atom_site_label
_atom_site_fract_x
_atom_site_fract_y
_atom_site_fract_z
Si Si1 0.948313 0.633605 0.167910
Si Si2 0.446589 0.243369 0.826735
Si Si3 0.753629 0.165591 0.820982
Si Si4 0.641354 0.840639 0.822971
Si Si5 0.950227 0.240489 0.336425
Si Si6 0.444766 0.364794 0.823140
O O1 0.896119 0.618283 0.261564
O O2 0.954234 0.696452 0.159660
O O3 0.000000 0.609292 0.250000
O O4 0.944250 0.610330 0.000000
O O5 0.500000 0.223230 0.750000
O O6 0.398794 0.205729 0.777333
O O7 0.432939 0.303691 0.781990
O O8 0.457380 0.238779 0.000000
O O9 0.791601 0.208400 0.750000
O O10 0.695489 0.175590 0.757186
O O11 0.774390 0.107333 0.768786
O O12 0.751770 0.169701 0.000000
O O13 0.650155 0.845294 0.000000
O O14 0.954569 0.216036 0.500000
O O15 0.000000 0.215357 0.250000
O O16 0.500000 0.383138 0.750000
O O17 0.397819 0.397819 0.750000
O O18 0.447047 0.374524 0.000000
#
# Coordination Sequence:
#
# PCOD8313144 Si02
#       6
#    16  16  16  16  16  16
#     4   9  16  27  44  68  94 123 158 198 241 286
#     4   9  20  36  54  74  97 126 162 198 236 280
#     4  10  20  32  45  67  98 131 163 198 240 287
#     4  10  19  32  49  71  97 127 161 198 240 290
#     4   8  15  26  41  61  86 117 156 193 230 276
#     4  10  20  36  55  77 101 126 155 191 233 280
#
# _framework density 16.839141000000001
#
# number of rings (size 3 to 8) (size 9 to 14) (size 15 to 20)
#    0.000    2.667    0.000    3.000    0.000    7.500 
#    0.000    2.500    0.000    0.500    0.000    3.500 
#    0.000    0.333    0.000    3.667    0.000    2.833 
#
# Total GULP energy -1190064.075092 kJ/mol
# GULP energy per Si atom -12396.500782 kJ/mol
# Density = 1.680081 g / cm^3
# Si number density = 16.839141 Si / 1000 Ang^3
#
#
#
# Elastic Constant Matrix: (Units=GPa)
#
#
# Indices 1 2 3 4 5 6 
#
# 1 104.1906 73.5676 54.6821 0.0000 0.0000 0.0000
# 2 73.5676 104.1868 54.6820 0.0000 0.0000 0.0000
# 3 54.6821 54.6820 93.5187 0.0000 0.0000 0.0000
# 4 0.0000 0.0000 0.0000 27.4531 0.0000 0.0000
# 5 0.0000 0.0000 0.0000 0.0000 27.4532 0.0000
# 6 0.0000 0.0000 0.0000 0.0000 0.0000 -1.7213
#
#
#
# Elastic Compliance Matrix: (Units=1/GPa)
#
#
# Indices 1 2 3 4 5 6 
#
# 1 0.020721 -0.011935 -0.005137 0.000000 0.000000 0.000000
# 2 -0.011935 0.020722 -0.005138 0.000000 0.000000 0.000000
# 3 -0.005137 -0.005138 0.016701 0.000000 0.000000 0.000000
# 4 0.000000 0.000000 0.000000 0.036426 0.000000 0.000000
# 5 0.000000 0.000000 0.000000 0.000000 0.036426 0.000000
# 6 0.000000 0.000000 0.000000 0.000000 0.000000 -0.580965
#
#
# Mechanical properties :
#
#
# Convention : Reuss Voigt Hill
#
# Bulk Modulus (GPa) = 72.86651 74.19550 73.53100
# Shear Modulus (GPa) = -12.46967 18.56797 3.04915
#
# Velocity S-wave (km/s) = -2.72420 3.32425 1.34710
# Velocity P-wave (km/s) = 5.78542 7.67406 6.79567
#
# Compressibility (1/GPa) = 0.01372373
#
# Stress axis : x y z
#
# Youngs Moduli (GPa) = 48.25926 48.25677 59.87572
#
# Poissons Ratio (x) = 0.57596 0.30761
# Poissons Ratio (y) = 0.57599 0.30764
# Poissons Ratio (z) = 0.24793 0.24794
#
# Static dielectric constant tensor:
#      x y z
#    x 3.143750 0.000000 0.000000 
#    y 0.000000 3.143750 0.000000 
#    z 0.000000 0.000000 3.346800 
# 
# 
# High freq. dielectric constant tensor:
#      x y z
#    x 1.631980 0.000000 0.000000 
#    y 0.000000 1.631980 0.000000 
#    z 0.000000 0.000000 1.663330 
# 
# From -- ./inp_files/1555.got.cif
#   From: 2010.03.12/outbox.cif.g09.slc.cpg/sg124_1_cif.got.tgz:1555.got - 2010.04.06 16:38:57.
