data_PCOD8313351
_publ_section_title
;
Structure prediction by ZEFSAII (Michael W. Deem and Ramdas Pophale) SiO2 
 PCOD8313351
Probable space group: P 4/M C C
;
_chemical_formula_sum "Si O2"
_cell_formula_units_Z 40
_cell_length_a 13.436962
_cell_length_b 13.436962
_cell_length_c 9.517325
_cell_angle_alpha 90.000000
_cell_angle_beta 90.000000
_cell_angle_gamma 90.000000
_cell_volume 1718.371566
_symmetry_space_group_name_H-M "P 4/M C C"
_symmetry_group_IT_number 124
_symmetry_cell_setting 'tetragonal'
loop_
_space_group_symop_operation_xyz
x,y,z
-y,x,z
-x,-y,z
y,-x,z
x,-y,1/2-z
-x,y,1/2-z
y,x,1/2-z
-y,-x,1/2-z
-x,-y,-z
y,-x,-z
x,y,-z
-y,x,-z
-x,y,1/2+z
x,-y,1/2+z
-y,-x,1/2+z
y,x,1/2+z
loop_
_atom_site_type_symbol
_atom_site_label
_atom_site_fract_x
_atom_site_fract_y
_atom_site_fract_z
Si Si1 0.887039 0.306366 0.225886
Si Si2 0.082899 0.144008 0.500000
Si Si3 0.782460 0.420627 0.000000
Si Si4 0.234750 0.652932 0.500000
O O1 0.822577 0.299369 0.367664
O O2 0.000000 0.335406 0.250000
O O3 0.881782 0.202824 0.138582
O O4 0.846012 0.399013 0.138179
O O5 0.963320 0.134855 0.500000
O O6 0.755475 0.535371 0.000000
O O7 0.685941 0.349528 0.000000
#
# Coordination Sequence:
#
# PCOD8313351 Si02
#       4
#    16   8   8   8
#     4  11  26  43  75 102 149 191 243 296 363 437
#     4  10  25  46  70 104 147 198 245 293 356 432
#     4  11  27  46  75 104 147 193 244 308 373 441
#     4  12  26  48  73 111 143 191 249 308 376 431
#
# _framework density 23.277853
#
# number of rings (size 3 to 8) (size 9 to 14) (size 15 to 20)
#    0.000    1.000    0.000    4.800   16.800    5.200 
#    0.000    2.000    0.000    7.200    0.000    0.000 
#    0.000    0.000    0.000    0.000    0.000    0.000 
#
# Total GULP energy -496044.089225 kJ/mol
# GULP energy per Si atom -12401.102231 kJ/mol
# Density = 2.322487 g / cm^3
# Si number density = 23.277853 Si / 1000 Ang^3
#
#
#
# Elastic Constant Matrix: (Units=GPa)
#
#
# Indices 1 2 3 4 5 6 
#
# 1 206.1594 83.5914 75.4148 0.0000 0.0000 0.0000
# 2 83.5914 206.1594 75.4148 0.0000 0.0000 0.0000
# 3 75.4148 75.4148 199.0606 0.0000 0.0000 0.0000
# 4 0.0000 0.0000 0.0000 19.5919 0.0000 0.0000
# 5 0.0000 0.0000 0.0000 0.0000 19.5919 0.0000
# 6 0.0000 0.0000 0.0000 0.0000 0.0000 26.8130
#
#
#
# Elastic Compliance Matrix: (Units=1/GPa)
#
#
# Indices 1 2 3 4 5 6 
#
# 1 0.006229 -0.001930 -0.001629 0.000000 0.000000 0.000000
# 2 -0.001930 0.006229 -0.001629 0.000000 0.000000 0.000000
# 3 -0.001629 -0.001629 0.006258 0.000000 0.000000 0.000000
# 4 0.000000 0.000000 0.000000 0.051042 0.000000 0.000000
# 5 0.000000 0.000000 0.000000 0.000000 0.051042 0.000000
# 6 0.000000 0.000000 0.000000 0.000000 0.000000 0.037295
#
#
# Mechanical properties :
#
#
# Convention : Reuss Voigt Hill
#
# Bulk Modulus (GPa) = 119.89036 120.02462 119.95749
# Shear Modulus (GPa) = 29.19725 38.32989 33.76357
#
# Velocity S-wave (km/s) = 3.54544 4.06226 3.81262
# Velocity P-wave (km/s) = 8.26898 8.58349 8.42770
#
# Compressibility (1/GPa) = 0.00834095
#
# Stress axis : x y z
#
# Youngs Moduli (GPa) = 160.54192 160.54192 159.80347
#
# Poissons Ratio (x) = 0.30982 0.26027
# Poissons Ratio (y) = 0.30982 0.26027
# Poissons Ratio (z) = 0.26148 0.26148
#
# Static dielectric constant tensor:
#      x y z
#    x 4.143320 0.000000 0.000000 
#    y 0.000000 4.143320 0.000000 
#    z 0.000000 0.000000 4.624780 
# 
# 
# High freq. dielectric constant tensor:
#      x y z
#    x 1.927450 0.000000 0.000000 
#    y 0.000000 1.927450 0.000000 
#    z 0.000000 0.000000 1.942070 
# 
# From -- ./inp_files/351.got.cif
#   From: 2010.03.12/outbox.cif.g09.slc.cpg/sg124_1_cif.got.tgz:351.got - 2010.04.06 16:38:57.
