data_PCOD8313928
_publ_section_title
;
Structure prediction by ZEFSAII (Michael W. Deem and Ramdas Pophale) SiO2 
 PCOD8313928
Probable space group: P 4/M B M
;
_chemical_formula_sum "Si O2"
_cell_formula_units_Z 96
_cell_length_a 15.612865
_cell_length_b 15.612865
_cell_length_c 21.521156
_cell_angle_alpha 90.000000
_cell_angle_beta 90.000000
_cell_angle_gamma 90.000000
_cell_volume 5246.030420
_symmetry_space_group_name_H-M "P 4/M B M"
_symmetry_group_IT_number 127
_symmetry_cell_setting 'tetragonal'
loop_
_space_group_symop_operation_xyz
x,y,z
-y,x,z
-x,-y,z
y,-x,z
1/2+x,1/2-y,-z
1/2-x,1/2+y,-z
1/2+y,1/2+x,-z
1/2-y,1/2-x,-z
-x,-y,-z
y,-x,-z
x,y,-z
-y,x,-z
1/2-x,1/2+y,z
1/2+x,1/2-y,z
1/2-y,1/2-x,z
1/2+y,1/2+x,z
loop_
_atom_site_type_symbol
_atom_site_label
_atom_site_fract_x
_atom_site_fract_y
_atom_site_fract_z
Si Si1 0.077012 0.119763 0.331277
Si Si2 0.908624 0.735260 0.239590
Si Si3 0.600155 0.242276 0.571919
Si Si4 0.310706 0.046589 0.000000
Si Si5 0.863027 0.495567 0.339043
Si Si6 0.583958 0.226034 0.100494
Si Si7 0.674573 0.318786 0.000000
O O1 0.111087 0.173496 0.271864
O O2 0.110627 0.166661 0.393767
O O3 0.973923 0.117291 0.329848
O O4 0.823175 0.676826 0.242230
O O5 0.986875 0.690519 0.276326
O O6 0.942590 0.753322 0.169876
O O7 0.582437 0.258972 0.500000
O O8 0.685200 0.185200 0.582914
O O9 0.517037 0.194714 0.600801
O O10 0.216561 0.088489 0.000000
O O11 0.319787 0.992480 0.936927
O O12 0.385107 0.114894 0.000000
O O13 0.944598 0.555403 0.339498
O O14 0.896990 0.396990 0.340968
O O15 0.659081 0.159081 0.107282
O O16 0.615942 0.308500 0.061445
O O17 0.745724 0.245724 0.000000
#
# Coordination Sequence:
#
# PCOD8313928 Si02
#       7
#    16  16  16   8  16  16   8
#     4  10  21  36  53  74 101 132 167 209 255 299
#     4   9  18  34  54  73  97 131 168 207 252 302
#     4   9  18  34  55  76 100 132 168 205 246 295
#     4  10  19  30  48  74 101 130 166 206 246 296
#     4   8  14  26  45  70  99 127 155 192 242 297
#     4   9  18  32  50  71  97 130 163 200 249 297
#     4   8  16  31  46  64  94 129 163 196 234 284
#
# _framework density 18.299551000000001
#
# number of rings (size 3 to 8) (size 9 to 14) (size 15 to 20)
#    0.000    3.000    0.000    2.250    0.000    3.667 
#    0.000   10.833    0.000    4.000    0.000    0.000 
#    0.000    0.000    0.000    0.000    0.000    0.000 
#
# Total GULP energy -1189804.182659 kJ/mol
# GULP energy per Si atom -12393.793569 kJ/mol
# Density = 1.825790 g / cm^3
# Si number density = 18.299551 Si / 1000 Ang^3
#
#
#
# Elastic Constant Matrix: (Units=GPa)
#
#
# Indices 1 2 3 4 5 6 
#
# 1 54.3477 8.4257 36.4254 0.0000 0.0000 0.0000
# 2 8.4257 54.3478 36.4254 0.0000 0.0000 0.0000
# 3 36.4254 36.4254 179.4114 0.0000 0.0000 0.0000
# 4 0.0000 0.0000 0.0000 12.1945 0.0000 0.0000
# 5 0.0000 0.0000 0.0000 0.0000 12.1946 0.0000
# 6 0.0000 0.0000 0.0000 0.0000 0.0000 12.9692
#
#
#
# Elastic Compliance Matrix: (Units=1/GPa)
#
#
# Indices 1 2 3 4 5 6 
#
# 1 0.021308 -0.000468 -0.004231 0.000000 0.000000 0.000000
# 2 -0.000468 0.021308 -0.004231 0.000000 0.000000 0.000000
# 3 -0.004231 -0.004231 0.007292 0.000000 0.000000 0.000000
# 4 0.000000 0.000000 0.000000 0.082004 0.000000 0.000000
# 5 0.000000 0.000000 0.000000 0.000000 0.082004 0.000000
# 6 0.000000 0.000000 0.000000 0.000000 0.000000 0.077106
#
#
# Mechanical properties :
#
#
# Convention : Reuss Voigt Hill
#
# Bulk Modulus (GPa) = 31.20268 50.07334 40.63801
# Shear Modulus (GPa) = 15.64623 21.26033 18.45328
#
# Velocity S-wave (km/s) = 2.92722 3.41221 3.17898
# Velocity P-wave (km/s) = 5.33975 6.55338 5.97745
#
# Compressibility (1/GPa) = 0.03204853
#
# Stress axis : x y z
#
# Youngs Moduli (GPa) = 46.92972 46.92983 137.13841
#
# Poissons Ratio (x) = 0.02194 0.58027
# Poissons Ratio (y) = 0.02194 0.58027
# Poissons Ratio (z) = 0.19857 0.19857
#
# Static dielectric constant tensor:
#      x y z
#    x 3.332730 0.000000 0.000000 
#    y 0.000000 3.332730 0.000000 
#    z 0.000000 0.000000 3.615230 
# 
# 
# High freq. dielectric constant tensor:
#      x y z
#    x 1.693540 0.000000 0.000000 
#    y 0.000000 1.693540 0.000000 
#    z 0.000000 0.000000 1.713980 
# 
# From -- ./inp_files/5844.got.cif
#   From: 2010.03.12/outbox.cif.g09.slc.cpg/sg127_3_cif.got.tgz:5844.got - 2010.04.06 17:03:15.
