data_PCOD8313185
_publ_section_title
;
Structure prediction by ZEFSAII (Michael W. Deem and Ramdas Pophale) SiO2 
 PCOD8313185
Probable space group: P 4/M C C
;
_chemical_formula_sum "Si O2"
_cell_formula_units_Z 88
_cell_length_a 16.214075
_cell_length_b 16.214075
_cell_length_c 16.041451
_cell_angle_alpha 90.000000
_cell_angle_beta 90.000000
_cell_angle_gamma 90.000000
_cell_volume 4217.236961
_symmetry_space_group_name_H-M "P 4/M C C"
_symmetry_group_IT_number 124
_symmetry_cell_setting 'tetragonal'
loop_
_space_group_symop_operation_xyz
x,y,z
-y,x,z
-x,-y,z
y,-x,z
x,-y,1/2-z
-x,y,1/2-z
y,x,1/2-z
-y,-x,1/2-z
-x,-y,-z
y,-x,-z
x,y,-z
-y,x,-z
-x,y,1/2+z
x,-y,1/2+z
-y,-x,1/2+z
y,x,1/2+z
loop_
_atom_site_type_symbol
_atom_site_label
_atom_site_fract_x
_atom_site_fract_y
_atom_site_fract_z
Si Si1 0.081830 0.336141 0.853670
Si Si2 0.321664 0.380427 0.835447
Si Si3 0.825858 0.493300 0.656800
Si Si4 0.399666 0.588580 0.000000
Si Si5 0.222754 0.760389 0.405035
Si Si6 0.335093 0.895138 0.343535
O O1 0.121544 0.421904 0.889624
O O2 0.124188 0.255461 0.896474
O O3 0.097534 0.332134 0.755292
O O4 0.986819 0.336636 0.881005
O O5 0.375130 0.375130 0.750000
O O6 0.271435 0.467206 0.842368
O O7 0.379114 0.361894 0.914310
O O8 0.257710 0.305352 0.837972
O O9 0.860499 0.500000 0.750000
O O10 0.842277 0.585621 0.621016
O O11 0.384046 0.493199 0.000000
O O12 0.250739 0.743397 0.500000
O O13 0.252214 0.850861 0.376925
#
# Coordination Sequence:
#
# PCOD8313185 Si02
#       6
#    16  16  16   8  16  16
#     4   9  19  36  57  86 126 150 195 254 311 359
#     4  11  23  40  64  85 120 163 208 262 310 363
#     4   9  18  32  59  92 116 154 200 247 306 369
#     4  11  28  44  56  82 117 159 219 270 313 351
#     4  11  22  37  56  87 123 160 201 247 301 368
#     4  10  19  35  61  89 114 158 202 247 301 376
#
# _framework density 20.866744000000001
#
# number of rings (size 3 to 8) (size 9 to 14) (size 15 to 20)
#    0.000    1.909    0.909    4.364    5.091    2.909 
#    0.000    0.909    0.000    3.818    0.000    3.818 
#    0.000    0.000    0.000    0.000    0.000    0.000 
#
# Total GULP energy -1090356.953900 kJ/mol
# GULP energy per Si atom -12390.419931 kJ/mol
# Density = 2.081925 g / cm^3
# Si number density = 20.866744 Si / 1000 Ang^3
#
#
#
# Elastic Constant Matrix: (Units=GPa)
#
#
# Indices 1 2 3 4 5 6 
#
# 1 101.6925 43.9707 19.6218 0.0000 0.0000 0.0000
# 2 43.9707 101.6925 19.6218 0.0000 0.0000 0.0000
# 3 19.6218 19.6218 82.5385 0.0000 0.0000 0.0000
# 4 0.0000 0.0000 0.0000 15.1330 0.0000 0.0000
# 5 0.0000 0.0000 0.0000 0.0000 15.1330 0.0000
# 6 0.0000 0.0000 0.0000 0.0000 0.0000 34.2441
#
#
#
# Elastic Compliance Matrix: (Units=1/GPa)
#
#
# Indices 1 2 3 4 5 6 
#
# 1 0.012330 -0.004995 -0.001744 0.000000 0.000000 0.000000
# 2 -0.004995 0.012330 -0.001744 0.000000 0.000000 0.000000
# 3 -0.001744 -0.001744 0.012945 0.000000 0.000000 0.000000
# 4 0.000000 0.000000 0.000000 0.066081 0.000000 0.000000
# 5 0.000000 0.000000 0.000000 0.000000 0.066081 0.000000
# 6 0.000000 0.000000 0.000000 0.000000 0.000000 0.029202
#
#
# Mechanical properties :
#
#
# Convention : Reuss Voigt Hill
#
# Bulk Modulus (GPa) = 48.45058 50.26135 49.35597
# Shear Modulus (GPa) = 22.44045 26.41597 24.42821
#
# Velocity S-wave (km/s) = 3.28291 3.56186 3.42523
# Velocity P-wave (km/s) = 6.13510 6.40741 6.27273
#
# Compressibility (1/GPa) = 0.02063959
#
# Stress axis : x y z
#
# Youngs Moduli (GPa) = 81.10497 81.10497 77.25209
#
# Poissons Ratio (x) = 0.40510 0.13471
# Poissons Ratio (y) = 0.40510 0.13471
# Poissons Ratio (z) = 0.14142 0.14142
#
# Static dielectric constant tensor:
#      x y z
#    x 3.824600 0.000000 0.000000 
#    y 0.000000 3.824600 0.000000 
#    z 0.000000 0.000000 3.694740 
# 
# 
# High freq. dielectric constant tensor:
#      x y z
#    x 1.800090 0.000000 0.000000 
#    y 0.000000 1.800090 0.000000 
#    z 0.000000 0.000000 1.802550 
# 
# From -- ./inp_files/3251.got.cif
#   From: 2010.03.12/outbox.cif.g09.slc.cpg/sg124_2_cif.got.tgz:3251.got - 2010.04.06 16:38:57.
