data_PCOD8313100
_publ_section_title
;
Structure prediction by ZEFSAII (Michael W. Deem and Ramdas Pophale) SiO2 
 PCOD8313100
Probable space group: P 4/M C C
;
_chemical_formula_sum "Si O2"
_cell_formula_units_Z 96
_cell_length_a 23.881454
_cell_length_b 23.881454
_cell_length_c 9.997339
_cell_angle_alpha 90.000000
_cell_angle_beta 90.000000
_cell_angle_gamma 90.000000
_cell_volume 5701.720820
_symmetry_space_group_name_H-M "P 4/M C C"
_symmetry_group_IT_number 124
_symmetry_cell_setting 'tetragonal'
loop_
_space_group_symop_operation_xyz
x,y,z
-y,x,z
-x,-y,z
y,-x,z
x,-y,1/2-z
-x,y,1/2-z
y,x,1/2-z
-y,-x,1/2-z
-x,-y,-z
y,-x,-z
x,y,-z
-y,x,-z
-x,y,1/2+z
x,-y,1/2+z
-y,-x,1/2+z
y,x,1/2+z
loop_
_atom_site_type_symbol
_atom_site_label
_atom_site_fract_x
_atom_site_fract_y
_atom_site_fract_z
Si Si1 0.229728 0.062951 0.500000
Si Si2 0.327345 0.762348 0.244820
Si Si3 0.846409 0.938241 0.751311
Si Si4 0.385474 0.549021 0.654693
Si Si5 0.181414 0.278640 0.500000
Si Si6 0.267568 0.816379 0.000000
Si Si7 0.254443 0.548085 0.651785
Si Si8 0.936378 0.232072 0.000000
O O1 0.191289 0.072046 0.625371
O O2 0.270901 0.115917 0.500000
O O3 0.258247 0.000249 0.500000
O O4 0.299681 0.700320 0.250000
O O5 0.314805 0.797178 0.376742
O O6 0.393185 0.758305 0.221971
O O7 0.300599 0.797755 0.128273
O O8 0.898361 0.898361 0.750000
O O9 0.806843 0.926894 0.874626
O O10 0.872197 0.000000 0.750000
O O11 0.411739 0.500000 0.750000
O O12 0.396708 0.603293 0.750000
O O13 0.410367 0.552570 0.500000
O O14 0.320197 0.539754 0.638237
O O15 0.206371 0.214665 0.500000
O O16 0.113258 0.278044 0.500000
O O17 0.229327 0.500000 0.750000
O O18 0.228956 0.544590 0.500000
#
# Coordination Sequence:
#
# PCOD8313100 Si02
#       8
#     8  16  16  16   8   8  16   8
#     4  10  20  32  51  70  97 138 170 217 266 311
#     4  10  20  34  51  78 106 137 171 212 258 306
#     4  10  19  30  45  64  91 129 174 219 263 304
#     4  10  20  34  50  70  94 128 169 211 253 292
#     4  10  20  30  51  75 104 135 170 217 262 315
#     4  10  18  32  51  73 102 137 172 209 266 313
#     4  10  21  36  53  74 103 135 168 202 247 308
#     4  10  20  34  47  72 101 130 176 217 260 319
#
# _framework density 16.837022000000001
#
# number of rings (size 3 to 8) (size 9 to 14) (size 15 to 20)
#    0.000    2.000    0.833    3.500    1.167    2.333 
#    0.000    0.833    0.000    3.000    0.000    0.000 
#    0.000    4.000    0.000    0.000    0.000    0.000 
#
# Total GULP energy -1189346.484933 kJ/mol
# GULP energy per Si atom -12389.025885 kJ/mol
# Density = 1.679870 g / cm^3
# Si number density = 16.837022 Si / 1000 Ang^3
#
#
#
# Elastic Constant Matrix: (Units=GPa)
#
#
# Indices 1 2 3 4 5 6 
#
# 1 98.0020 36.3752 45.7554 0.0000 0.0000 0.0000
# 2 36.3752 98.0020 45.7559 0.0000 0.0000 0.0000
# 3 45.7554 45.7559 161.7568 0.0000 0.0000 0.0000
# 4 0.0000 0.0000 0.0000 -67.4605 0.0000 0.0000
# 5 0.0000 0.0000 0.0000 0.0000 -67.4286 0.0000
# 6 0.0000 0.0000 0.0000 0.0000 0.0000 24.8123
#
#
#
# Elastic Compliance Matrix: (Units=1/GPa)
#
#
# Indices 1 2 3 4 5 6 
#
# 1 0.012722 -0.003505 -0.002607 0.000000 0.000000 0.000000
# 2 -0.003505 0.012722 -0.002607 0.000000 0.000000 0.000000
# 3 -0.002607 -0.002607 0.007657 0.000000 0.000000 0.000000
# 4 0.000000 0.000000 0.000000 -0.014823 0.000000 0.000000
# 5 0.000000 0.000000 0.000000 0.000000 -0.014830 0.000000
# 6 0.000000 0.000000 0.000000 0.000000 0.000000 0.040303
#
#
# Mechanical properties :
#
#
# Convention : Reuss Voigt Hill
#
# Bulk Modulus (GPa) = 63.84611 68.17043 66.00827
# Shear Modulus (GPa) = 75.29094 -6.69041 34.30027
#
# Velocity S-wave (km/s) = 6.69437 -1.99556 4.51842
# Velocity P-wave (km/s) = 9.88712 5.93857 8.15542
#
# Compressibility (1/GPa) = 0.01566266
#
# Stress axis : x y z
#
# Youngs Moduli (GPa) = 78.60408 78.60387 130.59706
#
# Poissons Ratio (x) = 0.27548 0.34050
# Poissons Ratio (y) = 0.27548 0.34051
# Poissons Ratio (z) = 0.20494 0.20494
#
# Static dielectric constant tensor:
#      x y z
#    x 3.254380 0.000000 0.000000 
#    y 0.000000 3.254300 0.000000 
#    z 0.000000 0.000000 3.606550 
# 
# 
# High freq. dielectric constant tensor:
#      x y z
#    x 1.622580 0.000000 0.000000 
#    y 0.000000 1.622580 0.000000 
#    z 0.000000 0.000000 1.683590 
# 
# From -- ./inp_files/1475.got.cif
#   From: 2010.03.12/outbox.cif.g09.slc.cpg/sg124_1_cif.got.tgz:1475.got - 2010.04.06 16:38:57.
