data_PCOD8313282
_publ_section_title
;
Structure prediction by ZEFSAII (Michael W. Deem and Ramdas Pophale) SiO2 
 PCOD8313282
Probable space group: P 4/M C C
;
_chemical_formula_sum "Si O2"
_cell_formula_units_Z 88
_cell_length_a 16.209730
_cell_length_b 16.209730
_cell_length_c 18.161839
_cell_angle_alpha 90.000000
_cell_angle_beta 90.000000
_cell_angle_gamma 90.000000
_cell_volume 4772.120303
_symmetry_space_group_name_H-M "P 4/M C C"
_symmetry_group_IT_number 124
_symmetry_cell_setting 'tetragonal'
loop_
_space_group_symop_operation_xyz
x,y,z
-y,x,z
-x,-y,z
y,-x,z
x,-y,1/2-z
-x,y,1/2-z
y,x,1/2-z
-y,-x,1/2-z
-x,-y,-z
y,-x,-z
x,y,-z
-y,x,-z
-x,y,1/2+z
x,-y,1/2+z
-y,-x,1/2+z
y,x,1/2+z
loop_
_atom_site_type_symbol
_atom_site_label
_atom_site_fract_x
_atom_site_fract_y
_atom_site_fract_z
Si Si1 0.349811 0.386734 0.000000
Si Si2 0.529375 0.087307 0.139871
Si Si3 0.649576 0.853779 0.158804
Si Si4 0.562822 0.831745 0.500000
Si Si5 0.000000 0.359982 0.250000
Si Si6 0.629789 0.805652 0.000000
Si Si7 0.694189 0.305812 0.750000
Si Si8 0.565287 0.613455 0.658109
O O1 0.376994 0.292634 0.000000
O O2 0.383335 0.435764 0.929842
O O3 0.252277 0.388871 0.000000
O O4 0.450759 0.144872 0.160543
O O5 0.588360 0.124753 0.076473
O O6 0.584026 0.070614 0.212042
O O7 0.500000 0.000000 0.107608
O O8 0.687259 0.780421 0.207638
O O9 0.687541 0.942148 0.189967
O O10 0.676286 0.839631 0.073332
O O11 0.463953 0.834366 0.500000
O O12 0.688693 0.382288 0.692177
O O13 0.470317 0.612039 0.684688
#
# Coordination Sequence:
#
# PCOD8313282 Si02
#       8
#     8  16  16   8   8   8   8  16
#     4  12  22  36  51  74  95 144 195 238 281 329
#     4   9  18  34  51  78 101 129 170 226 284 349
#     4  10  21  36  55  76 106 136 174 221 283 341
#     4  10  21  30  56  69  97 138 182 228 276 339
#     4  10  21  34  56  84 108 133 172 229 288 344
#     4  10  20  39  49  73 100 142 181 229 281 331
#     4  12  24  35  58  76 106 143 184 238 284 342
#     4  11  24  38  50  68  98 142 197 249 286 315
#
# _framework density 18.440441
#
# number of rings (size 3 to 8) (size 9 to 14) (size 15 to 20)
#    0.000    1.636    1.818    4.909    5.091    5.091 
#    0.000    0.000    0.000    0.000    0.000    0.000 
#    0.000    0.364    0.000    0.000    0.000   11.636 
#
# Total GULP energy -1090350.629918 kJ/mol
# GULP energy per Si atom -12390.348067 kJ/mol
# Density = 1.839847 g / cm^3
# Si number density = 18.440441 Si / 1000 Ang^3
#
#
#
# Elastic Constant Matrix: (Units=GPa)
#
#
# Indices 1 2 3 4 5 6 
#
# 1 57.3674 10.6992 23.9950 0.0000 0.0000 0.0000
# 2 10.6992 57.3677 23.9950 0.0000 0.0000 0.0000
# 3 23.9950 23.9950 112.1058 0.0000 0.0000 0.0000
# 4 0.0000 0.0000 0.0000 18.7296 0.0000 0.0000
# 5 0.0000 0.0000 0.0000 0.0000 18.7295 0.0000
# 6 0.0000 0.0000 0.0000 0.0000 0.0000 14.4589
#
#
#
# Elastic Compliance Matrix: (Units=1/GPa)
#
#
# Indices 1 2 3 4 5 6 
#
# 1 0.019365 -0.002063 -0.003703 0.000000 0.000000 0.000000
# 2 -0.002063 0.019365 -0.003703 0.000000 0.000000 0.000000
# 3 -0.003703 -0.003703 0.010505 0.000000 0.000000 0.000000
# 4 0.000000 0.000000 0.000000 0.053391 0.000000 0.000000
# 5 0.000000 0.000000 0.000000 0.000000 0.053392 0.000000
# 6 0.000000 0.000000 0.000000 0.000000 0.000000 0.069161
#
#
# Mechanical properties :
#
#
# Convention : Reuss Voigt Hill
#
# Bulk Modulus (GPa) = 33.00670 38.24662 35.62666
# Shear Modulus (GPa) = 19.66815 21.59372 20.63094
#
# Velocity S-wave (km/s) = 3.26939 3.42570 3.34846
# Velocity P-wave (km/s) = 5.67361 6.03596 5.85759
#
# Compressibility (1/GPa) = 0.03029688
#
# Stress axis : x y z
#
# Youngs Moduli (GPa) = 51.63891 51.63926 95.18825
#
# Poissons Ratio (x) = 0.10651 0.35252
# Poissons Ratio (y) = 0.10651 0.35252
# Poissons Ratio (z) = 0.19124 0.19124
#
# Static dielectric constant tensor:
#      x y z
#    x 3.099660 0.000000 0.000000 
#    y 0.000000 3.099670 0.000000 
#    z 0.000000 0.000000 4.012110 
# 
# 
# High freq. dielectric constant tensor:
#      x y z
#    x 1.667850 0.000000 0.000000 
#    y 0.000000 1.667850 0.000000 
#    z 0.000000 0.000000 1.757680 
# 
# From -- ./inp_files/5263.got.cif
#   From: 2010.03.12/outbox.cif.g09.slc.cpg/sg124_3_cif.got.tgz:5263.got - 2010.04.06 16:38:57.
