data_PCOD8313574
_publ_section_title
;
Structure prediction by ZEFSAII (Michael W. Deem and Ramdas Pophale) SiO2 
 PCOD8313574
Probable space group: P 4/N B M
;
_chemical_formula_sum "Si O2"
_cell_formula_units_Z 128
_cell_length_a 20.521209
_cell_length_b 20.521209
_cell_length_c 17.814910
_cell_angle_alpha 90.000000
_cell_angle_beta 90.000000
_cell_angle_gamma 90.000000
_cell_volume 7502.215235
_symmetry_space_group_name_H-M "P 4/N B M"
_symmetry_group_IT_number 125
_space_group.IT_coordinate_system_code '2'
_symmetry_cell_setting 'tetragonal'
loop_
_space_group_symop_operation_xyz
x,y,z
1/2-y,x,z
1/2-x,1/2-y,z
y,1/2-x,z
x,1/2-y,-z
1/2-x,y,-z
y,x,-z
1/2-y,1/2-x,-z
-x,-y,-z
1/2+y,-x,-z
1/2+x,1/2+y,-z
-y,1/2+x,-z
-x,1/2+y,z
1/2+x,-y,z
-y,-x,z
1/2+y,1/2+x,z
loop_
_atom_site_type_symbol
_atom_site_label
_atom_site_fract_x
_atom_site_fract_y
_atom_site_fract_z
Si Si1 0.310629 0.168063 0.912129
Si Si2 0.996541 0.894198 0.293913
Si Si3 0.070019 0.675971 0.415834
Si Si4 0.606009 0.503894 0.295710
Si Si5 0.465264 0.374834 0.871150
Si Si6 0.893743 0.003324 0.131038
Si Si7 0.429836 0.823979 0.585219
Si Si8 0.673045 0.437625 0.997613
O O1 0.339403 0.236455 0.883031
O O2 0.345245 0.106059 0.878873
O O3 0.324245 0.175756 0.000000
O O4 0.990971 0.861118 0.212531
O O5 0.012087 0.840835 0.357411
O O6 0.928721 0.928319 0.316999
O O7 0.053436 0.946565 0.290182
O O8 0.133271 0.633271 0.397443
O O9 0.011366 0.659575 0.358757
O O10 0.044865 0.663173 0.500503
O O11 0.091634 0.749858 0.403723
O O12 0.552458 0.447543 0.293108
O O13 0.638424 0.511273 0.212674
O O14 0.451095 0.451107 0.887608
O O15 0.520542 0.345003 0.924324
O O16 0.926518 0.073483 0.134503
O O17 0.839255 0.011591 0.066474
O O18 0.366038 0.866038 0.602895
O O19 0.628139 0.371862 0.999605
O O20 0.750000 0.418315 0.000000
#
# Coordination Sequence:
#
# PCOD8313574 Si02
#       8
#    16  16  16  16  16  16  16  16
#     4   9  19  33  49  73 106 134 157 198 256 316
#     4   9  18  33  49  71 100 128 161 208 257 291
#     4   9  17  30  49  73  99 130 165 199 244 303
#     4   8  15  29  49  70  93 121 153 196 249 297
#     4  11  20  32  56  76 100 129 171 210 253 305
#     4   9  18  33  51  74 100 123 158 212 260 296
#     4   9  18  31  47  70 101 132 164 205 247 292
#     4  11  24  37  52  74 100 136 179 216 255 301
#
# _framework density 17.061627000000001
#
# number of rings (size 3 to 8) (size 9 to 14) (size 15 to 20)
#    0.000    2.625    0.000    3.375    3.500    2.875 
#    2.250    3.750    0.000    0.000    0.000    5.250 
#    0.000    0.000    0.000    2.750    0.000    0.250 
#
# Total GULP energy -1585885.479470 kJ/mol
# GULP energy per Si atom -12389.730308 kJ/mol
# Density = 1.702279 g / cm^3
# Si number density = 17.061627 Si / 1000 Ang^3
#
#
#
# Elastic Constant Matrix: (Units=GPa)
#
#
# Indices 1 2 3 4 5 6 
#
# 1 79.8721 25.0519 55.3988 0.0000 0.0000 0.0000
# 2 25.0519 79.8742 55.3976 0.0000 0.0000 0.0000
# 3 55.3988 55.3976 115.8370 0.0000 0.0000 0.0000
# 4 0.0000 0.0000 0.0000 51.3900 0.0000 0.0000
# 5 0.0000 0.0000 0.0000 0.0000 51.3232 0.0000
# 6 0.0000 0.0000 0.0000 0.0000 0.0000 21.4645
#
#
#
# Elastic Compliance Matrix: (Units=1/GPa)
#
#
# Indices 1 2 3 4 5 6 
#
# 1 0.018748 0.000506 -0.009208 0.000000 0.000000 0.000000
# 2 0.000506 0.018747 -0.009208 0.000000 0.000000 0.000000
# 3 -0.009208 -0.009208 0.017440 0.000000 0.000000 0.000000
# 4 0.000000 0.000000 0.000000 0.019459 0.000000 0.000000
# 5 0.000000 0.000000 0.000000 0.000000 0.019484 0.000000
# 6 0.000000 0.000000 0.000000 0.000000 0.000000 0.046589
#
#
# Mechanical properties :
#
#
# Convention : Reuss Voigt Hill
#
# Bulk Modulus (GPa) = 52.31265 60.80889 56.56077
# Shear Modulus (GPa) = 27.37349 34.15119 30.76234
#
# Velocity S-wave (km/s) = 4.00983 4.47882 4.25080
# Velocity P-wave (km/s) = 7.22259 7.90345 7.57068
#
# Compressibility (1/GPa) = 0.01911584
#
# Stress axis : x y z
#
# Youngs Moduli (GPa) = 53.33874 53.34209 57.33886
#
# Poissons Ratio (x) = -0.02701 0.52800
# Poissons Ratio (y) = -0.02701 0.52796
# Poissons Ratio (z) = 0.49117 0.49116
#
# Static dielectric constant tensor:
#      x y z
#    x 3.782020 0.000000 0.000000 
#    y 0.000000 3.782360 0.000000 
#    z 0.000000 0.000000 3.398610 
# 
# 
# High freq. dielectric constant tensor:
#      x y z
#    x 1.643770 0.000000 0.000000 
#    y 0.000000 1.643770 0.000000 
#    z 0.000000 0.000000 1.658600 
# 
# From -- ./inp_files/5655.got.cif
#   From: 2010.03.12/outbox.cif.g09.slc.cpg/sg125_3_cif.got.tgz:5655.got - 2010.04.06 16:47:52.
