data_PCOD8313829
_publ_section_title
;
Structure prediction by ZEFSAII (Michael W. Deem and Ramdas Pophale) SiO2 
 PCOD8313829
Probable space group: P 4/M B M
;
_chemical_formula_sum "Si O2"
_cell_formula_units_Z 72
_cell_length_a 23.017736
_cell_length_b 23.017736
_cell_length_c 9.157314
_cell_angle_alpha 90.000000
_cell_angle_beta 90.000000
_cell_angle_gamma 90.000000
_cell_volume 4851.693036
_symmetry_space_group_name_H-M "P 4/M B M"
_symmetry_group_IT_number 127
_symmetry_cell_setting 'tetragonal'
loop_
_space_group_symop_operation_xyz
x,y,z
-y,x,z
-x,-y,z
y,-x,z
1/2+x,1/2-y,-z
1/2-x,1/2+y,-z
1/2+y,1/2+x,-z
1/2-y,1/2-x,-z
-x,-y,-z
y,-x,-z
x,y,-z
-y,x,-z
1/2-x,1/2+y,z
1/2+x,1/2-y,z
1/2-y,1/2-x,z
1/2+y,1/2+x,z
loop_
_atom_site_type_symbol
_atom_site_label
_atom_site_fract_x
_atom_site_fract_y
_atom_site_fract_z
Si Si1 0.292929 0.304609 0.662261
Si Si2 0.545922 0.954079 0.673259
Si Si3 0.699979 0.108376 0.326459
Si Si4 0.628393 0.775691 0.829376
Si Si5 0.324443 0.020353 0.673664
O O1 0.319622 0.313565 0.500000
O O2 0.243059 0.256942 0.653392
O O3 0.262189 0.363833 0.720242
O O4 0.343197 0.284319 0.772449
O O5 0.543455 0.956546 0.500000
O O6 0.609845 0.970523 0.728832
O O7 0.500000 0.000000 0.739577
O O8 0.695091 0.109223 0.500000
O O9 0.646256 0.146256 0.261972
O O10 0.696280 0.042557 0.269451
O O11 0.670019 0.829982 0.791842
O O12 0.567670 0.783291 0.747707
O O13 0.617288 0.769693 0.000000
O O14 0.319668 0.026990 0.500000
#
# Coordination Sequence:
#
# PCOD8313829 Si02
#       5
#    16   8  16  16  16
#     4   8  14  26  44  61  77 100 133 172 215 255
#     4   9  16  24  37  59  83 111 147 179 199 228
#     4   8  14  25  42  64  85 105 134 176 215 246
#     4  10  19  29  40  56  81 110 141 177 212 244
#     4  10  17  26  42  62  84 110 142 174 207 245
#
# _framework density 14.84018
#
# number of rings (size 3 to 8) (size 9 to 14) (size 15 to 20)
#    0.000    3.000    1.111    2.667    0.000    3.556 
#    0.000    1.111    0.000    4.667    0.000    0.000 
#    0.000    0.889    0.000   10.222    0.000    4.000 
#
# Total GULP energy -892455.523416 kJ/mol
# GULP energy per Si atom -12395.215603 kJ/mol
# Density = 1.480640 g / cm^3
# Si number density = 14.840180 Si / 1000 Ang^3
#
#
#
# Elastic Constant Matrix: (Units=GPa)
#
#
# Indices 1 2 3 4 5 6 
#
# 1 93.0608 72.9348 31.4654 0.0000 0.0000 0.0000
# 2 72.9348 93.0607 31.4655 0.0000 0.0000 0.0000
# 3 31.4654 31.4655 39.6475 0.0000 0.0000 0.0000
# 4 0.0000 0.0000 0.0000 8.3398 0.0000 0.0000
# 5 0.0000 0.0000 0.0000 0.0000 8.3398 0.0000
# 6 0.0000 0.0000 0.0000 0.0000 0.0000 28.1568
#
#
#
# Elastic Compliance Matrix: (Units=1/GPa)
#
#
# Indices 1 2 3 4 5 6 
#
# 1 0.029152 -0.020535 -0.006838 0.000000 0.000000 0.000000
# 2 -0.020535 0.029152 -0.006839 0.000000 0.000000 0.000000
# 3 -0.006838 -0.006839 0.036077 0.000000 0.000000 0.000000
# 4 0.000000 0.000000 0.000000 0.119907 0.000000 0.000000
# 5 0.000000 0.000000 0.000000 0.000000 0.119906 0.000000
# 6 0.000000 0.000000 0.000000 0.000000 0.000000 0.035515
#
#
# Mechanical properties :
#
#
# Convention : Reuss Voigt Hill
#
# Bulk Modulus (GPa) = 38.52638 55.27782 46.90210
# Shear Modulus (GPa) = 11.19104 14.96085 13.07594
#
# Velocity S-wave (km/s) = 2.74907 3.17855 2.97158
# Velocity P-wave (km/s) = 6.00781 7.12745 6.59145
#
# Compressibility (1/GPa) = 0.02595624
#
# Stress axis : x y z
#
# Youngs Moduli (GPa) = 34.30307 34.30294 27.71857
#
# Poissons Ratio (x) = 0.70442 0.18955
# Poissons Ratio (y) = 0.70442 0.18956
# Poissons Ratio (z) = 0.23458 0.23459
#
# Static dielectric constant tensor:
#      x y z
#    x 2.950380 0.000000 0.000000 
#    y 0.000000 2.950380 0.000000 
#    z 0.000000 0.000000 2.586980 
# 
# 
# High freq. dielectric constant tensor:
#      x y z
#    x 1.550420 0.000000 0.000000 
#    y 0.000000 1.550420 0.000000 
#    z 0.000000 0.000000 1.538900 
# 
# From -- ./inp_files/1745.got.cif
#   From: 2010.03.12/outbox.cif.g09.slc.cpg/sg127_1_cif.got.tgz:1745.got - 2010.04.06 17:03:15.
