data_PCOD8313730
_publ_section_title
;
Structure prediction by ZEFSAII (Michael W. Deem and Ramdas Pophale) SiO2 
 PCOD8313730
Probable space group: P 4/N N C
;
_chemical_formula_sum "Si O2"
_cell_formula_units_Z 112
_cell_length_a 14.289477
_cell_length_b 14.289477
_cell_length_c 26.846423
_cell_angle_alpha 90.000000
_cell_angle_beta 90.000000
_cell_angle_gamma 90.000000
_cell_volume 5481.748372
_symmetry_space_group_name_H-M "P 4/N N C"
_symmetry_group_IT_number 126
_space_group.IT_coordinate_system_code '2'
_symmetry_cell_setting 'tetragonal'
loop_
_space_group_symop_operation_xyz
x,y,z
1/2-y,x,z
1/2-x,1/2-y,z
y,1/2-x,z
x,1/2-y,1/2-z
1/2-x,y,1/2-z
y,x,1/2-z
1/2-y,1/2-x,1/2-z
-x,-y,-z
1/2+y,-x,-z
1/2+x,1/2+y,-z
-y,1/2+x,-z
-x,1/2+y,1/2+z
1/2+x,-y,1/2+z
-y,-x,1/2+z
1/2+y,1/2+x,1/2+z
loop_
_atom_site_type_symbol
_atom_site_label
_atom_site_fract_x
_atom_site_fract_y
_atom_site_fract_z
Si Si1 0.222460 0.605200 0.507586
Si Si2 0.953688 0.571521 0.372271
Si Si3 0.264862 0.980572 0.611766
Si Si4 0.010348 0.426794 0.044103
Si Si5 0.149281 0.799348 0.297044
Si Si6 0.337747 0.377009 0.386827
Si Si7 0.499235 0.081565 0.298765
O O1 0.147557 0.687217 0.520590
O O2 0.261704 0.562714 0.558661
O O3 0.174889 0.526510 0.472984
O O4 0.856410 0.542744 0.397467
O O5 0.964552 0.518684 0.319573
O O6 0.953902 0.683194 0.365929
O O7 0.040568 0.548206 0.408069
O O8 0.281731 0.898228 0.650456
O O9 0.118770 0.421794 0.062474
O O10 0.000000 0.500000 0.000000
O O11 0.250000 0.750000 0.300262
O O12 0.096589 0.750000 0.250000
O O13 0.149313 0.911747 0.287509
O O14 0.226977 0.379418 0.386420
O O15 0.368765 0.432580 0.338129
O O16 0.437774 0.062227 0.250000
#
# Coordination Sequence:
#
# PCOD8313730 Si02
#       7
#    16  16  16  16  16  16  16
#     4  11  24  37  59  92 120 159 208 264 336 396
#     4  10  22  38  59  88 118 164 202 263 319 385
#     4  11  22  39  60  85 125 160 211 260 318 395
#     4  11  22  39  63  83 122 161 213 264 323 393
#     4  10  23  39  63  98 131 162 211 272 334 394
#     4  10  25  43  62  92 128 174 221 266 322 398
#     4  10  22  42  68  95 129 174 213 266 341 400
#
# _framework density 20.431436999999999
#
# number of rings (size 3 to 8) (size 9 to 14) (size 15 to 20)
#    0.000    1.571    2.857    0.857    4.000    5.429 
#    0.000    0.714    0.000    0.000    0.000    2.000 
#    0.000    0.000    0.000    0.000    0.000    0.000 
#
# Total GULP energy -1388590.090867 kJ/mol
# GULP energy per Si atom -12398.125811 kJ/mol
# Density = 2.038493 g / cm^3
# Si number density = 20.431437 Si / 1000 Ang^3
#
#
#
# Elastic Constant Matrix: (Units=GPa)
#
#
# Indices 1 2 3 4 5 6 
#
# 1 104.2692 42.7831 32.3692 0.0000 0.0000 0.0000
# 2 42.7831 104.2689 32.3691 0.0000 0.0000 0.0000
# 3 32.3692 32.3691 92.4958 0.0000 0.0000 0.0000
# 4 0.0000 0.0000 0.0000 29.3339 0.0000 0.0000
# 5 0.0000 0.0000 0.0000 0.0000 29.3341 0.0000
# 6 0.0000 0.0000 0.0000 0.0000 0.0000 30.2015
#
#
#
# Elastic Compliance Matrix: (Units=1/GPa)
#
#
# Indices 1 2 3 4 5 6 
#
# 1 0.012151 -0.004113 -0.002813 0.000000 0.000000 0.000000
# 2 -0.004113 0.012151 -0.002813 0.000000 0.000000 0.000000
# 3 -0.002813 -0.002813 0.012780 0.000000 0.000000 0.000000
# 4 0.000000 0.000000 0.000000 0.034090 0.000000 0.000000
# 5 0.000000 0.000000 0.000000 0.000000 0.034090 0.000000
# 6 0.000000 0.000000 0.000000 0.000000 0.000000 0.033111
#
#
# Mechanical properties :
#
#
# Convention : Reuss Voigt Hill
#
# Bulk Modulus (GPa) = 56.80182 57.34186 57.07184
# Shear Modulus (GPa) = 30.53986 30.67472 30.60729
#
# Velocity S-wave (km/s) = 3.87039 3.87893 3.87466
# Velocity P-wave (km/s) = 6.91627 6.94175 6.92902
#
# Compressibility (1/GPa) = 0.01760507
#
# Stress axis : x y z
#
# Youngs Moduli (GPa) = 82.29553 82.29530 78.24558
#
# Poissons Ratio (x) = 0.33844 0.22012
# Poissons Ratio (y) = 0.33844 0.22012
# Poissons Ratio (z) = 0.23151 0.23151
#
# Static dielectric constant tensor:
#      x y z
#    x 3.847180 0.000000 0.000000 
#    y 0.000000 3.847180 0.000000 
#    z 0.000000 0.000000 3.765570 
# 
# 
# High freq. dielectric constant tensor:
#      x y z
#    x 1.798430 0.000000 0.000000 
#    y 0.000000 1.798430 0.000000 
#    z 0.000000 0.000000 1.800110 
# 
# From -- ./inp_files/5830.got.cif
#   From: 2010.03.12/outbox.cif.g09.slc.cpg/sg126_3_cif.got.tgz:5830.got - 2010.04.06 16:55:23.
