data_PCOD8313125
_publ_section_title
;
Structure prediction by ZEFSAII (Michael W. Deem and Ramdas Pophale) SiO2 
 PCOD8313125
Probable space group: P 4/M C C
;
_chemical_formula_sum "Si O2"
_cell_formula_units_Z 56
_cell_length_a 19.716212
_cell_length_b 19.716212
_cell_length_c 10.252647
_cell_angle_alpha 90.000000
_cell_angle_beta 90.000000
_cell_angle_gamma 90.000000
_cell_volume 3985.501376
_symmetry_space_group_name_H-M "P 4/M C C"
_symmetry_group_IT_number 124
_symmetry_cell_setting 'tetragonal'
loop_
_space_group_symop_operation_xyz
x,y,z
-y,x,z
-x,-y,z
y,-x,z
x,-y,1/2-z
-x,y,1/2-z
y,x,1/2-z
-y,-x,1/2-z
-x,-y,-z
y,-x,-z
x,y,-z
-y,x,-z
-x,y,1/2+z
x,-y,1/2+z
-y,-x,1/2+z
y,x,1/2+z
loop_
_atom_site_type_symbol
_atom_site_label
_atom_site_fract_x
_atom_site_fract_y
_atom_site_fract_z
Si Si1 0.898146 0.952166 0.500000
Si Si2 0.568473 0.918456 0.500000
Si Si3 0.919868 0.585337 0.500000
Si Si4 0.651734 0.079094 0.760055
Si Si5 0.204845 0.125976 0.353684
O O1 0.854645 0.930743 0.371547
O O2 0.968012 0.910309 0.500000
O O3 0.491420 0.892378 0.500000
O O4 0.604988 0.888255 0.627680
O O5 0.578879 0.999153 0.500000
O O6 0.890058 0.627114 0.622702
O O7 0.729915 0.091210 0.791470
O O8 0.638382 0.000000 0.750000
O O9 0.182919 0.182919 0.250000
O O10 0.219814 0.156665 0.500000
#
# Coordination Sequence:
#
# PCOD8313125 Si02
#       5
#     8   8   8  16  16
#     4   9  21  37  49  61  74 101 140 197 249 282
#     4   9  15  32  42  68  90 108 130 158 211 257
#     4   9  18  25  49  67  88 108 129 162 201 279
#     4  10  19  30  46  65  86 111 136 170 218 268
#     4  10  23  34  48  62  81 109 141 187 225 282
#
# _framework density 14.050929999999999
#
# number of rings (size 3 to 8) (size 9 to 14) (size 15 to 20)
#    0.857    1.571    1.429    0.857    6.000    3.429 
#    0.000    1.429    0.000    0.000    0.000    0.000 
#    0.000    0.000    0.000    0.000    0.000    0.000 
#
# Total GULP energy -693765.838601 kJ/mol
# GULP energy per Si atom -12388.675689 kJ/mol
# Density = 1.401895 g / cm^3
# Si number density = 14.050930 Si / 1000 Ang^3
#
#
#
# Elastic Constant Matrix: (Units=GPa)
#
#
# Indices 1 2 3 4 5 6 
#
# 1 64.5889 12.3457 39.3425 0.0000 0.0000 0.0000
# 2 12.3457 64.5889 39.3425 0.0000 0.0000 0.0000
# 3 39.3425 39.3425 135.1614 0.0000 0.0000 0.0000
# 4 0.0000 0.0000 0.0000 21.1199 0.0000 0.0000
# 5 0.0000 0.0000 0.0000 0.0000 21.1199 0.0000
# 6 0.0000 0.0000 0.0000 0.0000 0.0000 6.5903
#
#
#
# Elastic Compliance Matrix: (Units=1/GPa)
#
#
# Indices 1 2 3 4 5 6 
#
# 1 0.018825 -0.000317 -0.005387 0.000000 0.000000 0.000000
# 2 -0.000317 0.018825 -0.005387 0.000000 0.000000 0.000000
# 3 -0.005387 -0.005387 0.010535 0.000000 0.000000 0.000000
# 4 0.000000 0.000000 0.000000 0.047349 0.000000 0.000000
# 5 0.000000 0.000000 0.000000 0.000000 0.047349 0.000000
# 6 0.000000 0.000000 0.000000 0.000000 0.000000 0.151739
#
#
# Mechanical properties :
#
#
# Convention : Reuss Voigt Hill
#
# Bulk Modulus (GPa) = 38.45918 49.60006 44.02962
# Shear Modulus (GPa) = 15.36243 21.31991 18.34117
#
# Velocity S-wave (km/s) = 3.31015 3.89952 3.61686
# Velocity P-wave (km/s) = 6.48384 7.46002 6.98899
#
# Compressibility (1/GPa) = 0.02600159
#
# Stress axis : x y z
#
# Youngs Moduli (GPa) = 53.12205 53.12205 94.92360
#
# Poissons Ratio (x) = 0.01682 0.51138
# Poissons Ratio (y) = 0.01682 0.51138
# Poissons Ratio (z) = 0.28618 0.28618
#
# Static dielectric constant tensor:
#      x y z
#    x 2.499940 0.000000 0.000000 
#    y 0.000000 2.499940 0.000000 
#    z 0.000000 0.000000 3.136930 
# 
# 
# High freq. dielectric constant tensor:
#      x y z
#    x 1.495710 0.000000 0.000000 
#    y 0.000000 1.495710 0.000000 
#    z 0.000000 0.000000 1.561000 
# 
# From -- ./inp_files/2184.got.cif
#   From: 2010.03.12/outbox.cif.g09.slc.cpg/sg124_2_cif.got.tgz:2184.got - 2010.04.06 16:38:57.
