data_PCOD8313896
_publ_section_title
;
Structure prediction by ZEFSAII (Michael W. Deem and Ramdas Pophale) SiO2 
 PCOD8313896
Probable space group: P 4/M B M
;
_chemical_formula_sum "Si O2"
_cell_formula_units_Z 96
_cell_length_a 23.074263
_cell_length_b 23.074263
_cell_length_c 8.997968
_cell_angle_alpha 90.000000
_cell_angle_beta 90.000000
_cell_angle_gamma 90.000000
_cell_volume 4790.712636
_symmetry_space_group_name_H-M "P 4/M B M"
_symmetry_group_IT_number 127
_symmetry_cell_setting 'tetragonal'
loop_
_space_group_symop_operation_xyz
x,y,z
-y,x,z
-x,-y,z
y,-x,z
1/2+x,1/2-y,-z
1/2-x,1/2+y,-z
1/2+y,1/2+x,-z
1/2-y,1/2-x,-z
-x,-y,-z
y,-x,-z
x,y,-z
-y,x,-z
1/2-x,1/2+y,z
1/2+x,1/2-y,z
1/2-y,1/2-x,z
1/2+y,1/2+x,z
loop_
_atom_site_type_symbol
_atom_site_label
_atom_site_fract_x
_atom_site_fract_y
_atom_site_fract_z
Si Si1 0.116141 0.289292 0.823317
Si Si2 0.800614 0.300614 0.331639
Si Si3 0.885613 0.385613 0.824222
Si Si4 0.667492 0.321762 0.327154
Si Si5 0.938178 0.187688 0.825856
Si Si6 0.986824 0.309381 0.176316
Si Si7 0.406123 0.504212 0.669580
O O1 0.163156 0.336845 0.770891
O O2 0.129064 0.227263 0.751309
O O3 0.052904 0.310814 0.764963
O O4 0.116863 0.281983 0.000000
O O5 0.817204 0.317204 0.500000
O O6 0.838357 0.338357 0.220927
O O7 0.734072 0.309730 0.296987
O O8 0.865667 0.449698 0.766879
O O9 0.886220 0.386220 0.000000
O O10 0.650845 0.322582 0.500000
O O11 0.656976 0.384603 0.257192
O O12 0.951956 0.252536 0.768219
O O13 0.993620 0.148651 0.780685
O O14 0.926815 0.186874 0.000000
O O15 0.989235 0.308216 0.000000
O O16 0.440523 0.446129 0.702781
O O17 0.384138 0.505270 0.500000
#
# Coordination Sequence:
#
# PCOD8313896 Si02
#       7
#    16   8   8  16  16  16  16
#     4  10  21  38  59  84 117 152 187 230 283 339
#     4  10  20  34  54  81 113 138 175 226 271 330
#     4  10  18  36  61  80 110 150 189 229 280 336
#     4  11  22  37  56  82 114 146 183 228 281 341
#     4  11  22  35  54  83 115 147 190 237 284 339
#     4   9  20  36  56  84 113 145 188 236 281 334
#     4   9  20  39  57  74 105 150 197 239 280 331
#
# _framework density 20.038772999999999
#
# number of rings (size 3 to 8) (size 9 to 14) (size 15 to 20)
#    0.000    2.000    2.500    1.500    2.333    1.333 
#    0.000    2.917    0.000    2.500    0.000    0.000 
#    0.000    2.000    0.000    0.000    0.000    0.000 
#
# Total GULP energy -1190004.604122 kJ/mol
# GULP energy per Si atom -12395.881293 kJ/mol
# Density = 1.999316 g / cm^3
# Si number density = 20.038773 Si / 1000 Ang^3
#
#
#
# Elastic Constant Matrix: (Units=GPa)
#
#
# Indices 1 2 3 4 5 6 
#
# 1 109.0235 9.2244 19.6416 0.0000 0.0000 0.0000
# 2 9.2244 109.0235 19.6416 0.0000 0.0000 0.0000
# 3 19.6416 19.6416 39.8665 0.0000 0.0000 0.0000
# 4 0.0000 0.0000 0.0000 63.9320 0.0000 0.0000
# 5 0.0000 0.0000 0.0000 0.0000 63.9320 0.0000
# 6 0.0000 0.0000 0.0000 0.0000 0.0000 33.7220
#
#
#
# Elastic Compliance Matrix: (Units=1/GPa)
#
#
# Indices 1 2 3 4 5 6 
#
# 1 0.010066 0.000046 -0.004982 0.000000 0.000000 0.000000
# 2 0.000046 0.010066 -0.004982 0.000000 0.000000 0.000000
# 3 -0.004982 -0.004982 0.029993 0.000000 0.000000 0.000000
# 4 0.000000 0.000000 0.000000 0.015642 0.000000 0.000000
# 5 0.000000 0.000000 0.000000 0.000000 0.015642 0.000000
# 6 0.000000 0.000000 0.000000 0.000000 0.000000 0.029654
#
#
# Mechanical properties :
#
#
# Convention : Reuss Voigt Hill
#
# Bulk Modulus (GPa) = 33.01562 39.43650 36.22606
# Shear Modulus (GPa) = 35.46236 46.27757 40.86996
#
# Velocity S-wave (km/s) = 4.21133 4.81084 4.52103
# Velocity P-wave (km/s) = 6.33709 7.11208 6.73574
#
# Compressibility (1/GPa) = 0.03028870
#
# Stress axis : x y z
#
# Youngs Moduli (GPa) = 99.34433 99.34433 33.34139
#
# Poissons Ratio (x) = -0.00456 0.16611
# Poissons Ratio (y) = -0.00456 0.16611
# Poissons Ratio (z) = 0.49493 0.49493
#
# Static dielectric constant tensor:
#      x y z
#    x 2.701680 0.000000 0.000000 
#    y 0.000000 2.701680 0.000000 
#    z 0.000000 0.000000 3.350540 
# 
# 
# High freq. dielectric constant tensor:
#      x y z
#    x 1.785320 0.000000 0.000000 
#    y 0.000000 1.785320 0.000000 
#    z 0.000000 0.000000 1.755750 
# 
# From -- ./inp_files/2054.got.cif
#   From: 2010.03.12/outbox.cif.g09.slc.cpg/sg127_2_cif.got.tgz:2054.got - 2010.04.06 17:03:15.
