data_PCOD8313841
_publ_section_title
;
Structure prediction by ZEFSAII (Michael W. Deem and Ramdas Pophale) SiO2 
 PCOD8313841
Probable space group: P 4/M B M
;
_chemical_formula_sum "Si O2"
_cell_formula_units_Z 80
_cell_length_a 19.258907
_cell_length_b 19.258907
_cell_length_c 13.868160
_cell_angle_alpha 90.000000
_cell_angle_beta 90.000000
_cell_angle_gamma 90.000000
_cell_volume 5143.776803
_symmetry_space_group_name_H-M "P 4/M B M"
_symmetry_group_IT_number 127
_symmetry_cell_setting 'tetragonal'
loop_
_space_group_symop_operation_xyz
x,y,z
-y,x,z
-x,-y,z
y,-x,z
1/2+x,1/2-y,-z
1/2-x,1/2+y,-z
1/2+y,1/2+x,-z
1/2-y,1/2-x,-z
-x,-y,-z
y,-x,-z
x,y,-z
-y,x,-z
1/2-x,1/2+y,z
1/2+x,1/2-y,z
1/2-y,1/2-x,z
1/2+y,1/2+x,z
loop_
_atom_site_type_symbol
_atom_site_label
_atom_site_fract_x
_atom_site_fract_y
_atom_site_fract_z
Si Si1 0.244599 0.140206 0.703710
Si Si2 0.294271 0.004808 0.611143
Si Si3 0.854736 0.757341 0.610365
Si Si4 0.411265 0.204775 0.105875
Si Si5 0.003892 0.388974 0.215449
O O1 0.312989 0.187012 0.684711
O O2 0.248715 0.072372 0.636351
O O3 0.175259 0.182113 0.678384
O O4 0.239844 0.117450 0.816282
O O5 0.317098 0.006322 0.500000
O O6 0.249585 0.935865 0.633986
O O7 0.363775 0.002725 0.674464
O O8 0.842481 0.779700 0.500000
O O9 0.815364 0.684637 0.631523
O O10 0.358089 0.141912 0.097954
O O11 0.485402 0.174248 0.142922
O O12 0.421058 0.239484 0.000000
O O13 0.081317 0.418684 0.194658
O O14 0.949898 0.449898 0.199536
#
# Coordination Sequence:
#
# PCOD8313841 Si02
#       5
#    16  16  16  16  16
#     4   9  17  29  45  63  82 107 142 181 214 248
#     4  10  18  27  41  60  83 112 145 177 208 246
#     4   9  17  28  42  61  85 112 139 168 208 256
#     4   8  14  25  41  59  77 102 139 176 206 239
#     4   9  17  26  36  56  86 116 143 170 204 248
#
# _framework density 15.552773999999999
#
# number of rings (size 3 to 8) (size 9 to 14) (size 15 to 20)
#    0.000    3.000    0.000    3.000    0.000    4.000 
#    0.000    3.000    0.000    5.400    0.000    8.400 
#    0.000    0.000    0.000    7.200    0.000    1.600 
#
# Total GULP energy -991464.387597 kJ/mol
# GULP energy per Si atom -12393.304845 kJ/mol
# Density = 1.551738 g / cm^3
# Si number density = 15.552774 Si / 1000 Ang^3
#
#
#
# Elastic Constant Matrix: (Units=GPa)
#
#
# Indices 1 2 3 4 5 6 
#
# 1 55.0749 17.6083 22.4596 0.0000 0.0000 0.0000
# 2 17.6083 55.0749 22.4596 0.0000 0.0000 0.0000
# 3 22.4596 22.4596 92.1524 0.0000 0.0000 0.0000
# 4 0.0000 0.0000 0.0000 14.3256 0.0000 0.0000
# 5 0.0000 0.0000 0.0000 0.0000 14.3256 0.0000
# 6 0.0000 0.0000 0.0000 0.0000 0.0000 16.3941
#
#
#
# Elastic Compliance Matrix: (Units=1/GPa)
#
#
# Indices 1 2 3 4 5 6 
#
# 1 0.021444 -0.005246 -0.003948 0.000000 0.000000 0.000000
# 2 -0.005246 0.021444 -0.003948 0.000000 0.000000 0.000000
# 3 -0.003948 -0.003948 0.012776 0.000000 0.000000 0.000000
# 4 0.000000 0.000000 0.000000 0.069805 0.000000 0.000000
# 5 0.000000 0.000000 0.000000 0.000000 0.069805 0.000000
# 6 0.000000 0.000000 0.000000 0.000000 0.000000 0.060997
#
#
# Mechanical properties :
#
#
# Convention : Reuss Voigt Hill
#
# Bulk Modulus (GPa) = 34.03574 36.37300 35.20437
# Shear Modulus (GPa) = 17.10283 18.32739 17.71511
#
# Velocity S-wave (km/s) = 3.31972 3.43651 3.37862
# Velocity P-wave (km/s) = 6.05190 6.25969 6.15667
#
# Compressibility (1/GPa) = 0.02938088
#
# Stress axis : x y z
#
# Youngs Moduli (GPa) = 46.63242 46.63242 78.27212
#
# Poissons Ratio (x) = 0.24464 0.30901
# Poissons Ratio (y) = 0.24464 0.30901
# Poissons Ratio (z) = 0.18410 0.18410
#
# Static dielectric constant tensor:
#      x y z
#    x 2.816980 0.000000 0.000000 
#    y 0.000000 2.816980 0.000000 
#    z 0.000000 0.000000 3.200130 
# 
# 
# High freq. dielectric constant tensor:
#      x y z
#    x 1.568820 0.000000 0.000000 
#    y 0.000000 1.568820 0.000000 
#    z 0.000000 0.000000 1.598230 
# 
# From -- ./inp_files/4254.got.cif
#   From: 2010.03.12/outbox.cif.g09.slc.cpg/sg127_3_cif.got.tgz:4254.got - 2010.04.06 17:03:15.
