data_PCOD8313786
_publ_section_title
;
Structure prediction by ZEFSAII (Michael W. Deem and Ramdas Pophale) SiO2 
 PCOD8313786
Probable space group: P 4/N N C
;
_chemical_formula_sum "Si O2"
_cell_formula_units_Z 72
_cell_length_a 20.758484
_cell_length_b 20.758484
_cell_length_c 8.001306
_cell_angle_alpha 90.000000
_cell_angle_beta 90.000000
_cell_angle_gamma 90.000000
_cell_volume 3447.880038
_symmetry_space_group_name_H-M "P 4/N N C"
_symmetry_group_IT_number 126
_space_group.IT_coordinate_system_code '2'
_symmetry_cell_setting 'tetragonal'
loop_
_space_group_symop_operation_xyz
x,y,z
1/2-y,x,z
1/2-x,1/2-y,z
y,1/2-x,z
x,1/2-y,1/2-z
1/2-x,y,1/2-z
y,x,1/2-z
1/2-y,1/2-x,1/2-z
-x,-y,-z
1/2+y,-x,-z
1/2+x,1/2+y,-z
-y,1/2+x,-z
-x,1/2+y,1/2+z
1/2+x,-y,1/2+z
-y,-x,1/2+z
1/2+y,1/2+x,1/2+z
loop_
_atom_site_type_symbol
_atom_site_label
_atom_site_fract_x
_atom_site_fract_y
_atom_site_fract_z
Si Si1 0.361770 0.542286 0.835046
Si Si2 0.143827 0.250429 0.059818
Si Si3 0.673248 0.208965 0.909677
Si Si4 0.558414 0.491081 0.877174
Si Si5 0.250000 0.451929 0.750000
O O1 0.334442 0.611072 0.887203
O O2 0.423488 0.552733 0.719388
O O3 0.311876 0.498039 0.736205
O O4 0.377424 0.506611 0.011484
O O5 0.186486 0.186976 0.032196
O O6 0.115579 0.250000 0.250000
O O7 0.088689 0.250926 0.920103
O O8 0.688886 0.250000 0.750000
O O9 0.664053 0.264243 0.053057
O O10 0.552171 0.552171 0.750000
O O11 0.500000 0.500000 0.000000
#
# Coordination Sequence:
#
# PCOD8313786 Si02
#       5
#    16  16  16  16   8
#     4  11  23  42  64  93 130 166 226 273 328 400
#     4   9  20  42  67  96 134 172 211 268 347 412
#     4  11  22  39  63  92 124 166 211 264 333 392
#     4   9  21  43  66  86 121 177 213 263 334 403
#     4  12  24  39  64 105 130 170 224 284 326 388
#
# _framework density 20.882396
#
# number of rings (size 3 to 8) (size 9 to 14) (size 15 to 20)
#    0.000    1.778    1.111    4.000    0.000    6.222 
#   12.000    2.222    0.000    0.000    0.000    0.000 
#    0.000    0.000    0.000    0.000    0.000    0.000 
#
# Total GULP energy -891959.982486 kJ/mol
# GULP energy per Si atom -12388.333090 kJ/mol
# Density = 2.083487 g / cm^3
# Si number density = 20.882396 Si / 1000 Ang^3
#
#
#
# Elastic Constant Matrix: (Units=GPa)
#
#
# Indices 1 2 3 4 5 6 
#
# 1 88.3970 52.7521 41.6294 0.0000 0.0000 0.0000
# 2 52.7521 88.3970 41.6294 0.0000 0.0000 0.0000
# 3 41.6294 41.6294 118.5026 0.0000 0.0000 0.0000
# 4 0.0000 0.0000 0.0000 14.2853 0.0000 0.0000
# 5 0.0000 0.0000 0.0000 0.0000 14.2853 0.0000
# 6 0.0000 0.0000 0.0000 0.0000 0.0000 33.3023
#
#
#
# Elastic Compliance Matrix: (Units=1/GPa)
#
#
# Indices 1 2 3 4 5 6 
#
# 1 0.018495 -0.009559 -0.003139 0.000000 0.000000 0.000000
# 2 -0.009559 0.018495 -0.003139 0.000000 0.000000 0.000000
# 3 -0.003139 -0.003139 0.010644 0.000000 0.000000 0.000000
# 4 0.000000 0.000000 0.000000 0.070002 0.000000 0.000000
# 5 0.000000 0.000000 0.000000 0.000000 0.070002 0.000000
# 6 0.000000 0.000000 0.000000 0.000000 0.000000 0.030028
#
#
# Mechanical properties :
#
#
# Convention : Reuss Voigt Hill
#
# Bulk Modulus (GPa) = 62.65699 63.03536 62.84618
# Shear Modulus (GPa) = 19.63383 22.99363 21.31373
#
# Velocity S-wave (km/s) = 3.06961 3.32188 3.19824
# Velocity P-wave (km/s) = 6.52941 6.70557 6.61807
#
# Compressibility (1/GPa) = 0.01595991
#
# Stress axis : x y z
#
# Youngs Moduli (GPa) = 54.06727 54.06727 93.94693
#
# Poissons Ratio (x) = 0.51683 0.29493
# Poissons Ratio (y) = 0.51683 0.29493
# Poissons Ratio (z) = 0.16974 0.16974
#
# Static dielectric constant tensor:
#      x y z
#    x 4.202080 0.000000 0.000000 
#    y 0.000000 4.202080 0.000000 
#    z 0.000000 0.000000 4.807390 
# 
# 
# High freq. dielectric constant tensor:
#      x y z
#    x 1.810380 0.000000 0.000000 
#    y 0.000000 1.810380 0.000000 
#    z 0.000000 0.000000 1.843120 
# 
# From -- ./inp_files/1584.got.cif
#   From: 2010.03.12/outbox.cif.g09.slc.cpg/sg126_1_cif.got.tgz:1584.got - 2010.04.06 16:55:23.
