data_PCOD8313531
_publ_section_title
;
Structure prediction by ZEFSAII (Michael W. Deem and Ramdas Pophale) SiO2 
 PCOD8313531
Probable space group: P 4/N B M
;
_chemical_formula_sum "Si O2"
_cell_formula_units_Z 40
_cell_length_a 14.017434
_cell_length_b 14.017434
_cell_length_c 7.822881
_cell_angle_alpha 90.000000
_cell_angle_beta 90.000000
_cell_angle_gamma 90.000000
_cell_volume 1537.105809
_symmetry_space_group_name_H-M "P 4/N B M"
_symmetry_group_IT_number 125
_space_group.IT_coordinate_system_code '2'
_symmetry_cell_setting 'tetragonal'
loop_
_space_group_symop_operation_xyz
x,y,z
1/2-y,x,z
1/2-x,1/2-y,z
y,1/2-x,z
x,1/2-y,-z
1/2-x,y,-z
y,x,-z
1/2-y,1/2-x,-z
-x,-y,-z
1/2+y,-x,-z
1/2+x,1/2+y,-z
-y,1/2+x,-z
-x,1/2+y,z
1/2+x,-y,z
-y,-x,z
1/2+y,1/2+x,z
loop_
_atom_site_type_symbol
_atom_site_label
_atom_site_fract_x
_atom_site_fract_y
_atom_site_fract_z
Si Si1 0.381479 0.039395 0.659953
Si Si2 0.255618 0.903734 0.194824
Si Si3 0.860683 0.639318 0.000000
O O1 0.386983 0.113018 0.500000
O O2 0.410099 0.096221 0.831300
O O3 0.455465 0.955465 0.630807
O O4 0.275642 0.990870 0.680510
O O5 0.182065 0.817936 0.213530
O O6 0.361536 0.861536 0.241121
O O7 0.250000 0.941831 0.000000
O O8 0.882393 0.750000 0.000000
#
# Coordination Sequence:
#
# PCOD8313531 Si02
#       3
#    16  16   8
#     4  10  21  39  67 101 135 174 221 277 346 423
#     4   8  14  28  56  94 133 175 224 278 336 399
#     4  11  25  44  66  90 123 173 226 280 340 405
#
# _framework density 26.022932000000001
#
# number of rings (size 3 to 8) (size 9 to 14) (size 15 to 20)
#    0.000    2.600    0.000    3.000    0.000    1.600 
#    0.000    4.000    0.000    7.200    0.000   11.200 
#    0.000    0.000    0.000    0.000    0.000    0.000 
#
# Total GULP energy -495738.691643 kJ/mol
# GULP energy per Si atom -12393.467291 kJ/mol
# Density = 2.596370 g / cm^3
# Si number density = 26.022932 Si / 1000 Ang^3
#
#
#
# Elastic Constant Matrix: (Units=GPa)
#
#
# Indices 1 2 3 4 5 6 
#
# 1 100.3683 42.5938 65.4310 0.0000 0.0000 0.0000
# 2 42.5938 100.3689 65.4310 0.0000 0.0000 0.0000
# 3 65.4310 65.4310 200.8812 0.0000 0.0000 0.0000
# 4 0.0000 0.0000 0.0000 31.2547 0.0000 0.0000
# 5 0.0000 0.0000 0.0000 0.0000 31.2545 0.0000
# 6 0.0000 0.0000 0.0000 0.0000 0.0000 -4.1784
#
#
#
# Elastic Compliance Matrix: (Units=1/GPa)
#
#
# Indices 1 2 3 4 5 6 
#
# 1 0.013638 -0.003671 -0.003246 0.000000 0.000000 0.000000
# 2 -0.003671 0.013637 -0.003246 0.000000 0.000000 0.000000
# 3 -0.003246 -0.003246 0.007093 0.000000 0.000000 0.000000
# 4 0.000000 0.000000 0.000000 0.031995 0.000000 0.000000
# 5 0.000000 0.000000 0.000000 0.000000 0.031995 0.000000
# 6 0.000000 0.000000 0.000000 0.000000 0.000000 -0.239328
#
#
# Mechanical properties :
#
#
# Convention : Reuss Voigt Hill
#
# Bulk Modulus (GPa) = 71.22251 83.17002 77.19626
# Shear Modulus (GPa) = -43.11733 26.87699 -8.12017
#
# Velocity S-wave (km/s) = -4.07492 3.21724 -1.76838
# Velocity P-wave (km/s) = 2.29970 6.76982 5.05565
#
# Compressibility (1/GPa) = 0.01404051
#
# Stress axis : x y z
#
# Youngs Moduli (GPa) = 73.32721 73.32774 140.98828
#
# Poissons Ratio (x) = 0.26920 0.45768
# Poissons Ratio (y) = 0.26919 0.45768
# Poissons Ratio (z) = 0.23804 0.23804
#
# Static dielectric constant tensor:
#      x y z
#    x 4.927950 0.000000 0.000000 
#    y 0.000000 4.927900 0.000000 
#    z 0.000000 0.000000 4.952080 
# 
# 
# High freq. dielectric constant tensor:
#      x y z
#    x 2.038730 0.000000 0.000000 
#    y 0.000000 2.038730 0.000000 
#    z 0.000000 0.000000 2.028970 
# 
# From -- ./inp_files/1558.got.cif
#   From: 2010.03.12/outbox.cif.g09.slc.cpg/sg125_1_cif.got.tgz:1558.got - 2010.04.06 16:47:52.
