data_PCOD8313133
_publ_section_title
;
Structure prediction by ZEFSAII (Michael W. Deem and Ramdas Pophale) SiO2 
 PCOD8313133
Probable space group: P 4/M C C
;
_chemical_formula_sum "Si O2"
_cell_formula_units_Z 96
_cell_length_a 25.305346
_cell_length_b 25.305346
_cell_length_c 8.566273
_cell_angle_alpha 90.000000
_cell_angle_beta 90.000000
_cell_angle_gamma 90.000000
_cell_volume 5485.503171
_symmetry_space_group_name_H-M "P 4/M C C"
_symmetry_group_IT_number 124
_symmetry_cell_setting 'tetragonal'
loop_
_space_group_symop_operation_xyz
x,y,z
-y,x,z
-x,-y,z
y,-x,z
x,-y,1/2-z
-x,y,1/2-z
y,x,1/2-z
-y,-x,1/2-z
-x,-y,-z
y,-x,-z
x,y,-z
-y,x,-z
-x,y,1/2+z
x,-y,1/2+z
-y,-x,1/2+z
y,x,1/2+z
loop_
_atom_site_type_symbol
_atom_site_label
_atom_site_fract_x
_atom_site_fract_y
_atom_site_fract_z
Si Si1 0.558027 0.636601 0.185060
Si Si2 0.649047 0.831347 0.183758
Si Si3 0.946977 0.362538 0.171880
Si Si4 0.237165 0.947820 0.674601
Si Si5 0.639918 0.718942 0.684678
Si Si6 0.157968 0.238344 0.818674
O O1 0.500000 0.644615 0.250000
O O2 0.581904 0.581904 0.250000
O O3 0.592823 0.685490 0.242137
O O4 0.557408 0.634821 0.000000
O O5 0.624875 0.888201 0.246615
O O6 0.626881 0.779823 0.271987
O O7 0.711089 0.830869 0.213380
O O8 0.638259 0.826074 0.000000
O O9 0.953138 0.300040 0.166852
O O10 0.000000 0.387404 0.250000
O O11 0.946533 0.386986 0.000000
O O12 0.214822 0.938478 0.500000
O O13 0.219836 0.901893 0.792437
O O14 0.212081 0.000000 0.750000
O O15 0.696317 0.696317 0.750000
O O16 0.640545 0.712305 0.500000
O O17 0.192928 0.192928 0.750000
O O18 0.169548 0.250120 0.000000
#
# Coordination Sequence:
#
# PCOD8313133 Si02
#       6
#    16  16  16  16  16  16
#     4  11  22  39  60  84 111 141 174 212 254 299
#     4  10  19  31  44  63  91 126 163 201 242 290
#     4   8  15  25  39  57  82 114 152 194 237 280
#     4   9  16  27  40  55  74 101 135 173 217 268
#     4  11  21  34  51  73 100 134 170 208 251 300
#     4  11  20  29  40  57  81 111 145 184 224 269
#
# _framework density 17.500675000000001
#
# number of rings (size 3 to 8) (size 9 to 14) (size 15 to 20)
#    0.000    2.000    0.000    8.000    0.000    4.833 
#    0.000    0.833    0.000    0.000    0.000    0.000 
#    0.000    1.000    0.000   10.333    0.000    6.167 
#
# Total GULP energy -1189477.652963 kJ/mol
# GULP energy per Si atom -12390.392218 kJ/mol
# Density = 1.746084 g / cm^3
# Si number density = 17.500675 Si / 1000 Ang^3
#
#
#
# Elastic Constant Matrix: (Units=GPa)
#
#
# Indices 1 2 3 4 5 6 
#
# 1 89.2465 21.9825 27.2953 0.0000 0.0000 0.0000
# 2 21.9825 89.2465 27.2953 0.0000 0.0000 0.0000
# 3 27.2953 27.2953 113.6918 0.0000 0.0000 0.0000
# 4 0.0000 0.0000 0.0000 26.2265 0.0000 0.0000
# 5 0.0000 0.0000 0.0000 0.0000 26.2265 0.0000
# 6 0.0000 0.0000 0.0000 0.0000 0.0000 15.0028
#
#
#
# Elastic Compliance Matrix: (Units=1/GPa)
#
#
# Indices 1 2 3 4 5 6 
#
# 1 0.012529 -0.002338 -0.002447 0.000000 0.000000 0.000000
# 2 -0.002338 0.012529 -0.002447 0.000000 0.000000 0.000000
# 3 -0.002447 -0.002447 0.009971 0.000000 0.000000 0.000000
# 4 0.000000 0.000000 0.000000 0.038129 0.000000 0.000000
# 5 0.000000 0.000000 0.000000 0.000000 0.038129 0.000000
# 6 0.000000 0.000000 0.000000 0.000000 0.000000 0.066654
#
#
# Mechanical properties :
#
#
# Convention : Reuss Voigt Hill
#
# Bulk Modulus (GPa) = 48.62353 49.48125 49.05239
# Shear Modulus (GPa) = 25.09290 27.86528 26.47909
#
# Velocity S-wave (km/s) = 3.79070 3.99462 3.89399
# Velocity P-wave (km/s) = 6.85589 7.04353 6.95034
#
# Compressibility (1/GPa) = 0.02056617
#
# Stress axis : x y z
#
# Youngs Moduli (GPa) = 79.81453 79.81453 100.29545
#
# Poissons Ratio (x) = 0.18659 0.24540
# Poissons Ratio (y) = 0.18659 0.24540
# Poissons Ratio (z) = 0.19529 0.19529
#
# Static dielectric constant tensor:
#      x y z
#    x 3.261320 0.000000 0.000000 
#    y 0.000000 3.261320 0.000000 
#    z 0.000000 0.000000 3.478450 
# 
# 
# High freq. dielectric constant tensor:
#      x y z
#    x 1.651450 0.000000 0.000000 
#    y 0.000000 1.651450 0.000000 
#    z 0.000000 0.000000 1.691080 
# 
# From -- ./inp_files/1397.got.cif
#   From: 2010.03.12/outbox.cif.g09.slc.cpg/sg124_1_cif.got.tgz:1397.got - 2010.04.06 16:38:57.
