data_PCOD8313214
_publ_section_title
;
Structure prediction by ZEFSAII (Michael W. Deem and Ramdas Pophale) SiO2 
 PCOD8313214
Probable space group: P 4/M C C
;
_chemical_formula_sum "Si O2"
_cell_formula_units_Z 96
_cell_length_a 25.164754
_cell_length_b 25.164754
_cell_length_c 8.819762
_cell_angle_alpha 90.000000
_cell_angle_beta 90.000000
_cell_angle_gamma 90.000000
_cell_volume 5585.245206
_symmetry_space_group_name_H-M "P 4/M C C"
_symmetry_group_IT_number 124
_symmetry_cell_setting 'tetragonal'
loop_
_space_group_symop_operation_xyz
x,y,z
-y,x,z
-x,-y,z
y,-x,z
x,-y,1/2-z
-x,y,1/2-z
y,x,1/2-z
-y,-x,1/2-z
-x,-y,-z
y,-x,-z
x,y,-z
-y,x,-z
-x,y,1/2+z
x,-y,1/2+z
-y,-x,1/2+z
y,x,1/2+z
loop_
_atom_site_type_symbol
_atom_site_label
_atom_site_fract_x
_atom_site_fract_y
_atom_site_fract_z
Si Si1 0.166090 0.752266 0.181662
Si Si2 0.838144 0.638107 0.179976
Si Si3 0.758139 0.050663 0.333779
Si Si4 0.444385 0.635564 0.324128
Si Si5 0.631854 0.947504 0.170062
Si Si6 0.240693 0.555837 0.822664
O O1 0.209753 0.790248 0.250000
O O2 0.176314 0.693996 0.245022
O O3 0.107970 0.773178 0.237654
O O4 0.168789 0.750168 0.000000
O O5 0.895063 0.615852 0.236219
O O6 0.791705 0.599414 0.231214
O O7 0.839525 0.643883 0.000000
O O8 0.782568 0.047577 0.500000
O O9 0.694888 0.046782 0.336945
O O10 0.783402 0.000000 0.250000
O O11 0.500000 0.618616 0.250000
O O12 0.396582 0.603419 0.250000
O O13 0.447805 0.621563 0.500000
O O14 0.432195 0.697375 0.296565
O O15 0.607507 0.000000 0.250000
O O16 0.608581 0.942951 0.000000
O O17 0.224764 0.500000 0.750000
O O18 0.225796 0.556338 0.000000
#
# Coordination Sequence:
#
# PCOD8313214 Si02
#       6
#    16  16  16  16  16  16
#     4  10  20  33  47  69 101 134 167 207 251 299
#     4  11  21  33  51  74 100 134 170 205 249 300
#     4   8  15  26  42  63  89 122 161 200 240 287
#     4  10  21  37  58  81 106 132 162 199 243 291
#     4   9  16  28  46  70  98 127 163 207 250 295
#     4  10  21  38  57  77 101 131 168 210 248 291
#
# _framework density 17.188144000000001
#
# number of rings (size 3 to 8) (size 9 to 14) (size 15 to 20)
#    0.000    2.333    0.000    4.500    0.000    7.500 
#    0.000    2.500    0.000    0.500    0.000    3.500 
#    0.000    0.333    0.000    3.667    0.000    2.833 
#
# Total GULP energy -1190139.366818 kJ/mol
# GULP energy per Si atom -12397.285071 kJ/mol
# Density = 1.714902 g / cm^3
# Si number density = 17.188144 Si / 1000 Ang^3
#
#
#
# Elastic Constant Matrix: (Units=GPa)
#
#
# Indices 1 2 3 4 5 6 
#
# 1 93.1395 59.9394 52.1155 0.0000 0.0000 0.0000
# 2 59.9394 93.1304 52.1199 0.0000 0.0000 0.0000
# 3 52.1155 52.1199 123.2055 0.0000 0.0000 0.0000
# 4 0.0000 0.0000 0.0000 29.3133 0.0000 0.0000
# 5 0.0000 0.0000 0.0000 0.0000 29.3127 0.0000
# 6 0.0000 0.0000 0.0000 0.0000 0.0000 33.3826
#
#
#
# Elastic Compliance Matrix: (Units=1/GPa)
#
#
# Indices 1 2 3 4 5 6 
#
# 1 0.019648 -0.010474 -0.003880 0.000000 0.000000 0.000000
# 2 -0.010474 0.019652 -0.003883 0.000000 0.000000 0.000000
# 3 -0.003880 -0.003883 0.011400 0.000000 0.000000 0.000000
# 4 0.000000 0.000000 0.000000 0.034114 0.000000 0.000000
# 5 0.000000 0.000000 0.000000 0.000000 0.034115 0.000000
# 6 0.000000 0.000000 0.000000 0.000000 0.000000 0.029956
#
#
# Mechanical properties :
#
#
# Convention : Reuss Voigt Hill
#
# Bulk Modulus (GPa) = 70.29356 70.86944 70.58150
# Shear Modulus (GPa) = 26.30160 28.08841 27.19501
#
# Velocity S-wave (km/s) = 3.91604 4.04688 3.98200
# Velocity P-wave (km/s) = 7.83789 7.94716 7.89271
#
# Compressibility (1/GPa) = 0.01422605
#
# Stress axis : x y z
#
# Youngs Moduli (GPa) = 50.89462 50.88548 87.71614
#
# Poissons Ratio (x) = 0.53299 0.34036
# Poissons Ratio (y) = 0.53309 0.34059
# Poissons Ratio (z) = 0.19748 0.19758
#
# Static dielectric constant tensor:
#      x y z
#    x 3.169760 0.000000 0.000000 
#    y 0.000000 3.169760 0.000000 
#    z 0.000000 0.000000 3.460090 
# 
# 
# High freq. dielectric constant tensor:
#      x y z
#    x 1.647010 0.000000 0.000000 
#    y 0.000000 1.647010 0.000000 
#    z 0.000000 0.000000 1.681350 
# 
# From -- ./inp_files/1328.got.cif
#   From: 2010.03.12/outbox.cif.g09.slc.cpg/sg124_1_cif.got.tgz:1328.got - 2010.04.06 16:38:57.
