data_PCOD8313265
_publ_section_title
;
Structure prediction by ZEFSAII (Michael W. Deem and Ramdas Pophale) SiO2 
 PCOD8313265
Probable space group: P 4/M C C
;
_chemical_formula_sum "Si O2"
_cell_formula_units_Z 88
_cell_length_a 12.673996
_cell_length_b 12.673996
_cell_length_c 29.065854
_cell_angle_alpha 90.000000
_cell_angle_beta 90.000000
_cell_angle_gamma 90.000000
_cell_volume 4668.853203
_symmetry_space_group_name_H-M "P 4/M C C"
_symmetry_group_IT_number 124
_symmetry_cell_setting 'tetragonal'
loop_
_space_group_symop_operation_xyz
x,y,z
-y,x,z
-x,-y,z
y,-x,z
x,-y,1/2-z
-x,y,1/2-z
y,x,1/2-z
-y,-x,1/2-z
-x,-y,-z
y,-x,-z
x,y,-z
-y,x,-z
-x,y,1/2+z
x,-y,1/2+z
-y,-x,1/2+z
y,x,1/2+z
loop_
_atom_site_type_symbol
_atom_site_label
_atom_site_fract_x
_atom_site_fract_y
_atom_site_fract_z
Si Si1 0.249295 0.750706 0.750000
Si Si2 0.644529 0.097073 0.813783
Si Si3 0.118423 0.704296 0.000000
Si Si4 0.795263 0.626519 0.908948
Si Si5 0.611797 0.790955 0.089901
Si Si6 0.594410 0.139043 0.310908
Si Si7 0.880910 0.289351 0.500000
O O1 0.259063 0.850068 0.784938
O O2 0.352447 0.763659 0.717279
O O3 0.658343 0.124558 0.867693
O O4 0.530104 0.145530 0.799934
O O5 0.643897 0.975001 0.798728
O O6 0.138713 0.633640 0.045041
O O7 0.186689 0.809258 0.000000
O O8 0.000753 0.747793 0.000000
O O9 0.751460 0.508114 0.908915
O O10 0.688756 0.692382 0.908287
O O11 0.860790 0.640794 0.955268
O O12 0.625512 0.858901 0.135692
#
# Coordination Sequence:
#
# PCOD8313265 Si02
#       7
#     8  16   8  16  16  16   8
#     4  12  20  34  56  80 108 138 188 238 272 328
#     4  10  21  37  58  82 109 144 184 228 277 327
#     4  10  21  36  58  86 114 146 183 226 270 320
#     4  10  20  36  57  85 116 146 180 221 269 326
#     4  10  20  36  57  85 116 146 180 221 269 326
#     4  10  21  37  58  82 109 144 184 228 277 327
#     4  10  21  36  58  86 114 146 183 226 270 320
#
# _framework density 18.848313000000001
#
# number of rings (size 3 to 8) (size 9 to 14) (size 15 to 20)
#    0.000    1.818    1.818    2.727    0.000    4.909 
#    0.000    0.000    0.000   12.000    0.000    0.000 
#    0.000    0.000    0.000    0.000    0.000    0.000 
#
# Total GULP energy -1090251.866269 kJ/mol
# GULP energy per Si atom -12389.225753 kJ/mol
# Density = 1.880541 g / cm^3
# Si number density = 18.848313 Si / 1000 Ang^3
#
#
#
# Elastic Constant Matrix: (Units=GPa)
#
#
# Indices 1 2 3 4 5 6 
#
# 1 90.2175 43.1422 39.2544 0.0000 0.0000 0.0000
# 2 43.1422 90.2177 39.2544 0.0000 0.0000 0.0000
# 3 39.2544 39.2544 127.8769 0.0000 0.0000 0.0000
# 4 0.0000 0.0000 0.0000 22.8203 0.0000 0.0000
# 5 0.0000 0.0000 0.0000 0.0000 22.8201 0.0000
# 6 0.0000 0.0000 0.0000 0.0000 0.0000 21.8603
#
#
#
# Elastic Compliance Matrix: (Units=1/GPa)
#
#
# Indices 1 2 3 4 5 6 
#
# 1 0.015198 -0.006045 -0.002810 0.000000 0.000000 0.000000
# 2 -0.006045 0.015197 -0.002810 0.000000 0.000000 0.000000
# 3 -0.002810 -0.002810 0.009545 0.000000 0.000000 0.000000
# 4 0.000000 0.000000 0.000000 0.043821 0.000000 0.000000
# 5 0.000000 0.000000 0.000000 0.000000 0.043821 0.000000
# 6 0.000000 0.000000 0.000000 0.000000 0.000000 0.045745
#
#
# Mechanical properties :
#
#
# Convention : Reuss Voigt Hill
#
# Bulk Modulus (GPa) = 60.19847 61.29046 60.74447
# Shear Modulus (GPa) = 24.72896 25.94421 25.33659
#
# Velocity S-wave (km/s) = 3.62608 3.71411 3.67036
# Velocity P-wave (km/s) = 7.03840 7.14011 7.08944
#
# Compressibility (1/GPa) = 0.01661172
#
# Stress axis : x y z
#
# Youngs Moduli (GPa) = 65.80017 65.80033 104.76793
#
# Poissons Ratio (x) = 0.39776 0.29435
# Poissons Ratio (y) = 0.39776 0.29435
# Poissons Ratio (z) = 0.18487 0.18487
#
# Static dielectric constant tensor:
#      x y z
#    x 3.298560 0.000000 0.000000 
#    y 0.000000 3.298560 0.000000 
#    z 0.000000 0.000000 4.015290 
# 
# 
# High freq. dielectric constant tensor:
#      x y z
#    x 1.715430 0.000000 0.000000 
#    y 0.000000 1.715430 0.000000 
#    z 0.000000 0.000000 1.768720 
# 
# From -- ./inp_files/7120.got.cif
#   From: 2010.03.12/outbox.cif.g09.slc.cpg/sg124_4_cif.got.tgz:7120.got - 2010.04.06 16:38:57.
