data_PCOD8313263
_publ_section_title
;
Structure prediction by ZEFSAII (Michael W. Deem and Ramdas Pophale) SiO2 
 PCOD8313263
Probable space group: P 4/M C C
;
_chemical_formula_sum "Si O2"
_cell_formula_units_Z 88
_cell_length_a 17.866270
_cell_length_b 17.866270
_cell_length_c 14.714788
_cell_angle_alpha 90.000000
_cell_angle_beta 90.000000
_cell_angle_gamma 90.000000
_cell_volume 4697.013357
_symmetry_space_group_name_H-M "P 4/M C C"
_symmetry_group_IT_number 124
_symmetry_cell_setting 'tetragonal'
loop_
_space_group_symop_operation_xyz
x,y,z
-y,x,z
-x,-y,z
y,-x,z
x,-y,1/2-z
-x,y,1/2-z
y,x,1/2-z
-y,-x,1/2-z
-x,-y,-z
y,-x,-z
x,y,-z
-y,x,-z
-x,y,1/2+z
x,-y,1/2+z
-y,-x,1/2+z
y,x,1/2+z
loop_
_atom_site_type_symbol
_atom_site_label
_atom_site_fract_x
_atom_site_fract_y
_atom_site_fract_z
Si Si1 0.082654 0.645103 0.762317
Si Si2 0.873436 0.197667 0.171092
Si Si3 0.812148 0.432299 0.894040
Si Si4 0.809996 0.601053 0.894834
Si Si5 0.889994 0.060856 0.500000
Si Si6 0.713467 0.264540 0.603993
O O1 0.078946 0.731237 0.795153
O O2 0.114338 0.590805 0.839849
O O3 0.124910 0.635247 0.666715
O O4 0.000000 0.615055 0.750000
O O5 0.864779 0.135222 0.250000
O O6 0.914509 0.157799 0.087434
O O7 0.789749 0.227540 0.152082
O O8 0.788354 0.516358 0.867411
O O9 0.747698 0.372691 0.864188
O O10 0.830961 0.427009 0.000000
O O11 0.735120 0.649611 0.877043
O O12 0.835839 0.606787 0.000000
O O13 0.970959 0.100926 0.500000
O O14 0.719872 0.242544 0.500000
#
# Coordination Sequence:
#
# PCOD8313263 Si02
#       6
#    16  16  16  16   8  16
#     4  11  24  37  55  87 114 151 192 246 298 355
#     4  11  22  40  64  88 113 148 202 246 288 350
#     4   9  20  36  56  82 117 155 194 243 299 354
#     4  10  20  36  57  84 117 156 198 243 297 355
#     4  11  28  46  64  88 120 156 190 245 312 362
#     4   9  17  35  58  83 113 150 197 242 282 341
#
# _framework density 18.735309999999998
#
# number of rings (size 3 to 8) (size 9 to 14) (size 15 to 20)
#    0.000    1.909    2.727    0.545    3.818    2.182 
#    0.000    2.727    0.000    0.545    0.000    3.818 
#    0.000    3.273    0.000    0.364    0.000    0.000 
#
# Total GULP energy -1090817.805777 kJ/mol
# GULP energy per Si atom -12395.656884 kJ/mol
# Density = 1.869267 g / cm^3
# Si number density = 18.735310 Si / 1000 Ang^3
#
#
#
# Elastic Constant Matrix: (Units=GPa)
#
#
# Indices 1 2 3 4 5 6 
#
# 1 134.7849 68.1643 55.0281 0.0000 0.0000 0.0000
# 2 68.1643 134.7852 55.0280 0.0000 0.0000 0.0000
# 3 55.0281 55.0280 94.1344 0.0000 0.0000 0.0000
# 4 0.0000 0.0000 0.0000 26.2508 0.0000 0.0000
# 5 0.0000 0.0000 0.0000 0.0000 26.2505 0.0000
# 6 0.0000 0.0000 0.0000 0.0000 0.0000 12.0402
#
#
#
# Elastic Compliance Matrix: (Units=1/GPa)
#
#
# Indices 1 2 3 4 5 6 
#
# 1 0.011112 -0.003898 -0.004217 0.000000 0.000000 0.000000
# 2 -0.003898 0.011112 -0.004217 0.000000 0.000000 0.000000
# 3 -0.004217 -0.004217 0.015554 0.000000 0.000000 0.000000
# 4 0.000000 0.000000 0.000000 0.038094 0.000000 0.000000
# 5 0.000000 0.000000 0.000000 0.000000 0.038095 0.000000
# 6 0.000000 0.000000 0.000000 0.000000 0.000000 0.083055
#
#
# Mechanical properties :
#
#
# Convention : Reuss Voigt Hill
#
# Bulk Modulus (GPa) = 76.25887 80.01616 78.13752
# Shear Modulus (GPa) = 22.11824 25.27391 23.69608
#
# Velocity S-wave (km/s) = 3.43966 3.67686 3.56024
# Velocity P-wave (km/s) = 7.52108 7.79918 7.66139
#
# Compressibility (1/GPa) = 0.01311323
#
# Stress axis : x y z
#
# Youngs Moduli (GPa) = 89.99008 89.99055 64.29363
#
# Poissons Ratio (x) = 0.35079 0.27114
# Poissons Ratio (y) = 0.35078 0.27114
# Poissons Ratio (z) = 0.37951 0.37951
#
# Static dielectric constant tensor:
#      x y z
#    x 3.467100 0.000000 0.000000 
#    y 0.000000 3.467100 0.000000 
#    z 0.000000 0.000000 3.668290 
# 
# 
# High freq. dielectric constant tensor:
#      x y z
#    x 1.716490 0.000000 0.000000 
#    y 0.000000 1.716490 0.000000 
#    z 0.000000 0.000000 1.748510 
# 
# From -- ./inp_files/3187.got.cif
#   From: 2010.03.12/outbox.cif.g09.slc.cpg/sg124_2_cif.got.tgz:3187.got - 2010.04.06 16:38:57.
