data_PCOD8313200
_publ_section_title
;
Structure prediction by ZEFSAII (Michael W. Deem and Ramdas Pophale) SiO2 
 PCOD8313200
Probable space group: P 4/M C C
;
_chemical_formula_sum "Si O2"
_cell_formula_units_Z 96
_cell_length_a 25.168679
_cell_length_b 25.168679
_cell_length_c 8.915821
_cell_angle_alpha 90.000000
_cell_angle_beta 90.000000
_cell_angle_gamma 90.000000
_cell_volume 5647.837392
_symmetry_space_group_name_H-M "P 4/M C C"
_symmetry_group_IT_number 124
_symmetry_cell_setting 'tetragonal'
loop_
_space_group_symop_operation_xyz
x,y,z
-y,x,z
-x,-y,z
y,-x,z
x,-y,1/2-z
-x,y,1/2-z
y,x,1/2-z
-y,-x,1/2-z
-x,-y,-z
y,-x,-z
x,y,-z
-y,x,-z
-x,y,1/2+z
x,-y,1/2+z
-y,-x,1/2+z
y,x,1/2+z
loop_
_atom_site_type_symbol
_atom_site_label
_atom_site_fract_x
_atom_site_fract_y
_atom_site_fract_z
Si Si1 0.138831 0.667317 0.675800
Si Si2 0.746718 0.333400 0.825619
Si Si3 0.945197 0.133745 0.825362
Si Si4 0.251247 0.450761 0.673115
Si Si5 0.137323 0.550025 0.674137
Si Si6 0.742338 0.054610 0.325581
O O1 0.144153 0.678967 0.500000
O O2 0.196565 0.672053 0.747933
O O3 0.112625 0.608626 0.703437
O O4 0.102421 0.711122 0.750882
O O5 0.706387 0.293613 0.750000
O O6 0.722126 0.392902 0.805443
O O7 0.753636 0.319414 0.000000
O O8 0.896586 0.103415 0.750000
O O9 0.935034 0.195719 0.796742
O O10 0.000000 0.115066 0.750000
O O11 0.948040 0.119877 0.000000
O O12 0.284018 0.500000 0.750000
O O13 0.242881 0.464081 0.500000
O O14 0.195216 0.448208 0.755176
O O15 0.105427 0.500000 0.750000
O O16 0.141220 0.537774 0.500000
O O17 0.728518 0.051496 0.500000
O O18 0.723823 0.000000 0.250000
#
# Coordination Sequence:
#
# PCOD8313200 Si02
#       6
#    16  16  16  16  16  16
#     4  10  20  33  50  72  98 129 164 200 242 292
#     4  10  20  32  46  68  99 132 164 200 243 289
#     4  10  21  37  57  80 104 129 158 193 234 280
#     4   9  16  26  42  63  88 121 160 198 237 283
#     4   9  16  26  43  67  93 122 156 196 240 284
#     4  10  21  37  56  76  99 129 165 203 241 283
#
# _framework density 16.997658000000001
#
# number of rings (size 3 to 8) (size 9 to 14) (size 15 to 20)
#    0.000    2.333    0.000    4.000    0.000    6.833 
#    0.000    2.500    0.000    0.500    0.000    3.500 
#    0.000    0.333    0.000    3.667    0.000    2.667 
#
# Total GULP energy -1189709.156124 kJ/mol
# GULP energy per Si atom -12392.803710 kJ/mol
# Density = 1.695897 g / cm^3
# Si number density = 16.997658 Si / 1000 Ang^3
#
#
#
# Elastic Constant Matrix: (Units=GPa)
#
#
# Indices 1 2 3 4 5 6 
#
# 1 87.9585 54.2913 60.3514 0.0000 0.0000 0.0000
# 2 54.2913 87.9520 60.3489 0.0000 0.0000 0.0000
# 3 60.3514 60.3489 139.9035 0.0000 0.0000 0.0000
# 4 0.0000 0.0000 0.0000 27.5998 0.0000 0.0000
# 5 0.0000 0.0000 0.0000 0.0000 27.5984 0.0000
# 6 0.0000 0.0000 0.0000 0.0000 0.0000 -2.3353
#
#
#
# Elastic Compliance Matrix: (Units=1/GPa)
#
#
# Indices 1 2 3 4 5 6 
#
# 1 0.020396 -0.009308 -0.004783 0.000000 0.000000 0.000000
# 2 -0.009308 0.020398 -0.004783 0.000000 0.000000 0.000000
# 3 -0.004783 -0.004783 0.011275 0.000000 0.000000 0.000000
# 4 0.000000 0.000000 0.000000 0.036232 0.000000 0.000000
# 5 0.000000 0.000000 0.000000 0.000000 0.036234 0.000000
# 6 0.000000 0.000000 0.000000 0.000000 0.000000 -0.428213
#
#
# Mechanical properties :
#
#
# Convention : Reuss Voigt Hill
#
# Bulk Modulus (GPa) = 69.83839 73.97747 71.90793
# Shear Modulus (GPa) = -19.14574 19.96074 0.40750
#
# Velocity S-wave (km/s) = -3.35979 3.43056 0.49016
# Velocity P-wave (km/s) = 5.11129 7.70119 6.53581
#
# Compressibility (1/GPa) = 0.01431877
#
# Stress axis : x y z
#
# Youngs Moduli (GPa) = 49.02823 49.02482 88.69464
#
# Poissons Ratio (x) = 0.45633 0.42426
# Poissons Ratio (y) = 0.45636 0.42427
# Poissons Ratio (z) = 0.23452 0.23451
#
# Static dielectric constant tensor:
#      x y z
#    x 3.394620 0.000000 0.000000 
#    y 0.000000 3.394620 0.000000 
#    z 0.000000 0.000000 3.421210 
# 
# 
# High freq. dielectric constant tensor:
#      x y z
#    x 1.638950 0.000000 0.000000 
#    y 0.000000 1.638950 0.000000 
#    z 0.000000 0.000000 1.681100 
# 
# From -- ./inp_files/1401.got.cif
#   From: 2010.03.12/outbox.cif.g09.slc.cpg/sg124_1_cif.got.tgz:1401.got - 2010.04.06 16:38:57.
