data_PCOD8313708
_publ_section_title
;
Structure prediction by ZEFSAII (Michael W. Deem and Ramdas Pophale) SiO2 
 PCOD8313708
Probable space group: P 4/N N C
;
_chemical_formula_sum "Si O2"
_cell_formula_units_Z 80
_cell_length_a 17.445476
_cell_length_b 17.445476
_cell_length_c 13.889224
_cell_angle_alpha 90.000000
_cell_angle_beta 90.000000
_cell_angle_gamma 90.000000
_cell_volume 4227.110779
_symmetry_space_group_name_H-M "P 4/N N C"
_symmetry_group_IT_number 126
_space_group.IT_coordinate_system_code '2'
_symmetry_cell_setting 'tetragonal'
loop_
_space_group_symop_operation_xyz
x,y,z
1/2-y,x,z
1/2-x,1/2-y,z
y,1/2-x,z
x,1/2-y,1/2-z
1/2-x,y,1/2-z
y,x,1/2-z
1/2-y,1/2-x,1/2-z
-x,-y,-z
1/2+y,-x,-z
1/2+x,1/2+y,-z
-y,1/2+x,-z
-x,1/2+y,1/2+z
1/2+x,-y,1/2+z
-y,-x,1/2+z
1/2+y,1/2+x,1/2+z
loop_
_atom_site_type_symbol
_atom_site_label
_atom_site_fract_x
_atom_site_fract_y
_atom_site_fract_z
Si Si1 0.160011 0.536835 0.143916
Si Si2 0.660973 0.839029 0.362936
Si Si3 0.337608 0.837609 0.999999
Si Si4 0.463164 0.839989 0.856082
Si Si5 0.065508 0.065507 0.013966
O O1 0.250000 0.531547 0.154612
O O2 0.121676 0.533531 0.250000
O O3 0.134273 0.467681 0.076932
O O4 0.135036 0.616520 0.094113
O O5 0.642957 0.750001 0.389071
O O6 0.647138 0.852863 0.250000
O O7 0.602697 0.897305 0.417975
O O8 0.383479 0.864964 0.905885
O O9 0.354132 0.750000 0.025552
O O10 0.532318 0.865727 0.923067
O O11 0.000000 0.000000 0.000000
#
# Coordination Sequence:
#
# PCOD8313708 Si02
#       5
#    16  16  16  16  16
#     4  10  21  37  55  78 110 147 187 229 274 328
#     4   9  20  41  67  91 114 147 198 253 296 338
#     4   9  18  35  56  78 106 145 194 235 270 320
#     4  10  21  37  55  78 110 147 187 229 274 328
#     4  12  22  36  56  83 120 151 182 226 286 351
#
# _framework density 18.925454999999999
#
# number of rings (size 3 to 8) (size 9 to 14) (size 15 to 20)
#    0.000    2.000    2.000    2.400    0.000    2.400 
#    0.000    4.000    0.000    0.000    0.000    8.400 
#    0.000    0.000    0.000    0.000    0.000    0.000 
#
# Total GULP energy -991510.193505 kJ/mol
# GULP energy per Si atom -12393.877419 kJ/mol
# Density = 1.888238 g / cm^3
# Si number density = 18.925455 Si / 1000 Ang^3
#
#
#
# Elastic Constant Matrix: (Units=GPa)
#
#
# Indices 1 2 3 4 5 6 
#
# 1 61.1853 53.6203 58.5281 0.0000 0.0000 0.0000
# 2 53.6203 61.1852 58.5281 0.0000 0.0000 0.0000
# 3 58.5281 58.5281 150.8897 0.0000 0.0000 0.0000
# 4 0.0000 0.0000 0.0000 32.5955 0.0000 0.0000
# 5 0.0000 0.0000 0.0000 0.0000 32.5956 0.0000
# 6 0.0000 0.0000 0.0000 0.0000 0.0000 37.4098
#
#
#
# Elastic Compliance Matrix: (Units=1/GPa)
#
#
# Indices 1 2 3 4 5 6 
#
# 1 0.073299 -0.058889 -0.005589 0.000000 0.000000 0.000000
# 2 -0.058889 0.073299 -0.005589 0.000000 0.000000 0.000000
# 3 -0.005589 -0.005589 0.010963 0.000000 0.000000 0.000000
# 4 0.000000 0.000000 0.000000 0.030679 0.000000 0.000000
# 5 0.000000 0.000000 0.000000 0.000000 0.030679 0.000000
# 6 0.000000 0.000000 0.000000 0.000000 0.000000 0.026731
#
#
# Mechanical properties :
#
#
# Convention : Reuss Voigt Hill
#
# Bulk Modulus (GPa) = 57.38889 68.29036 62.83963
# Shear Modulus (GPa) = 12.76837 27.35912 20.06374
#
# Velocity S-wave (km/s) = 2.60025 3.80626 3.25952
# Velocity P-wave (km/s) = 6.27731 7.44843 6.88780
#
# Compressibility (1/GPa) = 0.01742497
#
# Stress axis : x y z
#
# Youngs Moduli (GPa) = 13.64284 13.64284 91.21426
#
# Poissons Ratio (x) = 0.80342 0.50980
# Poissons Ratio (y) = 0.80342 0.50980
# Poissons Ratio (z) = 0.07625 0.07625
#
# Static dielectric constant tensor:
#      x y z
#    x 3.503890 0.000000 0.000000 
#    y 0.000000 3.503890 0.000000 
#    z 0.000000 0.000000 3.763360 
# 
# 
# High freq. dielectric constant tensor:
#      x y z
#    x 1.734170 0.000000 0.000000 
#    y 0.000000 1.734170 0.000000 
#    z 0.000000 0.000000 1.740140 
# 
# From -- ./inp_files/3651.got.cif
#   From: 2010.03.12/outbox.cif.g09.slc.cpg/sg126_2_cif.got.tgz:3651.got - 2010.04.06 16:55:23.
