data_PCOD8313909
_publ_section_title
;
Structure prediction by ZEFSAII (Michael W. Deem and Ramdas Pophale) SiO2 
 PCOD8313909
Probable space group: P 4/M B M
;
_chemical_formula_sum "Si O2"
_cell_formula_units_Z 104
_cell_length_a 15.164709
_cell_length_b 15.164709
_cell_length_c 26.663182
_cell_angle_alpha 90.000000
_cell_angle_beta 90.000000
_cell_angle_gamma 90.000000
_cell_volume 6131.689278
_symmetry_space_group_name_H-M "P 4/M B M"
_symmetry_group_IT_number 127
_symmetry_cell_setting 'tetragonal'
loop_
_space_group_symop_operation_xyz
x,y,z
-y,x,z
-x,-y,z
y,-x,z
1/2+x,1/2-y,-z
1/2-x,1/2+y,-z
1/2+y,1/2+x,-z
1/2-y,1/2-x,-z
-x,-y,-z
y,-x,-z
x,y,-z
-y,x,-z
1/2-x,1/2+y,z
1/2+x,1/2-y,z
1/2-y,1/2-x,z
1/2+y,1/2+x,z
loop_
_atom_site_type_symbol
_atom_site_label
_atom_site_fract_x
_atom_site_fract_y
_atom_site_fract_z
Si Si1 0.677234 0.029642 0.277601
Si Si2 0.972292 0.141854 0.000000
Si Si3 0.971724 0.144424 0.108779
Si Si4 0.764995 0.407036 0.805816
Si Si5 0.641497 0.474197 0.442277
Si Si6 0.681655 0.670983 0.278575
Si Si7 0.732857 0.908594 0.361484
O O1 0.596570 0.096570 0.276452
O O2 0.772505 0.076721 0.278898
O O3 0.673097 0.971075 0.227436
O O4 0.670301 0.971497 0.327864
O O5 0.067992 0.101007 0.000000
O O6 0.962511 0.191692 0.946492
O O7 0.897999 0.068499 0.115780
O O8 0.958443 0.224248 0.147252
O O9 0.825225 0.325225 0.824420
O O10 0.682355 0.375287 0.771937
O O11 0.601168 0.569796 0.430335
O O12 0.670497 0.469029 0.500000
O O13 0.729074 0.459632 0.409461
O O14 0.751350 0.748651 0.279474
O O15 0.621417 0.683314 0.327816
O O16 0.674010 0.825990 0.379975
#
# Coordination Sequence:
#
# PCOD8313909 Si02
#       7
#    16   8  16  16  16  16  16
#     4  10  19  32  49  66  90 125 158 185 219 267
#     4   7  12  24  43  66  88 111 143 185 230 273
#     4   9  16  28  47  68  89 115 149 188 230 273
#     4  10  19  29  42  65  95 122 152 188 225 267
#     4   9  18  33  52  72  93 118 150 188 229 271
#     4   8  16  29  43  62  88 117 150 188 224 255
#     4  10  19  30  47  71  96 121 151 187 225 267
#
# _framework density 16.961068999999998
#
# number of rings (size 3 to 8) (size 9 to 14) (size 15 to 20)
#    0.000    2.846    0.000    4.615    0.000    1.538 
#    0.000    0.385    0.000    8.769    0.000    2.692 
#    0.000    1.231    0.000    0.000    0.000    0.000 
#
# Total GULP energy -1288877.489187 kJ/mol
# GULP energy per Si atom -12393.052781 kJ/mol
# Density = 1.692246 g / cm^3
# Si number density = 16.961069 Si / 1000 Ang^3
#
#
#
# Elastic Constant Matrix: (Units=GPa)
#
#
# Indices 1 2 3 4 5 6 
#
# 1 57.0982 19.7616 36.6081 0.0000 0.0000 0.0000
# 2 19.7616 57.0982 36.6081 0.0000 0.0000 0.0000
# 3 36.6081 36.6081 120.4882 0.0000 0.0000 0.0000
# 4 0.0000 0.0000 0.0000 12.5272 0.0000 0.0000
# 5 0.0000 0.0000 0.0000 0.0000 12.5272 0.0000
# 6 0.0000 0.0000 0.0000 0.0000 0.0000 28.8878
#
#
#
# Elastic Compliance Matrix: (Units=1/GPa)
#
#
# Indices 1 2 3 4 5 6 
#
# 1 0.022547 -0.004237 -0.005563 0.000000 0.000000 0.000000
# 2 -0.004237 0.022547 -0.005563 0.000000 0.000000 0.000000
# 3 -0.005563 -0.005563 0.011680 0.000000 0.000000 0.000000
# 4 0.000000 0.000000 0.000000 0.079827 0.000000 0.000000
# 5 0.000000 0.000000 0.000000 0.000000 0.079827 0.000000
# 6 0.000000 0.000000 0.000000 0.000000 0.000000 0.034617
#
#
# Mechanical properties :
#
#
# Convention : Reuss Voigt Hill
#
# Bulk Modulus (GPa) = 38.39116 46.73779 42.56448
# Shear Modulus (GPa) = 17.21454 20.23553 18.72503
#
# Velocity S-wave (km/s) = 3.18928 3.45781 3.32626
# Velocity P-wave (km/s) = 6.02046 6.59983 6.31679
#
# Compressibility (1/GPa) = 0.02604766
#
# Stress axis : x y z
#
# Youngs Moduli (GPa) = 44.35218 44.35218 85.61554
#
# Poissons Ratio (x) = 0.18790 0.47630
# Poissons Ratio (y) = 0.18790 0.47630
# Poissons Ratio (z) = 0.24674 0.24674
#
# Static dielectric constant tensor:
#      x y z
#    x 3.002530 0.000000 0.000000 
#    y 0.000000 3.002530 0.000000 
#    z 0.000000 0.000000 3.255300 
# 
# 
# High freq. dielectric constant tensor:
#      x y z
#    x 1.635380 0.000000 0.000000 
#    y 0.000000 1.635380 0.000000 
#    z 0.000000 0.000000 1.654040 
# 
# From -- ./inp_files/6190.got.cif
#   From: 2010.03.12/outbox.cif.g09.slc.cpg/sg127_4_cif.got.tgz:6190.got - 2010.04.06 17:03:15.
