data_PCOD8313550
_publ_section_title
;
Structure prediction by ZEFSAII (Michael W. Deem and Ramdas Pophale) SiO2 
 PCOD8313550
Probable space group: P 4/N B M
;
_chemical_formula_sum "Si O2"
_cell_formula_units_Z 112
_cell_length_a 14.479960
_cell_length_b 14.479960
_cell_length_c 28.295574
_cell_angle_alpha 90.000000
_cell_angle_beta 90.000000
_cell_angle_gamma 90.000000
_cell_volume 5932.711541
_symmetry_space_group_name_H-M "P 4/N B M"
_symmetry_group_IT_number 125
_space_group.IT_coordinate_system_code '2'
_symmetry_cell_setting 'tetragonal'
loop_
_space_group_symop_operation_xyz
x,y,z
1/2-y,x,z
1/2-x,1/2-y,z
y,1/2-x,z
x,1/2-y,-z
1/2-x,y,-z
y,x,-z
1/2-y,1/2-x,-z
-x,-y,-z
1/2+y,-x,-z
1/2+x,1/2+y,-z
-y,1/2+x,-z
-x,1/2+y,z
1/2+x,-y,z
-y,-x,z
1/2+y,1/2+x,z
loop_
_atom_site_type_symbol
_atom_site_label
_atom_site_fract_x
_atom_site_fract_y
_atom_site_fract_z
Si Si1 0.859189 0.855898 0.947379
Si Si2 0.464393 0.686992 0.375234
Si Si3 0.172678 0.827323 0.654306
Si Si4 0.647639 0.995271 0.479685
Si Si5 0.172885 0.827116 0.761969
Si Si6 0.514739 0.753447 0.197357
Si Si7 0.069086 0.419829 0.146979
Si Si8 0.604747 0.710752 0.293146
O O1 0.751941 0.877699 0.940054
O O2 0.919750 0.909837 0.908896
O O3 0.888483 0.888483 0.000000
O O4 0.388000 0.612001 0.363317
O O5 0.415600 0.788387 0.374796
O O6 0.516288 0.662997 0.423799
O O7 0.536092 0.681561 0.333684
O O8 0.250000 0.750000 0.657159
O O9 0.144499 0.855502 0.708151
O O10 0.750000 0.006903 0.500000
O O11 0.595576 0.904425 0.500000
O O12 0.586972 0.086972 0.490999
O O13 0.250000 0.750000 0.760129
O O14 0.086686 0.788615 0.790747
O O15 0.511792 0.673014 0.158277
O O16 0.577280 0.837172 0.177911
O O17 0.558136 0.702596 0.242469
O O18 0.009344 0.509344 0.159324
O O19 0.685469 0.637764 0.299079
#
# Coordination Sequence:
#
# PCOD8313550 Si02
#       8
#    16  16   8  16   8  16  16  16
#     4   9  18  35  61  88 114 151 198 254 319 371
#     4  10  22  41  63  92 120 153 202 245 296 362
#     4   9  18  34  62  88 115 152 195 243 290 346
#     4  10  24  44  65  93 126 159 199 253 314 368
#     4  11  22  40  58  84 127 165 197 247 304 359
#     4  12  23  39  59  88 123 161 203 250 299 360
#     4  12  24  37  60  89 119 163 211 250 305 368
#     4  11  24  40  59  86 121 160 199 242 297 357
#
# _framework density 18.878382999999999
#
# number of rings (size 3 to 8) (size 9 to 14) (size 15 to 20)
#    0.000    1.429    5.000    0.857    3.000    1.429 
#    2.571    0.000    0.000    0.000    0.000    0.000 
#    0.000    2.286    0.000    0.000    0.000    0.000 
#
# Total GULP energy -1388696.602612 kJ/mol
# GULP energy per Si atom -12399.076809 kJ/mol
# Density = 1.883541 g / cm^3
# Si number density = 18.878383 Si / 1000 Ang^3
#
#
#
# Elastic Constant Matrix: (Units=GPa)
#
#
# Indices 1 2 3 4 5 6 
#
# 1 78.2741 22.6775 50.2895 0.0000 0.0000 0.0000
# 2 22.6775 78.2740 50.2901 0.0000 0.0000 0.0000
# 3 50.2895 50.2901 124.6675 0.0000 0.0000 0.0000
# 4 0.0000 0.0000 0.0000 33.0744 0.0000 0.0000
# 5 0.0000 0.0000 0.0000 0.0000 33.0747 0.0000
# 6 0.0000 0.0000 0.0000 0.0000 0.0000 54.7678
#
#
#
# Elastic Compliance Matrix: (Units=1/GPa)
#
#
# Indices 1 2 3 4 5 6 
#
# 1 0.017274 -0.000712 -0.006681 0.000000 0.000000 0.000000
# 2 -0.000712 0.017275 -0.006681 0.000000 0.000000 0.000000
# 3 -0.006681 -0.006681 0.013411 0.000000 0.000000 0.000000
# 4 0.000000 0.000000 0.000000 0.030235 0.000000 0.000000
# 5 0.000000 0.000000 0.000000 0.000000 0.030235 0.000000
# 6 0.000000 0.000000 0.000000 0.000000 0.000000 0.018259
#
#
# Mechanical properties :
#
#
# Convention : Reuss Voigt Hill
#
# Bulk Modulus (GPa) = 50.47530 58.63665 54.55598
# Shear Modulus (GPa) = 30.97100 34.71394 32.84247
#
# Velocity S-wave (km/s) = 4.05477 4.29280 4.17548
# Velocity P-wave (km/s) = 6.97973 7.46314 7.22548
#
# Compressibility (1/GPa) = 0.01981167
#
# Stress axis : x y z
#
# Youngs Moduli (GPa) = 57.88920 57.88867 74.56292
#
# Poissons Ratio (x) = 0.04123 0.49815
# Poissons Ratio (y) = 0.04123 0.49816
# Poissons Ratio (z) = 0.38676 0.38676
#
# Static dielectric constant tensor:
#      x y z
#    x 3.585360 0.000000 0.000000 
#    y 0.000000 3.584720 0.000000 
#    z 0.000000 0.000000 3.483800 
# 
# 
# High freq. dielectric constant tensor:
#      x y z
#    x 1.728290 0.000000 0.000000 
#    y 0.000000 1.728290 0.000000 
#    z 0.000000 0.000000 1.740450 
# 
# From -- ./inp_files/6467.got.cif
#   From: 2010.03.12/outbox.cif.g09.slc.cpg/sg125_4_cif.got.tgz:6467.got - 2010.04.06 16:47:52.
