data_PCOD8313490
_publ_section_title
;
Structure prediction by ZEFSAII (Michael W. Deem and Ramdas Pophale) SiO2 
 PCOD8313490
Probable space group: P 4/N B M
;
_chemical_formula_sum "Si O2"
_cell_formula_units_Z 56
_cell_length_a 19.649806
_cell_length_b 19.649806
_cell_length_c 7.730963
_cell_angle_alpha 90.000000
_cell_angle_beta 90.000000
_cell_angle_gamma 90.000000
_cell_volume 2985.039819
_symmetry_space_group_name_H-M "P 4/N B M"
_symmetry_group_IT_number 125
_space_group.IT_coordinate_system_code '2'
_symmetry_cell_setting 'tetragonal'
loop_
_space_group_symop_operation_xyz
x,y,z
1/2-y,x,z
1/2-x,1/2-y,z
y,1/2-x,z
x,1/2-y,-z
1/2-x,y,-z
y,x,-z
1/2-y,1/2-x,-z
-x,-y,-z
1/2+y,-x,-z
1/2+x,1/2+y,-z
-y,1/2+x,-z
-x,1/2+y,z
1/2+x,-y,z
-y,-x,z
1/2+y,1/2+x,z
loop_
_atom_site_type_symbol
_atom_site_label
_atom_site_fract_x
_atom_site_fract_y
_atom_site_fract_z
Si Si1 0.606989 0.503511 0.531254
Si Si2 0.250000 0.542511 0.000000
Si Si3 0.703266 0.091412 0.651987
Si Si4 0.607390 0.502821 0.934205
O O1 0.581097 0.581097 0.500000
O O2 0.547195 0.452806 0.473835
O O3 0.672552 0.481603 0.416847
O O4 0.622438 0.498558 0.732509
O O5 0.249433 0.586123 0.823091
O O6 0.181327 0.498439 0.021815
O O7 0.750000 0.121738 0.500000
O O8 0.643235 0.143235 0.694385
O O9 0.561664 0.438337 0.994344
O O10 0.571458 0.571458 0.000000
#
# Coordination Sequence:
#
# PCOD8313490 Si02
#       4
#    16   8  16  16
#     4   9  17  33  56  80 108 142 183 236 292 341
#     4  12  22  36  60  86 116 150 198 244 294 348
#     4  11  23  38  55  79 115 156 196 240 288 347
#     4  10  20  35  57  86 116 148 191 242 295 350
#
# _framework density 18.760218999999999
#
# number of rings (size 3 to 8) (size 9 to 14) (size 15 to 20)
#    0.000    1.714    2.857    2.571    0.000    6.000 
#    0.000    0.000    0.000    4.286    0.000    0.000 
#    0.000    0.571    0.000    0.000    0.000    0.000 
#
# Total GULP energy -693940.235641 kJ/mol
# GULP energy per Si atom -12391.789922 kJ/mol
# Density = 1.871752 g / cm^3
# Si number density = 18.760219 Si / 1000 Ang^3
#
#
#
# Elastic Constant Matrix: (Units=GPa)
#
#
# Indices 1 2 3 4 5 6 
#
# 1 78.4309 38.8637 30.0597 0.0000 0.0000 0.0000
# 2 38.8637 78.4309 30.0597 0.0000 0.0000 0.0000
# 3 30.0597 30.0597 120.3323 0.0000 0.0000 0.0000
# 4 0.0000 0.0000 0.0000 28.4080 0.0000 0.0000
# 5 0.0000 0.0000 0.0000 0.0000 28.4080 0.0000
# 6 0.0000 0.0000 0.0000 0.0000 0.0000 18.8976
#
#
#
# Elastic Compliance Matrix: (Units=1/GPa)
#
#
# Indices 1 2 3 4 5 6 
#
# 1 0.017525 -0.007748 -0.002442 0.000000 0.000000 0.000000
# 2 -0.007748 0.017525 -0.002442 0.000000 0.000000 0.000000
# 3 -0.002442 -0.002442 0.009531 0.000000 0.000000 0.000000
# 4 0.000000 0.000000 0.000000 0.035201 0.000000 0.000000
# 5 0.000000 0.000000 0.000000 0.000000 0.035201 0.000000
# 6 0.000000 0.000000 0.000000 0.000000 0.000000 0.052917
#
#
# Mechanical properties :
#
#
# Convention : Reuss Voigt Hill
#
# Bulk Modulus (GPa) = 51.77157 52.79559 52.28358
# Shear Modulus (GPa) = 25.04942 27.02345 26.03643
#
# Velocity S-wave (km/s) = 3.65806 3.79946 3.72943
# Velocity P-wave (km/s) = 6.74524 6.88849 6.81724
#
# Compressibility (1/GPa) = 0.01931562
#
# Stress axis : x y z
#
# Youngs Moduli (GPa) = 57.05989 57.05989 104.92524
#
# Poissons Ratio (x) = 0.44210 0.25627
# Poissons Ratio (y) = 0.44210 0.25627
# Poissons Ratio (z) = 0.13937 0.13937
#
# Static dielectric constant tensor:
#      x y z
#    x 3.356550 0.000000 0.000000 
#    y 0.000000 3.356550 0.000000 
#    z 0.000000 0.000000 3.648340 
# 
# 
# High freq. dielectric constant tensor:
#      x y z
#    x 1.698700 0.000000 0.000000 
#    y 0.000000 1.698700 0.000000 
#    z 0.000000 0.000000 1.755140 
# 
# From -- ./inp_files/2055.got.cif
#   From: 2010.03.12/outbox.cif.g09.slc.cpg/sg125_2_cif.got.tgz:2055.got - 2010.04.06 16:47:52.
