data_PCOD8313917
_publ_section_title
;
Structure prediction by ZEFSAII (Michael W. Deem and Ramdas Pophale) SiO2 
 PCOD8313917
Probable space group: P 4/M B M
;
_chemical_formula_sum "Si O2"
_cell_formula_units_Z 88
_cell_length_a 26.391750
_cell_length_b 26.391750
_cell_length_c 8.942971
_cell_angle_alpha 90.000000
_cell_angle_beta 90.000000
_cell_angle_gamma 90.000000
_cell_volume 6228.998119
_symmetry_space_group_name_H-M "P 4/M B M"
_symmetry_group_IT_number 127
_symmetry_cell_setting 'tetragonal'
loop_
_space_group_symop_operation_xyz
x,y,z
-y,x,z
-x,-y,z
y,-x,z
1/2+x,1/2-y,-z
1/2-x,1/2+y,-z
1/2+y,1/2+x,-z
1/2-y,1/2-x,-z
-x,-y,-z
y,-x,-z
x,y,-z
-y,x,-z
1/2-x,1/2+y,z
1/2+x,1/2-y,z
1/2-y,1/2-x,z
1/2+y,1/2+x,z
loop_
_atom_site_type_symbol
_atom_site_label
_atom_site_fract_x
_atom_site_fract_y
_atom_site_fract_z
Si Si1 0.854618 0.513169 0.676686
Si Si2 0.589328 0.826227 0.172364
Si Si3 0.823080 0.761948 0.332080
Si Si4 0.840535 0.255529 0.332403
Si Si5 0.393136 0.808639 0.172382
Si Si6 0.542345 0.042345 0.169235
O O1 0.860034 0.515509 0.500000
O O2 0.832794 0.459317 0.724759
O O3 0.816493 0.556660 0.730800
O O4 0.909277 0.520346 0.748608
O O5 0.626882 0.873119 0.200911
O O6 0.615610 0.773116 0.218988
O O7 0.573062 0.823090 0.000000
O O8 0.844677 0.767739 0.500000
O O9 0.780405 0.719596 0.329929
O O10 0.797828 0.815290 0.279161
O O11 0.868045 0.744662 0.222073
O O12 0.862880 0.249547 0.500000
O O13 0.797218 0.297218 0.334808
O O14 0.355599 0.855599 0.202454
O O15 0.408066 0.804511 0.000000
O O16 0.500000 0.000000 0.168621
O O17 0.557595 0.057595 0.000000
#
# Coordination Sequence:
#
# PCOD8313917 Si02
#       6
#    16  16  16  16  16   8
#     4  12  23  33  46  60  77 104 138 175 213 255
#     4  10  20  32  45  60  80 105 134 172 213 251
#     4   8  14  25  42  62  83 103 126 157 196 242
#     4   8  14  26  43  62  82 103 127 160 198 241
#     4  10  19  30  44  60  81 105 131 167 208 249
#     4  11  23  37  49  59  75  99 133 179 225 261
#
# _framework density 14.127473999999999
#
# number of rings (size 3 to 8) (size 9 to 14) (size 15 to 20)
#    0.000    2.273    0.909    4.636    0.000    5.455 
#    0.000    3.636    0.000    0.000    0.000    0.000 
#    0.000    0.000    0.000    0.000    0.000    0.909 
#
# Total GULP energy -1090930.296470 kJ/mol
# GULP energy per Si atom -12396.935187 kJ/mol
# Density = 1.409532 g / cm^3
# Si number density = 14.127474 Si / 1000 Ang^3
#
#
#
# Elastic Constant Matrix: (Units=GPa)
#
#
# Indices 1 2 3 4 5 6 
#
# 1 39.2933 61.0194 42.4553 0.0000 0.0000 0.0000
# 2 61.0194 39.2933 42.4553 0.0000 0.0000 0.0000
# 3 42.4553 42.4553 106.4876 0.0000 0.0000 0.0000
# 4 0.0000 0.0000 0.0000 21.4037 0.0000 0.0000
# 5 0.0000 0.0000 0.0000 0.0000 21.4037 0.0000
# 6 0.0000 0.0000 0.0000 0.0000 0.0000 20.9563
#
#
#
# Elastic Compliance Matrix: (Units=1/GPa)
#
#
# Indices 1 2 3 4 5 6 
#
# 1 -0.015490 0.030537 -0.005999 0.000000 0.000000 0.000000
# 2 0.030537 -0.015490 -0.005999 0.000000 0.000000 0.000000
# 3 -0.005999 -0.005999 0.014174 0.000000 0.000000 0.000000
# 4 0.000000 0.000000 0.000000 0.046721 0.000000 0.000000
# 5 0.000000 0.000000 0.000000 0.000000 0.046721 0.000000
# 6 0.000000 0.000000 0.000000 0.000000 0.000000 0.047718
#
#
# Mechanical properties :
#
#
# Convention : Reuss Voigt Hill
#
# Bulk Modulus (GPa) = 49.32962 52.99271 51.16117
# Shear Modulus (GPa) = 53.17338 15.36236 34.26787
#
# Velocity S-wave (km/s) = 6.14166 3.30117 4.93040
# Velocity P-wave (km/s) = 9.23508 7.21956 8.28881
#
# Compressibility (1/GPa) = 0.02027180
#
# Stress axis : x y z
#
# Youngs Moduli (GPa) = -64.55589 -64.55589 70.55093
#
# Poissons Ratio (x) = 1.97135 0.42323
# Poissons Ratio (y) = 1.97135 0.42323
# Poissons Ratio (z) = -0.38727 -0.38727
#
# Static dielectric constant tensor:
#      x y z
#    x 2.742480 0.000000 0.000000 
#    y 0.000000 2.742480 0.000000 
#    z 0.000000 0.000000 2.914960 
# 
# 
# High freq. dielectric constant tensor:
#      x y z
#    x 1.510820 0.000000 0.000000 
#    y 0.000000 1.510820 0.000000 
#    z 0.000000 0.000000 1.553030 
# 
# From -- ./inp_files/2190.got.cif
#   From: 2010.03.12/outbox.cif.g09.slc.cpg/sg127_2_cif.got.tgz:2190.got - 2010.04.06 17:03:15.
