data_PCOD8313434
_publ_section_title
;
Structure prediction by ZEFSAII (Michael W. Deem and Ramdas Pophale) SiO2 
 PCOD8313434
Probable space group: P 4/N B M
;
_chemical_formula_sum "Si O2"
_cell_formula_units_Z 64
_cell_length_a 17.706884
_cell_length_b 17.706884
_cell_length_c 11.974553
_cell_angle_alpha 90.000000
_cell_angle_beta 90.000000
_cell_angle_gamma 90.000000
_cell_volume 3754.426399
_symmetry_space_group_name_H-M "P 4/N B M"
_symmetry_group_IT_number 125
_space_group.IT_coordinate_system_code '2'
_symmetry_cell_setting 'tetragonal'
loop_
_space_group_symop_operation_xyz
x,y,z
1/2-y,x,z
1/2-x,1/2-y,z
y,1/2-x,z
x,1/2-y,-z
1/2-x,y,-z
y,x,-z
1/2-y,1/2-x,-z
-x,-y,-z
1/2+y,-x,-z
1/2+x,1/2+y,-z
-y,1/2+x,-z
-x,1/2+y,z
1/2+x,-y,z
-y,-x,z
1/2+y,1/2+x,z
loop_
_atom_site_type_symbol
_atom_site_label
_atom_site_fract_x
_atom_site_fract_y
_atom_site_fract_z
Si Si1 0.335889 0.960545 0.237868
Si Si2 0.062898 0.436377 0.374839
Si Si3 0.496481 0.379028 0.996247
Si Si4 0.666672 0.040559 0.236474
O O1 0.387622 0.887622 0.260300
O O2 0.251269 0.939492 0.276289
O O3 0.364576 0.032773 0.308057
O O4 0.334782 0.982742 0.107979
O O5 0.087009 0.412992 0.500000
O O6 0.002230 0.502230 0.377124
O O7 0.026872 0.364585 0.313410
O O8 0.549582 0.450419 0.977220
O O9 0.410443 0.410443 0.000000
O O10 0.508735 0.325895 0.889377
O O11 0.615659 0.115659 0.246089
#
# Coordination Sequence:
#
# PCOD8313434 Si02
#       4
#    16  16  16  16
#     4  10  19  31  50  76 104 132 162 199 245 296
#     4   9  18  33  51  70  93 127 174 215 240 275
#     4   9  15  28  49  72  98 128 167 207 238 278
#     4  10  19  31  50  76 104 132 162 199 245 296
#
# _framework density 17.046545999999999
#
# number of rings (size 3 to 8) (size 9 to 14) (size 15 to 20)
#    0.000    2.500    2.500    0.750    0.000    1.500 
#    0.000    0.000    0.000    5.250    0.000   10.500 
#    0.000    0.000    0.000    0.000    0.000    0.000 
#
# Total GULP energy -793342.389322 kJ/mol
# GULP energy per Si atom -12395.974833 kJ/mol
# Density = 1.700775 g / cm^3
# Si number density = 17.046546 Si / 1000 Ang^3
#
#
#
# Elastic Constant Matrix: (Units=GPa)
#
#
# Indices 1 2 3 4 5 6 
#
# 1 82.5796 61.9642 31.6925 0.0000 0.0000 0.0000
# 2 61.9642 82.5798 31.6924 0.0000 0.0000 0.0000
# 3 31.6925 31.6924 111.5182 0.0000 0.0000 0.0000
# 4 0.0000 0.0000 0.0000 9.0730 0.0000 0.0000
# 5 0.0000 0.0000 0.0000 0.0000 9.0730 0.0000
# 6 0.0000 0.0000 0.0000 0.0000 0.0000 13.0567
#
#
#
# Elastic Compliance Matrix: (Units=1/GPa)
#
#
# Indices 1 2 3 4 5 6 
#
# 1 0.028205 -0.020302 -0.002246 0.000000 0.000000 0.000000
# 2 -0.020302 0.028205 -0.002246 0.000000 0.000000 0.000000
# 3 -0.002246 -0.002246 0.010244 0.000000 0.000000 0.000000
# 4 0.000000 0.000000 0.000000 0.110217 0.000000 0.000000
# 5 0.000000 0.000000 0.000000 0.000000 0.110217 0.000000
# 6 0.000000 0.000000 0.000000 0.000000 0.000000 0.076589
#
#
# Mechanical properties :
#
#
# Convention : Reuss Voigt Hill
#
# Bulk Modulus (GPa) = 58.59565 58.59729 58.59647
# Shear Modulus (GPa) = 11.93449 16.32911 14.13180
#
# Velocity S-wave (km/s) = 2.64883 3.09838 2.88238
# Velocity P-wave (km/s) = 6.61843 6.87382 6.74733
#
# Compressibility (1/GPa) = 0.01706611
#
# Stress axis : x y z
#
# Youngs Moduli (GPa) = 35.45444 35.45453 97.62053
#
# Poissons Ratio (x) = 0.71980 0.21926
# Poissons Ratio (y) = 0.71979 0.21926
# Poissons Ratio (z) = 0.07963 0.07963
#
# Static dielectric constant tensor:
#      x y z
#    x 2.925840 0.000000 0.000000 
#    y 0.000000 2.925840 0.000000 
#    z 0.000000 0.000000 3.441430 
# 
# 
# High freq. dielectric constant tensor:
#      x y z
#    x 1.632500 0.000000 0.000000 
#    y 0.000000 1.632500 0.000000 
#    z 0.000000 0.000000 1.665980 
# 
# From -- ./inp_files/3675.got.cif
#   From: 2010.03.12/outbox.cif.g09.slc.cpg/sg125_2_cif.got.tgz:3675.got - 2010.04.06 16:47:52.
