data_PCOD8313763
_publ_section_title
;
Structure prediction by ZEFSAII (Michael W. Deem and Ramdas Pophale) SiO2 
 PCOD8313763
Probable space group: P 4/N N C
;
_chemical_formula_sum "Si O2"
_cell_formula_units_Z 112
_cell_length_a 15.721408
_cell_length_b 15.721408
_cell_length_c 24.226142
_cell_angle_alpha 90.000000
_cell_angle_beta 90.000000
_cell_angle_gamma 90.000000
_cell_volume 5987.797928
_symmetry_space_group_name_H-M "P 4/N N C"
_symmetry_group_IT_number 126
_space_group.IT_coordinate_system_code '2'
_symmetry_cell_setting 'tetragonal'
loop_
_space_group_symop_operation_xyz
x,y,z
1/2-y,x,z
1/2-x,1/2-y,z
y,1/2-x,z
x,1/2-y,1/2-z
1/2-x,y,1/2-z
y,x,1/2-z
1/2-y,1/2-x,1/2-z
-x,-y,-z
1/2+y,-x,-z
1/2+x,1/2+y,-z
-y,1/2+x,-z
-x,1/2+y,1/2+z
1/2+x,-y,1/2+z
-y,-x,1/2+z
1/2+y,1/2+x,1/2+z
loop_
_atom_site_type_symbol
_atom_site_label
_atom_site_fract_x
_atom_site_fract_y
_atom_site_fract_z
Si Si1 0.565018 0.917242 0.314059
Si Si2 0.481227 0.837048 0.728606
Si Si3 0.163147 0.708642 0.191773
Si Si4 0.119834 0.300590 0.087298
Si Si5 0.487121 0.265136 0.642825
Si Si6 0.921326 0.530235 0.666130
Si Si7 0.386213 0.275971 0.538020
O O1 0.555252 0.944749 0.250000
O O2 0.544394 0.820712 0.328474
O O3 0.662754 0.935238 0.325914
O O4 0.505176 0.977969 0.353384
O O5 0.522767 0.750000 0.750000
O O6 0.391673 0.822581 0.698776
O O7 0.469193 0.892052 0.783884
O O8 0.549521 0.876924 0.686887
O O9 0.250000 0.750000 0.168704
O O10 0.137770 0.750000 0.250000
O O11 0.088587 0.726001 0.148340
O O12 0.141906 0.202700 0.100225
O O13 0.043284 0.344658 0.122079
O O14 0.086520 0.296190 0.024554
O O15 0.467782 0.277587 0.577770
O O16 0.316235 0.347078 0.550562
#
# Coordination Sequence:
#
# PCOD8313763 Si02
#       7
#    16  16  16  16  16  16  16
#     4  12  23  37  55  87 128 159 195 246 301 369
#     4  11  20  34  55  80 120 152 196 237 295 361
#     4  11  21  36  55  80 116 163 210 235 280 366
#     4   9  19  38  64  87 112 146 201 253 304 364
#     4  12  22  37  59  86 119 158 200 247 305 358
#     4  11  21  36  55  87 121 155 188 252 304 354
#     4   9  18  37  62  88 113 149 193 249 308 362
#
# _framework density 18.704705000000001
#
# number of rings (size 3 to 8) (size 9 to 14) (size 15 to 20)
#    0.000    1.286    5.714    3.857    0.000    0.286 
#    0.000    1.429    0.000    3.429    0.000    1.000 
#    0.000    0.000    0.000    0.000    0.000    0.000 
#
# Total GULP energy -1387752.815476 kJ/mol
# GULP energy per Si atom -12390.650138 kJ/mol
# Density = 1.866213 g / cm^3
# Si number density = 18.704705 Si / 1000 Ang^3
#
#
#
# Elastic Constant Matrix: (Units=GPa)
#
#
# Indices 1 2 3 4 5 6 
#
# 1 113.2304 34.3527 38.8383 0.0000 0.0000 0.0000
# 2 34.3527 113.2302 38.8383 0.0000 0.0000 0.0000
# 3 38.8383 38.8383 88.8104 0.0000 0.0000 0.0000
# 4 0.0000 0.0000 0.0000 29.5099 0.0000 0.0000
# 5 0.0000 0.0000 0.0000 0.0000 29.5099 0.0000
# 6 0.0000 0.0000 0.0000 0.0000 0.0000 23.2190
#
#
#
# Elastic Compliance Matrix: (Units=1/GPa)
#
#
# Indices 1 2 3 4 5 6 
#
# 1 0.010740 -0.001938 -0.003849 0.000000 0.000000 0.000000
# 2 -0.001938 0.010740 -0.003849 0.000000 0.000000 0.000000
# 3 -0.003849 -0.003849 0.014627 0.000000 0.000000 0.000000
# 4 0.000000 0.000000 0.000000 0.033887 0.000000 0.000000
# 5 0.000000 0.000000 0.000000 0.000000 0.033887 0.000000
# 6 0.000000 0.000000 0.000000 0.000000 0.000000 0.043068
#
#
# Mechanical properties :
#
#
# Convention : Reuss Voigt Hill
#
# Bulk Modulus (GPa) = 59.40561 59.92551 59.66556
# Shear Modulus (GPa) = 29.09816 29.99719 29.54768
#
# Velocity S-wave (km/s) = 3.94846 4.00900 3.97885
# Velocity P-wave (km/s) = 7.25368 7.31687 7.28534
#
# Compressibility (1/GPa) = 0.01683343
#
# Stress axis : x y z
#
# Youngs Moduli (GPa) = 93.11154 93.11142 68.36884
#
# Poissons Ratio (x) = 0.18046 0.26316
# Poissons Ratio (y) = 0.18046 0.26316
# Poissons Ratio (z) = 0.35840 0.35840
#
# Static dielectric constant tensor:
#      x y z
#    x 3.521860 0.000000 0.000000 
#    y 0.000000 3.521860 0.000000 
#    z 0.000000 0.000000 3.624990 
# 
# 
# High freq. dielectric constant tensor:
#      x y z
#    x 1.730420 0.000000 0.000000 
#    y 0.000000 1.730420 0.000000 
#    z 0.000000 0.000000 1.694600 
# 
# From -- ./inp_files/5856.got.cif
#   From: 2010.03.12/outbox.cif.g09.slc.cpg/sg126_3_cif.got.tgz:5856.got - 2010.04.06 16:55:23.
