data_PCOD8313033
_publ_section_title
;
Structure prediction by ZEFSAII (Michael W. Deem and Ramdas Pophale) SiO2 
 PCOD8313033
Probable space group: P 4/M M M
;
_chemical_formula_sum "Si O2"
_cell_formula_units_Z 48
_cell_length_a 19.007234
_cell_length_b 19.007234
_cell_length_c 10.439287
_cell_angle_alpha 90.000000
_cell_angle_beta 90.000000
_cell_angle_gamma 90.000000
_cell_volume 3771.452830
_symmetry_space_group_name_H-M "P 4/M M M"
_symmetry_group_IT_number 123
_symmetry_cell_setting 'tetragonal'
loop_
_space_group_symop_operation_xyz
x,y,z
-y,x,z
-x,-y,z
y,-x,z
x,-y,-z
-x,y,-z
y,x,-z
-y,-x,-z
-x,-y,-z
y,-x,-z
x,y,-z
-y,x,-z
-x,y,z
x,-y,z
-y,-x,z
y,x,z
loop_
_atom_site_type_symbol
_atom_site_label
_atom_site_fract_x
_atom_site_fract_y
_atom_site_fract_z
Si Si1 0.416632 0.157468 0.752403
Si Si2 0.583975 0.919374 0.500000
Si Si3 0.305702 0.419649 0.851212
Si Si4 0.583987 0.920780 0.000000
O O1 0.500000 0.149758 0.753843
O O2 0.386141 0.122237 0.623516
O O3 0.396115 0.239656 0.763863
O O4 0.384875 0.116427 0.873946
O O5 0.500000 0.918932 0.500000
O O6 0.611313 0.000000 0.500000
O O7 0.327262 0.500000 0.822436
O O8 0.371843 0.371843 0.813754
O O9 0.284309 0.411139 0.000000
O O10 0.500000 0.916825 0.000000
O O11 0.611431 0.000000 0.000000
#
# Coordination Sequence:
#
# PCOD8313033 Si02
#       4
#    16   8  16   8
#     4   9  15  24  35  50  70  90 112 141 179 220
#     4   9  16  24  35  52  73  93 110 131 167 218
#     4   9  16  26  39  53  69  91 121 159 201 236
#     4   9  14  20  33  50  67  87 110 135 169 216
#
# _framework density 12.727190999999999
#
# number of rings (size 3 to 8) (size 9 to 14) (size 15 to 20)
#    0.000    3.000    1.667    1.000    0.000    4.333 
#    0.000    2.500    0.000    0.000    0.000    0.000 
#    0.000    6.667    0.000    0.000    0.000    0.000 
#
# Total GULP energy -594956.236680 kJ/mol
# GULP energy per Si atom -12394.921598 kJ/mol
# Density = 1.269822 g / cm^3
# Si number density = 12.727191 Si / 1000 Ang^3
#
#
#
# Elastic Constant Matrix: (Units=GPa)
#
#
# Indices 1 2 3 4 5 6 
#
# 1 64.7064 38.4975 39.4079 0.0000 0.0000 0.0000
# 2 38.4975 64.7064 39.4079 0.0000 0.0000 0.0000
# 3 39.4079 39.4079 99.2283 0.0000 0.0000 0.0000
# 4 0.0000 0.0000 0.0000 14.5434 0.0000 0.0000
# 5 0.0000 0.0000 0.0000 0.0000 14.5434 0.0000
# 6 0.0000 0.0000 0.0000 0.0000 0.0000 0.4825
#
#
#
# Elastic Compliance Matrix: (Units=1/GPa)
#
#
# Indices 1 2 3 4 5 6 
#
# 1 0.026031 -0.012124 -0.005523 0.000000 0.000000 0.000000
# 2 -0.012124 0.026031 -0.005523 0.000000 0.000000 0.000000
# 3 -0.005523 -0.005523 0.014465 0.000000 0.000000 0.000000
# 4 0.000000 0.000000 0.000000 0.068760 0.000000 0.000000
# 5 0.000000 0.000000 0.000000 0.000000 0.068760 0.000000
# 6 0.000000 0.000000 0.000000 0.000000 0.000000 2.072527
#
#
# Mechanical properties :
#
#
# Convention : Reuss Voigt Hill
#
# Bulk Modulus (GPa) = 49.53714 51.47418 50.50566
# Shear Modulus (GPa) = 2.14625 13.33572 7.74098
#
# Velocity S-wave (km/s) = 1.30000 3.24051 2.46890
# Velocity P-wave (km/s) = 6.42341 7.38466 6.92074
#
# Compressibility (1/GPa) = 0.02018687
#
# Stress axis : x y z
#
# Youngs Moduli (GPa) = 38.41524 38.41524 69.13288
#
# Poissons Ratio (x) = 0.46573 0.38185
# Poissons Ratio (y) = 0.46573 0.38185
# Poissons Ratio (z) = 0.21218 0.21218
#
# Static dielectric constant tensor:
#      x y z
#    x 2.348860 0.000000 0.000000 
#    y 0.000000 2.348860 0.000000 
#    z 0.000000 0.000000 2.775160 
# 
# 
# High freq. dielectric constant tensor:
#      x y z
#    x 1.445930 0.000000 0.000000 
#    y 0.000000 1.445930 0.000000 
#    z 0.000000 0.000000 1.487590 
# 
# From -- ./inp_files/719.got.cif
#   From: 2010.03.12/outbox.cif.g09.slc.cpg/sg123_1_cif.got.tgz:719.got - 2010.04.06 16:26:55.
