data_PCOD8313091
_publ_section_title
;
Structure prediction by ZEFSAII (Michael W. Deem and Ramdas Pophale) SiO2 
 PCOD8313091
Probable space group: P 4/M C C
;
_chemical_formula_sum "Si O2"
_cell_formula_units_Z 88
_cell_length_a 17.662671
_cell_length_b 17.662671
_cell_length_c 15.614490
_cell_angle_alpha 90.000000
_cell_angle_beta 90.000000
_cell_angle_gamma 90.000000
_cell_volume 4871.251615
_symmetry_space_group_name_H-M "P 4/M C C"
_symmetry_group_IT_number 124
_symmetry_cell_setting 'tetragonal'
loop_
_space_group_symop_operation_xyz
x,y,z
-y,x,z
-x,-y,z
y,-x,z
x,-y,1/2-z
-x,y,1/2-z
y,x,1/2-z
-y,-x,1/2-z
-x,-y,-z
y,-x,-z
x,y,-z
-y,x,-z
-x,y,1/2+z
x,-y,1/2+z
-y,-x,1/2+z
y,x,1/2+z
loop_
_atom_site_type_symbol
_atom_site_label
_atom_site_fract_x
_atom_site_fract_y
_atom_site_fract_z
Si Si1 0.584406 0.822815 0.766524
Si Si2 0.945403 0.435544 0.903620
Si Si3 0.910204 0.919107 0.850403
Si Si4 0.271772 0.271772 0.250000
Si Si5 0.051614 0.325574 0.170225
Si Si6 0.218188 0.829670 0.096895
O O1 0.500000 0.792129 0.750000
O O2 0.579596 0.865720 0.857325
O O3 0.639446 0.748899 0.762423
O O4 0.612864 0.884626 0.697691
O O5 0.000000 0.500000 0.861025
O O6 0.996009 0.360136 0.900688
O O7 0.924648 0.458257 0.000000
O O8 0.903007 0.903007 0.750000
O O9 0.846380 0.871244 0.900230
O O10 0.994822 0.895251 0.877291
O O11 0.235852 0.239308 0.163060
O O12 0.091596 0.254864 0.127026
O O13 0.000000 0.298741 0.250000
O O14 0.242431 0.806731 0.000000
#
# Coordination Sequence:
#
# PCOD8313091 Si02
#       6
#    16  16  16   8  16  16
#     4  10  19  36  56  76 107 148 184 221 277 342
#     4  10  18  29  51  84 115 141 180 226 276 334
#     4   9  19  34  52  68  91 133 186 236 274 310
#     4  10  24  40  56  80 110 146 180 224 286 354
#     4   9  19  31  52  77 111 147 180 223 276 339
#     4  11  22  36  54  76 108 143 183 232 285 340
#
# _framework density 18.065172
#
# number of rings (size 3 to 8) (size 9 to 14) (size 15 to 20)
#    0.000    2.182    2.727    1.091    2.545    2.909 
#    0.000    0.909    0.000    0.273    0.000    0.000 
#    0.000    0.000    0.000    6.364    0.000    0.000 
#
# Total GULP energy -1090514.114081 kJ/mol
# GULP energy per Si atom -12392.205842 kJ/mol
# Density = 1.802405 g / cm^3
# Si number density = 18.065172 Si / 1000 Ang^3
#
#
#
# Elastic Constant Matrix: (Units=GPa)
#
#
# Indices 1 2 3 4 5 6 
#
# 1 84.8872 47.9752 30.0257 0.0000 0.0000 0.0000
# 2 47.9752 84.8872 30.0257 0.0000 0.0000 0.0000
# 3 30.0257 30.0257 87.8038 0.0000 0.0000 0.0000
# 4 0.0000 0.0000 0.0000 14.1912 0.0000 0.0000
# 5 0.0000 0.0000 0.0000 0.0000 14.1912 0.0000
# 6 0.0000 0.0000 0.0000 0.0000 0.0000 31.0921
#
#
#
# Elastic Compliance Matrix: (Units=1/GPa)
#
#
# Indices 1 2 3 4 5 6 
#
# 1 0.017997 -0.009094 -0.003044 0.000000 0.000000 0.000000
# 2 -0.009094 0.017997 -0.003044 0.000000 0.000000 0.000000
# 3 -0.003044 -0.003044 0.013471 0.000000 0.000000 0.000000
# 4 0.000000 0.000000 0.000000 0.070466 0.000000 0.000000
# 5 0.000000 0.000000 0.000000 0.000000 0.070466 0.000000
# 6 0.000000 0.000000 0.000000 0.000000 0.000000 0.032163
#
#
# Mechanical properties :
#
#
# Convention : Reuss Voigt Hill
#
# Bulk Modulus (GPa) = 52.35909 52.62570 52.49239
# Shear Modulus (GPa) = 19.28321 21.86499 20.57410
#
# Velocity S-wave (km/s) = 3.27069 3.48277 3.37839
# Velocity P-wave (km/s) = 6.58100 6.73551 6.65871
#
# Compressibility (1/GPa) = 0.01909888
#
# Stress axis : x y z
#
# Youngs Moduli (GPa) = 55.56469 55.56469 74.23274
#
# Poissons Ratio (x) = 0.50533 0.22599
# Poissons Ratio (y) = 0.50533 0.22599
# Poissons Ratio (z) = 0.16916 0.16916
#
# Static dielectric constant tensor:
#      x y z
#    x 3.249630 0.000000 0.000000 
#    y 0.000000 3.249630 0.000000 
#    z 0.000000 0.000000 3.203650 
# 
# 
# High freq. dielectric constant tensor:
#      x y z
#    x 1.676780 0.000000 0.000000 
#    y 0.000000 1.676780 0.000000 
#    z 0.000000 0.000000 1.693030 
# 
# From -- ./inp_files/3219.got.cif
#   From: 2010.03.12/outbox.cif.g09.slc.cpg/sg124_2_cif.got.tgz:3219.got - 2010.04.06 16:38:57.
