data_PCOD8313536
_publ_section_title
;
Structure prediction by ZEFSAII (Michael W. Deem and Ramdas Pophale) SiO2 
 PCOD8313536
Probable space group: P 4/N B M
;
_chemical_formula_sum "Si O2"
_cell_formula_units_Z 72
_cell_length_a 12.795955
_cell_length_b 12.795955
_cell_length_c 25.706573
_cell_angle_alpha 90.000000
_cell_angle_beta 90.000000
_cell_angle_gamma 90.000000
_cell_volume 4209.103374
_symmetry_space_group_name_H-M "P 4/N B M"
_symmetry_group_IT_number 125
_space_group.IT_coordinate_system_code '2'
_symmetry_cell_setting 'tetragonal'
loop_
_space_group_symop_operation_xyz
x,y,z
1/2-y,x,z
1/2-x,1/2-y,z
y,1/2-x,z
x,1/2-y,-z
1/2-x,y,-z
y,x,-z
1/2-y,1/2-x,-z
-x,-y,-z
1/2+y,-x,-z
1/2+x,1/2+y,-z
-y,1/2+x,-z
-x,1/2+y,z
1/2+x,-y,z
-y,-x,z
1/2+y,1/2+x,z
loop_
_atom_site_type_symbol
_atom_site_label
_atom_site_fract_x
_atom_site_fract_y
_atom_site_fract_z
Si Si1 0.626569 0.126569 0.722541
Si Si2 0.871234 0.628768 0.557575
Si Si3 0.872310 0.872311 0.111821
Si Si4 0.628357 0.628357 0.000000
Si Si5 0.500000 1.000000 0.806139
Si Si6 0.000000 0.500000 0.638896
Si Si7 0.373431 0.873431 0.722541
O O1 0.574730 0.074730 0.772923
O O2 0.603563 0.250000 0.722532
O O3 0.574680 0.074680 0.672192
O O4 0.895290 0.750001 0.564076
O O5 0.908177 0.591823 0.500000
O O6 0.929229 0.570773 0.603081
O O7 0.750000 0.895370 0.116536
O O8 0.928170 0.928170 0.158780
O O9 0.915499 0.915499 0.055274
O O10 0.750000 0.605727 0.000000
O O11 0.425269 0.925269 0.772923
O O12 0.074680 0.574680 0.672193
#
# Coordination Sequence:
#
# PCOD8313536 Si02
#       7
#     8  16  16   8   8   8   8
#     4  10  22  37  49  66  95 126 157 198 244 278
#     4   9  18  32  50  75 105 129 150 185 233 278
#     4   9  17  30  48  70  95 121 151 188 230 278
#     4   7  12  25  44  66  94 122 144 178 230 278
#     4  11  20  31  51  71  89 120 161 198 232 278
#     4  11  19  32  55  75  90 123 169 198 220 270
#     4  10  22  37  49  66  95 126 157 198 244 278
#
# _framework density 17.105779999999999
#
# number of rings (size 3 to 8) (size 9 to 14) (size 15 to 20)
#    0.000    2.556    0.000    5.000    0.000    0.444 
#    0.000    0.000    0.000   10.667    0.000    9.333 
#    0.000   14.222    0.000    0.000    0.000    0.000 
#
# Total GULP energy -892140.425061 kJ/mol
# GULP energy per Si atom -12390.839237 kJ/mol
# Density = 1.706685 g / cm^3
# Si number density = 17.105780 Si / 1000 Ang^3
#
#
#
# Elastic Constant Matrix: (Units=GPa)
#
#
# Indices 1 2 3 4 5 6 
#
# 1 79.0810 80.1728 81.5167 0.0000 0.0000 0.0000
# 2 80.1728 79.0818 81.5169 0.0000 0.0000 0.0000
# 3 81.5167 81.5169 182.9194 0.0000 0.0000 0.0000
# 4 0.0000 0.0000 0.0000 11.3960 0.0000 0.0000
# 5 0.0000 0.0000 0.0000 0.0000 11.3958 0.0000
# 6 0.0000 0.0000 0.0000 0.0000 0.0000 29.9163
#
#
#
# Elastic Compliance Matrix: (Units=1/GPa)
#
#
# Indices 1 2 3 4 5 6 
#
# 1 -0.452348 0.463893 -0.005145 0.000000 0.000000 0.000000
# 2 0.463893 -0.452342 -0.005147 0.000000 0.000000 0.000000
# 3 -0.005145 -0.005147 0.010053 0.000000 0.000000 0.000000
# 4 0.000000 0.000000 0.000000 0.087750 0.000000 0.000000
# 5 0.000000 0.000000 0.000000 0.000000 0.087752 0.000000
# 6 0.000000 0.000000 0.000000 0.000000 0.000000 0.033427
#
#
# Mechanical properties :
#
#
# Convention : Reuss Voigt Hill
#
# Bulk Modulus (GPa) = 79.59123 91.94391 85.76757
# Shear Modulus (GPa) = -3.14718 17.06666 6.95974
#
# Velocity S-wave (km/s) = -1.35788 3.16209 2.01928
# Velocity P-wave (km/s) = 6.64616 8.19748 7.46224
#
# Compressibility (1/GPa) = 0.01256420
#
# Stress axis : x y z
#
# Youngs Moduli (GPa) = -2.21069 -2.21072 99.46803
#
# Poissons Ratio (x) = 1.02554 0.51179
# Poissons Ratio (y) = 1.02552 0.51195
# Poissons Ratio (z) = -0.01137 -0.01138
#
# Static dielectric constant tensor:
#      x y z
#    x 3.081320 0.000000 0.000000 
#    y 0.000000 3.081320 0.000000 
#    z 0.000000 0.000000 3.536230 
# 
# 
# High freq. dielectric constant tensor:
#      x y z
#    x 1.652200 0.000000 0.000000 
#    y 0.000000 1.652200 0.000000 
#    z 0.000000 0.000000 1.684950 
# 
# From -- ./inp_files/5395.got.cif
#   From: 2010.03.12/outbox.cif.g09.slc.cpg/sg125_3_cif.got.tgz:5395.got - 2010.04.06 16:47:52.
