data_PCOD8313109
_publ_section_title
;
Structure prediction by ZEFSAII (Michael W. Deem and Ramdas Pophale) SiO2 
 PCOD8313109
Probable space group: P 4/M C C
;
_chemical_formula_sum "Si O2"
_cell_formula_units_Z 96
_cell_length_a 15.858325
_cell_length_b 15.858325
_cell_length_c 27.193225
_cell_angle_alpha 90.000000
_cell_angle_beta 90.000000
_cell_angle_gamma 90.000000
_cell_volume 6838.728212
_symmetry_space_group_name_H-M "P 4/M C C"
_symmetry_group_IT_number 124
_symmetry_cell_setting 'tetragonal'
loop_
_space_group_symop_operation_xyz
x,y,z
-y,x,z
-x,-y,z
y,-x,z
x,-y,1/2-z
-x,y,1/2-z
y,x,1/2-z
-y,-x,1/2-z
-x,-y,-z
y,-x,-z
x,y,-z
-y,x,-z
-x,y,1/2+z
x,-y,1/2+z
-y,-x,1/2+z
y,x,1/2+z
loop_
_atom_site_type_symbol
_atom_site_label
_atom_site_fract_x
_atom_site_fract_y
_atom_site_fract_z
Si Si1 0.014448 0.236545 0.557602
Si Si2 0.215676 0.346903 0.942541
Si Si3 0.616944 0.563411 0.058415
Si Si4 0.176114 0.152885 0.599170
Si Si5 0.415793 0.038141 0.556953
Si Si6 0.097754 0.901364 0.694716
O O1 0.995844 0.238045 0.500000
O O2 0.106439 0.202546 0.568414
O O3 0.943761 0.176672 0.581366
O O4 0.004569 0.331476 0.579404
O O5 0.299640 0.390955 0.921275
O O6 0.199849 0.263995 0.910184
O O7 0.139002 0.412508 0.935331
O O8 0.223829 0.321339 0.000000
O O9 0.533636 0.613116 0.076952
O O10 0.620072 0.563067 0.000000
O O11 0.153747 0.153542 0.657094
O O12 0.419056 0.014044 0.500000
O O13 0.500000 0.000000 0.582772
O O14 0.124257 0.875744 0.750000
O O15 0.999432 0.882972 0.685963
#
# Coordination Sequence:
#
# PCOD8313109 Si02
#       6
#    16  16  16  16  16  16
#     4  10  19  27  37  55  82 113 139 163 193 237
#     4   9  17  26  37  57  84 110 138 173 203 237
#     4   8  14  25  40  57  79 110 144 174 208 244
#     4  11  18  28  39  56  82 108 137 169 203 235
#     4   8  15  27  38  49  72 109 145 168 190 226
#     4   9  17  30  45  59  74 100 140 180 215 242
#
# _framework density 14.037698000000001
#
# number of rings (size 3 to 8) (size 9 to 14) (size 15 to 20)
#    0.000    2.833    1.667    3.500    0.000    1.667 
#    0.000    5.833    0.000    0.000    0.000    0.000 
#    0.000   17.333    0.000    1.833    0.000    0.167 
#
# Total GULP energy -1189910.387467 kJ/mol
# GULP energy per Si atom -12394.899869 kJ/mol
# Density = 1.400575 g / cm^3
# Si number density = 14.037698 Si / 1000 Ang^3
#
#
#
# Elastic Constant Matrix: (Units=GPa)
#
#
# Indices 1 2 3 4 5 6 
#
# 1 89.2074 55.2682 22.3490 0.0000 0.0000 0.0000
# 2 55.2682 89.2074 22.3490 0.0000 0.0000 0.0000
# 3 22.3490 22.3490 50.7870 0.0000 0.0000 0.0000
# 4 0.0000 0.0000 0.0000 9.2509 0.0000 0.0000
# 5 0.0000 0.0000 0.0000 0.0000 9.2508 0.0000
# 6 0.0000 0.0000 0.0000 0.0000 0.0000 26.5973
#
#
#
# Elastic Compliance Matrix: (Units=1/GPa)
#
#
# Indices 1 2 3 4 5 6 
#
# 1 0.018738 -0.010726 -0.003526 0.000000 0.000000 0.000000
# 2 -0.010726 0.018738 -0.003526 0.000000 0.000000 0.000000
# 3 -0.003526 -0.003526 0.022793 0.000000 0.000000 0.000000
# 4 0.000000 0.000000 0.000000 0.108098 0.000000 0.000000
# 5 0.000000 0.000000 0.000000 0.000000 0.108098 0.000000
# 6 0.000000 0.000000 0.000000 0.000000 0.000000 0.037598
#
#
# Mechanical properties :
#
#
# Convention : Reuss Voigt Hill
#
# Bulk Modulus (GPa) = 40.46206 47.68157 44.07182
# Shear Modulus (GPa) = 13.97203 17.63551 15.80377
#
# Velocity S-wave (km/s) = 3.15830 3.54827 3.35895
# Velocity P-wave (km/s) = 6.49509 7.12934 6.81959
#
# Compressibility (1/GPa) = 0.02471451
#
# Stress axis : x y z
#
# Youngs Moduli (GPa) = 53.36627 53.36626 43.87269
#
# Poissons Ratio (x) = 0.57241 0.15469
# Poissons Ratio (y) = 0.57241 0.15469
# Poissons Ratio (z) = 0.18816 0.18816
#
# Static dielectric constant tensor:
#      x y z
#    x 2.872330 0.000000 0.000000 
#    y 0.000000 2.872330 0.000000 
#    z 0.000000 0.000000 2.394870 
# 
# 
# High freq. dielectric constant tensor:
#      x y z
#    x 1.535620 0.000000 0.000000 
#    y 0.000000 1.535620 0.000000 
#    z 0.000000 0.000000 1.481100 
# 
# From -- ./inp_files/7191.got.cif
#   From: 2010.03.12/outbox.cif.g09.slc.cpg/sg124_4_cif.got.tgz:7191.got - 2010.04.06 16:38:57.
