data_PCOD8313718
_publ_section_title
;
Structure prediction by ZEFSAII (Michael W. Deem and Ramdas Pophale) SiO2 
 PCOD8313718
Probable space group: P 4/N N C
;
_chemical_formula_sum "Si O2"
_cell_formula_units_Z 96
_cell_length_a 25.168049
_cell_length_b 25.168049
_cell_length_c 8.030991
_cell_angle_alpha 90.000000
_cell_angle_beta 90.000000
_cell_angle_gamma 90.000000
_cell_volume 5087.076174
_symmetry_space_group_name_H-M "P 4/N N C"
_symmetry_group_IT_number 126
_space_group.IT_coordinate_system_code '2'
_symmetry_cell_setting 'tetragonal'
loop_
_space_group_symop_operation_xyz
x,y,z
1/2-y,x,z
1/2-x,1/2-y,z
y,1/2-x,z
x,1/2-y,1/2-z
1/2-x,y,1/2-z
y,x,1/2-z
1/2-y,1/2-x,1/2-z
-x,-y,-z
1/2+y,-x,-z
1/2+x,1/2+y,-z
-y,1/2+x,-z
-x,1/2+y,1/2+z
1/2+x,-y,1/2+z
-y,-x,1/2+z
1/2+y,1/2+x,1/2+z
loop_
_atom_site_type_symbol
_atom_site_label
_atom_site_fract_x
_atom_site_fract_y
_atom_site_fract_z
Si Si1 0.808088 0.895606 0.750000
Si Si2 0.837099 0.531679 0.054194
Si Si3 0.750000 0.055150 0.437573
Si Si4 0.162901 0.031679 0.945806
Si Si5 0.457590 0.457590 0.556674
Si Si6 0.829992 0.250000 0.064711
O O1 0.750000 0.870134 0.750000
O O2 0.849278 0.849278 0.750000
O O3 0.812939 0.927346 0.576729
O O4 0.812939 0.927346 0.923272
O O5 0.803904 0.477806 0.028267
O O6 0.832070 0.550391 0.250000
O O7 0.898618 0.524999 0.997953
O O8 0.750000 0.075998 0.250000
O O9 0.750000 0.106599 0.551576
O O10 0.696096 0.022194 0.471733
O O11 0.101382 0.024999 0.002047
O O12 0.457487 0.457487 0.750000
O O13 0.500000 0.500000 0.500000
O O14 0.812227 0.250000 0.250000
O O15 0.804643 0.195358 1.000000
#
# Coordination Sequence:
#
# PCOD8313718 Si02
#       6
#    16  16  16  16  16  16
#     4  12  24  39  68  94 124 166 210 254 316 376
#     4  10  22  40  61  89 124 167 208 252 309 379
#     4  10  21  39  64  90 119 153 212 262 305 374
#     4  10  22  40  61  89 124 167 208 252 309 379
#     4  10  22  38  58  88 126 165 205 253 315 371
#     4  11  23  40  61  84 120 164 209 263 324 378
#
# _framework density 18.87135
#
# number of rings (size 3 to 8) (size 9 to 14) (size 15 to 20)
#    0.000    1.500    3.333    2.000    4.667    1.500 
#    0.000    3.333    0.000    0.000    0.000    2.333 
#    0.000    0.000    0.000    0.000    0.000    0.000 
#
# Total GULP energy -1189427.721571 kJ/mol
# GULP energy per Si atom -12389.872100 kJ/mol
# Density = 1.882840 g / cm^3
# Si number density = 18.871350 Si / 1000 Ang^3
#
#
#
# Elastic Constant Matrix: (Units=GPa)
#
#
# Indices 1 2 3 4 5 6 
#
# 1 125.4855 60.2836 36.0967 0.0000 0.0000 0.0000
# 2 60.2836 125.4855 36.0967 0.0000 0.0000 0.0000
# 3 36.0967 36.0967 95.4465 0.0000 0.0000 0.0000
# 4 0.0000 0.0000 0.0000 23.8842 0.0000 0.0000
# 5 0.0000 0.0000 0.0000 0.0000 23.8842 0.0000
# 6 0.0000 0.0000 0.0000 0.0000 0.0000 13.0900
#
#
#
# Elastic Compliance Matrix: (Units=1/GPa)
#
#
# Indices 1 2 3 4 5 6 
#
# 1 0.010824 -0.004513 -0.002387 0.000000 0.000000 0.000000
# 2 -0.004513 0.010824 -0.002387 0.000000 0.000000 0.000000
# 3 -0.002387 -0.002387 0.012282 0.000000 0.000000 0.000000
# 4 0.000000 0.000000 0.000000 0.041869 0.000000 0.000000
# 5 0.000000 0.000000 0.000000 0.000000 0.041869 0.000000
# 6 0.000000 0.000000 0.000000 0.000000 0.000000 0.076394
#
#
# Mechanical properties :
#
#
# Convention : Reuss Voigt Hill
#
# Bulk Modulus (GPa) = 65.11700 67.93018 66.52359
# Shear Modulus (GPa) = 22.96184 26.43440 24.69812
#
# Velocity S-wave (km/s) = 3.49199 3.74675 3.62161
# Velocity P-wave (km/s) = 7.13017 7.40217 7.26744
#
# Compressibility (1/GPa) = 0.01535697
#
# Stress axis : x y z
#
# Youngs Moduli (GPa) = 92.38959 92.38959 81.41867
#
# Poissons Ratio (x) = 0.41698 0.19431
# Poissons Ratio (y) = 0.41698 0.19431
# Poissons Ratio (z) = 0.22049 0.22049
#
# Static dielectric constant tensor:
#      x y z
#    x 5.739540 0.000000 0.000000 
#    y 0.000000 5.739540 0.000000 
#    z 0.000000 0.000000 3.212890 
# 
# 
# High freq. dielectric constant tensor:
#      x y z
#    x 1.731450 0.000000 0.000000 
#    y 0.000000 1.731450 0.000000 
#    z 0.000000 0.000000 1.750340 
# 
# From -- ./inp_files/1743.got.cif
#   From: 2010.03.12/outbox.cif.g09.slc.cpg/sg126_1_cif.got.tgz:1743.got - 2010.04.06 16:55:23.
