data_PCOD8313630
_publ_section_title
;
Structure prediction by ZEFSAII (Michael W. Deem and Ramdas Pophale) SiO2 
 PCOD8313630
Probable space group: P 4/N B M
;
_chemical_formula_sum "Si O2"
_cell_formula_units_Z 72
_cell_length_a 11.968361
_cell_length_b 11.968361
_cell_length_c 25.701681
_cell_angle_alpha 90.000000
_cell_angle_beta 90.000000
_cell_angle_gamma 90.000000
_cell_volume 3681.551580
_symmetry_space_group_name_H-M "P 4/N B M"
_symmetry_group_IT_number 125
_space_group.IT_coordinate_system_code '2'
_symmetry_cell_setting 'tetragonal'
loop_
_space_group_symop_operation_xyz
x,y,z
1/2-y,x,z
1/2-x,1/2-y,z
y,1/2-x,z
x,1/2-y,-z
1/2-x,y,-z
y,x,-z
1/2-y,1/2-x,-z
-x,-y,-z
1/2+y,-x,-z
1/2+x,1/2+y,-z
-y,1/2+x,-z
-x,1/2+y,z
1/2+x,-y,z
-y,-x,z
1/2+y,1/2+x,z
loop_
_atom_site_type_symbol
_atom_site_label
_atom_site_fract_x
_atom_site_fract_y
_atom_site_fract_z
Si Si1 0.340286 0.840286 0.389507
Si Si2 0.286345 0.068416 0.209970
Si Si3 0.250000 0.921287 0.000000
Si Si4 0.342165 0.657836 0.732945
Si Si5 0.268694 0.427906 0.561017
Si Si6 0.787104 0.927986 0.092843
O O1 0.250000 0.750000 0.405739
O O2 0.352790 0.852790 0.328348
O O3 0.455644 0.795322 0.412441
O O4 0.379468 0.163778 0.220082
O O5 0.297010 0.022395 0.150936
O O6 0.305686 0.963698 0.247062
O O7 0.191659 0.985571 0.952832
O O8 0.346052 0.846052 0.973880
O O9 0.250000 0.750000 0.749365
O O10 0.152417 0.370901 0.578451
O O11 0.250000 0.445591 0.500000
O O12 0.664659 0.879973 0.084841
#
# Coordination Sequence:
#
# PCOD8313630 Si02
#       6
#     8  16   8   8  16  16
#     4  11  26  39  59  94 132 166 210 256 312 363
#     4   9  21  43  68  90 116 160 212 257 315 376
#     4  11  24  35  46  80 124 151 182 229 294 358
#     4  11  26  42  59  94 129 161 208 263 309 362
#     4   9  21  41  65  94 126 166 212 256 307 368
#     4   9  19  38  61  83 107 142 192 242 292 360
#
# _framework density 19.556971000000001
#
# number of rings (size 3 to 8) (size 9 to 14) (size 15 to 20)
#    0.000    2.333    0.000    2.667    6.222    6.222 
#    4.000    2.222    0.000    0.000    0.000    0.000 
#    0.000    0.000    0.000    0.000    0.000    0.000 
#
# Total GULP energy -892346.091113 kJ/mol
# GULP energy per Si atom -12393.695710 kJ/mol
# Density = 1.951246 g / cm^3
# Si number density = 19.556971 Si / 1000 Ang^3
#
#
#
# Elastic Constant Matrix: (Units=GPa)
#
#
# Indices 1 2 3 4 5 6 
#
# 1 134.1232 69.9955 64.7815 0.0000 0.0000 0.0000
# 2 69.9955 134.1232 64.7815 0.0000 0.0000 0.0000
# 3 64.7815 64.7815 79.4140 0.0000 0.0000 0.0000
# 4 0.0000 0.0000 0.0000 21.2731 0.0000 0.0000
# 5 0.0000 0.0000 0.0000 0.0000 21.2731 0.0000
# 6 0.0000 0.0000 0.0000 0.0000 0.0000 19.0520
#
#
#
# Elastic Compliance Matrix: (Units=1/GPa)
#
#
# Indices 1 2 3 4 5 6 
#
# 1 0.012877 -0.002717 -0.008288 0.000000 0.000000 0.000000
# 2 -0.002717 0.012877 -0.008288 0.000000 0.000000 0.000000
# 3 -0.008288 -0.008288 0.026114 0.000000 0.000000 0.000000
# 4 0.000000 0.000000 0.000000 0.047008 0.000000 0.000000
# 5 0.000000 0.000000 0.000000 0.000000 0.047008 0.000000
# 6 0.000000 0.000000 0.000000 0.000000 0.000000 0.052488
#
#
# Mechanical properties :
#
#
# Convention : Reuss Voigt Hill
#
# Bulk Modulus (GPa) = 75.28936 82.97528 79.13232
# Shear Modulus (GPa) = 20.71399 22.19310 21.45355
#
# Velocity S-wave (km/s) = 3.25801 3.37232 3.31566
# Velocity P-wave (km/s) = 7.26181 7.59493 7.43024
#
# Compressibility (1/GPa) = 0.01328209
#
# Stress axis : x y z
#
# Youngs Moduli (GPa) = 77.65921 77.65921 38.29435
#
# Poissons Ratio (x) = 0.21101 0.31737
# Poissons Ratio (y) = 0.21101 0.31737
# Poissons Ratio (z) = 0.64362 0.64362
#
# Static dielectric constant tensor:
#      x y z
#    x 3.640390 0.000000 0.000000 
#    y 0.000000 3.640390 0.000000 
#    z 0.000000 0.000000 3.509450 
# 
# 
# High freq. dielectric constant tensor:
#      x y z
#    x 1.767990 0.000000 0.000000 
#    y 0.000000 1.767990 0.000000 
#    z 0.000000 0.000000 1.757530 
# 
# From -- ./inp_files/6374.got.cif
#   From: 2010.03.12/outbox.cif.g09.slc.cpg/sg125_4_cif.got.tgz:6374.got - 2010.04.06 16:47:52.
