data_PCOD8313687
_publ_section_title
;
Structure prediction by ZEFSAII (Michael W. Deem and Ramdas Pophale) SiO2 
 PCOD8313687
Probable space group: P 4/N N C
;
_chemical_formula_sum "Si O2"
_cell_formula_units_Z 96
_cell_length_a 25.224752
_cell_length_b 25.224752
_cell_length_c 8.798134
_cell_angle_alpha 90.000000
_cell_angle_beta 90.000000
_cell_angle_gamma 90.000000
_cell_volume 5598.148085
_symmetry_space_group_name_H-M "P 4/N N C"
_symmetry_group_IT_number 126
_space_group.IT_coordinate_system_code '2'
_symmetry_cell_setting 'tetragonal'
loop_
_space_group_symop_operation_xyz
x,y,z
1/2-y,x,z
1/2-x,1/2-y,z
y,1/2-x,z
x,1/2-y,1/2-z
1/2-x,y,1/2-z
y,x,1/2-z
1/2-y,1/2-x,1/2-z
-x,-y,-z
1/2+y,-x,-z
1/2+x,1/2+y,-z
-y,1/2+x,-z
-x,1/2+y,1/2+z
1/2+x,-y,1/2+z
-y,-x,1/2+z
1/2+y,1/2+x,1/2+z
loop_
_atom_site_type_symbol
_atom_site_label
_atom_site_fract_x
_atom_site_fract_y
_atom_site_fract_z
Si Si1 0.872595 0.381911 0.551446
Si Si2 0.493129 0.854820 0.069603
Si Si3 0.542628 0.960855 0.570978
Si Si4 0.756062 0.489827 0.916945
Si Si5 0.297482 0.623227 0.329849
Si Si6 0.003051 0.639064 0.415975
O O1 0.865544 0.430452 0.436773
O O2 0.848434 0.328989 0.467753
O O3 0.842287 0.393988 0.707723
O O4 0.934720 0.373160 0.574811
O O5 0.513934 0.860521 0.240722
O O6 0.523241 0.897356 0.966310
O O7 0.504293 0.795899 0.011659
O O8 0.536158 0.963843 0.750000
O O9 0.531704 0.902908 0.506970
O O10 0.500000 0.000000 0.500000
O O11 0.750000 0.516079 0.750000
O O12 0.765306 0.426809 0.897596
O O13 0.805392 0.513269 0.008777
O O14 0.250000 0.658131 0.250000
#
# Coordination Sequence:
#
# PCOD8313687 Si02
#       6
#    16  16  16  16  16  16
#     4  11  20  32  53  76 101 131 179 224 275 332
#     4  12  21  36  54  81 109 142 186 226 275 336
#     4  12  25  35  52  79 118 150 180 225 287 346
#     4  10  20  35  57  77 107 139 187 229 270 334
#     4  10  20  35  52  77  96 134 177 232 281 332
#     4  11  23  36  54  81 109 146 184 228 279 336
#
# _framework density 17.148527999999999
#
# number of rings (size 3 to 8) (size 9 to 14) (size 15 to 20)
#    0.000    1.000    6.667    3.000    2.333    0.000 
#    0.000    0.833    0.000    1.500    0.000    0.000 
#    0.000    0.667    0.000    6.667    0.000    4.000 
#
# Total GULP energy -1189922.959544 kJ/mol
# GULP energy per Si atom -12395.030829 kJ/mol
# Density = 1.710950 g / cm^3
# Si number density = 17.148528 Si / 1000 Ang^3
#
#
#
# Elastic Constant Matrix: (Units=GPa)
#
#
# Indices 1 2 3 4 5 6 
#
# 1 84.6623 44.2435 35.4684 0.0000 0.0000 0.0000
# 2 44.2435 84.6615 35.4678 0.0000 0.0000 0.0000
# 3 35.4684 35.4678 129.3724 0.0000 0.0000 0.0000
# 4 0.0000 0.0000 0.0000 29.3923 0.0000 0.0000
# 5 0.0000 0.0000 0.0000 0.0000 29.3926 0.0000
# 6 0.0000 0.0000 0.0000 0.0000 0.0000 11.2657
#
#
#
# Elastic Compliance Matrix: (Units=1/GPa)
#
#
# Indices 1 2 3 4 5 6 
#
# 1 0.016939 -0.007803 -0.002505 0.000000 0.000000 0.000000
# 2 -0.007803 0.016939 -0.002505 0.000000 0.000000 0.000000
# 3 -0.002505 -0.002505 0.009103 0.000000 0.000000 0.000000
# 4 0.000000 0.000000 0.000000 0.034022 0.000000 0.000000
# 5 0.000000 0.000000 0.000000 0.000000 0.034022 0.000000
# 6 0.000000 0.000000 0.000000 0.000000 0.000000 0.088765
#
#
# Mechanical properties :
#
#
# Convention : Reuss Voigt Hill
#
# Bulk Modulus (GPa) = 57.61638 58.78395 58.20016
# Shear Modulus (GPa) = 21.62642 26.24456 23.93549
#
# Velocity S-wave (km/s) = 3.55508 3.91631 3.74006
# Velocity P-wave (km/s) = 7.10794 7.40295 7.25695
#
# Compressibility (1/GPa) = 0.01735618
#
# Stress axis : x y z
#
# Youngs Moduli (GPa) = 59.03702 59.03672 109.85440
#
# Poissons Ratio (x) = 0.46064 0.27515
# Poissons Ratio (y) = 0.46064 0.27514
# Poissons Ratio (z) = 0.14787 0.14786
#
# Static dielectric constant tensor:
#      x y z
#    x 3.157570 0.000000 0.000000 
#    y 0.000000 3.157570 0.000000 
#    z 0.000000 0.000000 3.501180 
# 
# 
# High freq. dielectric constant tensor:
#      x y z
#    x 1.633830 0.000000 0.000000 
#    y 0.000000 1.633830 0.000000 
#    z 0.000000 0.000000 1.687550 
# 
# From -- ./inp_files/1723.got.cif
#   From: 2010.03.12/outbox.cif.g09.slc.cpg/sg126_1_cif.got.tgz:1723.got - 2010.04.06 16:55:23.
