data_PCOD8313382
_publ_section_title
;
Structure prediction by ZEFSAII (Michael W. Deem and Ramdas Pophale) SiO2 
 PCOD8313382
Probable space group: P 4/M C C
;
_chemical_formula_sum "Si O2"
_cell_formula_units_Z 48
_cell_length_a 8.091765
_cell_length_b 8.091765
_cell_length_c 30.008723
_cell_angle_alpha 90.000000
_cell_angle_beta 90.000000
_cell_angle_gamma 90.000000
_cell_volume 1964.870977
_symmetry_space_group_name_H-M "P 4/M C C"
_symmetry_group_IT_number 124
_symmetry_cell_setting 'tetragonal'
loop_
_space_group_symop_operation_xyz
x,y,z
-y,x,z
-x,-y,z
y,-x,z
x,-y,1/2-z
-x,y,1/2-z
y,x,1/2-z
-y,-x,1/2-z
-x,-y,-z
y,-x,-z
x,y,-z
-y,x,-z
-x,y,1/2+z
x,-y,1/2+z
-y,-x,1/2+z
y,x,1/2+z
loop_
_atom_site_type_symbol
_atom_site_label
_atom_site_fract_x
_atom_site_fract_y
_atom_site_fract_z
Si Si1 0.902970 0.252967 0.949334
Si Si2 0.029230 0.732121 0.800125
Si Si3 0.430953 0.236156 0.130822
O O1 0.846363 0.402066 0.917539
O O2 0.092661 0.208654 0.939684
O O3 0.879773 0.313646 0.000000
O O4 0.090634 0.584443 0.832046
O O5 0.859529 0.822629 0.810463
O O6 0.000000 0.666591 0.750000
O O7 0.615468 0.300844 0.136402
#
# Coordination Sequence:
#
# PCOD8313382 Si02
#       3
#    16  16  16
#     4   9  19  37  62  92 124 161 210 262 304 351
#     4   9  19  39  63  87 111 143 197 257 306 358
#     4  11  24  39  57  88 130 169 203 245 303 370
#
# _framework density 24.429082999999999
#
# number of rings (size 3 to 8) (size 9 to 14) (size 15 to 20)
#    0.000    2.333    0.000    4.000    0.000    9.333 
#    0.000   21.667    0.000    8.000    0.000    0.000 
#    0.000    0.000    0.000    0.000    0.000    0.000 
#
# Total GULP energy -594712.123683 kJ/mol
# GULP energy per Si atom -12389.835910 kJ/mol
# Density = 2.437348 g / cm^3
# Si number density = 24.429083 Si / 1000 Ang^3
#
#
#
# Elastic Constant Matrix: (Units=GPa)
#
#
# Indices 1 2 3 4 5 6 
#
# 1 64.2254 55.9128 56.4974 0.0000 0.0000 0.0000
# 2 55.9128 64.2254 56.4974 0.0000 0.0000 0.0000
# 3 56.4974 56.4974 185.7216 0.0000 0.0000 0.0000
# 4 0.0000 0.0000 0.0000 -188.8067 0.0000 0.0000
# 5 0.0000 0.0000 0.0000 0.0000 -188.8067 0.0000
# 6 0.0000 0.0000 0.0000 0.0000 0.0000 56.1488
#
#
#
# Elastic Compliance Matrix: (Units=1/GPa)
#
#
# Indices 1 2 3 4 5 6 
#
# 1 0.065980 -0.054320 -0.003547 0.000000 0.000000 0.000000
# 2 -0.054320 0.065980 -0.003547 0.000000 0.000000 0.000000
# 3 -0.003547 -0.003547 0.007542 0.000000 0.000000 0.000000
# 4 0.000000 0.000000 0.000000 -0.005296 0.000000 0.000000
# 5 0.000000 0.000000 0.000000 0.000000 -0.005296 0.000000
# 6 0.000000 0.000000 0.000000 0.000000 0.000000 0.017810
#
#
# Mechanical properties :
#
#
# Convention : Reuss Voigt Hill
#
# Bulk Modulus (GPa) = 59.97303 72.44309 66.20806
# Shear Modulus (GPa) = 18.17482 -54.60859 -18.21689
#
# Velocity S-wave (km/s) = 2.73056 -4.73312 -2.73372
# Velocity P-wave (km/s) = 5.87745 0.38874 4.14689
#
# Compressibility (1/GPa) = 0.01667416
#
# Stress axis : x y z
#
# Youngs Moduli (GPa) = 15.15610 15.15610 132.58345
#
# Poissons Ratio (x) = 0.82328 0.47027
# Poissons Ratio (y) = 0.82328 0.47027
# Poissons Ratio (z) = 0.05376 0.05376
#
# Static dielectric constant tensor:
#      x y z
#    x 4.298180 0.000000 0.000000 
#    y 0.000000 4.298180 0.000000 
#    z 0.000000 0.000000 4.274400 
# 
# 
# High freq. dielectric constant tensor:
#      x y z
#    x 1.982460 0.000000 0.000000 
#    y 0.000000 1.982460 0.000000 
#    z 0.000000 0.000000 1.965800 
# 
# From -- ./inp_files/6702.got.cif
#   From: 2010.03.12/outbox.cif.g09.slc.cpg/sg124_4_cif.got.tgz:6702.got - 2010.04.06 16:38:57.
