data_PCOD8313302
_publ_section_title
;
Structure prediction by ZEFSAII (Michael W. Deem and Ramdas Pophale) SiO2 
 PCOD8313302
Probable space group: P 4/M C C
;
_chemical_formula_sum "Si O2"
_cell_formula_units_Z 64
_cell_length_a 19.880533
_cell_length_b 19.880533
_cell_length_c 8.576281
_cell_angle_alpha 90.000000
_cell_angle_beta 90.000000
_cell_angle_gamma 90.000000
_cell_volume 3389.651501
_symmetry_space_group_name_H-M "P 4/M C C"
_symmetry_group_IT_number 124
_symmetry_cell_setting 'tetragonal'
loop_
_space_group_symop_operation_xyz
x,y,z
-y,x,z
-x,-y,z
y,-x,z
x,-y,1/2-z
-x,y,1/2-z
y,x,1/2-z
-y,-x,1/2-z
-x,-y,-z
y,-x,-z
x,y,-z
-y,x,-z
-x,y,1/2+z
x,-y,1/2+z
-y,-x,1/2+z
y,x,1/2+z
loop_
_atom_site_type_symbol
_atom_site_label
_atom_site_fract_x
_atom_site_fract_y
_atom_site_fract_z
Si Si1 0.677931 0.929521 0.315918
Si Si2 0.824124 0.928600 0.184499
Si Si3 0.429320 0.326299 0.818260
Si Si4 0.829250 0.428644 0.816441
O O1 0.687404 0.935313 0.500000
O O2 0.748838 0.912518 0.237922
O O3 0.627857 0.870017 0.273891
O O4 0.649403 0.000000 0.250000
O O5 0.870856 0.870856 0.250000
O O6 0.849081 0.000000 0.250000
O O7 0.827694 0.930066 0.000000
O O8 0.500000 0.351888 0.750000
O O9 0.367914 0.367914 0.750000
O O10 0.416789 0.248673 0.775476
O O11 0.432280 0.338221 0.000000
O O12 0.853457 0.500000 0.750000
O O13 0.843450 0.425160 0.000000
#
# Coordination Sequence:
#
# PCOD8313302 Si02
#       4
#    16  16  16  16
#     4  11  22  38  59  84 114 149 187 231 279 332
#     4  11  22  39  60  85 115 149 188 232 280 332
#     4  10  21  37  58  82 112 145 183 227 275 327
#     4  10  21  38  58  83 113 147 186 232 280 333
#
# _framework density 18.880996
#
# number of rings (size 3 to 8) (size 9 to 14) (size 15 to 20)
#    0.000    1.500    0.000    7.500    0.000    5.000 
#    0.000    7.500    0.000    0.000    0.000    0.000 
#    0.000    0.000    0.000    0.000    0.000    0.000 
#
# Total GULP energy -793937.999048 kJ/mol
# GULP energy per Si atom -12405.281235 kJ/mol
# Density = 1.883802 g / cm^3
# Si number density = 18.880996 Si / 1000 Ang^3
#
#
#
# Elastic Constant Matrix: (Units=GPa)
#
#
# Indices 1 2 3 4 5 6 
#
# 1 92.4859 70.5766 52.3743 0.0000 0.0000 0.0000
# 2 70.5766 92.4859 52.3743 0.0000 0.0000 0.0000
# 3 52.3743 52.3743 151.8794 0.0000 0.0000 0.0000
# 4 0.0000 0.0000 0.0000 36.3538 0.0000 0.0000
# 5 0.0000 0.0000 0.0000 0.0000 36.3538 0.0000
# 6 0.0000 0.0000 0.0000 0.0000 0.0000 32.5130
#
#
#
# Elastic Compliance Matrix: (Units=1/GPa)
#
#
# Indices 1 2 3 4 5 6 
#
# 1 0.026760 -0.018883 -0.002717 0.000000 0.000000 0.000000
# 2 -0.018883 0.026760 -0.002717 0.000000 0.000000 0.000000
# 3 -0.002717 -0.002717 0.008458 0.000000 0.000000 0.000000
# 4 0.000000 0.000000 0.000000 0.027507 0.000000 0.000000
# 5 0.000000 0.000000 0.000000 0.000000 0.027507 0.000000
# 6 0.000000 0.000000 0.000000 0.000000 0.000000 0.030757
#
#
# Mechanical properties :
#
#
# Convention : Reuss Voigt Hill
#
# Bulk Modulus (GPa) = 74.92382 76.38908 75.65645
# Shear Modulus (GPa) = 24.89666 31.81252 28.35459
#
# Velocity S-wave (km/s) = 3.63521 4.10920 3.87945
# Velocity P-wave (km/s) = 7.57548 7.94104 7.76041
#
# Compressibility (1/GPa) = 0.01334689
#
# Stress axis : x y z
#
# Youngs Moduli (GPa) = 37.36891 37.36891 118.23506
#
# Poissons Ratio (x) = 0.70562 0.32119
# Poissons Ratio (y) = 0.70562 0.32119
# Poissons Ratio (z) = 0.10151 0.10151
#
# Static dielectric constant tensor:
#      x y z
#    x 3.501960 0.000000 0.000000 
#    y 0.000000 3.501960 0.000000 
#    z 0.000000 0.000000 3.676240 
# 
# 
# High freq. dielectric constant tensor:
#      x y z
#    x 1.737640 0.000000 0.000000 
#    y 0.000000 1.737640 0.000000 
#    z 0.000000 0.000000 1.758480 
# 
# From -- ./inp_files/861.got.cif
#   From: 2010.03.12/outbox.cif.g09.slc.cpg/sg124_1_cif.got.tgz:861.got - 2010.04.06 16:38:57.
