data_PCOD8313581
_publ_section_title
;
Structure prediction by ZEFSAII (Michael W. Deem and Ramdas Pophale) SiO2 
 PCOD8313581
Probable space group: P 4/N B M
;
_chemical_formula_sum "Si O2"
_cell_formula_units_Z 112
_cell_length_a 14.987274
_cell_length_b 14.987274
_cell_length_c 23.320673
_cell_angle_alpha 90.000000
_cell_angle_beta 90.000000
_cell_angle_gamma 90.000000
_cell_volume 5238.251835
_symmetry_space_group_name_H-M "P 4/N B M"
_symmetry_group_IT_number 125
_space_group.IT_coordinate_system_code '2'
_symmetry_cell_setting 'tetragonal'
loop_
_space_group_symop_operation_xyz
x,y,z
1/2-y,x,z
1/2-x,1/2-y,z
y,1/2-x,z
x,1/2-y,-z
1/2-x,y,-z
y,x,-z
1/2-y,1/2-x,-z
-x,-y,-z
1/2+y,-x,-z
1/2+x,1/2+y,-z
-y,1/2+x,-z
-x,1/2+y,z
1/2+x,-y,z
-y,-x,z
1/2+y,1/2+x,z
loop_
_atom_site_type_symbol
_atom_site_label
_atom_site_fract_x
_atom_site_fract_y
_atom_site_fract_z
Si Si1 0.849418 0.859215 0.721706
Si Si2 0.745316 0.004108 0.563608
Si Si3 0.650755 0.857669 0.064553
Si Si4 0.879886 0.972598 0.831612
Si Si5 0.604773 0.245411 0.793839
Si Si6 0.574079 0.574821 0.605385
Si Si7 0.245680 0.611757 0.671451
O O1 0.744087 0.873881 0.715313
O O2 0.880749 0.896763 0.782950
O O3 0.901960 0.911725 0.671995
O O4 0.750000 0.047215 0.500000
O O5 0.843803 0.972121 0.575481
O O6 0.667183 0.931020 0.569055
O O7 0.715018 0.070532 0.613958
O O8 0.626862 0.755288 0.075548
O O9 0.600909 0.923291 0.108323
O O10 0.619522 0.880479 0.000000
O O11 0.785220 0.028058 0.835499
O O12 0.960193 0.039808 0.818842
O O13 0.685408 0.314593 0.789863
O O14 0.648016 0.148016 0.812026
O O15 0.555086 0.244502 0.730649
O O16 0.484897 0.515104 0.599530
O O17 0.302024 0.697977 0.686444
O O18 0.142485 0.642485 0.661070
#
# Coordination Sequence:
#
# PCOD8313581 Si02
#       7
#    16  16  16  16  16  16  16
#     4  11  23  43  67  92 125 164 209 263 324 385
#     4  12  26  43  63  89 121 161 210 260 318 391
#     4   9  19  39  64  86 117 167 220 267 320 376
#     4  11  21  34  59  98 133 166 211 263 318 381
#     4   8  16  32  53  81 122 167 202 239 300 373
#     4  12  26  46  68  93 125 162 207 264 329 391
#     4   9  18  35  59  85 117 160 208 258 313 375
#
# _framework density 21.381180000000001
#
# number of rings (size 3 to 8) (size 9 to 14) (size 15 to 20)
#    0.000    1.714    1.429    4.714    0.000    5.714 
#    0.000    4.286    0.000    0.857    0.000    0.000 
#    0.000    0.000    0.000    0.000    0.000    0.000 
#
# Total GULP energy -1387581.716492 kJ/mol
# GULP energy per Si atom -12389.122469 kJ/mol
# Density = 2.133252 g / cm^3
# Si number density = 21.381180 Si / 1000 Ang^3
#
#
#
# Elastic Constant Matrix: (Units=GPa)
#
#
# Indices 1 2 3 4 5 6 
#
# 1 71.4357 19.5033 32.2216 0.0000 0.0000 0.0000
# 2 19.5033 71.4356 32.2215 0.0000 0.0000 0.0000
# 3 32.2216 32.2215 123.0403 0.0000 0.0000 0.0000
# 4 0.0000 0.0000 0.0000 23.8962 0.0000 0.0000
# 5 0.0000 0.0000 0.0000 0.0000 23.8963 0.0000
# 6 0.0000 0.0000 0.0000 0.0000 0.0000 15.5401
#
#
#
# Elastic Compliance Matrix: (Units=1/GPa)
#
#
# Indices 1 2 3 4 5 6 
#
# 1 0.016379 -0.002877 -0.003536 0.000000 0.000000 0.000000
# 2 -0.002877 0.016379 -0.003536 0.000000 0.000000 0.000000
# 3 -0.003536 -0.003536 0.009979 0.000000 0.000000 0.000000
# 4 0.000000 0.000000 0.000000 0.041848 0.000000 0.000000
# 5 0.000000 0.000000 0.000000 0.000000 0.041848 0.000000
# 6 0.000000 0.000000 0.000000 0.000000 0.000000 0.064350
#
#
# Mechanical properties :
#
#
# Convention : Reuss Voigt Hill
#
# Bulk Modulus (GPa) = 43.78297 48.20049 45.99173
# Shear Modulus (GPa) = 22.90502 24.79752 23.85127
#
# Velocity S-wave (km/s) = 3.27658 3.40925 3.34357
# Velocity P-wave (km/s) = 5.90224 6.17169 6.03846
#
# Compressibility (1/GPa) = 0.02283993
#
# Stress axis : x y z
#
# Youngs Moduli (GPa) = 61.05400 61.05398 100.20677
#
# Poissons Ratio (x) = 0.17564 0.35432
# Poissons Ratio (y) = 0.17564 0.35432
# Poissons Ratio (z) = 0.21588 0.21588
#
# Static dielectric constant tensor:
#      x y z
#    x 3.925690 0.000000 0.000000 
#    y 0.000000 3.925690 0.000000 
#    z 0.000000 0.000000 3.961880 
# 
# 
# High freq. dielectric constant tensor:
#      x y z
#    x 1.838220 0.000000 0.000000 
#    y 0.000000 1.838220 0.000000 
#    z 0.000000 0.000000 1.824160 
# 
# From -- ./inp_files/6240.got.cif
#   From: 2010.03.12/outbox.cif.g09.slc.cpg/sg125_4_cif.got.tgz:6240.got - 2010.04.06 16:47:52.
