data_PCOD8313914
_publ_section_title
;
Structure prediction by ZEFSAII (Michael W. Deem and Ramdas Pophale) SiO2 
 PCOD8313914
Probable space group: P 4/M B M
;
_chemical_formula_sum "Si O2"
_cell_formula_units_Z 120
_cell_length_a 20.773144
_cell_length_b 20.773144
_cell_length_c 15.624001
_cell_angle_alpha 90.000000
_cell_angle_beta 90.000000
_cell_angle_gamma 90.000000
_cell_volume 6742.123777
_symmetry_space_group_name_H-M "P 4/M B M"
_symmetry_group_IT_number 127
_symmetry_cell_setting 'tetragonal'
loop_
_space_group_symop_operation_xyz
x,y,z
-y,x,z
-x,-y,z
y,-x,z
1/2+x,1/2-y,-z
1/2-x,1/2+y,-z
1/2+y,1/2+x,-z
1/2-y,1/2-x,-z
-x,-y,-z
y,-x,-z
x,y,-z
-y,x,-z
1/2-x,1/2+y,z
1/2+x,1/2-y,z
1/2-y,1/2-x,z
1/2+y,1/2+x,z
loop_
_atom_site_type_symbol
_atom_site_label
_atom_site_fract_x
_atom_site_fract_y
_atom_site_fract_z
Si Si1 0.871765 0.148365 0.245662
Si Si2 0.602720 0.000324 0.316476
Si Si3 0.773205 0.485766 0.594796
Si Si4 0.657736 0.735447 0.401786
Si Si5 0.514049 0.308203 0.749378
Si Si6 0.501538 0.894432 0.000000
Si Si7 0.973331 0.312617 0.156068
Si Si8 0.744401 0.347992 0.097517
O O1 0.840249 0.177642 0.332587
O O2 0.854041 0.074072 0.234790
O O3 0.845277 0.184334 0.161650
O O4 0.948925 0.150367 0.248243
O O5 0.550297 0.949704 0.349322
O O6 0.654401 0.011633 0.391478
O O7 0.567895 0.067895 0.293693
O O8 0.639432 0.970584 0.235681
O O9 0.750504 0.503155 0.500000
O O10 0.773438 0.409017 0.611745
O O11 0.723778 0.521906 0.656425
O O12 0.662619 0.709191 0.500000
O O13 0.715733 0.784268 0.381960
O O14 0.512258 0.252238 0.821025
O O15 0.490180 0.849401 0.081156
O O16 0.572332 0.927669 0.000000
O O17 0.448560 0.948560 0.000000
O O18 0.901430 0.295173 0.128106
O O19 0.779258 0.279258 0.101065
O O20 0.721482 0.362835 0.000000
#
# Coordination Sequence:
#
# PCOD8313914 Si02
#       8
#    16  16  16  16  16   8  16  16
#     4  10  20  37  55  80 107 138 171 219 269 323
#     4  10  19  29  44  70 106 146 184 216 249 299
#     4   9  18  33  52  74 102 136 175 219 265 308
#     4   9  17  31  55  83 106 133 175 222 265 310
#     4   9  21  37  57  76 101 135 171 216 275 324
#     4  11  20  30  50  78 108 141 176 210 244 297
#     4  10  19  34  52  74 103 138 173 216 262 305
#     4  10  19  33  56  83 104 130 174 221 263 307
#
# _framework density 17.798546000000002
#
# number of rings (size 3 to 8) (size 9 to 14) (size 15 to 20)
#    0.000    2.333    0.667    3.200    0.000    2.933 
#    1.200    7.333    0.000    0.000    0.000    5.600 
#    0.000    0.000    0.000    0.000    0.000    0.000 
#
# Total GULP energy -1487839.782451 kJ/mol
# GULP energy per Si atom -12398.664854 kJ/mol
# Density = 1.775804 g / cm^3
# Si number density = 17.798546 Si / 1000 Ang^3
#
#
#
# Elastic Constant Matrix: (Units=GPa)
#
#
# Indices 1 2 3 4 5 6 
#
# 1 91.8115 57.3257 42.9431 0.0000 0.0000 0.0000
# 2 57.3257 91.8123 42.9433 0.0000 0.0000 0.0000
# 3 42.9431 42.9433 112.9665 0.0000 0.0000 0.0000
# 4 0.0000 0.0000 0.0000 15.3400 0.0000 0.0000
# 5 0.0000 0.0000 0.0000 0.0000 15.3383 0.0000
# 6 0.0000 0.0000 0.0000 0.0000 0.0000 26.1850
#
#
#
# Elastic Compliance Matrix: (Units=1/GPa)
#
#
# Indices 1 2 3 4 5 6 
#
# 1 0.018791 -0.010206 -0.003263 0.000000 0.000000 0.000000
# 2 -0.010206 0.018791 -0.003263 0.000000 0.000000 0.000000
# 3 -0.003263 -0.003263 0.011333 0.000000 0.000000 0.000000
# 4 0.000000 0.000000 0.000000 0.065189 0.000000 0.000000
# 5 0.000000 0.000000 0.000000 0.000000 0.065196 0.000000
# 6 0.000000 0.000000 0.000000 0.000000 0.000000 0.038190
#
#
# Mechanical properties :
#
#
# Convention : Reuss Voigt Hill
#
# Bulk Modulus (GPa) = 64.72926 64.77939 64.75432
# Shear Modulus (GPa) = 19.52321 21.59788 20.56055
#
# Velocity S-wave (km/s) = 3.31554 3.48726 3.40248
# Velocity P-wave (km/s) = 7.14869 7.25876 7.20393
#
# Compressibility (1/GPa) = 0.01544896
#
# Stress axis : x y z
#
# Youngs Moduli (GPa) = 53.21730 53.21774 88.23610
#
# Poissons Ratio (x) = 0.54316 0.28794
# Poissons Ratio (y) = 0.54315 0.28794
# Poissons Ratio (z) = 0.17367 0.17367
#
# Static dielectric constant tensor:
#      x y z
#    x 3.085830 0.000000 0.000000 
#    y 0.000000 3.085830 0.000000 
#    z 0.000000 0.000000 3.567040 
# 
# 
# High freq. dielectric constant tensor:
#      x y z
#    x 1.670180 0.000000 0.000000 
#    y 0.000000 1.670180 0.000000 
#    z 0.000000 0.000000 1.700340 
# 
# From -- ./inp_files/4636.got.cif
#   From: 2010.03.12/outbox.cif.g09.slc.cpg/sg127_3_cif.got.tgz:4636.got - 2010.04.06 17:03:15.
