data_PCOD8313432
_publ_section_title
;
Structure prediction by ZEFSAII (Michael W. Deem and Ramdas Pophale) SiO2 
 PCOD8313432
Probable space group: P 4/N B M
;
_chemical_formula_sum "Si O2"
_cell_formula_units_Z 112
_cell_length_a 14.664151
_cell_length_b 14.664151
_cell_length_c 28.163227
_cell_angle_alpha 90.000000
_cell_angle_beta 90.000000
_cell_angle_gamma 90.000000
_cell_volume 6056.144985
_symmetry_space_group_name_H-M "P 4/N B M"
_symmetry_group_IT_number 125
_space_group.IT_coordinate_system_code '2'
_symmetry_cell_setting 'tetragonal'
loop_
_space_group_symop_operation_xyz
x,y,z
1/2-y,x,z
1/2-x,1/2-y,z
y,1/2-x,z
x,1/2-y,-z
1/2-x,y,-z
y,x,-z
1/2-y,1/2-x,-z
-x,-y,-z
1/2+y,-x,-z
1/2+x,1/2+y,-z
-y,1/2+x,-z
-x,1/2+y,z
1/2+x,-y,z
-y,-x,z
1/2+y,1/2+x,z
loop_
_atom_site_type_symbol
_atom_site_label
_atom_site_fract_x
_atom_site_fract_y
_atom_site_fract_z
Si Si1 0.426480 0.723968 0.620875
Si Si2 0.831579 0.473319 0.464578
Si Si3 0.109411 0.303213 0.110775
Si Si4 0.297087 0.108875 0.781960
Si Si5 0.428061 0.080421 0.607725
Si Si6 0.505429 0.852421 0.978430
Si Si7 0.650962 0.004684 0.305888
O O1 0.343030 0.656971 0.622106
O O2 0.411855 0.797381 0.579625
O O3 0.522268 0.676461 0.607334
O O4 0.430219 0.770400 0.672625
O O5 0.750000 0.497444 0.500000
O O6 0.910586 0.410586 0.489753
O O7 0.873365 0.566789 0.442162
O O8 0.134740 0.198075 0.101247
O O9 0.073118 0.312825 0.164571
O O10 0.027973 0.336954 0.077001
O O11 0.363348 0.193359 0.773339
O O12 0.318544 0.030507 0.744941
O O13 0.497976 0.997976 0.612041
O O14 0.363958 0.075030 0.654597
O O15 0.411788 0.911788 0.984025
O O16 0.494057 0.750000 0.000000
O O17 0.591304 0.908697 0.000000
O O18 0.558566 0.058566 0.296329
#
# Coordination Sequence:
#
# PCOD8313432 Si02
#       7
#    16  16  16  16  16  16  16
#     4  10  19  32  51  70  92 125 166 208 246 301
#     4  10  20  32  47  69  96 123 152 195 251 306
#     4   9  17  32  55  81 109 142 186 243 291 326
#     4   9  18  32  52  78 106 138 179 224 271 318
#     4   8  17  32  47  67  92 122 162 201 241 291
#     4  11  22  35  57  87 117 155 200 243 295 353
#     4  10  19  31  49  73 102 132 165 208 262 317
#
# _framework density 18.493611999999999
#
# number of rings (size 3 to 8) (size 9 to 14) (size 15 to 20)
#    0.000    2.429    1.429    3.429    0.000    3.286 
#    0.000    2.143    0.000    5.571    0.000    6.000 
#    0.000    0.000    0.000    0.000    0.000    0.000 
#
# Total GULP energy -1387941.598034 kJ/mol
# GULP energy per Si atom -12392.335697 kJ/mol
# Density = 1.845152 g / cm^3
# Si number density = 18.493612 Si / 1000 Ang^3
#
#
#
# Elastic Constant Matrix: (Units=GPa)
#
#
# Indices 1 2 3 4 5 6 
#
# 1 66.0468 27.1198 29.8584 0.0000 0.0000 0.0000
# 2 27.1198 66.0471 29.8586 0.0000 0.0000 0.0000
# 3 29.8584 29.8586 107.4070 0.0000 0.0000 0.0000
# 4 0.0000 0.0000 0.0000 24.2437 0.0000 0.0000
# 5 0.0000 0.0000 0.0000 0.0000 24.2437 0.0000
# 6 0.0000 0.0000 0.0000 0.0000 0.0000 27.7850
#
#
#
# Elastic Compliance Matrix: (Units=1/GPa)
#
#
# Indices 1 2 3 4 5 6 
#
# 1 0.019375 -0.006314 -0.003631 0.000000 0.000000 0.000000
# 2 -0.006314 0.019375 -0.003631 0.000000 0.000000 0.000000
# 3 -0.003631 -0.003631 0.011329 0.000000 0.000000 0.000000
# 4 0.000000 0.000000 0.000000 0.041248 0.000000 0.000000
# 5 0.000000 0.000000 0.000000 0.000000 0.041248 0.000000
# 6 0.000000 0.000000 0.000000 0.000000 0.000000 0.035991
#
#
# Mechanical properties :
#
#
# Convention : Reuss Voigt Hill
#
# Bulk Modulus (GPa) = 43.61624 45.90828 44.76226
# Shear Modulus (GPa) = 24.58707 25.43209 25.00958
#
# Velocity S-wave (km/s) = 3.65017 3.71237 3.68140
# Velocity P-wave (km/s) = 6.43434 6.57673 6.50592
#
# Compressibility (1/GPa) = 0.02292724
#
# Stress axis : x y z
#
# Youngs Moduli (GPa) = 51.61324 51.61347 88.26860
#
# Poissons Ratio (x) = 0.32590 0.32048
# Poissons Ratio (y) = 0.32589 0.32049
# Poissons Ratio (z) = 0.18740 0.18740
#
# Static dielectric constant tensor:
#      x y z
#    x 3.344670 0.000000 0.000000 
#    y 0.000000 3.344670 0.000000 
#    z 0.000000 0.000000 3.387910 
# 
# 
# High freq. dielectric constant tensor:
#      x y z
#    x 1.704650 0.000000 0.000000 
#    y 0.000000 1.704650 0.000000 
#    z 0.000000 0.000000 1.716460 
# 
# From -- ./inp_files/6423.got.cif
#   From: 2010.03.12/outbox.cif.g09.slc.cpg/sg125_4_cif.got.tgz:6423.got - 2010.04.06 16:47:52.
