data_PCOD8313324
_publ_section_title
;
Structure prediction by ZEFSAII (Michael W. Deem and Ramdas Pophale) SiO2 
 PCOD8313324
Probable space group: P 4/M C C
;
_chemical_formula_sum "Si O2"
_cell_formula_units_Z 112
_cell_length_a 14.876006
_cell_length_b 14.876006
_cell_length_c 24.871135
_cell_angle_alpha 90.000000
_cell_angle_beta 90.000000
_cell_angle_gamma 90.000000
_cell_volume 5503.871611
_symmetry_space_group_name_H-M "P 4/M C C"
_symmetry_group_IT_number 124
_symmetry_cell_setting 'tetragonal'
loop_
_space_group_symop_operation_xyz
x,y,z
-y,x,z
-x,-y,z
y,-x,z
x,-y,1/2-z
-x,y,1/2-z
y,x,1/2-z
-y,-x,1/2-z
-x,-y,-z
y,-x,-z
x,y,-z
-y,x,-z
-x,y,1/2+z
x,-y,1/2+z
-y,-x,1/2+z
y,x,1/2+z
loop_
_atom_site_type_symbol
_atom_site_label
_atom_site_fract_x
_atom_site_fract_y
_atom_site_fract_z
Si Si1 0.899516 0.686749 0.753128
Si Si2 0.234156 0.112515 0.861013
Si Si3 0.614395 0.577262 0.437841
Si Si4 0.088576 0.745542 0.627811
Si Si5 0.269134 0.591210 0.771820
Si Si6 0.788862 0.594260 0.390244
Si Si7 0.442982 0.910322 0.063846
O O1 0.879832 0.757242 0.704181
O O2 0.886105 0.732680 0.810194
O O3 0.832635 0.602603 0.749640
O O4 0.000000 0.647205 0.750000
O O5 0.160840 0.178139 0.888713
O O6 0.331112 0.134054 0.887076
O O7 0.211561 0.010539 0.877814
O O8 0.524820 0.623836 0.413332
O O9 0.596251 0.574848 0.500000
O O10 0.707617 0.629567 0.427834
O O11 0.093430 0.653999 0.593100
O O12 0.312435 0.500000 0.750000
O O13 0.324940 0.675061 0.750000
O O14 0.265497 0.582668 0.835249
O O15 0.828453 0.501251 0.412752
O O16 0.500000 0.000000 0.076662
O O17 0.427756 0.899060 0.000000
#
# Coordination Sequence:
#
# PCOD8313324 Si02
#       7
#    16  16  16  16  16  16  16
#     4   9  19  37  63  91 125 164 210 264 319 391
#     4  10  22  37  62  96 124 172 213 259 327 392
#     4   9  20  37  57  85 116 150 199 258 315 372
#     4  11  21  41  64  91 133 168 210 270 327 389
#     4  11  24  38  54  85 124 166 210 254 308 385
#     4  11  22  38  62  87 120 162 212 259 324 379
#     4  11  24  43  65  93 127 165 217 278 329 378
#
# _framework density 20.349312000000001
#
# number of rings (size 3 to 8) (size 9 to 14) (size 15 to 20)
#    0.000    1.714    1.429    3.857    4.000    0.714 
#    0.000    1.429    0.000    2.571    0.000    1.000 
#    0.000    0.000    0.000    0.000    0.000    0.000 
#
# Total GULP energy -1387774.221467 kJ/mol
# GULP energy per Si atom -12390.841263 kJ/mol
# Density = 2.030300 g / cm^3
# Si number density = 20.349312 Si / 1000 Ang^3
#
#
#
# Elastic Constant Matrix: (Units=GPa)
#
#
# Indices 1 2 3 4 5 6 
#
# 1 99.4512 49.5103 47.7218 0.0000 0.0000 0.0000
# 2 49.5103 99.4462 47.7231 0.0000 0.0000 0.0000
# 3 47.7218 47.7231 67.5580 0.0000 0.0000 0.0000
# 4 0.0000 0.0000 0.0000 24.3469 0.0000 0.0000
# 5 0.0000 0.0000 0.0000 0.0000 24.3504 0.0000
# 6 0.0000 0.0000 0.0000 0.0000 0.0000 44.8799
#
#
#
# Elastic Compliance Matrix: (Units=1/GPa)
#
#
# Indices 1 2 3 4 5 6 
#
# 1 0.016144 -0.003880 -0.008663 0.000000 0.000000 0.000000
# 2 -0.003880 0.016145 -0.008664 0.000000 0.000000 0.000000
# 3 -0.008663 -0.008664 0.027042 0.000000 0.000000 0.000000
# 4 0.000000 0.000000 0.000000 0.041073 0.000000 0.000000
# 5 0.000000 0.000000 0.000000 0.000000 0.041067 0.000000
# 6 0.000000 0.000000 0.000000 0.000000 0.000000 0.022282
#
#
# Mechanical properties :
#
#
# Convention : Reuss Voigt Hill
#
# Bulk Modulus (GPa) = 59.11353 61.81841 60.46597
# Shear Modulus (GPa) = 23.60659 26.81546 25.21102
#
# Velocity S-wave (km/s) = 3.40967 3.63403 3.52364
# Velocity P-wave (km/s) = 6.67934 6.93201 6.80685
#
# Compressibility (1/GPa) = 0.01691660
#
# Stress axis : x y z
#
# Youngs Moduli (GPa) = 61.94385 61.93747 36.97999
#
# Poissons Ratio (x) = 0.24033 0.32034
# Poissons Ratio (y) = 0.24035 0.32040
# Poissons Ratio (z) = 0.53660 0.53664
#
# Static dielectric constant tensor:
#      x y z
#    x 3.692130 0.000000 0.000000 
#    y 0.000000 3.692120 0.000000 
#    z 0.000000 0.000000 3.667450 
# 
# 
# High freq. dielectric constant tensor:
#      x y z
#    x 1.794330 0.000000 0.000000 
#    y 0.000000 1.794330 0.000000 
#    z 0.000000 0.000000 1.783930 
# 
# From -- ./inp_files/6615.got.cif
#   From: 2010.03.12/outbox.cif.g09.slc.cpg/sg124_4_cif.got.tgz:6615.got - 2010.04.06 16:38:57.
