data_PCOD8313363
_publ_section_title
;
Structure prediction by ZEFSAII (Michael W. Deem and Ramdas Pophale) SiO2 
 PCOD8313363
Probable space group: P 4/M C C
;
_chemical_formula_sum "Si O2"
_cell_formula_units_Z 48
_cell_length_a 10.214746
_cell_length_b 10.214746
_cell_length_c 23.205771
_cell_angle_alpha 90.000000
_cell_angle_beta 90.000000
_cell_angle_gamma 90.000000
_cell_volume 2421.314184
_symmetry_space_group_name_H-M "P 4/M C C"
_symmetry_group_IT_number 124
_symmetry_cell_setting 'tetragonal'
loop_
_space_group_symop_operation_xyz
x,y,z
-y,x,z
-x,-y,z
y,-x,z
x,-y,1/2-z
-x,y,1/2-z
y,x,1/2-z
-y,-x,1/2-z
-x,-y,-z
y,-x,-z
x,y,-z
-y,x,-z
-x,y,1/2+z
x,-y,1/2+z
-y,-x,1/2+z
y,x,1/2+z
loop_
_atom_site_type_symbol
_atom_site_label
_atom_site_fract_x
_atom_site_fract_y
_atom_site_fract_z
Si Si1 0.811889 0.102860 0.433865
Si Si2 0.284188 0.500000 0.750000
Si Si3 0.784118 0.000000 0.250000
Si Si4 0.903303 0.396761 0.154806
O O1 0.772648 0.125335 0.500000
O O2 0.695891 0.162249 0.394028
O O3 0.948301 0.174185 0.420185
O O4 0.369848 0.369848 0.750000
O O5 0.198999 0.518597 0.807677
O O6 0.693394 0.995423 0.194463
O O7 0.869668 0.869668 0.250000
O O8 0.000000 0.500000 0.123760
#
# Coordination Sequence:
#
# PCOD8313363 Si02
#       4
#    16   8   8  16
#     4   9  20  39  63  92 123 153 189 244 312 370
#     4  11  25  42  56  76 117 167 208 248 286 335
#     4  11  21  34  56  88 119 147 186 248 316 369
#     4  12  22  35  58  87 117 157 196 242 294 359
#
# _framework density 19.823944999999998
#
# number of rings (size 3 to 8) (size 9 to 14) (size 15 to 20)
#    0.000    1.333    3.333    4.000    4.667    3.333 
#    0.000    0.000    0.000    0.000    0.000    2.333 
#    0.000    0.000    0.000    0.000    0.000    0.000 
#
# Total GULP energy -594912.997358 kJ/mol
# GULP energy per Si atom -12394.020778 kJ/mol
# Density = 1.977883 g / cm^3
# Si number density = 19.823945 Si / 1000 Ang^3
#
#
#
# Elastic Constant Matrix: (Units=GPa)
#
#
# Indices 1 2 3 4 5 6 
#
# 1 76.2606 36.1818 31.8577 0.0000 0.0000 0.0000
# 2 36.1818 76.2606 31.8577 0.0000 0.0000 0.0000
# 3 31.8577 31.8577 101.4876 0.0000 0.0000 0.0000
# 4 0.0000 0.0000 0.0000 -3.8532 0.0000 0.0000
# 5 0.0000 0.0000 0.0000 0.0000 -3.8532 0.0000
# 6 0.0000 0.0000 0.0000 0.0000 0.0000 33.2051
#
#
#
# Elastic Compliance Matrix: (Units=1/GPa)
#
#
# Indices 1 2 3 4 5 6 
#
# 1 0.017884 -0.007067 -0.003396 0.000000 0.000000 0.000000
# 2 -0.007067 0.017884 -0.003396 0.000000 0.000000 0.000000
# 3 -0.003396 -0.003396 0.011985 0.000000 0.000000 0.000000
# 4 0.000000 0.000000 0.000000 -0.259522 0.000000 0.000000
# 5 0.000000 0.000000 0.000000 0.000000 -0.259522 0.000000
# 6 0.000000 0.000000 0.000000 0.000000 0.000000 0.030116
#
#
# Mechanical properties :
#
#
# Convention : Reuss Voigt Hill
#
# Bulk Modulus (GPa) = 49.90606 50.42256 50.16431
# Shear Modulus (GPa) = -12.29167 15.37383 1.54108
#
# Velocity S-wave (km/s) = -2.49277 2.78783 0.88265
# Velocity P-wave (km/s) = 4.11632 5.98775 5.13796
#
# Compressibility (1/GPa) = 0.02003765
#
# Stress axis : x y z
#
# Youngs Moduli (GPa) = 55.91514 55.91514 83.43545
#
# Poissons Ratio (x) = 0.39513 0.28332
# Poissons Ratio (y) = 0.39513 0.28332
# Poissons Ratio (z) = 0.18987 0.18987
#
# Static dielectric constant tensor:
#      x y z
#    x 3.803960 0.000000 0.000000 
#    y 0.000000 3.803960 0.000000 
#    z 0.000000 0.000000 3.469630 
# 
# 
# High freq. dielectric constant tensor:
#      x y z
#    x 1.768540 0.000000 0.000000 
#    y 0.000000 1.768540 0.000000 
#    z 0.000000 0.000000 1.760390 
# 
# From -- ./inp_files/5785.got.cif
#   From: 2010.03.12/outbox.cif.g09.slc.cpg/sg124_3_cif.got.tgz:5785.got - 2010.04.06 16:38:57.
