data_PCOD8313802
_publ_section_title
;
Structure prediction by ZEFSAII (Michael W. Deem and Ramdas Pophale) SiO2 
 PCOD8313802
Probable space group: P 4/N N C
;
_chemical_formula_sum "Si O2"
_cell_formula_units_Z 88
_cell_length_a 11.008237
_cell_length_b 11.008237
_cell_length_c 31.943106
_cell_angle_alpha 90.000000
_cell_angle_beta 90.000000
_cell_angle_gamma 90.000000
_cell_volume 3870.906531
_symmetry_space_group_name_H-M "P 4/N N C"
_symmetry_group_IT_number 126
_space_group.IT_coordinate_system_code '2'
_symmetry_cell_setting 'tetragonal'
loop_
_space_group_symop_operation_xyz
x,y,z
1/2-y,x,z
1/2-x,1/2-y,z
y,1/2-x,z
x,1/2-y,1/2-z
1/2-x,y,1/2-z
y,x,1/2-z
1/2-y,1/2-x,1/2-z
-x,-y,-z
1/2+y,-x,-z
1/2+x,1/2+y,-z
-y,1/2+x,-z
-x,1/2+y,1/2+z
1/2+x,-y,1/2+z
-y,-x,1/2+z
1/2+y,1/2+x,1/2+z
loop_
_atom_site_type_symbol
_atom_site_label
_atom_site_fract_x
_atom_site_fract_y
_atom_site_fract_z
Si Si1 0.922830 0.312206 0.508993
Si Si2 0.345311 0.421544 0.438129
Si Si3 0.451432 0.250000 0.750000
Si Si4 0.567159 0.834572 0.655691
Si Si5 0.115386 0.802110 0.327094
Si Si6 0.252550 0.450802 0.595700
O O1 0.886070 0.197192 0.479339
O O2 0.997232 0.396406 0.476075
O O3 0.994132 0.265807 0.549489
O O4 0.203213 0.411333 0.444336
O O5 0.364836 0.473666 0.391793
O O6 0.369842 0.369842 0.750000
O O7 0.534657 0.244696 0.709194
O O8 0.591567 0.691333 0.665126
O O9 0.448921 0.879523 0.680862
O O10 0.250000 0.750000 0.324610
O O11 0.058522 0.755633 0.370716
O O12 0.131615 0.371387 0.602020
#
# Coordination Sequence:
#
# PCOD8313802 Si02
#       6
#    16  16   8  16  16  16
#     4  11  24  36  55  89 133 179 239 297 358 416
#     4   9  18  35  57  82 120 172 226 276 332 400
#     4  11  27  54  82 110 145 185 228 286 358 431
#     4   9  21  40  68 105 142 185 232 286 353 417
#     4  12  27  44  77 109 140 185 234 292 352 433
#     4  11  26  45  67 100 140 189 244 303 367 429
#
# _framework density 22.733692999999999
#
# number of rings (size 3 to 8) (size 9 to 14) (size 15 to 20)
#    0.000    1.545    0.000    4.636   10.182    7.273 
#    0.000    0.000    0.000    0.000    0.000    0.000 
#    0.000    0.000    0.000    0.000    0.000    0.000 
#
# Total GULP energy -1090532.766976 kJ/mol
# GULP energy per Si atom -12392.417807 kJ/mol
# Density = 2.268195 g / cm^3
# Si number density = 22.733693 Si / 1000 Ang^3
#
#
#
# Elastic Constant Matrix: (Units=GPa)
#
#
# Indices 1 2 3 4 5 6 
#
# 1 107.8208 30.3853 48.0631 0.0000 0.0000 0.0000
# 2 30.3853 107.8208 48.0631 0.0000 0.0000 0.0000
# 3 48.0631 48.0631 73.4664 0.0000 0.0000 0.0000
# 4 0.0000 0.0000 0.0000 37.2507 0.0000 0.0000
# 5 0.0000 0.0000 0.0000 0.0000 37.2507 0.0000
# 6 0.0000 0.0000 0.0000 0.0000 0.0000 9.9080
#
#
#
# Elastic Compliance Matrix: (Units=1/GPa)
#
#
# Indices 1 2 3 4 5 6 
#
# 1 0.013095 0.000181 -0.008686 0.000000 0.000000 0.000000
# 2 0.000181 0.013095 -0.008686 0.000000 0.000000 0.000000
# 3 -0.008686 -0.008686 0.024977 0.000000 0.000000 0.000000
# 4 0.000000 0.000000 0.000000 0.026845 0.000000 0.000000
# 5 0.000000 0.000000 0.000000 0.000000 0.026845 0.000000
# 6 0.000000 0.000000 0.000000 0.000000 0.000000 0.100928
#
#
# Mechanical properties :
#
#
# Convention : Reuss Voigt Hill
#
# Bulk Modulus (GPa) = 59.57141 60.23676 59.90409
# Shear Modulus (GPa) = 20.34483 27.72165 24.03324
#
# Velocity S-wave (km/s) = 2.99477 3.49579 3.25493
# Velocity P-wave (km/s) = 6.18216 6.54586 6.36661
#
# Compressibility (1/GPa) = 0.01678658
#
# Stress axis : x y z
#
# Youngs Moduli (GPa) = 76.36242 76.36242 40.03723
#
# Poissons Ratio (x) = -0.01386 0.34776
# Poissons Ratio (y) = -0.01386 0.34776
# Poissons Ratio (z) = 0.66328 0.66328
#
# Static dielectric constant tensor:
#      x y z
#    x 4.229040 0.000000 0.000000 
#    y 0.000000 4.229040 0.000000 
#    z 0.000000 0.000000 3.901080 
# 
# 
# High freq. dielectric constant tensor:
#      x y z
#    x 1.912580 0.000000 0.000000 
#    y 0.000000 1.912580 0.000000 
#    z 0.000000 0.000000 1.875670 
# 
# From -- ./inp_files/6531.got.cif
#   From: 2010.03.12/outbox.cif.g09.slc.cpg/sg126_4_cif.got.tgz:6531.got - 2010.04.06 16:55:23.
