data_PCOD8313590
_publ_section_title
;
Structure prediction by ZEFSAII (Michael W. Deem and Ramdas Pophale) SiO2 
 PCOD8313590
Probable space group: P 4/N B M
;
_chemical_formula_sum "Si O2"
_cell_formula_units_Z 112
_cell_length_a 13.832061
_cell_length_b 13.832061
_cell_length_c 33.321091
_cell_angle_alpha 90.000000
_cell_angle_beta 90.000000
_cell_angle_gamma 90.000000
_cell_volume 6375.188108
_symmetry_space_group_name_H-M "P 4/N B M"
_symmetry_group_IT_number 125
_space_group.IT_coordinate_system_code '2'
_symmetry_cell_setting 'tetragonal'
loop_
_space_group_symop_operation_xyz
x,y,z
1/2-y,x,z
1/2-x,1/2-y,z
y,1/2-x,z
x,1/2-y,-z
1/2-x,y,-z
y,x,-z
1/2-y,1/2-x,-z
-x,-y,-z
1/2+y,-x,-z
1/2+x,1/2+y,-z
-y,1/2+x,-z
-x,1/2+y,z
1/2+x,-y,z
-y,-x,z
1/2+y,1/2+x,z
loop_
_atom_site_type_symbol
_atom_site_label
_atom_site_fract_x
_atom_site_fract_y
_atom_site_fract_z
Si Si1 0.490717 0.148872 0.980052
Si Si2 0.809339 0.897766 0.189714
Si Si3 0.346450 0.495503 0.730716
Si Si4 0.309329 0.397599 0.899976
Si Si5 0.853823 0.984969 0.689288
Si Si6 0.399958 0.306809 0.604686
Si Si7 0.650121 0.989483 0.478875
O O1 0.477313 0.159041 0.932193
O O2 0.580267 0.080267 0.989190
O O3 0.515770 0.250000 0.000000
O O4 0.393241 0.106760 0.000000
O O5 0.697394 0.873245 0.196277
O O6 0.826130 0.939050 0.144851
O O7 0.841528 0.978317 0.221500
O O8 0.411038 0.588963 0.721872
O O9 0.241213 0.515632 0.713265
O O10 0.390099 0.400628 0.709349
O O11 0.197417 0.373342 0.906378
O O12 0.828333 0.962704 0.643644
O O13 0.925599 0.074402 0.691771
O O14 0.305484 0.373214 0.603682
O O15 0.467821 0.332660 0.567585
O O16 0.750000 0.016393 0.500000
O O17 0.604957 0.895044 0.500000
O O18 0.580851 0.080851 0.483767
#
# Coordination Sequence:
#
# PCOD8313590 Si02
#       7
#    16  16  16  16  16  16  16
#     4  11  22  35  55  81 108 146 189 230 280 338
#     4   9  17  31  55  84 112 142 184 236 286 331
#     4  11  22  36  59  84 111 155 196 228 283 342
#     4   9  17  31  54  83 110 141 182 234 287 331
#     4  11  23  39  58  85 119 150 189 240 285 337
#     4  11  21  36  63  91 116 150 191 241 293 336
#     4  11  23  40  62  87 120 157 194 238 286 339
#
# _framework density 17.568109
#
# number of rings (size 3 to 8) (size 9 to 14) (size 15 to 20)
#    0.000    1.571    5.714    1.286    0.000    1.714 
#    0.000    0.714    0.000    2.571    0.000    2.000 
#    0.000    0.000    0.000    0.000    0.000    0.000 
#
# Total GULP energy -1389177.685948 kJ/mol
# GULP energy per Si atom -12403.372196 kJ/mol
# Density = 1.752812 g / cm^3
# Si number density = 17.568109 Si / 1000 Ang^3
#
#
#
# Elastic Constant Matrix: (Units=GPa)
#
#
# Indices 1 2 3 4 5 6 
#
# 1 81.8828 33.5453 37.8259 0.0000 0.0000 0.0000
# 2 33.5453 81.8827 37.8259 0.0000 0.0000 0.0000
# 3 37.8259 37.8259 138.6214 0.0000 0.0000 0.0000
# 4 0.0000 0.0000 0.0000 19.4859 0.0000 0.0000
# 5 0.0000 0.0000 0.0000 0.0000 19.4881 0.0000
# 6 0.0000 0.0000 0.0000 0.0000 0.0000 13.4725
#
#
#
# Elastic Compliance Matrix: (Units=1/GPa)
#
#
# Indices 1 2 3 4 5 6 
#
# 1 0.015619 -0.005069 -0.002879 0.000000 0.000000 0.000000
# 2 -0.005069 0.015619 -0.002879 0.000000 0.000000 0.000000
# 3 -0.002879 -0.002879 0.008785 0.000000 0.000000 0.000000
# 4 0.000000 0.000000 0.000000 0.051319 0.000000 0.000000
# 5 0.000000 0.000000 0.000000 0.000000 0.051313 0.000000
# 6 0.000000 0.000000 0.000000 0.000000 0.000000 0.074225
#
#
# Mechanical properties :
#
#
# Convention : Reuss Voigt Hill
#
# Bulk Modulus (GPa) = 54.43654 57.86455 56.15054
# Shear Modulus (GPa) = 20.43678 23.36865 21.90272
#
# Velocity S-wave (km/s) = 3.41440 3.65111 3.53474
# Velocity P-wave (km/s) = 6.82623 7.12621 6.97784
#
# Compressibility (1/GPa) = 0.01837002
#
# Stress axis : x y z
#
# Youngs Moduli (GPa) = 64.02444 64.02433 113.83024
#
# Poissons Ratio (x) = 0.32453 0.32770
# Poissons Ratio (y) = 0.32453 0.32770
# Poissons Ratio (z) = 0.18432 0.18432
#
# Static dielectric constant tensor:
#      x y z
#    x 3.073210 0.000000 0.000000 
#    y 0.000000 3.073210 0.000000 
#    z 0.000000 0.000000 3.439340 
# 
# 
# High freq. dielectric constant tensor:
#      x y z
#    x 1.665730 0.000000 0.000000 
#    y 0.000000 1.665730 0.000000 
#    z 0.000000 0.000000 1.699360 
# 
# From -- ./inp_files/6661.got.cif
#   From: 2010.03.12/outbox.cif.g09.slc.cpg/sg125_4_cif.got.tgz:6661.got - 2010.04.06 16:47:52.
