data_PCOD8313743
_publ_section_title
;
Structure prediction by ZEFSAII (Michael W. Deem and Ramdas Pophale) SiO2 
 PCOD8313743
Probable space group: P 4/N N C
;
_chemical_formula_sum "Si O2"
_cell_formula_units_Z 48
_cell_length_a 12.424233
_cell_length_b 12.424233
_cell_length_c 13.653766
_cell_angle_alpha 90.000000
_cell_angle_beta 90.000000
_cell_angle_gamma 90.000000
_cell_volume 2107.616697
_symmetry_space_group_name_H-M "P 4/N N C"
_symmetry_group_IT_number 126
_space_group.IT_coordinate_system_code '2'
_symmetry_cell_setting 'tetragonal'
loop_
_space_group_symop_operation_xyz
x,y,z
1/2-y,x,z
1/2-x,1/2-y,z
y,1/2-x,z
x,1/2-y,1/2-z
1/2-x,y,1/2-z
y,x,1/2-z
1/2-y,1/2-x,1/2-z
-x,-y,-z
1/2+y,-x,-z
1/2+x,1/2+y,-z
-y,1/2+x,-z
-x,1/2+y,1/2+z
1/2+x,-y,1/2+z
-y,-x,1/2+z
1/2+y,1/2+x,1/2+z
loop_
_atom_site_type_symbol
_atom_site_label
_atom_site_fract_x
_atom_site_fract_y
_atom_site_fract_z
Si Si1 0.491982 0.642274 0.311322
Si Si2 0.498913 0.293275 0.146108
Si Si3 0.047806 0.116098 0.482242
O O1 0.480069 0.750000 0.250000
O O2 0.548926 0.548926 0.250000
O O3 0.373358 0.599566 0.340248
O O4 0.562037 0.668033 0.409335
O O5 0.456153 0.250000 0.250000
O O6 0.534614 0.189744 0.081218
O O7 0.399677 0.344364 0.082992
O O8 0.000000 0.000000 0.500000
#
# Coordination Sequence:
#
# PCOD8313743 Si02
#       3
#    16  16  16
#     4  11  24  45  70 100 139 185 236 296 364 442
#     4  11  22  41  67  98 134 179 235 294 352 422
#     4  10  22  41  66  97 138 182 230 291 353 421
#
# _framework density 22.774539999999998
#
# number of rings (size 3 to 8) (size 9 to 14) (size 15 to 20)
#    0.000    1.333    0.000    7.000    0.000    4.333 
#    0.000   15.000    0.000    0.000    0.000    0.000 
#    0.000    0.000    0.000    0.000    0.000    0.000 
#
# Total GULP energy -594779.480990 kJ/mol
# GULP energy per Si atom -12391.239187 kJ/mol
# Density = 2.272270 g / cm^3
# Si number density = 22.774540 Si / 1000 Ang^3
#
#
#
# Elastic Constant Matrix: (Units=GPa)
#
#
# Indices 1 2 3 4 5 6 
#
# 1 131.1305 55.2737 74.9198 0.0000 0.0000 0.0000
# 2 55.2737 131.1305 74.9198 0.0000 0.0000 0.0000
# 3 74.9198 74.9198 235.6243 0.0000 0.0000 0.0000
# 4 0.0000 0.0000 0.0000 55.6828 0.0000 0.0000
# 5 0.0000 0.0000 0.0000 0.0000 55.6828 0.0000
# 6 0.0000 0.0000 0.0000 0.0000 0.0000 16.7262
#
#
#
# Elastic Compliance Matrix: (Units=1/GPa)
#
#
# Indices 1 2 3 4 5 6 
#
# 1 0.010195 -0.002988 -0.002291 0.000000 0.000000 0.000000
# 2 -0.002988 0.010195 -0.002291 0.000000 0.000000 0.000000
# 3 -0.002291 -0.002291 0.005701 0.000000 0.000000 0.000000
# 4 0.000000 0.000000 0.000000 0.017959 0.000000 0.000000
# 5 0.000000 0.000000 0.000000 0.000000 0.017959 0.000000
# 6 0.000000 0.000000 0.000000 0.000000 0.000000 0.059787
#
#
# Mechanical properties :
#
#
# Convention : Reuss Voigt Hill
#
# Bulk Modulus (GPa) = 91.33468 100.90134 96.11801
# Shear Modulus (GPa) = 35.56532 45.13648 40.35090
#
# Velocity S-wave (km/s) = 3.95603 4.45666 4.21379
# Velocity P-wave (km/s) = 7.81395 8.41921 8.12222
#
# Compressibility (1/GPa) = 0.01094874
#
# Stress axis : x y z
#
# Youngs Moduli (GPa) = 98.09023 98.09023 175.40054
#
# Poissons Ratio (x) = 0.29310 0.40192
# Poissons Ratio (y) = 0.29310 0.40192
# Poissons Ratio (z) = 0.22477 0.22477
#
# Static dielectric constant tensor:
#      x y z
#    x 4.095370 0.000000 0.000000 
#    y 0.000000 4.095370 0.000000 
#    z 0.000000 0.000000 5.747270 
# 
# 
# High freq. dielectric constant tensor:
#      x y z
#    x 1.878440 0.000000 0.000000 
#    y 0.000000 1.878440 0.000000 
#    z 0.000000 0.000000 1.941640 
# 
# From -- ./inp_files/2301.got.cif
#   From: 2010.03.12/outbox.cif.g09.slc.cpg/sg126_2_cif.got.tgz:2301.got - 2010.04.06 16:55:23.
