data_PCOD8313241
_publ_section_title
;
Structure prediction by ZEFSAII (Michael W. Deem and Ramdas Pophale) SiO2 
 PCOD8313241
Probable space group: P 4/M C C
;
_chemical_formula_sum "Si O2"
_cell_formula_units_Z 64
_cell_length_a 17.347256
_cell_length_b 17.347256
_cell_length_c 10.832930
_cell_angle_alpha 90.000000
_cell_angle_beta 90.000000
_cell_angle_gamma 90.000000
_cell_volume 3259.924276
_symmetry_space_group_name_H-M "P 4/M C C"
_symmetry_group_IT_number 124
_symmetry_cell_setting 'tetragonal'
loop_
_space_group_symop_operation_xyz
x,y,z
-y,x,z
-x,-y,z
y,-x,z
x,-y,1/2-z
-x,y,1/2-z
y,x,1/2-z
-y,-x,1/2-z
-x,-y,-z
y,-x,-z
x,y,-z
-y,x,-z
-x,y,1/2+z
x,-y,1/2+z
-y,-x,1/2+z
y,x,1/2+z
loop_
_atom_site_type_symbol
_atom_site_label
_atom_site_fract_x
_atom_site_fract_y
_atom_site_fract_z
Si Si1 0.579724 0.400005 0.500000
Si Si2 0.427680 0.280686 0.810839
Si Si3 0.661771 0.906022 0.500000
Si Si4 0.337668 0.914284 0.500000
Si Si5 0.839023 0.490671 0.000000
Si Si6 0.296044 0.173064 0.748444
O O1 0.608161 0.486638 0.500000
O O2 0.613335 0.350784 0.614696
O O3 0.500000 0.324340 0.750000
O O4 0.474680 0.214616 0.883559
O O5 0.362170 0.238368 0.732521
O O6 0.573283 0.879484 0.500000
O O7 0.701855 0.878062 0.625649
O O8 0.679008 0.996171 0.500000
O O9 0.429867 0.908584 0.500000
O O10 0.304219 0.874165 0.623813
O O11 0.212909 0.212909 0.750000
#
# Coordination Sequence:
#
# PCOD8313241 Si02
#       6
#     8  16   8   8   8  16
#     4  10  24  37  49  70 102 152 218 284 328 346
#     4  10  20  35  54  76 109 148 208 250 304 356
#     4  12  21  38  64  87 125 160 195 246 304 359
#     4  10  23  40  58  93 125 156 199 246 296 367
#     4   9  19  35  53  83 115 150 194 240 298 364
#     4  11  24  39  61  89 121 162 202 245 297 362
#
# _framework density 19.632358
#
# number of rings (size 3 to 8) (size 9 to 14) (size 15 to 20)
#    0.000    1.625    2.500    2.625    3.500    0.000 
#    0.000    3.750    0.000    0.000    0.000    0.000 
#    0.000   35.000    0.000    0.000    0.000    0.000 
#
# Total GULP energy -792835.173929 kJ/mol
# GULP energy per Si atom -12388.049593 kJ/mol
# Density = 1.958767 g / cm^3
# Si number density = 19.632358 Si / 1000 Ang^3
#
#
#
# Elastic Constant Matrix: (Units=GPa)
#
#
# Indices 1 2 3 4 5 6 
#
# 1 99.2380 31.6667 33.5505 0.0000 0.0000 0.0000
# 2 31.6667 99.2380 33.5505 0.0000 0.0000 0.0000
# 3 33.5505 33.5505 122.0127 0.0000 0.0000 0.0000
# 4 0.0000 0.0000 0.0000 23.9057 0.0000 0.0000
# 5 0.0000 0.0000 0.0000 0.0000 23.9057 0.0000
# 6 0.0000 0.0000 0.0000 0.0000 0.0000 20.2019
#
#
#
# Elastic Compliance Matrix: (Units=1/GPa)
#
#
# Indices 1 2 3 4 5 6 
#
# 1 0.011846 -0.002953 -0.002445 0.000000 0.000000 0.000000
# 2 -0.002953 0.011846 -0.002445 0.000000 0.000000 0.000000
# 3 -0.002445 -0.002445 0.009541 0.000000 0.000000 0.000000
# 4 0.000000 0.000000 0.000000 0.041831 0.000000 0.000000
# 5 0.000000 0.000000 0.000000 0.000000 0.041831 0.000000
# 6 0.000000 0.000000 0.000000 0.000000 0.000000 0.049500
#
#
# Mechanical properties :
#
#
# Convention : Reuss Voigt Hill
#
# Bulk Modulus (GPa) = 56.99694 57.55824 57.27759
# Shear Modulus (GPa) = 26.60556 28.38405 27.49481
#
# Velocity S-wave (km/s) = 3.68528 3.80647 3.74636
# Velocity P-wave (km/s) = 6.87049 6.97858 6.92474
#
# Compressibility (1/GPa) = 0.01754480
#
# Stress axis : x y z
#
# Youngs Moduli (GPa) = 84.41759 84.41759 104.81495
#
# Poissons Ratio (x) = 0.24931 0.25630
# Poissons Ratio (y) = 0.24931 0.25630
# Poissons Ratio (z) = 0.20642 0.20642
#
# Static dielectric constant tensor:
#      x y z
#    x 3.380810 0.000000 0.000000 
#    y 0.000000 3.380810 0.000000 
#    z 0.000000 0.000000 54.550510 
# 
# 
# High freq. dielectric constant tensor:
#      x y z
#    x 1.747650 0.000000 0.000000 
#    y 0.000000 1.747650 0.000000 
#    z 0.000000 0.000000 1.782450 
# 
# From -- ./inp_files/2260.got.cif
#   From: 2010.03.12/outbox.cif.g09.slc.cpg/sg124_2_cif.got.tgz:2260.got - 2010.04.06 16:38:57.
