data_PCOD8313199
_publ_section_title
;
Structure prediction by ZEFSAII (Michael W. Deem and Ramdas Pophale) SiO2 
 PCOD8313199
Probable space group: P 4/M C C
;
_chemical_formula_sum "Si O2"
_cell_formula_units_Z 96
_cell_length_a 24.827412
_cell_length_b 24.827412
_cell_length_c 8.968025
_cell_angle_alpha 90.000000
_cell_angle_beta 90.000000
_cell_angle_gamma 90.000000
_cell_volume 5527.894077
_symmetry_space_group_name_H-M "P 4/M C C"
_symmetry_group_IT_number 124
_symmetry_cell_setting 'tetragonal'
loop_
_space_group_symop_operation_xyz
x,y,z
-y,x,z
-x,-y,z
y,-x,z
x,-y,1/2-z
-x,y,1/2-z
y,x,1/2-z
-y,-x,1/2-z
-x,-y,-z
y,-x,-z
x,y,-z
-y,x,-z
-x,y,1/2+z
x,-y,1/2+z
-y,-x,1/2+z
y,x,1/2+z
loop_
_atom_site_type_symbol
_atom_site_label
_atom_site_fract_x
_atom_site_fract_y
_atom_site_fract_z
Si Si1 0.239911 0.838997 0.826724
Si Si2 0.838994 0.366240 0.673347
Si Si3 0.445043 0.366014 0.173257
Si Si4 0.554899 0.759983 0.826967
Si Si5 0.238965 0.052871 0.168176
Si Si6 0.367206 0.052871 0.168276
O O1 0.211286 0.788714 0.750000
O O2 0.303072 0.831655 0.798701
O O3 0.218540 0.894387 0.754748
O O4 0.225572 0.840309 0.000000
O O5 0.839625 0.380687 0.500000
O O6 0.789213 0.394758 0.752478
O O7 0.894602 0.387599 0.744125
O O8 0.500000 0.385779 0.250000
O O9 0.395117 0.395117 0.250000
O O10 0.436076 0.303008 0.199396
O O11 0.447689 0.381017 0.000000
O O12 0.500000 0.779750 0.750000
O O13 0.551809 0.774876 0.000000
O O14 0.303090 0.050875 0.168505
O O15 0.215696 0.000000 0.250000
O O16 0.216571 0.054358 0.000000
O O17 0.390519 0.000000 0.250000
O O18 0.389594 0.054580 0.000000
#
# Coordination Sequence:
#
# PCOD8313199 Si02
#       6
#    16  16  16  16  16  16
#     4  10  20  32  46  68 100 134 166 203 247 293
#     4  10  20  33  50  72  98 130 167 204 245 294
#     4  10  21  37  57  80 105 131 161 198 241 289
#     4  10  21  37  56  76  99 129 165 204 243 286
#     4   9  16  27  44  65  91 125 164 203 243 290
#     4   9  16  27  45  69  96 125 160 202 246 291
#
# _framework density 17.366468000000001
#
# number of rings (size 3 to 8) (size 9 to 14) (size 15 to 20)
#    0.000    2.333    0.000    3.000    0.000    8.833 
#    0.000    4.167    0.000    0.500    0.000    3.500 
#    0.000    0.333    0.000    3.333    0.000    2.333 
#
# Total GULP energy -1190675.402563 kJ/mol
# GULP energy per Si atom -12402.868777 kJ/mol
# Density = 1.732694 g / cm^3
# Si number density = 17.366468 Si / 1000 Ang^3
#
#
#
# Elastic Constant Matrix: (Units=GPa)
#
#
# Indices 1 2 3 4 5 6 
#
# 1 66.0196 46.2315 61.8504 0.0000 0.0000 0.0000
# 2 46.2315 66.0265 61.8503 0.0000 0.0000 0.0000
# 3 61.8504 61.8503 165.4090 0.0000 0.0000 0.0000
# 4 0.0000 0.0000 0.0000 32.9213 0.0000 0.0000
# 5 0.0000 0.0000 0.0000 0.0000 32.9211 0.0000
# 6 0.0000 0.0000 0.0000 0.0000 0.0000 3.9876
#
#
#
# Elastic Compliance Matrix: (Units=1/GPa)
#
#
# Indices 1 2 3 4 5 6 
#
# 1 0.032842 -0.017687 -0.005667 0.000000 0.000000 0.000000
# 2 -0.017687 0.032836 -0.005664 0.000000 0.000000 0.000000
# 3 -0.005667 -0.005664 0.010283 0.000000 0.000000 0.000000
# 4 0.000000 0.000000 0.000000 0.030376 0.000000 0.000000
# 5 0.000000 0.000000 0.000000 0.000000 0.030376 0.000000
# 6 0.000000 0.000000 0.000000 0.000000 0.000000 0.250775
#
#
# Mechanical properties :
#
#
# Convention : Reuss Voigt Hill
#
# Bulk Modulus (GPa) = 55.79250 70.81328 63.30289
# Shear Modulus (GPa) = 11.07424 22.46753 16.77088
#
# Velocity S-wave (km/s) = 2.52797 3.60075 3.11095
# Velocity P-wave (km/s) = 6.38100 7.62572 7.03096
#
# Compressibility (1/GPa) = 0.01792356
#
# Stress axis : x y z
#
# Youngs Moduli (GPa) = 30.44909 30.45409 97.25205
#
# Poissons Ratio (x) = 0.53866 0.55108
# Poissons Ratio (y) = 0.53857 0.55088
# Poissons Ratio (z) = 0.17254 0.17251
#
# Static dielectric constant tensor:
#      x y z
#    x 3.081540 0.000000 0.000000 
#    y 0.000000 3.081540 0.000000 
#    z 0.000000 0.000000 3.494790 
# 
# 
# High freq. dielectric constant tensor:
#      x y z
#    x 1.650990 0.000000 0.000000 
#    y 0.000000 1.650990 0.000000 
#    z 0.000000 0.000000 1.694850 
# 
# From -- ./inp_files/1327.got.cif
#   From: 2010.03.12/outbox.cif.g09.slc.cpg/sg124_1_cif.got.tgz:1327.got - 2010.04.06 16:38:57.
