data_PCOD8313873
_publ_section_title
;
Structure prediction by ZEFSAII (Michael W. Deem and Ramdas Pophale) SiO2 
 PCOD8313873
Probable space group: P 4/M B M
;
_chemical_formula_sum "Si O2"
_cell_formula_units_Z 96
_cell_length_a 14.976907
_cell_length_b 14.976907
_cell_length_c 23.576509
_cell_angle_alpha 90.000000
_cell_angle_beta 90.000000
_cell_angle_gamma 90.000000
_cell_volume 5288.393528
_symmetry_space_group_name_H-M "P 4/M B M"
_symmetry_group_IT_number 127
_symmetry_cell_setting 'tetragonal'
loop_
_space_group_symop_operation_xyz
x,y,z
-y,x,z
-x,-y,z
y,-x,z
1/2+x,1/2-y,-z
1/2-x,1/2+y,-z
1/2+y,1/2+x,-z
1/2-y,1/2-x,-z
-x,-y,-z
y,-x,-z
x,y,-z
-y,x,-z
1/2-x,1/2+y,z
1/2+x,1/2-y,z
1/2-y,1/2-x,z
1/2+y,1/2+x,z
loop_
_atom_site_type_symbol
_atom_site_label
_atom_site_fract_x
_atom_site_fract_y
_atom_site_fract_z
Si Si1 0.428386 0.372374 0.935999
Si Si2 0.110998 0.903841 0.268096
Si Si3 0.732653 0.090118 0.659298
Si Si4 0.854271 0.495547 0.436140
Si Si5 0.142193 0.497809 0.232701
Si Si6 0.229065 0.124282 0.828604
O O1 0.533391 0.381258 0.925080
O O2 0.388419 0.300764 0.893107
O O3 0.409836 0.339324 0.000000
O O4 0.167302 0.875851 0.324308
O O5 0.147134 0.856228 0.211278
O O6 0.009291 0.875447 0.268934
O O7 0.678634 0.178634 0.643500
O O8 0.727153 0.020712 0.606378
O O9 0.692246 0.039342 0.712941
O O10 0.815725 0.493775 0.500000
O O11 0.930474 0.569527 0.429879
O O12 0.899460 0.399460 0.421473
O O13 0.078135 0.578135 0.253121
O O14 0.215694 0.535544 0.189097
O O15 0.081544 0.418457 0.204842
O O16 0.288975 0.211026 0.824967
#
# Coordination Sequence:
#
# PCOD8313873 Si02
#       6
#    16  16  16  16  16  16
#     4   9  19  37  58  77 101 138 180 218 260 310
#     4  11  22  36  50  70 102 140 180 220 267 315
#     4  10  18  31  51  76 105 136 174 219 266 321
#     4   8  14  26  48  79 110 139 172 213 266 324
#     4   9  18  32  50  75 108 141 169 207 269 333
#     4  11  21  34  54  81 109 136 174 223 271 323
#
# _framework density 18.152961000000001
#
# number of rings (size 3 to 8) (size 9 to 14) (size 15 to 20)
#    0.000    2.333    1.667    3.000    0.000    3.667 
#    0.000    0.000    0.000    2.500    0.000    5.833 
#    0.000    0.000    0.000    0.000    0.000    0.000 
#
# Total GULP energy -1189533.548389 kJ/mol
# GULP energy per Si atom -12390.974462 kJ/mol
# Density = 1.811164 g / cm^3
# Si number density = 18.152961 Si / 1000 Ang^3
#
#
#
# Elastic Constant Matrix: (Units=GPa)
#
#
# Indices 1 2 3 4 5 6 
#
# 1 92.9687 31.2448 51.8160 0.0000 0.0000 0.0000
# 2 31.2448 92.9687 51.8160 0.0000 0.0000 0.0000
# 3 51.8160 51.8160 117.2618 0.0000 0.0000 0.0000
# 4 0.0000 0.0000 0.0000 29.8704 0.0000 0.0000
# 5 0.0000 0.0000 0.0000 0.0000 29.8704 0.0000
# 6 0.0000 0.0000 0.0000 0.0000 0.0000 14.7305
#
#
#
# Elastic Compliance Matrix: (Units=1/GPa)
#
#
# Indices 1 2 3 4 5 6 
#
# 1 0.014476 -0.001725 -0.005635 0.000000 0.000000 0.000000
# 2 -0.001725 0.014476 -0.005635 0.000000 0.000000 0.000000
# 3 -0.005635 -0.005635 0.013508 0.000000 0.000000 0.000000
# 4 0.000000 0.000000 0.000000 0.033478 0.000000 0.000000
# 5 0.000000 0.000000 0.000000 0.000000 0.033478 0.000000
# 6 0.000000 0.000000 0.000000 0.000000 0.000000 0.067887
#
#
# Mechanical properties :
#
#
# Convention : Reuss Voigt Hill
#
# Bulk Modulus (GPa) = 60.70850 63.66143 62.18497
# Shear Modulus (GPa) = 23.94838 26.11577 25.03207
#
# Velocity S-wave (km/s) = 3.63609 3.79707 3.71745
# Velocity P-wave (km/s) = 7.15148 7.37355 7.26336
#
# Compressibility (1/GPa) = 0.01647216
#
# Stress axis : x y z
#
# Youngs Moduli (GPa) = 69.07755 69.07755 74.03148
#
# Poissons Ratio (x) = 0.11914 0.41715
# Poissons Ratio (y) = 0.11914 0.41715
# Poissons Ratio (z) = 0.38924 0.38924
#
# Static dielectric constant tensor:
#      x y z
#    x 3.406380 0.000000 0.000000 
#    y 0.000000 3.406380 0.000000 
#    z 0.000000 0.000000 3.358270 
# 
# 
# High freq. dielectric constant tensor:
#      x y z
#    x 1.695350 0.000000 0.000000 
#    y 0.000000 1.695350 0.000000 
#    z 0.000000 0.000000 1.685130 
# 
# From -- ./inp_files/5778.got.cif
#   From: 2010.03.12/outbox.cif.g09.slc.cpg/sg127_3_cif.got.tgz:5778.got - 2010.04.06 17:03:15.
