data_PCOD8313866
_publ_section_title
;
Structure prediction by ZEFSAII (Michael W. Deem and Ramdas Pophale) SiO2 
 PCOD8313866
Probable space group: P 4/M B M
;
_chemical_formula_sum "Si O2"
_cell_formula_units_Z 128
_cell_length_a 19.841586
_cell_length_b 19.841586
_cell_length_c 19.091145
_cell_angle_alpha 90.000000
_cell_angle_beta 90.000000
_cell_angle_gamma 90.000000
_cell_volume 7515.964906
_symmetry_space_group_name_H-M "P 4/M B M"
_symmetry_group_IT_number 127
_symmetry_cell_setting 'tetragonal'
loop_
_space_group_symop_operation_xyz
x,y,z
-y,x,z
-x,-y,z
y,-x,z
1/2+x,1/2-y,-z
1/2-x,1/2+y,-z
1/2+y,1/2+x,-z
1/2-y,1/2-x,-z
-x,-y,-z
y,-x,-z
x,y,-z
-y,x,-z
1/2-x,1/2+y,z
1/2+x,1/2-y,z
1/2-y,1/2-x,z
1/2+y,1/2+x,z
loop_
_atom_site_type_symbol
_atom_site_label
_atom_site_fract_x
_atom_site_fract_y
_atom_site_fract_z
Si Si1 0.543769 0.845647 0.844412
Si Si2 0.247812 0.141374 0.213787
Si Si3 0.639346 0.748720 0.369801
Si Si4 0.109253 0.496741 0.701196
Si Si5 0.712816 0.998943 0.420794
Si Si6 0.861751 0.748988 0.639762
Si Si7 0.921214 0.691305 0.077598
Si Si8 0.243376 0.854858 0.800947
O O1 0.587393 0.912608 0.854211
O O2 0.590487 0.779024 0.842498
O O3 0.501334 0.847289 0.772107
O O4 0.494959 0.840429 0.910636
O O5 0.291883 0.208118 0.222788
O O6 0.247544 0.109327 0.291113
O O7 0.174397 0.167296 0.189532
O O8 0.683700 0.816301 0.385345
O O9 0.571358 0.744673 0.416711
O O10 0.686054 0.682868 0.381541
O O11 0.077900 0.422101 0.698631
O O12 0.150446 0.508988 0.631047
O O13 0.052692 0.552692 0.704135
O O14 0.686659 0.006611 0.500000
O O15 0.753284 0.067643 0.401915
O O16 0.818664 0.681337 0.622096
O O17 0.882100 0.748579 0.721928
O O18 0.868409 0.631592 0.083847
O O19 0.910893 0.747389 0.138435
O O20 0.918114 0.724154 0.000000
O O21 0.297824 0.797824 0.816623
#
# Coordination Sequence:
#
# PCOD8313866 Si02
#       8
#    16  16  16  16  16  16  16  16
#     4  10  18  30  49  69  93 127 167 205 238 282
#     4   8  14  28  51  72  88 112 156 209 248 280
#     4   9  18  35  54  73  98 129 166 210 259 309
#     4  10  20  32  46  66  95 133 172 205 242 294
#     4  12  23  32  47  72 101 131 166 211 262 309
#     4   9  19  35  55  75  97 128 171 216 254 301
#     4  10  20  31  43  65 101 137 164 193 235 289
#     4   8  15  30  51  71  88 117 161 204 246 286
#
# _framework density 17.030414
#
# number of rings (size 3 to 8) (size 9 to 14) (size 15 to 20)
#    0.000    2.500    1.250    3.375    0.000    4.500 
#    0.000    3.125    0.000    2.625    0.000    0.875 
#    0.000    0.500    0.000    1.125    0.000    0.125 
#
# Total GULP energy -1586096.925489 kJ/mol
# GULP energy per Si atom -12391.382230 kJ/mol
# Density = 1.699165 g / cm^3
# Si number density = 17.030414 Si / 1000 Ang^3
#
#
#
# Elastic Constant Matrix: (Units=GPa)
#
#
# Indices 1 2 3 4 5 6 
#
# 1 65.6814 29.9579 30.7882 0.0000 0.0000 0.0000
# 2 29.9579 65.6814 30.7882 0.0000 0.0000 0.0000
# 3 30.7882 30.7882 81.1746 0.0000 0.0000 0.0000
# 4 0.0000 0.0000 0.0000 16.2752 0.0000 0.0000
# 5 0.0000 0.0000 0.0000 0.0000 16.2752 0.0000
# 6 0.0000 0.0000 0.0000 0.0000 0.0000 14.0615
#
#
#
# Elastic Compliance Matrix: (Units=1/GPa)
#
#
# Indices 1 2 3 4 5 6 
#
# 1 0.020914 -0.007079 -0.005247 0.000000 0.000000 0.000000
# 2 -0.007079 0.020914 -0.005247 0.000000 0.000000 0.000000
# 3 -0.005247 -0.005247 0.016299 0.000000 0.000000 0.000000
# 4 0.000000 0.000000 0.000000 0.061443 0.000000 0.000000
# 5 0.000000 0.000000 0.000000 0.000000 0.061443 0.000000
# 6 0.000000 0.000000 0.000000 0.000000 0.000000 0.071116
#
#
# Mechanical properties :
#
#
# Convention : Reuss Voigt Hill
#
# Bulk Modulus (GPa) = 43.51710 43.95624 43.73667
# Shear Modulus (GPa) = 16.95285 17.38926 17.17105
#
# Velocity S-wave (km/s) = 3.15849 3.19889 3.17875
# Velocity P-wave (km/s) = 6.23775 6.28572 6.26178
#
# Compressibility (1/GPa) = 0.02297947
#
# Stress axis : x y z
#
# Youngs Moduli (GPa) = 47.81600 47.81600 61.35199
#
# Poissons Ratio (x) = 0.33850 0.32192
# Poissons Ratio (y) = 0.33850 0.32192
# Poissons Ratio (z) = 0.25090 0.25090
#
# Static dielectric constant tensor:
#      x y z
#    x 3.175660 0.000000 0.000000 
#    y 0.000000 3.175660 0.000000 
#    z 0.000000 0.000000 3.162350 
# 
# 
# High freq. dielectric constant tensor:
#      x y z
#    x 1.636430 0.000000 0.000000 
#    y 0.000000 1.636430 0.000000 
#    z 0.000000 0.000000 1.646960 
# 
# From -- ./inp_files/5409.got.cif
#   From: 2010.03.12/outbox.cif.g09.slc.cpg/sg127_3_cif.got.tgz:5409.got - 2010.04.06 17:03:15.
