data_PCOD8313898
_publ_section_title
;
Structure prediction by ZEFSAII (Michael W. Deem and Ramdas Pophale) SiO2 
 PCOD8313898
Probable space group: P 4/M B M
;
_chemical_formula_sum "Si O2"
_cell_formula_units_Z 112
_cell_length_a 19.153177
_cell_length_b 19.153177
_cell_length_c 18.904449
_cell_angle_alpha 90.000000
_cell_angle_beta 90.000000
_cell_angle_gamma 90.000000
_cell_volume 6934.987266
_symmetry_space_group_name_H-M "P 4/M B M"
_symmetry_group_IT_number 127
_symmetry_cell_setting 'tetragonal'
loop_
_space_group_symop_operation_xyz
x,y,z
-y,x,z
-x,-y,z
y,-x,z
1/2+x,1/2-y,-z
1/2-x,1/2+y,-z
1/2+y,1/2+x,-z
1/2-y,1/2-x,-z
-x,-y,-z
y,-x,-z
x,y,-z
-y,x,-z
1/2-x,1/2+y,z
1/2+x,1/2-y,z
1/2-y,1/2-x,z
1/2+y,1/2+x,z
loop_
_atom_site_type_symbol
_atom_site_label
_atom_site_fract_x
_atom_site_fract_y
_atom_site_fract_z
Si Si1 0.275563 0.662700 0.075008
Si Si2 0.614318 0.501552 0.419806
Si Si3 0.505566 0.386810 0.154496
Si Si4 0.225611 0.922345 0.922813
Si Si5 0.269459 0.880542 0.777769
Si Si6 0.848461 0.235903 0.227431
Si Si7 0.506772 0.703952 0.712426
O O1 0.238608 0.738608 0.083759
O O2 0.357483 0.673963 0.069313
O O3 0.257148 0.620298 0.146805
O O4 0.250296 0.627343 0.000000
O O5 0.567610 0.569444 0.405578
O O6 0.642580 0.502048 0.500000
O O7 0.680298 0.502570 0.368175
O O8 0.572648 0.434773 0.140642
O O9 0.510946 0.321776 0.100280
O O10 0.507061 0.360964 0.235368
O O11 0.279825 0.905559 0.859545
O O12 0.261115 0.937593 0.000000
O O13 0.337477 0.837477 0.754163
O O14 0.199449 0.833618 0.769611
O O15 0.263399 0.948714 0.728043
O O16 0.803389 0.303389 0.249354
O O17 0.914497 0.232699 0.279099
#
# Coordination Sequence:
#
# PCOD8313898 Si02
#       7
#    16  16  16  16  16  16  16
#     4   8  13  23  39  55  74 105 146 189 225 256
#     4   9  17  28  44  69  98 125 153 181 208 253
#     4  10  19  27  36  55  84 117 148 177 216 269
#     4   9  16  25  37  52  75 112 152 182 210 251
#     4   9  18  30  44  64  88 115 151 193 233 272
#     4   9  17  29  45  67  90 113 149 194 233 268
#     4  11  18  29  48  65  85 116 151 186 227 276
#
# _framework density 16.149994
#
# number of rings (size 3 to 8) (size 9 to 14) (size 15 to 20)
#    0.000    2.714    0.000    6.000    0.000    2.571 
#    0.000    5.000    0.000    1.286    0.000    4.000 
#    0.000    0.000    0.000   10.000    0.000    0.714 
#
# Total GULP energy -1387613.545134 kJ/mol
# GULP energy per Si atom -12389.406653 kJ/mol
# Density = 1.611324 g / cm^3
# Si number density = 16.149994 Si / 1000 Ang^3
#
#
#
# Elastic Constant Matrix: (Units=GPa)
#
#
# Indices 1 2 3 4 5 6 
#
# 1 46.6884 17.1759 24.2480 0.0000 0.0000 0.0000
# 2 17.1759 46.6884 24.2480 0.0000 0.0000 0.0000
# 3 24.2480 24.2480 101.4975 0.0000 0.0000 0.0000
# 4 0.0000 0.0000 0.0000 15.9427 0.0000 0.0000
# 5 0.0000 0.0000 0.0000 0.0000 15.9427 0.0000
# 6 0.0000 0.0000 0.0000 0.0000 0.0000 7.0096
#
#
#
# Elastic Compliance Matrix: (Units=1/GPa)
#
#
# Indices 1 2 3 4 5 6 
#
# 1 0.026506 -0.007378 -0.004570 0.000000 0.000000 0.000000
# 2 -0.007378 0.026506 -0.004570 0.000000 0.000000 0.000000
# 3 -0.004570 -0.004570 0.012036 0.000000 0.000000 0.000000
# 4 0.000000 0.000000 0.000000 0.062725 0.000000 0.000000
# 5 0.000000 0.000000 0.000000 0.000000 0.062725 0.000000
# 6 0.000000 0.000000 0.000000 0.000000 0.000000 0.142661
#
#
# Mechanical properties :
#
#
# Convention : Reuss Voigt Hill
#
# Bulk Modulus (GPa) = 31.23695 36.24646 33.74171
# Shear Modulus (GPa) = 13.26736 16.39250 14.82993
#
# Velocity S-wave (km/s) = 2.86931 3.18939 3.03357
# Velocity P-wave (km/s) = 5.51008 6.00461 5.76265
#
# Compressibility (1/GPa) = 0.03201337
#
# Stress axis : x y z
#
# Youngs Moduli (GPa) = 37.72706 37.72706 83.08457
#
# Poissons Ratio (x) = 0.27834 0.37968
# Poissons Ratio (y) = 0.27834 0.37968
# Poissons Ratio (z) = 0.17241 0.17241
#
# Static dielectric constant tensor:
#      x y z
#    x 2.851010 0.000000 0.000000 
#    y 0.000000 2.851010 0.000000 
#    z 0.000000 0.000000 3.027530 
# 
# 
# High freq. dielectric constant tensor:
#      x y z
#    x 1.590420 0.000000 0.000000 
#    y 0.000000 1.590420 0.000000 
#    z 0.000000 0.000000 1.608120 
# 
# From -- ./inp_files/5350.got.cif
#   From: 2010.03.12/outbox.cif.g09.slc.cpg/sg127_3_cif.got.tgz:5350.got - 2010.04.06 17:03:15.
