data_PCOD8313740
_publ_section_title
;
Structure prediction by ZEFSAII (Michael W. Deem and Ramdas Pophale) SiO2 
 PCOD8313740
Probable space group: P 4/N N C
;
_chemical_formula_sum "Si O2"
_cell_formula_units_Z 96
_cell_length_a 22.710112
_cell_length_b 22.710112
_cell_length_c 9.422171
_cell_angle_alpha 90.000000
_cell_angle_beta 90.000000
_cell_angle_gamma 90.000000
_cell_volume 4859.477034
_symmetry_space_group_name_H-M "P 4/N N C"
_symmetry_group_IT_number 126
_space_group.IT_coordinate_system_code '2'
_symmetry_cell_setting 'tetragonal'
loop_
_space_group_symop_operation_xyz
x,y,z
1/2-y,x,z
1/2-x,1/2-y,z
y,1/2-x,z
x,1/2-y,1/2-z
1/2-x,y,1/2-z
y,x,1/2-z
1/2-y,1/2-x,1/2-z
-x,-y,-z
1/2+y,-x,-z
1/2+x,1/2+y,-z
-y,1/2+x,-z
-x,1/2+y,1/2+z
1/2+x,-y,1/2+z
-y,-x,1/2+z
1/2+y,1/2+x,1/2+z
loop_
_atom_site_type_symbol
_atom_site_label
_atom_site_fract_x
_atom_site_fract_y
_atom_site_fract_z
Si Si1 0.085350 0.578930 0.292153
Si Si2 0.003027 0.434449 0.951641
Si Si3 0.189237 0.397070 0.179354
Si Si4 0.637275 0.907777 0.114838
Si Si5 0.696431 0.031609 0.834592
Si Si6 0.970063 0.305662 0.650653
O O1 0.098463 0.536521 0.427904
O O2 0.024705 0.567605 0.205958
O O3 0.138575 0.570807 0.182194
O O4 0.083253 0.647604 0.335481
O O5 0.070863 0.412940 0.948956
O O6 0.000000 0.500000 0.000000
O O7 0.250000 0.372922 0.250000
O O8 0.134977 0.365024 0.250000
O O9 0.182184 0.465487 0.217264
O O10 0.182573 0.386336 0.008464
O O11 0.636834 0.863167 0.250000
O O12 0.659995 0.969152 0.179561
O O13 0.750000 0.060425 0.750000
O O14 0.719692 0.030189 0.993683
O O15 0.961088 0.250000 0.750000
#
# Coordination Sequence:
#
# PCOD8313740 Si02
#       6
#    16  16  16  16  16  16
#     4  12  22  38  60  92 128 165 203 257 325 384
#     4  12  20  34  59  94 129 158 199 255 323 390
#     4  10  22  41  60  86 120 163 213 260 317 383
#     4  11  21  37  59  91 125 164 205 263 329 387
#     4  10  23  40  60  89 122 166 210 257 318 381
#     4  11  24  38  56  87 127 167 205 250 315 383
#
# _framework density 19.755210999999999
#
# number of rings (size 3 to 8) (size 9 to 14) (size 15 to 20)
#    0.000    1.000    5.000    2.500    2.333    4.167 
#    0.000    0.000    0.000    0.500    0.000    3.500 
#    0.000    0.000    0.000    0.000    0.000    0.000 
#
# Total GULP energy -1189727.875873 kJ/mol
# GULP energy per Si atom -12392.998707 kJ/mol
# Density = 1.971025 g / cm^3
# Si number density = 19.755211 Si / 1000 Ang^3
#
#
#
# Elastic Constant Matrix: (Units=GPa)
#
#
# Indices 1 2 3 4 5 6 
#
# 1 76.0180 40.0267 36.8778 0.0000 0.0000 0.0000
# 2 40.0267 76.0145 36.8825 0.0000 0.0000 0.0000
# 3 36.8778 36.8825 78.2093 0.0000 0.0000 0.0000
# 4 0.0000 0.0000 0.0000 36.2993 0.0000 0.0000
# 5 0.0000 0.0000 0.0000 0.0000 36.2993 0.0000
# 6 0.0000 0.0000 0.0000 0.0000 0.0000 9.9169
#
#
#
# Elastic Compliance Matrix: (Units=1/GPa)
#
#
# Indices 1 2 3 4 5 6 
#
# 1 0.020045 -0.007740 -0.005802 0.000000 0.000000 0.000000
# 2 -0.007740 0.020047 -0.005804 0.000000 0.000000 0.000000
# 3 -0.005802 -0.005804 0.018259 0.000000 0.000000 0.000000
# 4 0.000000 0.000000 0.000000 0.027549 0.000000 0.000000
# 5 0.000000 0.000000 0.000000 0.000000 0.027549 0.000000
# 6 0.000000 0.000000 0.000000 0.000000 0.000000 0.100838
#
#
# Mechanical properties :
#
#
# Convention : Reuss Voigt Hill
#
# Bulk Modulus (GPa) = 50.86681 50.86843 50.86762
# Shear Modulus (GPa) = 19.26553 24.26676 21.76615
#
# Velocity S-wave (km/s) = 3.12623 3.50862 3.32293
# Velocity P-wave (km/s) = 6.23181 6.49763 6.36611
#
# Compressibility (1/GPa) = 0.01965918
#
# Stress axis : x y z
#
# Youngs Moduli (GPa) = 49.88877 49.88199 54.76717
#
# Poissons Ratio (x) = 0.38608 0.31773
# Poissons Ratio (y) = 0.38613 0.31790
# Poissons Ratio (z) = 0.28943 0.28954
#
# Static dielectric constant tensor:
#      x y z
#    x 3.504430 0.000000 0.000000 
#    y 0.000000 3.504420 0.000000 
#    z 0.000000 0.000000 7.836930 
# 
# 
# High freq. dielectric constant tensor:
#      x y z
#    x 1.741990 0.000000 0.000000 
#    y 0.000000 1.741990 0.000000 
#    z 0.000000 0.000000 1.793600 
# 
# From -- ./inp_files/1786.got.cif
#   From: 2010.03.12/outbox.cif.g09.slc.cpg/sg126_1_cif.got.tgz:1786.got - 2010.04.06 16:55:23.
