data_PCOD8313318
_publ_section_title
;
Structure prediction by ZEFSAII (Michael W. Deem and Ramdas Pophale) SiO2 
 PCOD8313318
Probable space group: P 4/M C C
;
_chemical_formula_sum "Si O2"
_cell_formula_units_Z 88
_cell_length_a 17.251997
_cell_length_b 17.251997
_cell_length_c 14.274776
_cell_angle_alpha 90.000000
_cell_angle_beta 90.000000
_cell_angle_gamma 90.000000
_cell_volume 4248.621573
_symmetry_space_group_name_H-M "P 4/M C C"
_symmetry_group_IT_number 124
_symmetry_cell_setting 'tetragonal'
loop_
_space_group_symop_operation_xyz
x,y,z
-y,x,z
-x,-y,z
y,-x,z
x,-y,1/2-z
-x,y,1/2-z
y,x,1/2-z
-y,-x,1/2-z
-x,-y,-z
y,-x,-z
x,y,-z
-y,x,-z
-x,y,1/2+z
x,-y,1/2+z
-y,-x,1/2+z
y,x,1/2+z
loop_
_atom_site_type_symbol
_atom_site_label
_atom_site_fract_x
_atom_site_fract_y
_atom_site_fract_z
Si Si1 0.405326 0.581162 0.141183
Si Si2 0.526806 0.132695 0.500000
Si Si3 0.789315 0.199562 0.000000
Si Si4 0.231961 0.069484 0.104564
Si Si5 0.000000 0.127071 0.750000
Si Si6 0.632933 0.282744 0.500000
Si Si7 0.905595 0.359958 0.500000
Si Si8 0.391570 0.029845 0.849918
O O1 0.392965 0.491584 0.111893
O O2 0.399838 0.600163 0.250000
O O3 0.337644 0.628129 0.090712
O O4 0.569102 0.214848 0.500000
O O5 0.435294 0.151100 0.500000
O O6 0.545521 0.080744 0.592954
O O7 0.845667 0.191261 0.091989
O O8 0.757512 0.285544 0.000000
O O9 0.720400 0.139766 0.000000
O O10 0.312836 0.080768 0.160979
O O11 0.178700 0.006768 0.156895
O O12 0.250237 0.035287 0.000000
O O13 0.923211 0.076790 0.750000
O O14 0.954551 0.364572 0.594136
O O15 0.424444 0.000000 0.750000
#
# Coordination Sequence:
#
# PCOD8313318 Si02
#       8
#    16   8   8  16   8   8   8  16
#     4   9  20  39  63  92 128 181 234 278 333 406
#     4  11  24  44  63  99 137 164 220 297 322 396
#     4  10  24  42  63  93 135 179 212 265 340 403
#     4  10  21  41  68  89 135 175 209 265 335 393
#     4  11  26  40  64 104 129 160 220 269 318 406
#     4  12  21  40  64  93 138 168 217 282 354 383
#     4  11  25  41  68  95 129 170 233 269 327 399
#     4  11  21  43  71  94 122 178 220 277 330 389
#
# _framework density 20.712599000000001
#
# number of rings (size 3 to 8) (size 9 to 14) (size 15 to 20)
#    0.545    1.000    4.545    2.182    5.091    2.909 
#    3.273    1.818    0.000    0.000    0.000    0.000 
#    0.000    0.000    0.000    0.000    0.000    0.000 
#
# Total GULP energy -1090451.790346 kJ/mol
# GULP energy per Si atom -12391.497618 kJ/mol
# Density = 2.066546 g / cm^3
# Si number density = 20.712599 Si / 1000 Ang^3
#
#
#
# Elastic Constant Matrix: (Units=GPa)
#
#
# Indices 1 2 3 4 5 6 
#
# 1 92.2581 44.4067 34.8385 0.0000 0.0000 0.0000
# 2 44.4067 92.2586 34.8385 0.0000 0.0000 0.0000
# 3 34.8385 34.8385 120.5749 0.0000 0.0000 0.0000
# 4 0.0000 0.0000 0.0000 22.2155 0.0000 0.0000
# 5 0.0000 0.0000 0.0000 0.0000 22.2156 0.0000
# 6 0.0000 0.0000 0.0000 0.0000 0.0000 2.3152
#
#
#
# Elastic Compliance Matrix: (Units=1/GPa)
#
#
# Indices 1 2 3 4 5 6 
#
# 1 0.014740 -0.006158 -0.002479 0.000000 0.000000 0.000000
# 2 -0.006158 0.014740 -0.002479 0.000000 0.000000 0.000000
# 3 -0.002479 -0.002479 0.009726 0.000000 0.000000 0.000000
# 4 0.000000 0.000000 0.000000 0.045014 0.000000 0.000000
# 5 0.000000 0.000000 0.000000 0.000000 0.045013 0.000000
# 6 0.000000 0.000000 0.000000 0.000000 0.000000 0.431936
#
#
# Mechanical properties :
#
#
# Convention : Reuss Voigt Hill
#
# Bulk Modulus (GPa) = 58.92343 59.25099 59.08721
# Shear Modulus (GPa) = 8.48811 22.08312 15.28561
#
# Velocity S-wave (km/s) = 2.02656 3.26877 2.71954
# Velocity P-wave (km/s) = 5.82973 6.55094 6.20083
#
# Compressibility (1/GPa) = 0.01697118
#
# Stress axis : x y z
#
# Youngs Moduli (GPa) = 67.84428 67.84470 102.81294
#
# Poissons Ratio (x) = 0.41781 0.25492
# Poissons Ratio (y) = 0.41781 0.25492
# Poissons Ratio (z) = 0.16822 0.16822
#
# Static dielectric constant tensor:
#      x y z
#    x 3.786500 0.000000 0.000000 
#    y 0.000000 3.786510 0.000000 
#    z 0.000000 0.000000 3.858650 
# 
# 
# High freq. dielectric constant tensor:
#      x y z
#    x 1.810770 0.000000 0.000000 
#    y 0.000000 1.810770 0.000000 
#    z 0.000000 0.000000 1.801400 
# 
# From -- ./inp_files/3294.got.cif
#   From: 2010.03.12/outbox.cif.g09.slc.cpg/sg124_2_cif.got.tgz:3294.got - 2010.04.06 16:38:57.
