data_PCOD8313373
_publ_section_title
;
Structure prediction by ZEFSAII (Michael W. Deem and Ramdas Pophale) SiO2 
 PCOD8313373
Probable space group: P 4/M C C
;
_chemical_formula_sum "Si O2"
_cell_formula_units_Z 96
_cell_length_a 23.360753
_cell_length_b 23.360753
_cell_length_c 9.212982
_cell_angle_alpha 90.000000
_cell_angle_beta 90.000000
_cell_angle_gamma 90.000000
_cell_volume 5027.752582
_symmetry_space_group_name_H-M "P 4/M C C"
_symmetry_group_IT_number 124
_symmetry_cell_setting 'tetragonal'
loop_
_space_group_symop_operation_xyz
x,y,z
-y,x,z
-x,-y,z
y,-x,z
x,-y,1/2-z
-x,y,1/2-z
y,x,1/2-z
-y,-x,1/2-z
-x,-y,-z
y,-x,-z
x,y,-z
-y,x,-z
-x,y,1/2+z
x,-y,1/2+z
-y,-x,1/2+z
y,x,1/2+z
loop_
_atom_site_type_symbol
_atom_site_label
_atom_site_fract_x
_atom_site_fract_y
_atom_site_fract_z
Si Si1 0.761811 0.318740 0.824311
Si Si2 0.551111 0.236428 0.342588
Si Si3 0.548688 0.105424 0.345308
Si Si4 0.255216 0.866013 0.167619
Si Si5 0.126193 0.126193 0.250000
Si Si6 0.052603 0.080730 0.500000
Si Si7 0.335126 0.943270 0.328258
O O1 0.704097 0.295904 0.750000
O O2 0.762602 0.385158 0.774286
O O3 0.812972 0.280112 0.759699
O O4 0.763339 0.312619 0.000000
O O5 0.500000 0.266643 0.250000
O O6 0.552459 0.267030 0.500000
O O7 0.532346 0.171212 0.362910
O O8 0.500000 0.074526 0.250000
O O9 0.546001 0.073595 0.500000
O O10 0.613980 0.101308 0.290861
O O11 0.187337 0.874989 0.171062
O O12 0.278925 0.922736 0.244557
O O13 0.274615 0.859985 0.000000
O O14 0.074712 0.117119 0.363336
O O15 0.983667 0.078558 0.500000
O O16 0.322944 0.950059 0.500000
O O17 0.356284 0.000000 0.250000
#
# Coordination Sequence:
#
# PCOD8313373 Si02
#       7
#    16  16  16  16   8   8  16
#     4  11  22  37  60  88 124 162 203 251 298 353
#     4   9  18  34  55  82 114 154 200 248 296 349
#     4   9  18  34  54  77 106 148 195 245 294 341
#     4  12  25  41  61  89 119 156 196 234 293 362
#     4  12  26  45  70  98 122 148 188 232 291 366
#     4  11  26  50  76  98 120 148 186 240 304 374
#     4  11  24  41  58  80 115 150 192 245 295 350
#
# _framework density 19.094018999999999
#
# number of rings (size 3 to 8) (size 9 to 14) (size 15 to 20)
#    0.000    1.417    3.333    2.000    2.333    5.000 
#    0.000    1.667    0.000    0.000    0.000    0.000 
#    0.000    0.333    0.000    3.667    0.000    2.667 
#
# Total GULP energy -1189425.869235 kJ/mol
# GULP energy per Si atom -12389.852805 kJ/mol
# Density = 1.905056 g / cm^3
# Si number density = 19.094019 Si / 1000 Ang^3
#
#
#
# Elastic Constant Matrix: (Units=GPa)
#
#
# Indices 1 2 3 4 5 6 
#
# 1 81.5319 19.1660 38.2402 0.0000 0.0000 0.0000
# 2 19.1660 81.5309 38.2403 0.0000 0.0000 0.0000
# 3 38.2402 38.2403 116.8225 0.0000 0.0000 0.0000
# 4 0.0000 0.0000 0.0000 30.1854 0.0000 0.0000
# 5 0.0000 0.0000 0.0000 0.0000 30.1855 0.0000
# 6 0.0000 0.0000 0.0000 0.0000 0.0000 15.6910
#
#
#
# Elastic Compliance Matrix: (Units=1/GPa)
#
#
# Indices 1 2 3 4 5 6 
#
# 1 0.014625 -0.001409 -0.004326 0.000000 0.000000 0.000000
# 2 -0.001409 0.014626 -0.004326 0.000000 0.000000 0.000000
# 3 -0.004326 -0.004326 0.011392 0.000000 0.000000 0.000000
# 4 0.000000 0.000000 0.000000 0.033129 0.000000 0.000000
# 5 0.000000 0.000000 0.000000 0.000000 0.033128 0.000000
# 6 0.000000 0.000000 0.000000 0.000000 0.000000 0.063731
#
#
# Mechanical properties :
#
#
# Convention : Reuss Voigt Hill
#
# Bulk Modulus (GPa) = 48.73207 52.35314 50.54260
# Shear Modulus (GPa) = 25.30435 27.49497 26.39966
#
# Velocity S-wave (km/s) = 3.64435 3.79882 3.72239
# Velocity P-wave (km/s) = 6.57920 6.83517 6.70841
#
# Compressibility (1/GPa) = 0.02052037
#
# Stress axis : x y z
#
# Youngs Moduli (GPa) = 68.37406 68.37299 87.77874
#
# Poissons Ratio (x) = 0.09634 0.37975
# Poissons Ratio (y) = 0.09634 0.37976
# Poissons Ratio (z) = 0.29580 0.29580
#
# Static dielectric constant tensor:
#      x y z
#    x 3.458550 0.000000 0.000000 
#    y 0.000000 3.458550 0.000000 
#    z 0.000000 0.000000 3.996860 
# 
# 
# High freq. dielectric constant tensor:
#      x y z
#    x 1.724880 0.000000 0.000000 
#    y 0.000000 1.724880 0.000000 
#    z 0.000000 0.000000 1.755500 
# 
# From -- ./inp_files/1430.got.cif
#   From: 2010.03.12/outbox.cif.g09.slc.cpg/sg124_1_cif.got.tgz:1430.got - 2010.04.06 16:38:57.
