data_PCOD8313655
_publ_section_title
;
Structure prediction by ZEFSAII (Michael W. Deem and Ramdas Pophale) SiO2 
 PCOD8313655
Probable space group: P 4/N N C
;
_chemical_formula_sum "Si O2"
_cell_formula_units_Z 96
_cell_length_a 23.193679
_cell_length_b 23.193679
_cell_length_c 10.216139
_cell_angle_alpha 90.000000
_cell_angle_beta 90.000000
_cell_angle_gamma 90.000000
_cell_volume 5495.738727
_symmetry_space_group_name_H-M "P 4/N N C"
_symmetry_group_IT_number 126
_space_group.IT_coordinate_system_code '2'
_symmetry_cell_setting 'tetragonal'
loop_
_space_group_symop_operation_xyz
x,y,z
1/2-y,x,z
1/2-x,1/2-y,z
y,1/2-x,z
x,1/2-y,1/2-z
1/2-x,y,1/2-z
y,x,1/2-z
1/2-y,1/2-x,1/2-z
-x,-y,-z
1/2+y,-x,-z
1/2+x,1/2+y,-z
-y,1/2+x,-z
-x,1/2+y,1/2+z
1/2+x,-y,1/2+z
-y,-x,1/2+z
1/2+y,1/2+x,1/2+z
loop_
_atom_site_type_symbol
_atom_site_label
_atom_site_fract_x
_atom_site_fract_y
_atom_site_fract_z
Si Si1 0.751184 0.917676 0.394758
Si Si2 0.130701 0.132874 0.894500
Si Si3 0.436743 0.068661 0.396797
Si Si4 0.512410 0.243671 0.397256
Si Si5 0.939998 0.118916 0.124696
Si Si6 0.627181 0.050970 0.580188
O O1 0.750000 0.946759 0.250000
O O2 0.691148 0.891847 0.440220
O O3 0.797736 0.866050 0.389690
O O4 0.771044 0.962669 0.501975
O O5 0.111110 0.111110 0.750000
O O6 0.084150 0.115568 0.000801
O O7 0.415635 0.084366 0.250000
O O8 0.505768 0.076087 0.400946
O O9 0.411087 0.006875 0.439540
O O10 0.487410 0.250000 0.250000
O O11 0.552853 0.187196 0.404463
O O12 0.541859 0.304118 0.437464
O O13 0.922550 0.113006 0.277320
O O14 0.888991 0.096495 0.032171
#
# Coordination Sequence:
#
# PCOD8313655 Si02
#       6
#    16  16  16  16  16  16
#     4  10  20  33  50  74 103 141 184 223 263 305
#     4  10  20  32  49  74 104 140 183 225 262 305
#     4  10  19  33  54  79 106 140 175 212 263 312
#     4  10  20  36  57  78 104 138 175 215 260 315
#     4  10  21  35  54  81 109 138 173 214 261 313
#     4  10  21  35  54  81 109 138 173 214 261 313
#
# _framework density 17.468078999999999
#
# number of rings (size 3 to 8) (size 9 to 14) (size 15 to 20)
#    0.000    2.000    3.333    0.500    0.000    3.000 
#    0.000    1.667    0.000    0.500    0.000    5.833 
#    0.000    0.000    0.000    0.000    0.000    0.000 
#
# Total GULP energy -1189630.983965 kJ/mol
# GULP energy per Si atom -12391.989416 kJ/mol
# Density = 1.742832 g / cm^3
# Si number density = 17.468079 Si / 1000 Ang^3
#
#
#
# Elastic Constant Matrix: (Units=GPa)
#
#
# Indices 1 2 3 4 5 6 
#
# 1 69.2884 32.3141 41.0219 0.0000 0.0000 0.0000
# 2 32.3141 69.2878 41.0218 0.0000 0.0000 0.0000
# 3 41.0219 41.0218 96.9336 0.0000 0.0000 0.0000
# 4 0.0000 0.0000 0.0000 27.1339 0.0000 0.0000
# 5 0.0000 0.0000 0.0000 0.0000 27.1339 0.0000
# 6 0.0000 0.0000 0.0000 0.0000 0.0000 30.4255
#
#
#
# Elastic Compliance Matrix: (Units=1/GPa)
#
#
# Indices 1 2 3 4 5 6 
#
# 1 0.020999 -0.006047 -0.006327 0.000000 0.000000 0.000000
# 2 -0.006047 0.020999 -0.006328 0.000000 0.000000 0.000000
# 3 -0.006327 -0.006328 0.015672 0.000000 0.000000 0.000000
# 4 0.000000 0.000000 0.000000 0.036854 0.000000 0.000000
# 5 0.000000 0.000000 0.000000 0.000000 0.036854 0.000000
# 6 0.000000 0.000000 0.000000 0.000000 0.000000 0.032867
#
#
# Mechanical properties :
#
#
# Convention : Reuss Voigt Hill
#
# Bulk Modulus (GPa) = 49.34526 51.58058 50.46292
# Shear Modulus (GPa) = 23.99176 25.01545 24.50361
#
# Velocity S-wave (km/s) = 3.71005 3.78837 3.74941
# Velocity P-wave (km/s) = 6.83101 6.98056 6.90619
#
# Compressibility (1/GPa) = 0.02026537
#
# Stress axis : x y z
#
# Youngs Moduli (GPa) = 47.62175 47.62133 63.80855
#
# Poissons Ratio (x) = 0.28797 0.40375
# Poissons Ratio (y) = 0.28797 0.40375
# Poissons Ratio (z) = 0.30133 0.30133
#
# Static dielectric constant tensor:
#      x y z
#    x 3.084390 0.000000 0.000000 
#    y 0.000000 3.084390 0.000000 
#    z 0.000000 0.000000 3.481190 
# 
# 
# High freq. dielectric constant tensor:
#      x y z
#    x 1.656450 0.000000 0.000000 
#    y 0.000000 1.656450 0.000000 
#    z 0.000000 0.000000 1.694540 
# 
# From -- ./inp_files/1746.got.cif
#   From: 2010.03.12/outbox.cif.g09.slc.cpg/sg126_1_cif.got.tgz:1746.got - 2010.04.06 16:55:23.
