data_PCOD8313124
_publ_section_title
;
Structure prediction by ZEFSAII (Michael W. Deem and Ramdas Pophale) SiO2 
 PCOD8313124
Probable space group: P 4/M C C
;
_chemical_formula_sum "Si O2"
_cell_formula_units_Z 96
_cell_length_a 25.074111
_cell_length_b 25.074111
_cell_length_c 9.025940
_cell_angle_alpha 90.000000
_cell_angle_beta 90.000000
_cell_angle_gamma 90.000000
_cell_volume 5674.708146
_symmetry_space_group_name_H-M "P 4/M C C"
_symmetry_group_IT_number 124
_symmetry_cell_setting 'tetragonal'
loop_
_space_group_symop_operation_xyz
x,y,z
-y,x,z
-x,-y,z
y,-x,z
x,-y,1/2-z
-x,y,1/2-z
y,x,1/2-z
-y,-x,1/2-z
-x,-y,-z
y,-x,-z
x,y,-z
-y,x,-z
-x,y,1/2+z
x,-y,1/2+z
-y,-x,1/2+z
y,x,1/2+z
loop_
_atom_site_type_symbol
_atom_site_label
_atom_site_fract_x
_atom_site_fract_y
_atom_site_fract_z
Si Si1 0.761188 0.840288 0.174800
Si Si2 0.243146 0.553509 0.827550
Si Si3 0.364295 0.051563 0.333898
Si Si4 0.762655 0.947796 0.667861
Si Si5 0.554891 0.365724 0.675310
Si Si6 0.157271 0.361830 0.672912
O O1 0.791869 0.791869 0.250000
O O2 0.782135 0.895798 0.243183
O O3 0.699313 0.831034 0.214205
O O4 0.771559 0.841034 0.000000
O O5 0.222432 0.500000 0.750000
O O6 0.304129 0.565794 0.785790
O O7 0.207867 0.603569 0.774592
O O8 0.236673 0.543558 0.000000
O O9 0.386721 0.050931 0.500000
O O10 0.300764 0.049611 0.332163
O O11 0.384305 0.105214 0.255163
O O12 0.387674 0.000000 0.250000
O O13 0.784702 0.945725 0.500000
O O14 0.785975 0.000000 0.750000
O O15 0.500000 0.385039 0.750000
O O16 0.602786 0.397215 0.750000
O O17 0.552519 0.376402 0.500000
O O18 0.145848 0.367667 0.500000
#
# Coordination Sequence:
#
# PCOD8313124 Si02
#       6
#    16  16  16  16  16  16
#     4  10  19  30  44  65  96 129 158 192 234 279
#     4   9  19  35  53  72  95 124 158 195 233 276
#     4   9  16  26  43  67  92 119 153 193 235 279
#     4   9  16  27  43  63  88 120 158 195 232 277
#     4  10  20  35  54  76 100 125 154 189 231 278
#     4   9  18  32  48  67  93 125 158 192 234 282
#
# _framework density 16.917169000000001
#
# number of rings (size 3 to 8) (size 9 to 14) (size 15 to 20)
#    0.000    2.667    0.000    2.000    0.000    6.833 
#    0.000    0.833    0.000    0.500    0.000    3.500 
#    0.000    0.333    0.000    3.333    0.000    2.333 
#
# Total GULP energy -1190461.918228 kJ/mol
# GULP energy per Si atom -12400.644982 kJ/mol
# Density = 1.687867 g / cm^3
# Si number density = 16.917169 Si / 1000 Ang^3
#
#
#
# Elastic Constant Matrix: (Units=GPa)
#
#
# Indices 1 2 3 4 5 6 
#
# 1 93.2011 62.5581 53.8810 0.0000 0.0000 0.0000
# 2 62.5581 93.2065 53.8818 0.0000 0.0000 0.0000
# 3 53.8810 53.8818 101.6175 0.0000 0.0000 0.0000
# 4 0.0000 0.0000 0.0000 27.2714 0.0000 0.0000
# 5 0.0000 0.0000 0.0000 0.0000 27.2712 0.0000
# 6 0.0000 0.0000 0.0000 0.0000 0.0000 3.4192
#
#
#
# Elastic Compliance Matrix: (Units=1/GPa)
#
#
# Indices 1 2 3 4 5 6 
#
# 1 0.021386 -0.011246 -0.005377 0.000000 0.000000 0.000000
# 2 -0.011246 0.021385 -0.005376 0.000000 0.000000 0.000000
# 3 -0.005377 -0.005376 0.015542 0.000000 0.000000 0.000000
# 4 0.000000 0.000000 0.000000 0.036669 0.000000 0.000000
# 5 0.000000 0.000000 0.000000 0.000000 0.036669 0.000000
# 6 0.000000 0.000000 0.000000 0.000000 0.000000 0.292463
#
#
# Mechanical properties :
#
#
# Convention : Reuss Voigt Hill
#
# Bulk Modulus (GPa) = 69.85180 69.85191 69.85185
# Shear Modulus (GPa) = 10.57345 19.43930 15.00637
#
# Velocity S-wave (km/s) = 2.50274 3.39350 2.98157
# Velocity P-wave (km/s) = 7.05207 7.53224 7.29611
#
# Compressibility (1/GPa) = 0.01431602
#
# Stress axis : x y z
#
# Youngs Moduli (GPa) = 46.75921 46.76253 64.33998
#
# Poissons Ratio (x) = 0.52588 0.34594
# Poissons Ratio (y) = 0.52584 0.34590
# Poissons Ratio (z) = 0.25141 0.25140
#
# Static dielectric constant tensor:
#      x y z
#    x 3.101670 0.000000 0.000000 
#    y 0.000000 3.101670 0.000000 
#    z 0.000000 0.000000 3.309620 
# 
# 
# High freq. dielectric constant tensor:
#      x y z
#    x 1.633610 0.000000 0.000000 
#    y 0.000000 1.633610 0.000000 
#    z 0.000000 0.000000 1.666390 
# 
# From -- ./inp_files/1333.got.cif
#   From: 2010.03.12/outbox.cif.g09.slc.cpg/sg124_1_cif.got.tgz:1333.got - 2010.04.06 16:38:57.
