data_PCOD8313752
_publ_section_title
;
Structure prediction by ZEFSAII (Michael W. Deem and Ramdas Pophale) SiO2 
 PCOD8313752
Probable space group: P 4/N N C
;
_chemical_formula_sum "Si O2"
_cell_formula_units_Z 80
_cell_length_a 11.504988
_cell_length_b 11.504988
_cell_length_c 29.776523
_cell_angle_alpha 90.000000
_cell_angle_beta 90.000000
_cell_angle_gamma 90.000000
_cell_volume 3941.361989
_symmetry_space_group_name_H-M "P 4/N N C"
_symmetry_group_IT_number 126
_space_group.IT_coordinate_system_code '2'
_symmetry_cell_setting 'tetragonal'
loop_
_space_group_symop_operation_xyz
x,y,z
1/2-y,x,z
1/2-x,1/2-y,z
y,1/2-x,z
x,1/2-y,1/2-z
1/2-x,y,1/2-z
y,x,1/2-z
1/2-y,1/2-x,1/2-z
-x,-y,-z
1/2+y,-x,-z
1/2+x,1/2+y,-z
-y,1/2+x,-z
-x,1/2+y,1/2+z
1/2+x,-y,1/2+z
-y,-x,1/2+z
1/2+y,1/2+x,1/2+z
loop_
_atom_site_type_symbol
_atom_site_label
_atom_site_fract_x
_atom_site_fract_y
_atom_site_fract_z
Si Si1 0.603936 0.635507 0.197454
Si Si2 0.253428 0.612179 0.567221
Si Si3 0.940237 0.753679 0.986688
Si Si4 0.408997 0.951814 0.365296
Si Si5 0.170334 0.972185 0.393230
O O1 0.730354 0.589932 0.181808
O O2 0.608196 0.608196 0.250000
O O3 0.492793 0.569794 0.177057
O O4 0.250000 0.750000 0.559281
O O5 0.251237 0.549363 0.519611
O O6 0.362999 0.561665 0.594429
O O7 0.137568 0.586232 0.596474
O O8 0.862695 0.867201 0.995096
O O9 0.991228 0.754142 0.936748
O O10 0.269460 0.941254 0.355491
O O11 0.424982 0.086665 0.378327
#
# Coordination Sequence:
#
# PCOD8313752 Si02
#       5
#    16  16  16  16  16
#     4   9  19  39  69  99 124 151 187 241 308 371
#     4  10  24  36  55  84 115 155 204 263 313 358
#     4  11  23  39  56  77 111 159 216 259 306 359
#     4  11  22  39  58  85 121 158 202 248 308 371
#     4  11  23  37  57  81 115 161 207 252 308 363
#
# _framework density 20.297552
#
# number of rings (size 3 to 8) (size 9 to 14) (size 15 to 20)
#    0.000    1.600    2.000    3.000    5.600    2.000 
#    0.000    3.000    0.000    2.400    0.000    1.400 
#    0.000    0.000    0.000    0.000    0.000    0.000 
#
# Total GULP energy -991448.086608 kJ/mol
# GULP energy per Si atom -12393.101083 kJ/mol
# Density = 2.025135 g / cm^3
# Si number density = 20.297552 Si / 1000 Ang^3
#
#
#
# Elastic Constant Matrix: (Units=GPa)
#
#
# Indices 1 2 3 4 5 6 
#
# 1 104.2552 33.6715 39.7120 0.0000 0.0000 0.0000
# 2 33.6715 104.2552 39.7120 0.0000 0.0000 0.0000
# 3 39.7120 39.7120 56.1576 0.0000 0.0000 0.0000
# 4 0.0000 0.0000 0.0000 28.1497 0.0000 0.0000
# 5 0.0000 0.0000 0.0000 0.0000 28.1497 0.0000
# 6 0.0000 0.0000 0.0000 0.0000 0.0000 35.0603
#
#
#
# Elastic Compliance Matrix: (Units=1/GPa)
#
#
# Indices 1 2 3 4 5 6 
#
# 1 0.013199 -0.000968 -0.008649 0.000000 0.000000 0.000000
# 2 -0.000968 0.013199 -0.008649 0.000000 0.000000 0.000000
# 3 -0.008649 -0.008649 0.030039 0.000000 0.000000 0.000000
# 4 0.000000 0.000000 0.000000 0.035524 0.000000 0.000000
# 5 0.000000 0.000000 0.000000 0.000000 0.035524 0.000000
# 6 0.000000 0.000000 0.000000 0.000000 0.000000 0.028522
#
#
# Mechanical properties :
#
#
# Convention : Reuss Voigt Hill
#
# Bulk Modulus (GPa) = 50.23912 54.53991 52.38952
# Shear Modulus (GPa) = 25.10342 28.37678 26.74010
#
# Velocity S-wave (km/s) = 3.52059 3.74309 3.63355
# Velocity P-wave (km/s) = 6.42893 6.75348 6.59320
#
# Compressibility (1/GPa) = 0.01990481
#
# Stress axis : x y z
#
# Youngs Moduli (GPa) = 75.76270 75.76270 33.28979
#
# Poissons Ratio (x) = 0.07337 0.28792
# Poissons Ratio (y) = 0.07337 0.28792
# Poissons Ratio (z) = 0.65527 0.65527
#
# Static dielectric constant tensor:
#      x y z
#    x 3.897150 0.000000 0.000000 
#    y 0.000000 3.897150 0.000000 
#    z 0.000000 0.000000 3.241090 
# 
# 
# High freq. dielectric constant tensor:
#      x y z
#    x 1.806510 0.000000 0.000000 
#    y 0.000000 1.806510 0.000000 
#    z 0.000000 0.000000 1.746950 
# 
# From -- ./inp_files/6443.got.cif
#   From: 2010.03.12/outbox.cif.g09.slc.cpg/sg126_4_cif.got.tgz:6443.got - 2010.04.06 16:55:23.
