data_PCOD8313441
_publ_section_title
;
Structure prediction by ZEFSAII (Michael W. Deem and Ramdas Pophale) SiO2 
 PCOD8313441
Probable space group: P 4/N B M
;
_chemical_formula_sum "Si O2"
_cell_formula_units_Z 104
_cell_length_a 17.790067
_cell_length_b 17.790067
_cell_length_c 18.798712
_cell_angle_alpha 90.000000
_cell_angle_beta 90.000000
_cell_angle_gamma 90.000000
_cell_volume 5949.538262
_symmetry_space_group_name_H-M "P 4/N B M"
_symmetry_group_IT_number 125
_space_group.IT_coordinate_system_code '2'
_symmetry_cell_setting 'tetragonal'
loop_
_space_group_symop_operation_xyz
x,y,z
1/2-y,x,z
1/2-x,1/2-y,z
y,1/2-x,z
x,1/2-y,-z
1/2-x,y,-z
y,x,-z
1/2-y,1/2-x,-z
-x,-y,-z
1/2+y,-x,-z
1/2+x,1/2+y,-z
-y,1/2+x,-z
-x,1/2+y,z
1/2+x,-y,z
-y,-x,z
1/2+y,1/2+x,z
loop_
_atom_site_type_symbol
_atom_site_label
_atom_site_fract_x
_atom_site_fract_y
_atom_site_fract_z
Si Si1 0.951564 0.840200 0.143757
Si Si2 0.168956 0.459972 0.129300
Si Si3 0.534436 0.913314 0.710683
Si Si4 0.652809 0.030267 0.723727
Si Si5 0.954912 0.162741 0.991261
Si Si6 0.129458 0.750000 0.500000
Si Si7 0.306275 0.570222 0.356058
O O1 0.873759 0.883091 0.140055
O O2 0.934052 0.754289 0.128510
O O3 0.979324 0.856272 0.223569
O O4 0.011256 0.864978 0.083912
O O5 0.156691 0.522009 0.190944
O O6 0.137487 0.491602 0.055389
O O7 0.500002 0.865377 0.645044
O O8 0.486665 0.986665 0.729367
O O9 0.618053 0.948768 0.695799
O O10 0.599334 0.099334 0.702416
O O11 0.735034 0.050751 0.693690
O O12 0.874212 0.125789 0.999703
O O13 0.940213 0.250000 0.000000
O O14 0.181508 0.818493 0.527263
O O15 0.076379 0.723560 0.563868
O O16 0.352308 0.647693 0.334378
#
# Coordination Sequence:
#
# PCOD8313441 Si02
#       7
#    16  16  16  16  16   8  16
#     4  10  19  33  51  72  99 131 169 215 256 305
#     4  10  20  33  50  73 100 131 172 213 257 307
#     4   9  18  32  51  74 102 137 172 212 258 304
#     4  10  19  32  51  76 106 135 171 219 261 304
#     4  10  21  35  51  71  97 132 171 212 261 315
#     4   9  18  32  52  80 110 139 172 212 258 311
#     4  10  19  34  55  77 105 139 173 208 257 316
#
# _framework density 17.480347999999999
#
# number of rings (size 3 to 8) (size 9 to 14) (size 15 to 20)
#    0.000    2.231    1.538    1.846    0.000    3.846 
#    0.000    0.769    0.000    8.769    0.000    0.000 
#    0.000    1.231    0.000    0.000    0.000    0.000 
#
# Total GULP energy -1288406.392505 kJ/mol
# GULP energy per Si atom -12388.523005 kJ/mol
# Density = 1.744056 g / cm^3
# Si number density = 17.480348 Si / 1000 Ang^3
#
#
#
# Elastic Constant Matrix: (Units=GPa)
#
#
# Indices 1 2 3 4 5 6 
#
# 1 75.9554 51.2488 39.0331 0.0000 0.0000 0.0000
# 2 51.2488 75.9554 39.0331 0.0000 0.0000 0.0000
# 3 39.0331 39.0331 81.2389 0.0000 0.0000 0.0000
# 4 0.0000 0.0000 0.0000 25.5858 0.0000 0.0000
# 5 0.0000 0.0000 0.0000 0.0000 25.5858 0.0000
# 6 0.0000 0.0000 0.0000 0.0000 0.0000 31.6703
#
#
#
# Elastic Compliance Matrix: (Units=1/GPa)
#
#
# Indices 1 2 3 4 5 6 
#
# 1 0.025812 -0.014663 -0.005357 0.000000 0.000000 0.000000
# 2 -0.014663 0.025812 -0.005357 0.000000 0.000000 0.000000
# 3 -0.005357 -0.005357 0.017457 0.000000 0.000000 0.000000
# 4 0.000000 0.000000 0.000000 0.039084 0.000000 0.000000
# 5 0.000000 0.000000 0.000000 0.000000 0.039084 0.000000
# 6 0.000000 0.000000 0.000000 0.000000 0.000000 0.031575
#
#
# Mechanical properties :
#
#
# Convention : Reuss Voigt Hill
#
# Bulk Modulus (GPa) = 54.56221 54.64217 54.60219
# Shear Modulus (GPa) = 21.21464 23.49072 22.35268
#
# Velocity S-wave (km/s) = 3.48750 3.66981 3.57982
# Velocity P-wave (km/s) = 6.89188 7.02024 6.95636
#
# Compressibility (1/GPa) = 0.01832770
#
# Stress axis : x y z
#
# Youngs Moduli (GPa) = 38.74187 38.74187 57.28406
#
# Poissons Ratio (x) = 0.56807 0.30685
# Poissons Ratio (y) = 0.56807 0.30685
# Poissons Ratio (z) = 0.20753 0.20753
#
# Static dielectric constant tensor:
#      x y z
#    x 3.271330 0.000000 0.000000 
#    y 0.000000 3.271330 0.000000 
#    z 0.000000 0.000000 3.358200 
# 
# 
# High freq. dielectric constant tensor:
#      x y z
#    x 1.674560 0.000000 0.000000 
#    y 0.000000 1.674560 0.000000 
#    z 0.000000 0.000000 1.662490 
# 
# From -- ./inp_files/5494.got.cif
#   From: 2010.03.12/outbox.cif.g09.slc.cpg/sg125_3_cif.got.tgz:5494.got - 2010.04.06 16:47:52.
