data_PCOD8313273
_publ_section_title
;
Structure prediction by ZEFSAII (Michael W. Deem and Ramdas Pophale) SiO2 
 PCOD8313273
Probable space group: P 4/M C C
;
_chemical_formula_sum "Si O2"
_cell_formula_units_Z 96
_cell_length_a 23.979677
_cell_length_b 23.979677
_cell_length_c 8.736356
_cell_angle_alpha 90.000000
_cell_angle_beta 90.000000
_cell_angle_gamma 90.000000
_cell_volume 5023.622314
_symmetry_space_group_name_H-M "P 4/M C C"
_symmetry_group_IT_number 124
_symmetry_cell_setting 'tetragonal'
loop_
_space_group_symop_operation_xyz
x,y,z
-y,x,z
-x,-y,z
y,-x,z
x,-y,1/2-z
-x,y,1/2-z
y,x,1/2-z
-y,-x,1/2-z
-x,-y,-z
y,-x,-z
x,y,-z
-y,x,-z
-x,y,1/2+z
x,-y,1/2+z
-y,-x,1/2+z
y,x,1/2+z
loop_
_atom_site_type_symbol
_atom_site_label
_atom_site_fract_x
_atom_site_fract_y
_atom_site_fract_z
Si Si1 0.557383 0.060125 0.318764
Si Si2 0.848205 0.766064 0.820489
Si Si3 0.852604 0.361499 0.318804
Si Si4 0.556775 0.638138 0.825195
Si Si5 0.144671 0.060934 0.318773
Si Si6 0.231124 0.557981 0.177409
O O1 0.500000 0.085095 0.250000
O O2 0.551973 0.056440 0.500000
O O3 0.608908 0.097894 0.271381
O O4 0.569182 0.000000 0.250000
O O5 0.792680 0.792680 0.750000
O O6 0.853320 0.702578 0.763851
O O7 0.902908 0.801064 0.770581
O O8 0.840495 0.768188 0.000000
O O9 0.861192 0.366856 0.500000
O O10 0.794972 0.390214 0.268530
O O11 0.500000 0.616199 0.750000
O O12 0.609947 0.609947 0.750000
O O13 0.564242 0.703445 0.800841
O O14 0.554229 0.620840 0.000000
O O15 0.089221 0.089221 0.250000
O O16 0.137930 0.056947 0.500000
O O17 0.152741 0.000000 0.250000
O O18 0.209880 0.500000 0.250000
O O19 0.212849 0.559198 0.000000
#
# Coordination Sequence:
#
# PCOD8313273 Si02
#       6
#    16  16  16  16  16  16
#     4  11  22  38  58  82 113 148 184 228 278 329
#     4   9  21  39  58  80 111 147 185 227 274 322
#     4  11  22  37  57  83 112 146 187 229 272 328
#     4  10  21  37  57  80 109 141 179 223 274 331
#     4  10  20  37  59  85 114 147 183 223 269 317
#     4  10  21  37  56  80 108 142 181 227 278 328
#
# _framework density 19.109715000000001
#
# number of rings (size 3 to 8) (size 9 to 14) (size 15 to 20)
#    0.000    1.833    0.000    4.500    0.000    5.667 
#    0.000    6.667    0.000    0.000    0.000    0.000 
#    0.000    0.000    0.000    0.000    0.000    0.000 
#
# Total GULP energy -1190736.553519 kJ/mol
# GULP energy per Si atom -12403.505766 kJ/mol
# Density = 1.906622 g / cm^3
# Si number density = 19.109715 Si / 1000 Ang^3
#
#
#
# Elastic Constant Matrix: (Units=GPa)
#
#
# Indices 1 2 3 4 5 6 
#
# 1 127.6016 66.3300 56.6550 0.0000 0.0000 0.0000
# 2 66.3300 127.6016 56.6550 0.0000 0.0000 0.0000
# 3 56.6550 56.6550 118.6811 0.0000 0.0000 0.0000
# 4 0.0000 0.0000 0.0000 34.0807 0.0000 0.0000
# 5 0.0000 0.0000 0.0000 0.0000 34.0807 0.0000
# 6 0.0000 0.0000 0.0000 0.0000 0.0000 -3.6771
#
#
#
# Elastic Compliance Matrix: (Units=1/GPa)
#
#
# Indices 1 2 3 4 5 6 
#
# 1 0.011736 -0.004585 -0.003414 0.000000 0.000000 0.000000
# 2 -0.004585 0.011736 -0.003414 0.000000 0.000000 0.000000
# 3 -0.003414 -0.003414 0.011685 0.000000 0.000000 0.000000
# 4 0.000000 0.000000 0.000000 0.029342 0.000000 0.000000
# 5 0.000000 0.000000 0.000000 0.000000 0.029342 0.000000
# 6 0.000000 0.000000 0.000000 0.000000 0.000000 -0.271950
#
#
# Mechanical properties :
#
#
# Convention : Reuss Voigt Hill
#
# Bulk Modulus (GPa) = 81.08726 81.46270 81.27498
# Shear Modulus (GPa) = -33.07455 25.84645 -3.61405
#
# Velocity S-wave (km/s) = -4.16477 3.68166 -1.37670
# Velocity P-wave (km/s) = 4.40426 7.79707 6.33214
#
# Compressibility (1/GPa) = 0.01233239
#
# Stress axis : x y z
#
# Youngs Moduli (GPa) = 85.20873 85.20873 85.57878
#
# Poissons Ratio (x) = 0.39067 0.29214
# Poissons Ratio (y) = 0.39067 0.29214
# Poissons Ratio (z) = 0.29088 0.29088
#
# Static dielectric constant tensor:
#      x y z
#    x 3.566110 0.000000 0.000000 
#    y 0.000000 3.566110 0.000000 
#    z 0.000000 0.000000 3.641990 
# 
# 
# High freq. dielectric constant tensor:
#      x y z
#    x 1.746560 0.000000 0.000000 
#    y 0.000000 1.746560 0.000000 
#    z 0.000000 0.000000 1.757530 
# 
# From -- ./inp_files/1357.got.cif
#   From: 2010.03.12/outbox.cif.g09.slc.cpg/sg124_1_cif.got.tgz:1357.got - 2010.04.06 16:38:57.
