data_PCOD8313677
_publ_section_title
;
Structure prediction by ZEFSAII (Michael W. Deem and Ramdas Pophale) SiO2 
 PCOD8313677
Probable space group: P 4/N N C
;
_chemical_formula_sum "Si O2"
_cell_formula_units_Z 112
_cell_length_a 14.426165
_cell_length_b 14.426165
_cell_length_c 27.584337
_cell_angle_alpha 90.000000
_cell_angle_beta 90.000000
_cell_angle_gamma 90.000000
_cell_volume 5740.693237
_symmetry_space_group_name_H-M "P 4/N N C"
_symmetry_group_IT_number 126
_space_group.IT_coordinate_system_code '2'
_symmetry_cell_setting 'tetragonal'
loop_
_space_group_symop_operation_xyz
x,y,z
1/2-y,x,z
1/2-x,1/2-y,z
y,1/2-x,z
x,1/2-y,1/2-z
1/2-x,y,1/2-z
y,x,1/2-z
1/2-y,1/2-x,1/2-z
-x,-y,-z
1/2+y,-x,-z
1/2+x,1/2+y,-z
-y,1/2+x,-z
-x,1/2+y,1/2+z
1/2+x,-y,1/2+z
-y,-x,1/2+z
1/2+y,1/2+x,1/2+z
loop_
_atom_site_type_symbol
_atom_site_label
_atom_site_fract_x
_atom_site_fract_y
_atom_site_fract_z
Si Si1 0.768465 0.899816 0.048584
Si Si2 0.719014 0.028750 0.129351
Si Si3 0.550814 0.668532 0.219974
Si Si4 0.323797 0.565088 0.132914
Si Si5 0.170345 0.681334 0.684678
Si Si6 0.780711 0.898067 0.937223
Si Si7 0.030275 0.893072 0.735069
O O1 0.670122 0.851806 0.060010
O O2 0.771839 0.992252 0.081608
O O3 0.779650 0.929866 0.993018
O O4 0.627598 0.088527 0.115954
O O5 0.786582 0.087403 0.164006
O O6 0.694893 0.938082 0.163060
O O7 0.500259 0.750000 0.250000
O O8 0.645316 0.645316 0.250000
O O9 0.485696 0.580490 0.218388
O O10 0.232415 0.628404 0.137244
O O11 0.306375 0.486592 0.093888
O O12 0.332216 0.520721 0.186697
O O13 0.250000 0.750000 0.706997
O O14 0.089667 0.660319 0.724019
O O15 0.679394 0.857690 0.925476
O O16 0.925836 0.925836 0.750000
#
# Coordination Sequence:
#
# PCOD8313677 Si02
#       7
#    16  16  16  16  16  16  16
#     4   9  20  40  63  85 113 154 197 239 292 355
#     4  10  21  36  58  85 119 151 197 239 289 345
#     4  10  20  32  47  74 112 154 187 228 276 333
#     4  10  22  36  59  88 112 149 198 236 295 356
#     4  10  21  38  59  83 118 165 194 230 295 369
#     4   9  20  43  65  81 111 151 192 243 306 358
#     4  10  21  34  54  84 115 147 195 246 281 338
#
# _framework density 19.509838999999999
#
# number of rings (size 3 to 8) (size 9 to 14) (size 15 to 20)
#    0.000    2.286    1.429    1.286    4.000    4.143 
#    2.571    1.429    0.000    0.000    0.000    0.000 
#    0.000    0.000    0.000    0.000    0.000    0.000 
#
# Total GULP energy -1387497.521541 kJ/mol
# GULP energy per Si atom -12388.370728 kJ/mol
# Density = 1.946543 g / cm^3
# Si number density = 19.509839 Si / 1000 Ang^3
#
#
#
# Elastic Constant Matrix: (Units=GPa)
#
#
# Indices 1 2 3 4 5 6 
#
# 1 80.8737 29.4619 56.4480 0.0000 0.0000 0.0000
# 2 29.4619 80.8737 56.4480 0.0000 0.0000 0.0000
# 3 56.4480 56.4480 122.6327 0.0000 0.0000 0.0000
# 4 0.0000 0.0000 0.0000 23.5204 0.0000 0.0000
# 5 0.0000 0.0000 0.0000 0.0000 23.5204 0.0000
# 6 0.0000 0.0000 0.0000 0.0000 0.0000 19.4566
#
#
#
# Elastic Compliance Matrix: (Units=1/GPa)
#
#
# Indices 1 2 3 4 5 6 
#
# 1 0.018292 -0.001159 -0.007886 0.000000 0.000000 0.000000
# 2 -0.001159 0.018292 -0.007886 0.000000 0.000000 0.000000
# 3 -0.007886 -0.007886 0.015414 0.000000 0.000000 0.000000
# 4 0.000000 0.000000 0.000000 0.042516 0.000000 0.000000
# 5 0.000000 0.000000 0.000000 0.000000 0.042516 0.000000
# 6 0.000000 0.000000 0.000000 0.000000 0.000000 0.051396
#
#
# Mechanical properties :
#
#
# Convention : Reuss Voigt Hill
#
# Bulk Modulus (GPa) = 55.14254 63.23285 59.18770
# Shear Modulus (GPa) = 21.89778 22.76764 22.33271
#
# Velocity S-wave (km/s) = 3.35385 3.41982 3.38700
# Velocity P-wave (km/s) = 6.58203 6.93359 6.76009
#
# Compressibility (1/GPa) = 0.01813482
#
# Stress axis : x y z
#
# Youngs Moduli (GPa) = 54.67012 54.67012 64.87483
#
# Poissons Ratio (x) = 0.06338 0.51160
# Poissons Ratio (y) = 0.06338 0.51160
# Poissons Ratio (z) = 0.43113 0.43113
#
# Static dielectric constant tensor:
#      x y z
#    x 3.613750 0.000000 0.000000 
#    y 0.000000 3.613750 0.000000 
#    z 0.000000 0.000000 3.513650 
# 
# 
# High freq. dielectric constant tensor:
#      x y z
#    x 1.750210 0.000000 0.000000 
#    y 0.000000 1.750210 0.000000 
#    z 0.000000 0.000000 1.752790 
# 
# From -- ./inp_files/5851.got.cif
#   From: 2010.03.12/outbox.cif.g09.slc.cpg/sg126_3_cif.got.tgz:5851.got - 2010.04.06 16:55:23.
