data_PCOD8313995
_publ_section_title
;
Structure prediction by ZEFSAII (Michael W. Deem and Ramdas Pophale) SiO2 
 PCOD8313995
Probable space group: P 4/M B M
;
_chemical_formula_sum "Si O2"
_cell_formula_units_Z 96
_cell_length_a 24.339950
_cell_length_b 24.339950
_cell_length_c 8.901014
_cell_angle_alpha 90.000000
_cell_angle_beta 90.000000
_cell_angle_gamma 90.000000
_cell_volume 5273.255905
_symmetry_space_group_name_H-M "P 4/M B M"
_symmetry_group_IT_number 127
_symmetry_cell_setting 'tetragonal'
loop_
_space_group_symop_operation_xyz
x,y,z
-y,x,z
-x,-y,z
y,-x,z
1/2+x,1/2-y,-z
1/2-x,1/2+y,-z
1/2+y,1/2+x,-z
1/2-y,1/2-x,-z
-x,-y,-z
y,-x,-z
x,y,-z
-y,x,-z
1/2-x,1/2+y,z
1/2+x,1/2-y,z
1/2-y,1/2-x,z
1/2+y,1/2+x,z
loop_
_atom_site_type_symbol
_atom_site_label
_atom_site_fract_x
_atom_site_fract_y
_atom_site_fract_z
Si Si1 0.338723 0.016476 0.832799
Si Si2 0.910933 0.676137 0.671627
Si Si3 0.302054 0.418338 0.324143
Si Si4 0.377237 0.122764 0.324088
Si Si5 0.151106 0.813080 0.178641
Si Si6 0.709271 0.471891 0.168596
Si Si7 0.710961 0.789040 0.679886
O O1 0.364248 0.061803 0.726582
O O2 0.273928 0.021670 0.830701
O O3 0.354701 0.956610 0.770964
O O4 0.362533 0.023643 0.000000
O O5 0.930120 0.670870 0.500000
O O6 0.852522 0.647478 0.700852
O O7 0.904334 0.739299 0.715923
O O8 0.314996 0.412524 0.500000
O O9 0.336843 0.374987 0.229296
O O10 0.317263 0.480384 0.272053
O O11 0.374061 0.125940 0.500000
O O12 0.333401 0.166600 0.259175
O O13 0.088568 0.803260 0.233034
O O14 0.192866 0.770426 0.257707
O O15 0.156922 0.806329 0.000000
O O16 0.685663 0.478257 0.000000
O O17 0.714223 0.785778 0.500000
#
# Coordination Sequence:
#
# PCOD8313995 Si02
#       7
#    16  16  16   8  16  16   8
#     4  10  19  33  53  76 103 136 181 227 269 321
#     4   9  19  36  54  73 104 143 181 222 270 323
#     4  10  21  35  56  84 112 145 183 223 270 324
#     4  11  21  33  52  78 107 141 177 220 275 329
#     4  11  22  37  57  83 116 149 183 225 274 327
#     4   9  19  36  56  77 107 146 184 221 267 326
#     4  11  23  35  53  82 116 147 181 224 275 328
#
# _framework density 18.205072000000001
#
# number of rings (size 3 to 8) (size 9 to 14) (size 15 to 20)
#    0.000    2.000    1.667    2.000    1.167    3.667 
#    0.000    0.417    0.000    3.000    0.000    3.500 
#    0.000    0.000    0.000    0.000    0.000    0.000 
#
# Total GULP energy -1190437.456544 kJ/mol
# GULP energy per Si atom -12400.390172 kJ/mol
# Density = 1.816364 g / cm^3
# Si number density = 18.205072 Si / 1000 Ang^3
#
#
#
# Elastic Constant Matrix: (Units=GPa)
#
#
# Indices 1 2 3 4 5 6 
#
# 1 94.8247 21.1249 31.9965 0.0000 0.0000 0.0000
# 2 21.1249 94.8228 31.9936 0.0000 0.0000 0.0000
# 3 31.9965 31.9936 70.7054 0.0000 0.0000 0.0000
# 4 0.0000 0.0000 0.0000 29.5571 0.0000 0.0000
# 5 0.0000 0.0000 0.0000 0.0000 29.5572 0.0000
# 6 0.0000 0.0000 0.0000 0.0000 0.0000 19.6274
#
#
#
# Elastic Compliance Matrix: (Units=1/GPa)
#
#
# Indices 1 2 3 4 5 6 
#
# 1 0.012532 -0.001037 -0.005202 0.000000 0.000000 0.000000
# 2 -0.001037 0.012532 -0.005201 0.000000 0.000000 0.000000
# 3 -0.005202 -0.005201 0.018851 0.000000 0.000000 0.000000
# 4 0.000000 0.000000 0.000000 0.033833 0.000000 0.000000
# 5 0.000000 0.000000 0.000000 0.000000 0.033833 0.000000
# 6 0.000000 0.000000 0.000000 0.000000 0.000000 0.050949
#
#
# Mechanical properties :
#
#
# Convention : Reuss Voigt Hill
#
# Bulk Modulus (GPa) = 47.54108 47.84255 47.69181
# Shear Modulus (GPa) = 25.98461 27.43087 26.70774
#
# Velocity S-wave (km/s) = 3.78210 3.88593 3.83436
# Velocity P-wave (km/s) = 6.72631 6.81694 6.77178
#
# Compressibility (1/GPa) = 0.02103444
#
# Stress axis : x y z
#
# Youngs Moduli (GPa) = 79.79537 79.79609 53.04784
#
# Poissons Ratio (x) = 0.08273 0.27596
# Poissons Ratio (y) = 0.08273 0.27593
# Poissons Ratio (z) = 0.41510 0.41506
#
# Static dielectric constant tensor:
#      x y z
#    x 4.453760 0.000000 0.000000 
#    y 0.000000 4.453940 0.000000 
#    z 0.000000 0.000000 3.506880 
# 
# 
# High freq. dielectric constant tensor:
#      x y z
#    x 1.694320 0.000000 0.000000 
#    y 0.000000 1.694310 0.000000 
#    z 0.000000 0.000000 1.713840 
# 
# From -- ./inp_files/2108.got.cif
#   From: 2010.03.12/outbox.cif.g09.slc.cpg/sg127_2_cif.got.tgz:2108.got - 2010.04.06 17:03:15.
