data_PCOD8313735
_publ_section_title
;
Structure prediction by ZEFSAII (Michael W. Deem and Ramdas Pophale) SiO2 
 PCOD8313735
Probable space group: P 4/N N C
;
_chemical_formula_sum "Si O2"
_cell_formula_units_Z 96
_cell_length_a 25.791994
_cell_length_b 25.791994
_cell_length_c 7.588852
_cell_angle_alpha 90.000000
_cell_angle_beta 90.000000
_cell_angle_gamma 90.000000
_cell_volume 5048.308904
_symmetry_space_group_name_H-M "P 4/N N C"
_symmetry_group_IT_number 126
_space_group.IT_coordinate_system_code '2'
_symmetry_cell_setting 'tetragonal'
loop_
_space_group_symop_operation_xyz
x,y,z
1/2-y,x,z
1/2-x,1/2-y,z
y,1/2-x,z
x,1/2-y,1/2-z
1/2-x,y,1/2-z
y,x,1/2-z
1/2-y,1/2-x,1/2-z
-x,-y,-z
1/2+y,-x,-z
1/2+x,1/2+y,-z
-y,1/2+x,-z
-x,1/2+y,1/2+z
1/2+x,-y,1/2+z
-y,-x,1/2+z
1/2+y,1/2+x,1/2+z
loop_
_atom_site_type_symbol
_atom_site_label
_atom_site_fract_x
_atom_site_fract_y
_atom_site_fract_z
Si Si1 0.359842 0.552639 0.027579
Si Si2 0.266738 0.326729 0.448876
Si Si3 0.573586 0.710286 0.114793
Si Si4 0.530916 0.254872 0.049404
Si Si5 0.476392 0.108009 0.727540
Si Si6 0.633068 0.058727 0.935435
O O1 0.382088 0.505900 0.910912
O O2 0.385984 0.606223 0.966025
O O3 0.298128 0.559549 0.991115
O O4 0.372683 0.540481 0.232179
O O5 0.210913 0.311039 0.534473
O O6 0.250000 0.317249 0.250000
O O7 0.289703 0.384923 0.458719
O O8 0.600346 0.750000 0.250000
O O9 0.565126 0.653172 0.192338
O O10 0.520144 0.737412 0.063162
O O11 0.513340 0.250000 0.250000
O O12 0.566716 0.305833 0.019899
O O13 0.446496 0.053505 0.750000
O O14 0.516003 0.106010 0.561603
#
# Coordination Sequence:
#
# PCOD8313735 Si02
#       6
#    16  16  16  16  16  16
#     4  11  20  41  62  87 123 156 200 244 297 362
#     4   9  20  37  55  77 109 152 196 247 310 366
#     4  11  21  34  56  80 111 145 194 248 293 347
#     4   9  20  37  60  85 113 149 193 240 288 353
#     4  11  25  40  57  89 121 157 203 247 304 355
#     4  10  22  39  63  90 117 161 198 240 304 357
#
# _framework density 19.016269000000001
#
# number of rings (size 3 to 8) (size 9 to 14) (size 15 to 20)
#    0.000    1.833    3.333    1.000    2.333    1.333 
#    0.000    0.833    0.000    0.500    0.000    3.500 
#    0.000    0.000    0.000    0.000    0.000    0.000 
#
# Total GULP energy -1189268.185252 kJ/mol
# GULP energy per Si atom -12388.210263 kJ/mol
# Density = 1.897299 g / cm^3
# Si number density = 19.016269 Si / 1000 Ang^3
#
#
#
# Elastic Constant Matrix: (Units=GPa)
#
#
# Indices 1 2 3 4 5 6 
#
# 1 118.9240 83.8373 45.8391 0.0000 0.0000 0.0000
# 2 83.8373 118.9276 45.8396 0.0000 0.0000 0.0000
# 3 45.8391 45.8396 91.1468 0.0000 0.0000 0.0000
# 4 0.0000 0.0000 0.0000 27.6192 0.0000 0.0000
# 5 0.0000 0.0000 0.0000 0.0000 27.6190 0.0000
# 6 0.0000 0.0000 0.0000 0.0000 0.0000 28.6383
#
#
#
# Elastic Compliance Matrix: (Units=1/GPa)
#
#
# Indices 1 2 3 4 5 6 
#
# 1 0.017442 -0.011058 -0.003210 0.000000 0.000000 0.000000
# 2 -0.011058 0.017441 -0.003210 0.000000 0.000000 0.000000
# 3 -0.003210 -0.003210 0.014200 0.000000 0.000000 0.000000
# 4 0.000000 0.000000 0.000000 0.036207 0.000000 0.000000
# 5 0.000000 0.000000 0.000000 0.000000 0.036207 0.000000
# 6 0.000000 0.000000 0.000000 0.000000 0.000000 0.034918
#
#
# Mechanical properties :
#
#
# Convention : Reuss Voigt Hill
#
# Bulk Modulus (GPa) = 70.79209 75.55894 73.17552
# Shear Modulus (GPa) = 25.49966 27.00746 26.25356
#
# Velocity S-wave (km/s) = 3.66586 3.77268 3.71965
# Velocity P-wave (km/s) = 7.43142 7.66796 7.55061
#
# Compressibility (1/GPa) = 0.01412587
#
# Stress axis : x y z
#
# Youngs Moduli (GPa) = 57.33391 57.33574 70.42064
#
# Poissons Ratio (x) = 0.63402 0.22608
# Poissons Ratio (y) = 0.63400 0.22607
# Poissons Ratio (z) = 0.18406 0.18406
#
# Static dielectric constant tensor:
#      x y z
#    x 3.496740 0.000000 0.000000 
#    y 0.000000 3.496740 0.000000 
#    z 0.000000 0.000000 3.628970 
# 
# 
# High freq. dielectric constant tensor:
#      x y z
#    x 1.729650 0.000000 0.000000 
#    y 0.000000 1.729650 0.000000 
#    z 0.000000 0.000000 1.751620 
# 
# From -- ./inp_files/1752.got.cif
#   From: 2010.03.12/outbox.cif.g09.slc.cpg/sg126_1_cif.got.tgz:1752.got - 2010.04.06 16:55:23.
