data_PCOD8313245
_publ_section_title
;
Structure prediction by ZEFSAII (Michael W. Deem and Ramdas Pophale) SiO2 
 PCOD8313245
Probable space group: P 4/M C C
;
_chemical_formula_sum "Si O2"
_cell_formula_units_Z 112
_cell_length_a 15.172792
_cell_length_b 15.172792
_cell_length_c 25.541506
_cell_angle_alpha 90.000000
_cell_angle_beta 90.000000
_cell_angle_gamma 90.000000
_cell_volume 5880.002482
_symmetry_space_group_name_H-M "P 4/M C C"
_symmetry_group_IT_number 124
_symmetry_cell_setting 'tetragonal'
loop_
_space_group_symop_operation_xyz
x,y,z
-y,x,z
-x,-y,z
y,-x,z
x,-y,1/2-z
-x,y,1/2-z
y,x,1/2-z
-y,-x,1/2-z
-x,-y,-z
y,-x,-z
x,y,-z
-y,x,-z
-x,y,1/2+z
x,-y,1/2+z
-y,-x,1/2+z
y,x,1/2+z
loop_
_atom_site_type_symbol
_atom_site_label
_atom_site_fract_x
_atom_site_fract_y
_atom_site_fract_z
Si Si1 0.905757 0.420402 0.221775
Si Si2 0.286898 0.345124 0.062687
Si Si3 0.229556 0.961284 0.394981
Si Si4 0.460458 0.253942 0.060360
Si Si5 0.774792 0.092974 0.277823
Si Si6 0.428871 0.067715 0.897522
Si Si7 0.797921 0.145761 0.939991
O O1 0.850940 0.500000 0.250000
O O2 0.863360 0.323093 0.226626
O O3 0.910390 0.451308 0.162174
O O4 0.000000 0.414816 0.250000
O O5 0.381917 0.313114 0.084994
O O6 0.272237 0.443480 0.085813
O O7 0.208877 0.280051 0.082542
O O8 0.286656 0.342033 0.000000
O O9 0.201439 0.923472 0.338375
O O10 0.333486 0.975792 0.401003
O O11 0.196518 0.890872 0.437451
O O12 0.190248 0.057842 0.405355
O O13 0.433168 0.153290 0.066683
O O14 0.468561 0.277997 0.000000
O O15 0.841682 0.158319 0.250000
O O16 0.780109 0.000000 0.250000
O O17 0.500000 0.000000 0.920583
O O18 0.778415 0.120009 0.000000
#
# Coordination Sequence:
#
# PCOD8313245 Si02
#       7
#    16  16  16  16  16  16  16
#     4   9  17  35  55  79 110 139 177 228 281 336
#     4   9  19  36  56  79 115 153 190 236 284 338
#     4  11  23  37  58  84 113 152 200 238 286 345
#     4  10  20  35  54  82 116 152 190 235 286 341
#     4  10  21  37  57  82 113 145 183 234 286 333
#     4  11  20  33  57  86 110 147 189 236 292 340
#     4  11  22  39  57  80 118 158 194 238 285 339
#
# _framework density 19.047611
#
# number of rings (size 3 to 8) (size 9 to 14) (size 15 to 20)
#    0.000    1.857    2.857    2.143    0.000    1.571 
#    2.571    3.571    0.000    0.000    0.000    0.000 
#    0.000    0.286    0.000    0.143    0.000    0.143 
#
# Total GULP energy -1388331.368396 kJ/mol
# GULP energy per Si atom -12395.815789 kJ/mol
# Density = 1.900426 g / cm^3
# Si number density = 19.047611 Si / 1000 Ang^3
#
#
#
# Elastic Constant Matrix: (Units=GPa)
#
#
# Indices 1 2 3 4 5 6 
#
# 1 104.5308 38.5720 26.4935 0.0000 0.0000 0.0000
# 2 38.5720 104.5304 26.4939 0.0000 0.0000 0.0000
# 3 26.4935 26.4939 41.0633 0.0000 0.0000 0.0000
# 4 0.0000 0.0000 0.0000 16.1853 0.0000 0.0000
# 5 0.0000 0.0000 0.0000 0.0000 16.1906 0.0000
# 6 0.0000 0.0000 0.0000 0.0000 0.0000 21.0206
#
#
#
# Elastic Compliance Matrix: (Units=1/GPa)
#
#
# Indices 1 2 3 4 5 6 
#
# 1 0.012171 -0.002990 -0.005924 0.000000 0.000000 0.000000
# 2 -0.002990 0.012171 -0.005924 0.000000 0.000000 0.000000
# 3 -0.005924 -0.005924 0.031997 0.000000 0.000000 0.000000
# 4 0.000000 0.000000 0.000000 0.061785 0.000000 0.000000
# 5 0.000000 0.000000 0.000000 0.000000 0.061764 0.000000
# 6 0.000000 0.000000 0.000000 0.000000 0.000000 0.047572
#
#
# Mechanical properties :
#
#
# Convention : Reuss Voigt Hill
#
# Bulk Modulus (GPa) = 37.50329 48.13814 42.82071
# Shear Modulus (GPa) = 18.79537 21.25031 20.02284
#
# Velocity S-wave (km/s) = 3.14468 3.34375 3.24574
# Velocity P-wave (km/s) = 5.73736 6.34310 6.04782
#
# Compressibility (1/GPa) = 0.02666433
#
# Stress axis : x y z
#
# Youngs Moduli (GPa) = 82.16148 82.16063 31.25335
#
# Poissons Ratio (x) = 0.24564 0.18513
# Poissons Ratio (y) = 0.24565 0.18514
# Poissons Ratio (z) = 0.48670 0.48671
#
# Static dielectric constant tensor:
#      x y z
#    x 2.425760 0.000000 0.000000 
#    y 0.000000 2.420120 0.000000 
#    z 0.000000 0.000000 3.368870 
# 
# 
# High freq. dielectric constant tensor:
#      x y z
#    x 1.738660 0.000000 0.000000 
#    y 0.000000 1.738660 0.000000 
#    z 0.000000 0.000000 1.718260 
# 
# From -- ./inp_files/6647.got.cif
#   From: 2010.03.12/outbox.cif.g09.slc.cpg/sg124_4_cif.got.tgz:6647.got - 2010.04.06 16:38:57.
