data_PCOD8313626
_publ_section_title
;
Structure prediction by ZEFSAII (Michael W. Deem and Ramdas Pophale) SiO2 
 PCOD8313626
Probable space group: P 4/N B M
;
_chemical_formula_sum "Si O2"
_cell_formula_units_Z 64
_cell_length_a 12.940367
_cell_length_b 12.940367
_cell_length_c 19.287176
_cell_angle_alpha 90.000000
_cell_angle_beta 90.000000
_cell_angle_gamma 90.000000
_cell_volume 3229.697375
_symmetry_space_group_name_H-M "P 4/N B M"
_symmetry_group_IT_number 125
_space_group.IT_coordinate_system_code '2'
_symmetry_cell_setting 'tetragonal'
loop_
_space_group_symop_operation_xyz
x,y,z
1/2-y,x,z
1/2-x,1/2-y,z
y,1/2-x,z
x,1/2-y,-z
1/2-x,y,-z
y,x,-z
1/2-y,1/2-x,-z
-x,-y,-z
1/2+y,-x,-z
1/2+x,1/2+y,-z
-y,1/2+x,-z
-x,1/2+y,z
1/2+x,-y,z
-y,-x,z
1/2+y,1/2+x,z
loop_
_atom_site_type_symbol
_atom_site_label
_atom_site_fract_x
_atom_site_fract_y
_atom_site_fract_z
Si Si1 0.083192 0.748225 0.696115
Si Si2 0.918381 0.743923 0.579298
Si Si3 0.221063 0.084915 0.807094
Si Si4 0.512963 0.656843 0.955696
O O1 0.165328 0.834673 0.677357
O O2 0.141040 0.641040 0.715720
O O3 0.016667 0.732234 0.627540
O O4 0.016410 0.789374 0.760574
O O5 0.854868 0.847460 0.595313
O O6 0.955812 0.750000 0.500000
O O7 0.333006 0.132074 0.789380
O O8 0.209536 0.057264 0.887205
O O9 0.425252 0.574749 0.936092
O O10 0.463524 0.750000 0.000000
O O11 0.604347 0.604347 0.000000
#
# Coordination Sequence:
#
# PCOD8313626 Si02
#       4
#    16  16  16  16
#     4  11  25  41  57  85 127 167 203 249 307 370
#     4   9  19  38  64  92 121 156 205 260 308 361
#     4  11  23  40  66  91 116 154 202 254 302 358
#     4  11  23  40  64  92 123 159 199 247 304 364
#
# _framework density 19.816099000000001
#
# number of rings (size 3 to 8) (size 9 to 14) (size 15 to 20)
#    0.000    1.500    2.500    3.000    0.000    9.500 
#    0.000    3.750    0.000    0.000    0.000    0.000 
#    0.000    0.000    0.000    0.000    0.000    0.000 
#
# Total GULP energy -793744.795494 kJ/mol
# GULP energy per Si atom -12402.262430 kJ/mol
# Density = 1.977100 g / cm^3
# Si number density = 19.816099 Si / 1000 Ang^3
#
#
#
# Elastic Constant Matrix: (Units=GPa)
#
#
# Indices 1 2 3 4 5 6 
#
# 1 106.3598 46.5054 50.6420 0.0000 0.0000 0.0000
# 2 46.5054 106.3598 50.6420 0.0000 0.0000 0.0000
# 3 50.6420 50.6420 107.0561 0.0000 0.0000 0.0000
# 4 0.0000 0.0000 0.0000 26.6308 0.0000 0.0000
# 5 0.0000 0.0000 0.0000 0.0000 26.6308 0.0000
# 6 0.0000 0.0000 0.0000 0.0000 0.0000 15.0705
#
#
#
# Elastic Compliance Matrix: (Units=1/GPa)
#
#
# Indices 1 2 3 4 5 6 
#
# 1 0.013118 -0.003590 -0.004507 0.000000 0.000000 0.000000
# 2 -0.003590 0.013118 -0.004507 0.000000 0.000000 0.000000
# 3 -0.004507 -0.004507 0.013605 0.000000 0.000000 0.000000
# 4 0.000000 0.000000 0.000000 0.037550 0.000000 0.000000
# 5 0.000000 0.000000 0.000000 0.000000 0.037550 0.000000
# 6 0.000000 0.000000 0.000000 0.000000 0.000000 0.066355
#
#
# Mechanical properties :
#
#
# Convention : Reuss Voigt Hill
#
# Bulk Modulus (GPa) = 68.34116 68.37273 68.35695
# Shear Modulus (GPa) = 23.65393 25.13218 24.39306
#
# Velocity S-wave (km/s) = 3.45870 3.56514 3.51233
# Velocity P-wave (km/s) = 7.10723 7.17813 7.14277
#
# Compressibility (1/GPa) = 0.01463247
#
# Stress axis : x y z
#
# Youngs Moduli (GPa) = 76.23344 76.23344 73.50224
#
# Poissons Ratio (x) = 0.27365 0.33129
# Poissons Ratio (y) = 0.27365 0.33129
# Poissons Ratio (z) = 0.34360 0.34360
#
# Static dielectric constant tensor:
#      x y z
#    x 3.603740 0.000000 0.000000 
#    y 0.000000 3.603740 0.000000 
#    z 0.000000 0.000000 3.587850 
# 
# 
# High freq. dielectric constant tensor:
#      x y z
#    x 1.773300 0.000000 0.000000 
#    y 0.000000 1.773300 0.000000 
#    z 0.000000 0.000000 1.783910 
# 
# From -- ./inp_files/5717.got.cif
#   From: 2010.03.12/outbox.cif.g09.slc.cpg/sg125_3_cif.got.tgz:5717.got - 2010.04.06 16:47:52.
