data_PCOD8313783
_publ_section_title
;
Structure prediction by ZEFSAII (Michael W. Deem and Ramdas Pophale) SiO2 
 PCOD8313783
Probable space group: P 4/N N C
;
_chemical_formula_sum "Si O2"
_cell_formula_units_Z 128
_cell_length_a 22.222110
_cell_length_b 22.222110
_cell_length_c 12.676257
_cell_angle_alpha 90.000000
_cell_angle_beta 90.000000
_cell_angle_gamma 90.000000
_cell_volume 6259.816775
_symmetry_space_group_name_H-M "P 4/N N C"
_symmetry_group_IT_number 126
_space_group.IT_coordinate_system_code '2'
_symmetry_cell_setting 'tetragonal'
loop_
_space_group_symop_operation_xyz
x,y,z
1/2-y,x,z
1/2-x,1/2-y,z
y,1/2-x,z
x,1/2-y,1/2-z
1/2-x,y,1/2-z
y,x,1/2-z
1/2-y,1/2-x,1/2-z
-x,-y,-z
1/2+y,-x,-z
1/2+x,1/2+y,-z
-y,1/2+x,-z
-x,1/2+y,1/2+z
1/2+x,-y,1/2+z
-y,-x,1/2+z
1/2+y,1/2+x,1/2+z
loop_
_atom_site_type_symbol
_atom_site_label
_atom_site_fract_x
_atom_site_fract_y
_atom_site_fract_z
Si Si1 0.945101 0.571483 0.050916
Si Si2 0.651483 0.755131 0.038286
Si Si3 0.967330 0.894409 0.674711
Si Si4 0.066110 0.932893 0.332834
Si Si5 0.541364 0.186286 0.717340
Si Si6 0.482486 0.844469 0.504295
Si Si7 0.239817 0.051869 0.129055
Si Si8 0.587066 0.824203 0.193191
O O1 0.931212 0.639475 0.086461
O O2 0.999484 0.548605 0.125940
O O3 0.963579 0.564829 0.929007
O O4 0.884447 0.532304 0.058030
O O5 0.686714 0.693617 0.041014
O O6 0.614507 0.757996 0.931238
O O7 0.610824 0.760118 0.145186
O O8 0.908417 0.908417 0.750000
O O9 0.976037 0.827011 0.630759
O O10 0.025377 0.916181 0.736130
O O11 0.070453 0.865211 0.289498
O O12 0.114505 0.938778 0.425939
O O13 0.569803 0.250000 0.750000
O O14 0.556160 0.181534 0.592652
O O15 0.469340 0.187031 0.732579
O O16 0.508498 0.790548 0.577790
O O17 0.250000 0.067139 0.250000
O O18 0.639109 0.860892 0.250000
#
# Coordination Sequence:
#
# PCOD8313783 Si02
#       8
#    16  16  16  16  16  16  16  16
#     4  11  22  39  62  93 129 167 218 273 342 397
#     4  11  26  42  59  86 122 178 245 295 324 370
#     4  12  24  40  64  97 133 173 221 283 336 405
#     4  11  25  40  67 100 134 173 217 279 344 417
#     4  11  26  42  64  99 135 172 214 266 346 411
#     4  12  23  42  66  95 133 177 219 278 331 413
#     4  12  25  42  66  90 129 176 232 275 343 400
#     4  11  22  38  64  85 125 174 220 278 328 388
#
# _framework density 20.447882
#
# number of rings (size 3 to 8) (size 9 to 14) (size 15 to 20)
#    0.000    0.625    5.000    2.625    7.000    0.000 
#    0.000    1.250    0.000    0.000    0.000    1.750 
#    0.000    0.000    0.000    0.000    0.000    0.000 
#
# Total GULP energy -1586742.148238 kJ/mol
# GULP energy per Si atom -12396.423033 kJ/mol
# Density = 2.040134 g / cm^3
# Si number density = 20.447882 Si / 1000 Ang^3
#
#
#
# Elastic Constant Matrix: (Units=GPa)
#
#
# Indices 1 2 3 4 5 6 
#
# 1 94.7690 29.7506 27.6870 0.0000 0.0000 0.0000
# 2 29.7506 94.7695 27.6875 0.0000 0.0000 0.0000
# 3 27.6870 27.6875 126.2651 0.0000 0.0000 0.0000
# 4 0.0000 0.0000 0.0000 26.2033 0.0000 0.0000
# 5 0.0000 0.0000 0.0000 0.0000 26.2038 0.0000
# 6 0.0000 0.0000 0.0000 0.0000 0.0000 37.2981
#
#
#
# Elastic Compliance Matrix: (Units=1/GPa)
#
#
# Indices 1 2 3 4 5 6 
#
# 1 0.012139 -0.003241 -0.001951 0.000000 0.000000 0.000000
# 2 -0.003241 0.012139 -0.001951 0.000000 0.000000 0.000000
# 3 -0.001951 -0.001951 0.008776 0.000000 0.000000 0.000000
# 4 0.000000 0.000000 0.000000 0.038163 0.000000 0.000000
# 5 0.000000 0.000000 0.000000 0.000000 0.038162 0.000000
# 6 0.000000 0.000000 0.000000 0.000000 0.000000 0.026811
#
#
# Mechanical properties :
#
#
# Convention : Reuss Voigt Hill
#
# Bulk Modulus (GPa) = 53.28309 54.00598 53.64453
# Shear Modulus (GPa) = 31.90129 33.31961 32.61045
#
# Velocity S-wave (km/s) = 3.95413 4.04107 3.99784
# Velocity P-wave (km/s) = 6.85284 6.94569 6.89942
#
# Compressibility (1/GPa) = 0.01876768
#
# Stress axis : x y z
#
# Youngs Moduli (GPa) = 82.37632 82.37654 113.95244
#
# Poissons Ratio (x) = 0.26697 0.22235
# Poissons Ratio (y) = 0.26697 0.22235
# Poissons Ratio (z) = 0.16074 0.16074
#
# Static dielectric constant tensor:
#      x y z
#    x 3.759020 0.000000 0.000000 
#    y 0.000000 3.759020 0.000000 
#    z 0.000000 0.000000 4.061560 
# 
# 
# High freq. dielectric constant tensor:
#      x y z
#    x 1.781790 0.000000 0.000000 
#    y 0.000000 1.781790 0.000000 
#    z 0.000000 0.000000 1.831710 
# 
# From -- ./inp_files/3089.got.cif
#   From: 2010.03.12/outbox.cif.g09.slc.cpg/sg126_2_cif.got.tgz:3089.got - 2010.04.06 16:55:23.
