data_PCOD8313826
_publ_section_title
;
Structure prediction by ZEFSAII (Michael W. Deem and Ramdas Pophale) SiO2 
 PCOD8313826
Probable space group: P 4/M B M
;
_chemical_formula_sum "Si O2"
_cell_formula_units_Z 120
_cell_length_a 26.487012
_cell_length_b 26.487012
_cell_length_c 14.472745
_cell_angle_alpha 90.000000
_cell_angle_beta 90.000000
_cell_angle_gamma 90.000000
_cell_volume 10153.525101
_symmetry_space_group_name_H-M "P 4/M B M"
_symmetry_group_IT_number 127
_symmetry_cell_setting 'tetragonal'
loop_
_space_group_symop_operation_xyz
x,y,z
-y,x,z
-x,-y,z
y,-x,z
1/2+x,1/2-y,-z
1/2-x,1/2+y,-z
1/2+y,1/2+x,-z
1/2-y,1/2-x,-z
-x,-y,-z
y,-x,-z
x,y,-z
-y,x,-z
1/2-x,1/2+y,z
1/2+x,1/2-y,z
1/2-y,1/2-x,z
1/2+y,1/2+x,z
loop_
_atom_site_type_symbol
_atom_site_label
_atom_site_fract_x
_atom_site_fract_y
_atom_site_fract_z
Si Si1 0.274455 0.141019 0.398959
Si Si2 0.651945 0.981708 0.108458
Si Si3 0.682135 0.733161 0.896712
Si Si4 0.539573 0.960428 0.109569
Si Si5 0.805849 0.779031 0.600995
Si Si6 0.335563 0.750592 0.210727
Si Si7 0.678404 0.096013 0.893075
Si Si8 0.304383 0.111047 0.208961
O O1 0.276143 0.113828 0.500000
O O2 0.313897 0.186104 0.396624
O O3 0.219384 0.165980 0.382787
O O4 0.289103 0.102768 0.316591
O O5 0.595003 0.975030 0.144206
O O6 0.686963 0.943450 0.164701
O O7 0.668649 0.038172 0.131718
O O8 0.656403 0.969320 0.000000
O O9 0.726753 0.773248 0.899175
O O10 0.701786 0.682301 0.847326
O O11 0.635337 0.756298 0.841368
O O12 0.664362 0.719435 0.000000
O O13 0.500000 0.000000 0.153179
O O14 0.536797 0.963204 0.000000
O O15 0.832853 0.777607 0.500000
O O16 0.762075 0.737926 0.604135
O O17 0.845421 0.766874 0.683097
O O18 0.292562 0.792562 0.205070
O O19 0.386440 0.773833 0.167955
O O20 0.628103 0.128103 0.869961
O O21 0.692880 0.103065 0.000000
O O22 0.353970 0.146031 0.196668
#
# Coordination Sequence:
#
# PCOD8313826 Si02
#       8
#    16  16  16   8  16  16  16  16
#     4   8  13  21  33  49  69  89 107 129 161 205
#     4  10  18  26  35  49  67  90 117 150 189 221
#     4   9  15  20  29  47  70  91 106 125 159 207
#     4   9  16  26  38  48  61  83 117 159 198 228
#     4   8  12  19  32  50  69  86 105 130 163 200
#     4   9  14  22  34  49  66  87 111 136 165 204
#     4   9  17  27  37  47  63  89 122 154 179 208
#     4  10  16  23  34  50  71  89 108 137 179 220
#
# _framework density 11.818555999999999
#
# number of rings (size 3 to 8) (size 9 to 14) (size 15 to 20)
#    0.000    3.000    2.000    2.000    0.000    3.733 
#    0.000    0.000    0.000    0.800    0.000    0.000 
#    0.000    2.133    0.000    0.000    0.000    0.933 
#
# Total GULP energy -1487052.725415 kJ/mol
# GULP energy per Si atom -12392.106045 kJ/mol
# Density = 1.179166 g / cm^3
# Si number density = 11.818556 Si / 1000 Ang^3
#
#
#
# Elastic Constant Matrix: (Units=GPa)
#
#
# Indices 1 2 3 4 5 6 
#
# 1 46.2512 42.4998 38.5363 0.0000 0.0000 0.0000
# 2 42.4998 46.2511 38.5364 0.0000 0.0000 0.0000
# 3 38.5363 38.5364 95.9290 0.0000 0.0000 0.0000
# 4 0.0000 0.0000 0.0000 11.4604 0.0000 0.0000
# 5 0.0000 0.0000 0.0000 0.0000 11.4604 0.0000
# 6 0.0000 0.0000 0.0000 0.0000 0.0000 16.5722
#
#
#
# Elastic Compliance Matrix: (Units=1/GPa)
#
#
# Indices 1 2 3 4 5 6 
#
# 1 0.141934 -0.124631 -0.006951 0.000000 0.000000 0.000000
# 2 -0.124631 0.141935 -0.006952 0.000000 0.000000 0.000000
# 3 -0.006951 -0.006952 0.016009 0.000000 0.000000 0.000000
# 4 0.000000 0.000000 0.000000 0.087257 0.000000 0.000000
# 5 0.000000 0.000000 0.000000 0.000000 0.087257 0.000000
# 6 0.000000 0.000000 0.000000 0.000000 0.000000 0.060342
#
#
# Mechanical properties :
#
#
# Convention : Reuss Voigt Hill
#
# Bulk Modulus (GPa) = 43.83625 47.50848 45.67236
# Shear Modulus (GPa) = 6.10199 12.48921 9.29560
#
# Velocity S-wave (km/s) = 2.27470 3.25429 2.80755
# Velocity P-wave (km/s) = 6.63857 7.37604 7.01700
#
# Compressibility (1/GPa) = 0.02281217
#
# Stress axis : x y z
#
# Youngs Moduli (GPa) = 7.04551 7.04548 62.46349
#
# Poissons Ratio (x) = 0.87808 0.43419
# Poissons Ratio (y) = 0.87809 0.43422
# Poissons Ratio (z) = 0.04897 0.04898
#
# Static dielectric constant tensor:
#      x y z
#    x 2.230900 0.000000 0.000000 
#    y 0.000000 2.230900 0.000000 
#    z 0.000000 0.000000 2.736460 
# 
# 
# High freq. dielectric constant tensor:
#      x y z
#    x 1.410730 0.000000 0.000000 
#    y 0.000000 1.410730 0.000000 
#    z 0.000000 0.000000 1.452970 
# 
# From -- ./inp_files/4728.got.cif
#   From: 2010.03.12/outbox.cif.g09.slc.cpg/sg127_3_cif.got.tgz:4728.got - 2010.04.06 17:03:15.
