data_PCOD8313900
_publ_section_title
;
Structure prediction by ZEFSAII (Michael W. Deem and Ramdas Pophale) SiO2 
 PCOD8313900
Probable space group: P 4/M B M
;
_chemical_formula_sum "Si O2"
_cell_formula_units_Z 96
_cell_length_a 22.643148
_cell_length_b 22.643148
_cell_length_c 13.441486
_cell_angle_alpha 90.000000
_cell_angle_beta 90.000000
_cell_angle_gamma 90.000000
_cell_volume 6891.613204
_symmetry_space_group_name_H-M "P 4/M B M"
_symmetry_group_IT_number 127
_symmetry_cell_setting 'tetragonal'
loop_
_space_group_symop_operation_xyz
x,y,z
-y,x,z
-x,-y,z
y,-x,z
1/2+x,1/2-y,-z
1/2-x,1/2+y,-z
1/2+y,1/2+x,-z
1/2-y,1/2-x,-z
-x,-y,-z
y,-x,-z
x,y,-z
-y,x,-z
1/2-x,1/2+y,z
1/2+x,1/2-y,z
1/2-y,1/2-x,z
1/2+y,1/2+x,z
loop_
_atom_site_type_symbol
_atom_site_label
_atom_site_fract_x
_atom_site_fract_y
_atom_site_fract_z
Si Si1 0.058489 0.077635 0.612686
Si Si2 0.760020 0.164865 0.117176
Si Si3 0.501713 0.908001 0.118273
Si Si4 0.610781 0.375292 0.198640
Si Si5 0.214101 0.459982 0.882719
Si Si6 0.491912 0.335791 0.884540
O O1 0.072916 0.096788 0.500000
O O2 0.091851 0.123608 0.685340
O O3 0.988640 0.081017 0.632718
O O4 0.725038 0.225038 0.147698
O O5 0.821683 0.156694 0.176827
O O6 0.717892 0.109475 0.143604
O O7 0.775069 0.165689 0.000000
O O8 0.451717 0.951717 0.159526
O O9 0.489766 0.843875 0.166031
O O10 0.566219 0.933782 0.149074
O O11 0.496909 0.904653 0.000000
O O12 0.552090 0.372643 0.130805
O O13 0.640795 0.437354 0.177010
O O14 0.270386 0.495215 0.841870
O O15 0.212250 0.467348 0.000000
O O16 0.475303 0.336334 0.000000
#
# Coordination Sequence:
#
# PCOD8313900 Si02
#       6
#    16  16  16  16  16  16
#     4   9  17  30  46  65  86 108 135 169 217 269
#     4   9  17  28  41  56  78 112 148 172 194 237
#     4   8  12  18  31  50  68  88 121 167 211 239
#     4  11  18  29  43  60  83 108 136 175 208 251
#     4   8  14  24  35  48  70 101 136 168 196 230
#     4  10  19  27  37  56  82 111 139 169 202 239
#
# _framework density 13.929976
#
# number of rings (size 3 to 8) (size 9 to 14) (size 15 to 20)
#    0.000    2.833    1.667    4.000    0.000    2.333 
#    0.000    1.667    0.000    3.500    0.000    0.000 
#    0.000    0.000    0.000    0.000    0.000    0.000 
#
# Total GULP energy -1189558.624637 kJ/mol
# GULP energy per Si atom -12391.235673 kJ/mol
# Density = 1.389827 g / cm^3
# Si number density = 13.929976 Si / 1000 Ang^3
#
#
#
# Elastic Constant Matrix: (Units=GPa)
#
#
# Indices 1 2 3 4 5 6 
#
# 1 78.4920 45.0077 18.7199 0.0000 0.0000 0.0000
# 2 45.0077 78.4920 18.7199 0.0000 0.0000 0.0000
# 3 18.7199 18.7199 47.1366 0.0000 0.0000 0.0000
# 4 0.0000 0.0000 0.0000 11.5788 0.0000 0.0000
# 5 0.0000 0.0000 0.0000 0.0000 11.5788 0.0000
# 6 0.0000 0.0000 0.0000 0.0000 0.0000 28.0156
#
#
#
# Elastic Compliance Matrix: (Units=1/GPa)
#
#
# Indices 1 2 3 4 5 6 
#
# 1 0.019535 -0.010330 -0.003656 0.000000 0.000000 0.000000
# 2 -0.010330 0.019535 -0.003656 0.000000 0.000000 0.000000
# 3 -0.003656 -0.003656 0.024119 0.000000 0.000000 0.000000
# 4 0.000000 0.000000 0.000000 0.086365 0.000000 0.000000
# 5 0.000000 0.000000 0.000000 0.000000 0.086365 0.000000
# 6 0.000000 0.000000 0.000000 0.000000 0.000000 0.035694
#
#
# Mechanical properties :
#
#
# Convention : Reuss Voigt Hill
#
# Bulk Modulus (GPa) = 35.83434 41.00174 38.41804
# Shear Modulus (GPa) = 15.81287 18.34617 17.07952
#
# Velocity S-wave (km/s) = 3.37288 3.63303 3.50537
# Velocity P-wave (km/s) = 6.39913 6.86269 6.63496
#
# Compressibility (1/GPa) = 0.02790619
#
# Stress axis : x y z
#
# Youngs Moduli (GPa) = 51.18983 51.18983 41.46155
#
# Poissons Ratio (x) = 0.52877 0.15158
# Poissons Ratio (y) = 0.52877 0.15158
# Poissons Ratio (z) = 0.18714 0.18714
#
# Static dielectric constant tensor:
#      x y z
#    x 2.869320 0.000000 0.000000 
#    y 0.000000 2.869320 0.000000 
#    z 0.000000 0.000000 2.370400 
# 
# 
# High freq. dielectric constant tensor:
#      x y z
#    x 1.528170 0.000000 0.000000 
#    y 0.000000 1.528170 0.000000 
#    z 0.000000 0.000000 1.477040 
# 
# From -- ./inp_files/3655.got.cif
#   From: 2010.03.12/outbox.cif.g09.slc.cpg/sg127_2_cif.got.tgz:3655.got - 2010.04.06 17:03:15.
