data_PCOD8313140
_publ_section_title
;
Structure prediction by ZEFSAII (Michael W. Deem and Ramdas Pophale) SiO2 
 PCOD8313140
Probable space group: P 4/M C C
;
_chemical_formula_sum "Si O2"
_cell_formula_units_Z 112
_cell_length_a 18.522885
_cell_length_b 18.522885
_cell_length_c 18.876335
_cell_angle_alpha 90.000000
_cell_angle_beta 90.000000
_cell_angle_gamma 90.000000
_cell_volume 6476.418982
_symmetry_space_group_name_H-M "P 4/M C C"
_symmetry_group_IT_number 124
_symmetry_cell_setting 'tetragonal'
loop_
_space_group_symop_operation_xyz
x,y,z
-y,x,z
-x,-y,z
y,-x,z
x,-y,1/2-z
-x,y,1/2-z
y,x,1/2-z
-y,-x,1/2-z
-x,-y,-z
y,-x,-z
x,y,-z
-y,x,-z
-x,y,1/2+z
x,-y,1/2+z
-y,-x,1/2+z
y,x,1/2+z
loop_
_atom_site_type_symbol
_atom_site_label
_atom_site_fract_x
_atom_site_fract_y
_atom_site_fract_z
Si Si1 0.584027 0.417208 0.830483
Si Si2 0.296636 0.916358 0.830351
Si Si3 0.154700 0.584608 0.580374
Si Si4 0.340641 0.701199 0.083157
Si Si5 0.217926 0.774867 0.167541
Si Si6 0.695815 0.075770 0.667391
Si Si7 0.450804 0.932710 0.418528
O O1 0.600221 0.500663 0.844564
O O2 0.604095 0.395906 0.750000
O O3 0.632713 0.373882 0.885354
O O4 0.368551 0.901041 0.874332
O O5 0.233452 0.859253 0.850041
O O6 0.321836 0.911638 0.749389
O O7 0.268609 0.997254 0.847344
O O8 0.140232 0.608553 0.500000
O O9 0.237565 0.599808 0.600988
O O10 0.139002 0.499852 0.590864
O O11 0.266205 0.722471 0.120182
O O12 0.327091 0.691673 0.000000
O O13 0.237129 0.762872 0.250000
O O14 0.135962 0.754989 0.145760
O O15 0.620404 0.081416 0.626609
O O16 0.427829 0.945044 0.500000
O O17 0.500000 0.000000 0.392379
#
# Coordination Sequence:
#
# PCOD8313140 Si02
#       7
#    16  16  16  16  16  16  16
#     4   9  19  36  55  72  93 127 169 211 258 308
#     4   9  18  33  50  72  98 129 169 207 251 294
#     4   9  18  33  48  68 102 139 163 195 255 308
#     4  10  20  33  51  74 102 131 165 212 256 301
#     4   9  19  35  52  71 101 134 167 207 253 309
#     4  10  19  31  51  75  97 130 171 211 249 296
#     4  10  19  31  48  72 104 138 167 201 250 308
#
# _framework density 17.293506000000001
#
# number of rings (size 3 to 8) (size 9 to 14) (size 15 to 20)
#    0.000    2.571    1.429    0.857    0.000    2.857 
#    0.000    5.000    0.000    0.429    0.000    3.000 
#    0.000    0.000    0.000    8.429    0.000    8.857 
#
# Total GULP energy -1388405.505332 kJ/mol
# GULP energy per Si atom -12396.477726 kJ/mol
# Density = 1.725415 g / cm^3
# Si number density = 17.293506 Si / 1000 Ang^3
#
#
#
# Elastic Constant Matrix: (Units=GPa)
#
#
# Indices 1 2 3 4 5 6 
#
# 1 103.6207 65.1103 46.4896 0.0000 0.0000 0.0000
# 2 65.1103 103.6205 46.4895 0.0000 0.0000 0.0000
# 3 46.4896 46.4895 64.5376 0.0000 0.0000 0.0000
# 4 0.0000 0.0000 0.0000 21.9682 0.0000 0.0000
# 5 0.0000 0.0000 0.0000 0.0000 21.9682 0.0000
# 6 0.0000 0.0000 0.0000 0.0000 0.0000 26.2597
#
#
#
# Elastic Compliance Matrix: (Units=1/GPa)
#
#
# Indices 1 2 3 4 5 6 
#
# 1 0.017897 -0.008070 -0.007079 0.000000 0.000000 0.000000
# 2 -0.008070 0.017897 -0.007079 0.000000 0.000000 0.000000
# 3 -0.007079 -0.007079 0.025694 0.000000 0.000000 0.000000
# 4 0.000000 0.000000 0.000000 0.045520 0.000000 0.000000
# 5 0.000000 0.000000 0.000000 0.000000 0.045520 0.000000
# 6 0.000000 0.000000 0.000000 0.000000 0.000000 0.038081
#
#
# Mechanical properties :
#
#
# Convention : Reuss Voigt Hill
#
# Bulk Modulus (GPa) = 58.71304 65.32864 62.02084
# Shear Modulus (GPa) = 20.76887 21.61850 21.19369
#
# Velocity S-wave (km/s) = 3.46925 3.53950 3.50455
# Velocity P-wave (km/s) = 7.07617 7.38664 7.23307
#
# Compressibility (1/GPa) = 0.01703199
#
# Stress axis : x y z
#
# Youngs Moduli (GPa) = 55.87411 55.87417 38.91954
#
# Poissons Ratio (x) = 0.45089 0.27553
# Poissons Ratio (y) = 0.45089 0.27552
# Poissons Ratio (z) = 0.39555 0.39555
#
# Static dielectric constant tensor:
#      x y z
#    x 3.259880 0.000000 0.000000 
#    y 0.000000 3.259880 0.000000 
#    z 0.000000 0.000000 3.228650 
# 
# 
# High freq. dielectric constant tensor:
#      x y z
#    x 1.658310 0.000000 0.000000 
#    y 0.000000 1.658310 0.000000 
#    z 0.000000 0.000000 1.668810 
# 
# From -- ./inp_files/5534.got.cif
#   From: 2010.03.12/outbox.cif.g09.slc.cpg/sg124_3_cif.got.tgz:5534.got - 2010.04.06 16:38:57.
