data_PCOD8313455
_publ_section_title
;
Structure prediction by ZEFSAII (Michael W. Deem and Ramdas Pophale) SiO2 
 PCOD8313455
Probable space group: P 4/N B M
;
_chemical_formula_sum "Si O2"
_cell_formula_units_Z 104
_cell_length_a 16.780357
_cell_length_b 16.780357
_cell_length_c 17.921741
_cell_angle_alpha 90.000000
_cell_angle_beta 90.000000
_cell_angle_gamma 90.000000
_cell_volume 5046.410660
_symmetry_space_group_name_H-M "P 4/N B M"
_symmetry_group_IT_number 125
_space_group.IT_coordinate_system_code '2'
_symmetry_cell_setting 'tetragonal'
loop_
_space_group_symop_operation_xyz
x,y,z
1/2-y,x,z
1/2-x,1/2-y,z
y,1/2-x,z
x,1/2-y,-z
1/2-x,y,-z
y,x,-z
1/2-y,1/2-x,-z
-x,-y,-z
1/2+y,-x,-z
1/2+x,1/2+y,-z
-y,1/2+x,-z
-x,1/2+y,z
1/2+x,-y,z
-y,-x,z
1/2+y,1/2+x,z
loop_
_atom_site_type_symbol
_atom_site_label
_atom_site_fract_x
_atom_site_fract_y
_atom_site_fract_z
Si Si1 0.120046 0.754204 0.268437
Si Si2 0.164200 0.160867 0.323354
Si Si3 0.417450 0.707349 0.575373
Si Si4 0.576469 0.952398 0.580737
Si Si5 0.039066 0.829111 0.862460
Si Si6 0.358933 0.312404 0.149248
Si Si7 0.250000 0.622616 0.000000
O O1 0.163032 0.836969 0.244507
O O2 0.183705 0.683705 0.269011
O O3 0.084438 0.765034 0.352020
O O4 0.051462 0.728546 0.209655
O O5 0.252165 0.139385 0.353799
O O6 0.110814 0.089213 0.353921
O O7 0.154969 0.172076 0.235939
O O8 0.445627 0.750000 0.500000
O O9 0.330025 0.669976 0.561177
O O10 0.478141 0.638352 0.594826
O O11 0.588234 0.911767 0.500000
O O12 0.486534 0.986534 0.587039
O O13 0.088156 0.911845 0.854731
O O14 0.067702 0.779471 0.933265
O O15 0.944981 0.849358 0.872728
O O16 0.279504 0.357403 0.118470
O O17 0.178232 0.678232 0.970031
#
# Coordination Sequence:
#
# PCOD8313455 Si02
#       7
#    16  16  16  16  16  16   8
#     4   9  17  30  51  78 107 142 185 229 278 344
#     4   9  19  35  58  82 100 133 185 237 282 330
#     4  10  20  32  48  69  99 140 179 220 272 330
#     4  10  22  36  49  70 102 139 176 225 288 347
#     4  10  19  34  59  89 119 152 192 239 292 343
#     4   9  19  38  60  82 113 152 194 236 285 349
#     4   9  18  34  58  89 128 168 198 233 288 350
#
# _framework density 20.608706000000002
#
# number of rings (size 3 to 8) (size 9 to 14) (size 15 to 20)
#    0.000    2.538    0.000    2.769    2.154    4.462 
#    0.000    3.077    0.000    3.692    0.000    0.000 
#    0.000    0.000    0.000    0.000    0.000    0.000 
#
# Total GULP energy -1288515.484332 kJ/mol
# GULP energy per Si atom -12389.571965 kJ/mol
# Density = 2.056180 g / cm^3
# Si number density = 20.608706 Si / 1000 Ang^3
#
#
#
# Elastic Constant Matrix: (Units=GPa)
#
#
# Indices 1 2 3 4 5 6 
#
# 1 76.4461 28.6966 19.5819 0.0000 0.0000 0.0000
# 2 28.6966 76.4466 19.5820 0.0000 0.0000 0.0000
# 3 19.5819 19.5820 66.6821 0.0000 0.0000 0.0000
# 4 0.0000 0.0000 0.0000 21.9742 0.0000 0.0000
# 5 0.0000 0.0000 0.0000 0.0000 21.9742 0.0000
# 6 0.0000 0.0000 0.0000 0.0000 0.0000 20.8577
#
#
#
# Elastic Compliance Matrix: (Units=1/GPa)
#
#
# Indices 1 2 3 4 5 6 
#
# 1 0.015811 -0.005132 -0.003136 0.000000 0.000000 0.000000
# 2 -0.005132 0.015811 -0.003136 0.000000 0.000000 0.000000
# 3 -0.003136 -0.003136 0.016838 0.000000 0.000000 0.000000
# 4 0.000000 0.000000 0.000000 0.045508 0.000000 0.000000
# 5 0.000000 0.000000 0.000000 0.000000 0.045508 0.000000
# 6 0.000000 0.000000 0.000000 0.000000 0.000000 0.047944
#
#
# Mechanical properties :
#
#
# Convention : Reuss Voigt Hill
#
# Bulk Modulus (GPa) = 38.98284 39.47730 39.23007
# Shear Modulus (GPa) = 22.85424 23.07552 22.96488
#
# Velocity S-wave (km/s) = 3.33372 3.34982 3.34178
# Velocity P-wave (km/s) = 5.81163 5.84456 5.82812
#
# Compressibility (1/GPa) = 0.02565231
#
# Stress axis : x y z
#
# Youngs Moduli (GPa) = 63.24790 63.24835 59.38812
#
# Poissons Ratio (x) = 0.32458 0.18624
# Poissons Ratio (y) = 0.32457 0.18624
# Poissons Ratio (z) = 0.19835 0.19835
#
# Static dielectric constant tensor:
#      x y z
#    x 3.751430 0.000000 0.000000 
#    y 0.000000 3.751430 0.000000 
#    z 0.000000 0.000000 3.526950 
# 
# 
# High freq. dielectric constant tensor:
#      x y z
#    x 1.794970 0.000000 0.000000 
#    y 0.000000 1.794970 0.000000 
#    z 0.000000 0.000000 1.788370 
# 
# From -- ./inp_files/5509.got.cif
#   From: 2010.03.12/outbox.cif.g09.slc.cpg/sg125_3_cif.got.tgz:5509.got - 2010.04.06 16:47:52.
