data_PCOD8313528
_publ_section_title
;
Structure prediction by ZEFSAII (Michael W. Deem and Ramdas Pophale) SiO2 
 PCOD8313528
Probable space group: P 4/N B M
;
_chemical_formula_sum "Si O2"
_cell_formula_units_Z 96
_cell_length_a 24.449459
_cell_length_b 24.449459
_cell_length_c 7.709164
_cell_angle_alpha 90.000000
_cell_angle_beta 90.000000
_cell_angle_gamma 90.000000
_cell_volume 4608.353569
_symmetry_space_group_name_H-M "P 4/N B M"
_symmetry_group_IT_number 125
_space_group.IT_coordinate_system_code '2'
_symmetry_cell_setting 'tetragonal'
loop_
_space_group_symop_operation_xyz
x,y,z
1/2-y,x,z
1/2-x,1/2-y,z
y,1/2-x,z
x,1/2-y,-z
1/2-x,y,-z
y,x,-z
1/2-y,1/2-x,-z
-x,-y,-z
1/2+y,-x,-z
1/2+x,1/2+y,-z
-y,1/2+x,-z
-x,1/2+y,z
1/2+x,-y,z
-y,-x,z
1/2+y,1/2+x,z
loop_
_atom_site_type_symbol
_atom_site_label
_atom_site_fract_x
_atom_site_fract_y
_atom_site_fract_z
Si Si1 0.181126 0.201372 0.800290
Si Si2 0.456519 0.631381 0.745351
Si Si3 0.310470 0.596483 0.048715
Si Si4 0.193308 0.532526 0.587612
Si Si5 0.961487 0.546230 0.200957
Si Si6 0.579743 0.644865 0.355545
O O1 0.236877 0.174748 0.720725
O O2 0.124214 0.171014 0.771091
O O3 0.196261 0.196261 0.000000
O O4 0.418597 0.581404 0.799824
O O5 0.443608 0.649841 0.550022
O O6 0.518220 0.607798 0.752528
O O7 0.446404 0.676829 0.893192
O O8 0.351939 0.648062 0.055354
O O9 0.313180 0.562967 0.228730
O O10 0.250000 0.618947 0.000000
O O11 0.250000 0.547850 0.500000
O O12 0.189375 0.465968 0.591595
O O13 0.899759 0.540968 0.263977
O O14 0.999095 0.499095 0.290996
O O15 0.963559 0.536442 0.000000
O O16 0.615954 0.615954 0.500000
#
# Coordination Sequence:
#
# PCOD8313528 Si02
#       6
#    16  16  16  16  16  16
#     4   9  21  43  65  87 120 167 220 280 343 393
#     4  10  21  41  67  94 130 172 216 269 328 396
#     4  11  24  45  73 102 133 174 219 271 337 406
#     4  12  25  43  64  96 136 177 218 273 338 407
#     4  10  21  39  62  89 124 166 217 270 324 385
#     4  12  25  37  60  93 130 169 219 272 324 396
#
# _framework density 20.831733
#
# number of rings (size 3 to 8) (size 9 to 14) (size 15 to 20)
#    0.000    1.333    3.333    2.500    2.333    3.167 
#    3.000    0.833    0.000    0.000    0.000    0.000 
#    0.000    0.000    0.000    0.000    0.000    0.000 
#
# Total GULP energy -1189289.771647 kJ/mol
# GULP energy per Si atom -12388.435121 kJ/mol
# Density = 2.078432 g / cm^3
# Si number density = 20.831733 Si / 1000 Ang^3
#
#
#
# Elastic Constant Matrix: (Units=GPa)
#
#
# Indices 1 2 3 4 5 6 
#
# 1 118.7379 15.3738 27.3224 0.0000 0.0000 0.0000
# 2 15.3738 118.7364 27.3216 0.0000 0.0000 0.0000
# 3 27.3224 27.3216 109.3240 0.0000 0.0000 0.0000
# 4 0.0000 0.0000 0.0000 30.6420 0.0000 0.0000
# 5 0.0000 0.0000 0.0000 0.0000 30.6418 0.0000
# 6 0.0000 0.0000 0.0000 0.0000 0.0000 22.2308
#
#
#
# Elastic Compliance Matrix: (Units=1/GPa)
#
#
# Indices 1 2 3 4 5 6 
#
# 1 0.008988 -0.000686 -0.002075 0.000000 0.000000 0.000000
# 2 -0.000686 0.008988 -0.002075 0.000000 0.000000 0.000000
# 3 -0.002075 -0.002075 0.010184 0.000000 0.000000 0.000000
# 4 0.000000 0.000000 0.000000 0.032635 0.000000 0.000000
# 5 0.000000 0.000000 0.000000 0.000000 0.032635 0.000000
# 6 0.000000 0.000000 0.000000 0.000000 0.000000 0.044983
#
#
# Mechanical properties :
#
#
# Convention : Reuss Voigt Hill
#
# Bulk Modulus (GPa) = 54.08679 54.09265 54.08972
# Shear Modulus (GPa) = 32.41526 35.15494 33.78510
#
# Velocity S-wave (km/s) = 3.94896 4.11246 4.03154
# Velocity P-wave (km/s) = 6.84196 6.96940 6.90598
#
# Compressibility (1/GPa) = 0.01848880
#
# Stress axis : x y z
#
# Youngs Moduli (GPa) = 111.25686 111.25577 98.19154
#
# Poissons Ratio (x) = 0.07636 0.20373
# Poissons Ratio (y) = 0.07636 0.20372
# Poissons Ratio (z) = 0.23084 0.23083
#
# Static dielectric constant tensor:
#      x y z
#    x 4.911010 0.000000 0.000000 
#    y 0.000000 4.911090 0.000000 
#    z 0.000000 0.000000 3.783950 
# 
# 
# High freq. dielectric constant tensor:
#      x y z
#    x 1.815590 0.000000 0.000000 
#    y 0.000000 1.815590 0.000000 
#    z 0.000000 0.000000 1.820940 
# 
# From -- ./inp_files/2842.got.cif
#   From: 2010.03.12/outbox.cif.g09.slc.cpg/sg125_2_cif.got.tgz:2842.got - 2010.04.06 16:47:52.
