data_PCOD8313782
_publ_section_title
;
Structure prediction by ZEFSAII (Michael W. Deem and Ramdas Pophale) SiO2 
 PCOD8313782
Probable space group: P 4/N N C
;
_chemical_formula_sum "Si O2"
_cell_formula_units_Z 64
_cell_length_a 11.433451
_cell_length_b 11.433451
_cell_length_c 21.456081
_cell_angle_alpha 90.000000
_cell_angle_beta 90.000000
_cell_angle_gamma 90.000000
_cell_volume 2804.820479
_symmetry_space_group_name_H-M "P 4/N N C"
_symmetry_group_IT_number 126
_space_group.IT_coordinate_system_code '2'
_symmetry_cell_setting 'tetragonal'
loop_
_space_group_symop_operation_xyz
x,y,z
1/2-y,x,z
1/2-x,1/2-y,z
y,1/2-x,z
x,1/2-y,1/2-z
1/2-x,y,1/2-z
y,x,1/2-z
1/2-y,1/2-x,1/2-z
-x,-y,-z
1/2+y,-x,-z
1/2+x,1/2+y,-z
-y,1/2+x,-z
-x,1/2+y,1/2+z
1/2+x,-y,1/2+z
-y,-x,1/2+z
1/2+y,1/2+x,1/2+z
loop_
_atom_site_type_symbol
_atom_site_label
_atom_site_fract_x
_atom_site_fract_y
_atom_site_fract_z
Si Si1 0.347713 0.824295 0.813432
Si Si2 0.237289 0.565393 0.512848
Si Si3 0.942540 0.776381 0.142930
Si Si4 0.569265 0.799663 0.895260
O O1 0.250000 0.750000 0.852212
O O2 0.367109 0.750000 0.750000
O O3 0.464669 0.835784 0.851329
O O4 0.298070 0.957045 0.804618
O O5 0.130536 0.655802 0.522573
O O6 0.282042 0.508098 0.576561
O O7 0.191354 0.462445 0.468033
O O8 0.848510 0.880287 0.150417
O O9 0.608469 0.669252 0.879224
#
# Coordination Sequence:
#
# PCOD8313782 Si02
#       4
#    16  16  16  16
#     4  11  26  48  71  99 137 190 244 295 364 427
#     4  11  22  37  68 109 152 191 236 290 359 434
#     4  11  25  45  74 110 148 193 247 303 365 435
#     4  11  25  43  68 105 143 184 235 291 353 427
#
# _framework density 22.817861000000001
#
# number of rings (size 3 to 8) (size 9 to 14) (size 15 to 20)
#    0.000    1.000    2.500    3.000    7.000    5.000 
#    4.500    1.250    0.000    6.000    0.000    0.000 
#    0.000    0.000    0.000    0.000    0.000    0.000 
#
# Total GULP energy -793333.334362 kJ/mol
# GULP energy per Si atom -12395.833349 kJ/mol
# Density = 2.276593 g / cm^3
# Si number density = 22.817861 Si / 1000 Ang^3
#
#
#
# Elastic Constant Matrix: (Units=GPa)
#
#
# Indices 1 2 3 4 5 6 
#
# 1 136.9257 51.2883 24.8388 0.0000 0.0000 0.0000
# 2 51.2883 136.9257 24.8388 0.0000 0.0000 0.0000
# 3 24.8388 24.8388 86.5752 0.0000 0.0000 0.0000
# 4 0.0000 0.0000 0.0000 18.2885 0.0000 0.0000
# 5 0.0000 0.0000 0.0000 0.0000 18.2885 0.0000
# 6 0.0000 0.0000 0.0000 0.0000 0.0000 13.4352
#
#
#
# Elastic Compliance Matrix: (Units=1/GPa)
#
#
# Indices 1 2 3 4 5 6 
#
# 1 0.008713 -0.002964 -0.001649 0.000000 0.000000 0.000000
# 2 -0.002964 0.008713 -0.001649 0.000000 0.000000 0.000000
# 3 -0.001649 -0.001649 0.012497 0.000000 0.000000 0.000000
# 4 0.000000 0.000000 0.000000 0.054679 0.000000 0.000000
# 5 0.000000 0.000000 0.000000 0.000000 0.054679 0.000000
# 6 0.000000 0.000000 0.000000 0.000000 0.000000 0.074431
#
#
# Mechanical properties :
#
#
# Convention : Reuss Voigt Hill
#
# Bulk Modulus (GPa) = 57.48168 62.48426 59.98297
# Shear Modulus (GPa) = 21.54831 27.29983 24.42407
#
# Velocity S-wave (km/s) = 3.07638 3.46269 3.27524
# Velocity P-wave (km/s) = 6.15346 6.59017 6.37555
#
# Compressibility (1/GPa) = 0.01739685
#
# Stress axis : x y z
#
# Youngs Moduli (GPa) = 114.77407 114.77407 80.01918
#
# Poissons Ratio (x) = 0.34023 0.13197
# Poissons Ratio (y) = 0.34023 0.13197
# Poissons Ratio (z) = 0.18929 0.18929
#
# Static dielectric constant tensor:
#      x y z
#    x 4.361610 0.000000 0.000000 
#    y 0.000000 4.361610 0.000000 
#    z 0.000000 0.000000 3.860060 
# 
# 
# High freq. dielectric constant tensor:
#      x y z
#    x 1.917400 0.000000 0.000000 
#    y 0.000000 1.917400 0.000000 
#    z 0.000000 0.000000 1.882990 
# 
# From -- ./inp_files/4919.got.cif
#   From: 2010.03.12/outbox.cif.g09.slc.cpg/sg126_3_cif.got.tgz:4919.got - 2010.04.06 16:55:23.
