data_PCOD8313395
_publ_section_title
;
Structure prediction by ZEFSAII (Michael W. Deem and Ramdas Pophale) SiO2 
 PCOD8313395
Probable space group: P 4/M C C
;
_chemical_formula_sum "Si O2"
_cell_formula_units_Z 64
_cell_length_a 10.798068
_cell_length_b 10.798068
_cell_length_c 27.562360
_cell_angle_alpha 90.000000
_cell_angle_beta 90.000000
_cell_angle_gamma 90.000000
_cell_volume 3213.723563
_symmetry_space_group_name_H-M "P 4/M C C"
_symmetry_group_IT_number 124
_symmetry_cell_setting 'tetragonal'
loop_
_space_group_symop_operation_xyz
x,y,z
-y,x,z
-x,-y,z
y,-x,z
x,-y,1/2-z
-x,y,1/2-z
y,x,1/2-z
-y,-x,1/2-z
-x,-y,-z
y,-x,-z
x,y,-z
-y,x,-z
-x,y,1/2+z
x,-y,1/2+z
-y,-x,1/2+z
y,x,1/2+z
loop_
_atom_site_type_symbol
_atom_site_label
_atom_site_fract_x
_atom_site_fract_y
_atom_site_fract_z
Si Si1 0.511267 0.296585 0.804426
Si Si2 0.182639 0.085589 0.443589
Si Si3 0.397957 0.911930 0.126399
Si Si4 0.999218 0.198931 0.806473
O O1 0.628826 0.385078 0.811334
O O2 0.500000 0.238728 0.750000
O O3 0.528090 0.195727 0.846164
O O4 0.212580 0.101136 0.500000
O O5 0.162031 0.940977 0.430227
O O6 0.300377 0.137266 0.413720
O O7 0.327693 0.997248 0.165759
O O8 0.500000 0.000000 0.100901
O O9 0.878000 0.121837 0.821286
O O10 0.000000 0.226982 0.750000
#
# Coordination Sequence:
#
# PCOD8313395 Si02
#       4
#    16  16  16  16
#     4   9  22  42  58  74 112 167 210 241 278 333
#     4   9  20  42  68  90 118 154 189 239 313 376
#     4  12  25  31  58  91 117 148 198 246 288 344
#     4   9  20  36  53  77 116 155 187 239 306 357
#
# _framework density 19.914593
#
# number of rings (size 3 to 8) (size 9 to 14) (size 15 to 20)
#    0.000    2.250    0.000    3.750   10.500    4.500 
#    0.000    0.000    0.000    0.000    0.000    1.750 
#    0.000    0.000    0.000    0.000    0.000    0.000 
#
# Total GULP energy -793328.779457 kJ/mol
# GULP energy per Si atom -12395.762179 kJ/mol
# Density = 1.986927 g / cm^3
# Si number density = 19.914593 Si / 1000 Ang^3
#
#
#
# Elastic Constant Matrix: (Units=GPa)
#
#
# Indices 1 2 3 4 5 6 
#
# 1 63.7587 24.5222 27.6394 0.0000 0.0000 0.0000
# 2 24.5222 63.7587 27.6394 0.0000 0.0000 0.0000
# 3 27.6394 27.6394 70.1021 0.0000 0.0000 0.0000
# 4 0.0000 0.0000 0.0000 32.3366 0.0000 0.0000
# 5 0.0000 0.0000 0.0000 0.0000 32.3366 0.0000
# 6 0.0000 0.0000 0.0000 0.0000 0.0000 16.0315
#
#
#
# Elastic Compliance Matrix: (Units=1/GPa)
#
#
# Indices 1 2 3 4 5 6 
#
# 1 0.020264 -0.005223 -0.005930 0.000000 0.000000 0.000000
# 2 -0.005223 0.020264 -0.005930 0.000000 0.000000 0.000000
# 3 -0.005930 -0.005930 0.018941 0.000000 0.000000 0.000000
# 4 0.000000 0.000000 0.000000 0.030925 0.000000 0.000000
# 5 0.000000 0.000000 0.000000 0.000000 0.030925 0.000000
# 6 0.000000 0.000000 0.000000 0.000000 0.000000 0.062377
#
#
# Mechanical properties :
#
#
# Convention : Reuss Voigt Hill
#
# Bulk Modulus (GPa) = 39.52263 39.69129 39.60696
# Shear Modulus (GPa) = 22.09503 23.99553 23.04528
#
# Velocity S-wave (km/s) = 3.33451 3.47496 3.40546
# Velocity P-wave (km/s) = 5.89190 6.00621 5.94933
#
# Compressibility (1/GPa) = 0.02530196
#
# Stress axis : x y z
#
# Youngs Moduli (GPa) = 49.34954 49.34954 52.79516
#
# Poissons Ratio (x) = 0.25775 0.31308
# Poissons Ratio (y) = 0.25775 0.31308
# Poissons Ratio (z) = 0.29265 0.29265
#
# Static dielectric constant tensor:
#      x y z
#    x 3.542970 0.000000 0.000000 
#    y 0.000000 3.542970 0.000000 
#    z 0.000000 0.000000 3.520920 
# 
# 
# High freq. dielectric constant tensor:
#      x y z
#    x 1.767370 0.000000 0.000000 
#    y 0.000000 1.767370 0.000000 
#    z 0.000000 0.000000 1.768200 
# 
# From -- ./inp_files/6398.got.cif
#   From: 2010.03.12/outbox.cif.g09.slc.cpg/sg124_4_cif.got.tgz:6398.got - 2010.04.06 16:38:57.
