data_PCOD8313225
_publ_section_title
;
Structure prediction by ZEFSAII (Michael W. Deem and Ramdas Pophale) SiO2 
 PCOD8313225
Probable space group: P 4/M C C
;
_chemical_formula_sum "Si O2"
_cell_formula_units_Z 96
_cell_length_a 23.919766
_cell_length_b 23.919766
_cell_length_c 8.968913
_cell_angle_alpha 90.000000
_cell_angle_beta 90.000000
_cell_angle_gamma 90.000000
_cell_volume 5131.610261
_symmetry_space_group_name_H-M "P 4/M C C"
_symmetry_group_IT_number 124
_symmetry_cell_setting 'tetragonal'
loop_
_space_group_symop_operation_xyz
x,y,z
-y,x,z
-x,-y,z
y,-x,z
x,-y,1/2-z
-x,y,1/2-z
y,x,1/2-z
-y,-x,1/2-z
-x,-y,-z
y,-x,-z
x,y,-z
-y,x,-z
-x,y,1/2+z
x,-y,1/2+z
-y,-x,1/2+z
y,x,1/2+z
loop_
_atom_site_type_symbol
_atom_site_label
_atom_site_fract_x
_atom_site_fract_y
_atom_site_fract_z
Si Si1 0.056266 0.267801 0.829074
Si Si2 0.441740 0.056017 0.174570
Si Si3 0.943865 0.136488 0.671702
Si Si4 0.732619 0.651705 0.674432
Si Si5 0.643045 0.439999 0.823142
Si Si6 0.140553 0.655033 0.173410
O O1 0.062780 0.202179 0.806769
O O2 0.111847 0.294343 0.760322
O O3 0.000000 0.290048 0.750000
O O4 0.051167 0.285383 0.000000
O O5 0.500000 0.071807 0.250000
O O6 0.401597 0.107621 0.207382
O O7 0.416748 0.000000 0.250000
O O8 0.450201 0.045106 0.000000
O O9 0.890749 0.109252 0.750000
O O10 0.946068 0.118942 0.500000
O O11 0.000000 0.114416 0.750000
O O12 0.705900 0.705900 0.750000
O O13 0.730331 0.662140 0.500000
O O14 0.698289 0.595880 0.716632
O O15 0.796267 0.645900 0.730917
O O16 0.651896 0.500000 0.750000
O O17 0.588865 0.411136 0.750000
O O18 0.633835 0.445408 0.000000
O O19 0.139255 0.670418 0.000000
#
# Coordination Sequence:
#
# PCOD8313225 Si02
#       6
#    16  16  16  16  16  16
#     4  10  21  36  55  79 106 138 176 220 269 318
#     4  10  20  34  52  75 105 139 173 214 262 309
#     4  10  21  37  56  79 107 138 174 216 264 318
#     4   9  20  38  56  77 108 143 178 219 265 312
#     4  10  20  36  58  83 112 145 181 221 267 316
#     4  10  21  36  55  79 107 140 179 221 264 314
#
# _framework density 18.707578000000002
#
# number of rings (size 3 to 8) (size 9 to 14) (size 15 to 20)
#    0.000    2.167    0.000    3.000    0.000    7.667 
#    0.000    5.000    0.000    0.000    0.000    0.000 
#    0.000    0.000    0.000    0.000    0.000    0.000 
#
# Total GULP energy -1190709.302521 kJ/mol
# GULP energy per Si atom -12403.221901 kJ/mol
# Density = 1.866500 g / cm^3
# Si number density = 18.707578 Si / 1000 Ang^3
#
#
#
# Elastic Constant Matrix: (Units=GPa)
#
#
# Indices 1 2 3 4 5 6 
#
# 1 125.4617 67.7479 62.6172 0.0000 0.0000 0.0000
# 2 67.7479 125.4518 62.6162 0.0000 0.0000 0.0000
# 3 62.6172 62.6162 107.8638 0.0000 0.0000 0.0000
# 4 0.0000 0.0000 0.0000 33.1827 0.0000 0.0000
# 5 0.0000 0.0000 0.0000 0.0000 33.1831 0.0000
# 6 0.0000 0.0000 0.0000 0.0000 0.0000 12.6253
#
#
#
# Elastic Compliance Matrix: (Units=1/GPa)
#
#
# Indices 1 2 3 4 5 6 
#
# 1 0.012813 -0.004515 -0.004817 0.000000 0.000000 0.000000
# 2 -0.004515 0.012814 -0.004818 0.000000 0.000000 0.000000
# 3 -0.004817 -0.004818 0.014864 0.000000 0.000000 0.000000
# 4 0.000000 0.000000 0.000000 0.030136 0.000000 0.000000
# 5 0.000000 0.000000 0.000000 0.000000 0.030136 0.000000
# 6 0.000000 0.000000 0.000000 0.000000 0.000000 0.079206
#
#
# Mechanical properties :
#
#
# Convention : Reuss Voigt Hill
#
# Bulk Modulus (GPa) = 82.02470 82.74885 82.38678
# Shear Modulus (GPa) = 23.54801 26.85127 25.19964
#
# Velocity S-wave (km/s) = 3.55172 3.79267 3.67417
# Velocity P-wave (km/s) = 7.79491 7.96918 7.88253
#
# Compressibility (1/GPa) = 0.01219145
#
# Stress axis : x y z
#
# Youngs Moduli (GPa) = 78.04711 78.03946 67.27625
#
# Poissons Ratio (x) = 0.35235 0.32408
# Poissons Ratio (y) = 0.35238 0.32411
# Poissons Ratio (z) = 0.37596 0.37597
#
# Static dielectric constant tensor:
#      x y z
#    x 3.500640 0.000000 0.000000 
#    y 0.000000 3.500640 0.000000 
#    z 0.000000 0.000000 3.566630 
# 
# 
# High freq. dielectric constant tensor:
#      x y z
#    x 1.728300 0.000000 0.000000 
#    y 0.000000 1.728300 0.000000 
#    z 0.000000 0.000000 1.736270 
# 
# From -- ./inp_files/1364.got.cif
#   From: 2010.03.12/outbox.cif.g09.slc.cpg/sg124_1_cif.got.tgz:1364.got - 2010.04.06 16:38:57.
