data_PCOD8313393
_publ_section_title
;
Structure prediction by ZEFSAII (Michael W. Deem and Ramdas Pophale) SiO2 
 PCOD8313393
Probable space group: P 4/M C C
;
_chemical_formula_sum "Si O2"
_cell_formula_units_Z 128
_cell_length_a 20.803129
_cell_length_b 20.803129
_cell_length_c 17.966510
_cell_angle_alpha 90.000000
_cell_angle_beta 90.000000
_cell_angle_gamma 90.000000
_cell_volume 7775.369698
_symmetry_space_group_name_H-M "P 4/M C C"
_symmetry_group_IT_number 124
_symmetry_cell_setting 'tetragonal'
loop_
_space_group_symop_operation_xyz
x,y,z
-y,x,z
-x,-y,z
y,-x,z
x,-y,1/2-z
-x,y,1/2-z
y,x,1/2-z
-y,-x,1/2-z
-x,-y,-z
y,-x,-z
x,y,-z
-y,x,-z
-x,y,1/2+z
x,-y,1/2+z
-y,-x,1/2+z
y,x,1/2+z
loop_
_atom_site_type_symbol
_atom_site_label
_atom_site_fract_x
_atom_site_fract_y
_atom_site_fract_z
Si Si1 0.044587 0.692179 0.685326
Si Si2 0.457503 0.403903 0.417500
Si Si3 0.764863 0.827660 0.687536
Si Si4 0.426745 0.899871 0.726530
Si Si5 0.225027 0.644444 0.223056
Si Si6 0.568307 0.340475 0.221515
Si Si7 0.280828 0.193879 0.914659
Si Si8 0.937273 0.350953 0.085751
O O1 0.099623 0.744816 0.667905
O O2 0.068788 0.622585 0.714593
O O3 0.000000 0.722392 0.750000
O O4 0.004555 0.682016 0.609288
O O5 0.532174 0.416895 0.401915
O O6 0.446232 0.379185 0.500000
O O7 0.433748 0.344640 0.367682
O O8 0.821649 0.821649 0.750000
O O9 0.702388 0.795259 0.723862
O O10 0.789095 0.791349 0.612971
O O11 0.500000 0.916833 0.750000
O O12 0.415701 0.823499 0.728935
O O13 0.410674 0.924141 0.642299
O O14 0.293354 0.622707 0.250866
O O15 0.231133 0.668143 0.137483
O O16 0.500000 0.317779 0.250000
O O17 0.587999 0.412002 0.250000
O O18 0.296512 0.117967 0.905828
O O19 0.288604 0.216413 0.000000
O O20 0.941191 0.375529 0.000000
#
# Coordination Sequence:
#
# PCOD8313393 Si02
#       8
#    16  16  16  16  16  16  16  16
#     4   9  17  28  46  72 100 129 156 196 238 269
#     4   9  18  34  50  63  83 108 133 173 232 291
#     4   9  16  30  49  68  96 127 163 191 224 275
#     4   9  17  32  50  65  89 126 162 188 230 285
#     4   9  19  33  47  67  89 117 155 195 230 274
#     4  12  21  30  47  68  87 108 146 190 232 285
#     4   9  17  32  52  70  93 128 160 191 232 282
#     4   9  18  31  48  72  99 123 157 200 240 281
#
# _framework density 16.462240000000001
#
# number of rings (size 3 to 8) (size 9 to 14) (size 15 to 20)
#    0.000    2.625    1.250    4.125    0.000    2.875 
#    0.000    4.375    0.000    3.750    0.000    0.000 
#    0.000   11.750    0.000   11.000    0.000    0.000 
#
# Total GULP energy -1585965.007883 kJ/mol
# GULP energy per Si atom -12390.351624 kJ/mol
# Density = 1.642477 g / cm^3
# Si number density = 16.462240 Si / 1000 Ang^3
#
#
#
# Elastic Constant Matrix: (Units=GPa)
#
#
# Indices 1 2 3 4 5 6 
#
# 1 75.9175 43.5685 48.2729 0.0000 0.0000 0.0000
# 2 43.5685 75.9162 48.2729 0.0000 0.0000 0.0000
# 3 48.2729 48.2729 135.8330 0.0000 0.0000 0.0000
# 4 0.0000 0.0000 0.0000 21.6876 0.0000 0.0000
# 5 0.0000 0.0000 0.0000 0.0000 21.6876 0.0000
# 6 0.0000 0.0000 0.0000 0.0000 0.0000 20.0108
#
#
#
# Elastic Compliance Matrix: (Units=1/GPa)
#
#
# Indices 1 2 3 4 5 6 
#
# 1 0.021327 -0.009586 -0.004172 0.000000 0.000000 0.000000
# 2 -0.009586 0.021327 -0.004173 0.000000 0.000000 0.000000
# 3 -0.004172 -0.004173 0.010328 0.000000 0.000000 0.000000
# 4 0.000000 0.000000 0.000000 0.046109 0.000000 0.000000
# 5 0.000000 0.000000 0.000000 0.000000 0.046109 0.000000
# 6 0.000000 0.000000 0.000000 0.000000 0.000000 0.049973
#
#
# Mechanical properties :
#
#
# Convention : Reuss Voigt Hill
#
# Bulk Modulus (GPa) = 58.41423 63.09948 60.75686
# Shear Modulus (GPa) = 21.12001 22.51402 21.81701
#
# Velocity S-wave (km/s) = 3.58570 3.70214 3.64438
# Velocity P-wave (km/s) = 7.25974 7.52911 7.39565
#
# Compressibility (1/GPa) = 0.01711912
#
# Stress axis : x y z
#
# Youngs Moduli (GPa) = 46.88933 46.88827 96.82780
#
# Poissons Ratio (x) = 0.44949 0.40400
# Poissons Ratio (y) = 0.44950 0.40402
# Poissons Ratio (z) = 0.19564 0.19564
#
# Static dielectric constant tensor:
#      x y z
#    x 3.091570 0.000000 0.000000 
#    y 0.000000 3.091580 0.000000 
#    z 0.000000 0.000000 3.199570 
# 
# 
# High freq. dielectric constant tensor:
#      x y z
#    x 1.617450 0.000000 0.000000 
#    y 0.000000 1.617450 0.000000 
#    z 0.000000 0.000000 1.633490 
# 
# From -- ./inp_files/4610.got.cif
#   From: 2010.03.12/outbox.cif.g09.slc.cpg/sg124_3_cif.got.tgz:4610.got - 2010.04.06 16:38:57.
