data_PCOD8313168
_publ_section_title
;
Structure prediction by ZEFSAII (Michael W. Deem and Ramdas Pophale) SiO2 
 PCOD8313168
Probable space group: P 4/M C C
;
_chemical_formula_sum "Si O2"
_cell_formula_units_Z 120
_cell_length_a 18.490356
_cell_length_b 18.490356
_cell_length_c 19.727723
_cell_angle_alpha 90.000000
_cell_angle_beta 90.000000
_cell_angle_gamma 90.000000
_cell_volume 6744.775628
_symmetry_space_group_name_H-M "P 4/M C C"
_symmetry_group_IT_number 124
_symmetry_cell_setting 'tetragonal'
loop_
_space_group_symop_operation_xyz
x,y,z
-y,x,z
-x,-y,z
y,-x,z
x,-y,1/2-z
-x,y,1/2-z
y,x,1/2-z
-y,-x,1/2-z
-x,-y,-z
y,-x,-z
x,y,-z
-y,x,-z
-x,y,1/2+z
x,-y,1/2+z
-y,-x,1/2+z
y,x,1/2+z
loop_
_atom_site_type_symbol
_atom_site_label
_atom_site_fract_x
_atom_site_fract_y
_atom_site_fract_z
Si Si1 0.673620 0.854396 0.075788
Si Si2 0.327290 0.268467 0.320284
Si Si3 0.812724 0.800375 0.331026
Si Si4 0.085135 0.076083 0.669444
Si Si5 0.531507 0.615016 0.000000
Si Si6 0.712629 0.406801 0.888545
Si Si7 0.527007 0.922481 0.921560
Si Si8 0.519581 0.805309 0.320908
O O1 0.731870 0.857371 0.137222
O O2 0.630301 0.778944 0.072452
O O3 0.613372 0.915980 0.091322
O O4 0.707724 0.866068 0.000000
O O5 0.289663 0.289663 0.250000
O O6 0.269898 0.212707 0.356178
O O7 0.338426 0.343078 0.360429
O O8 0.401738 0.228172 0.314341
O O9 0.810590 0.810590 0.250000
O O10 0.851927 0.871987 0.360778
O O11 0.082034 0.082034 0.750000
O O12 0.005407 0.101144 0.643950
O O13 0.449940 0.588141 0.000000
O O14 0.542534 0.664442 0.935047
O O15 0.742359 0.459802 0.830164
O O16 0.481559 0.862480 0.881281
O O17 0.500000 0.000000 0.895833
O O18 0.507920 0.910417 0.000000
O O19 0.500000 0.844327 0.250000
#
# Coordination Sequence:
#
# PCOD8313168 Si02
#       8
#    16  16  16  16   8  16  16  16
#     4   9  17  33  57  77 103 144 181 213 264 328
#     4  10  19  34  50  75 109 143 178 229 273 324
#     4   9  18  30  51  79 109 135 175 223 269 315
#     4   8  14  28  50  75 104 138 175 213 258 317
#     4  11  22  34  50  76 105 132 182 241 281 322
#     4  10  19  35  54  73 102 139 182 225 276 320
#     4   9  20  39  59  80 110 145 184 227 276 334
#     4  11  21  34  57  79 108 145 187 222 274 336
#
# _framework density 17.791547999999999
#
# number of rings (size 3 to 8) (size 9 to 14) (size 15 to 20)
#    0.000    2.467    2.000    1.200    2.800    0.267 
#    3.600    0.000    0.000    0.800    0.000    0.933 
#    0.000    0.000    0.000    0.000    0.000    0.000 
#
# Total GULP energy -1486662.654875 kJ/mol
# GULP energy per Si atom -12388.855457 kJ/mol
# Density = 1.775105 g / cm^3
# Si number density = 17.791548 Si / 1000 Ang^3
#
#
#
# Elastic Constant Matrix: (Units=GPa)
#
#
# Indices 1 2 3 4 5 6 
#
# 1 96.6547 60.6932 34.4861 0.0000 0.0000 0.0000
# 2 60.6932 96.6547 34.4861 0.0000 0.0000 0.0000
# 3 34.4861 34.4861 68.4949 0.0000 0.0000 0.0000
# 4 0.0000 0.0000 0.0000 15.4014 0.0000 0.0000
# 5 0.0000 0.0000 0.0000 0.0000 15.4014 0.0000
# 6 0.0000 0.0000 0.0000 0.0000 0.0000 25.4360
#
#
#
# Elastic Compliance Matrix: (Units=1/GPa)
#
#
# Indices 1 2 3 4 5 6 
#
# 1 0.017981 -0.009826 -0.004106 0.000000 0.000000 0.000000
# 2 -0.009826 0.017981 -0.004106 0.000000 0.000000 0.000000
# 3 -0.004106 -0.004106 0.018734 0.000000 0.000000 0.000000
# 4 0.000000 0.000000 0.000000 0.064929 0.000000 0.000000
# 5 0.000000 0.000000 0.000000 0.000000 0.064929 0.000000
# 6 0.000000 0.000000 0.000000 0.000000 0.000000 0.039314
#
#
# Mechanical properties :
#
#
# Convention : Reuss Voigt Hill
#
# Bulk Modulus (GPa) = 53.70401 57.90389 55.80395
# Shear Modulus (GPa) = 18.78618 20.05701 19.42160
#
# Velocity S-wave (km/s) = 3.25299 3.36122 3.30755
# Velocity P-wave (km/s) = 6.66033 6.90508 6.78381
#
# Compressibility (1/GPa) = 0.01862058
#
# Stress axis : x y z
#
# Youngs Moduli (GPa) = 55.61322 55.61322 53.37821
#
# Poissons Ratio (x) = 0.54646 0.21917
# Poissons Ratio (y) = 0.54646 0.21917
# Poissons Ratio (z) = 0.22835 0.22835
#
# Static dielectric constant tensor:
#      x y z
#    x 3.574970 0.000000 0.000000 
#    y 0.000000 3.574970 0.000000 
#    z 0.000000 0.000000 3.235810 
# 
# 
# High freq. dielectric constant tensor:
#      x y z
#    x 1.682530 0.000000 0.000000 
#    y 0.000000 1.682530 0.000000 
#    z 0.000000 0.000000 1.670260 
# 
# From -- ./inp_files/5618.got.cif
#   From: 2010.03.12/outbox.cif.g09.slc.cpg/sg124_3_cif.got.tgz:5618.got - 2010.04.06 16:38:57.
