data_PCOD8313415
_publ_section_title
;
Structure prediction by ZEFSAII (Michael W. Deem and Ramdas Pophale) SiO2 
 PCOD8313415
Probable space group: P 4/N B M
;
_chemical_formula_sum "Si O2"
_cell_formula_units_Z 96
_cell_length_a 15.583124
_cell_length_b 15.583124
_cell_length_c 20.274325
_cell_angle_alpha 90.000000
_cell_angle_beta 90.000000
_cell_angle_gamma 90.000000
_cell_volume 4923.290441
_symmetry_space_group_name_H-M "P 4/N B M"
_symmetry_group_IT_number 125
_space_group.IT_coordinate_system_code '2'
_symmetry_cell_setting 'tetragonal'
loop_
_space_group_symop_operation_xyz
x,y,z
1/2-y,x,z
1/2-x,1/2-y,z
y,1/2-x,z
x,1/2-y,-z
1/2-x,y,-z
y,x,-z
1/2-y,1/2-x,-z
-x,-y,-z
1/2+y,-x,-z
1/2+x,1/2+y,-z
-y,1/2+x,-z
-x,1/2+y,z
1/2+x,-y,z
-y,-x,z
1/2+y,1/2+x,z
loop_
_atom_site_type_symbol
_atom_site_label
_atom_site_fract_x
_atom_site_fract_y
_atom_site_fract_z
Si Si1 0.445224 0.410744 0.148128
Si Si2 0.494867 0.728114 0.123143
Si Si3 0.925787 0.567431 0.296168
Si Si4 0.250000 0.893035 0.500000
Si Si5 0.793147 0.435400 0.266652
Si Si6 0.884361 0.250000 0.000000
Si Si7 0.036251 0.827738 0.623261
O O1 0.515140 0.484861 0.130216
O O2 0.462213 0.321179 0.111280
O O3 0.349984 0.438454 0.126702
O O4 0.447157 0.389790 0.225816
O O5 0.438314 0.730753 0.189698
O O6 0.437804 0.709941 0.059619
O O7 0.830730 0.527147 0.293494
O O8 0.990780 0.490780 0.309676
O O9 0.940737 0.639346 0.353947
O O10 0.332717 0.832717 0.512936
O O11 0.262060 0.958430 0.438177
O O12 0.860561 0.360561 0.277167
O O13 0.711792 0.417013 0.312313
O O14 0.826153 0.173848 0.029721
O O15 0.090197 0.909804 0.601076
#
# Coordination Sequence:
#
# PCOD8313415 Si02
#       7
#    16  16  16   8  16   8  16
#     4  10  20  37  60  85 115 152 194 241 294 346
#     4  11  22  38  59  83 116 152 193 240 292 350
#     4   8  16  31  49  73 103 135 178 226 270 321
#     4   9  18  30  44  72 112 143 174 224 286 349
#     4  10  19  32  53  79 105 137 183 235 282 331
#     4  11  24  40  58  85 120 156 196 243 300 363
#     4  10  18  31  51  73 102 142 180 223 280 340
#
# _framework density 19.499153
#
# number of rings (size 3 to 8) (size 9 to 14) (size 15 to 20)
#    0.000    2.167    1.667    3.500    0.000    2.667 
#    0.000    2.500    0.000    5.500    0.000    0.000 
#    0.000    1.333    0.000    0.000    0.000    0.000 
#
# Total GULP energy -1189467.881555 kJ/mol
# GULP energy per Si atom -12390.290433 kJ/mol
# Density = 1.945477 g / cm^3
# Si number density = 19.499153 Si / 1000 Ang^3
#
#
#
# Elastic Constant Matrix: (Units=GPa)
#
#
# Indices 1 2 3 4 5 6 
#
# 1 73.5375 26.4811 24.0497 0.0000 0.0000 0.0000
# 2 26.4811 73.5375 24.0497 0.0000 0.0000 0.0000
# 3 24.0497 24.0497 105.2116 0.0000 0.0000 0.0000
# 4 0.0000 0.0000 0.0000 26.7824 0.0000 0.0000
# 5 0.0000 0.0000 0.0000 0.0000 26.7824 0.0000
# 6 0.0000 0.0000 0.0000 0.0000 0.0000 15.2330
#
#
#
# Elastic Compliance Matrix: (Units=1/GPa)
#
#
# Indices 1 2 3 4 5 6 
#
# 1 0.016242 -0.005009 -0.002568 0.000000 0.000000 0.000000
# 2 -0.005009 0.016242 -0.002568 0.000000 0.000000 0.000000
# 3 -0.002568 -0.002568 0.010679 0.000000 0.000000 0.000000
# 4 0.000000 0.000000 0.000000 0.037338 0.000000 0.000000
# 5 0.000000 0.000000 0.000000 0.000000 0.037338 0.000000
# 6 0.000000 0.000000 0.000000 0.000000 0.000000 0.065647
#
#
# Mechanical properties :
#
#
# Convention : Reuss Voigt Hill
#
# Bulk Modulus (GPa) = 43.71829 44.60528 44.16179
# Shear Modulus (GPa) = 23.65197 25.60662 24.62930
#
# Velocity S-wave (km/s) = 3.48656 3.62777 3.55786
# Velocity P-wave (km/s) = 6.21911 6.36182 6.29087
#
# Compressibility (1/GPa) = 0.02287372
#
# Stress axis : x y z
#
# Youngs Moduli (GPa) = 61.56864 61.56864 93.64601
#
# Poissons Ratio (x) = 0.30840 0.24045
# Poissons Ratio (y) = 0.30840 0.24045
# Poissons Ratio (z) = 0.15809 0.15809
#
# Static dielectric constant tensor:
#      x y z
#    x 3.549770 0.000000 0.000000 
#    y 0.000000 3.549770 0.000000 
#    z 0.000000 0.000000 3.504460 
# 
# 
# High freq. dielectric constant tensor:
#      x y z
#    x 1.745030 0.000000 0.000000 
#    y 0.000000 1.745030 0.000000 
#    z 0.000000 0.000000 1.748850 
# 
# From -- ./inp_files/5960.got.cif
#   From: 2010.03.12/outbox.cif.g09.slc.cpg/sg125_3_cif.got.tgz:5960.got - 2010.04.06 16:47:52.
