data_PCOD8313242
_publ_section_title
;
Structure prediction by ZEFSAII (Michael W. Deem and Ramdas Pophale) SiO2 
 PCOD8313242
Probable space group: P 4/M C C
;
_chemical_formula_sum "Si O2"
_cell_formula_units_Z 96
_cell_length_a 25.234377
_cell_length_b 25.234377
_cell_length_c 8.907499
_cell_angle_alpha 90.000000
_cell_angle_beta 90.000000
_cell_angle_gamma 90.000000
_cell_volume 5672.061832
_symmetry_space_group_name_H-M "P 4/M C C"
_symmetry_group_IT_number 124
_symmetry_cell_setting 'tetragonal'
loop_
_space_group_symop_operation_xyz
x,y,z
-y,x,z
-x,-y,z
y,-x,z
x,-y,1/2-z
-x,y,1/2-z
y,x,1/2-z
-y,-x,1/2-z
-x,-y,-z
y,-x,-z
x,y,-z
-y,x,-z
-x,y,1/2+z
x,-y,1/2+z
-y,-x,1/2+z
y,x,1/2+z
loop_
_atom_site_type_symbol
_atom_site_label
_atom_site_fract_x
_atom_site_fract_y
_atom_site_fract_z
Si Si1 0.334753 0.144927 0.679572
Si Si2 0.338772 0.257477 0.179125
Si Si3 0.256081 0.946294 0.824918
Si Si4 0.549889 0.135284 0.836302
Si Si5 0.054721 0.865824 0.322866
Si Si6 0.739289 0.551532 0.168207
O O1 0.335270 0.155160 0.500000
O O2 0.322368 0.199414 0.763433
O O3 0.290530 0.103223 0.731643
O O4 0.392226 0.122394 0.733493
O O5 0.297603 0.297603 0.250000
O O6 0.396968 0.274622 0.234229
O O7 0.336581 0.259151 0.000000
O O8 0.195341 0.935259 0.781387
O O9 0.277096 0.000000 0.750000
O O10 0.263271 0.954176 0.000000
O O11 0.500000 0.109899 0.750000
O O12 0.544144 0.198154 0.843796
O O13 0.546873 0.109647 0.000000
O O14 0.102745 0.897256 0.250000
O O15 0.052581 0.875713 0.500000
O O16 0.000000 0.885844 0.250000
O O17 0.714399 0.500000 0.250000
O O18 0.715418 0.557016 0.000000
#
# Coordination Sequence:
#
# PCOD8313242 Si02
#       6
#    16  16  16  16  16  16
#     4   9  18  33  49  68  94 126 160 198 243 290
#     4  11  21  32  46  68  99 133 165 202 246 293
#     4   9  19  35  54  73  96 124 158 197 237 281
#     4   8  14  24  41  63  89 117 150 191 234 277
#     4  10  20  35  54  76  99 123 150 185 227 276
#     4   9  16  28  45  66  92 125 163 201 240 288
#
# _framework density 16.925062
#
# number of rings (size 3 to 8) (size 9 to 14) (size 15 to 20)
#    0.000    2.667    0.000    3.500    0.000    6.167 
#    0.000    2.500    0.000    0.500    0.000    3.500 
#    0.000    0.333    0.000    3.333    0.000    2.167 
#
# Total GULP energy -1190049.697939 kJ/mol
# GULP energy per Si atom -12396.351020 kJ/mol
# Density = 1.688654 g / cm^3
# Si number density = 16.925062 Si / 1000 Ang^3
#
#
#
# Elastic Constant Matrix: (Units=GPa)
#
#
# Indices 1 2 3 4 5 6 
#
# 1 100.8368 71.8907 51.9275 0.0000 0.0000 0.0000
# 2 71.8907 100.8423 51.9276 0.0000 0.0000 0.0000
# 3 51.9275 51.9276 97.9194 0.0000 0.0000 0.0000
# 4 0.0000 0.0000 0.0000 25.4457 0.0000 0.0000
# 5 0.0000 0.0000 0.0000 0.0000 25.4455 0.0000
# 6 0.0000 0.0000 0.0000 0.0000 0.0000 -0.4155
#
#
#
# Elastic Compliance Matrix: (Units=1/GPa)
#
#
# Indices 1 2 3 4 5 6 
#
# 1 0.021522 -0.013022 -0.004508 0.000000 0.000000 0.000000
# 2 -0.013022 0.021521 -0.004507 0.000000 0.000000 0.000000
# 3 -0.004508 -0.004507 0.014993 0.000000 0.000000 0.000000
# 4 0.000000 0.000000 0.000000 0.039299 0.000000 0.000000
# 5 0.000000 0.000000 0.000000 0.000000 0.039300 0.000000
# 6 0.000000 0.000000 0.000000 0.000000 0.000000 -2.406681
#
#
# Mechanical properties :
#
#
# Convention : Reuss Voigt Hill
#
# Bulk Modulus (GPa) = 71.61993 72.34333 71.98163
# Shear Modulus (GPa) = -2.25092 18.35199 8.05053
#
# Velocity S-wave (km/s) = -1.15448 3.29646 2.18332
# Velocity P-wave (km/s) = 6.37422 7.57132 6.99841
#
# Compressibility (1/GPa) = 0.01396259
#
# Stress axis : x y z
#
# Youngs Moduli (GPa) = 46.46331 46.46673 66.69763
#
# Poissons Ratio (x) = 0.60510 0.30065
# Poissons Ratio (y) = 0.60505 0.30060
# Poissons Ratio (z) = 0.20944 0.20942
#
# Static dielectric constant tensor:
#      x y z
#    x 3.159870 0.000000 0.000000 
#    y 0.000000 3.159870 0.000000 
#    z 0.000000 0.000000 3.325550 
# 
# 
# High freq. dielectric constant tensor:
#      x y z
#    x 1.635820 0.000000 0.000000 
#    y 0.000000 1.635820 0.000000 
#    z 0.000000 0.000000 1.660080 
# 
# From -- ./inp_files/1370.got.cif
#   From: 2010.03.12/outbox.cif.g09.slc.cpg/sg124_1_cif.got.tgz:1370.got - 2010.04.06 16:38:57.
