data_PCOD8313828
_publ_section_title
;
Structure prediction by ZEFSAII (Michael W. Deem and Ramdas Pophale) SiO2 
 PCOD8313828
Probable space group: P 4/M B M
;
_chemical_formula_sum "Si O2"
_cell_formula_units_Z 120
_cell_length_a 26.385061
_cell_length_b 26.385061
_cell_length_c 13.997000
_cell_angle_alpha 90.000000
_cell_angle_beta 90.000000
_cell_angle_gamma 90.000000
_cell_volume 9744.311701
_symmetry_space_group_name_H-M "P 4/M B M"
_symmetry_group_IT_number 127
_symmetry_cell_setting 'tetragonal'
loop_
_space_group_symop_operation_xyz
x,y,z
-y,x,z
-x,-y,z
y,-x,z
1/2+x,1/2-y,-z
1/2-x,1/2+y,-z
1/2+y,1/2+x,-z
1/2-y,1/2-x,-z
-x,-y,-z
y,-x,-z
x,y,-z
-y,x,-z
1/2-x,1/2+y,z
1/2+x,1/2-y,z
1/2-y,1/2-x,z
1/2+y,1/2+x,z
loop_
_atom_site_type_symbol
_atom_site_label
_atom_site_fract_x
_atom_site_fract_y
_atom_site_fract_z
Si Si1 0.445447 0.135662 0.392341
Si Si2 0.811720 0.604478 0.209881
Si Si3 0.150035 0.489733 0.112233
Si Si4 0.959774 0.540227 0.113981
Si Si5 0.173777 0.241292 0.892720
Si Si6 0.747493 0.837437 0.107489
Si Si7 0.062158 0.355621 0.607617
Si Si8 0.093787 0.676542 0.208614
O O1 0.438685 0.156240 0.500000
O O2 0.420144 0.079857 0.381638
O O3 0.504354 0.132369 0.363761
O O4 0.417007 0.175107 0.322262
O O5 0.858348 0.641653 0.184219
O O6 0.813000 0.555597 0.142139
O O7 0.758295 0.631851 0.185471
O O8 0.814270 0.586982 0.320841
O O9 0.094739 0.476195 0.154977
O O10 0.169988 0.542056 0.152548
O O11 0.148085 0.494827 0.000000
O O12 0.000000 0.500000 0.152537
O O13 0.958198 0.541803 0.000000
O O14 0.218062 0.281939 0.894463
O O15 0.198049 0.186830 0.862874
O O16 0.150321 0.237735 0.000000
O O17 0.706371 0.793630 0.111044
O O18 0.730934 0.881906 0.180646
O O19 0.750750 0.859729 0.000000
O O20 0.066193 0.333570 0.500000
O O21 0.091225 0.408776 0.616095
O O22 0.131240 0.631240 0.177154
#
# Coordination Sequence:
#
# PCOD8313828 Si02
#       8
#    16  16  16   8  16  16  16  16
#     4   9  17  28  39  50  65  89 125 163 193 218
#     4  10  17  26  38  52  69  90 116 148 186 222
#     4  11  19  25  33  49  70  94 121 147 178 215
#     4   9  18  28  32  38  63  99 127 145 170 212
#     4   8  14  24  39  55  69  87 112 143 179 219
#     4   8  14  25  39  54  69  87 114 146 178 217
#     4   9  17  28  39  50  66  90 123 161 194 220
#     4  10  18  27  38  51  68  92 121 152 185 216
#
# _framework density 12.314876
#
# number of rings (size 3 to 8) (size 9 to 14) (size 15 to 20)
#    0.000    2.733    2.000    2.000    0.000    2.133 
#    0.000    1.333    0.000    0.800    0.000    5.600 
#    0.000    0.000    0.000    0.000    0.000    0.667 
#
# Total GULP energy -1487110.246434 kJ/mol
# GULP energy per Si atom -12392.585387 kJ/mol
# Density = 1.228685 g / cm^3
# Si number density = 12.314876 Si / 1000 Ang^3
#
#
#
# Elastic Constant Matrix: (Units=GPa)
#
#
# Indices 1 2 3 4 5 6 
#
# 1 53.4377 47.0667 38.6330 0.0000 0.0000 0.0000
# 2 47.0667 53.4377 38.6329 0.0000 0.0000 0.0000
# 3 38.6330 38.6329 72.8621 0.0000 0.0000 0.0000
# 4 0.0000 0.0000 0.0000 16.5580 0.0000 0.0000
# 5 0.0000 0.0000 0.0000 0.0000 16.5580 0.0000
# 6 0.0000 0.0000 0.0000 0.0000 0.0000 21.6852
#
#
#
# Elastic Compliance Matrix: (Units=1/GPa)
#
#
# Indices 1 2 3 4 5 6 
#
# 1 0.086879 -0.070082 -0.008906 0.000000 0.000000 0.000000
# 2 -0.070082 0.086878 -0.008906 0.000000 0.000000 0.000000
# 3 -0.008906 -0.008906 0.023169 0.000000 0.000000 0.000000
# 4 0.000000 0.000000 0.000000 0.060394 0.000000 0.000000
# 5 0.000000 0.000000 0.000000 0.000000 0.060394 0.000000
# 6 0.000000 0.000000 0.000000 0.000000 0.000000 0.046114
#
#
# Mechanical properties :
#
#
# Convention : Reuss Voigt Hill
#
# Bulk Modulus (GPa) = 47.30757 47.60032 47.45395
# Shear Modulus (GPa) = 9.14643 14.65389 11.90016
#
# Velocity S-wave (km/s) = 2.72823 3.45328 3.11195
# Velocity P-wave (km/s) = 6.95864 7.39167 7.17842
#
# Compressibility (1/GPa) = 0.02113826
#
# Stress axis : x y z
#
# Youngs Moduli (GPa) = 11.51032 11.51034 43.16181
#
# Poissons Ratio (x) = 0.80667 0.38440
# Poissons Ratio (y) = 0.80667 0.38439
# Poissons Ratio (z) = 0.10251 0.10251
#
# Static dielectric constant tensor:
#      x y z
#    x 2.469710 0.000000 0.000000 
#    y 0.000000 2.469710 0.000000 
#    z 0.000000 0.000000 2.648190 
# 
# 
# High freq. dielectric constant tensor:
#      x y z
#    x 1.434440 0.000000 0.000000 
#    y 0.000000 1.434440 0.000000 
#    z 0.000000 0.000000 1.472580 
# 
# From -- ./inp_files/4730.got.cif
#   From: 2010.03.12/outbox.cif.g09.slc.cpg/sg127_3_cif.got.tgz:4730.got - 2010.04.06 17:03:15.
