data_PCOD8313204
_publ_section_title
;
Structure prediction by ZEFSAII (Michael W. Deem and Ramdas Pophale) SiO2 
 PCOD8313204
Probable space group: P 4/M C C
;
_chemical_formula_sum "Si O2"
_cell_formula_units_Z 120
_cell_length_a 19.978507
_cell_length_b 19.978507
_cell_length_c 15.192422
_cell_angle_alpha 90.000000
_cell_angle_beta 90.000000
_cell_angle_gamma 90.000000
_cell_volume 6063.914589
_symmetry_space_group_name_H-M "P 4/M C C"
_symmetry_group_IT_number 124
_symmetry_cell_setting 'tetragonal'
loop_
_space_group_symop_operation_xyz
x,y,z
-y,x,z
-x,-y,z
y,-x,z
x,-y,1/2-z
-x,y,1/2-z
y,x,1/2-z
-y,-x,1/2-z
-x,-y,-z
y,-x,-z
x,y,-z
-y,x,-z
-x,y,1/2+z
x,-y,1/2+z
-y,-x,1/2+z
y,x,1/2+z
loop_
_atom_site_type_symbol
_atom_site_label
_atom_site_fract_x
_atom_site_fract_y
_atom_site_fract_z
Si Si1 0.082939 0.064746 0.895079
Si Si2 0.283558 0.743918 0.899213
Si Si3 0.888038 0.656579 0.344304
Si Si4 0.249031 0.599345 0.897999
Si Si5 0.383341 0.150352 0.337640
Si Si6 0.852898 0.795526 0.398352
Si Si7 0.225591 0.500000 0.750000
Si Si8 0.574834 0.990663 0.399884
O O1 0.141340 0.110584 0.852744
O O2 0.011601 0.092752 0.862040
O O3 0.086318 0.064645 0.000000
O O4 0.289081 0.666673 0.865325
O O5 0.350044 0.787928 0.890281
O O6 0.220113 0.781749 0.854501
O O7 0.264223 0.734467 0.000000
O O8 0.830682 0.614037 0.394905
O O9 0.867479 0.665391 0.242704
O O10 0.897856 0.729150 0.387365
O O11 0.959395 0.620467 0.344279
O O12 0.268027 0.542130 0.824383
O O13 0.267091 0.578238 0.000000
O O14 0.453948 0.176370 0.305021
O O15 0.397336 0.085077 0.396200
O O16 0.844626 0.813783 0.500000
O O17 0.577117 0.014912 0.500000
O O18 0.500000 0.000000 0.362156
#
# Coordination Sequence:
#
# PCOD8313204 Si02
#       8
#    16  16  16  16  16  16   8  16
#     4   8  14  25  42  65  92 121 158 213 275 325
#     4   9  19  35  55  79 108 144 182 227 279 326
#     4  10  20  32  48  70 100 142 181 223 283 338
#     4   9  18  35  55  77 110 147 185 227 277 339
#     4  11  22  35  52  78 110 142 185 234 274 327
#     4   9  17  30  48  70  97 133 177 219 266 329
#     4  10  22  34  55  82 106 147 186 224 282 340
#     4  11  22  35  52  73 102 142 185 229 277 331
#
# _framework density 19.789197000000001
#
# number of rings (size 3 to 8) (size 9 to 14) (size 15 to 20)
#    0.000    2.400    0.000    4.800    0.000    8.533 
#    0.000    2.667    0.000    0.000    0.000    0.000 
#    0.000    8.533    0.000   11.867    0.000    0.267 
#
# Total GULP energy -1486973.713264 kJ/mol
# GULP energy per Si atom -12391.447611 kJ/mol
# Density = 1.974416 g / cm^3
# Si number density = 19.789197 Si / 1000 Ang^3
#
#
#
# Elastic Constant Matrix: (Units=GPa)
#
#
# Indices 1 2 3 4 5 6 
#
# 1 103.8827 55.5276 19.3924 0.0000 0.0000 0.0000
# 2 55.5276 103.8827 19.3924 0.0000 0.0000 0.0000
# 3 19.3924 19.3924 50.3432 0.0000 0.0000 0.0000
# 4 0.0000 0.0000 0.0000 20.6625 0.0000 0.0000
# 5 0.0000 0.0000 0.0000 0.0000 20.6625 0.0000
# 6 0.0000 0.0000 0.0000 0.0000 0.0000 31.7023
#
#
#
# Elastic Compliance Matrix: (Units=1/GPa)
#
#
# Indices 1 2 3 4 5 6 
#
# 1 0.013801 -0.006879 -0.002666 0.000000 0.000000 0.000000
# 2 -0.006879 0.013801 -0.002666 0.000000 0.000000 0.000000
# 3 -0.002666 -0.002666 0.021918 0.000000 0.000000 0.000000
# 4 0.000000 0.000000 0.000000 0.048397 0.000000 0.000000
# 5 0.000000 0.000000 0.000000 0.000000 0.048397 0.000000
# 6 0.000000 0.000000 0.000000 0.000000 0.000000 0.031544
#
#
# Mechanical properties :
#
#
# Convention : Reuss Voigt Hill
#
# Bulk Modulus (GPa) = 39.84668 49.63707 44.74188
# Shear Modulus (GPa) = 23.73644 25.52518 24.63081
#
# Velocity S-wave (km/s) = 3.46709 3.59535 3.53180
# Velocity P-wave (km/s) = 6.01721 6.50944 6.26816
#
# Compressibility (1/GPa) = 0.02509619
#
# Stress axis : x y z
#
# Youngs Moduli (GPa) = 72.45805 72.45805 45.62503
#
# Poissons Ratio (x) = 0.49846 0.12165
# Poissons Ratio (y) = 0.49846 0.12165
# Poissons Ratio (z) = 0.19320 0.19320
#
# Static dielectric constant tensor:
#      x y z
#    x 3.541220 0.000000 0.000000 
#    y 0.000000 3.541220 0.000000 
#    z 0.000000 0.000000 3.486770 
# 
# 
# High freq. dielectric constant tensor:
#      x y z
#    x 1.752430 0.000000 0.000000 
#    y 0.000000 1.752430 0.000000 
#    z 0.000000 0.000000 1.765150 
# 
# From -- ./inp_files/3495.got.cif
#   From: 2010.03.12/outbox.cif.g09.slc.cpg/sg124_2_cif.got.tgz:3495.got - 2010.04.06 16:38:57.
