data_PCOD8313897
_publ_section_title
;
Structure prediction by ZEFSAII (Michael W. Deem and Ramdas Pophale) SiO2 
 PCOD8313897
Probable space group: P 4/M B M
;
_chemical_formula_sum "Si O2"
_cell_formula_units_Z 72
_cell_length_a 19.701959
_cell_length_b 19.701959
_cell_length_c 12.031404
_cell_angle_alpha 90.000000
_cell_angle_beta 90.000000
_cell_angle_gamma 90.000000
_cell_volume 4670.196264
_symmetry_space_group_name_H-M "P 4/M B M"
_symmetry_group_IT_number 127
_symmetry_cell_setting 'tetragonal'
loop_
_space_group_symop_operation_xyz
x,y,z
-y,x,z
-x,-y,z
y,-x,z
1/2+x,1/2-y,-z
1/2-x,1/2+y,-z
1/2+y,1/2+x,-z
1/2-y,1/2-x,-z
-x,-y,-z
y,-x,-z
x,y,-z
-y,x,-z
1/2-x,1/2+y,z
1/2+x,1/2-y,z
1/2-y,1/2-x,z
1/2+y,1/2+x,z
loop_
_atom_site_type_symbol
_atom_site_label
_atom_site_fract_x
_atom_site_fract_y
_atom_site_fract_z
Si Si1 0.220093 0.832678 0.000000
Si Si2 0.392301 0.529540 0.000000
Si Si3 0.073652 0.680315 0.123273
Si Si4 0.086633 0.069424 0.627209
Si Si5 0.678156 0.393319 0.819828
Si Si6 0.444636 0.832344 0.000000
O O1 0.175662 0.832781 0.111788
O O2 0.264039 0.901116 0.000000
O O3 0.266853 0.766853 0.000000
O O4 0.416571 0.453160 0.000000
O O5 0.348642 0.542007 0.889746
O O6 0.112408 0.612408 0.164805
O O7 0.091935 0.742397 0.205285
O O8 0.992709 0.665837 0.110848
O O9 0.100967 0.702075 0.000000
O O10 0.105627 0.084816 0.500000
O O11 0.138418 0.111607 0.703660
O O12 0.010413 0.093479 0.652757
O O13 0.398847 0.898847 0.000000
#
# Coordination Sequence:
#
# PCOD8313897 Si02
#       6
#     8   8  16  16  16   8
#     4  10  20  30  42  68 100 125 146 184 239 289
#     4  10  19  24  32  62  92 113 145 179 213 261
#     4   9  18  30  43  63  90 121 152 184 232 278
#     4   9  19  33  46  66  95 126 162 201 235 267
#     4  11  19  26  49  61  93 126 156 181 231 282
#     4   9  18  29  44  66  94 123 157 186 222 284
#
# _framework density 15.41691
#
# number of rings (size 3 to 8) (size 9 to 14) (size 15 to 20)
#    0.667    1.667    2.222    2.667    9.333    2.667 
#    0.000    0.000    0.000    2.667    0.000    0.000 
#    0.000    0.889    0.000    2.000    0.000    0.000 
#
# Total GULP energy -892401.905039 kJ/mol
# GULP energy per Si atom -12394.470903 kJ/mol
# Density = 1.538182 g / cm^3
# Si number density = 15.416910 Si / 1000 Ang^3
#
#
#
# Elastic Constant Matrix: (Units=GPa)
#
#
# Indices 1 2 3 4 5 6 
#
# 1 101.4335 49.2321 34.1902 0.0000 0.0000 0.0000
# 2 49.2321 101.4335 34.1902 0.0000 0.0000 0.0000
# 3 34.1902 34.1902 70.6555 0.0000 0.0000 0.0000
# 4 0.0000 0.0000 0.0000 16.3783 0.0000 0.0000
# 5 0.0000 0.0000 0.0000 0.0000 16.3783 0.0000
# 6 0.0000 0.0000 0.0000 0.0000 0.0000 18.9259
#
#
#
# Elastic Compliance Matrix: (Units=1/GPa)
#
#
# Indices 1 2 3 4 5 6 
#
# 1 0.013831 -0.005326 -0.004116 0.000000 0.000000 0.000000
# 2 -0.005326 0.013831 -0.004116 0.000000 0.000000 0.000000
# 3 -0.004116 -0.004116 0.018136 0.000000 0.000000 0.000000
# 4 0.000000 0.000000 0.000000 0.061057 0.000000 0.000000
# 5 0.000000 0.000000 0.000000 0.000000 0.061057 0.000000
# 6 0.000000 0.000000 0.000000 0.000000 0.000000 0.052838
#
#
# Mechanical properties :
#
#
# Convention : Reuss Voigt Hill
#
# Bulk Modulus (GPa) = 53.52168 56.52748 55.02458
# Shear Modulus (GPa) = 19.67802 20.73048 20.20425
#
# Velocity S-wave (km/s) = 3.57654 3.67094 3.62405
# Velocity P-wave (km/s) = 7.20049 7.39684 7.29932
#
# Compressibility (1/GPa) = 0.01868402
#
# Stress axis : x y z
#
# Youngs Moduli (GPa) = 72.30215 72.30215 55.13809
#
# Poissons Ratio (x) = 0.38506 0.22693
# Poissons Ratio (y) = 0.38506 0.22693
# Poissons Ratio (z) = 0.29757 0.29757
#
# Static dielectric constant tensor:
#      x y z
#    x 2.933230 0.000000 0.000000 
#    y 0.000000 2.933230 0.000000 
#    z 0.000000 0.000000 2.594500 
# 
# 
# High freq. dielectric constant tensor:
#      x y z
#    x 1.591810 0.000000 0.000000 
#    y 0.000000 1.591810 0.000000 
#    z 0.000000 0.000000 1.539520 
# 
# From -- ./inp_files/3383.got.cif
#   From: 2010.03.12/outbox.cif.g09.slc.cpg/sg127_2_cif.got.tgz:3383.got - 2010.04.06 17:03:15.
