data_PCOD8313367
_publ_section_title
;
Structure prediction by ZEFSAII (Michael W. Deem and Ramdas Pophale) SiO2 
 PCOD8313367
Probable space group: P 4/M C C
;
_chemical_formula_sum "Si O2"
_cell_formula_units_Z 88
_cell_length_a 15.189435
_cell_length_b 15.189435
_cell_length_c 19.012967
_cell_angle_alpha 90.000000
_cell_angle_beta 90.000000
_cell_angle_gamma 90.000000
_cell_volume 4386.651509
_symmetry_space_group_name_H-M "P 4/M C C"
_symmetry_group_IT_number 124
_symmetry_cell_setting 'tetragonal'
loop_
_space_group_symop_operation_xyz
x,y,z
-y,x,z
-x,-y,z
y,-x,z
x,-y,1/2-z
-x,y,1/2-z
y,x,1/2-z
-y,-x,1/2-z
-x,-y,-z
y,-x,-z
x,y,-z
-y,x,-z
-x,y,1/2+z
x,-y,1/2+z
-y,-x,1/2+z
y,x,1/2+z
loop_
_atom_site_type_symbol
_atom_site_label
_atom_site_fract_x
_atom_site_fract_y
_atom_site_fract_z
Si Si1 0.531224 0.805722 0.670653
Si Si2 0.069165 0.578365 0.079178
Si Si3 0.464118 0.360214 0.420399
Si Si4 0.329131 0.046481 0.318199
Si Si5 0.043119 0.862941 0.500000
Si Si6 0.859919 0.042984 0.152501
O O1 0.500000 0.790864 0.750000
O O2 0.452136 0.846709 0.624279
O O3 0.558573 0.713825 0.636229
O O4 0.619247 0.863944 0.667643
O O5 0.000000 0.500000 0.076764
O O6 0.021942 0.661008 0.116767
O O7 0.098023 0.605704 0.000000
O O8 0.562426 0.394644 0.407886
O O9 0.454924 0.323463 0.500000
O O10 0.225484 0.065011 0.300740
O O11 0.372328 0.000000 0.250000
O O12 0.058615 0.816070 0.425372
O O13 0.944067 0.892546 0.500000
O O14 0.942494 0.107378 0.166685
#
# Coordination Sequence:
#
# PCOD8313367 Si02
#       6
#    16  16  16  16   8  16
#     4  11  21  38  62  88 126 161 196 248 305 366
#     4   9  19  35  58  82 110 157 205 241 292 359
#     4   9  20  42  69  93 122 161 202 250 312 379
#     4  11  22  37  57  86 122 160 203 253 308 361
#     4   7  12  28  54  76  99 140 192 243 298 351
#     4   9  19  37  58  79 112 159 207 255 307 359
#
# _framework density 20.060859000000001
#
# number of rings (size 3 to 8) (size 9 to 14) (size 15 to 20)
#    0.000    2.455    1.818    2.182    1.273    2.182 
#    3.273    3.636    0.000    0.000    0.000    0.000 
#    0.000    0.000    0.000    0.000    0.000    0.000 
#
# Total GULP energy -1090397.635376 kJ/mol
# GULP energy per Si atom -12390.882220 kJ/mol
# Density = 2.001520 g / cm^3
# Si number density = 20.060859 Si / 1000 Ang^3
#
#
#
# Elastic Constant Matrix: (Units=GPa)
#
#
# Indices 1 2 3 4 5 6 
#
# 1 102.9550 36.4927 39.8994 0.0000 0.0000 0.0000
# 2 36.4927 102.9550 39.8994 0.0000 0.0000 0.0000
# 3 39.8994 39.8994 125.6362 0.0000 0.0000 0.0000
# 4 0.0000 0.0000 0.0000 29.3157 0.0000 0.0000
# 5 0.0000 0.0000 0.0000 0.0000 29.3157 0.0000
# 6 0.0000 0.0000 0.0000 0.0000 0.0000 13.9100
#
#
#
# Elastic Compliance Matrix: (Units=1/GPa)
#
#
# Indices 1 2 3 4 5 6 
#
# 1 0.011905 -0.003141 -0.002783 0.000000 0.000000 0.000000
# 2 -0.003141 0.011905 -0.002783 0.000000 0.000000 0.000000
# 3 -0.002783 -0.002783 0.009727 0.000000 0.000000 0.000000
# 4 0.000000 0.000000 0.000000 0.034111 0.000000 0.000000
# 5 0.000000 0.000000 0.000000 0.000000 0.034111 0.000000
# 6 0.000000 0.000000 0.000000 0.000000 0.000000 0.071891
#
#
# Mechanical properties :
#
#
# Convention : Reuss Voigt Hill
#
# Bulk Modulus (GPa) = 62.02668 62.68104 62.35386
# Shear Modulus (GPa) = 25.45308 28.85859 27.15584
#
# Velocity S-wave (km/s) = 3.56588 3.79694 3.68322
# Velocity P-wave (km/s) = 6.92390 7.10884 7.01698
#
# Compressibility (1/GPa) = 0.01612210
#
# Stress axis : x y z
#
# Youngs Moduli (GPa) = 83.99847 83.99847 102.80377
#
# Poissons Ratio (x) = 0.26385 0.28612
# Poissons Ratio (y) = 0.26385 0.28612
# Poissons Ratio (z) = 0.23379 0.23379
#
# Static dielectric constant tensor:
#      x y z
#    x 3.334910 0.000000 0.000000 
#    y 0.000000 3.334910 0.000000 
#    z 0.000000 0.000000 4.131090 
# 
# 
# High freq. dielectric constant tensor:
#      x y z
#    x 1.761500 0.000000 0.000000 
#    y 0.000000 1.761500 0.000000 
#    z 0.000000 0.000000 1.803640 
# 
# From -- ./inp_files/5170.got.cif
#   From: 2010.03.12/outbox.cif.g09.slc.cpg/sg124_3_cif.got.tgz:5170.got - 2010.04.06 16:38:57.
