data_PCOD8313920
_publ_section_title
;
Structure prediction by ZEFSAII (Michael W. Deem and Ramdas Pophale) SiO2 
 PCOD8313920
Probable space group: P 4/M B M
;
_chemical_formula_sum "Si O2"
_cell_formula_units_Z 96
_cell_length_a 14.676426
_cell_length_b 14.676426
_cell_length_c 24.741447
_cell_angle_alpha 90.000000
_cell_angle_beta 90.000000
_cell_angle_gamma 90.000000
_cell_volume 5329.245339
_symmetry_space_group_name_H-M "P 4/M B M"
_symmetry_group_IT_number 127
_symmetry_cell_setting 'tetragonal'
loop_
_space_group_symop_operation_xyz
x,y,z
-y,x,z
-x,-y,z
y,-x,z
1/2+x,1/2-y,-z
1/2-x,1/2+y,-z
1/2+y,1/2+x,-z
1/2-y,1/2-x,-z
-x,-y,-z
y,-x,-z
x,y,-z
-y,x,-z
1/2-x,1/2+y,z
1/2+x,1/2-y,z
1/2-y,1/2-x,z
1/2+y,1/2+x,z
loop_
_atom_site_type_symbol
_atom_site_label
_atom_site_fract_x
_atom_site_fract_y
_atom_site_fract_z
Si Si1 0.004869 0.354327 0.307708
Si Si2 0.963994 0.147444 0.116909
Si Si3 0.541904 0.645839 0.500000
Si Si4 0.383300 0.595229 0.304757
Si Si5 0.035377 0.854629 0.000000
Si Si6 0.099066 0.749925 0.605402
Si Si7 0.905439 0.253305 0.782099
O O1 0.939229 0.439229 0.304499
O O2 0.982921 0.299521 0.362482
O O3 0.987113 0.294442 0.254219
O O4 0.109343 0.390658 0.308774
O O5 0.952026 0.196802 0.057616
O O6 0.945906 0.226066 0.160144
O O7 0.065520 0.108036 0.124040
O O8 0.438402 0.611284 0.500000
O O9 0.557441 0.709074 0.448575
O O10 0.373313 0.486128 0.306716
O O11 0.331144 0.637269 0.356485
O O12 0.336355 0.631245 0.249631
O O13 0.934637 0.892581 0.000000
O O14 0.181207 0.681207 0.591707
O O15 0.823074 0.323074 0.790466
#
# Coordination Sequence:
#
# PCOD8313920 Si02
#       7
#    16  16   8  16   8  16  16
#     4   8  16  33  53  70  94 130 163 190 228 279
#     4   9  16  29  48  69  93 123 160 200 245 293
#     4  11  23  40  58  75  99 131 164 195 236 291
#     4  10  19  33  52  72  96 129 165 198 241 294
#     4   7  12  24  45  68  88 117 159 201 238 287
#     4  10  20  36  56  78 104 127 156 201 243 281
#     4  10  19  30  45  70 102 129 160 203 244 284
#
# _framework density 18.013807
#
# number of rings (size 3 to 8) (size 9 to 14) (size 15 to 20)
#    0.000    2.667    0.000    4.750    0.000    2.667 
#    0.000   16.667    0.000    2.000    0.000    1.750 
#    0.000    2.667    0.000    0.000    0.000    0.000 
#
# Total GULP energy -1189465.188018 kJ/mol
# GULP energy per Si atom -12390.262375 kJ/mol
# Density = 1.797281 g / cm^3
# Si number density = 18.013807 Si / 1000 Ang^3
#
#
#
# Elastic Constant Matrix: (Units=GPa)
#
#
# Indices 1 2 3 4 5 6 
#
# 1 75.5848 42.5318 51.3599 0.0000 0.0000 0.0000
# 2 42.5318 75.5848 51.3599 0.0000 0.0000 0.0000
# 3 51.3599 51.3599 176.6023 0.0000 0.0000 0.0000
# 4 0.0000 0.0000 0.0000 570.0632 0.0000 0.0000
# 5 0.0000 0.0000 0.0000 0.0000 570.0632 0.0000
# 6 0.0000 0.0000 0.0000 0.0000 0.0000 18.9502
#
#
#
# Elastic Compliance Matrix: (Units=1/GPa)
#
#
# Indices 1 2 3 4 5 6 
#
# 1 0.020793 -0.009461 -0.003296 0.000000 0.000000 0.000000
# 2 -0.009461 0.020793 -0.003296 0.000000 0.000000 0.000000
# 3 -0.003296 -0.003296 0.007579 0.000000 0.000000 0.000000
# 4 0.000000 0.000000 0.000000 0.001754 0.000000 0.000000
# 5 0.000000 0.000000 0.000000 0.000000 0.001754 0.000000
# 6 0.000000 0.000000 0.000000 0.000000 0.000000 0.052770
#
#
# Mechanical properties :
#
#
# Convention : Reuss Voigt Hill
#
# Bulk Modulus (GPa) = 58.61251 68.69722 63.65486
# Shear Modulus (GPa) = 34.90733 243.98335 139.44534
#
# Velocity S-wave (km/s) = 4.40683 11.65060 8.80785
# Velocity P-wave (km/s) = 7.64864 14.80542 11.78351
#
# Compressibility (1/GPa) = 0.01706121
#
# Stress axis : x y z
#
# Youngs Moduli (GPa) = 48.09227 48.09227 131.93731
#
# Poissons Ratio (x) = 0.45500 0.43482
# Poissons Ratio (y) = 0.45500 0.43482
# Poissons Ratio (z) = 0.15850 0.15850
#
# Static dielectric constant tensor:
#      x y z
#    x 3.337350 0.000000 0.000000 
#    y 0.000000 3.337350 0.000000 
#    z 0.000000 0.000000 3.584780 
# 
# 
# High freq. dielectric constant tensor:
#      x y z
#    x 1.680650 0.000000 0.000000 
#    y 0.000000 1.680650 0.000000 
#    z 0.000000 0.000000 1.705260 
# 
# From -- ./inp_files/6143.got.cif
#   From: 2010.03.12/outbox.cif.g09.slc.cpg/sg127_4_cif.got.tgz:6143.got - 2010.04.06 17:03:15.
