data_PCOD8313925
_publ_section_title
;
Structure prediction by ZEFSAII (Michael W. Deem and Ramdas Pophale) SiO2 
 PCOD8313925
Probable space group: P 4/M B M
;
_chemical_formula_sum "Si O2"
_cell_formula_units_Z 72
_cell_length_a 19.883916
_cell_length_b 19.883916
_cell_length_c 10.846140
_cell_angle_alpha 90.000000
_cell_angle_beta 90.000000
_cell_angle_gamma 90.000000
_cell_volume 4288.239624
_symmetry_space_group_name_H-M "P 4/M B M"
_symmetry_group_IT_number 127
_symmetry_cell_setting 'tetragonal'
loop_
_space_group_symop_operation_xyz
x,y,z
-y,x,z
-x,-y,z
y,-x,z
1/2+x,1/2-y,-z
1/2-x,1/2+y,-z
1/2+y,1/2+x,-z
1/2-y,1/2-x,-z
-x,-y,-z
y,-x,-z
x,y,-z
-y,x,-z
1/2-x,1/2+y,z
1/2+x,1/2-y,z
1/2-y,1/2-x,z
1/2+y,1/2+x,z
loop_
_atom_site_type_symbol
_atom_site_label
_atom_site_fract_x
_atom_site_fract_y
_atom_site_fract_z
Si Si1 0.075910 0.826575 0.858792
Si Si2 0.169913 0.935826 0.753078
Si Si3 0.311215 0.920876 0.855079
Si Si4 0.609116 0.527257 0.500000
Si Si5 0.571081 0.823887 0.145237
O O1 0.117697 0.876624 0.775398
O O2 0.089164 0.751065 0.808039
O O3 0.996803 0.843242 0.848052
O O4 0.098242 0.834259 0.000000
O O5 0.244927 0.907176 0.773681
O O6 0.158273 0.962633 0.615667
O O7 0.365833 0.865833 0.817330
O O8 0.341687 0.994032 0.821551
O O9 0.292639 0.916914 0.000000
O O10 0.548189 0.580302 0.500000
O O11 0.621265 0.878736 0.206723
O O12 0.580368 0.825150 0.000000
#
# Coordination Sequence:
#
# PCOD8313925 Si02
#       5
#    16  16  16   8  16
#     4  10  19  30  47  73 104 134 167 209 256 311
#     4  11  20  34  50  72 101 135 176 211 258 304
#     4   9  18  32  51  78 108 134 165 211 265 313
#     4  11  22  38  53  72  98 137 184 223 255 291
#     4   8  15  28  46  71 103 136 166 194 238 307
#
# _framework density 16.790106000000002
#
# number of rings (size 3 to 8) (size 9 to 14) (size 15 to 20)
#    0.000    2.333    2.222    3.333    0.000    1.778 
#    0.000    6.111    0.000    0.000    0.000   12.444 
#    0.000    7.111    0.000    0.000    0.000    0.000 
#
# Total GULP energy -892637.289961 kJ/mol
# GULP energy per Si atom -12397.740138 kJ/mol
# Density = 1.675189 g / cm^3
# Si number density = 16.790106 Si / 1000 Ang^3
#
#
#
# Elastic Constant Matrix: (Units=GPa)
#
#
# Indices 1 2 3 4 5 6 
#
# 1 101.6098 68.7032 15.1563 0.0000 0.0000 0.0000
# 2 68.7032 101.6098 15.1563 0.0000 0.0000 0.0000
# 3 15.1563 15.1563 45.7838 0.0000 0.0000 0.0000
# 4 0.0000 0.0000 0.0000 14.2467 0.0000 0.0000
# 5 0.0000 0.0000 0.0000 0.0000 14.2467 0.0000
# 6 0.0000 0.0000 0.0000 0.0000 0.0000 34.8915
#
#
#
# Elastic Compliance Matrix: (Units=1/GPa)
#
#
# Indices 1 2 3 4 5 6 
#
# 1 0.018314 -0.012075 -0.002065 0.000000 0.000000 0.000000
# 2 -0.012075 0.018314 -0.002065 0.000000 0.000000 0.000000
# 3 -0.002065 -0.002065 0.023209 0.000000 0.000000 0.000000
# 4 0.000000 0.000000 0.000000 0.070192 0.000000 0.000000
# 5 0.000000 0.000000 0.000000 0.000000 0.070192 0.000000
# 6 0.000000 0.000000 0.000000 0.000000 0.000000 0.028660
#
#
# Mechanical properties :
#
#
# Convention : Reuss Voigt Hill
#
# Bulk Modulus (GPa) = 36.46187 49.67056 43.06621
# Shear Modulus (GPa) = 18.48874 22.67613 20.58243
#
# Velocity S-wave (km/s) = 3.32199 3.67899 3.50504
# Velocity P-wave (km/s) = 6.03966 6.90609 6.48736
#
# Compressibility (1/GPa) = 0.02742591
#
# Stress axis : x y z
#
# Youngs Moduli (GPa) = 54.60277 54.60277 43.08619
#
# Poissons Ratio (x) = 0.65932 0.08899
# Poissons Ratio (y) = 0.65932 0.08899
# Poissons Ratio (z) = 0.11278 0.11278
#
# Static dielectric constant tensor:
#      x y z
#    x 3.301050 0.000000 0.000000 
#    y 0.000000 3.301050 0.000000 
#    z 0.000000 0.000000 2.798380 
# 
# 
# High freq. dielectric constant tensor:
#      x y z
#    x 1.650420 0.000000 0.000000 
#    y 0.000000 1.650420 0.000000 
#    z 0.000000 0.000000 1.605290 
# 
# From -- ./inp_files/1511.got.cif
#   From: 2010.03.12/outbox.cif.g09.slc.cpg/sg127_1_cif.got.tgz:1511.got - 2010.04.06 17:03:15.
