data_PCOD8313604
_publ_section_title
;
Structure prediction by ZEFSAII (Michael W. Deem and Ramdas Pophale) SiO2 
 PCOD8313604
Probable space group: P 4/N B M
;
_chemical_formula_sum "Si O2"
_cell_formula_units_Z 64
_cell_length_a 13.578014
_cell_length_b 13.578014
_cell_length_c 18.785311
_cell_angle_alpha 90.000000
_cell_angle_beta 90.000000
_cell_angle_gamma 90.000000
_cell_volume 3463.306226
_symmetry_space_group_name_H-M "P 4/N B M"
_symmetry_group_IT_number 125
_space_group.IT_coordinate_system_code '2'
_symmetry_cell_setting 'tetragonal'
loop_
_space_group_symop_operation_xyz
x,y,z
1/2-y,x,z
1/2-x,1/2-y,z
y,1/2-x,z
x,1/2-y,-z
1/2-x,y,-z
y,x,-z
1/2-y,1/2-x,-z
-x,-y,-z
1/2+y,-x,-z
1/2+x,1/2+y,-z
-y,1/2+x,-z
-x,1/2+y,z
1/2+x,-y,z
-y,-x,z
1/2+y,1/2+x,z
loop_
_atom_site_type_symbol
_atom_site_label
_atom_site_fract_x
_atom_site_fract_y
_atom_site_fract_z
Si Si1 0.858506 0.870838 0.922107
Si Si2 0.240505 0.087768 0.578613
Si Si3 0.519969 0.633857 0.217018
Si Si4 0.503571 0.333814 0.286744
O O1 0.742358 0.885864 0.913798
O O2 0.902047 0.937692 0.859444
O O3 0.901234 0.901234 0.000000
O O4 0.340383 0.147936 0.588542
O O5 0.250000 0.039318 0.500000
O O6 0.222728 0.002599 0.637160
O O7 0.412563 0.587438 0.226001
O O8 0.505605 0.750624 0.225677
O O9 0.593557 0.589469 0.276646
O O10 0.606330 0.393670 0.280821
#
# Coordination Sequence:
#
# PCOD8313604 Si02
#       4
#    16  16  16  16
#     4   9  17  31  54  83 112 141 181 234 290 330
#     4   9  17  32  56  83 109 137 184 240 290 335
#     4  11  22  35  56  83 110 151 192 230 285 340
#     4  11  22  36  56  84 115 148 189 236 288 345
#
# _framework density 18.479451999999998
#
# number of rings (size 3 to 8) (size 9 to 14) (size 15 to 20)
#    0.000    2.000    5.000    1.500    0.000    1.500 
#    0.000    3.750    0.000    0.000    0.000    0.000 
#    0.000    0.000    0.000    0.000    0.000    0.000 
#
# Total GULP energy -792921.079796 kJ/mol
# GULP energy per Si atom -12389.391872 kJ/mol
# Density = 1.843739 g / cm^3
# Si number density = 18.479452 Si / 1000 Ang^3
#
#
#
# Elastic Constant Matrix: (Units=GPa)
#
#
# Indices 1 2 3 4 5 6 
#
# 1 67.8618 36.0919 27.0116 0.0000 0.0000 0.0000
# 2 36.0919 67.8618 27.0116 0.0000 0.0000 0.0000
# 3 27.0116 27.0116 126.8746 0.0000 0.0000 0.0000
# 4 0.0000 0.0000 0.0000 18.3535 0.0000 0.0000
# 5 0.0000 0.0000 0.0000 0.0000 18.3535 0.0000
# 6 0.0000 0.0000 0.0000 0.0000 0.0000 29.7408
#
#
#
# Elastic Compliance Matrix: (Units=1/GPa)
#
#
# Indices 1 2 3 4 5 6 
#
# 1 0.021146 -0.010330 -0.002303 0.000000 0.000000 0.000000
# 2 -0.010330 0.021146 -0.002303 0.000000 0.000000 0.000000
# 3 -0.002303 -0.002303 0.008862 0.000000 0.000000 0.000000
# 4 0.000000 0.000000 0.000000 0.054485 0.000000 0.000000
# 5 0.000000 0.000000 0.000000 0.000000 0.054485 0.000000
# 6 0.000000 0.000000 0.000000 0.000000 0.000000 0.033624
#
#
# Mechanical properties :
#
#
# Convention : Reuss Voigt Hill
#
# Bulk Modulus (GPa) = 46.98389 49.20317 48.09353
# Shear Modulus (GPa) = 21.67173 24.78846 23.23009
#
# Velocity S-wave (km/s) = 3.42825 3.66649 3.54937
# Velocity P-wave (km/s) = 6.41488 6.67892 6.54823
#
# Compressibility (1/GPa) = 0.02128389
#
# Stress axis : x y z
#
# Youngs Moduli (GPa) = 47.28954 47.28954 112.83700
#
# Poissons Ratio (x) = 0.48850 0.25984
# Poissons Ratio (y) = 0.48850 0.25984
# Poissons Ratio (z) = 0.10890 0.10890
#
# Static dielectric constant tensor:
#      x y z
#    x 3.047640 0.000000 0.000000 
#    y 0.000000 3.047640 0.000000 
#    z 0.000000 0.000000 3.645590 
# 
# 
# High freq. dielectric constant tensor:
#      x y z
#    x 1.685770 0.000000 0.000000 
#    y 0.000000 1.685770 0.000000 
#    z 0.000000 0.000000 1.732830 
# 
# From -- ./inp_files/5254.got.cif
#   From: 2010.03.12/outbox.cif.g09.slc.cpg/sg125_3_cif.got.tgz:5254.got - 2010.04.06 16:47:52.
