data_PCOD8313177
_publ_section_title
;
Structure prediction by ZEFSAII (Michael W. Deem and Ramdas Pophale) SiO2 
 PCOD8313177
Probable space group: P 4/M C C
;
_chemical_formula_sum "Si O2"
_cell_formula_units_Z 96
_cell_length_a 16.161269
_cell_length_b 16.161269
_cell_length_c 19.175470
_cell_angle_alpha 90.000000
_cell_angle_beta 90.000000
_cell_angle_gamma 90.000000
_cell_volume 5008.376114
_symmetry_space_group_name_H-M "P 4/M C C"
_symmetry_group_IT_number 124
_symmetry_cell_setting 'tetragonal'
loop_
_space_group_symop_operation_xyz
x,y,z
-y,x,z
-x,-y,z
y,-x,z
x,-y,1/2-z
-x,y,1/2-z
y,x,1/2-z
-y,-x,1/2-z
-x,-y,-z
y,-x,-z
x,y,-z
-y,x,-z
-x,y,1/2+z
x,-y,1/2+z
-y,-x,1/2+z
y,x,1/2+z
loop_
_atom_site_type_symbol
_atom_site_label
_atom_site_fract_x
_atom_site_fract_y
_atom_site_fract_z
Si Si1 0.941239 0.286304 0.682226
Si Si2 0.568872 0.932807 0.576353
Si Si3 0.376580 0.536044 0.082003
Si Si4 0.132692 0.031711 0.580063
Si Si5 0.358410 0.222626 0.736799
Si Si6 0.785806 0.516012 0.350391
O O1 0.962101 0.364555 0.633411
O O2 0.950298 0.203969 0.636071
O O3 0.846308 0.296182 0.706262
O O4 0.000000 0.283319 0.750000
O O5 0.610988 0.918798 0.500000
O O6 0.516723 0.852690 0.596192
O O7 0.500000 0.000000 0.570048
O O8 0.399159 0.444252 0.109475
O O9 0.287841 0.561742 0.109668
O O10 0.375492 0.537219 0.000000
O O11 0.165012 0.039458 0.500000
O O12 0.060362 0.098280 0.592902
O O13 0.304773 0.304773 0.750000
O O14 0.433919 0.248879 0.687263
O O15 0.408287 0.181624 0.802156
#
# Coordination Sequence:
#
# PCOD8313177 Si02
#       6
#    16  16  16  16  16  16
#     4  11  23  36  59  86 118 152 186 237 286 344
#     4  10  21  38  58  80 108 147 198 241 283 336
#     4   9  17  29  49  77 104 134 179 233 286 340
#     4   9  20  40  64  89 118 151 186 229 286 349
#     4  10  22  35  51  78 112 145 189 233 282 344
#     4  10  19  35  54  73 105 150 186 232 289 339
#
# _framework density 19.167888999999999
#
# number of rings (size 3 to 8) (size 9 to 14) (size 15 to 20)
#    0.000    2.167    0.000    4.000    2.333    1.667 
#    0.000    0.833    0.000    6.000    0.000    0.000 
#    0.000    0.000    0.000    0.000    0.000    0.000 
#
# Total GULP energy -1189401.106872 kJ/mol
# GULP energy per Si atom -12389.594863 kJ/mol
# Density = 1.912426 g / cm^3
# Si number density = 19.167889 Si / 1000 Ang^3
#
#
#
# Elastic Constant Matrix: (Units=GPa)
#
#
# Indices 1 2 3 4 5 6 
#
# 1 80.9610 40.0027 56.8049 0.0000 0.0000 0.0000
# 2 40.0027 80.9610 56.8049 0.0000 0.0000 0.0000
# 3 56.8049 56.8049 117.0063 0.0000 0.0000 0.0000
# 4 0.0000 0.0000 0.0000 36.8625 0.0000 0.0000
# 5 0.0000 0.0000 0.0000 0.0000 36.8625 0.0000
# 6 0.0000 0.0000 0.0000 0.0000 0.0000 28.2139
#
#
#
# Elastic Compliance Matrix: (Units=1/GPa)
#
#
# Indices 1 2 3 4 5 6 
#
# 1 0.019805 -0.004610 -0.007377 0.000000 0.000000 0.000000
# 2 -0.004610 0.019805 -0.007377 0.000000 0.000000 0.000000
# 3 -0.007377 -0.007377 0.015710 0.000000 0.000000 0.000000
# 4 0.000000 0.000000 0.000000 0.027128 0.000000 0.000000
# 5 0.000000 0.000000 0.000000 0.000000 0.027128 0.000000
# 6 0.000000 0.000000 0.000000 0.000000 0.000000 0.035444
#
#
# Mechanical properties :
#
#
# Convention : Reuss Voigt Hill
#
# Bulk Modulus (GPa) = 60.27019 65.12815 62.69917
# Shear Modulus (GPa) = 26.41603 28.74217 27.57910
#
# Velocity S-wave (km/s) = 3.71636 3.87653 3.79729
# Velocity P-wave (km/s) = 7.06588 7.35447 7.21162
#
# Compressibility (1/GPa) = 0.01659195
#
# Stress axis : x y z
#
# Youngs Moduli (GPa) = 50.49123 50.49123 63.65484
#
# Poissons Ratio (x) = 0.23275 0.46960
# Poissons Ratio (y) = 0.23275 0.46960
# Poissons Ratio (z) = 0.37249 0.37249
#
# Static dielectric constant tensor:
#      x y z
#    x 3.485600 0.000000 0.000000 
#    y 0.000000 3.485600 0.000000 
#    z 0.000000 0.000000 4.014150 
# 
# 
# High freq. dielectric constant tensor:
#      x y z
#    x 1.743070 0.000000 0.000000 
#    y 0.000000 1.743070 0.000000 
#    z 0.000000 0.000000 1.753400 
# 
# From -- ./inp_files/5309.got.cif
#   From: 2010.03.12/outbox.cif.g09.slc.cpg/sg124_3_cif.got.tgz:5309.got - 2010.04.06 16:38:57.
