data_PCOD8313871
_publ_section_title
;
Structure prediction by ZEFSAII (Michael W. Deem and Ramdas Pophale) SiO2 
 PCOD8313871
Probable space group: P 4/M B M
;
_chemical_formula_sum "Si O2"
_cell_formula_units_Z 96
_cell_length_a 19.516464
_cell_length_b 19.516464
_cell_length_c 18.653786
_cell_angle_alpha 90.000000
_cell_angle_beta 90.000000
_cell_angle_gamma 90.000000
_cell_volume 7105.084704
_symmetry_space_group_name_H-M "P 4/M B M"
_symmetry_group_IT_number 127
_symmetry_cell_setting 'tetragonal'
loop_
_space_group_symop_operation_xyz
x,y,z
-y,x,z
-x,-y,z
y,-x,z
1/2+x,1/2-y,-z
1/2-x,1/2+y,-z
1/2+y,1/2+x,-z
1/2-y,1/2-x,-z
-x,-y,-z
y,-x,-z
x,y,-z
-y,x,-z
1/2-x,1/2+y,z
1/2+x,1/2-y,z
1/2-y,1/2-x,z
1/2+y,1/2+x,z
loop_
_atom_site_type_symbol
_atom_site_label
_atom_site_fract_x
_atom_site_fract_y
_atom_site_fract_z
Si Si1 0.960780 0.893855 0.924417
Si Si2 0.039506 0.106811 0.230994
Si Si3 0.706100 0.979509 0.415109
Si Si4 0.080790 0.191346 0.365240
Si Si5 0.445184 0.054817 0.414718
Si Si6 0.394154 0.463510 0.500000
Si Si7 0.337905 0.274495 0.417361
O O1 0.947299 0.857426 0.847615
O O2 0.039555 0.914079 0.925148
O O3 0.945462 0.852426 0.000000
O O4 0.059666 0.163215 0.288340
O O5 0.960290 0.086330 0.240724
O O6 0.705806 0.992173 0.500000
O O7 0.629792 0.965548 0.386019
O O8 0.754940 0.915210 0.395608
O O9 0.733181 0.047812 0.374910
O O10 0.048085 0.146762 0.427898
O O11 0.163095 0.191476 0.370226
O O12 0.443612 0.056389 0.500000
O O13 0.500000 0.000000 0.385642
O O14 0.457686 0.413322 0.500000
O O15 0.334791 0.297901 0.500000
O O16 0.291896 0.208105 0.403659
#
# Coordination Sequence:
#
# PCOD8313871 Si02
#       7
#    16  16  16  16   8   8  16
#     4   7  10  18  32  48  69 102 140 169 192 221
#     4   9  16  24  34  53  82 112 138 165 196 229
#     4  10  18  31  44  57  75 101 134 173 214 249
#     4  12  20  27  40  59  78 105 137 169 201 250
#     4   9  18  32  50  64  70  90 129 188 230 258
#     4  11  20  28  35  51  80 111 140 162 185 223
#     4  10  19  31  43  54  73 102 138 168 209 248
#
# _framework density 13.511449000000001
#
# number of rings (size 3 to 8) (size 9 to 14) (size 15 to 20)
#    0.000    2.333    2.500    4.500    0.000    2.000 
#    0.000    1.667    0.000    0.000    0.000    0.000 
#    0.000    0.667    0.000    1.083    0.000    0.833 
#
# Total GULP energy -1189451.750520 kJ/mol
# GULP energy per Si atom -12390.122401 kJ/mol
# Density = 1.348070 g / cm^3
# Si number density = 13.511449 Si / 1000 Ang^3
#
#
#
# Elastic Constant Matrix: (Units=GPa)
#
#
# Indices 1 2 3 4 5 6 
#
# 1 56.8600 17.5603 15.6672 0.0000 0.0000 0.0000
# 2 17.5603 56.8599 15.6672 0.0000 0.0000 0.0000
# 3 15.6672 15.6672 87.5426 0.0000 0.0000 0.0000
# 4 0.0000 0.0000 0.0000 9.7961 0.0000 0.0000
# 5 0.0000 0.0000 0.0000 0.0000 9.7960 0.0000
# 6 0.0000 0.0000 0.0000 0.0000 0.0000 19.5801
#
#
#
# Elastic Compliance Matrix: (Units=1/GPa)
#
#
# Indices 1 2 3 4 5 6 
#
# 1 0.019989 -0.005457 -0.002601 0.000000 0.000000 0.000000
# 2 -0.005457 0.019989 -0.002601 0.000000 0.000000 0.000000
# 3 -0.002601 -0.002601 0.012354 0.000000 0.000000 0.000000
# 4 0.000000 0.000000 0.000000 0.102082 0.000000 0.000000
# 5 0.000000 0.000000 0.000000 0.000000 0.102082 0.000000
# 6 0.000000 0.000000 0.000000 0.000000 0.000000 0.051072
#
#
# Mechanical properties :
#
#
# Convention : Reuss Voigt Hill
#
# Bulk Modulus (GPa) = 32.24217 33.22799 32.73508
# Shear Modulus (GPa) = 14.73957 17.99229 16.36593
#
# Velocity S-wave (km/s) = 3.30645 3.65311 3.48410
# Velocity P-wave (km/s) = 6.20415 6.51456 6.36125
#
# Compressibility (1/GPa) = 0.03101528
#
# Stress axis : x y z
#
# Youngs Moduli (GPa) = 50.02782 50.02772 80.94602
#
# Poissons Ratio (x) = 0.27298 0.21052
# Poissons Ratio (y) = 0.27298 0.21052
# Poissons Ratio (z) = 0.13011 0.13011
#
# Static dielectric constant tensor:
#      x y z
#    x 2.609760 0.000000 0.000000 
#    y 0.000000 2.609770 0.000000 
#    z 0.000000 0.000000 4.685000 
# 
# 
# High freq. dielectric constant tensor:
#      x y z
#    x 1.495910 0.000000 0.000000 
#    y 0.000000 1.495910 0.000000 
#    z 0.000000 0.000000 1.486590 
# 
# From -- ./inp_files/5316.got.cif
#   From: 2010.03.12/outbox.cif.g09.slc.cpg/sg127_3_cif.got.tgz:5316.got - 2010.04.06 17:03:15.
