data_PCOD8313103
_publ_section_title
;
Structure prediction by ZEFSAII (Michael W. Deem and Ramdas Pophale) SiO2 
 PCOD8313103
Probable space group: P 4/M C C
;
_chemical_formula_sum "Si O2"
_cell_formula_units_Z 128
_cell_length_a 20.470994
_cell_length_b 20.470994
_cell_length_c 17.545742
_cell_angle_alpha 90.000000
_cell_angle_beta 90.000000
_cell_angle_gamma 90.000000
_cell_volume 7352.746634
_symmetry_space_group_name_H-M "P 4/M C C"
_symmetry_group_IT_number 124
_symmetry_cell_setting 'tetragonal'
loop_
_space_group_symop_operation_xyz
x,y,z
-y,x,z
-x,-y,z
y,-x,z
x,-y,1/2-z
-x,y,1/2-z
y,x,1/2-z
-y,-x,1/2-z
-x,-y,-z
y,-x,-z
x,y,-z
-y,x,-z
-x,y,1/2+z
x,-y,1/2+z
-y,-x,1/2+z
y,x,1/2+z
loop_
_atom_site_type_symbol
_atom_site_label
_atom_site_fract_x
_atom_site_fract_y
_atom_site_fract_z
Si Si1 0.774577 0.270622 0.331715
Si Si2 0.384177 0.859332 0.193017
Si Si3 0.735073 0.531887 0.177061
Si Si4 0.591707 0.242411 0.587670
Si Si5 0.157485 0.281615 0.409421
Si Si6 0.950136 0.334884 0.813105
Si Si7 0.638697 0.325448 0.088004
Si Si8 0.568621 0.968022 0.590011
O O1 0.739678 0.260323 0.250000
O O2 0.844923 0.306314 0.322576
O O3 0.778449 0.201610 0.377375
O O4 0.735626 0.318527 0.387127
O O5 0.419303 0.790654 0.208727
O O6 0.386396 0.904044 0.268313
O O7 0.421441 0.895509 0.124038
O O8 0.700110 0.500000 0.250000
O O9 0.771940 0.476390 0.128447
O O10 0.677560 0.569814 0.132406
O O11 0.578918 0.229638 0.500000
O O12 0.650662 0.194639 0.612695
O O13 0.609748 0.318673 0.604199
O O14 0.145071 0.274355 0.500000
O O15 0.090636 0.280392 0.360229
O O16 0.000000 0.303570 0.750000
O O17 0.987328 0.373836 0.878429
O O18 0.621613 0.318414 0.000000
O O19 0.574722 0.962939 0.500000
O O20 0.500000 0.000000 0.614495
#
# Coordination Sequence:
#
# PCOD8313103 Si02
#       8
#    16  16  16  16  16  16  16  16
#     4  10  18  32  54  76  99 126 163 217 276 320
#     4  10  22  34  51  73 102 132 170 219 271 311
#     4  11  22  30  50  75  93 119 155 202 260 310
#     4   9  19  33  50  69  92 121 155 198 255 316
#     4  10  19  32  53  75  97 128 169 216 263 316
#     4  10  20  35  49  67  97 135 174 212 254 308
#     4   9  20  35  48  67  97 122 147 194 257 317
#     4  10  23  37  49  67  99 144 185 221 258 308
#
# _framework density 17.408460999999999
#
# number of rings (size 3 to 8) (size 9 to 14) (size 15 to 20)
#    0.000    2.125    1.250    2.625    8.750    4.750 
#    0.000    0.000    0.000    0.375    0.000    2.625 
#    0.000    0.000    0.000    0.000    0.000   60.625 
#
# Total GULP energy -1586153.271701 kJ/mol
# GULP energy per Si atom -12391.822435 kJ/mol
# Density = 1.736884 g / cm^3
# Si number density = 17.408461 Si / 1000 Ang^3
#
#
#
# Elastic Constant Matrix: (Units=GPa)
#
#
# Indices 1 2 3 4 5 6 
#
# 1 56.0487 20.1440 31.1589 0.0000 0.0000 0.0000
# 2 20.1440 56.0485 31.1589 0.0000 0.0000 0.0000
# 3 31.1589 31.1589 86.9094 0.0000 0.0000 0.0000
# 4 0.0000 0.0000 0.0000 24.2631 0.0000 0.0000
# 5 0.0000 0.0000 0.0000 0.0000 24.2629 0.0000
# 6 0.0000 0.0000 0.0000 0.0000 0.0000 25.9102
#
#
#
# Elastic Compliance Matrix: (Units=1/GPa)
#
#
# Indices 1 2 3 4 5 6 
#
# 1 0.023211 -0.004641 -0.006658 0.000000 0.000000 0.000000
# 2 -0.004641 0.023211 -0.006658 0.000000 0.000000 0.000000
# 3 -0.006658 -0.006658 0.016280 0.000000 0.000000 0.000000
# 4 0.000000 0.000000 0.000000 0.041215 0.000000 0.000000
# 5 0.000000 0.000000 0.000000 0.000000 0.041215 0.000000
# 6 0.000000 0.000000 0.000000 0.000000 0.000000 0.038595
#
#
# Mechanical properties :
#
#
# Convention : Reuss Voigt Hill
#
# Bulk Modulus (GPa) = 37.32855 40.43667 38.88261
# Shear Modulus (GPa) = 21.87525 22.65690 22.26607
#
# Velocity S-wave (km/s) = 3.54868 3.61153 3.58024
# Velocity P-wave (km/s) = 6.18710 6.37726 6.28290
#
# Compressibility (1/GPa) = 0.02678915
#
# Stress axis : x y z
#
# Youngs Moduli (GPa) = 43.08349 43.08332 61.42464
#
# Poissons Ratio (x) = 0.19994 0.40895
# Poissons Ratio (y) = 0.19994 0.40895
# Poissons Ratio (z) = 0.28684 0.28684
#
# Static dielectric constant tensor:
#      x y z
#    x 3.347350 0.000000 0.000000 
#    y 0.000000 3.347350 0.000000 
#    z 0.000000 0.000000 3.418670 
# 
# 
# High freq. dielectric constant tensor:
#      x y z
#    x 1.639560 0.000000 0.000000 
#    y 0.000000 1.639560 0.000000 
#    z 0.000000 0.000000 1.696760 
# 
# From -- ./inp_files/4566.got.cif
#   From: 2010.03.12/outbox.cif.g09.slc.cpg/sg124_3_cif.got.tgz:4566.got - 2010.04.06 16:38:57.
