data_PCOD8313189
_publ_section_title
;
Structure prediction by ZEFSAII (Michael W. Deem and Ramdas Pophale) SiO2 
 PCOD8313189
Probable space group: P 4/M C C
;
_chemical_formula_sum "Si O2"
_cell_formula_units_Z 88
_cell_length_a 17.757314
_cell_length_b 17.757314
_cell_length_c 14.874284
_cell_angle_alpha 90.000000
_cell_angle_beta 90.000000
_cell_angle_gamma 90.000000
_cell_volume 4690.191962
_symmetry_space_group_name_H-M "P 4/M C C"
_symmetry_group_IT_number 124
_symmetry_cell_setting 'tetragonal'
loop_
_space_group_symop_operation_xyz
x,y,z
-y,x,z
-x,-y,z
y,-x,z
x,-y,1/2-z
-x,y,1/2-z
y,x,1/2-z
-y,-x,1/2-z
-x,-y,-z
y,-x,-z
x,y,-z
-y,x,-z
-x,y,1/2+z
x,-y,1/2+z
-y,-x,1/2+z
y,x,1/2+z
loop_
_atom_site_type_symbol
_atom_site_label
_atom_site_fract_x
_atom_site_fract_y
_atom_site_fract_z
Si Si1 0.791724 0.224123 0.645213
Si Si2 0.299497 0.630239 0.334680
Si Si3 0.102265 0.314678 0.599251
Si Si4 0.609287 0.437691 0.500000
Si Si5 0.416723 0.854517 0.237667
Si Si6 0.067543 0.312153 0.101831
O O1 0.791181 0.208820 0.750000
O O2 0.736381 0.294034 0.622838
O O3 0.762112 0.150534 0.594482
O O4 0.877248 0.240806 0.615310
O O5 0.353711 0.646290 0.250000
O O6 0.345472 0.586279 0.410893
O O7 0.230875 0.579541 0.297917
O O8 0.102346 0.352183 0.500000
O O9 0.141203 0.371471 0.668842
O O10 0.017942 0.290618 0.627628
O O11 0.601912 0.527918 0.500000
O O12 0.500000 0.885792 0.250000
O O13 0.380415 0.908875 0.164726
O O14 0.072863 0.340823 0.000000
#
# Coordination Sequence:
#
# PCOD8313189 Si02
#       6
#    16  16  16   8  16  16
#     4  10  19  37  62  88 117 157 203 246 294 343
#     4  10  22  41  63  88 114 152 208 253 301 360
#     4  11  22  38  61  90 122 161 203 248 301 364
#     4  11  28  44  62  90 122 160 198 257 326 376
#     4  11  24  39  59  90 119 158 199 251 307 360
#     4  10  22  38  60  89 125 161 198 248 306 360
#
# _framework density 18.762557999999999
#
# number of rings (size 3 to 8) (size 9 to 14) (size 15 to 20)
#    0.000    1.545    5.455    1.091    8.909    2.182 
#    0.000    2.727    0.000    0.545    0.000    3.818 
#    0.000    0.000    0.000    0.000    0.000    0.000 
#
# Total GULP energy -1091088.530090 kJ/mol
# GULP energy per Si atom -12398.733296 kJ/mol
# Density = 1.871985 g / cm^3
# Si number density = 18.762558 Si / 1000 Ang^3
#
#
#
# Elastic Constant Matrix: (Units=GPa)
#
#
# Indices 1 2 3 4 5 6 
#
# 1 127.8236 60.1772 54.2533 0.0000 0.0000 0.0000
# 2 60.1772 127.8239 54.2525 0.0000 0.0000 0.0000
# 3 54.2533 54.2525 115.0667 0.0000 0.0000 0.0000
# 4 0.0000 0.0000 0.0000 29.3236 0.0000 0.0000
# 5 0.0000 0.0000 0.0000 0.0000 29.3234 0.0000
# 6 0.0000 0.0000 0.0000 0.0000 0.0000 13.9859
#
#
#
# Elastic Compliance Matrix: (Units=1/GPa)
#
#
# Indices 1 2 3 4 5 6 
#
# 1 0.011045 -0.003737 -0.003446 0.000000 0.000000 0.000000
# 2 -0.003737 0.011045 -0.003445 0.000000 0.000000 0.000000
# 3 -0.003446 -0.003445 0.011940 0.000000 0.000000 0.000000
# 4 0.000000 0.000000 0.000000 0.034102 0.000000 0.000000
# 5 0.000000 0.000000 0.000000 0.000000 0.034102 0.000000
# 6 0.000000 0.000000 0.000000 0.000000 0.000000 0.071501
#
#
# Mechanical properties :
#
#
# Convention : Reuss Voigt Hill
#
# Bulk Modulus (GPa) = 78.28996 78.67557 78.48276
# Shear Modulus (GPa) = 25.09409 27.99534 26.54472
#
# Velocity S-wave (km/s) = 3.66109 3.86694 3.76542
# Velocity P-wave (km/s) = 7.72585 7.87153 7.79903
#
# Compressibility (1/GPa) = 0.01277303
#
# Stress axis : x y z
#
# Youngs Moduli (GPa) = 90.53642 90.53739 83.75433
#
# Poissons Ratio (x) = 0.33838 0.28858
# Poissons Ratio (y) = 0.33838 0.28857
# Poissons Ratio (z) = 0.31195 0.31194
#
# Static dielectric constant tensor:
#      x y z
#    x 3.607000 0.000000 0.000000 
#    y 0.000000 3.607010 0.000000 
#    z 0.000000 0.000000 3.592040 
# 
# 
# High freq. dielectric constant tensor:
#      x y z
#    x 1.718120 0.000000 0.000000 
#    y 0.000000 1.718120 0.000000 
#    z 0.000000 0.000000 1.748160 
# 
# From -- ./inp_files/3195.got.cif
#   From: 2010.03.12/outbox.cif.g09.slc.cpg/sg124_2_cif.got.tgz:3195.got - 2010.04.06 16:38:57.
