data_PCOD8313860
_publ_section_title
;
Structure prediction by ZEFSAII (Michael W. Deem and Ramdas Pophale) SiO2 
 PCOD8313860
Probable space group: P 4/M B M
;
_chemical_formula_sum "Si O2"
_cell_formula_units_Z 104
_cell_length_a 18.187663
_cell_length_b 18.187663
_cell_length_c 18.365732
_cell_angle_alpha 90.000000
_cell_angle_beta 90.000000
_cell_angle_gamma 90.000000
_cell_volume 6075.220422
_symmetry_space_group_name_H-M "P 4/M B M"
_symmetry_group_IT_number 127
_symmetry_cell_setting 'tetragonal'
loop_
_space_group_symop_operation_xyz
x,y,z
-y,x,z
-x,-y,z
y,-x,z
1/2+x,1/2-y,-z
1/2-x,1/2+y,-z
1/2+y,1/2+x,-z
1/2-y,1/2-x,-z
-x,-y,-z
y,-x,-z
x,y,-z
-y,x,-z
1/2-x,1/2+y,z
1/2+x,1/2-y,z
1/2-y,1/2-x,z
1/2+y,1/2+x,z
loop_
_atom_site_type_symbol
_atom_site_label
_atom_site_fract_x
_atom_site_fract_y
_atom_site_fract_z
Si Si1 0.197881 0.179629 0.343646
Si Si2 0.442784 0.057217 0.086196
Si Si3 0.287553 0.908652 0.585848
Si Si4 0.159239 0.778266 0.183209
Si Si5 0.075232 0.692361 0.585674
Si Si6 0.461754 0.221267 0.083136
Si Si7 0.370356 0.756298 0.920242
O O1 0.252443 0.247558 0.339004
O O2 0.121621 0.212992 0.375268
O O3 0.188914 0.144378 0.263383
O O4 0.231267 0.115969 0.394790
O O5 0.461895 0.138533 0.112778
O O6 0.500000 0.000000 0.122325
O O7 0.448419 0.051582 0.000000
O O8 0.271544 0.908804 0.500000
O O9 0.357946 0.857946 0.604216
O O10 0.305698 0.991156 0.615118
O O11 0.198977 0.698977 0.186313
O O12 0.084568 0.771309 0.137897
O O13 0.209004 0.836906 0.143281
O O14 0.072951 0.684957 0.500000
O O15 0.122066 0.622066 0.617366
O O16 0.543490 0.250082 0.087585
O O17 0.430974 0.225860 0.000000
O O18 0.340415 0.840415 0.913188
O O19 0.347180 0.725523 0.000000
#
# Coordination Sequence:
#
# PCOD8313860 Si02
#       7
#    16   8  16  16  16  16  16
#     4   9  18  31  47  68  95 131 169 203 236 284
#     4   9  16  26  44  70  98 124 153 190 242 301
#     4   9  17  30  50  75 101 130 164 200 240 288
#     4  10  19  31  47  68  92 127 168 204 240 283
#     4   9  17  30  50  76 103 130 159 197 243 290
#     4  10  18  29  47  70  95 125 159 202 248 293
#     4   9  18  31  47  68  95 123 157 201 248 296
#
# _framework density 17.11872
#
# number of rings (size 3 to 8) (size 9 to 14) (size 15 to 20)
#    0.000    2.692    0.769    1.385    0.000    5.846 
#    0.000    1.538    0.000    1.846    0.000    6.462 
#    0.000    0.000    0.000    0.000    0.000    0.000 
#
# Total GULP energy -1288937.849522 kJ/mol
# GULP energy per Si atom -12393.633168 kJ/mol
# Density = 1.707976 g / cm^3
# Si number density = 17.118720 Si / 1000 Ang^3
#
#
#
# Elastic Constant Matrix: (Units=GPa)
#
#
# Indices 1 2 3 4 5 6 
#
# 1 96.3661 35.9747 30.1730 0.0000 0.0000 0.0000
# 2 35.9747 96.3660 30.1739 0.0000 0.0000 0.0000
# 3 30.1730 30.1739 51.9646 0.0000 0.0000 0.0000
# 4 0.0000 0.0000 0.0000 10.7053 0.0000 0.0000
# 5 0.0000 0.0000 0.0000 0.0000 10.7051 0.0000
# 6 0.0000 0.0000 0.0000 0.0000 0.0000 18.5159
#
#
#
# Elastic Compliance Matrix: (Units=1/GPa)
#
#
# Indices 1 2 3 4 5 6 
#
# 1 0.013418 -0.003141 -0.005967 0.000000 0.000000 0.000000
# 2 -0.003141 0.013418 -0.005968 0.000000 0.000000 0.000000
# 3 -0.005967 -0.005968 0.026174 0.000000 0.000000 0.000000
# 4 0.000000 0.000000 0.000000 0.093412 0.000000 0.000000
# 5 0.000000 0.000000 0.000000 0.000000 0.093414 0.000000
# 6 0.000000 0.000000 0.000000 0.000000 0.000000 0.054008
#
#
# Mechanical properties :
#
#
# Convention : Reuss Voigt Hill
#
# Bulk Modulus (GPa) = 43.74743 48.59332 46.17037
# Shear Modulus (GPa) = 15.07774 17.87692 16.47733
#
# Velocity S-wave (km/s) = 2.97100 3.23505 3.10584
# Velocity P-wave (km/s) = 6.11391 6.51167 6.31592
#
# Compressibility (1/GPa) = 0.02285849
#
# Stress axis : x y z
#
# Youngs Moduli (GPa) = 74.52691 74.52580 38.20563
#
# Poissons Ratio (x) = 0.23406 0.22799
# Poissons Ratio (y) = 0.23406 0.22801
# Poissons Ratio (z) = 0.44474 0.44476
#
# Static dielectric constant tensor:
#      x y z
#    x 3.174270 0.000000 0.000000 
#    y 0.000000 3.174270 0.000000 
#    z 0.000000 0.000000 3.205780 
# 
# 
# High freq. dielectric constant tensor:
#      x y z
#    x 1.645270 0.000000 0.000000 
#    y 0.000000 1.645270 0.000000 
#    z 0.000000 0.000000 1.651680 
# 
# From -- ./inp_files/5204.got.cif
#   From: 2010.03.12/outbox.cif.g09.slc.cpg/sg127_3_cif.got.tgz:5204.got - 2010.04.06 17:03:15.
