data_PCOD8313510
_publ_section_title
;
Structure prediction by ZEFSAII (Michael W. Deem and Ramdas Pophale) SiO2 
 PCOD8313510
Probable space group: P 4/N B M
;
_chemical_formula_sum "Si O2"
_cell_formula_units_Z 80
_cell_length_a 27.398143
_cell_length_b 27.398143
_cell_length_c 5.010456
_cell_angle_alpha 90.000000
_cell_angle_beta 90.000000
_cell_angle_gamma 90.000000
_cell_volume 3761.140082
_symmetry_space_group_name_H-M "P 4/N B M"
_symmetry_group_IT_number 125
_space_group.IT_coordinate_system_code '2'
_symmetry_cell_setting 'tetragonal'
loop_
_space_group_symop_operation_xyz
x,y,z
1/2-y,x,z
1/2-x,1/2-y,z
y,1/2-x,z
x,1/2-y,-z
1/2-x,y,-z
y,x,-z
1/2-y,1/2-x,-z
-x,-y,-z
1/2+y,-x,-z
1/2+x,1/2+y,-z
-y,1/2+x,-z
-x,1/2+y,z
1/2+x,-y,z
-y,-x,z
1/2+y,1/2+x,z
loop_
_atom_site_type_symbol
_atom_site_label
_atom_site_fract_x
_atom_site_fract_y
_atom_site_fract_z
Si Si1 0.114864 0.191538 0.541857
Si Si2 0.992118 0.571302 0.312571
Si Si3 0.066557 0.642343 0.559842
Si Si4 0.047062 0.802348 0.937679
Si Si5 0.840737 0.554657 0.950537
O O1 0.118087 0.250000 0.500000
O O2 0.169087 0.169087 0.500000
O O3 0.077600 0.168963 0.335081
O O4 0.095151 0.171269 0.826352
O O5 0.951041 0.548960 0.500000
O O6 0.967391 0.603218 0.070348
O O7 0.029242 0.529242 0.195811
O O8 0.020856 0.607150 0.510697
O O9 0.116617 0.616617 0.480711
O O10 0.060221 0.688738 0.369316
O O11 0.070451 0.657234 0.868565
O O12 0.989184 0.802855 0.994483
O O13 0.069107 0.750000 0.000000
#
# Coordination Sequence:
#
# PCOD8313510 Si02
#       5
#    16  16  16  16  16
#     4  12  26  44  66  89 115 151 200 259 322 379
#     4   9  19  37  61  89 123 165 207 241 283 345
#     4  10  21  36  55  82 117 152 188 237 282 325
#     4  11  21  36  58  83 115 153 193 233 281 344
#     4  11  23  40  63  89 122 156 194 245 299 357
#
# _framework density 21.270144999999999
#
# number of rings (size 3 to 8) (size 9 to 14) (size 15 to 20)
#    0.000    1.400    0.000    6.600    0.000    2.600 
#    0.000    4.000    0.000   33.000    0.000    0.000 
#    0.000   28.000    0.000    0.000    0.000    0.000 
#
# Total GULP energy -991498.363902 kJ/mol
# GULP energy per Si atom -12393.729549 kJ/mol
# Density = 2.122173 g / cm^3
# Si number density = 21.270145 Si / 1000 Ang^3
#
#
#
# Elastic Constant Matrix: (Units=GPa)
#
#
# Indices 1 2 3 4 5 6 
#
# 1 92.9537 61.4821 22.0105 0.0000 0.0000 0.0000
# 2 61.4821 92.9519 22.0099 0.0000 0.0000 0.0000
# 3 22.0105 22.0099 80.7335 0.0000 0.0000 0.0000
# 4 0.0000 0.0000 0.0000 17.3058 0.0000 0.0000
# 5 0.0000 0.0000 0.0000 0.0000 17.3071 0.0000
# 6 0.0000 0.0000 0.0000 0.0000 0.0000 19.0258
#
#
#
# Elastic Compliance Matrix: (Units=1/GPa)
#
#
# Indices 1 2 3 4 5 6 
#
# 1 0.019398 -0.012377 -0.001914 0.000000 0.000000 0.000000
# 2 -0.012377 0.019398 -0.001914 0.000000 0.000000 0.000000
# 3 -0.001914 -0.001914 0.013430 0.000000 0.000000 0.000000
# 4 0.000000 0.000000 0.000000 0.057784 0.000000 0.000000
# 5 0.000000 0.000000 0.000000 0.000000 0.057780 0.000000
# 6 0.000000 0.000000 0.000000 0.000000 0.000000 0.052560
#
#
# Mechanical properties :
#
#
# Convention : Reuss Voigt Hill
#
# Bulk Modulus (GPa) = 50.46570 53.07155 51.76863
# Shear Modulus (GPa) = 19.27771 21.47018 20.37394
#
# Velocity S-wave (km/s) = 3.01379 3.18056 3.09830
# Velocity P-wave (km/s) = 5.99067 6.20430 6.09842
#
# Compressibility (1/GPa) = 0.01981544
#
# Stress axis : x y z
#
# Youngs Moduli (GPa) = 51.55153 51.55068 74.45971
#
# Poissons Ratio (x) = 0.63806 0.14253
# Poissons Ratio (y) = 0.63807 0.14251
# Poissons Ratio (z) = 0.09868 0.09867
#
# Static dielectric constant tensor:
#      x y z
#    x 3.856020 0.000000 0.000000 
#    y 0.000000 3.856030 0.000000 
#    z 0.000000 0.000000 3.864010 
# 
# 
# High freq. dielectric constant tensor:
#      x y z
#    x 1.822630 0.000000 0.000000 
#    y 0.000000 1.822630 0.000000 
#    z 0.000000 0.000000 1.844040 
# 
# From -- ./inp_files/1158.got.cif
#   From: 2010.03.12/outbox.cif.g09.slc.cpg/sg125_1_cif.got.tgz:1158.got - 2010.04.06 16:47:52.
