data_PCOD8313830
_publ_section_title
;
Structure prediction by ZEFSAII (Michael W. Deem and Ramdas Pophale) SiO2 
 PCOD8313830
Probable space group: P 4/M B M
;
_chemical_formula_sum "Si O2"
_cell_formula_units_Z 72
_cell_length_a 23.032633
_cell_length_b 23.032633
_cell_length_c 9.178408
_cell_angle_alpha 90.000000
_cell_angle_beta 90.000000
_cell_angle_gamma 90.000000
_cell_volume 4869.165480
_symmetry_space_group_name_H-M "P 4/M B M"
_symmetry_group_IT_number 127
_symmetry_cell_setting 'tetragonal'
loop_
_space_group_symop_operation_xyz
x,y,z
-y,x,z
-x,-y,z
y,-x,z
1/2+x,1/2-y,-z
1/2-x,1/2+y,-z
1/2+y,1/2+x,-z
1/2-y,1/2-x,-z
-x,-y,-z
y,-x,-z
x,y,-z
-y,x,-z
1/2-x,1/2+y,z
1/2+x,1/2-y,z
1/2-y,1/2-x,z
1/2+y,1/2+x,z
loop_
_atom_site_type_symbol
_atom_site_label
_atom_site_fract_x
_atom_site_fract_y
_atom_site_fract_z
Si Si1 0.673610 0.988047 0.172618
Si Si2 0.454068 0.045933 0.827079
Si Si3 0.722697 0.868493 0.172751
Si Si4 0.217568 0.815099 0.162260
Si Si5 0.298255 0.893698 0.670695
O O1 0.609428 0.971752 0.228651
O O2 0.716219 0.935469 0.220762
O O3 0.694671 0.045193 0.252266
O O4 0.674531 0.999005 0.000000
O O5 0.500000 0.000000 0.762804
O O6 0.454484 0.045517 0.000000
O O7 0.669920 0.830081 0.239835
O O8 0.785645 0.842524 0.220293
O O9 0.717760 0.864492 0.000000
O O10 0.263973 0.763973 0.155262
O O11 0.238544 0.865111 0.271659
O O12 0.209542 0.841748 0.000000
O O13 0.292265 0.903054 0.500000
O O14 0.353050 0.853050 0.710381
#
# Coordination Sequence:
#
# PCOD8313830 Si02
#       5
#    16   8  16  16  16
#     4  10  17  27  44  63  84 109 142 178 212 249
#     4   9  16  24  37  59  83 111 147 179 201 232
#     4   8  13  24  43  66  85 101 129 176 222 254
#     4   8  14  26  45  63  78 100 134 173 216 259
#     4  10  20  31  40  55  83 116 147 178 210 242
#
# _framework density 14.786929000000001
#
# number of rings (size 3 to 8) (size 9 to 14) (size 15 to 20)
#    0.000    3.000    1.111    2.667    0.000    2.222 
#    0.000    1.667    0.000    3.333    0.000    0.000 
#    0.000    0.889    0.000   10.222    0.000    4.000 
#
# Total GULP energy -892295.030688 kJ/mol
# GULP energy per Si atom -12392.986537 kJ/mol
# Density = 1.475327 g / cm^3
# Si number density = 14.786929 Si / 1000 Ang^3
#
#
#
# Elastic Constant Matrix: (Units=GPa)
#
#
# Indices 1 2 3 4 5 6 
#
# 1 94.1526 81.7297 38.7726 0.0000 0.0000 0.0000
# 2 81.7297 94.1526 38.7725 0.0000 0.0000 0.0000
# 3 38.7726 38.7725 44.4406 0.0000 0.0000 0.0000
# 4 0.0000 0.0000 0.0000 9.3628 0.0000 0.0000
# 5 0.0000 0.0000 0.0000 0.0000 9.3628 0.0000
# 6 0.0000 0.0000 0.0000 0.0000 0.0000 27.1005
#
#
#
# Elastic Compliance Matrix: (Units=1/GPa)
#
#
# Indices 1 2 3 4 5 6 
#
# 1 0.044868 -0.035629 -0.008061 0.000000 0.000000 0.000000
# 2 -0.035629 0.044868 -0.008061 0.000000 0.000000 0.000000
# 3 -0.008061 -0.008061 0.036568 0.000000 0.000000 0.000000
# 4 0.000000 0.000000 0.000000 0.106806 0.000000 0.000000
# 5 0.000000 0.000000 0.000000 0.000000 0.106806 0.000000
# 6 0.000000 0.000000 0.000000 0.000000 0.000000 0.036900
#
#
# Mechanical properties :
#
#
# Convention : Reuss Voigt Hill
#
# Bulk Modulus (GPa) = 43.85469 61.25502 52.55486
# Shear Modulus (GPa) = 10.24760 14.06328 12.15544
#
# Velocity S-wave (km/s) = 2.63538 3.08727 2.87023
# Velocity P-wave (km/s) = 6.24359 7.36365 6.82663
#
# Compressibility (1/GPa) = 0.02280258
#
# Stress axis : x y z
#
# Youngs Moduli (GPa) = 22.28739 22.28745 27.34608
#
# Poissons Ratio (x) = 0.79407 0.22045
# Poissons Ratio (y) = 0.79407 0.22044
# Poissons Ratio (z) = 0.17967 0.17966
#
# Static dielectric constant tensor:
#      x y z
#    x 2.999490 0.000000 0.000000 
#    y 0.000000 2.999500 0.000000 
#    z 0.000000 0.000000 2.605870 
# 
# 
# High freq. dielectric constant tensor:
#      x y z
#    x 1.549560 0.000000 0.000000 
#    y 0.000000 1.549560 0.000000 
#    z 0.000000 0.000000 1.537160 
# 
# From -- ./inp_files/1755.got.cif
#   From: 2010.03.12/outbox.cif.g09.slc.cpg/sg127_1_cif.got.tgz:1755.got - 2010.04.06 17:03:15.
