data_PCOD8313385
_publ_section_title
;
Structure prediction by ZEFSAII (Michael W. Deem and Ramdas Pophale) SiO2 
 PCOD8313385
Probable space group: P 4/M C C
;
_chemical_formula_sum "Si O2"
_cell_formula_units_Z 56
_cell_length_a 10.950169
_cell_length_b 10.950169
_cell_length_c 25.322894
_cell_angle_alpha 90.000000
_cell_angle_beta 90.000000
_cell_angle_gamma 90.000000
_cell_volume 3036.372021
_symmetry_space_group_name_H-M "P 4/M C C"
_symmetry_group_IT_number 124
_symmetry_cell_setting 'tetragonal'
loop_
_space_group_symop_operation_xyz
x,y,z
-y,x,z
-x,-y,z
y,-x,z
x,-y,1/2-z
-x,y,1/2-z
y,x,1/2-z
-y,-x,1/2-z
-x,-y,-z
y,-x,-z
x,y,-z
-y,x,-z
-x,y,1/2+z
x,-y,1/2+z
-y,-x,1/2+z
y,x,1/2+z
loop_
_atom_site_type_symbol
_atom_site_label
_atom_site_fract_x
_atom_site_fract_y
_atom_site_fract_z
Si Si1 0.130773 0.442856 0.402821
Si Si2 0.701264 0.492341 0.000000
Si Si3 0.074153 0.815966 0.938626
Si Si4 0.505034 0.699295 0.810523
O O1 0.218240 0.494066 0.447833
O O2 0.121494 0.295953 0.403632
O O3 0.181028 0.487147 0.346466
O O4 0.000000 0.500000 0.412970
O O5 0.625646 0.616390 0.000000
O O6 0.933216 0.843690 0.925130
O O7 0.086995 0.780562 0.000000
O O8 0.383612 0.622648 0.823054
O O9 0.500000 0.742432 0.750000
#
# Coordination Sequence:
#
# PCOD8313385 Si02
#       4
#    16   8  16  16
#     4  12  24  33  59  89 118 147 191 243 284 342
#     4  11  25  40  56  83 124 158 186 235 297 346
#     4   9  20  37  55  78 118 166 196 224 273 341
#     4   9  20  41  64  83 110 150 192 238 296 350
#
# _framework density 18.443062000000001
#
# number of rings (size 3 to 8) (size 9 to 14) (size 15 to 20)
#    0.000    1.857    1.429    3.857    8.000    2.857 
#    0.000    0.000    0.000    0.000    0.000    0.000 
#    0.000    0.000    0.000    0.000    0.000    0.000 
#
# Total GULP energy -694626.200266 kJ/mol
# GULP energy per Si atom -12404.039290 kJ/mol
# Density = 1.840108 g / cm^3
# Si number density = 18.443062 Si / 1000 Ang^3
#
#
#
# Elastic Constant Matrix: (Units=GPa)
#
#
# Indices 1 2 3 4 5 6 
#
# 1 98.8600 41.9938 58.0848 0.0000 0.0000 0.0000
# 2 41.9938 98.8600 58.0848 0.0000 0.0000 0.0000
# 3 58.0848 58.0848 103.7809 0.0000 0.0000 0.0000
# 4 0.0000 0.0000 0.0000 -507.6563 0.0000 0.0000
# 5 0.0000 0.0000 0.0000 0.0000 -507.6563 0.0000
# 6 0.0000 0.0000 0.0000 0.0000 0.0000 15.6910
#
#
#
# Elastic Compliance Matrix: (Units=1/GPa)
#
#
# Indices 1 2 3 4 5 6 
#
# 1 0.015386 -0.002199 -0.007380 0.000000 0.000000 0.000000
# 2 -0.002199 0.015386 -0.007380 0.000000 0.000000 0.000000
# 3 -0.007380 -0.007380 0.017897 0.000000 0.000000 0.000000
# 4 0.000000 0.000000 0.000000 -0.001970 0.000000 0.000000
# 5 0.000000 0.000000 0.000000 0.000000 -0.001970 0.000000
# 6 0.000000 0.000000 0.000000 0.000000 0.000000 0.063731
#
#
# Mechanical properties :
#
#
# Convention : Reuss Voigt Hill
#
# Bulk Modulus (GPa) = 67.80228 68.64752 68.22490
# Shear Modulus (GPa) = 33.94528 -190.36850 -78.21161
#
# Velocity S-wave (km/s) = 4.29481 -10.17073 -6.51914
# Velocity P-wave (km/s) = 7.83816 10.03109 4.42640
#
# Compressibility (1/GPa) = 0.01474877
#
# Stress axis : x y z
#
# Youngs Moduli (GPa) = 64.99488 64.99488 55.87516
#
# Poissons Ratio (x) = 0.14294 0.41238
# Poissons Ratio (y) = 0.14294 0.41238
# Poissons Ratio (z) = 0.47968 0.47968
#
# Static dielectric constant tensor:
#      x y z
#    x 3.414750 0.000000 0.000000 
#    y 0.000000 3.414750 0.000000 
#    z 0.000000 0.000000 3.220580 
# 
# 
# High freq. dielectric constant tensor:
#      x y z
#    x 1.721490 0.000000 0.000000 
#    y 0.000000 1.721490 0.000000 
#    z 0.000000 0.000000 1.695260 
# 
# From -- ./inp_files/4945.got.cif
#   From: 2010.03.12/outbox.cif.g09.slc.cpg/sg124_3_cif.got.tgz:4945.got - 2010.04.06 16:38:57.
