data_PCOD8313154
_publ_section_title
;
Structure prediction by ZEFSAII (Michael W. Deem and Ramdas Pophale) SiO2 
 PCOD8313154
Probable space group: P 4/M C C
;
_chemical_formula_sum "Si O2"
_cell_formula_units_Z 112
_cell_length_a 18.718475
_cell_length_b 18.718475
_cell_length_c 17.651141
_cell_angle_alpha 90.000000
_cell_angle_beta 90.000000
_cell_angle_gamma 90.000000
_cell_volume 6184.629842
_symmetry_space_group_name_H-M "P 4/M C C"
_symmetry_group_IT_number 124
_symmetry_cell_setting 'tetragonal'
loop_
_space_group_symop_operation_xyz
x,y,z
-y,x,z
-x,-y,z
y,-x,z
x,-y,1/2-z
-x,y,1/2-z
y,x,1/2-z
-y,-x,1/2-z
-x,-y,-z
y,-x,-z
x,y,-z
-y,x,-z
-x,y,1/2+z
x,-y,1/2+z
-y,-x,1/2+z
y,x,1/2+z
loop_
_atom_site_type_symbol
_atom_site_label
_atom_site_fract_x
_atom_site_fract_y
_atom_site_fract_z
Si Si1 0.669158 0.705558 0.411639
Si Si2 0.926103 0.295931 0.911083
Si Si3 0.214250 0.202151 0.838876
Si Si4 0.840638 0.415794 0.587750
Si Si5 0.274475 0.087705 0.588339
Si Si6 0.930345 0.457831 0.910208
Si Si7 0.574089 0.583782 0.090174
O O1 0.690463 0.704108 0.500000
O O2 0.737429 0.730295 0.365365
O O3 0.600974 0.757521 0.398399
O O4 0.644883 0.628065 0.380666
O O5 0.873504 0.245896 0.863934
O O6 0.923250 0.377219 0.878437
O O7 0.004353 0.262802 0.896201
O O8 0.906410 0.293611 0.000000
O O9 0.205823 0.205823 0.750000
O O10 0.135303 0.212383 0.873960
O O11 0.860572 0.418855 0.500000
O O12 0.888121 0.351327 0.622697
O O13 0.863007 0.494088 0.619286
O O14 0.272631 0.106150 0.500000
O O15 0.000000 0.500000 0.880119
O O16 0.934949 0.449581 0.000000
O O17 0.494329 0.599599 0.119719
O O18 0.576817 0.582042 0.000000
#
# Coordination Sequence:
#
# PCOD8313154 Si02
#       7
#    16  16  16  16  16  16  16
#     4   9  17  30  49  70  97 133 172 216 262 311
#     4  10  19  32  56  84 105 134 174 220 264 311
#     4  11  23  36  50  73 105 143 177 210 250 306
#     4   8  13  23  42  72 104 132 156 195 256 310
#     4   9  17  33  56  78 104 133 166 211 262 314
#     4   9  14  23  44  79 111 127 157 208 260 313
#     4   8  14  25  44  72  99 121 159 223 287 323
#
# _framework density 18.109411000000001
#
# number of rings (size 3 to 8) (size 9 to 14) (size 15 to 20)
#    0.000    2.857    1.429    2.571    0.000    1.714 
#    0.000    4.286    0.000    8.143    0.000    4.000 
#    0.000    0.000    0.000    0.000    0.000    0.000 
#
# Total GULP energy -1387877.652104 kJ/mol
# GULP energy per Si atom -12391.764751 kJ/mol
# Density = 1.806819 g / cm^3
# Si number density = 18.109411 Si / 1000 Ang^3
#
#
#
# Elastic Constant Matrix: (Units=GPa)
#
#
# Indices 1 2 3 4 5 6 
#
# 1 100.3834 58.1589 35.3059 0.0000 0.0000 0.0000
# 2 58.1589 100.3834 35.3059 0.0000 0.0000 0.0000
# 3 35.3059 35.3059 50.5838 0.0000 0.0000 0.0000
# 4 0.0000 0.0000 0.0000 3.8350 0.0000 0.0000
# 5 0.0000 0.0000 0.0000 0.0000 3.8350 0.0000
# 6 0.0000 0.0000 0.0000 0.0000 0.0000 32.6625
#
#
#
# Elastic Compliance Matrix: (Units=1/GPa)
#
#
# Indices 1 2 3 4 5 6 
#
# 1 0.016418 -0.007265 -0.006388 0.000000 0.000000 0.000000
# 2 -0.007265 0.016418 -0.006388 0.000000 0.000000 0.000000
# 3 -0.006388 -0.006388 0.028687 0.000000 0.000000 0.000000
# 4 0.000000 0.000000 0.000000 0.260758 0.000000 0.000000
# 5 0.000000 0.000000 0.000000 0.000000 0.260758 0.000000
# 6 0.000000 0.000000 0.000000 0.000000 0.000000 0.030616
#
#
# Mechanical properties :
#
#
# Convention : Reuss Voigt Hill
#
# Bulk Modulus (GPa) = 46.64386 56.54357 51.59371
# Shear Modulus (GPa) = 7.56562 16.23847 11.90205
#
# Velocity S-wave (km/s) = 2.04617 2.99772 2.56643
# Velocity P-wave (km/s) = 5.60312 6.57821 6.11015
#
# Compressibility (1/GPa) = 0.02143905
#
# Stress axis : x y z
#
# Youngs Moduli (GPa) = 60.90945 60.90945 34.85912
#
# Poissons Ratio (x) = 0.44251 0.22269
# Poissons Ratio (y) = 0.44251 0.22269
# Poissons Ratio (z) = 0.38911 0.38911
#
# Static dielectric constant tensor:
#      x y z
#    x 3.432370 0.000000 0.000000 
#    y 0.000000 3.432370 0.000000 
#    z 0.000000 0.000000 2.790860 
# 
# 
# High freq. dielectric constant tensor:
#      x y z
#    x 1.698820 0.000000 0.000000 
#    y 0.000000 1.698820 0.000000 
#    z 0.000000 0.000000 1.641470 
# 
# From -- ./inp_files/5528.got.cif
#   From: 2010.03.12/outbox.cif.g09.slc.cpg/sg124_3_cif.got.tgz:5528.got - 2010.04.06 16:38:57.
