data_PCOD8313086
_publ_section_title
;
Structure prediction by ZEFSAII (Michael W. Deem and Ramdas Pophale) SiO2 
 PCOD8313086
Probable space group: P 4/M C C
;
_chemical_formula_sum "Si O2"
_cell_formula_units_Z 112
_cell_length_a 27.343025
_cell_length_b 27.343025
_cell_length_c 9.784891
_cell_angle_alpha 90.000000
_cell_angle_beta 90.000000
_cell_angle_gamma 90.000000
_cell_volume 7315.585850
_symmetry_space_group_name_H-M "P 4/M C C"
_symmetry_group_IT_number 124
_symmetry_cell_setting 'tetragonal'
loop_
_space_group_symop_operation_xyz
x,y,z
-y,x,z
-x,-y,z
y,-x,z
x,-y,1/2-z
-x,y,1/2-z
y,x,1/2-z
-y,-x,1/2-z
-x,-y,-z
y,-x,-z
x,y,-z
-y,x,-z
-x,y,1/2+z
x,-y,1/2+z
-y,-x,1/2+z
y,x,1/2+z
loop_
_atom_site_type_symbol
_atom_site_label
_atom_site_fract_x
_atom_site_fract_y
_atom_site_fract_z
Si Si1 0.198748 0.697153 0.342634
Si Si2 0.602924 0.148933 0.838766
Si Si3 0.454799 0.760285 0.840144
Si Si4 0.208083 0.146749 0.340014
Si Si5 0.044496 0.256990 0.156271
Si Si6 0.370368 0.044488 0.342540
Si Si7 0.356188 0.703501 0.154728
O O1 0.182659 0.699702 0.500000
O O2 0.168705 0.653081 0.270747
O O3 0.182357 0.749028 0.281178
O O4 0.256098 0.686345 0.326388
O O5 0.557954 0.183729 0.793516
O O6 0.596577 0.091766 0.801821
O O7 0.608688 0.156333 0.000000
O O8 0.500000 0.741742 0.750000
O O9 0.408872 0.725501 0.806359
O O10 0.468454 0.757543 0.000000
O O11 0.160207 0.160207 0.250000
O O12 0.196564 0.154831 0.500000
O O13 0.223545 0.091067 0.310573
O O14 0.057294 0.313720 0.186083
O O15 0.000000 0.238895 0.250000
O O16 0.028056 0.250706 0.000000
O O17 0.378574 0.030104 0.500000
O O18 0.388999 0.000000 0.250000
O O19 0.342669 0.657332 0.250000
O O20 0.357025 0.684377 0.000000
#
# Coordination Sequence:
#
# PCOD8313086 Si02
#       7
#    16  16  16  16  16  16  16
#     4   8  13  24  40  58  83 114 144 169 199 246
#     4   8  13  25  44  60  79 112 148 176 212 262
#     4   9  18  31  47  66  87 116 151 184 218 258
#     4  10  18  27  40  59  83 111 139 167 203 248
#     4   9  17  28  42  58  79 108 140 173 210 249
#     4   9  15  25  42  61  80 105 140 181 220 259
#     4   9  17  28  44  65  89 117 147 177 211 251
#
# _framework density 15.309777
#
# number of rings (size 3 to 8) (size 9 to 14) (size 15 to 20)
#    0.000    3.143    1.429    2.143    0.000    1.143 
#    0.000    0.714    0.000    2.143    0.000    3.000 
#    0.000    0.571    0.000    6.286    0.000    4.571 
#
# Total GULP energy -1387813.506989 kJ/mol
# GULP energy per Si atom -12391.192027 kJ/mol
# Density = 1.527493 g / cm^3
# Si number density = 15.309777 Si / 1000 Ang^3
#
#
#
# Elastic Constant Matrix: (Units=GPa)
#
#
# Indices 1 2 3 4 5 6 
#
# 1 67.8294 43.4156 44.2436 0.0000 0.0000 0.0000
# 2 43.4156 67.8305 44.2443 0.0000 0.0000 0.0000
# 3 44.2436 44.2443 58.9545 0.0000 0.0000 0.0000
# 4 0.0000 0.0000 0.0000 21.5413 0.0000 0.0000
# 5 0.0000 0.0000 0.0000 0.0000 21.5412 0.0000
# 6 0.0000 0.0000 0.0000 0.0000 0.0000 16.0909
#
#
#
# Elastic Compliance Matrix: (Units=1/GPa)
#
#
# Indices 1 2 3 4 5 6 
#
# 1 0.031631 -0.009328 -0.016737 0.000000 0.000000 0.000000
# 2 -0.009328 0.031631 -0.016738 0.000000 0.000000 0.000000
# 3 -0.016737 -0.016738 0.042085 0.000000 0.000000 0.000000
# 4 0.000000 0.000000 0.000000 0.046422 0.000000 0.000000
# 5 0.000000 0.000000 0.000000 0.000000 0.046423 0.000000
# 6 0.000000 0.000000 0.000000 0.000000 0.000000 0.062147
#
#
# Mechanical properties :
#
#
# Convention : Reuss Voigt Hill
#
# Bulk Modulus (GPa) = 50.65995 50.93573 50.79784
# Shear Modulus (GPa) = 14.18334 16.01542 15.09938
#
# Velocity S-wave (km/s) = 3.04702 3.23784 3.14388
# Velocity P-wave (km/s) = 6.74840 6.87899 6.81401
#
# Compressibility (1/GPa) = 0.01973946
#
# Stress axis : x y z
#
# Youngs Moduli (GPa) = 31.61439 31.61437 23.76157
#
# Poissons Ratio (x) = 0.29491 0.39771
# Poissons Ratio (y) = 0.29491 0.39772
# Poissons Ratio (z) = 0.52914 0.52916
#
# Static dielectric constant tensor:
#      x y z
#    x 2.765770 0.000000 0.000000 
#    y 0.000000 2.765770 0.000000 
#    z 0.000000 0.000000 2.702340 
# 
# 
# High freq. dielectric constant tensor:
#      x y z
#    x 1.564870 0.000000 0.000000 
#    y 0.000000 1.564870 0.000000 
#    z 0.000000 0.000000 1.564970 
# 
# From -- ./inp_files/2509.got.cif
#   From: 2010.03.12/outbox.cif.g09.slc.cpg/sg124_2_cif.got.tgz:2509.got - 2010.04.06 16:38:57.
