data_PCOD8313563
_publ_section_title
;
Structure prediction by ZEFSAII (Michael W. Deem and Ramdas Pophale) SiO2 
 PCOD8313563
Probable space group: P 4/N B M
;
_chemical_formula_sum "Si O2"
_cell_formula_units_Z 96
_cell_length_a 14.501746
_cell_length_b 14.501746
_cell_length_c 22.364406
_cell_angle_alpha 90.000000
_cell_angle_beta 90.000000
_cell_angle_gamma 90.000000
_cell_volume 4703.248829
_symmetry_space_group_name_H-M "P 4/N B M"
_symmetry_group_IT_number 125
_space_group.IT_coordinate_system_code '2'
_symmetry_cell_setting 'tetragonal'
loop_
_space_group_symop_operation_xyz
x,y,z
1/2-y,x,z
1/2-x,1/2-y,z
y,1/2-x,z
x,1/2-y,-z
1/2-x,y,-z
y,x,-z
1/2-y,1/2-x,-z
-x,-y,-z
1/2+y,-x,-z
1/2+x,1/2+y,-z
-y,1/2+x,-z
-x,1/2+y,z
1/2+x,-y,z
-y,-x,z
1/2+y,1/2+x,z
loop_
_atom_site_type_symbol
_atom_site_label
_atom_site_fract_x
_atom_site_fract_y
_atom_site_fract_z
Si Si1 0.679854 0.616265 0.859514
Si Si2 0.758601 0.018129 0.433327
Si Si3 0.755019 0.107521 0.313090
Si Si4 0.028269 0.124757 0.738201
Si Si5 0.993796 0.646927 0.972299
Si Si6 0.583004 0.565486 0.609263
O O1 0.788245 0.627864 0.871869
O O2 0.648033 0.593962 0.792665
O O3 0.650877 0.531666 0.902195
O O4 0.750000 0.059233 0.500000
O O5 0.682057 0.939329 0.422489
O O6 0.858449 0.974543 0.424754
O O7 0.745815 0.098032 0.384708
O O8 0.859964 0.140037 0.296697
O O9 0.687096 0.187096 0.292219
O O10 0.724471 0.016061 0.278718
O O11 0.087417 0.091367 0.680506
O O12 0.951593 0.048408 0.755366
O O13 0.088935 0.588935 0.981136
O O14 0.005556 0.750000 0.000000
O O15 0.906497 0.593504 0.000000
O O16 0.533710 0.466291 0.602236
#
# Coordination Sequence:
#
# PCOD8313563 Si02
#       6
#    16  16  16  16  16  16
#     4  11  23  38  63  97 130 169 219 270 316 371
#     4  11  22  36  56  80 109 147 192 245 306 375
#     4   9  19  36  56  79 109 149 196 249 314 377
#     4   9  20  39  58  83 120 158 204 260 315 380
#     4  11  23  43  71 101 137 183 225 266 321 383
#     4  10  23  40  58  81 113 154 194 245 309 370
#
# _framework density 20.411422999999999
#
# number of rings (size 3 to 8) (size 9 to 14) (size 15 to 20)
#    0.000    1.833    1.667    3.000    4.667    4.000 
#    0.000    3.333    0.000    2.000    0.000    0.000 
#    0.000    0.000    0.000    0.000    0.000    0.000 
#
# Total GULP energy -1189624.791206 kJ/mol
# GULP energy per Si atom -12391.924908 kJ/mol
# Density = 2.036497 g / cm^3
# Si number density = 20.411423 Si / 1000 Ang^3
#
#
#
# Elastic Constant Matrix: (Units=GPa)
#
#
# Indices 1 2 3 4 5 6 
#
# 1 78.6776 27.3794 19.9019 0.0000 0.0000 0.0000
# 2 27.3794 78.6772 19.9017 0.0000 0.0000 0.0000
# 3 19.9019 19.9017 91.2043 0.0000 0.0000 0.0000
# 4 0.0000 0.0000 0.0000 24.4372 0.0000 0.0000
# 5 0.0000 0.0000 0.0000 0.0000 24.4373 0.0000
# 6 0.0000 0.0000 0.0000 0.0000 0.0000 16.9165
#
#
#
# Elastic Compliance Matrix: (Units=1/GPa)
#
#
# Indices 1 2 3 4 5 6 
#
# 1 0.014882 -0.004612 -0.002241 0.000000 0.000000 0.000000
# 2 -0.004612 0.014882 -0.002241 0.000000 0.000000 0.000000
# 3 -0.002241 -0.002241 0.011942 0.000000 0.000000 0.000000
# 4 0.000000 0.000000 0.000000 0.040921 0.000000 0.000000
# 5 0.000000 0.000000 0.000000 0.000000 0.040921 0.000000
# 6 0.000000 0.000000 0.000000 0.000000 0.000000 0.059114
#
#
# Mechanical properties :
#
#
# Convention : Reuss Voigt Hill
#
# Bulk Modulus (GPa) = 42.52009 42.54722 42.53366
# Shear Modulus (GPa) = 23.95898 25.24994 24.60446
#
# Velocity S-wave (km/s) = 3.42980 3.52099 3.47569
# Velocity P-wave (km/s) = 6.04660 6.11718 6.08199
#
# Compressibility (1/GPa) = 0.02351829
#
# Stress axis : x y z
#
# Youngs Moduli (GPa) = 67.19555 67.19528 83.73505
#
# Poissons Ratio (x) = 0.30990 0.18765
# Poissons Ratio (y) = 0.30991 0.18765
# Poissons Ratio (z) = 0.15059 0.15058
#
# Static dielectric constant tensor:
#      x y z
#    x 3.743380 0.000000 0.000000 
#    y 0.000000 3.743380 0.000000 
#    z 0.000000 0.000000 3.603440 
# 
# 
# High freq. dielectric constant tensor:
#      x y z
#    x 1.796110 0.000000 0.000000 
#    y 0.000000 1.796110 0.000000 
#    z 0.000000 0.000000 1.789410 
# 
# From -- ./inp_files/5932.got.cif
#   From: 2010.03.12/outbox.cif.g09.slc.cpg/sg125_3_cif.got.tgz:5932.got - 2010.04.06 16:47:52.
