data_PCOD8313251
_publ_section_title
;
Structure prediction by ZEFSAII (Michael W. Deem and Ramdas Pophale) SiO2 
 PCOD8313251
Probable space group: P 4/M C C
;
_chemical_formula_sum "Si O2"
_cell_formula_units_Z 96
_cell_length_a 23.742029
_cell_length_b 23.742029
_cell_length_c 8.410132
_cell_angle_alpha 90.000000
_cell_angle_beta 90.000000
_cell_angle_gamma 90.000000
_cell_volume 4740.656350
_symmetry_space_group_name_H-M "P 4/M C C"
_symmetry_group_IT_number 124
_symmetry_cell_setting 'tetragonal'
loop_
_space_group_symop_operation_xyz
x,y,z
-y,x,z
-x,-y,z
y,-x,z
x,-y,1/2-z
-x,y,1/2-z
y,x,1/2-z
-y,-x,1/2-z
-x,-y,-z
y,-x,-z
x,y,-z
-y,x,-z
-x,y,1/2+z
x,-y,1/2+z
-y,-x,1/2+z
y,x,1/2+z
loop_
_atom_site_type_symbol
_atom_site_label
_atom_site_fract_x
_atom_site_fract_y
_atom_site_fract_z
Si Si1 0.828904 0.555266 0.818107
Si Si2 0.819681 0.259738 0.686527
Si Si3 0.349968 0.435950 0.813104
Si Si4 0.057551 0.577598 0.815082
Si Si5 0.057374 0.701348 0.310659
Si Si6 0.248112 0.639075 0.818552
O O1 0.797906 0.500000 0.750000
O O2 0.895490 0.549145 0.796303
O O3 0.809543 0.605162 0.704701
O O4 0.811902 0.566261 0.000000
O O5 0.802194 0.197807 0.750000
O O6 0.816081 0.265167 0.500000
O O7 0.884573 0.268006 0.740307
O O8 0.770623 0.300434 0.755197
O O9 0.341690 0.500000 0.750000
O O10 0.408104 0.408104 0.750000
O O11 0.298351 0.393395 0.772490
O O12 0.353886 0.440778 0.000000
O O13 0.057752 0.643969 0.787036
O O14 0.000000 0.550808 0.750000
O O15 0.067509 0.563891 0.000000
O O16 0.055408 0.690962 0.500000
O O17 0.000000 0.733764 0.250000
O O18 0.266967 0.643637 0.000000
#
# Coordination Sequence:
#
# PCOD8313251 Si02
#       6
#    16  16  16  16  16  16
#     4  12  24  39  56  79 109 146 194 245 295 350
#     4  11  23  38  59  89 124 161 202 249 295 348
#     4  12  26  47  71  97 125 155 192 238 293 358
#     4  11  21  35  55  78 106 145 190 240 294 346
#     4  10  20  35  57  83 116 156 200 245 295 348
#     4  12  24  41  63  89 120 158 196 238 295 354
#
# _framework density 20.250361999999999
#
# number of rings (size 3 to 8) (size 9 to 14) (size 15 to 20)
#    0.000    0.667    1.667    9.000    0.000    2.500 
#    0.000    2.500    0.000    0.000    0.000    0.000 
#    0.000    0.333    0.000    3.667    0.000    2.667 
#
# Total GULP energy -1189591.554208 kJ/mol
# GULP energy per Si atom -12391.578690 kJ/mol
# Density = 2.020427 g / cm^3
# Si number density = 20.250362 Si / 1000 Ang^3
#
#
#
# Elastic Constant Matrix: (Units=GPa)
#
#
# Indices 1 2 3 4 5 6 
#
# 1 93.8060 56.1432 31.8444 0.0000 0.0000 0.0000
# 2 56.1432 93.8103 31.8456 0.0000 0.0000 0.0000
# 3 31.8444 31.8456 126.7333 0.0000 0.0000 0.0000
# 4 0.0000 0.0000 0.0000 32.1793 0.0000 0.0000
# 5 0.0000 0.0000 0.0000 0.0000 32.1790 0.0000
# 6 0.0000 0.0000 0.0000 0.0000 0.0000 -2.6105
#
#
#
# Elastic Compliance Matrix: (Units=1/GPa)
#
#
# Indices 1 2 3 4 5 6 
#
# 1 0.017008 -0.009542 -0.001876 0.000000 0.000000 0.000000
# 2 -0.009542 0.017007 -0.001876 0.000000 0.000000 0.000000
# 3 -0.001876 -0.001876 0.008833 0.000000 0.000000 0.000000
# 4 0.000000 0.000000 0.000000 0.031076 0.000000 0.000000
# 5 0.000000 0.000000 0.000000 0.000000 0.031076 0.000000
# 6 0.000000 0.000000 0.000000 0.000000 0.000000 -0.383073
#
#
# Mechanical properties :
#
#
# Convention : Reuss Voigt Hill
#
# Bulk Modulus (GPa) = 61.49741 61.55733 61.52737
# Shear Modulus (GPa) = -20.31992 25.31734 2.49871
#
# Velocity S-wave (km/s) = -3.17114 3.53968 1.11202
# Velocity P-wave (km/s) = 4.12629 6.86803 5.66552
#
# Compressibility (1/GPa) = 0.01626085
#
# Stress axis : x y z
#
# Youngs Moduli (GPa) = 58.79547 58.79798 113.20755
#
# Poissons Ratio (x) = 0.56106 0.21236
# Poissons Ratio (y) = 0.56103 0.21237
# Poissons Ratio (z) = 0.11029 0.11030
#
# Static dielectric constant tensor:
#      x y z
#    x 4.056950 0.000000 0.000000 
#    y 0.000000 4.056930 0.000000 
#    z 0.000000 0.000000 3.729050 
# 
# 
# High freq. dielectric constant tensor:
#      x y z
#    x 1.782950 0.000000 0.000000 
#    y 0.000000 1.782940 0.000000 
#    z 0.000000 0.000000 1.804370 
# 
# From -- ./inp_files/1367.got.cif
#   From: 2010.03.12/outbox.cif.g09.slc.cpg/sg124_1_cif.got.tgz:1367.got - 2010.04.06 16:38:57.
