data_PCOD8313237
_publ_section_title
;
Structure prediction by ZEFSAII (Michael W. Deem and Ramdas Pophale) SiO2 
 PCOD8313237
Probable space group: P 4/M C C
;
_chemical_formula_sum "Si O2"
_cell_formula_units_Z 96
_cell_length_a 24.045901
_cell_length_b 24.045901
_cell_length_c 8.721466
_cell_angle_alpha 90.000000
_cell_angle_beta 90.000000
_cell_angle_gamma 90.000000
_cell_volume 5042.798344
_symmetry_space_group_name_H-M "P 4/M C C"
_symmetry_group_IT_number 124
_symmetry_cell_setting 'tetragonal'
loop_
_space_group_symop_operation_xyz
x,y,z
-y,x,z
-x,-y,z
y,-x,z
x,-y,1/2-z
-x,y,1/2-z
y,x,1/2-z
-y,-x,1/2-z
-x,-y,-z
y,-x,-z
x,y,-z
-y,x,-z
-x,y,1/2+z
x,-y,1/2+z
-y,-x,1/2+z
y,x,1/2+z
loop_
_atom_site_type_symbol
_atom_site_label
_atom_site_fract_x
_atom_site_fract_y
_atom_site_fract_z
Si Si1 0.638847 0.556346 0.679406
Si Si2 0.153799 0.358310 0.178956
Si Si3 0.769580 0.146612 0.817080
Si Si4 0.556575 0.233279 0.678568
Si Si5 0.940808 0.557258 0.820087
Si Si6 0.938399 0.853089 0.683773
O O1 0.613440 0.500000 0.750000
O O2 0.609302 0.609302 0.750000
O O3 0.629360 0.555050 0.500000
O O4 0.702844 0.561892 0.726500
O O5 0.147537 0.294768 0.232667
O O6 0.205059 0.387286 0.262619
O O7 0.098272 0.391391 0.223898
O O8 0.165961 0.361365 0.000000
O O9 0.797983 0.202018 0.750000
O O10 0.797410 0.092433 0.741189
O O11 0.777455 0.144171 0.000000
O O12 0.500000 0.207525 0.750000
O O13 0.551609 0.224154 0.500000
O O14 0.916771 0.500000 0.750000
O O15 0.000000 0.572074 0.750000
O O16 0.946662 0.548925 0.000000
O O17 0.906952 0.906952 0.750000
O O18 0.938998 0.855137 0.500000
O O19 0.000000 0.852782 0.750000
#
# Coordination Sequence:
#
# PCOD8313237 Si02
#       6
#    16  16  16  16  16  16
#     4  10  21  37  56  80 108 140 177 221 270 327
#     4  10  22  37  56  81 110 143 185 230 273 325
#     4  10  21  39  58  81 113 149 187 231 279 328
#     4  10  21  36  56  80 108 141 180 225 278 330
#     4  10  20  35  53  77 107 141 176 219 269 318
#     4  11  22  39  62  89 119 153 190 231 278 329
#
# _framework density 19.037049
#
# number of rings (size 3 to 8) (size 9 to 14) (size 15 to 20)
#    0.000    1.833    0.000    5.500    0.000    7.667 
#    0.000    6.667    0.000    0.000    0.000    0.000 
#    0.000    0.000    0.000    0.000    0.000    0.000 
#
# Total GULP energy -1190661.730885 kJ/mol
# GULP energy per Si atom -12402.726363 kJ/mol
# Density = 1.899372 g / cm^3
# Si number density = 19.037049 Si / 1000 Ang^3
#
#
#
# Elastic Constant Matrix: (Units=GPa)
#
#
# Indices 1 2 3 4 5 6 
#
# 1 139.7302 95.0831 65.2874 0.0000 0.0000 0.0000
# 2 95.0831 139.7280 65.2894 0.0000 0.0000 0.0000
# 3 65.2874 65.2894 101.6940 0.0000 0.0000 0.0000
# 4 0.0000 0.0000 0.0000 34.5103 0.0000 0.0000
# 5 0.0000 0.0000 0.0000 0.0000 34.5105 0.0000
# 6 0.0000 0.0000 0.0000 0.0000 0.0000 28.3223
#
#
#
# Elastic Compliance Matrix: (Units=1/GPa)
#
#
# Indices 1 2 3 4 5 6 
#
# 1 0.014511 -0.007888 -0.004252 0.000000 0.000000 0.000000
# 2 -0.007888 0.014511 -0.004253 0.000000 0.000000 0.000000
# 3 -0.004252 -0.004253 0.015293 0.000000 0.000000 0.000000
# 4 0.000000 0.000000 0.000000 0.028977 0.000000 0.000000
# 5 0.000000 0.000000 0.000000 0.000000 0.028977 0.000000
# 6 0.000000 0.000000 0.000000 0.000000 0.000000 0.035308
#
#
# Mechanical properties :
#
#
# Convention : Reuss Voigt Hill
#
# Bulk Modulus (GPa) = 86.72203 92.49688 89.60946
# Shear Modulus (GPa) = 28.70194 29.83479 29.26836
#
# Velocity S-wave (km/s) = 3.88711 3.96308 3.92528
# Velocity P-wave (km/s) = 8.11168 8.34474 8.22903
#
# Compressibility (1/GPa) = 0.01153110
#
# Stress axis : x y z
#
# Youngs Moduli (GPa) = 68.91555 68.91216 65.38773
#
# Poissons Ratio (x) = 0.54355 0.27802
# Poissons Ratio (y) = 0.54357 0.27807
# Poissons Ratio (z) = 0.29302 0.29306
#
# Static dielectric constant tensor:
#      x y z
#    x 3.609880 0.000000 0.000000 
#    y 0.000000 3.609880 0.000000 
#    z 0.000000 0.000000 3.613560 
# 
# 
# High freq. dielectric constant tensor:
#      x y z
#    x 1.743910 0.000000 0.000000 
#    y 0.000000 1.743910 0.000000 
#    z 0.000000 0.000000 1.754810 
# 
# From -- ./inp_files/1321.got.cif
#   From: 2010.03.12/outbox.cif.g09.slc.cpg/sg124_1_cif.got.tgz:1321.got - 2010.04.06 16:38:57.
