data_PCOD8313637
_publ_section_title
;
Structure prediction by ZEFSAII (Michael W. Deem and Ramdas Pophale) SiO2 
 PCOD8313637
Probable space group: P 4/N N C
;
_chemical_formula_sum "Si O2"
_cell_formula_units_Z 76
_cell_length_a 17.314833
_cell_length_b 17.314833
_cell_length_c 13.678972
_cell_angle_alpha 90.000000
_cell_angle_beta 90.000000
_cell_angle_gamma 90.000000
_cell_volume 4101.002886
_symmetry_space_group_name_H-M "P 4/N N C"
_symmetry_group_IT_number 126
_space_group.IT_coordinate_system_code '2'
_symmetry_cell_setting 'tetragonal'
loop_
_space_group_symop_operation_xyz
x,y,z
1/2-y,x,z
1/2-x,1/2-y,z
y,1/2-x,z
x,1/2-y,1/2-z
1/2-x,y,1/2-z
y,x,1/2-z
1/2-y,1/2-x,1/2-z
-x,-y,-z
1/2+y,-x,-z
1/2+x,1/2+y,-z
-y,1/2+x,-z
-x,1/2+y,1/2+z
1/2+x,-y,1/2+z
-y,-x,1/2+z
1/2+y,1/2+x,1/2+z
loop_
_atom_site_type_symbol
_atom_site_label
_atom_site_fract_x
_atom_site_fract_y
_atom_site_fract_z
Si Si1 0.656894 0.133411 0.620273
Si Si2 0.542735 0.197263 0.457876
Si Si3 0.226997 0.369010 0.037563
Si Si4 0.750000 0.592434 0.750000
Si Si5 0.750000 0.250000 0.750000
Si Si6 0.487909 0.887906 0.738961
O O1 0.599736 0.163722 0.537986
O O2 0.722080 0.077533 0.577206
O O3 0.696493 0.202517 0.677526
O O4 0.603727 0.088969 0.697634
O O5 0.456130 0.212295 0.499635
O O6 0.535086 0.134203 0.371733
O O7 0.160290 0.310752 0.999171
O O8 0.221206 0.360081 0.156247
O O9 0.679589 0.539343 0.787127
O O10 0.530840 0.969161 0.750000
#
# Coordination Sequence:
#
# PCOD8313637 Si02
#       6
#    16  16  16   8   4  16
#     4  12  23  41  60  87 121 159 211 254 308 365
#     4  11  23  38  59  91 117 165 198 254 307 370
#     4  10  19  33  54  84 120 157 197 240 296 368
#     4  10  15  29  54  82 116 154 184 232 291 365
#     4  12  22  46  64  82 118 168 212 262 298 380
#     4  11  21  38  59  89 125 154 195 251 308 366
#
# _framework density 18.532052
#
# number of rings (size 3 to 8) (size 9 to 14) (size 15 to 20)
#    0.000    1.053    6.316    4.421    0.000    1.684 
#    0.000    0.000    0.000    0.000    0.000    0.000 
#    0.000    1.684    0.000    0.000    0.000    0.211 
#
# Total GULP energy -942043.967913 kJ/mol
# GULP energy per Si atom -12395.315367 kJ/mol
# Density = 1.848987 g / cm^3
# Si number density = 18.532052 Si / 1000 Ang^3
#
#
#
# Elastic Constant Matrix: (Units=GPa)
#
#
# Indices 1 2 3 4 5 6 
#
# 1 120.4479 70.3235 59.6197 0.0000 0.0000 0.0000
# 2 70.3235 120.4472 59.6196 0.0000 0.0000 0.0000
# 3 59.6197 59.6196 80.4342 0.0000 0.0000 0.0000
# 4 0.0000 0.0000 0.0000 35.6956 0.0000 0.0000
# 5 0.0000 0.0000 0.0000 0.0000 35.6944 0.0000
# 6 0.0000 0.0000 0.0000 0.0000 0.0000 21.8184
#
#
#
# Elastic Compliance Matrix: (Units=1/GPa)
#
#
# Indices 1 2 3 4 5 6 
#
# 1 0.014859 -0.005092 -0.007239 0.000000 0.000000 0.000000
# 2 -0.005092 0.014859 -0.007239 0.000000 0.000000 0.000000
# 3 -0.007239 -0.007239 0.023164 0.000000 0.000000 0.000000
# 4 0.000000 0.000000 0.000000 0.028015 0.000000 0.000000
# 5 0.000000 0.000000 0.000000 0.000000 0.028016 0.000000
# 6 0.000000 0.000000 0.000000 0.000000 0.000000 0.045833
#
#
# Mechanical properties :
#
#
# Convention : Reuss Voigt Hill
#
# Bulk Modulus (GPa) = 72.77703 77.82831 75.30267
# Shear Modulus (GPa) = 25.19322 27.42613 26.30968
#
# Velocity S-wave (km/s) = 3.69106 3.85116 3.77196
# Velocity P-wave (km/s) = 7.58428 7.86530 7.72607
#
# Compressibility (1/GPa) = 0.01374060
#
# Stress axis : x y z
#
# Youngs Moduli (GPa) = 67.30123 67.30075 43.16958
#
# Poissons Ratio (x) = 0.34269 0.31252
# Poissons Ratio (y) = 0.34269 0.31252
# Poissons Ratio (z) = 0.48722 0.48721
#
# Static dielectric constant tensor:
#      x y z
#    x 3.543810 0.000000 0.000000 
#    y 0.000000 3.543790 0.000000 
#    z 0.000000 0.000000 3.125050 
# 
# 
# High freq. dielectric constant tensor:
#      x y z
#    x 1.725080 0.000000 0.000000 
#    y 0.000000 1.725080 0.000000 
#    z 0.000000 0.000000 1.679420 
# 
# From -- ./inp_files/3693.got.cif
#   From: 2010.03.12/outbox.cif.g09.slc.cpg/sg126_2_cif.got.tgz:3693.got - 2010.04.06 16:55:23.
