data_PCOD8313250
_publ_section_title
;
Structure prediction by ZEFSAII (Michael W. Deem and Ramdas Pophale) SiO2 
 PCOD8313250
Probable space group: P 4/M C C
;
_chemical_formula_sum "Si O2"
_cell_formula_units_Z 96
_cell_length_a 16.654083
_cell_length_b 16.654083
_cell_length_c 18.222078
_cell_angle_alpha 90.000000
_cell_angle_beta 90.000000
_cell_angle_gamma 90.000000
_cell_volume 5054.047867
_symmetry_space_group_name_H-M "P 4/M C C"
_symmetry_group_IT_number 124
_symmetry_cell_setting 'tetragonal'
loop_
_space_group_symop_operation_xyz
x,y,z
-y,x,z
-x,-y,z
y,-x,z
x,-y,1/2-z
-x,y,1/2-z
y,x,1/2-z
-y,-x,1/2-z
-x,-y,-z
y,-x,-z
x,y,-z
-y,x,-z
-x,y,1/2+z
x,-y,1/2+z
-y,-x,1/2+z
y,x,1/2+z
loop_
_atom_site_type_symbol
_atom_site_label
_atom_site_fract_x
_atom_site_fract_y
_atom_site_fract_z
Si Si1 0.302165 0.501854 0.668396
Si Si2 0.660357 0.071301 0.914943
Si Si3 0.782123 0.757698 0.918374
Si Si4 0.494226 0.121460 0.667567
Si Si5 0.357027 0.639027 0.918210
Si Si6 0.336662 0.890787 0.414535
O O1 0.339002 0.500000 0.750000
O O2 0.212721 0.537048 0.671522
O O3 0.298565 0.414398 0.631745
O O4 0.359702 0.555526 0.618033
O O5 0.726881 0.134003 0.881231
O O6 0.573926 0.071794 0.875011
O O7 0.695675 0.981701 0.906895
O O8 0.644767 0.093734 0.000000
O O9 0.727699 0.678622 0.919618
O O10 0.732860 0.831707 0.880636
O O11 0.803204 0.787671 0.000000
O O12 0.500000 0.086339 0.750000
O O13 0.579888 0.117496 0.627996
O O14 0.363384 0.603139 0.000000
O O15 0.352336 0.867360 0.500000
#
# Coordination Sequence:
#
# PCOD8313250 Si02
#       6
#    16  16  16  16  16  16
#     4  11  23  37  53  77 109 142 178 225 275 318
#     4  10  20  35  56  80 107 141 180 218 261 315
#     4   9  18  33  54  79 105 136 175 221 262 307
#     4  11  22  34  52  79 113 142 171 216 270 321
#     4  11  21  36  58  77 100 141 190 228 263 312
#     4  10  20  35  56  80 107 141 180 218 261 315
#
# _framework density 18.994675999999998
#
# number of rings (size 3 to 8) (size 9 to 14) (size 15 to 20)
#    0.000    1.667    3.333    2.000    0.000    4.333 
#    0.000    2.500    0.000    0.500    0.000    3.500 
#    0.000    0.000    0.000    3.000    0.000    3.333 
#
# Total GULP energy -1189902.430373 kJ/mol
# GULP energy per Si atom -12394.816983 kJ/mol
# Density = 1.895144 g / cm^3
# Si number density = 18.994676 Si / 1000 Ang^3
#
#
#
# Elastic Constant Matrix: (Units=GPa)
#
#
# Indices 1 2 3 4 5 6 
#
# 1 98.6984 41.7856 32.8688 0.0000 0.0000 0.0000
# 2 41.7856 98.6984 32.8688 0.0000 0.0000 0.0000
# 3 32.8688 32.8688 99.0677 0.0000 0.0000 0.0000
# 4 0.0000 0.0000 0.0000 13.6124 0.0000 0.0000
# 5 0.0000 0.0000 0.0000 0.0000 13.6124 0.0000
# 6 0.0000 0.0000 0.0000 0.0000 0.0000 23.7298
#
#
#
# Elastic Compliance Matrix: (Units=1/GPa)
#
#
# Indices 1 2 3 4 5 6 
#
# 1 0.012999 -0.004572 -0.002796 0.000000 0.000000 0.000000
# 2 -0.004572 0.012999 -0.002796 0.000000 0.000000 0.000000
# 3 -0.002796 -0.002796 0.011949 0.000000 0.000000 0.000000
# 4 0.000000 0.000000 0.000000 0.073463 0.000000 0.000000
# 5 0.000000 0.000000 0.000000 0.000000 0.073463 0.000000
# 6 0.000000 0.000000 0.000000 0.000000 0.000000 0.042141
#
#
# Mechanical properties :
#
#
# Convention : Reuss Voigt Hill
#
# Bulk Modulus (GPa) = 56.75616 56.83454 56.79535
# Shear Modulus (GPa) = 19.74621 22.78700 21.26660
#
# Velocity S-wave (km/s) = 3.22773 3.46736 3.34969
# Velocity P-wave (km/s) = 6.62087 6.78353 6.70269
#
# Compressibility (1/GPa) = 0.01761923
#
# Stress axis : x y z
#
# Youngs Moduli (GPa) = 76.93128 76.93128 83.68721
#
# Poissons Ratio (x) = 0.35174 0.23397
# Poissons Ratio (y) = 0.35174 0.23397
# Poissons Ratio (z) = 0.21508 0.21508
#
# Static dielectric constant tensor:
#      x y z
#    x 3.439890 0.000000 0.000000 
#    y 0.000000 3.439890 0.000000 
#    z 0.000000 0.000000 3.429020 
# 
# 
# High freq. dielectric constant tensor:
#      x y z
#    x 1.728020 0.000000 0.000000 
#    y 0.000000 1.728020 0.000000 
#    z 0.000000 0.000000 1.722370 
# 
# From -- ./inp_files/4281.got.cif
#   From: 2010.03.12/outbox.cif.g09.slc.cpg/sg124_3_cif.got.tgz:4281.got - 2010.04.06 16:38:57.
