data_PCOD8313428
_publ_section_title
;
Structure prediction by ZEFSAII (Michael W. Deem and Ramdas Pophale) SiO2 
 PCOD8313428
Probable space group: P 4/N B M
;
_chemical_formula_sum "Si O2"
_cell_formula_units_Z 112
_cell_length_a 24.654010
_cell_length_b 24.654010
_cell_length_c 12.729604
_cell_angle_alpha 90.000000
_cell_angle_beta 90.000000
_cell_angle_gamma 90.000000
_cell_volume 7737.310565
_symmetry_space_group_name_H-M "P 4/N B M"
_symmetry_group_IT_number 125
_space_group.IT_coordinate_system_code '2'
_symmetry_cell_setting 'tetragonal'
loop_
_space_group_symop_operation_xyz
x,y,z
1/2-y,x,z
1/2-x,1/2-y,z
y,1/2-x,z
x,1/2-y,-z
1/2-x,y,-z
y,x,-z
1/2-y,1/2-x,-z
-x,-y,-z
1/2+y,-x,-z
1/2+x,1/2+y,-z
-y,1/2+x,-z
-x,1/2+y,z
1/2+x,-y,z
-y,-x,z
1/2+y,1/2+x,z
loop_
_atom_site_type_symbol
_atom_site_label
_atom_site_fract_x
_atom_site_fract_y
_atom_site_fract_z
Si Si1 0.605520 0.193683 0.744608
Si Si2 0.621558 0.030654 0.137389
Si Si3 0.813678 0.404334 0.297713
Si Si4 0.960446 0.369705 0.906317
Si Si5 0.922801 0.514205 0.580720
Si Si6 0.069148 0.656897 0.480311
Si Si7 0.946775 0.538163 0.806515
O O1 0.660300 0.160300 0.772491
O O2 0.615499 0.257698 0.755233
O O3 0.556167 0.176869 0.822699
O O4 0.590705 0.185473 0.623407
O O5 0.572710 0.072710 0.135337
O O6 0.662916 0.045681 0.229888
O O7 0.596300 0.970705 0.156906
O O8 0.652795 0.034087 0.025149
O O9 0.852492 0.352492 0.294025
O O10 0.804580 0.427276 0.416628
O O11 0.914495 0.414495 0.895334
O O12 0.018109 0.398236 0.881788
O O13 0.940161 0.559840 0.500000
O O14 0.864374 0.491622 0.543342
O O15 0.919403 0.543516 0.692535
O O16 0.964885 0.464885 0.587465
O O17 0.105117 0.605117 0.510672
O O18 0.995230 0.495230 0.804751
#
# Coordination Sequence:
#
# PCOD8313428 Si02
#       7
#    16  16  16  16  16  16  16
#     4  10  19  31  45  57  73 103 142 181 217 250
#     4   9  17  27  40  59  81 100 123 159 203 248
#     4  10  20  31  42  57  77 103 138 182 223 247
#     4   9  16  27  42  59  77  99 127 161 201 248
#     4   9  14  20  35  58  82 102 119 146 191 245
#     4   9  16  28  41  56  77  99 128 167 210 251
#     4   9  14  23  39  60  81 100 121 148 191 247
#
# _framework density 14.475313999999999
#
# number of rings (size 3 to 8) (size 9 to 14) (size 15 to 20)
#    0.000    2.714    1.429    1.714    0.000    6.000 
#    0.000    0.000    0.000    2.571    0.000    4.000 
#    0.000    0.000    0.000    0.000    0.000    0.714 
#
# Total GULP energy -1387828.195351 kJ/mol
# GULP energy per Si atom -12391.323173 kJ/mol
# Density = 1.444237 g / cm^3
# Si number density = 14.475314 Si / 1000 Ang^3
#
#
#
# Elastic Constant Matrix: (Units=GPa)
#
#
# Indices 1 2 3 4 5 6 
#
# 1 40.3931 38.3230 25.3264 0.0000 0.0000 0.0000
# 2 38.3230 40.3929 25.3259 0.0000 0.0000 0.0000
# 3 25.3264 25.3259 96.1059 0.0000 0.0000 0.0000
# 4 0.0000 0.0000 0.0000 12.8639 0.0000 0.0000
# 5 0.0000 0.0000 0.0000 0.0000 12.8639 0.0000
# 6 0.0000 0.0000 0.0000 0.0000 0.0000 10.8167
#
#
#
# Elastic Compliance Matrix: (Units=1/GPa)
#
#
# Indices 1 2 3 4 5 6 
#
# 1 0.249191 -0.233893 -0.004033 0.000000 0.000000 0.000000
# 2 -0.233893 0.249191 -0.004030 0.000000 0.000000 0.000000
# 3 -0.004033 -0.004030 0.012530 0.000000 0.000000 0.000000
# 4 0.000000 0.000000 0.000000 0.077737 0.000000 0.000000
# 5 0.000000 0.000000 0.000000 0.000000 0.077737 0.000000
# 6 0.000000 0.000000 0.000000 0.000000 0.000000 0.092450
#
#
# Mechanical properties :
#
#
# Convention : Reuss Voigt Hill
#
# Bulk Modulus (GPa) = 37.03647 39.42694 38.23170
# Shear Modulus (GPa) = 3.99442 13.17001 8.58221
#
# Velocity S-wave (km/s) = 1.66297 3.01960 2.43757
# Velocity P-wave (km/s) = 5.41560 6.28123 5.86441
#
# Compressibility (1/GPa) = 0.02700042
#
# Stress axis : x y z
#
# Youngs Moduli (GPa) = 4.01298 4.01299 79.80903
#
# Poissons Ratio (x) = 0.93861 0.32184
# Poissons Ratio (y) = 0.93861 0.32164
# Poissons Ratio (z) = 0.01618 0.01617
#
# Static dielectric constant tensor:
#      x y z
#    x 2.553910 0.000000 0.000000 
#    y 0.000000 2.553910 0.000000 
#    z 0.000000 0.000000 3.087730 
# 
# 
# High freq. dielectric constant tensor:
#      x y z
#    x 1.508750 0.000000 0.000000 
#    y 0.000000 1.508750 0.000000 
#    z 0.000000 0.000000 1.575840 
# 
# From -- ./inp_files/4316.got.cif
#   From: 2010.03.12/outbox.cif.g09.slc.cpg/sg125_3_cif.got.tgz:4316.got - 2010.04.06 16:47:52.
