data_PCOD8313748
_publ_section_title
;
Structure prediction by ZEFSAII (Michael W. Deem and Ramdas Pophale) SiO2 
 PCOD8313748
Probable space group: P 4/N N C
;
_chemical_formula_sum "Si O2"
_cell_formula_units_Z 112
_cell_length_a 14.924922
_cell_length_b 14.924922
_cell_length_c 24.892827
_cell_angle_alpha 90.000000
_cell_angle_beta 90.000000
_cell_angle_gamma 90.000000
_cell_volume 5544.959279
_symmetry_space_group_name_H-M "P 4/N N C"
_symmetry_group_IT_number 126
_space_group.IT_coordinate_system_code '2'
_symmetry_cell_setting 'tetragonal'
loop_
_space_group_symop_operation_xyz
x,y,z
1/2-y,x,z
1/2-x,1/2-y,z
y,1/2-x,z
x,1/2-y,1/2-z
1/2-x,y,1/2-z
y,x,1/2-z
1/2-y,1/2-x,1/2-z
-x,-y,-z
1/2+y,-x,-z
1/2+x,1/2+y,-z
-y,1/2+x,-z
-x,1/2+y,1/2+z
1/2+x,-y,1/2+z
-y,-x,1/2+z
1/2+y,1/2+x,1/2+z
loop_
_atom_site_type_symbol
_atom_site_label
_atom_site_fract_x
_atom_site_fract_y
_atom_site_fract_z
Si Si1 0.701839 0.884236 0.502751
Si Si2 0.154013 0.611906 0.573380
Si Si3 0.795239 0.425964 0.543138
Si Si4 0.146894 0.846240 0.737861
Si Si5 0.474438 0.155515 0.780103
Si Si6 0.112429 0.070098 0.895408
Si Si7 0.662456 0.423920 0.377946
O O1 0.636677 0.803912 0.517813
O O2 0.685476 0.896706 0.438812
O O3 0.683362 0.968763 0.540275
O O4 0.100312 0.705337 0.576268
O O5 0.208579 0.610257 0.517469
O O6 0.083711 0.529591 0.582330
O O7 0.231180 0.598068 0.618785
O O8 0.879972 0.385941 0.572135
O O9 0.098175 0.750000 0.750000
O O10 0.250000 0.830662 0.750000
O O11 0.127790 0.881380 0.677493
O O12 0.111274 0.925588 0.777313
O O13 0.479710 0.250000 0.750000
O O14 0.405679 0.094322 0.750000
O O15 0.441087 0.168509 0.840562
O O16 0.028736 0.135826 0.884545
#
# Coordination Sequence:
#
# PCOD8313748 Si02
#       7
#    16  16  16  16  16  16  16
#     4  10  24  43  62  87 127 170 211 260 318 385
#     4  11  23  40  62  90 125 163 209 262 322 378
#     4  11  24  37  64  90 126 159 213 261 316 377
#     4  10  23  40  61  88 125 166 206 264 325 377
#     4  11  23  41  62  88 125 166 215 268 315 384
#     4  11  24  39  65  89 123 167 215 263 317 386
#     4  12  24  40  62  97 125 167 216 265 320 391
#
# _framework density 20.198525
#
# number of rings (size 3 to 8) (size 9 to 14) (size 15 to 20)
#    0.000    1.143    2.857    3.857   10.000    1.286 
#    0.000    0.000    0.000    0.000    0.000    0.000 
#    0.000    0.286    0.000    0.000    0.000    0.000 
#
# Total GULP energy -1387546.632671 kJ/mol
# GULP energy per Si atom -12388.809220 kJ/mol
# Density = 2.015255 g / cm^3
# Si number density = 20.198525 Si / 1000 Ang^3
#
#
#
# Elastic Constant Matrix: (Units=GPa)
#
#
# Indices 1 2 3 4 5 6 
#
# 1 129.5228 -6.2836 24.5602 0.0000 0.0000 0.0000
# 2 -6.2836 129.5192 24.5613 0.0000 0.0000 0.0000
# 3 24.5602 24.5613 45.8840 0.0000 0.0000 0.0000
# 4 0.0000 0.0000 0.0000 29.3822 0.0000 0.0000
# 5 0.0000 0.0000 0.0000 0.0000 29.3797 0.0000
# 6 0.0000 0.0000 0.0000 0.0000 0.0000 36.3041
#
#
#
# Elastic Compliance Matrix: (Units=1/GPa)
#
#
# Indices 1 2 3 4 5 6 
#
# 1 0.008839 0.001476 -0.005521 0.000000 0.000000 0.000000
# 2 0.001476 0.008840 -0.005522 0.000000 0.000000 0.000000
# 3 -0.005521 -0.005522 0.027705 0.000000 0.000000 0.000000
# 4 0.000000 0.000000 0.000000 0.034034 0.000000 0.000000
# 5 0.000000 0.000000 0.000000 0.000000 0.034037 0.000000
# 6 0.000000 0.000000 0.000000 0.000000 0.000000 0.027545
#
#
# Mechanical properties :
#
#
# Convention : Reuss Voigt Hill
#
# Bulk Modulus (GPa) = 38.09588 43.40020 40.74804
# Shear Modulus (GPa) = 29.60600 36.48575 33.04588
#
# Velocity S-wave (km/s) = 3.83267 4.25474 4.04920
# Velocity P-wave (km/s) = 6.20382 6.75800 6.48683
#
# Compressibility (1/GPa) = 0.02624956
#
# Stress axis : x y z
#
# Youngs Moduli (GPa) = 113.13227 113.12753 36.09430
#
# Poissons Ratio (x) = -0.16696 0.19929
# Poissons Ratio (y) = -0.16697 0.19930
# Poissons Ratio (z) = 0.62464 0.62466
#
# Static dielectric constant tensor:
#      x y z
#    x 3.241020 0.000000 0.000000 
#    y 0.000000 3.241630 0.000000 
#    z 0.000000 0.000000 4.531530 
# 
# 
# High freq. dielectric constant tensor:
#      x y z
#    x 1.780960 0.000000 0.000000 
#    y 0.000000 1.780960 0.000000 
#    z 0.000000 0.000000 1.786320 
# 
# From -- ./inp_files/6249.got.cif
#   From: 2010.03.12/outbox.cif.g09.slc.cpg/sg126_4_cif.got.tgz:6249.got - 2010.04.06 16:55:23.
