data_PCOD8313571
_publ_section_title
;
Structure prediction by ZEFSAII (Michael W. Deem and Ramdas Pophale) SiO2 
 PCOD8313571
Probable space group: P 4/N B M
;
_chemical_formula_sum "Si O2"
_cell_formula_units_Z 80
_cell_length_a 19.551420
_cell_length_b 19.551420
_cell_length_c 15.804769
_cell_angle_alpha 90.000000
_cell_angle_beta 90.000000
_cell_angle_gamma 90.000000
_cell_volume 6041.499768
_symmetry_space_group_name_H-M "P 4/N B M"
_symmetry_group_IT_number 125
_space_group.IT_coordinate_system_code '2'
_symmetry_cell_setting 'tetragonal'
loop_
_space_group_symop_operation_xyz
x,y,z
1/2-y,x,z
1/2-x,1/2-y,z
y,1/2-x,z
x,1/2-y,-z
1/2-x,y,-z
y,x,-z
1/2-y,1/2-x,-z
-x,-y,-z
1/2+y,-x,-z
1/2+x,1/2+y,-z
-y,1/2+x,-z
-x,1/2+y,z
1/2+x,-y,z
-y,-x,z
1/2+y,1/2+x,z
loop_
_atom_site_type_symbol
_atom_site_label
_atom_site_fract_x
_atom_site_fract_y
_atom_site_fract_z
Si Si1 0.750000 0.362343 0.500000
Si Si2 0.863691 0.249827 0.317059
Si Si3 0.890749 0.998420 0.101485
Si Si4 0.499137 0.888334 0.903206
Si Si5 0.750000 0.138992 0.000000
Si Si6 0.957918 0.252816 0.841713
O O1 0.816697 0.316697 0.500716
O O2 0.749762 0.402067 0.590233
O O3 0.817715 0.182286 0.305911
O O4 0.816460 0.316460 0.306139
O O5 0.922933 0.250720 0.248831
O O6 0.935687 0.064314 0.128182
O O7 0.820411 0.994478 0.154752
O O8 0.873182 0.002794 0.002607
O O9 0.932851 0.929692 0.121714
O O10 0.432031 0.932031 0.877617
O O11 0.501154 0.816468 0.854032
O O12 0.762575 0.096364 0.083893
O O13 0.683515 0.183515 0.018242
#
# Coordination Sequence:
#
# PCOD8313571 Si02
#       6
#     8  16  16  16   8  16
#     4   7  12  24  36  48  74 108 132 151 176 220
#     4   9  16  24  36  56  81 105 128 153 187 235
#     4   9  17  28  39  52  75 107 137 160 187 232
#     4   9  17  28  39  52  75 107 137 160 187 232
#     4  11  20  24  30  54  88 105 112 140 190 235
#     4  12  18  25  40  57  75 102 132 164 196 224
#
# _framework density 13.241745
#
# number of rings (size 3 to 8) (size 9 to 14) (size 15 to 20)
#    0.000    2.400    2.000    6.000    0.000    1.600 
#    0.000    0.000    0.000    0.600    0.000    4.200 
#    0.000    8.000    0.000    0.000    0.000    2.000 
#
# Total GULP energy -991382.628665 kJ/mol
# GULP energy per Si atom -12392.282858 kJ/mol
# Density = 1.321161 g / cm^3
# Si number density = 13.241745 Si / 1000 Ang^3
#
#
#
# Elastic Constant Matrix: (Units=GPa)
#
#
# Indices 1 2 3 4 5 6 
#
# 1 76.2446 39.9383 35.4882 0.0000 0.0000 0.0000
# 2 39.9383 76.2446 35.4882 0.0000 0.0000 0.0000
# 3 35.4882 35.4882 87.2739 0.0000 0.0000 0.0000
# 4 0.0000 0.0000 0.0000 9.4261 0.0000 0.0000
# 5 0.0000 0.0000 0.0000 0.0000 9.4261 0.0000
# 6 0.0000 0.0000 0.0000 0.0000 0.0000 -196.6612
#
#
#
# Elastic Compliance Matrix: (Units=1/GPa)
#
#
# Indices 1 2 3 4 5 6 
#
# 1 0.019498 -0.008046 -0.004657 0.000000 0.000000 0.000000
# 2 -0.008046 0.019498 -0.004657 0.000000 0.000000 0.000000
# 3 -0.004657 -0.004657 0.015245 0.000000 0.000000 0.000000
# 4 0.000000 0.000000 0.000000 0.106088 0.000000 0.000000
# 5 0.000000 0.000000 0.000000 0.000000 0.106088 0.000000
# 6 0.000000 0.000000 0.000000 0.000000 0.000000 -0.005085
#
#
# Mechanical properties :
#
#
# Convention : Reuss Voigt Hill
#
# Bulk Modulus (GPa) = 51.22338 51.28804 51.25571
# Shear Modulus (GPa) = 16.52574 -26.97191 -5.22309
#
# Velocity S-wave (km/s) = 3.53654 -4.51808 -1.98821
# Velocity P-wave (km/s) = 7.44603 3.40569 5.78974
#
# Compressibility (1/GPa) = 0.01952233
#
# Stress axis : x y z
#
# Youngs Moduli (GPa) = 51.28817 51.28817 65.59412
#
# Poissons Ratio (x) = 0.41265 0.30545
# Poissons Ratio (y) = 0.41265 0.30545
# Poissons Ratio (z) = 0.23883 0.23883
#
# Static dielectric constant tensor:
#      x y z
#    x 2.567460 0.000000 0.000000 
#    y 0.000000 2.567460 0.000000 
#    z 0.000000 0.000000 2.631390 
# 
# 
# High freq. dielectric constant tensor:
#      x y z
#    x 1.481580 0.000000 0.000000 
#    y 0.000000 1.481580 0.000000 
#    z 0.000000 0.000000 1.487530 
# 
# From -- ./inp_files/4978.got.cif
#   From: 2010.03.12/outbox.cif.g09.slc.cpg/sg125_3_cif.got.tgz:4978.got - 2010.04.06 16:47:52.
