data_PCOD8313631
_publ_section_title
;
Structure prediction by ZEFSAII (Michael W. Deem and Ramdas Pophale) SiO2 
 PCOD8313631
Probable space group: P 4/N B M
;
_chemical_formula_sum "Si O2"
_cell_formula_units_Z 72
_cell_length_a 15.777051
_cell_length_b 15.777051
_cell_length_c 12.726759
_cell_angle_alpha 90.000000
_cell_angle_beta 90.000000
_cell_angle_gamma 90.000000
_cell_volume 3167.885521
_symmetry_space_group_name_H-M "P 4/N B M"
_symmetry_group_IT_number 125
_space_group.IT_coordinate_system_code '2'
_symmetry_cell_setting 'tetragonal'
loop_
_space_group_symop_operation_xyz
x,y,z
1/2-y,x,z
1/2-x,1/2-y,z
y,1/2-x,z
x,1/2-y,-z
1/2-x,y,-z
y,x,-z
1/2-y,1/2-x,-z
-x,-y,-z
1/2+y,-x,-z
1/2+x,1/2+y,-z
-y,1/2+x,-z
-x,1/2+y,z
1/2+x,-y,z
-y,-x,z
1/2+y,1/2+x,z
loop_
_atom_site_type_symbol
_atom_site_label
_atom_site_fract_x
_atom_site_fract_y
_atom_site_fract_z
Si Si1 0.771745 0.617798 0.295695
Si Si2 0.813211 0.186790 0.751323
Si Si3 0.950826 0.226909 0.384263
Si Si4 0.030202 0.969799 0.615986
Si Si5 0.945302 0.445302 0.177245
Si Si6 0.570844 0.820449 0.928505
O O1 0.845705 0.680914 0.331346
O O2 0.788572 0.528597 0.352457
O O3 0.769650 0.605842 0.171135
O O4 0.750000 0.250000 0.817019
O O5 0.870196 0.251322 0.684697
O O6 0.873339 0.126662 0.817337
O O7 0.922186 0.250000 0.500000
O O8 0.983263 0.130811 0.370830
O O9 0.000000 0.000000 0.500000
O O10 0.980065 0.019936 0.709828
O O11 0.902939 0.518893 0.108666
O O12 0.520259 0.750000 0.000000
O O13 0.648288 0.851713 0.000000
#
# Coordination Sequence:
#
# PCOD8313631 Si02
#       6
#    16   8  16   8   8  16
#     4  11  24  43  70 106 146 188 238 305 372 442
#     4  12  26  49  71 104 143 195 250 307 357 443
#     4  12  26  45  73 106 145 193 246 302 374 439
#     4  12  28  48  76 109 146 195 245 307 375 453
#     4  12  27  50  73 106 148 193 248 311 377 441
#     4  12  25  45  73 105 142 188 245 301 368 442
#
# _framework density 22.728093000000001
#
# number of rings (size 3 to 8) (size 9 to 14) (size 15 to 20)
#    0.000    0.222    5.556    3.667    3.111    0.222 
#    2.000    1.111    0.000    0.000    0.000    0.000 
#    0.000    0.000    0.000    0.000    0.000    0.000 
#
# Total GULP energy -892342.412524 kJ/mol
# GULP energy per Si atom -12393.644618 kJ/mol
# Density = 2.267636 g / cm^3
# Si number density = 22.728093 Si / 1000 Ang^3
#
#
#
# Elastic Constant Matrix: (Units=GPa)
#
#
# Indices 1 2 3 4 5 6 
#
# 1 110.6877 15.4993 7.5234 0.0000 0.0000 0.0000
# 2 15.4993 110.6871 7.5223 0.0000 0.0000 0.0000
# 3 7.5234 7.5223 51.5409 0.0000 0.0000 0.0000
# 4 0.0000 0.0000 0.0000 24.8932 0.0000 0.0000
# 5 0.0000 0.0000 0.0000 0.0000 24.8932 0.0000
# 6 0.0000 0.0000 0.0000 0.0000 0.0000 39.9116
#
#
#
# Elastic Compliance Matrix: (Units=1/GPa)
#
#
# Indices 1 2 3 4 5 6 
#
# 1 0.009285 -0.001220 -0.001177 0.000000 0.000000 0.000000
# 2 -0.001220 0.009285 -0.001177 0.000000 0.000000 0.000000
# 3 -0.001177 -0.001177 0.019746 0.000000 0.000000 0.000000
# 4 0.000000 0.000000 0.000000 0.040172 0.000000 0.000000
# 5 0.000000 0.000000 0.000000 0.000000 0.040172 0.000000
# 6 0.000000 0.000000 0.000000 0.000000 0.000000 0.025055
#
#
# Mechanical properties :
#
#
# Convention : Reuss Voigt Hill
#
# Bulk Modulus (GPa) = 32.08498 37.11176 34.59837
# Shear Modulus (GPa) = 31.00715 34.09765 32.55240
#
# Velocity S-wave (km/s) = 3.69760 3.87750 3.78862
# Velocity P-wave (km/s) = 5.69010 6.03413 5.86464
#
# Compressibility (1/GPa) = 0.03116723
#
# Stress axis : x y z
#
# Youngs Moduli (GPa) = 107.69701 107.69677 50.64397
#
# Poissons Ratio (x) = 0.13141 0.05962
# Poissons Ratio (y) = 0.13141 0.05961
# Poissons Ratio (z) = 0.12679 0.12677
#
# Static dielectric constant tensor:
#      x y z
#    x 4.221880 0.000000 0.000000 
#    y 0.000000 4.221880 0.000000 
#    z 0.000000 0.000000 3.947280 
# 
# 
# High freq. dielectric constant tensor:
#      x y z
#    x 1.911390 0.000000 0.000000 
#    y 0.000000 1.911380 0.000000 
#    z 0.000000 0.000000 1.879840 
# 
# From -- ./inp_files/3891.got.cif
#   From: 2010.03.12/outbox.cif.g09.slc.cpg/sg125_2_cif.got.tgz:3891.got - 2010.04.06 16:47:52.
