data_PCOD8313179
_publ_section_title
;
Structure prediction by ZEFSAII (Michael W. Deem and Ramdas Pophale) SiO2 
 PCOD8313179
Probable space group: P 4/M C C
;
_chemical_formula_sum "Si O2"
_cell_formula_units_Z 96
_cell_length_a 23.728215
_cell_length_b 23.728215
_cell_length_c 8.557440
_cell_angle_alpha 90.000000
_cell_angle_beta 90.000000
_cell_angle_gamma 90.000000
_cell_volume 4818.079929
_symmetry_space_group_name_H-M "P 4/M C C"
_symmetry_group_IT_number 124
_symmetry_cell_setting 'tetragonal'
loop_
_space_group_symop_operation_xyz
x,y,z
-y,x,z
-x,-y,z
y,-x,z
x,-y,1/2-z
-x,y,1/2-z
y,x,1/2-z
-y,-x,1/2-z
-x,-y,-z
y,-x,-z
x,y,-z
-y,x,-z
-x,y,1/2+z
x,-y,1/2+z
-y,-x,1/2+z
y,x,1/2+z
loop_
_atom_site_type_symbol
_atom_site_label
_atom_site_fract_x
_atom_site_fract_y
_atom_site_fract_z
Si Si1 0.443288 0.923779 0.676793
Si Si2 0.790247 0.557478 0.674619
Si Si3 0.851744 0.063333 0.815630
Si Si4 0.249376 0.136239 0.179683
Si Si5 0.944313 0.670021 0.180598
Si Si6 0.679645 0.240137 0.685805
O O1 0.500000 0.948702 0.750000
O O2 0.433276 0.945675 0.500000
O O3 0.444607 0.856947 0.679840
O O4 0.396688 0.947040 0.795731
O O5 0.765280 0.500000 0.750000
O O6 0.766652 0.557416 0.500000
O O7 0.771630 0.616844 0.756261
O O8 0.909894 0.090107 0.750000
O O9 0.800842 0.107026 0.777250
O O10 0.841931 0.000000 0.750000
O O11 0.856435 0.058047 0.000000
O O12 0.307246 0.103240 0.204971
O O13 0.270226 0.197217 0.240828
O O14 0.230264 0.136613 0.000000
O O15 0.000000 0.699218 0.250000
O O16 0.935248 0.686521 0.000000
O O17 0.698833 0.301168 0.750000
O O18 0.675968 0.237411 0.500000
#
# Coordination Sequence:
#
# PCOD8313179 Si02
#       6
#    16  16  16  16  16  16
#     4  10  19  35  54  75 104 139 184 236 288 339
#     4   9  18  34  54  79 111 150 190 236 283 335
#     4  12  26  46  69  96 122 152 189 233 287 353
#     4  11  22  41  62  85 119 155 189 236 288 343
#     4  12  24  37  54  77 105 144 191 239 290 344
#     4  10  21  36  56  85 120 154 192 237 283 333
#
# _framework density 19.924948000000001
#
# number of rings (size 3 to 8) (size 9 to 14) (size 15 to 20)
#    0.000    1.333    1.667    5.000    0.000    4.500 
#    0.000    2.500    0.000    0.000    0.000    0.000 
#    0.000    0.333    0.000    3.667    0.000    2.667 
#
# Total GULP energy -1189521.893014 kJ/mol
# GULP energy per Si atom -12390.853052 kJ/mol
# Density = 1.987960 g / cm^3
# Si number density = 19.924948 Si / 1000 Ang^3
#
#
#
# Elastic Constant Matrix: (Units=GPa)
#
#
# Indices 1 2 3 4 5 6 
#
# 1 86.9778 54.9595 31.6077 0.0000 0.0000 0.0000
# 2 54.9595 86.9776 31.6078 0.0000 0.0000 0.0000
# 3 31.6077 31.6078 83.5337 0.0000 0.0000 0.0000
# 4 0.0000 0.0000 0.0000 29.3396 0.0000 0.0000
# 5 0.0000 0.0000 0.0000 0.0000 29.3396 0.0000
# 6 0.0000 0.0000 0.0000 0.0000 0.0000 -61.4490
#
#
#
# Elastic Compliance Matrix: (Units=1/GPa)
#
#
# Indices 1 2 3 4 5 6 
#
# 1 0.019853 -0.011379 -0.003206 0.000000 0.000000 0.000000
# 2 -0.011379 0.019853 -0.003206 0.000000 0.000000 0.000000
# 3 -0.003206 -0.003206 0.014398 0.000000 0.000000 0.000000
# 4 0.000000 0.000000 0.000000 0.034084 0.000000 0.000000
# 5 0.000000 0.000000 0.000000 0.000000 0.034084 0.000000
# 6 0.000000 0.000000 0.000000 0.000000 0.000000 -0.016274
#
#
# Mechanical properties :
#
#
# Convention : Reuss Voigt Hill
#
# Bulk Modulus (GPa) = 53.99706 54.87100 54.43403
# Shear Modulus (GPa) = 33.84016 8.73363 21.28690
#
# Velocity S-wave (km/s) = 4.12561 2.09590 3.27211
# Velocity P-wave (km/s) = 7.06069 5.78409 6.45403
#
# Compressibility (1/GPa) = 0.01851953
#
# Stress axis : x y z
#
# Youngs Moduli (GPa) = 50.37093 50.37075 69.45636
#
# Poissons Ratio (x) = 0.57319 0.22269
# Poissons Ratio (y) = 0.57319 0.22269
# Poissons Ratio (z) = 0.16150 0.16150
#
# Static dielectric constant tensor:
#      x y z
#    x 3.753090 0.000000 0.000000 
#    y 0.000000 3.753090 0.000000 
#    z 0.000000 0.000000 3.586340 
# 
# 
# High freq. dielectric constant tensor:
#      x y z
#    x 1.767920 0.000000 0.000000 
#    y 0.000000 1.767920 0.000000 
#    z 0.000000 0.000000 1.775330 
# 
# From -- ./inp_files/1316.got.cif
#   From: 2010.03.12/outbox.cif.g09.slc.cpg/sg124_1_cif.got.tgz:1316.got - 2010.04.06 16:38:57.
