data_PCOD8313269
_publ_section_title
;
Structure prediction by ZEFSAII (Michael W. Deem and Ramdas Pophale) SiO2 
 PCOD8313269
Probable space group: P 4/M C C
;
_chemical_formula_sum "Si O2"
_cell_formula_units_Z 64
_cell_length_a 13.866380
_cell_length_b 13.866380
_cell_length_c 15.637365
_cell_angle_alpha 90.000000
_cell_angle_beta 90.000000
_cell_angle_gamma 90.000000
_cell_volume 3006.697722
_symmetry_space_group_name_H-M "P 4/M C C"
_symmetry_group_IT_number 124
_symmetry_cell_setting 'tetragonal'
loop_
_space_group_symop_operation_xyz
x,y,z
-y,x,z
-x,-y,z
y,-x,z
x,-y,1/2-z
-x,y,1/2-z
y,x,1/2-z
-y,-x,1/2-z
-x,-y,-z
y,-x,-z
x,y,-z
-y,x,-z
-x,y,1/2+z
x,-y,1/2+z
-y,-x,1/2+z
y,x,1/2+z
loop_
_atom_site_type_symbol
_atom_site_label
_atom_site_fract_x
_atom_site_fract_y
_atom_site_fract_z
Si Si1 0.782185 0.876607 0.666140
Si Si2 0.243582 0.381544 0.898661
Si Si3 0.923219 0.254273 0.095472
Si Si4 0.597849 0.766903 0.899308
O O1 0.835604 0.835604 0.750000
O O2 0.673387 0.838992 0.654174
O O3 0.848369 0.835319 0.589013
O O4 0.774183 0.992180 0.661381
O O5 0.242261 0.490287 0.862060
O O6 0.345418 0.331169 0.875766
O O7 0.222901 0.378026 0.000000
O O8 0.862834 0.345724 0.134059
O O9 0.963484 0.275138 0.000000
O O10 0.592795 0.778102 0.000000
#
# Coordination Sequence:
#
# PCOD8313269 Si02
#       4
#    16  16  16  16
#     4  11  22  36  54  79 112 146 186 237 287 339
#     4   9  17  33  54  81 114 152 191 235 281 330
#     4  10  20  37  57  80 108 146 190 236 283 335
#     4   8  16  30  54  84 114 146 190 236 280 330
#
# _framework density 21.285810999999999
#
# number of rings (size 3 to 8) (size 9 to 14) (size 15 to 20)
#    0.000    2.500    0.000    4.500    0.000    2.000 
#    0.000   13.750    0.000    6.000    0.000    7.000 
#    0.000    0.000    0.000    0.000    0.000    0.000 
#
# Total GULP energy -793014.186203 kJ/mol
# GULP energy per Si atom -12390.846659 kJ/mol
# Density = 2.123736 g / cm^3
# Si number density = 21.285811 Si / 1000 Ang^3
#
#
#
# Elastic Constant Matrix: (Units=GPa)
#
#
# Indices 1 2 3 4 5 6 
#
# 1 176.3301 85.6441 23.9853 0.0000 0.0000 0.0000
# 2 85.6441 176.3301 23.9853 0.0000 0.0000 0.0000
# 3 23.9853 23.9853 60.6644 0.0000 0.0000 0.0000
# 4 0.0000 0.0000 0.0000 18.8221 0.0000 0.0000
# 5 0.0000 0.0000 0.0000 0.0000 18.8221 0.0000
# 6 0.0000 0.0000 0.0000 0.0000 0.0000 16.4027
#
#
#
# Elastic Compliance Matrix: (Units=1/GPa)
#
#
# Indices 1 2 3 4 5 6 
#
# 1 0.007571 -0.003456 -0.001627 0.000000 0.000000 0.000000
# 2 -0.003456 0.007571 -0.001627 0.000000 0.000000 0.000000
# 3 -0.001627 -0.001627 0.017771 0.000000 0.000000 0.000000
# 4 0.000000 0.000000 0.000000 0.053129 0.000000 0.000000
# 5 0.000000 0.000000 0.000000 0.000000 0.053129 0.000000
# 6 0.000000 0.000000 0.000000 0.000000 0.000000 0.060965
#
#
# Mechanical properties :
#
#
# Convention : Reuss Voigt Hill
#
# Bulk Modulus (GPa) = 51.30092 75.61713 63.45902
# Shear Modulus (GPa) = 22.72167 29.45669 26.08918
#
# Velocity S-wave (km/s) = 3.27074 3.72407 3.50474
# Velocity P-wave (km/s) = 6.19814 7.35482 6.80112
#
# Compressibility (1/GPa) = 0.01949283
#
# Stress axis : x y z
#
# Youngs Moduli (GPa) = 132.08154 132.08154 56.27243
#
# Poissons Ratio (x) = 0.45647 0.09156
# Poissons Ratio (y) = 0.45647 0.09156
# Poissons Ratio (z) = 0.21490 0.21490
#
# Static dielectric constant tensor:
#      x y z
#    x 4.042960 0.000000 0.000000 
#    y 0.000000 4.042960 0.000000 
#    z 0.000000 0.000000 3.654360 
# 
# 
# High freq. dielectric constant tensor:
#      x y z
#    x 1.829530 0.000000 0.000000 
#    y 0.000000 1.829530 0.000000 
#    z 0.000000 0.000000 1.819910 
# 
# From -- ./inp_files/3949.got.cif
#   From: 2010.03.12/outbox.cif.g09.slc.cpg/sg124_2_cif.got.tgz:3949.got - 2010.04.06 16:38:57.
