data_PCOD8313305
_publ_section_title
;
Structure prediction by ZEFSAII (Michael W. Deem and Ramdas Pophale) SiO2 
 PCOD8313305
Probable space group: P 4/M C C
;
_chemical_formula_sum "Si O2"
_cell_formula_units_Z 96
_cell_length_a 16.019327
_cell_length_b 16.019327
_cell_length_c 18.762896
_cell_angle_alpha 90.000000
_cell_angle_beta 90.000000
_cell_angle_gamma 90.000000
_cell_volume 4814.912560
_symmetry_space_group_name_H-M "P 4/M C C"
_symmetry_group_IT_number 124
_symmetry_cell_setting 'tetragonal'
loop_
_space_group_symop_operation_xyz
x,y,z
-y,x,z
-x,-y,z
y,-x,z
x,-y,1/2-z
-x,y,1/2-z
y,x,1/2-z
-y,-x,1/2-z
-x,-y,-z
y,-x,-z
x,y,-z
-y,x,-z
-x,y,1/2+z
x,-y,1/2+z
-y,-x,1/2+z
y,x,1/2+z
loop_
_atom_site_type_symbol
_atom_site_label
_atom_site_fract_x
_atom_site_fract_y
_atom_site_fract_z
Si Si1 0.305935 0.345623 0.080911
Si Si2 0.876196 0.423643 0.201338
Si Si3 0.287261 0.186332 0.301577
Si Si4 0.529260 0.250128 0.419131
Si Si5 0.971853 0.129883 0.916382
Si Si6 0.280351 0.001838 0.327867
O O1 0.254819 0.290639 0.136851
O O2 0.402225 0.321953 0.091284
O O3 0.294748 0.442489 0.099075
O O4 0.276353 0.325456 0.000000
O O5 0.908367 0.500000 0.250000
O O6 0.814368 0.367549 0.249496
O O7 0.828471 0.457183 0.132187
O O8 0.956342 0.370290 0.174282
O O9 0.207836 0.207836 0.250000
O O10 0.285834 0.099722 0.346009
O O11 0.530388 0.215281 0.500000
O O12 0.953232 0.219324 0.881517
O O13 0.063245 0.097615 0.892218
O O14 0.968521 0.141782 0.000000
O O15 0.238584 0.000000 0.250000
#
# Coordination Sequence:
#
# PCOD8313305 Si02
#       6
#    16  16  16  16  16  16
#     4  10  21  38  60  89 120 159 201 250 306 364
#     4  11  22  41  62  86 121 164 202 250 309 371
#     4  11  22  38  61  88 121 156 204 253 305 364
#     4  10  21  38  62  90 122 158 202 249 305 367
#     4   9  20  39  61  86 122 165 203 248 310 372
#     4  10  25  37  58  92 119 155 204 255 307 360
#
# _framework density 19.938058000000002
#
# number of rings (size 3 to 8) (size 9 to 14) (size 15 to 20)
#    0.000    1.833    3.333    0.500    4.667    4.667 
#    0.000    5.833    0.000    2.000    0.000    0.000 
#    0.000    0.000    0.000    0.000    0.000    0.000 
#
# Total GULP energy -1189968.482217 kJ/mol
# GULP energy per Si atom -12395.505023 kJ/mol
# Density = 1.989268 g / cm^3
# Si number density = 19.938058 Si / 1000 Ang^3
#
#
#
# Elastic Constant Matrix: (Units=GPa)
#
#
# Indices 1 2 3 4 5 6 
#
# 1 106.6862 36.6903 41.3690 0.0000 0.0000 0.0000
# 2 36.6903 106.6862 41.3690 0.0000 0.0000 0.0000
# 3 41.3690 41.3690 70.7101 0.0000 0.0000 0.0000
# 4 0.0000 0.0000 0.0000 32.7435 0.0000 0.0000
# 5 0.0000 0.0000 0.0000 0.0000 32.7435 0.0000
# 6 0.0000 0.0000 0.0000 0.0000 0.0000 28.0718
#
#
#
# Elastic Compliance Matrix: (Units=1/GPa)
#
#
# Indices 1 2 3 4 5 6 
#
# 1 0.012408 -0.001878 -0.006160 0.000000 0.000000 0.000000
# 2 -0.001878 0.012408 -0.006160 0.000000 0.000000 0.000000
# 3 -0.006160 -0.006160 0.021350 0.000000 0.000000 0.000000
# 4 0.000000 0.000000 0.000000 0.030540 0.000000 0.000000
# 5 0.000000 0.000000 0.000000 0.000000 0.030540 0.000000
# 6 0.000000 0.000000 0.000000 0.000000 0.000000 0.035623
#
#
# Mechanical properties :
#
#
# Convention : Reuss Voigt Hill
#
# Bulk Modulus (GPa) = 56.28011 58.10437 57.19224
# Shear Modulus (GPa) = 28.21806 29.68870 28.95338
#
# Velocity S-wave (km/s) = 3.76611 3.86300 3.81486
# Velocity P-wave (km/s) = 6.87024 7.00734 6.93913
#
# Compressibility (1/GPa) = 0.01776827
#
# Stress axis : x y z
#
# Youngs Moduli (GPa) = 80.59277 80.59277 46.83740
#
# Poissons Ratio (x) = 0.15139 0.28853
# Poissons Ratio (y) = 0.15139 0.28853
# Poissons Ratio (z) = 0.49648 0.49648
#
# Static dielectric constant tensor:
#      x y z
#    x 3.669710 0.000000 0.000000 
#    y 0.000000 3.669710 0.000000 
#    z 0.000000 0.000000 3.679160 
# 
# 
# High freq. dielectric constant tensor:
#      x y z
#    x 1.775050 0.000000 0.000000 
#    y 0.000000 1.775050 0.000000 
#    z 0.000000 0.000000 1.779100 
# 
# From -- ./inp_files/5323.got.cif
#   From: 2010.03.12/outbox.cif.g09.slc.cpg/sg124_3_cif.got.tgz:5323.got - 2010.04.06 16:38:57.
