data_PCOD8313011
_publ_section_title
;
Structure prediction by ZEFSAII (Michael W. Deem and Ramdas Pophale) SiO2 
 PCOD8313011
Probable space group: P 4/M M M
;
_chemical_formula_sum "Si O2"
_cell_formula_units_Z 96
_cell_length_a 14.356786
_cell_length_b 14.356786
_cell_length_c 29.878364
_cell_angle_alpha 90.000000
_cell_angle_beta 90.000000
_cell_angle_gamma 90.000000
_cell_volume 6158.447843
_symmetry_space_group_name_H-M "P 4/M M M"
_symmetry_group_IT_number 123
_symmetry_cell_setting 'tetragonal'
loop_
_space_group_symop_operation_xyz
x,y,z
-y,x,z
-x,-y,z
y,-x,z
x,-y,-z
-x,y,-z
y,x,-z
-y,-x,-z
-x,-y,-z
y,-x,-z
x,y,-z
-y,x,-z
-x,y,z
x,-y,z
-y,-x,z
y,x,z
loop_
_atom_site_type_symbol
_atom_site_label
_atom_site_fract_x
_atom_site_fract_y
_atom_site_fract_z
Si Si1 0.396623 0.889476 0.722836
Si Si2 0.893047 0.256361 0.449715
Si Si3 0.108257 0.260730 0.102562
Si Si4 0.393064 0.757427 0.052695
Si Si5 0.893869 0.254380 0.794959
Si Si6 0.110489 0.603490 0.623662
O O1 0.500000 0.848380 0.730412
O O2 0.330094 0.848649 0.761415
O O3 0.360267 0.860990 0.673257
O O4 0.400820 0.000000 0.726994
O O5 0.881369 0.296752 0.500000
O O6 0.841186 0.158815 0.444339
O O7 0.848779 0.329714 0.414782
O O8 0.000000 0.235652 0.438425
O O9 0.164743 0.164743 0.092927
O O10 0.151946 0.346052 0.074892
O O11 0.116631 0.290285 0.154371
O O12 0.000000 0.245718 0.088862
O O13 0.500000 0.746683 0.069084
O O14 0.335992 0.664009 0.066220
O O15 0.389237 0.773485 0.000000
O O16 0.842980 0.157021 0.788059
O O17 0.000000 0.234747 0.782232
O O18 0.151315 0.500000 0.616105
O O19 0.000000 0.599597 0.619430
#
# Coordination Sequence:
#
# PCOD8313011 Si02
#       6
#    16  16  16  16  16  16
#     4   8  14  25  40  57  77 101 130 165 204 243
#     4   9  17  27  38  54  77 105 135 164 195 235
#     4   9  18  31  45  63  88 117 150 186 220 254
#     4   9  18  32  49  69  92 116 142 175 217 265
#     4   9  17  28  42  61  85 113 143 173 205 241
#     4   8  14  25  40  56  74  98 129 166 206 241
#
# _framework density 15.588343
#
# number of rings (size 3 to 8) (size 9 to 14) (size 15 to 20)
#    0.000    3.333    0.000    1.000    0.000    3.000 
#    0.000    7.500    0.000    0.000    0.000    7.000 
#    0.000    0.667    0.000    5.500    0.000    3.167 
#
# Total GULP energy -1189788.215239 kJ/mol
# GULP energy per Si atom -12393.627242 kJ/mol
# Density = 1.555286 g / cm^3
# Si number density = 15.588343 Si / 1000 Ang^3
#
#
#
# Elastic Constant Matrix: (Units=GPa)
#
#
# Indices 1 2 3 4 5 6 
#
# 1 82.0653 39.4414 43.6847 0.0000 0.0000 0.0000
# 2 39.4414 82.0653 43.6847 0.0000 0.0000 0.0000
# 3 43.6847 43.6847 67.0678 0.0000 0.0000 0.0000
# 4 0.0000 0.0000 0.0000 24.2239 0.0000 0.0000
# 5 0.0000 0.0000 0.0000 0.0000 24.2239 0.0000
# 6 0.0000 0.0000 0.0000 0.0000 0.0000 8.5803
#
#
#
# Elastic Compliance Matrix: (Units=1/GPa)
#
#
# Indices 1 2 3 4 5 6 
#
# 1 0.019471 -0.003990 -0.010083 0.000000 0.000000 0.000000
# 2 -0.003990 0.019471 -0.010083 0.000000 0.000000 0.000000
# 3 -0.010083 -0.010083 0.028046 0.000000 0.000000 0.000000
# 4 0.000000 0.000000 0.000000 0.041281 0.000000 0.000000
# 5 0.000000 0.000000 0.000000 0.000000 0.041281 0.000000
# 6 0.000000 0.000000 0.000000 0.000000 0.000000 0.116547
#
#
# Mechanical properties :
#
#
# Convention : Reuss Voigt Hill
#
# Bulk Modulus (GPa) = 53.55122 53.86890 53.71006
# Shear Modulus (GPa) = 15.59410 18.36480 16.97945
#
# Velocity S-wave (km/s) = 3.16629 3.43609 3.30394
# Velocity P-wave (km/s) = 6.91341 7.09749 7.00605
#
# Compressibility (1/GPa) = 0.01867371
#
# Stress axis : x y z
#
# Youngs Moduli (GPa) = 51.35944 51.35944 35.65630
#
# Poissons Ratio (x) = 0.20494 0.35952
# Poissons Ratio (y) = 0.20494 0.35952
# Poissons Ratio (z) = 0.51786 0.51786
#
# Static dielectric constant tensor:
#      x y z
#    x 2.906430 0.000000 0.000000 
#    y 0.000000 2.906430 0.000000 
#    z 0.000000 0.000000 3.198870 
# 
# 
# High freq. dielectric constant tensor:
#      x y z
#    x 1.574960 0.000000 0.000000 
#    y 0.000000 1.574960 0.000000 
#    z 0.000000 0.000000 1.606880 
# 
# From -- ./inp_files/8629.got.cif
#   From: 2010.03.12/outbox.cif.g09.slc.cpg/sg123_5_cif.got.tgz:8629.got - 2010.04.06 16:26:55.
