data_PCOD8313016
_publ_section_title
;
Structure prediction by ZEFSAII (Michael W. Deem and Ramdas Pophale) SiO2 
 PCOD8313016
Probable space group: P 4/M M M
;
_chemical_formula_sum "Si O2"
_cell_formula_units_Z 104
_cell_length_a 14.095918
_cell_length_b 14.095918
_cell_length_c 32.559450
_cell_angle_alpha 90.000000
_cell_angle_beta 90.000000
_cell_angle_gamma 90.000000
_cell_volume 6469.396801
_symmetry_space_group_name_H-M "P 4/M M M"
_symmetry_group_IT_number 123
_symmetry_cell_setting 'tetragonal'
loop_
_space_group_symop_operation_xyz
x,y,z
-y,x,z
-x,-y,z
y,-x,z
x,-y,-z
-x,y,-z
y,x,-z
-y,-x,-z
-x,-y,-z
y,-x,-z
x,y,-z
-y,x,-z
-x,y,z
x,-y,z
-y,-x,z
y,x,z
loop_
_atom_site_type_symbol
_atom_site_label
_atom_site_fract_x
_atom_site_fract_y
_atom_site_fract_z
Si Si1 0.741500 0.891828 0.114493
Si Si2 0.391309 0.237893 0.644410
Si Si3 0.111459 0.268526 0.410542
Si Si4 0.735366 0.890519 0.792414
Si Si5 0.257362 0.893476 0.500000
Si Si6 0.391391 0.238021 0.259998
Si Si7 0.394630 0.887465 0.045252
O O1 0.842459 0.842459 0.110431
O O2 0.700861 0.879871 0.160478
O O3 0.669482 0.844868 0.081718
O O4 0.760662 0.000000 0.103238
O O5 0.500000 0.254962 0.631387
O O6 0.333354 0.333354 0.633374
O O7 0.349148 0.148071 0.620244
O O8 0.382686 0.213260 0.692207
O O9 0.170739 0.170739 0.404104
O O10 0.128493 0.311440 0.456956
O O11 0.000000 0.248648 0.402113
O O12 0.832102 0.832102 0.784172
O O13 0.650340 0.851403 0.764517
O O14 0.755477 0.000000 0.781245
O O15 0.158899 0.841102 0.500000
O O16 0.223664 0.000000 0.500000
O O17 0.500000 0.255091 0.246975
O O18 0.333437 0.333437 0.249032
O O19 0.500000 0.845141 0.050506
O O20 0.399241 0.000000 0.049546
O O21 0.354573 0.859626 0.000000
#
# Coordination Sequence:
#
# PCOD8313016 Si02
#       7
#    16  16  16  16   8  16  16
#     4   9  17  28  42  61  85 113 143 174 209 249
#     4   9  18  32  49  68  89 114 144 179 220 264
#     4   9  17  29  45  66  92 120 150 183 218 258
#     4   9  18  31  45  63  88 117 150 185 218 256
#     4   8  14  25  41  61  86 116 148 182 219 256
#     4   9  18  32  49  69  91 113 140 177 221 268
#     4   8  14  25  40  57  78 105 137 173 211 248
#
# _framework density 16.075686999999999
#
# number of rings (size 3 to 8) (size 9 to 14) (size 15 to 20)
#    0.000    3.231    0.000    0.462    0.000    3.000 
#    0.000    8.077    0.000    1.385    0.000    6.462 
#    0.000    3.385    0.000    1.692    0.000    0.154 
#
# Total GULP energy -1288781.488221 kJ/mol
# GULP energy per Si atom -12392.129694 kJ/mol
# Density = 1.603910 g / cm^3
# Si number density = 16.075687 Si / 1000 Ang^3
#
#
#
# Elastic Constant Matrix: (Units=GPa)
#
#
# Indices 1 2 3 4 5 6 
#
# 1 93.0730 42.0402 52.2525 0.0000 0.0000 0.0000
# 2 42.0402 93.0728 52.2525 0.0000 0.0000 0.0000
# 3 52.2525 52.2525 80.2720 0.0000 0.0000 0.0000
# 4 0.0000 0.0000 0.0000 24.6720 0.0000 0.0000
# 5 0.0000 0.0000 0.0000 0.0000 24.6721 0.0000
# 6 0.0000 0.0000 0.0000 0.0000 0.0000 11.6446
#
#
#
# Elastic Compliance Matrix: (Units=1/GPa)
#
#
# Indices 1 2 3 4 5 6 
#
# 1 0.017251 -0.002345 -0.009703 0.000000 0.000000 0.000000
# 2 -0.002345 0.017251 -0.009703 0.000000 0.000000 0.000000
# 3 -0.009703 -0.009703 0.025090 0.000000 0.000000 0.000000
# 4 0.000000 0.000000 0.000000 0.040532 0.000000 0.000000
# 5 0.000000 0.000000 0.000000 0.000000 0.040532 0.000000
# 6 0.000000 0.000000 0.000000 0.000000 0.000000 0.085877
#
#
# Mechanical properties :
#
#
# Convention : Reuss Voigt Hill
#
# Bulk Modulus (GPa) = 62.15039 62.16757 62.15898
# Shear Modulus (GPa) = 18.15565 20.18923 19.17244
#
# Velocity S-wave (km/s) = 3.36428 3.54769 3.45720
# Velocity P-wave (km/s) = 7.33732 7.45233 7.39505
#
# Compressibility (1/GPa) = 0.01609000
#
# Stress axis : x y z
#
# Youngs Moduli (GPa) = 57.96868 57.96853 39.85668
#
# Poissons Ratio (x) = 0.13591 0.38673
# Poissons Ratio (y) = 0.13591 0.38673
# Poissons Ratio (z) = 0.56247 0.56247
#
# Static dielectric constant tensor:
#      x y z
#    x 2.956510 0.000000 0.000000 
#    y 0.000000 2.956510 0.000000 
#    z 0.000000 0.000000 3.338140 
# 
# 
# High freq. dielectric constant tensor:
#      x y z
#    x 1.600120 0.000000 0.000000 
#    y 0.000000 1.600120 0.000000 
#    z 0.000000 0.000000 1.628870 
# 
# From -- ./inp_files/8783.got.cif
#   From: 2010.03.12/outbox.cif.g09.slc.cpg/sg123_5_cif.got.tgz:8783.got - 2010.04.06 16:26:55.
