data_PCOD8313155
_publ_section_title
;
Structure prediction by ZEFSAII (Michael W. Deem and Ramdas Pophale) SiO2 
 PCOD8313155
Probable space group: P 4/M C C
;
_chemical_formula_sum "Si O2"
_cell_formula_units_Z 128
_cell_length_a 20.065517
_cell_length_b 20.065517
_cell_length_c 16.689926
_cell_angle_alpha 90.000000
_cell_angle_beta 90.000000
_cell_angle_gamma 90.000000
_cell_volume 6719.780996
_symmetry_space_group_name_H-M "P 4/M C C"
_symmetry_group_IT_number 124
_symmetry_cell_setting 'tetragonal'
loop_
_space_group_symop_operation_xyz
x,y,z
-y,x,z
-x,-y,z
y,-x,z
x,-y,1/2-z
-x,y,1/2-z
y,x,1/2-z
-y,-x,1/2-z
-x,-y,-z
y,-x,-z
x,y,-z
-y,x,-z
-x,y,1/2+z
x,-y,1/2+z
-y,-x,1/2+z
y,x,1/2+z
loop_
_atom_site_type_symbol
_atom_site_label
_atom_site_fract_x
_atom_site_fract_y
_atom_site_fract_z
Si Si1 0.265122 0.684594 0.328705
Si Si2 0.712004 0.938393 0.410074
Si Si3 0.556633 0.137307 0.595169
Si Si4 0.860209 0.764628 0.778486
Si Si5 0.946014 0.663443 0.319054
Si Si6 0.724037 0.390534 0.908337
Si Si7 0.402664 0.537735 0.904398
Si Si8 0.834685 0.405517 0.592562
O O1 0.313868 0.686133 0.250000
O O2 0.207433 0.737999 0.317908
O O3 0.312004 0.709014 0.400999
O O4 0.229747 0.614339 0.352618
O O5 0.737519 0.928956 0.500000
O O6 0.770223 0.914541 0.349503
O O7 0.645485 0.895115 0.392179
O O8 0.697386 0.015852 0.393716
O O9 0.568048 0.124815 0.500000
O O10 0.593130 0.081547 0.648451
O O11 0.589553 0.205215 0.628538
O O12 0.478338 0.138479 0.616393
O O13 0.839713 0.839713 0.750000
O O14 0.888165 0.714596 0.709771
O O15 0.000000 0.648687 0.250000
O O16 0.665588 0.434149 0.867054
O O17 0.727654 0.411100 0.000000
O O18 0.414637 0.462665 0.874012
O O19 0.401348 0.540392 0.000000
O O20 0.811634 0.404627 0.500000
#
# Coordination Sequence:
#
# PCOD8313155 Si02
#       8
#    16  16  16  16  16  16  16  16
#     4  10  19  33  48  67  97 134 172 217 271 330
#     4   9  18  34  54  78 107 145 183 219 266 321
#     4  10  20  33  50  78 104 130 179 238 282 331
#     4   9  18  34  54  75 105 142 179 216 259 320
#     4  10  20  36  55  76 106 145 179 219 273 328
#     4  10  20  31  51  75  98 131 173 228 290 337
#     4   8  15  28  47  71  94 121 165 221 280 344
#     4   9  19  34  53  74 101 135 174 222 275 330
#
# _framework density 19.048238999999999
#
# number of rings (size 3 to 8) (size 9 to 14) (size 15 to 20)
#    0.000    2.625    0.000    2.625    1.750    1.000 
#    0.000   16.250    0.000    0.000    0.000    0.875 
#    0.000   20.250    0.000   10.125    0.000    1.125 
#
# Total GULP energy -1585993.370598 kJ/mol
# GULP energy per Si atom -12390.573208 kJ/mol
# Density = 1.900488 g / cm^3
# Si number density = 19.048239 Si / 1000 Ang^3
#
#
#
# Elastic Constant Matrix: (Units=GPa)
#
#
# Indices 1 2 3 4 5 6 
#
# 1 81.9896 42.0864 31.3828 0.0000 0.0000 0.0000
# 2 42.0864 81.9898 31.3828 0.0000 0.0000 0.0000
# 3 31.3828 31.3828 61.1816 0.0000 0.0000 0.0000
# 4 0.0000 0.0000 0.0000 26.5325 0.0000 0.0000
# 5 0.0000 0.0000 0.0000 0.0000 26.5324 0.0000
# 6 0.0000 0.0000 0.0000 0.0000 0.0000 31.4997
#
#
#
# Elastic Compliance Matrix: (Units=1/GPa)
#
#
# Indices 1 2 3 4 5 6 
#
# 1 0.017972 -0.007088 -0.005583 0.000000 0.000000 0.000000
# 2 -0.007088 0.017972 -0.005583 0.000000 0.000000 0.000000
# 3 -0.005583 -0.005583 0.022072 0.000000 0.000000 0.000000
# 4 0.000000 0.000000 0.000000 0.037690 0.000000 0.000000
# 5 0.000000 0.000000 0.000000 0.000000 0.037690 0.000000
# 6 0.000000 0.000000 0.000000 0.000000 0.000000 0.031746
#
#
# Mechanical properties :
#
#
# Convention : Reuss Voigt Hill
#
# Bulk Modulus (GPa) = 46.49328 48.31833 47.40580
# Shear Modulus (GPa) = 23.94414 24.93352 24.43883
#
# Velocity S-wave (km/s) = 3.54930 3.62189 3.58578
# Velocity P-wave (km/s) = 6.42323 6.55074 6.48730
#
# Compressibility (1/GPa) = 0.02150849
#
# Stress axis : x y z
#
# Youngs Moduli (GPa) = 55.64163 55.64182 45.30617
#
# Poissons Ratio (x) = 0.39441 0.25293
# Poissons Ratio (y) = 0.39441 0.25293
# Poissons Ratio (z) = 0.31063 0.31063
#
# Static dielectric constant tensor:
#      x y z
#    x 3.595320 0.000000 0.000000 
#    y 0.000000 3.595320 0.000000 
#    z 0.000000 0.000000 3.554940 
# 
# 
# High freq. dielectric constant tensor:
#      x y z
#    x 1.724330 0.000000 0.000000 
#    y 0.000000 1.724330 0.000000 
#    z 0.000000 0.000000 1.731120 
# 
# From -- ./inp_files/4586.got.cif
#   From: 2010.03.12/outbox.cif.g09.slc.cpg/sg124_3_cif.got.tgz:4586.got - 2010.04.06 16:38:57.
