data_PCOD8313182
_publ_section_title
;
Structure prediction by ZEFSAII (Michael W. Deem and Ramdas Pophale) SiO2 
 PCOD8313182
Probable space group: P 4/M C C
;
_chemical_formula_sum "Si O2"
_cell_formula_units_Z 96
_cell_length_a 23.444649
_cell_length_b 23.444649
_cell_length_c 9.317221
_cell_angle_alpha 90.000000
_cell_angle_beta 90.000000
_cell_angle_gamma 90.000000
_cell_volume 5121.225120
_symmetry_space_group_name_H-M "P 4/M C C"
_symmetry_group_IT_number 124
_symmetry_cell_setting 'tetragonal'
loop_
_space_group_symop_operation_xyz
x,y,z
-y,x,z
-x,-y,z
y,-x,z
x,-y,1/2-z
-x,y,1/2-z
y,x,1/2-z
-y,-x,1/2-z
-x,-y,-z
y,-x,-z
x,y,-z
-y,x,-z
-x,y,1/2+z
x,-y,1/2+z
-y,-x,1/2+z
y,x,1/2+z
loop_
_atom_site_type_symbol
_atom_site_label
_atom_site_fract_x
_atom_site_fract_y
_atom_site_fract_z
Si Si1 0.820558 0.744154 0.671441
Si Si2 0.946581 0.713557 0.660099
Si Si3 0.421576 0.946625 0.337593
Si Si4 0.627716 0.372285 0.250000
Si Si5 0.752649 0.652031 0.159131
Si Si6 0.556419 0.577782 0.000000
Si Si7 0.835828 0.548406 0.839333
O O1 0.803168 0.803168 0.750000
O O2 0.817159 0.748193 0.500000
O O3 0.884903 0.731291 0.724240
O O4 0.774018 0.697234 0.723297
O O5 0.952862 0.738345 0.500000
O O6 0.948909 0.646143 0.658980
O O7 0.000000 0.738745 0.750000
O O8 0.445417 0.946578 0.500000
O O9 0.442173 0.892127 0.252687
O O10 0.446249 0.000000 0.250000
O O11 0.621710 0.306876 0.199250
O O12 0.580436 0.386234 0.368069
O O13 0.800028 0.604674 0.153585
O O14 0.747642 0.680370 0.000000
O O15 0.487577 0.578828 0.000000
O O16 0.801301 0.500000 0.750000
O O17 0.850942 0.527774 0.000000
#
# Coordination Sequence:
#
# PCOD8313182 Si02
#       7
#    16  16  16   8  16   8  16
#     4  11  22  36  59  88 122 161 200 244 291 345
#     4   9  19  34  55  83 114 153 199 243 291 342
#     4  10  19  35  56  80 108 147 195 243 292 339
#     4  12  24  45  68  96 120 148 186 230 291 360
#     4  11  24  41  59  87 117 151 190 230 287 357
#     4  11  26  48  74  96 118 146 186 240 302 372
#     4  11  24  40  56  79 111 146 189 239 292 346
#
# _framework density 18.745515000000001
#
# number of rings (size 3 to 8) (size 9 to 14) (size 15 to 20)
#    0.000    1.417    3.333    2.000    1.167    5.000 
#    0.000    1.667    0.000    0.000    0.000    0.000 
#    0.000    0.333    0.000    3.667    0.000    2.667 
#
# Total GULP energy -1189806.973882 kJ/mol
# GULP energy per Si atom -12393.822645 kJ/mol
# Density = 1.870285 g / cm^3
# Si number density = 18.745515 Si / 1000 Ang^3
#
#
#
# Elastic Constant Matrix: (Units=GPa)
#
#
# Indices 1 2 3 4 5 6 
#
# 1 80.5034 30.7581 42.9623 0.0000 0.0000 0.0000
# 2 30.7581 80.5040 42.9625 0.0000 0.0000 0.0000
# 3 42.9623 42.9625 147.9257 0.0000 0.0000 0.0000
# 4 0.0000 0.0000 0.0000 32.3591 0.0000 0.0000
# 5 0.0000 0.0000 0.0000 0.0000 32.3592 0.0000
# 6 0.0000 0.0000 0.0000 0.0000 0.0000 21.0400
#
#
#
# Elastic Compliance Matrix: (Units=1/GPa)
#
#
# Indices 1 2 3 4 5 6 
#
# 1 0.015845 -0.004258 -0.003365 0.000000 0.000000 0.000000
# 2 -0.004258 0.015844 -0.003365 0.000000 0.000000 0.000000
# 3 -0.003365 -0.003365 0.008715 0.000000 0.000000 0.000000
# 4 0.000000 0.000000 0.000000 0.030903 0.000000 0.000000
# 5 0.000000 0.000000 0.000000 0.000000 0.030903 0.000000
# 6 0.000000 0.000000 0.000000 0.000000 0.000000 0.047528
#
#
# Mechanical properties :
#
#
# Convention : Reuss Voigt Hill
#
# Bulk Modulus (GPa) = 54.26654 60.25543 57.26098
# Shear Modulus (GPa) = 28.11244 29.96835 29.04039
#
# Velocity S-wave (km/s) = 3.87678 4.00271 3.94025
# Velocity P-wave (km/s) = 7.00366 7.31956 7.16335
#
# Compressibility (1/GPa) = 0.01842756
#
# Stress axis : x y z
#
# Youngs Moduli (GPa) = 63.11332 63.11388 114.74688
#
# Poissons Ratio (x) = 0.26873 0.38614
# Poissons Ratio (y) = 0.26873 0.38614
# Poissons Ratio (z) = 0.21239 0.21239
#
# Static dielectric constant tensor:
#      x y z
#    x 7.260740 0.000000 0.000000 
#    y 0.000000 7.256390 0.000000 
#    z 0.000000 0.000000 3.820090 
# 
# 
# High freq. dielectric constant tensor:
#      x y z
#    x 1.716930 0.000000 0.000000 
#    y 0.000000 1.716930 0.000000 
#    z 0.000000 0.000000 1.747370 
# 
# From -- ./inp_files/1442.got.cif
#   From: 2010.03.12/outbox.cif.g09.slc.cpg/sg124_1_cif.got.tgz:1442.got - 2010.04.06 16:38:57.
