data_PCOD8313388
_publ_section_title
;
Structure prediction by ZEFSAII (Michael W. Deem and Ramdas Pophale) SiO2 
 PCOD8313388
Probable space group: P 4/M C C
;
_chemical_formula_sum "Si O2"
_cell_formula_units_Z 40
_cell_length_a 14.675143
_cell_length_b 14.675143
_cell_length_c 9.032635
_cell_angle_alpha 90.000000
_cell_angle_beta 90.000000
_cell_angle_gamma 90.000000
_cell_volume 1945.266666
_symmetry_space_group_name_H-M "P 4/M C C"
_symmetry_group_IT_number 124
_symmetry_cell_setting 'tetragonal'
loop_
_space_group_symop_operation_xyz
x,y,z
-y,x,z
-x,-y,z
y,-x,z
x,-y,1/2-z
-x,y,1/2-z
y,x,1/2-z
-y,-x,1/2-z
-x,-y,-z
y,-x,-z
x,y,-z
-y,x,-z
-x,y,1/2+z
x,-y,1/2+z
-y,-x,1/2+z
y,x,1/2+z
loop_
_atom_site_type_symbol
_atom_site_label
_atom_site_fract_x
_atom_site_fract_y
_atom_site_fract_z
Si Si1 0.097601 0.231017 0.677710
Si Si2 0.190784 0.412677 0.661605
Si Si3 0.438060 0.362451 0.000000
O O1 0.141567 0.141567 0.750000
O O2 0.092900 0.220552 0.500000
O O3 0.157741 0.317748 0.731598
O O4 0.000000 0.244239 0.750000
O O5 0.155430 0.500000 0.750000
O O6 0.144626 0.421434 0.500000
O O7 0.301701 0.413812 0.645098
O O8 0.546006 0.380663 0.000000
#
# Coordination Sequence:
#
# PCOD8313388 Si02
#       3
#    16  16   8
#     4  11  25  45  70 100 129 170 216 276 340 405
#     4   9  22  37  62  91 129 178 220 266 325 385
#     4   9  20  36  60  95 135 178 230 269 325 380
#
# _framework density 20.562733000000001
#
# number of rings (size 3 to 8) (size 9 to 14) (size 15 to 20)
#    1.200    1.000    0.000    1.200    5.600    4.400 
#    0.000    8.000    0.000    0.000    0.000    0.000 
#    0.000    0.000    0.000    0.000    0.000    0.000 
#
# Total GULP energy -495628.469986 kJ/mol
# GULP energy per Si atom -12390.711750 kJ/mol
# Density = 2.051593 g / cm^3
# Si number density = 20.562733 Si / 1000 Ang^3
#
#
#
# Elastic Constant Matrix: (Units=GPa)
#
#
# Indices 1 2 3 4 5 6 
#
# 1 144.1614 76.9986 42.7110 0.0000 0.0000 0.0000
# 2 76.9986 144.1614 42.7110 0.0000 0.0000 0.0000
# 3 42.7110 42.7110 76.7186 0.0000 0.0000 0.0000
# 4 0.0000 0.0000 0.0000 34.9242 0.0000 0.0000
# 5 0.0000 0.0000 0.0000 0.0000 34.9242 0.0000
# 6 0.0000 0.0000 0.0000 0.0000 0.0000 27.0667
#
#
#
# Elastic Compliance Matrix: (Units=1/GPa)
#
#
# Indices 1 2 3 4 5 6 
#
# 1 0.010325 -0.004564 -0.003207 0.000000 0.000000 0.000000
# 2 -0.004564 0.010325 -0.003207 0.000000 0.000000 0.000000
# 3 -0.003207 -0.003207 0.016605 0.000000 0.000000 0.000000
# 4 0.000000 0.000000 0.000000 0.028633 0.000000 0.000000
# 5 0.000000 0.000000 0.000000 0.000000 0.028633 0.000000
# 6 0.000000 0.000000 0.000000 0.000000 0.000000 0.036946
#
#
# Mechanical properties :
#
#
# Convention : Reuss Voigt Hill
#
# Bulk Modulus (GPa) = 65.36647 76.65361 71.01004
# Shear Modulus (GPa) = 31.54115 32.89111 32.21613
#
# Velocity S-wave (km/s) = 3.92075 4.00378 3.96248
# Velocity P-wave (km/s) = 7.23562 7.66371 7.45274
#
# Compressibility (1/GPa) = 0.01529836
#
# Stress axis : x y z
#
# Youngs Moduli (GPa) = 96.85501 96.85501 60.22172
#
# Poissons Ratio (x) = 0.44209 0.19312
# Poissons Ratio (y) = 0.44209 0.19312
# Poissons Ratio (z) = 0.31060 0.31060
#
# Static dielectric constant tensor:
#      x y z
#    x 3.586400 0.000000 0.000000 
#    y 0.000000 3.586400 0.000000 
#    z 0.000000 0.000000 3.626680 
# 
# 
# High freq. dielectric constant tensor:
#      x y z
#    x 1.800880 0.000000 0.000000 
#    y 0.000000 1.800880 0.000000 
#    z 0.000000 0.000000 1.796220 
# 
# From -- ./inp_files/325.got.cif
#   From: 2010.03.12/outbox.cif.g09.slc.cpg/sg124_1_cif.got.tgz:325.got - 2010.04.06 16:38:57.
