data_PCOD8313548
_publ_section_title
;
Structure prediction by ZEFSAII (Michael W. Deem and Ramdas Pophale) SiO2 
 PCOD8313548
Probable space group: P 4/N B M
;
_chemical_formula_sum "Si O2"
_cell_formula_units_Z 64
_cell_length_a 13.229380
_cell_length_b 13.229380
_cell_length_c 18.062429
_cell_angle_alpha 90.000000
_cell_angle_beta 90.000000
_cell_angle_gamma 90.000000
_cell_volume 3161.223018
_symmetry_space_group_name_H-M "P 4/N B M"
_symmetry_group_IT_number 125
_space_group.IT_coordinate_system_code '2'
_symmetry_cell_setting 'tetragonal'
loop_
_space_group_symop_operation_xyz
x,y,z
1/2-y,x,z
1/2-x,1/2-y,z
y,1/2-x,z
x,1/2-y,-z
1/2-x,y,-z
y,x,-z
1/2-y,1/2-x,-z
-x,-y,-z
1/2+y,-x,-z
1/2+x,1/2+y,-z
-y,1/2+x,-z
-x,1/2+y,z
1/2+x,-y,z
-y,-x,z
1/2+y,1/2+x,z
loop_
_atom_site_type_symbol
_atom_site_label
_atom_site_fract_x
_atom_site_fract_y
_atom_site_fract_z
Si Si1 0.714571 0.911954 0.296618
Si Si2 0.033648 0.127519 0.067669
Si Si3 0.013533 0.345021 0.455857
Si Si4 0.670603 0.010249 0.149728
O O1 0.631332 0.826001 0.286963
O O2 0.697977 0.959745 0.376115
O O3 0.706335 0.998730 0.234216
O O4 0.004926 0.242137 0.087998
O O5 0.086673 0.076724 0.138547
O O6 0.113957 0.113957 0.000000
O O7 0.930042 0.069959 0.045996
O O8 0.968682 0.250000 0.500000
O O9 0.110880 0.389121 0.500000
O O10 0.929624 0.429624 0.447324
O O11 0.621073 0.121073 0.138499
#
# Coordination Sequence:
#
# PCOD8313548 Si02
#       4
#    16  16  16  16
#     4  11  21  37  63  92 126 167 217 268 321 375
#     4  10  22  40  62  91 124 162 211 262 315 376
#     4  11  23  40  63  90 124 166 213 269 329 387
#     4  11  22  39  62  90 130 169 208 261 320 381
#
# _framework density 20.245329999999999
#
# number of rings (size 3 to 8) (size 9 to 14) (size 15 to 20)
#    0.000    1.250    5.000    1.500    0.000    1.500 
#    0.000    2.500    0.000    7.500    0.000    0.000 
#    0.000    0.000    0.000    0.000    0.000    0.000 
#
# Total GULP energy -793428.143907 kJ/mol
# GULP energy per Si atom -12397.314749 kJ/mol
# Density = 2.019925 g / cm^3
# Si number density = 20.245330 Si / 1000 Ang^3
#
#
#
# Elastic Constant Matrix: (Units=GPa)
#
#
# Indices 1 2 3 4 5 6 
#
# 1 97.6763 47.7364 45.3066 0.0000 0.0000 0.0000
# 2 47.7364 97.6763 45.3066 0.0000 0.0000 0.0000
# 3 45.3066 45.3066 143.7529 0.0000 0.0000 0.0000
# 4 0.0000 0.0000 0.0000 23.2169 0.0000 0.0000
# 5 0.0000 0.0000 0.0000 0.0000 23.2177 0.0000
# 6 0.0000 0.0000 0.0000 0.0000 0.0000 47.5229
#
#
#
# Elastic Compliance Matrix: (Units=1/GPa)
#
#
# Indices 1 2 3 4 5 6 
#
# 1 0.014291 -0.005733 -0.002697 0.000000 0.000000 0.000000
# 2 -0.005733 0.014291 -0.002697 0.000000 0.000000 0.000000
# 3 -0.002697 -0.002697 0.008656 0.000000 0.000000 0.000000
# 4 0.000000 0.000000 0.000000 0.043072 0.000000 0.000000
# 5 0.000000 0.000000 0.000000 0.000000 0.043071 0.000000
# 6 0.000000 0.000000 0.000000 0.000000 0.000000 0.021042
#
#
# Mechanical properties :
#
#
# Convention : Reuss Voigt Hill
#
# Bulk Modulus (GPa) = 66.74076 68.42275 67.58175
# Shear Modulus (GPa) = 29.12517 32.17522 30.65019
#
# Velocity S-wave (km/s) = 3.79702 3.99088 3.89516
# Velocity P-wave (km/s) = 7.22916 7.42337 7.32691
#
# Compressibility (1/GPa) = 0.01498335
#
# Stress axis : x y z
#
# Youngs Moduli (GPa) = 69.97481 69.97478 115.52034
#
# Poissons Ratio (x) = 0.40118 0.31157
# Poissons Ratio (y) = 0.40118 0.31157
# Poissons Ratio (z) = 0.18873 0.18873
#
# Static dielectric constant tensor:
#      x y z
#    x 3.564990 0.000000 0.000000 
#    y 0.000000 3.564990 0.000000 
#    z 0.000000 0.000000 3.723280 
# 
# 
# High freq. dielectric constant tensor:
#      x y z
#    x 1.779090 0.000000 0.000000 
#    y 0.000000 1.779090 0.000000 
#    z 0.000000 0.000000 1.810140 
# 
# From -- ./inp_files/4625.got.cif
#   From: 2010.03.12/outbox.cif.g09.slc.cpg/sg125_3_cif.got.tgz:4625.got - 2010.04.06 16:47:52.
