data_PCOD8313149
_publ_section_title
;
Structure prediction by ZEFSAII (Michael W. Deem and Ramdas Pophale) SiO2 
 PCOD8313149
Probable space group: P 4/M C C
;
_chemical_formula_sum "Si O2"
_cell_formula_units_Z 112
_cell_length_a 14.307004
_cell_length_b 14.307004
_cell_length_c 27.357700
_cell_angle_alpha 90.000000
_cell_angle_beta 90.000000
_cell_angle_gamma 90.000000
_cell_volume 5599.857556
_symmetry_space_group_name_H-M "P 4/M C C"
_symmetry_group_IT_number 124
_symmetry_cell_setting 'tetragonal'
loop_
_space_group_symop_operation_xyz
x,y,z
-y,x,z
-x,-y,z
y,-x,z
x,-y,1/2-z
-x,y,1/2-z
y,x,1/2-z
-y,-x,1/2-z
-x,-y,-z
y,-x,-z
x,y,-z
-y,x,-z
-x,y,1/2+z
x,-y,1/2+z
-y,-x,1/2+z
y,x,1/2+z
loop_
_atom_site_type_symbol
_atom_site_label
_atom_site_fract_x
_atom_site_fract_y
_atom_site_fract_z
Si Si1 0.569014 0.773385 0.675098
Si Si2 0.984866 0.855843 0.058038
Si Si3 0.594666 0.620867 0.000000
Si Si4 0.400797 0.972214 0.152455
Si Si5 0.825023 0.351115 0.165726
Si Si6 0.702345 0.702345 0.750000
Si Si7 0.315353 0.710817 0.911966
Si Si8 0.661448 0.914839 0.444741
O O1 0.626966 0.873259 0.677769
O O2 0.458529 0.791703 0.673913
O O3 0.602381 0.712065 0.721794
O O4 0.598950 0.716443 0.626557
O O5 0.974047 0.749977 0.074937
O O6 0.081704 0.898340 0.078072
O O7 0.980625 0.859064 0.000000
O O8 0.484244 0.631004 0.000000
O O9 0.628660 0.670455 0.049265
O O10 0.415488 0.947439 0.094494
O O11 0.500000 0.000000 0.174284
O O12 0.336022 0.062443 0.163421
O O13 0.785979 0.289640 0.210624
O O14 0.781685 0.311678 0.115535
O O15 0.310275 0.806560 0.942438
O O16 0.630009 0.939819 0.500000
#
# Coordination Sequence:
#
# PCOD8313149 Si02
#       8
#    16  16   8  16  16   8  16  16
#     4   9  19  37  58  82 114 140 178 233 286 345
#     4   8  15  27  43  65  95 131 174 226 274 312
#     4  11  22  36  54  74 102 153 206 232 272 341
#     4   9  20  36  53  79 113 149 181 227 286 340
#     4  10  20  36  57  83 113 144 182 227 289 348
#     4  10  20  34  60  85 106 139 176 222 286 342
#     4  10  20  35  53  78 112 149 187 239 285 324
#     4  10  19  32  51  75 111 148 196 243 273 328
#
# _framework density 20.000508
#
# number of rings (size 3 to 8) (size 9 to 14) (size 15 to 20)
#    0.000    2.500    0.714    1.714    2.000    0.857 
#    1.286    2.143    0.000   16.286    0.000    0.000 
#    0.000    2.857    0.000    0.000    0.000    0.000 
#
# Total GULP energy -1387551.875285 kJ/mol
# GULP energy per Si atom -12388.856029 kJ/mol
# Density = 1.995499 g / cm^3
# Si number density = 20.000508 Si / 1000 Ang^3
#
#
#
# Elastic Constant Matrix: (Units=GPa)
#
#
# Indices 1 2 3 4 5 6 
#
# 1 55.1485 12.2614 21.0022 0.0000 0.0000 0.0000
# 2 12.2614 55.1485 21.0022 0.0000 0.0000 0.0000
# 3 21.0022 21.0022 93.2459 0.0000 0.0000 0.0000
# 4 0.0000 0.0000 0.0000 23.6856 0.0000 0.0000
# 5 0.0000 0.0000 0.0000 0.0000 23.6856 0.0000
# 6 0.0000 0.0000 0.0000 0.0000 0.0000 24.5094
#
#
#
# Elastic Compliance Matrix: (Units=1/GPa)
#
#
# Indices 1 2 3 4 5 6 
#
# 1 0.020287 -0.003030 -0.003887 0.000000 0.000000 0.000000
# 2 -0.003030 0.020287 -0.003887 0.000000 0.000000 0.000000
# 3 -0.003887 -0.003887 0.012475 0.000000 0.000000 0.000000
# 4 0.000000 0.000000 0.000000 0.042220 0.000000 0.000000
# 5 0.000000 0.000000 0.000000 0.000000 0.042220 0.000000
# 6 0.000000 0.000000 0.000000 0.000000 0.000000 0.040801
#
#
# Mechanical properties :
#
#
# Convention : Reuss Voigt Hill
#
# Bulk Modulus (GPa) = 31.80540 34.67494 33.24017
# Shear Modulus (GPa) = 23.76689 24.32795 24.04742
#
# Velocity S-wave (km/s) = 3.45093 3.49143 3.47124
# Velocity P-wave (km/s) = 5.64051 5.79897 5.72029
#
# Compressibility (1/GPa) = 0.03144120
#
# Stress axis : x y z
#
# Youngs Moduli (GPa) = 49.29322 49.29322 80.15906
#
# Poissons Ratio (x) = 0.14937 0.31156
# Poissons Ratio (y) = 0.14937 0.31156
# Poissons Ratio (z) = 0.19159 0.19159
#
# Static dielectric constant tensor:
#      x y z
#    x 3.770270 0.000000 0.000000 
#    y 0.000000 3.770270 0.000000 
#    z 0.000000 0.000000 3.509820 
# 
# 
# High freq. dielectric constant tensor:
#      x y z
#    x 1.769020 0.000000 0.000000 
#    y 0.000000 1.769020 0.000000 
#    z 0.000000 0.000000 1.770400 
# 
# From -- ./inp_files/6675.got.cif
#   From: 2010.03.12/outbox.cif.g09.slc.cpg/sg124_4_cif.got.tgz:6675.got - 2010.04.06 16:38:57.
