data_PCOD8313919
_publ_section_title
;
Structure prediction by ZEFSAII (Michael W. Deem and Ramdas Pophale) SiO2 
 PCOD8313919
Probable space group: P 4/M B M
;
_chemical_formula_sum "Si O2"
_cell_formula_units_Z 104
_cell_length_a 14.889485
_cell_length_b 14.889485
_cell_length_c 27.201508
_cell_angle_alpha 90.000000
_cell_angle_beta 90.000000
_cell_angle_gamma 90.000000
_cell_volume 6030.486288
_symmetry_space_group_name_H-M "P 4/M B M"
_symmetry_group_IT_number 127
_symmetry_cell_setting 'tetragonal'
loop_
_space_group_symop_operation_xyz
x,y,z
-y,x,z
-x,-y,z
y,-x,z
1/2+x,1/2-y,-z
1/2-x,1/2+y,-z
1/2+y,1/2+x,-z
1/2-y,1/2-x,-z
-x,-y,-z
y,-x,-z
x,y,-z
-y,x,-z
1/2-x,1/2+y,z
1/2+x,1/2-y,z
1/2-y,1/2-x,z
1/2+y,1/2+x,z
loop_
_atom_site_type_symbol
_atom_site_label
_atom_site_fract_x
_atom_site_fract_y
_atom_site_fract_z
Si Si1 0.857733 0.036794 0.443866
Si Si2 0.144216 0.959785 0.893550
Si Si3 0.039497 0.141979 0.000000
Si Si4 0.905011 0.744774 0.356465
Si Si5 0.882559 0.091070 0.277786
Si Si6 0.747279 0.097319 0.197610
Si Si7 0.504858 0.856168 0.723822
O O1 0.825315 0.045116 0.500000
O O2 0.892767 0.936960 0.432928
O O3 0.772833 0.058169 0.409674
O O4 0.192054 0.946513 0.947574
O O5 0.222173 0.939330 0.854963
O O6 0.061112 0.891507 0.886762
O O7 0.939047 0.107945 0.000000
O O8 0.822073 0.677928 0.363392
O O9 0.871646 0.832547 0.326323
O O10 0.986356 0.700584 0.325543
O O11 0.833773 0.129407 0.229116
O O12 0.983313 0.124621 0.277820
O O13 0.680889 0.180889 0.190451
O O14 0.701236 0.015453 0.227298
O O15 0.439831 0.939831 0.723500
O O16 0.607744 0.892257 0.724407
#
# Coordination Sequence:
#
# PCOD8313919 Si02
#       7
#    16  16   8  16  16  16  16
#     4   9  18  34  54  72  92 121 155 188 226 275
#     4   9  16  29  48  68  90 117 151 188 231 279
#     4   7  12  24  45  68  86 111 149 189 224 271
#     4  10  19  31  49  73  99 122 149 190 232 269
#     4  10  19  32  49  66  88 121 158 192 230 277
#     4  10  19  30  44  67  97 122 151 192 232 270
#     4   8  16  32  49  63  86 124 161 184 210 259
#
# _framework density 17.245708
#
# number of rings (size 3 to 8) (size 9 to 14) (size 15 to 20)
#    0.000    2.846    0.000    4.615    0.000    2.769 
#    0.000   14.231    0.000    1.385    0.000    3.769 
#    0.000    2.462    0.000    0.000    0.000    0.000 
#
# Total GULP energy -1288679.415016 kJ/mol
# GULP energy per Si atom -12391.148221 kJ/mol
# Density = 1.720646 g / cm^3
# Si number density = 17.245708 Si / 1000 Ang^3
#
#
#
# Elastic Constant Matrix: (Units=GPa)
#
#
# Indices 1 2 3 4 5 6 
#
# 1 72.2691 41.8702 56.7840 0.0000 0.0000 0.0000
# 2 41.8702 72.2691 56.7840 0.0000 0.0000 0.0000
# 3 56.7840 56.7840 164.6360 0.0000 0.0000 0.0000
# 4 0.0000 0.0000 0.0000 20.2234 0.0000 0.0000
# 5 0.0000 0.0000 0.0000 0.0000 20.2234 0.0000
# 6 0.0000 0.0000 0.0000 0.0000 0.0000 20.5387
#
#
#
# Elastic Compliance Matrix: (Units=1/GPa)
#
#
# Indices 1 2 3 4 5 6 
#
# 1 0.023117 -0.009779 -0.004601 0.000000 0.000000 0.000000
# 2 -0.009779 0.023117 -0.004601 0.000000 0.000000 0.000000
# 3 -0.004601 -0.004601 0.009248 0.000000 0.000000 0.000000
# 4 0.000000 0.000000 0.000000 0.049448 0.000000 0.000000
# 5 0.000000 0.000000 0.000000 0.000000 0.049448 0.000000
# 6 0.000000 0.000000 0.000000 0.000000 0.000000 0.048689
#
#
# Mechanical properties :
#
#
# Convention : Reuss Voigt Hill
#
# Bulk Modulus (GPa) = 57.06889 68.89453 62.98171
# Shear Modulus (GPa) = 20.25380 22.44614 21.34997
#
# Velocity S-wave (km/s) = 3.43071 3.61161 3.52232
# Velocity P-wave (km/s) = 6.98974 7.57807 7.28984
#
# Compressibility (1/GPa) = 0.01752268
#
# Stress axis : x y z
#
# Youngs Moduli (GPa) = 43.25741 43.25741 108.13609
#
# Poissons Ratio (x) = 0.42300 0.49750
# Poissons Ratio (y) = 0.42300 0.49750
# Poissons Ratio (z) = 0.19901 0.19901
#
# Static dielectric constant tensor:
#      x y z
#    x 3.147080 0.000000 0.000000 
#    y 0.000000 3.147080 0.000000 
#    z 0.000000 0.000000 3.435370 
# 
# 
# High freq. dielectric constant tensor:
#      x y z
#    x 1.645540 0.000000 0.000000 
#    y 0.000000 1.645540 0.000000 
#    z 0.000000 0.000000 1.673090 
# 
# From -- ./inp_files/6196.got.cif
#   From: 2010.03.12/outbox.cif.g09.slc.cpg/sg127_4_cif.got.tgz:6196.got - 2010.04.06 17:03:15.
