data_PCOD8313130
_publ_section_title
;
Structure prediction by ZEFSAII (Michael W. Deem and Ramdas Pophale) SiO2 
 PCOD8313130
Probable space group: P 4/M C C
;
_chemical_formula_sum "Si O2"
_cell_formula_units_Z 80
_cell_length_a 19.081987
_cell_length_b 19.081987
_cell_length_c 15.362642
_cell_angle_alpha 90.000000
_cell_angle_beta 90.000000
_cell_angle_gamma 90.000000
_cell_volume 5593.879431
_symmetry_space_group_name_H-M "P 4/M C C"
_symmetry_group_IT_number 124
_symmetry_cell_setting 'tetragonal'
loop_
_space_group_symop_operation_xyz
x,y,z
-y,x,z
-x,-y,z
y,-x,z
x,-y,1/2-z
-x,y,1/2-z
y,x,1/2-z
-y,-x,1/2-z
-x,-y,-z
y,-x,-z
x,y,-z
-y,x,-z
-x,y,1/2+z
x,-y,1/2+z
-y,-x,1/2+z
y,x,1/2+z
loop_
_atom_site_type_symbol
_atom_site_label
_atom_site_fract_x
_atom_site_fract_y
_atom_site_fract_z
Si Si1 0.324512 0.927011 0.402919
Si Si2 0.178436 0.951441 0.664226
Si Si3 0.907749 0.673985 0.096520
Si Si4 0.579346 0.083787 0.252371
Si Si5 0.092294 0.832777 0.404150
O O1 0.326943 0.893485 0.500000
O O2 0.251277 0.912027 0.354422
O O3 0.385042 0.892147 0.343234
O O4 0.334759 0.009492 0.410164
O O5 0.121159 0.889223 0.665436
O O6 0.181172 0.000000 0.750000
O O7 0.160685 0.007750 0.589037
O O8 0.881130 0.620065 0.170273
O O9 0.887829 0.753470 0.124976
O O10 0.876084 0.657145 0.000000
O O11 0.500000 0.111493 0.250000
O O12 0.582793 0.000000 0.250000
O O13 0.123225 0.848446 0.500000
#
# Coordination Sequence:
#
# PCOD8313130 Si02
#       5
#    16  16  16  16  16
#     4   9  16  27  40  54  73  96 117 143 183 230
#     4  11  20  30  43  57  72  94 125 160 199 239
#     4   8  15  27  41  54  72  95 117 144 184 228
#     4   9  16  25  38  56  74  90 112 142 176 222
#     4  10  19  31  43  55  71  94 123 158 198 239
#
# _framework density 14.301345
#
# number of rings (size 3 to 8) (size 9 to 14) (size 15 to 20)
#    0.000    2.600    0.000    6.600    0.000    1.200 
#    0.000    6.000    0.000    0.000    0.000    0.000 
#    0.000    0.000    0.000    0.000    0.000    0.000 
#
# Total GULP energy -991066.848262 kJ/mol
# GULP energy per Si atom -12388.335603 kJ/mol
# Density = 1.426879 g / cm^3
# Si number density = 14.301345 Si / 1000 Ang^3
#
#
#
# Elastic Constant Matrix: (Units=GPa)
#
#
# Indices 1 2 3 4 5 6 
#
# 1 62.0614 29.6356 37.3884 0.0000 0.0000 0.0000
# 2 29.6356 62.0614 37.3884 0.0000 0.0000 0.0000
# 3 37.3884 37.3884 111.5874 0.0000 0.0000 0.0000
# 4 0.0000 0.0000 0.0000 14.4093 0.0000 0.0000
# 5 0.0000 0.0000 0.0000 0.0000 14.4093 0.0000
# 6 0.0000 0.0000 0.0000 0.0000 0.0000 0.6046
#
#
#
# Elastic Compliance Matrix: (Units=1/GPa)
#
#
# Indices 1 2 3 4 5 6 
#
# 1 0.022923 -0.007917 -0.005028 0.000000 0.000000 0.000000
# 2 -0.007917 0.022923 -0.005028 0.000000 0.000000 0.000000
# 3 -0.005028 -0.005028 0.012331 0.000000 0.000000 0.000000
# 4 0.000000 0.000000 0.000000 0.069400 0.000000 0.000000
# 5 0.000000 0.000000 0.000000 0.000000 0.069400 0.000000
# 6 0.000000 0.000000 0.000000 0.000000 0.000000 1.654010
#
#
# Mechanical properties :
#
#
# Convention : Reuss Voigt Hill
#
# Bulk Modulus (GPa) = 44.98262 49.39279 47.18771
# Shear Modulus (GPa) = 2.63944 14.63781 8.63863
#
# Velocity S-wave (km/s) = 1.36000 3.20273 2.46039
# Velocity P-wave (km/s) = 5.82991 6.94901 6.41392
#
# Compressibility (1/GPa) = 0.02223081
#
# Stress axis : x y z
#
# Youngs Moduli (GPa) = 43.62516 43.62516 81.09799
#
# Poissons Ratio (x) = 0.34538 0.40774
# Poissons Ratio (y) = 0.34538 0.40774
# Poissons Ratio (z) = 0.21934 0.21934
#
# Static dielectric constant tensor:
#      x y z
#    x 2.531900 0.000000 0.000000 
#    y 0.000000 2.531900 0.000000 
#    z 0.000000 0.000000 3.272400 
# 
# 
# High freq. dielectric constant tensor:
#      x y z
#    x 1.494000 0.000000 0.000000 
#    y 0.000000 1.494000 0.000000 
#    z 0.000000 0.000000 1.575090 
# 
# From -- ./inp_files/3341.got.cif
#   From: 2010.03.12/outbox.cif.g09.slc.cpg/sg124_2_cif.got.tgz:3341.got - 2010.04.06 16:38:57.
