data_PCOD8313194
_publ_section_title
;
Structure prediction by ZEFSAII (Michael W. Deem and Ramdas Pophale) SiO2 
 PCOD8313194
Probable space group: P 4/M C C
;
_chemical_formula_sum "Si O2"
_cell_formula_units_Z 88
_cell_length_a 16.427669
_cell_length_b 16.427669
_cell_length_c 18.316455
_cell_angle_alpha 90.000000
_cell_angle_beta 90.000000
_cell_angle_gamma 90.000000
_cell_volume 4943.030734
_symmetry_space_group_name_H-M "P 4/M C C"
_symmetry_group_IT_number 124
_symmetry_cell_setting 'tetragonal'
loop_
_space_group_symop_operation_xyz
x,y,z
-y,x,z
-x,-y,z
y,-x,z
x,-y,1/2-z
-x,y,1/2-z
y,x,1/2-z
-y,-x,1/2-z
-x,-y,-z
y,-x,-z
x,y,-z
-y,x,-z
-x,y,1/2+z
x,-y,1/2+z
-y,-x,1/2+z
y,x,1/2+z
loop_
_atom_site_type_symbol
_atom_site_label
_atom_site_fract_x
_atom_site_fract_y
_atom_site_fract_z
Si Si1 0.070059 0.556090 0.082198
Si Si2 0.633268 0.766163 0.247567
Si Si3 0.236278 0.505699 0.628784
Si Si4 0.070179 0.300867 0.693050
Si Si5 0.364762 0.491358 0.000000
Si Si6 0.877446 0.975900 0.833781
O O1 0.154398 0.507271 0.083021
O O2 0.072709 0.638065 0.126753
O O3 0.000000 0.500000 0.117046
O O4 0.047293 0.579924 0.000000
O O5 0.686084 0.686084 0.250000
O O6 0.587986 0.774793 0.324892
O O7 0.570084 0.751931 0.182496
O O8 0.692152 0.843979 0.235330
O O9 0.311259 0.513009 0.573300
O O10 0.054325 0.214183 0.654282
O O11 0.000000 0.323292 0.750000
O O12 0.424547 0.414279 0.000000
O O13 0.936466 0.905262 0.867700
O O14 0.889413 0.000000 0.750000
#
# Coordination Sequence:
#
# PCOD8313194 Si02
#       6
#    16  16  16  16   8  16
#     4  10  20  36  56  75 105 146 179 214 271 318
#     4  10  21  33  53  81 108 140 170 220 279 314
#     4  10  20  38  54  75 110 138 175 220 269 325
#     4  10  20  31  53  82 109 136 181 224 256 321
#     4  11  22  36  59  80  98 138 185 220 260 325
#     4   8  15  28  48  75 108 144 175 215 261 303
#
# _framework density 17.802844
#
# number of rings (size 3 to 8) (size 9 to 14) (size 15 to 20)
#    0.000    2.273    0.909    2.727    5.091    1.818 
#    0.000    0.000    0.000    5.455    0.000    1.273 
#    0.000    0.000    0.000    0.000    0.000    0.000 
#
# Total GULP energy -1090489.838226 kJ/mol
# GULP energy per Si atom -12391.929980 kJ/mol
# Density = 1.776232 g / cm^3
# Si number density = 17.802844 Si / 1000 Ang^3
#
#
#
# Elastic Constant Matrix: (Units=GPa)
#
#
# Indices 1 2 3 4 5 6 
#
# 1 107.8311 77.9161 33.9497 0.0000 0.0000 0.0000
# 2 77.9161 107.8311 33.9497 0.0000 0.0000 0.0000
# 3 33.9497 33.9497 66.3990 0.0000 0.0000 0.0000
# 4 0.0000 0.0000 0.0000 -3.6447 0.0000 0.0000
# 5 0.0000 0.0000 0.0000 0.0000 -3.6447 0.0000
# 6 0.0000 0.0000 0.0000 0.0000 0.0000 33.1399
#
#
#
# Elastic Compliance Matrix: (Units=1/GPa)
#
#
# Indices 1 2 3 4 5 6 
#
# 1 0.020025 -0.013403 -0.003385 0.000000 0.000000 0.000000
# 2 -0.013403 0.020025 -0.003385 0.000000 0.000000 0.000000
# 3 -0.003385 -0.003385 0.018522 0.000000 0.000000 0.000000
# 4 0.000000 0.000000 0.000000 -0.274374 0.000000 0.000000
# 5 0.000000 0.000000 0.000000 0.000000 -0.274374 0.000000
# 6 0.000000 0.000000 0.000000 0.000000 0.000000 0.030175
#
#
# Mechanical properties :
#
#
# Convention : Reuss Voigt Hill
#
# Bulk Modulus (GPa) = 54.87528 63.74356 59.30942
# Shear Modulus (GPa) = -12.08963 14.25315 1.08176
#
# Velocity S-wave (km/s) = -2.60875 2.83258 0.78035
# Velocity P-wave (km/s) = 4.67083 6.82503 5.84798
#
# Compressibility (1/GPa) = 0.01822314
#
# Stress axis : x y z
#
# Youngs Moduli (GPa) = 49.93851 49.93851 53.98872
#
# Poissons Ratio (x) = 0.66935 0.18277
# Poissons Ratio (y) = 0.66935 0.18277
# Poissons Ratio (z) = 0.16906 0.16906
#
# Static dielectric constant tensor:
#      x y z
#    x 3.521400 0.000000 0.000000 
#    y 0.000000 3.521400 0.000000 
#    z 0.000000 0.000000 3.046520 
# 
# 
# High freq. dielectric constant tensor:
#      x y z
#    x 1.698180 0.000000 0.000000 
#    y 0.000000 1.698180 0.000000 
#    z 0.000000 0.000000 1.666410 
# 
# From -- ./inp_files/5219.got.cif
#   From: 2010.03.12/outbox.cif.g09.slc.cpg/sg124_3_cif.got.tgz:5219.got - 2010.04.06 16:38:57.
