data_PCOD8313052
_publ_section_title
;
Structure prediction by ZEFSAII (Michael W. Deem and Ramdas Pophale) SiO2 
 PCOD8313052
Probable space group: P 4/M M M
;
_chemical_formula_sum "Si O2"
_cell_formula_units_Z 112
_cell_length_a 14.102762
_cell_length_b 14.102762
_cell_length_c 34.449430
_cell_angle_alpha 90.000000
_cell_angle_beta 90.000000
_cell_angle_gamma 90.000000
_cell_volume 6851.574652
_symmetry_space_group_name_H-M "P 4/M M M"
_symmetry_group_IT_number 123
_symmetry_cell_setting 'tetragonal'
loop_
_space_group_symop_operation_xyz
x,y,z
-y,x,z
-x,-y,z
y,-x,z
x,-y,-z
-x,y,-z
y,x,-z
-y,-x,-z
-x,-y,-z
y,-x,-z
x,y,-z
-y,x,-z
-x,y,z
x,-y,z
-y,-x,z
y,x,z
loop_
_atom_site_type_symbol
_atom_site_label
_atom_site_fract_x
_atom_site_fract_y
_atom_site_fract_z
Si Si1 0.260854 0.108341 0.179431
Si Si2 0.736152 0.890616 0.268104
Si Si3 0.891064 0.262255 0.043739
Si Si4 0.604678 0.112490 0.888097
Si Si5 0.238324 0.391578 0.592446
Si Si6 0.391423 0.761895 0.317238
Si Si7 0.108450 0.261723 0.454859
O O1 0.164850 0.164850 0.171607
O O2 0.296267 0.120888 0.223504
O O3 0.342388 0.147035 0.150872
O O4 0.236111 0.000000 0.169912
O O5 0.833045 0.833045 0.276415
O O6 0.650565 0.851070 0.294038
O O7 0.755182 0.000000 0.278813
O O8 0.834695 0.165306 0.050113
O O9 0.852052 0.341220 0.073375
O O10 0.000000 0.237721 0.052558
O O11 0.877768 0.301666 0.000000
O O12 0.500000 0.158195 0.888167
O O13 0.596966 0.000000 0.888435
O O14 0.255794 0.500000 0.580122
O O15 0.333705 0.333705 0.582166
O O16 0.213159 0.382831 0.637592
O O17 0.149412 0.350558 0.568820
O O18 0.500000 0.745045 0.304884
O O19 0.333649 0.666352 0.306988
O O20 0.117288 0.287029 0.500000
O O21 0.166285 0.166285 0.444618
O O22 0.000000 0.244185 0.442583
#
# Coordination Sequence:
#
# PCOD8313052 Si02
#       7
#    16  16  16  16  16  16  16
#     4   9  17  29  45  65  89 116 145 177 213 254
#     4   9  18  31  46  66  92 121 153 187 222 264
#     4   9  17  28  42  61  85 112 141 174 212 255
#     4   9  17  28  41  58  82 112 144 176 209 246
#     4   9  18  32  49  69  93 120 150 186 228 273
#     4   9  18  32  49  69  92 118 150 189 231 273
#     4   9  18  32  49  69  93 121 153 189 227 266
#
# _framework density 16.346606999999999
#
# number of rings (size 3 to 8) (size 9 to 14) (size 15 to 20)
#    0.000    3.000    0.000    0.429    0.000    3.143 
#    0.000    9.286    0.000    2.571    0.000    6.000 
#    0.000    4.571    0.000    6.286    0.000    0.571 
#
# Total GULP energy -1388735.324553 kJ/mol
# GULP energy per Si atom -12399.422541 kJ/mol
# Density = 1.630940 g / cm^3
# Si number density = 16.346607 Si / 1000 Ang^3
#
#
#
# Elastic Constant Matrix: (Units=GPa)
#
#
# Indices 1 2 3 4 5 6 
#
# 1 111.7801 52.7624 52.9848 0.0000 0.0000 0.0000
# 2 52.7624 111.7801 52.9848 0.0000 0.0000 0.0000
# 3 52.9848 52.9848 67.9847 0.0000 0.0000 0.0000
# 4 0.0000 0.0000 0.0000 25.9890 0.0000 0.0000
# 5 0.0000 0.0000 0.0000 0.0000 25.9890 0.0000
# 6 0.0000 0.0000 0.0000 0.0000 0.0000 11.9759
#
#
#
# Elastic Compliance Matrix: (Units=1/GPa)
#
#
# Indices 1 2 3 4 5 6 
#
# 1 0.014573 -0.002371 -0.009510 0.000000 0.000000 0.000000
# 2 -0.002371 0.014573 -0.009510 0.000000 0.000000 0.000000
# 3 -0.009510 -0.009510 0.029532 0.000000 0.000000 0.000000
# 4 0.000000 0.000000 0.000000 0.038478 0.000000 0.000000
# 5 0.000000 0.000000 0.000000 0.000000 0.038478 0.000000
# 6 0.000000 0.000000 0.000000 0.000000 0.000000 0.083501
#
#
# Mechanical properties :
#
#
# Convention : Reuss Voigt Hill
#
# Bulk Modulus (GPa) = 62.90419 67.66768 65.28593
# Shear Modulus (GPa) = 18.71149 21.64496 20.17822
#
# Velocity S-wave (km/s) = 3.38697 3.64280 3.51721
# Velocity P-wave (km/s) = 7.33897 7.69277 7.51795
#
# Compressibility (1/GPa) = 0.01589719
#
# Stress axis : x y z
#
# Youngs Moduli (GPa) = 68.61977 68.61977 33.86104
#
# Poissons Ratio (x) = 0.16270 0.32201
# Poissons Ratio (y) = 0.16270 0.32201
# Poissons Ratio (z) = 0.65256 0.65256
#
# Static dielectric constant tensor:
#      x y z
#    x 3.059240 0.000000 0.000000 
#    y 0.000000 3.059240 0.000000 
#    z 0.000000 0.000000 3.213890 
# 
# 
# High freq. dielectric constant tensor:
#      x y z
#    x 1.615690 0.000000 0.000000 
#    y 0.000000 1.615690 0.000000 
#    z 0.000000 0.000000 1.636560 
# 
# From -- ./inp_files/8185.got.cif
#   From: 2010.03.12/outbox.cif.g09.slc.cpg/sg123_5_cif.got.tgz:8185.got - 2010.04.06 16:26:55.
