data_PCOD8313825
_publ_section_title
;
Structure prediction by ZEFSAII (Michael W. Deem and Ramdas Pophale) SiO2 
 PCOD8313825
Probable space group: P 4/M B M
;
_chemical_formula_sum "Si O2"
_cell_formula_units_Z 64
_cell_length_a 23.750048
_cell_length_b 23.750048
_cell_length_c 7.818103
_cell_angle_alpha 90.000000
_cell_angle_beta 90.000000
_cell_angle_gamma 90.000000
_cell_volume 4409.916549
_symmetry_space_group_name_H-M "P 4/M B M"
_symmetry_group_IT_number 127
_symmetry_cell_setting 'tetragonal'
loop_
_space_group_symop_operation_xyz
x,y,z
-y,x,z
-x,-y,z
y,-x,z
1/2+x,1/2-y,-z
1/2-x,1/2+y,-z
1/2+y,1/2+x,-z
1/2-y,1/2-x,-z
-x,-y,-z
y,-x,-z
x,y,-z
-y,x,-z
1/2-x,1/2+y,z
1/2+x,1/2-y,z
1/2-y,1/2-x,z
1/2+y,1/2+x,z
loop_
_atom_site_type_symbol
_atom_site_label
_atom_site_fract_x
_atom_site_fract_y
_atom_site_fract_z
Si Si1 0.562316 0.341456 0.000000
Si Si2 0.287560 0.787560 0.303353
Si Si3 0.619187 0.712054 0.687572
Si Si4 0.934924 0.157711 0.000000
Si Si5 0.298585 0.201416 0.808626
Si Si6 0.616393 0.287040 0.689510
O O1 0.498827 0.364279 0.000000
O O2 0.603111 0.395152 0.000000
O O3 0.570741 0.302465 0.832533
O O4 0.271897 0.771897 0.500000
O O5 0.249362 0.749362 0.180902
O O6 0.273640 0.853882 0.271146
O O7 0.590111 0.710866 0.500000
O O8 0.574161 0.696514 0.833051
O O9 0.645749 0.774109 0.716232
O O10 0.668675 0.666865 0.696379
O O11 0.315409 0.184591 0.000000
O O12 0.588116 0.287116 0.500000
#
# Coordination Sequence:
#
# PCOD8313825 Si02
#       6
#     8   8  16   8   8  16
#     4  10  20  30  43  53  73  99 140 184 219 244
#     4   8  14  22  36  60  84 101 117 138 183 248
#     4   9  16  27  41  58  80  99 120 153 196 247
#     4  10  20  32  41  57  69 101 142 182 221 242
#     4  10  14  20  38  63  85  98 113 139 184 246
#     4   8  15  26  40  59  78  97 120 153 196 246
#
# _framework density 14.512746999999999
#
# number of rings (size 3 to 8) (size 9 to 14) (size 15 to 20)
#    0.000    3.000    1.250    2.625    5.250    1.250 
#    0.000    0.000    0.000    0.000    0.000    7.000 
#    0.000    0.000    0.000    0.000    0.000   10.000 
#
# Total GULP energy -792940.106839 kJ/mol
# GULP energy per Si atom -12389.689169 kJ/mol
# Density = 1.447972 g / cm^3
# Si number density = 14.512747 Si / 1000 Ang^3
#
#
#
# Elastic Constant Matrix: (Units=GPa)
#
#
# Indices 1 2 3 4 5 6 
#
# 1 41.2240 37.5426 32.1921 0.0000 0.0000 0.0000
# 2 37.5426 41.2240 32.1922 0.0000 0.0000 0.0000
# 3 32.1921 32.1922 121.4580 0.0000 0.0000 0.0000
# 4 0.0000 0.0000 0.0000 10.9835 0.0000 0.0000
# 5 0.0000 0.0000 0.0000 0.0000 10.9836 0.0000
# 6 0.0000 0.0000 0.0000 0.0000 0.0000 10.1989
#
#
#
# Elastic Compliance Matrix: (Units=1/GPa)
#
#
# Indices 1 2 3 4 5 6 
#
# 1 0.143920 -0.127713 -0.004295 0.000000 0.000000 0.000000
# 2 -0.127713 0.143920 -0.004296 0.000000 0.000000 0.000000
# 3 -0.004295 -0.004296 0.010510 0.000000 0.000000 0.000000
# 4 0.000000 0.000000 0.000000 0.091045 0.000000 0.000000
# 5 0.000000 0.000000 0.000000 0.000000 0.091045 0.000000
# 6 0.000000 0.000000 0.000000 0.000000 0.000000 0.098050
#
#
# Mechanical properties :
#
#
# Convention : Reuss Voigt Hill
#
# Bulk Modulus (GPa) = 38.84717 45.30663 42.07690
# Shear Modulus (GPa) = 5.81613 13.23183 9.52398
#
# Velocity S-wave (km/s) = 2.00407 3.02278 2.56452
# Velocity P-wave (km/s) = 5.67281 6.59312 6.15020
#
# Compressibility (1/GPa) = 0.02574190
#
# Stress axis : x y z
#
# Youngs Moduli (GPa) = 6.94833 6.94831 95.14397
#
# Poissons Ratio (x) = 0.88739 0.40869
# Poissons Ratio (y) = 0.88739 0.40872
# Poissons Ratio (z) = 0.02985 0.02985
#
# Static dielectric constant tensor:
#      x y z
#    x 2.516560 0.000000 0.000000 
#    y 0.000000 2.516560 0.000000 
#    z 0.000000 0.000000 3.164870 
# 
# 
# High freq. dielectric constant tensor:
#      x y z
#    x 1.506350 0.000000 0.000000 
#    y 0.000000 1.506350 0.000000 
#    z 0.000000 0.000000 1.578660 
# 
# From -- ./inp_files/1476.got.cif
#   From: 2010.03.12/outbox.cif.g09.slc.cpg/sg127_1_cif.got.tgz:1476.got - 2010.04.06 17:03:15.
