data_PCOD8313651
_publ_section_title
;
Structure prediction by ZEFSAII (Michael W. Deem and Ramdas Pophale) SiO2 
 PCOD8313651
Probable space group: P 4/N N C
;
_chemical_formula_sum "Si O2"
_cell_formula_units_Z 80
_cell_length_a 30.705279
_cell_length_b 30.705279
_cell_length_c 5.294521
_cell_angle_alpha 90.000000
_cell_angle_beta 90.000000
_cell_angle_gamma 90.000000
_cell_volume 4991.749361
_symmetry_space_group_name_H-M "P 4/N N C"
_symmetry_group_IT_number 126
_space_group.IT_coordinate_system_code '2'
_symmetry_cell_setting 'tetragonal'
loop_
_space_group_symop_operation_xyz
x,y,z
1/2-y,x,z
1/2-x,1/2-y,z
y,1/2-x,z
x,1/2-y,1/2-z
1/2-x,y,1/2-z
y,x,1/2-z
1/2-y,1/2-x,1/2-z
-x,-y,-z
1/2+y,-x,-z
1/2+x,1/2+y,-z
-y,1/2+x,-z
-x,1/2+y,1/2+z
1/2+x,-y,1/2+z
-y,-x,1/2+z
1/2+y,1/2+x,1/2+z
loop_
_atom_site_type_symbol
_atom_site_label
_atom_site_fract_x
_atom_site_fract_y
_atom_site_fract_z
Si Si1 0.699684 0.925033 0.750001
Si Si2 0.996993 0.571617 0.250003
Si Si3 0.129014 0.199934 0.749999
Si Si4 0.898499 0.417271 0.749998
Si Si5 0.989495 0.622645 0.750002
O O1 0.750000 0.940083 0.750000
O O2 0.688311 0.897885 0.500370
O O3 0.669621 0.967367 0.749999
O O4 0.688311 0.897885 0.999634
O O5 0.977394 0.522607 0.250000
O O6 0.978003 0.596180 0.496263
O O7 0.049664 0.568820 0.250005
O O8 0.978003 0.596181 0.003743
O O9 0.142950 0.250000 0.750000
O O10 0.173290 0.173290 0.750000
O O11 0.888865 0.388865 0.499997
O O12 0.867588 0.458903 0.750001
#
# Coordination Sequence:
#
# PCOD8313651 Si02
#       5
#    16  16  16  16  16
#     4  10  21  35  48  64  85 104 127 163 200 235
#     4  10  19  28  39  59  84 105 128 158 187 220
#     4  10  21  36  51  65  80  96 118 155 202 251
#     4   8  16  27  38  54  78 104 129 154 180 211
#     4  10  19  29  42  57  76 106 132 150 185 227
#
# _framework density 16.026447000000001
#
# number of rings (size 3 to 8) (size 9 to 14) (size 15 to 20)
#    0.000    2.400    0.000    2.400    0.000   12.200 
#    0.000    0.000    0.000    3.600    0.000    0.000 
#    0.000    0.000    0.000    0.000    0.000    0.000 
#
# Total GULP energy -991362.133677 kJ/mol
# GULP energy per Si atom -12392.026671 kJ/mol
# Density = 1.598997 g / cm^3
# Si number density = 16.026447 Si / 1000 Ang^3
#
#
#
# Elastic Constant Matrix: (Units=GPa)
#
#
# Indices 1 2 3 4 5 6 
#
# 1 57.3124 44.5003 27.2612 0.0000 0.0000 0.0000
# 2 44.5003 57.3137 27.2616 0.0000 0.0000 0.0000
# 3 27.2612 27.2616 165.4791 0.0000 0.0000 0.0000
# 4 0.0000 0.0000 0.0000 30.7223 0.0000 0.0000
# 5 0.0000 0.0000 0.0000 0.0000 30.7209 0.0000
# 6 0.0000 0.0000 0.0000 0.0000 0.0000 29.6702
#
#
#
# Elastic Compliance Matrix: (Units=1/GPa)
#
#
# Indices 1 2 3 4 5 6 
#
# 1 0.044410 -0.033637 -0.001775 0.000000 0.000000 0.000000
# 2 -0.033637 0.044409 -0.001775 0.000000 0.000000 0.000000
# 3 -0.001775 -0.001775 0.006628 0.000000 0.000000 0.000000
# 4 0.000000 0.000000 0.000000 0.032550 0.000000 0.000000
# 5 0.000000 0.000000 0.000000 0.000000 0.032551 0.000000
# 6 0.000000 0.000000 0.000000 0.000000 0.000000 0.033704
#
#
# Mechanical properties :
#
#
# Convention : Reuss Voigt Hill
#
# Bulk Modulus (GPa) = 47.45253 53.12793 50.29023
# Shear Modulus (GPa) = 18.13895 30.29482 24.21689
#
# Velocity S-wave (km/s) = 3.36789 4.35248 3.89145
# Velocity P-wave (km/s) = 6.69304 7.64728 7.18602
#
# Compressibility (1/GPa) = 0.02107369
#
# Stress axis : x y z
#
# Youngs Moduli (GPa) = 22.51735 22.51786 150.88013
#
# Poissons Ratio (x) = 0.75744 0.26776
# Poissons Ratio (y) = 0.75743 0.26776
# Poissons Ratio (z) = 0.03996 0.03996
#
# Static dielectric constant tensor:
#      x y z
#    x 2.678420 0.000000 0.000000 
#    y 0.000000 2.678420 0.000000 
#    z 0.000000 0.000000 4.588940 
# 
# 
# High freq. dielectric constant tensor:
#      x y z
#    x 1.573090 0.000000 0.000000 
#    y 0.000000 1.573090 0.000000 
#    z 0.000000 0.000000 1.660960 
# 
# From -- ./inp_files/593.got.cif
#   From: 2010.03.12/outbox.cif.g09.slc.cpg/sg126_1_cif.got.tgz:593.got - 2010.04.06 16:55:23.
