data_PCOD8313577
_publ_section_title
;
Structure prediction by ZEFSAII (Michael W. Deem and Ramdas Pophale) SiO2 
 PCOD8313577
Probable space group: P 4/N B M
;
_chemical_formula_sum "Si O2"
_cell_formula_units_Z 88
_cell_length_a 14.501254
_cell_length_b 14.501254
_cell_length_c 22.576676
_cell_angle_alpha 90.000000
_cell_angle_beta 90.000000
_cell_angle_gamma 90.000000
_cell_volume 4747.567188
_symmetry_space_group_name_H-M "P 4/N B M"
_symmetry_group_IT_number 125
_space_group.IT_coordinate_system_code '2'
_symmetry_cell_setting 'tetragonal'
loop_
_space_group_symop_operation_xyz
x,y,z
1/2-y,x,z
1/2-x,1/2-y,z
y,1/2-x,z
x,1/2-y,-z
1/2-x,y,-z
y,x,-z
1/2-y,1/2-x,-z
-x,-y,-z
1/2+y,-x,-z
1/2+x,1/2+y,-z
-y,1/2+x,-z
-x,1/2+y,z
1/2+x,-y,z
-y,-x,z
1/2+y,1/2+x,z
loop_
_atom_site_type_symbol
_atom_site_label
_atom_site_fract_x
_atom_site_fract_y
_atom_site_fract_z
Si Si1 0.743866 0.103127 0.567228
Si Si2 0.623802 0.832608 0.727861
Si Si3 0.856474 0.856474 0.500000
Si Si4 0.646973 0.993919 0.027348
Si Si5 0.681665 0.886151 0.139810
Si Si6 0.377222 0.471445 0.387850
O O1 0.750000 0.067682 0.500000
O O2 0.812096 0.187905 0.576331
O O3 0.640312 0.140312 0.582903
O O4 0.774641 0.016595 0.606981
O O5 0.625459 0.724011 0.718415
O O6 0.583058 0.846861 0.793806
O O7 0.564175 0.884888 0.678923
O O8 0.750000 0.878858 0.500000
O O9 0.898006 0.896169 0.561252
O O10 0.651975 0.969255 0.096886
O O11 0.588813 0.088813 0.018398
O O12 0.750000 0.005464 0.000000
O O13 0.593526 0.906475 0.000000
O O14 0.628898 0.790227 0.128693
O O15 0.451707 0.548294 0.399335
#
# Coordination Sequence:
#
# PCOD8313577 Si02
#       6
#    16  16   8  16  16  16
#     4   8  15  29  48  69  94 124 159 205 260 318
#     4   9  19  36  55  75 104 143 184 224 275 329
#     4  11  23  38  54  70  95 133 174 224 286 343
#     4  11  22  35  58  92 126 159 197 244 295 350
#     4   9  17  33  59  84 108 145 194 246 287 327
#     4  11  21  33  52  77 104 133 173 223 276 337
#
# _framework density 18.535810000000001
#
# number of rings (size 3 to 8) (size 9 to 14) (size 15 to 20)
#    0.000    2.273    1.818    3.545    0.000    2.545 
#    0.000    5.455    0.000    2.182    0.000    2.545 
#    0.000    0.000    0.000    0.000    0.000    0.000 
#
# Total GULP energy -1090293.430899 kJ/mol
# GULP energy per Si atom -12389.698078 kJ/mol
# Density = 1.849362 g / cm^3
# Si number density = 18.535810 Si / 1000 Ang^3
#
#
#
# Elastic Constant Matrix: (Units=GPa)
#
#
# Indices 1 2 3 4 5 6 
#
# 1 79.4750 40.9065 45.7740 0.0000 0.0000 0.0000
# 2 40.9065 79.4755 45.7743 0.0000 0.0000 0.0000
# 3 45.7740 45.7743 132.6548 0.0000 0.0000 0.0000
# 4 0.0000 0.0000 0.0000 2.9157 0.0000 0.0000
# 5 0.0000 0.0000 0.0000 0.0000 2.9148 0.0000
# 6 0.0000 0.0000 0.0000 0.0000 0.0000 14.1444
#
#
#
# Elastic Compliance Matrix: (Units=1/GPa)
#
#
# Indices 1 2 3 4 5 6 
#
# 1 0.018595 -0.007333 -0.003886 0.000000 0.000000 0.000000
# 2 -0.007333 0.018595 -0.003886 0.000000 0.000000 0.000000
# 3 -0.003886 -0.003886 0.010220 0.000000 0.000000 0.000000
# 4 0.000000 0.000000 0.000000 0.342973 0.000000 0.000000
# 5 0.000000 0.000000 0.000000 0.000000 0.343072 0.000000
# 6 0.000000 0.000000 0.000000 0.000000 0.000000 0.070699
#
#
# Mechanical properties :
#
#
# Convention : Reuss Voigt Hill
#
# Bulk Modulus (GPa) = 58.13908 61.83500 59.98704
# Shear Modulus (GPa) = 5.95169 14.60502 10.27835
#
# Velocity S-wave (km/s) = 1.79385 2.81006 2.35737
# Velocity P-wave (km/s) = 5.97699 6.63029 6.31210
#
# Compressibility (1/GPa) = 0.01720013
#
# Stress axis : x y z
#
# Youngs Moduli (GPa) = 53.77773 53.77799 97.84435
#
# Poissons Ratio (x) = 0.39434 0.38024
# Poissons Ratio (y) = 0.39434 0.38024
# Poissons Ratio (z) = 0.20899 0.20899
#
# Static dielectric constant tensor:
#      x y z
#    x 3.633540 0.000000 0.000000 
#    y 0.000000 3.633540 0.000000 
#    z 0.000000 0.000000 3.403850 
# 
# 
# High freq. dielectric constant tensor:
#      x y z
#    x 1.710930 0.000000 0.000000 
#    y 0.000000 1.710930 0.000000 
#    z 0.000000 0.000000 1.711930 
# 
# From -- ./inp_files/5853.got.cif
#   From: 2010.03.12/outbox.cif.g09.slc.cpg/sg125_3_cif.got.tgz:5853.got - 2010.04.06 16:47:52.
