data_PCOD8313838
_publ_section_title
;
Structure prediction by ZEFSAII (Michael W. Deem and Ramdas Pophale) SiO2 
 PCOD8313838
Probable space group: P 4/M B M
;
_chemical_formula_sum "Si O2"
_cell_formula_units_Z 64
_cell_length_a 17.487250
_cell_length_b 17.487250
_cell_length_c 11.857592
_cell_angle_alpha 90.000000
_cell_angle_beta 90.000000
_cell_angle_gamma 90.000000
_cell_volume 3626.098027
_symmetry_space_group_name_H-M "P 4/M B M"
_symmetry_group_IT_number 127
_symmetry_cell_setting 'tetragonal'
loop_
_space_group_symop_operation_xyz
x,y,z
-y,x,z
-x,-y,z
y,-x,z
1/2+x,1/2-y,-z
1/2-x,1/2+y,-z
1/2+y,1/2+x,-z
1/2-y,1/2-x,-z
-x,-y,-z
y,-x,-z
x,y,-z
-y,x,-z
1/2-x,1/2+y,z
1/2+x,1/2-y,z
1/2-y,1/2-x,z
1/2+y,1/2+x,z
loop_
_atom_site_type_symbol
_atom_site_label
_atom_site_fract_x
_atom_site_fract_y
_atom_site_fract_z
Si Si1 0.073033 0.699466 0.367694
Si Si2 0.180552 0.800000 0.245251
Si Si3 0.469406 0.730402 0.000000
Si Si4 0.361923 0.320977 0.000000
Si Si5 0.795078 0.575499 0.230521
O O1 0.066903 0.711589 0.500000
O O2 0.128394 0.628394 0.336590
O O3 0.102731 0.779691 0.312507
O O4 0.988967 0.681700 0.320080
O O5 0.243054 0.743054 0.296245
O O6 0.213311 0.885599 0.265521
O O7 0.171209 0.781936 0.112306
O O8 0.547690 0.684701 0.000000
O O9 0.409061 0.661967 0.000000
O O10 0.461976 0.786004 0.107568
O O11 0.861289 0.638712 0.225419
#
# Coordination Sequence:
#
# PCOD8313838 Si02
#       5
#    16  16   8   8  16
#     4  10  21  36  54  77 105 139 180 220 257 305
#     4   9  18  33  54  77 101 135 177 216 255 307
#     4  10  19  32  53  81 106 135 171 212 261 319
#     4  10  17  30  53  78 105 132 166 213 265 313
#     4  10  20  35  55  79 107 138 173 216 264 313
#
# _framework density 17.649826999999998
#
# number of rings (size 3 to 8) (size 9 to 14) (size 15 to 20)
#    0.000    2.250    2.500    0.750    0.000    5.250 
#    0.000    4.375    0.000    2.250    0.000    1.750 
#    0.000    0.000    0.000    0.000    0.000    0.000 
#
# Total GULP energy -793213.396773 kJ/mol
# GULP energy per Si atom -12393.959325 kJ/mol
# Density = 1.760965 g / cm^3
# Si number density = 17.649827 Si / 1000 Ang^3
#
#
#
# Elastic Constant Matrix: (Units=GPa)
#
#
# Indices 1 2 3 4 5 6 
#
# 1 79.9719 41.2054 42.3800 0.0000 0.0000 0.0000
# 2 41.2054 79.9719 42.3800 0.0000 0.0000 0.0000
# 3 42.3800 42.3800 101.7454 0.0000 0.0000 0.0000
# 4 0.0000 0.0000 0.0000 27.3075 0.0000 0.0000
# 5 0.0000 0.0000 0.0000 0.0000 27.3075 0.0000
# 6 0.0000 0.0000 0.0000 0.0000 0.0000 18.4155
#
#
#
# Elastic Compliance Matrix: (Units=1/GPa)
#
#
# Indices 1 2 3 4 5 6 
#
# 1 0.018720 -0.007075 -0.004851 0.000000 0.000000 0.000000
# 2 -0.007075 0.018720 -0.004851 0.000000 0.000000 0.000000
# 3 -0.004851 -0.004851 0.013869 0.000000 0.000000 0.000000
# 4 0.000000 0.000000 0.000000 0.036620 0.000000 0.000000
# 5 0.000000 0.000000 0.000000 0.000000 0.036620 0.000000
# 6 0.000000 0.000000 0.000000 0.000000 0.000000 0.054302
#
#
# Mechanical properties :
#
#
# Convention : Reuss Voigt Hill
#
# Bulk Modulus (GPa) = 56.31461 57.06889 56.69175
# Shear Modulus (GPa) = 22.90178 23.65435 23.27806
#
# Velocity S-wave (km/s) = 3.60608 3.66485 3.63558
# Velocity P-wave (km/s) = 7.02241 7.09312 7.05785
#
# Compressibility (1/GPa) = 0.01775738
#
# Stress axis : x y z
#
# Youngs Moduli (GPa) = 53.41788 53.41788 72.10185
#
# Poissons Ratio (x) = 0.37794 0.34974
# Poissons Ratio (y) = 0.37794 0.34974
# Poissons Ratio (z) = 0.25911 0.25911
#
# Static dielectric constant tensor:
#      x y z
#    x 3.235460 0.000000 0.000000 
#    y 0.000000 3.235460 0.000000 
#    z 0.000000 0.000000 3.279710 
# 
# 
# High freq. dielectric constant tensor:
#      x y z
#    x 1.673030 0.000000 0.000000 
#    y 0.000000 1.673030 0.000000 
#    z 0.000000 0.000000 1.683590 
# 
# From -- ./inp_files/3077.got.cif
#   From: 2010.03.12/outbox.cif.g09.slc.cpg/sg127_2_cif.got.tgz:3077.got - 2010.04.06 17:03:15.
