data_PCOD8313278
_publ_section_title
;
Structure prediction by ZEFSAII (Michael W. Deem and Ramdas Pophale) SiO2 
 PCOD8313278
Probable space group: P 4/M C C
;
_chemical_formula_sum "Si O2"
_cell_formula_units_Z 112
_cell_length_a 14.896726
_cell_length_b 14.896726
_cell_length_c 25.146674
_cell_angle_alpha 90.000000
_cell_angle_beta 90.000000
_cell_angle_gamma 90.000000
_cell_volume 5580.359924
_symmetry_space_group_name_H-M "P 4/M C C"
_symmetry_group_IT_number 124
_symmetry_cell_setting 'tetragonal'
loop_
_space_group_symop_operation_xyz
x,y,z
-y,x,z
-x,-y,z
y,-x,z
x,-y,1/2-z
-x,y,1/2-z
y,x,1/2-z
-y,-x,1/2-z
-x,-y,-z
y,-x,-z
x,y,-z
-y,x,-z
-x,y,1/2+z
x,-y,1/2+z
-y,-x,1/2+z
y,x,1/2+z
loop_
_atom_site_type_symbol
_atom_site_label
_atom_site_fract_x
_atom_site_fract_y
_atom_site_fract_z
Si Si1 0.917599 0.690433 0.939771
Si Si2 0.200873 0.836680 0.310914
Si Si3 0.607878 0.400243 0.559145
Si Si4 0.640714 0.036859 0.345498
Si Si5 0.530797 0.127377 0.190015
Si Si6 0.655610 0.757915 0.368245
Si Si7 0.924949 0.123993 0.400212
O O1 0.832743 0.641064 0.914076
O O2 0.891998 0.796529 0.938577
O O3 0.007074 0.668458 0.905339
O O4 0.933069 0.657892 0.000000
O O5 0.179343 0.820658 0.250000
O O6 0.272315 0.917631 0.318217
O O7 0.243075 0.748707 0.337135
O O8 0.104504 0.854758 0.339319
O O9 0.624817 0.505144 0.566882
O O10 0.639531 0.371179 0.500000
O O11 0.661409 0.348521 0.604627
O O12 0.555013 0.103571 0.347075
O O13 0.609556 0.948331 0.312761
O O14 0.500000 0.135919 0.250000
O O15 0.573781 0.222432 0.172607
O O16 0.030177 0.121138 0.412407
#
# Coordination Sequence:
#
# PCOD8313278 Si02
#       7
#    16  16  16  16  16  16  16
#     4  10  21  39  60  85 119 154 195 252 299 349
#     4  11  23  38  60  86 120 155 195 252 297 347
#     4   9  19  38  64  90 117 155 195 236 295 360
#     4  10  20  38  58  86 117 149 201 244 294 357
#     4  10  21  38  64  88 116 160 198 242 300 363
#     4  10  22  38  60  91 121 151 196 250 294 359
#     4  10  21  39  56  81 115 152 204 242 286 350
#
# _framework density 20.07039
#
# number of rings (size 3 to 8) (size 9 to 14) (size 15 to 20)
#    0.000    2.000    1.429    2.571    2.000    3.429 
#    0.000    8.571    0.000    0.000    0.000    0.000 
#    0.000    0.000    0.000    0.000    0.000    0.000 
#
# Total GULP energy -1388124.112197 kJ/mol
# GULP energy per Si atom -12393.965287 kJ/mol
# Density = 2.002471 g / cm^3
# Si number density = 20.070390 Si / 1000 Ang^3
#
#
#
# Elastic Constant Matrix: (Units=GPa)
#
#
# Indices 1 2 3 4 5 6 
#
# 1 51.0259 1.4699 16.6387 0.0000 0.0000 0.0000
# 2 1.4699 51.0257 16.6385 0.0000 0.0000 0.0000
# 3 16.6387 16.6385 112.8990 0.0000 0.0000 0.0000
# 4 0.0000 0.0000 0.0000 26.4243 0.0000 0.0000
# 5 0.0000 0.0000 0.0000 0.0000 26.4242 0.0000
# 6 0.0000 0.0000 0.0000 0.0000 0.0000 26.9419
#
#
#
# Elastic Compliance Matrix: (Units=1/GPa)
#
#
# Indices 1 2 3 4 5 6 
#
# 1 0.020596 0.000416 -0.003097 0.000000 0.000000 0.000000
# 2 0.000416 0.020596 -0.003097 0.000000 0.000000 0.000000
# 3 -0.003097 -0.003097 0.009770 0.000000 0.000000 0.000000
# 4 0.000000 0.000000 0.000000 0.037844 0.000000 0.000000
# 5 0.000000 0.000000 0.000000 0.000000 0.037844 0.000000
# 6 0.000000 0.000000 0.000000 0.000000 0.000000 0.037117
#
#
# Mechanical properties :
#
#
# Convention : Reuss Voigt Hill
#
# Bulk Modulus (GPa) = 25.37563 31.60495 28.49029
# Shear Modulus (GPa) = 26.53134 27.97165 27.25149
#
# Velocity S-wave (km/s) = 3.63976 3.73725 3.68883
# Velocity P-wave (km/s) = 5.50768 5.86549 5.68940
#
# Compressibility (1/GPa) = 0.03940788
#
# Stress axis : x y z
#
# Youngs Moduli (GPa) = 48.55385 48.55370 102.35173
#
# Poissons Ratio (x) = -0.02022 0.31695
# Poissons Ratio (y) = -0.02022 0.31695
# Poissons Ratio (z) = 0.15036 0.15036
#
# Static dielectric constant tensor:
#      x y z
#    x 3.722680 0.000000 0.000000 
#    y 0.000000 3.722680 0.000000 
#    z 0.000000 0.000000 3.520070 
# 
# 
# High freq. dielectric constant tensor:
#      x y z
#    x 1.780170 0.000000 0.000000 
#    y 0.000000 1.780170 0.000000 
#    z 0.000000 0.000000 1.770190 
# 
# From -- ./inp_files/6610.got.cif
#   From: 2010.03.12/outbox.cif.g09.slc.cpg/sg124_4_cif.got.tgz:6610.got - 2010.04.06 16:38:57.
