data_PCOD8313408
_publ_section_title
;
Structure prediction by ZEFSAII (Michael W. Deem and Ramdas Pophale) SiO2 
 PCOD8313408
Probable space group: P 4/N B M
;
_chemical_formula_sum "Si O2"
_cell_formula_units_Z 72
_cell_length_a 17.472883
_cell_length_b 17.472883
_cell_length_c 13.160842
_cell_angle_alpha 90.000000
_cell_angle_beta 90.000000
_cell_angle_gamma 90.000000
_cell_volume 4018.026651
_symmetry_space_group_name_H-M "P 4/N B M"
_symmetry_group_IT_number 125
_space_group.IT_coordinate_system_code '2'
_symmetry_cell_setting 'tetragonal'
loop_
_space_group_symop_operation_xyz
x,y,z
1/2-y,x,z
1/2-x,1/2-y,z
y,1/2-x,z
x,1/2-y,-z
1/2-x,y,-z
y,x,-z
1/2-y,1/2-x,-z
-x,-y,-z
1/2+y,-x,-z
1/2+x,1/2+y,-z
-y,1/2+x,-z
-x,1/2+y,z
1/2+x,-y,z
-y,-x,z
1/2+y,1/2+x,z
loop_
_atom_site_type_symbol
_atom_site_label
_atom_site_fract_x
_atom_site_fract_y
_atom_site_fract_z
Si Si1 0.339662 0.160339 0.500000
Si Si2 0.250000 0.980235 0.000000
Si Si3 0.925814 0.425814 0.797287
Si Si4 0.593563 0.406438 0.973667
Si Si5 0.541848 0.693713 0.795817
Si Si6 0.649338 0.923507 0.296399
Si Si7 0.455728 0.955728 0.760618
O O1 0.356660 0.250000 0.500000
O O2 0.372740 0.116785 0.597845
O O3 0.316436 0.923159 0.963261
O O4 0.225497 0.037606 0.909966
O O5 0.839776 0.455532 0.767944
O O6 0.981050 0.481050 0.735786
O O7 0.937037 0.437037 0.918637
O O8 0.551831 0.448170 0.881419
O O9 0.605032 0.625544 0.790902
O O10 0.572015 0.759773 0.720725
O O11 0.621503 0.012330 0.292043
#
# Coordination Sequence:
#
# PCOD8313408 Si02
#       7
#     8   8   8   8  16  16   8
#     4  11  22  37  58  80 110 149 182 229 292 352
#     4  10  20  33  52  79 114 152 192 228 282 336
#     4   8  19  32  50  76 108 151 188 219 276 343
#     4  10  17  31  51  75 108 153 190 232 278 328
#     4  10  20  34  53  82 112 149 187 231 280 346
#     4  11  21  36  58  81 111 146 189 234 290 344
#     4  10  19  33  55  79 110 142 186 237 281 330
#
# _framework density 17.919243999999999
#
# number of rings (size 3 to 8) (size 9 to 14) (size 15 to 20)
#    0.000    1.889    4.444    0.333    0.000    2.000 
#    0.000    0.000    0.000    2.000    0.000    0.000 
#    0.000    0.000    0.000    0.000    0.000    0.000 
#
# Total GULP energy -891962.870798 kJ/mol
# GULP energy per Si atom -12388.373206 kJ/mol
# Density = 1.787846 g / cm^3
# Si number density = 17.919244 Si / 1000 Ang^3
#
#
#
# Elastic Constant Matrix: (Units=GPa)
#
#
# Indices 1 2 3 4 5 6 
#
# 1 76.7147 48.7393 30.3286 0.0000 0.0000 0.0000
# 2 48.7393 76.7155 30.3285 0.0000 0.0000 0.0000
# 3 30.3286 30.3285 81.5533 0.0000 0.0000 0.0000
# 4 0.0000 0.0000 0.0000 21.4211 0.0000 0.0000
# 5 0.0000 0.0000 0.0000 0.0000 21.4209 0.0000
# 6 0.0000 0.0000 0.0000 0.0000 0.0000 34.2989
#
#
#
# Elastic Compliance Matrix: (Units=1/GPa)
#
#
# Indices 1 2 3 4 5 6 
#
# 1 0.022732 -0.013013 -0.003614 0.000000 0.000000 0.000000
# 2 -0.013013 0.022732 -0.003614 0.000000 0.000000 0.000000
# 3 -0.003614 -0.003614 0.014950 0.000000 0.000000 0.000000
# 4 0.000000 0.000000 0.000000 0.046683 0.000000 0.000000
# 5 0.000000 0.000000 0.000000 0.000000 0.046683 0.000000
# 6 0.000000 0.000000 0.000000 0.000000 0.000000 0.029155
#
#
# Mechanical properties :
#
#
# Convention : Reuss Voigt Hill
#
# Bulk Modulus (GPa) = 50.17483 50.41961 50.29722
# Shear Modulus (GPa) = 21.73325 23.80066 22.76696
#
# Velocity S-wave (km/s) = 3.48637 3.64843 3.56832
# Velocity P-wave (km/s) = 6.65340 6.77836 6.71617
#
# Compressibility (1/GPa) = 0.01993031
#
# Stress axis : x y z
#
# Youngs Moduli (GPa) = 43.99091 43.99150 66.88943
#
# Poissons Ratio (x) = 0.57248 0.24175
# Poissons Ratio (y) = 0.57247 0.24174
# Poissons Ratio (z) = 0.15899 0.15899
#
# Static dielectric constant tensor:
#      x y z
#    x 3.425580 0.000000 0.000000 
#    y 0.000000 3.425570 0.000000 
#    z 0.000000 0.000000 3.117010 
# 
# 
# High freq. dielectric constant tensor:
#      x y z
#    x 1.689120 0.000000 0.000000 
#    y 0.000000 1.689120 0.000000 
#    z 0.000000 0.000000 1.671670 
# 
# From -- ./inp_files/3901.got.cif
#   From: 2010.03.12/outbox.cif.g09.slc.cpg/sg125_2_cif.got.tgz:3901.got - 2010.04.06 16:47:52.
