data_PCOD8313941
_publ_section_title
;
Structure prediction by ZEFSAII (Michael W. Deem and Ramdas Pophale) SiO2 
 PCOD8313941
Probable space group: P 4/M B M
;
_chemical_formula_sum "Si O2"
_cell_formula_units_Z 104
_cell_length_a 16.399764
_cell_length_b 16.399764
_cell_length_c 23.229581
_cell_angle_alpha 90.000000
_cell_angle_beta 90.000000
_cell_angle_gamma 90.000000
_cell_volume 6247.648292
_symmetry_space_group_name_H-M "P 4/M B M"
_symmetry_group_IT_number 127
_symmetry_cell_setting 'tetragonal'
loop_
_space_group_symop_operation_xyz
x,y,z
-y,x,z
-x,-y,z
y,-x,z
1/2+x,1/2-y,-z
1/2-x,1/2+y,-z
1/2+y,1/2+x,-z
1/2-y,1/2-x,-z
-x,-y,-z
y,-x,-z
x,y,-z
-y,x,-z
1/2-x,1/2+y,z
1/2+x,1/2-y,z
1/2-y,1/2-x,z
1/2+y,1/2+x,z
loop_
_atom_site_type_symbol
_atom_site_label
_atom_site_fract_x
_atom_site_fract_y
_atom_site_fract_z
Si Si1 0.926830 0.704285 0.366711
Si Si2 0.169283 0.804830 0.662186
Si Si3 0.129862 0.496438 0.252656
Si Si4 0.285545 0.081618 0.565431
Si Si5 0.071091 0.886866 0.000000
Si Si6 0.572583 0.615126 0.875101
Si Si7 0.618074 0.746161 0.216534
O O1 0.851252 0.648749 0.385376
O O2 0.894911 0.794387 0.349052
O O3 0.974559 0.669757 0.312600
O O4 0.986240 0.703733 0.421517
O O5 0.243027 0.743027 0.668307
O O6 0.113455 0.784700 0.607657
O O7 0.118448 0.798747 0.721437
O O8 0.065307 0.565307 0.268406
O O9 0.198108 0.535862 0.210914
O O10 0.083126 0.416875 0.225260
O O11 0.255825 0.092915 0.500000
O O12 0.370108 0.129893 0.576108
O O13 0.096037 0.847073 0.938593
O O14 0.974943 0.890235 0.000000
O O15 0.474937 0.610557 0.866875
O O16 0.614836 0.675765 0.830599
O O17 0.698593 0.801408 0.206783
#
# Coordination Sequence:
#
# PCOD8313941 Si02
#       7
#    16  16  16  16   8  16  16
#     4  10  19  31  50  71  90 117 153 193 238 282
#     4   9  19  33  47  66  95 126 151 185 236 291
#     4   9  17  30  49  71  97 127 155 188 234 286
#     4  10  20  34  50  67  90 120 152 192 240 287
#     4   7  12  28  49  68  94 129 167 201 238 283
#     4   9  18  31  50  74  99 130 166 204 243 285
#     4  10  19  31  48  73 103 130 161 198 240 288
#
# _framework density 16.646263999999999
#
# number of rings (size 3 to 8) (size 9 to 14) (size 15 to 20)
#    0.000    2.692    1.538    1.385    2.154    1.846 
#    0.000    2.692    0.000    0.462    0.000    2.692 
#    0.000    2.462    0.000    0.000    0.000    0.000 
#
# Total GULP energy -1288551.057462 kJ/mol
# GULP energy per Si atom -12389.914014 kJ/mol
# Density = 1.660838 g / cm^3
# Si number density = 16.646264 Si / 1000 Ang^3
#
#
#
# Elastic Constant Matrix: (Units=GPa)
#
#
# Indices 1 2 3 4 5 6 
#
# 1 57.9319 26.6702 42.5422 0.0000 0.0000 0.0000
# 2 26.6702 57.9319 42.5422 0.0000 0.0000 0.0000
# 3 42.5422 42.5422 119.5372 0.0000 0.0000 0.0000
# 4 0.0000 0.0000 0.0000 21.9970 0.0000 0.0000
# 5 0.0000 0.0000 0.0000 0.0000 21.9970 0.0000
# 6 0.0000 0.0000 0.0000 0.0000 0.0000 15.3758
#
#
#
# Elastic Compliance Matrix: (Units=1/GPa)
#
#
# Indices 1 2 3 4 5 6 
#
# 1 0.025198 -0.006790 -0.006552 0.000000 0.000000 0.000000
# 2 -0.006790 0.025198 -0.006552 0.000000 0.000000 0.000000
# 3 -0.006552 -0.006552 0.013029 0.000000 0.000000 0.000000
# 4 0.000000 0.000000 0.000000 0.045461 0.000000 0.000000
# 5 0.000000 0.000000 0.000000 0.000000 0.045461 0.000000
# 6 0.000000 0.000000 0.000000 0.000000 0.000000 0.065037
#
#
# Mechanical properties :
#
#
# Convention : Reuss Voigt Hill
#
# Bulk Modulus (GPa) = 42.30033 50.99006 46.64519
# Shear Modulus (GPa) = 18.72306 20.11704 19.42005
#
# Velocity S-wave (km/s) = 3.35738 3.48012 3.41930
# Velocity P-wave (km/s) = 6.36363 6.84444 6.60841
#
# Compressibility (1/GPa) = 0.02364048
#
# Stress axis : x y z
#
# Youngs Moduli (GPa) = 39.68491 39.68491 76.75242
#
# Poissons Ratio (x) = 0.26944 0.50285
# Poissons Ratio (y) = 0.26944 0.50285
# Poissons Ratio (z) = 0.26000 0.26000
#
# Static dielectric constant tensor:
#      x y z
#    x 3.154170 0.000000 0.000000 
#    y 0.000000 3.154170 0.000000 
#    z 0.000000 0.000000 3.139840 
# 
# 
# High freq. dielectric constant tensor:
#      x y z
#    x 1.628110 0.000000 0.000000 
#    y 0.000000 1.628110 0.000000 
#    z 0.000000 0.000000 1.627760 
# 
# From -- ./inp_files/6178.got.cif
#   From: 2010.03.12/outbox.cif.g09.slc.cpg/sg127_4_cif.got.tgz:6178.got - 2010.04.06 17:03:15.
