data_PCOD8313025
_publ_section_title
;
Structure prediction by ZEFSAII (Michael W. Deem and Ramdas Pophale) SiO2 
 PCOD8313025
Probable space group: P 4/M M M
;
_chemical_formula_sum "Si O2"
_cell_formula_units_Z 72
_cell_length_a 13.952154
_cell_length_b 13.952154
_cell_length_c 22.367017
_cell_angle_alpha 90.000000
_cell_angle_beta 90.000000
_cell_angle_gamma 90.000000
_cell_volume 4354.021711
_symmetry_space_group_name_H-M "P 4/M M M"
_symmetry_group_IT_number 123
_symmetry_cell_setting 'tetragonal'
loop_
_space_group_symop_operation_xyz
x,y,z
-y,x,z
-x,-y,z
y,-x,z
x,-y,-z
-x,y,-z
y,x,-z
-y,-x,-z
-x,-y,-z
y,-x,-z
x,y,-z
-y,x,-z
-x,y,z
x,-y,z
-y,-x,z
y,x,z
loop_
_atom_site_type_symbol
_atom_site_label
_atom_site_fract_x
_atom_site_fract_y
_atom_site_fract_z
Si Si1 0.392174 0.239664 0.500000
Si Si2 0.387908 0.229438 0.630038
Si Si3 0.890495 0.735506 0.147566
Si Si4 0.390480 0.235448 0.069003
Si Si5 0.109728 0.735192 0.285634
O O1 0.500000 0.273135 0.500000
O O2 0.339305 0.339305 0.500000
O O3 0.369766 0.185159 0.562738
O O4 0.500000 0.251657 0.641193
O O5 0.327457 0.327457 0.639558
O O6 0.353893 0.148572 0.676120
O O7 0.831553 0.831553 0.132369
O O8 0.852890 0.647094 0.108315
O O9 0.878879 0.706415 0.216576
O O10 0.000000 0.756690 0.130784
O O11 0.500000 0.256709 0.085747
O O12 0.331548 0.331548 0.084112
O O13 0.378873 0.206193 0.000000
O O14 0.168533 0.831468 0.300860
O O15 0.000000 0.755782 0.302497
#
# Coordination Sequence:
#
# PCOD8313025 Si02
#       5
#     8  16  16  16  16
#     4   8  14  25  41  61  86 116 148 182 219 258
#     4   9  17  29  45  66  92 120 150 183 219 262
#     4   9  18  32  49  69  92 117 147 184 225 269
#     4   9  18  32  49  69  93 121 153 188 223 259
#     4   9  18  32  49  68  89 115 148 186 227 268
#
# _framework density 16.536435999999998
#
# number of rings (size 3 to 8) (size 9 to 14) (size 15 to 20)
#    0.000    3.111    0.000    0.000    0.000    3.222 
#    0.000    9.444    0.000    2.000    0.000    9.333 
#    0.000    4.444    0.000    0.000    0.000    0.000 
#
# Total GULP energy -892378.984243 kJ/mol
# GULP energy per Si atom -12394.152559 kJ/mol
# Density = 1.649880 g / cm^3
# Si number density = 16.536436 Si / 1000 Ang^3
#
#
#
# Elastic Constant Matrix: (Units=GPa)
#
#
# Indices 1 2 3 4 5 6 
#
# 1 105.2766 45.9233 55.2964 0.0000 0.0000 0.0000
# 2 45.9233 105.2766 55.2964 0.0000 0.0000 0.0000
# 3 55.2964 55.2964 75.9721 0.0000 0.0000 0.0000
# 4 0.0000 0.0000 0.0000 25.2872 0.0000 0.0000
# 5 0.0000 0.0000 0.0000 0.0000 25.2872 0.0000
# 6 0.0000 0.0000 0.0000 0.0000 0.0000 12.6351
#
#
#
# Elastic Compliance Matrix: (Units=1/GPa)
#
#
# Indices 1 2 3 4 5 6 
#
# 1 0.015496 -0.001352 -0.010294 0.000000 0.000000 0.000000
# 2 -0.001352 0.015496 -0.010294 0.000000 0.000000 0.000000
# 3 -0.010294 -0.010294 0.028148 0.000000 0.000000 0.000000
# 4 0.000000 0.000000 0.000000 0.039546 0.000000 0.000000
# 5 0.000000 0.000000 0.000000 0.000000 0.039546 0.000000
# 6 0.000000 0.000000 0.000000 0.000000 0.000000 0.079145
#
#
# Mechanical properties :
#
#
# Convention : Reuss Voigt Hill
#
# Bulk Modulus (GPa) = 65.54038 66.61751 66.07894
# Shear Modulus (GPa) = 18.77277 21.30918 20.04097
#
# Velocity S-wave (km/s) = 3.37298 3.59363 3.48505
# Velocity P-wave (km/s) = 7.40873 7.58892 7.49937
#
# Compressibility (1/GPa) = 0.01525777
#
# Stress axis : x y z
#
# Youngs Moduli (GPa) = 64.53375 64.53375 35.52652
#
# Poissons Ratio (x) = 0.08728 0.36572
# Poissons Ratio (y) = 0.08728 0.36572
# Poissons Ratio (z) = 0.66432 0.66432
#
# Static dielectric constant tensor:
#      x y z
#    x 3.038750 0.000000 0.000000 
#    y 0.000000 3.038750 0.000000 
#    z 0.000000 0.000000 3.383520 
# 
# 
# High freq. dielectric constant tensor:
#      x y z
#    x 1.626080 0.000000 0.000000 
#    y 0.000000 1.626080 0.000000 
#    z 0.000000 0.000000 1.646120 
# 
# From -- ./inp_files/5102.got.cif
#   From: 2010.03.12/outbox.cif.g09.slc.cpg/sg123_3_cif.got.tgz:5102.got - 2010.04.06 16:26:55.
