data_PCOD8313958
_publ_section_title
;
Structure prediction by ZEFSAII (Michael W. Deem and Ramdas Pophale) SiO2 
 PCOD8313958
Probable space group: P 4/M B M
;
_chemical_formula_sum "Si O2"
_cell_formula_units_Z 96
_cell_length_a 14.082528
_cell_length_b 14.082528
_cell_length_c 24.706778
_cell_angle_alpha 90.000000
_cell_angle_beta 90.000000
_cell_angle_gamma 90.000000
_cell_volume 4899.788790
_symmetry_space_group_name_H-M "P 4/M B M"
_symmetry_group_IT_number 127
_symmetry_cell_setting 'tetragonal'
loop_
_space_group_symop_operation_xyz
x,y,z
-y,x,z
-x,-y,z
y,-x,z
1/2+x,1/2-y,-z
1/2-x,1/2+y,-z
1/2+y,1/2+x,-z
1/2-y,1/2-x,-z
-x,-y,-z
y,-x,-z
x,y,-z
-y,x,-z
1/2-x,1/2+y,z
1/2+x,1/2-y,z
1/2-y,1/2-x,z
1/2+y,1/2+x,z
loop_
_atom_site_type_symbol
_atom_site_label
_atom_site_fract_x
_atom_site_fract_y
_atom_site_fract_z
Si Si1 0.718431 0.370601 0.266760
Si Si2 0.361907 0.708699 0.166509
Si Si3 0.743596 0.089589 0.436830
Si Si4 0.886084 0.227689 0.614248
Si Si5 0.850505 0.497739 0.203675
Si Si6 0.389501 0.610194 0.941350
O O1 0.769288 0.269288 0.271421
O O2 0.637593 0.363175 0.218819
O O3 0.678090 0.394379 0.326171
O O4 0.793927 0.453757 0.253691
O O5 0.270060 0.770060 0.176939
O O6 0.457078 0.773316 0.162417
O O7 0.340716 0.658009 0.109905
O O8 0.740515 0.067223 0.500000
O O9 0.651425 0.151425 0.419006
O O10 0.838849 0.149768 0.424775
O O11 0.743745 0.990391 0.405520
O O12 0.824023 0.324023 0.616306
O O13 0.914860 0.414860 0.175066
O O14 0.919155 0.580846 0.226146
O O15 0.368394 0.500033 0.937396
O O16 0.351791 0.648448 0.000000
#
# Coordination Sequence:
#
# PCOD8313958 Si02
#       6
#    16  16  16  16  16  16
#     4   9  19  33  50  77 109 141 177 220 272 324
#     4  10  19  31  52  78 107 140 173 218 269 323
#     4  10  22  40  63  87 113 153 197 237 289 348
#     4  10  22  39  59  86 120 151 189 243 290 341
#     4   9  18  32  51  75 105 142 178 212 265 335
#     4   9  18  33  51  71  98 135 179 222 264 314
#
# _framework density 19.592682
#
# number of rings (size 3 to 8) (size 9 to 14) (size 15 to 20)
#    0.000    2.500    0.000    2.000    2.333    2.667 
#    0.000    3.333    0.000    1.500    0.000    2.333 
#    0.000    0.000    0.000    0.000    0.000    0.000 
#
# Total GULP energy -1189267.750653 kJ/mol
# GULP energy per Si atom -12388.205736 kJ/mol
# Density = 1.954809 g / cm^3
# Si number density = 19.592682 Si / 1000 Ang^3
#
#
#
# Elastic Constant Matrix: (Units=GPa)
#
#
# Indices 1 2 3 4 5 6 
#
# 1 78.5397 31.1431 39.7406 0.0000 0.0000 0.0000
# 2 31.1431 78.5397 39.7406 0.0000 0.0000 0.0000
# 3 39.7406 39.7406 139.2783 0.0000 0.0000 0.0000
# 4 0.0000 0.0000 0.0000 28.9609 0.0000 0.0000
# 5 0.0000 0.0000 0.0000 0.0000 28.9609 0.0000
# 6 0.0000 0.0000 0.0000 0.0000 0.0000 16.3831
#
#
#
# Elastic Compliance Matrix: (Units=1/GPa)
#
#
# Indices 1 2 3 4 5 6 
#
# 1 0.016296 -0.004802 -0.003280 0.000000 0.000000 0.000000
# 2 -0.004802 0.016296 -0.003280 0.000000 0.000000 0.000000
# 3 -0.003280 -0.003280 0.009051 0.000000 0.000000 0.000000
# 4 0.000000 0.000000 0.000000 0.034529 0.000000 0.000000
# 5 0.000000 0.000000 0.000000 0.000000 0.034529 0.000000
# 6 0.000000 0.000000 0.000000 0.000000 0.000000 0.061038
#
#
# Mechanical properties :
#
#
# Convention : Reuss Voigt Hill
#
# Bulk Modulus (GPa) = 52.85226 57.51184 55.18205
# Shear Modulus (GPa) = 24.90405 27.24320 26.07363
#
# Velocity S-wave (km/s) = 3.56910 3.73296 3.65195
# Velocity P-wave (km/s) = 6.63466 6.92802 6.78293
#
# Compressibility (1/GPa) = 0.01892067
#
# Stress axis : x y z
#
# Youngs Moduli (GPa) = 61.36432 61.36432 110.48038
#
# Poissons Ratio (x) = 0.29470 0.36232
# Poissons Ratio (y) = 0.29470 0.36232
# Poissons Ratio (z) = 0.20125 0.20125
#
# Static dielectric constant tensor:
#      x y z
#    x 3.545780 0.000000 0.000000 
#    y 0.000000 3.545780 0.000000 
#    z 0.000000 0.000000 3.714330 
# 
# 
# High freq. dielectric constant tensor:
#      x y z
#    x 1.753120 0.000000 0.000000 
#    y 0.000000 1.753120 0.000000 
#    z 0.000000 0.000000 1.758660 
# 
# From -- ./inp_files/5776.got.cif
#   From: 2010.03.12/outbox.cif.g09.slc.cpg/sg127_3_cif.got.tgz:5776.got - 2010.04.06 17:03:15.
