data_PCOD8313099
_publ_section_title
;
Structure prediction by ZEFSAII (Michael W. Deem and Ramdas Pophale) SiO2 
 PCOD8313099
Probable space group: P 4/M C C
;
_chemical_formula_sum "Si O2"
_cell_formula_units_Z 128
_cell_length_a 16.914386
_cell_length_b 16.914386
_cell_length_c 24.756990
_cell_angle_alpha 90.000000
_cell_angle_beta 90.000000
_cell_angle_gamma 90.000000
_cell_volume 7082.887045
_symmetry_space_group_name_H-M "P 4/M C C"
_symmetry_group_IT_number 124
_symmetry_cell_setting 'tetragonal'
loop_
_space_group_symop_operation_xyz
x,y,z
-y,x,z
-x,-y,z
y,-x,z
x,-y,1/2-z
-x,y,1/2-z
y,x,1/2-z
-y,-x,1/2-z
-x,-y,-z
y,-x,-z
x,y,-z
-y,x,-z
-x,y,1/2+z
x,-y,1/2+z
-y,-x,1/2+z
y,x,1/2+z
loop_
_atom_site_type_symbol
_atom_site_label
_atom_site_fract_x
_atom_site_fract_y
_atom_site_fract_z
Si Si1 0.234005 0.813771 0.560018
Si Si2 0.958447 0.148990 0.802189
Si Si3 0.841138 0.718419 0.257895
Si Si4 0.358121 0.884355 0.641717
Si Si5 0.910947 0.913680 0.590136
Si Si6 0.708583 0.048596 0.839962
Si Si7 0.141335 0.668889 0.560582
Si Si8 0.094282 0.494620 0.561598
O O1 0.268045 0.830184 0.500000
O O2 0.285816 0.856706 0.604384
O O3 0.145973 0.848626 0.564913
O O4 0.224235 0.717732 0.568378
O O5 0.892664 0.210476 0.781899
O O6 0.916879 0.087420 0.843144
O O7 0.000000 0.107618 0.750000
O O8 0.023633 0.201056 0.833251
O O9 0.752298 0.752298 0.250000
O O10 0.834625 0.647214 0.302294
O O11 0.883178 0.685060 0.203474
O O12 0.436452 0.869789 0.606779
O O13 0.351677 0.975006 0.661995
O O14 0.998832 0.889697 0.569940
O O15 0.707859 0.078564 0.900449
O O16 0.109583 0.681133 0.500000
O O17 0.143696 0.574998 0.572391
O O18 0.110197 0.465199 0.500000
O O19 0.000000 0.500000 0.570430
#
# Coordination Sequence:
#
# PCOD8313099 Si02
#       8
#    16  16  16  16  16  16  16  16
#     4  11  23  35  52  73  98 135 177 223 271 328
#     4   9  19  30  46  63  88 123 172 226 269 308
#     4  10  20  31  51  73  99 139 175 218 266 319
#     4  11  20  35  54  79 102 132 182 225 272 331
#     4  11  23  34  43  62  92 129 177 227 270 313
#     4  10  18  32  50  73  99 130 176 224 267 322
#     4  10  21  36  54  75 103 137 173 219 281 334
#     4  10  20  35  57  82 107 138 177 230 284 335
#
# _framework density 18.071726999999999
#
# number of rings (size 3 to 8) (size 9 to 14) (size 15 to 20)
#    0.000    1.750    3.750    3.000    3.500    1.000 
#    0.000    1.875    0.000    0.000    0.000    0.000 
#    0.000    0.500    0.000    4.625    0.000    2.625 
#
# Total GULP energy -1585796.158062 kJ/mol
# GULP energy per Si atom -12389.032485 kJ/mol
# Density = 1.803060 g / cm^3
# Si number density = 18.071727 Si / 1000 Ang^3
#
#
#
# Elastic Constant Matrix: (Units=GPa)
#
#
# Indices 1 2 3 4 5 6 
#
# 1 56.9434 23.7059 34.1763 0.0000 0.0000 0.0000
# 2 23.7059 56.9434 34.1763 0.0000 0.0000 0.0000
# 3 34.1763 34.1763 113.0705 0.0000 0.0000 0.0000
# 4 0.0000 0.0000 0.0000 24.5069 0.0000 0.0000
# 5 0.0000 0.0000 0.0000 0.0000 24.5069 0.0000
# 6 0.0000 0.0000 0.0000 0.0000 0.0000 9.2878
#
#
#
# Elastic Compliance Matrix: (Units=1/GPa)
#
#
# Indices 1 2 3 4 5 6 
#
# 1 0.023378 -0.006708 -0.005039 0.000000 0.000000 0.000000
# 2 -0.006708 0.023378 -0.005039 0.000000 0.000000 0.000000
# 3 -0.005039 -0.005039 0.011890 0.000000 0.000000 0.000000
# 4 0.000000 0.000000 0.000000 0.040805 0.000000 0.000000
# 5 0.000000 0.000000 0.000000 0.000000 0.040805 0.000000
# 6 0.000000 0.000000 0.000000 0.000000 0.000000 0.107668
#
#
# Mechanical properties :
#
#
# Convention : Reuss Voigt Hill
#
# Bulk Modulus (GPa) = 39.88013 45.67490 42.77751
# Shear Modulus (GPa) = 17.25012 20.65358 18.95185
#
# Velocity S-wave (km/s) = 3.09291 3.38430 3.24188
# Velocity P-wave (km/s) = 5.90511 6.37184 6.14291
#
# Compressibility (1/GPa) = 0.02507514
#
# Stress axis : x y z
#
# Youngs Moduli (GPa) = 42.77507 42.77507 84.10515
#
# Poissons Ratio (x) = 0.28696 0.42376
# Poissons Ratio (y) = 0.28696 0.42376
# Poissons Ratio (z) = 0.21552 0.21552
#
# Static dielectric constant tensor:
#      x y z
#    x 3.184470 0.000000 0.000000 
#    y 0.000000 3.184470 0.000000 
#    z 0.000000 0.000000 3.783270 
# 
# 
# High freq. dielectric constant tensor:
#      x y z
#    x 1.655740 0.000000 0.000000 
#    y 0.000000 1.655740 0.000000 
#    z 0.000000 0.000000 1.725110 
# 
# From -- ./inp_files/6260.got.cif
#   From: 2010.03.12/outbox.cif.g09.slc.cpg/sg124_4_cif.got.tgz:6260.got - 2010.04.06 16:38:57.
