data_PCOD8313576
_publ_section_title
;
Structure prediction by ZEFSAII (Michael W. Deem and Ramdas Pophale) SiO2 
 PCOD8313576
Probable space group: P 4/N B M
;
_chemical_formula_sum "Si O2"
_cell_formula_units_Z 96
_cell_length_a 26.658945
_cell_length_b 26.658945
_cell_length_c 9.285331
_cell_angle_alpha 90.000000
_cell_angle_beta 90.000000
_cell_angle_gamma 90.000000
_cell_volume 6599.078692
_symmetry_space_group_name_H-M "P 4/N B M"
_symmetry_group_IT_number 125
_space_group.IT_coordinate_system_code '2'
_symmetry_cell_setting 'tetragonal'
loop_
_space_group_symop_operation_xyz
x,y,z
1/2-y,x,z
1/2-x,1/2-y,z
y,1/2-x,z
x,1/2-y,-z
1/2-x,y,-z
y,x,-z
1/2-y,1/2-x,-z
-x,-y,-z
1/2+y,-x,-z
1/2+x,1/2+y,-z
-y,1/2+x,-z
-x,1/2+y,z
1/2+x,-y,z
-y,-x,z
1/2+y,1/2+x,z
loop_
_atom_site_type_symbol
_atom_site_label
_atom_site_fract_x
_atom_site_fract_y
_atom_site_fract_z
Si Si1 0.060470 0.644689 0.944428
Si Si2 0.631431 0.287159 0.111780
Si Si3 0.862468 0.282441 0.371799
Si Si4 0.006278 0.422092 0.577556
Si Si5 0.942430 0.139553 0.621865
Si Si6 0.510215 0.925847 0.098569
O O1 0.105726 0.605726 0.934386
O O2 0.081173 0.692661 0.032239
O O3 0.013217 0.623453 0.029057
O O4 0.041101 0.656866 0.782722
O O5 0.668249 0.331752 0.160129
O O6 0.616432 0.254518 0.250173
O O7 0.659305 0.250000 0.000000
O O8 0.838838 0.250000 0.500000
O O9 0.819472 0.319472 0.308320
O O10 0.907909 0.315459 0.438908
O O11 0.053944 0.446057 0.500000
O O12 0.025045 0.409713 0.739170
O O13 0.960290 0.460290 0.586661
O O14 0.988465 0.372308 0.488084
O O15 0.912048 0.087953 0.636595
O O16 0.471185 0.971185 0.103302
O O17 0.557531 0.942470 0.000000
#
# Coordination Sequence:
#
# PCOD8313576 Si02
#       6
#    16  16  16  16  16  16
#     4   9  17  29  43  58  76  96 121 156 196 243
#     4  11  21  33  47  60  74  98 134 175 220 262
#     4  11  23  35  45  58  76 100 132 175 223 265
#     4   9  16  25  40  60  80 100 117 138 177 234
#     4   9  17  30  43  56  76  98 121 153 197 247
#     4   9  16  25  40  61  80  97 117 142 177 230
#
# _framework density 14.547485999999999
#
# number of rings (size 3 to 8) (size 9 to 14) (size 15 to 20)
#    0.000    2.333    1.667    2.000    2.333    6.000 
#    0.000    0.000    0.000    0.000    0.000    0.000 
#    0.000    0.000    0.000    0.000    0.000    0.000 
#
# Total GULP energy -1189579.986829 kJ/mol
# GULP energy per Si atom -12391.458196 kJ/mol
# Density = 1.451438 g / cm^3
# Si number density = 14.547486 Si / 1000 Ang^3
#
#
#
# Elastic Constant Matrix: (Units=GPa)
#
#
# Indices 1 2 3 4 5 6 
#
# 1 42.3188 39.6218 37.5996 0.0000 0.0000 0.0000
# 2 39.6218 42.3193 37.6002 0.0000 0.0000 0.0000
# 3 37.5996 37.6002 116.7760 0.0000 0.0000 0.0000
# 4 0.0000 0.0000 0.0000 23.4852 0.0000 0.0000
# 5 0.0000 0.0000 0.0000 0.0000 23.4852 0.0000
# 6 0.0000 0.0000 0.0000 0.0000 0.0000 12.7073
#
#
#
# Elastic Compliance Matrix: (Units=1/GPa)
#
#
# Indices 1 2 3 4 5 6 
#
# 1 0.194036 -0.176713 -0.005577 0.000000 0.000000 0.000000
# 2 -0.176713 0.194035 -0.005578 0.000000 0.000000 0.000000
# 3 -0.005577 -0.005578 0.012155 0.000000 0.000000 0.000000
# 4 0.000000 0.000000 0.000000 0.042580 0.000000 0.000000
# 5 0.000000 0.000000 0.000000 0.000000 0.042580 0.000000
# 6 0.000000 0.000000 0.000000 0.000000 0.000000 0.078695
#
#
# Mechanical properties :
#
#
# Convention : Reuss Voigt Hill
#
# Bulk Modulus (GPa) = 40.83280 47.89525 44.36402
# Shear Modulus (GPa) = 5.27437 17.70835 11.49136
#
# Velocity S-wave (km/s) = 1.90617 3.49274 2.81360
# Velocity P-wave (km/s) = 5.74232 7.01858 6.41228
#
# Compressibility (1/GPa) = 0.02449012
#
# Stress axis : x y z
#
# Youngs Moduli (GPa) = 5.15369 5.15371 82.26929
#
# Poissons Ratio (x) = 0.91073 0.45880
# Poissons Ratio (y) = 0.91072 0.45893
# Poissons Ratio (z) = 0.02874 0.02875
#
# Static dielectric constant tensor:
#      x y z
#    x 2.598230 0.000000 0.000000 
#    y 0.000000 2.598230 0.000000 
#    z 0.000000 0.000000 3.128750 
# 
# 
# High freq. dielectric constant tensor:
#      x y z
#    x 1.509550 0.000000 0.000000 
#    y 0.000000 1.509550 0.000000 
#    z 0.000000 0.000000 1.580400 
# 
# From -- ./inp_files/2984.got.cif
#   From: 2010.03.12/outbox.cif.g09.slc.cpg/sg125_2_cif.got.tgz:2984.got - 2010.04.06 16:47:52.
