data_PCOD8313982
_publ_section_title
;
Structure prediction by ZEFSAII (Michael W. Deem and Ramdas Pophale) SiO2 
 PCOD8313982
Probable space group: P 4/M B M
;
_chemical_formula_sum "Si O2"
_cell_formula_units_Z 96
_cell_length_a 23.841231
_cell_length_b 23.841231
_cell_length_c 8.849787
_cell_angle_alpha 90.000000
_cell_angle_beta 90.000000
_cell_angle_gamma 90.000000
_cell_volume 5030.256946
_symmetry_space_group_name_H-M "P 4/M B M"
_symmetry_group_IT_number 127
_symmetry_cell_setting 'tetragonal'
loop_
_space_group_symop_operation_xyz
x,y,z
-y,x,z
-x,-y,z
y,-x,z
1/2+x,1/2-y,-z
1/2-x,1/2+y,-z
1/2+y,1/2+x,-z
1/2-y,1/2-x,-z
-x,-y,-z
y,-x,-z
x,y,-z
-y,x,-z
1/2-x,1/2+y,z
1/2+x,1/2-y,z
1/2-y,1/2-x,z
1/2+y,1/2+x,z
loop_
_atom_site_type_symbol
_atom_site_label
_atom_site_fract_x
_atom_site_fract_y
_atom_site_fract_z
Si Si1 0.499857 0.911334 0.179575
Si Si2 0.515400 0.786127 0.819875
Si Si3 0.726503 0.681507 0.824633
Si Si4 0.300886 0.431862 0.677394
Si Si5 0.462945 0.583209 0.176814
Si Si6 0.773462 0.360199 0.821407
O O1 0.555461 0.944540 0.237133
O O2 0.497891 0.847796 0.241300
O O3 0.444207 0.944207 0.235713
O O4 0.501481 0.910098 0.000000
O O5 0.478251 0.737610 0.752330
O O6 0.577398 0.773302 0.756935
O O7 0.511822 0.783455 0.000000
O O8 0.782116 0.717884 0.791918
O O9 0.726584 0.627249 0.720623
O O10 0.671055 0.716045 0.779262
O O11 0.724794 0.663686 0.000000
O O12 0.299944 0.439504 0.500000
O O13 0.364648 0.437618 0.733268
O O14 0.426936 0.528043 0.219520
O O15 0.457418 0.595915 0.000000
O O16 0.826010 0.326010 0.751933
O O17 0.780550 0.361463 0.000000
#
# Coordination Sequence:
#
# PCOD8313982 Si02
#       6
#    16  16  16  16  16  16
#     4   8  14  26  48  80 113 141 175 227 284 327
#     4  10  19  32  53  81 110 144 187 230 272 322
#     4   9  19  38  61  81 103 138 190 243 287 332
#     4  12  26  38  52  81 121 158 188 223 277 344
#     4   9  20  41  67  89 108 138 186 241 291 338
#     4   8  15  30  56  86 107 129 173 237 291 322
#
# _framework density 19.084512
#
# number of rings (size 3 to 8) (size 9 to 14) (size 15 to 20)
#    0.000    2.667    0.000    4.000    2.333    3.667 
#    0.000    2.500    0.000    3.000    0.000    1.167 
#    0.000    0.000    0.000    0.000    0.000    0.000 
#
# Total GULP energy -1190090.996750 kJ/mol
# GULP energy per Si atom -12396.781216 kJ/mol
# Density = 1.904108 g / cm^3
# Si number density = 19.084512 Si / 1000 Ang^3
#
#
#
# Elastic Constant Matrix: (Units=GPa)
#
#
# Indices 1 2 3 4 5 6 
#
# 1 101.6715 44.2651 23.9290 0.0000 0.0000 0.0000
# 2 44.2651 101.6715 23.9290 0.0000 0.0000 0.0000
# 3 23.9290 23.9290 34.9772 0.0000 0.0000 0.0000
# 4 0.0000 0.0000 0.0000 0.2612 0.0000 0.0000
# 5 0.0000 0.0000 0.0000 0.0000 0.2612 0.0000
# 6 0.0000 0.0000 0.0000 0.0000 0.0000 25.0190
#
#
#
# Elastic Compliance Matrix: (Units=1/GPa)
#
#
# Indices 1 2 3 4 5 6 
#
# 1 0.013127 -0.004293 -0.006044 0.000000 0.000000 0.000000
# 2 -0.004293 0.013127 -0.006044 0.000000 0.000000 0.000000
# 3 -0.006044 -0.006044 0.036860 0.000000 0.000000 0.000000
# 4 0.000000 0.000000 0.000000 3.829002 0.000000 0.000000
# 5 0.000000 0.000000 0.000000 0.000000 3.829002 0.000000
# 6 0.000000 0.000000 0.000000 0.000000 0.000000 0.039970
#
#
# Mechanical properties :
#
#
# Convention : Reuss Voigt Hill
#
# Bulk Modulus (GPa) = 32.94581 46.95185 39.94883
# Shear Modulus (GPa) = 0.64070 14.85474 7.74772
#
# Velocity S-wave (km/s) = 0.58004 2.79295 2.01705
# Velocity P-wave (km/s) = 4.21298 5.92083 5.13836
#
# Compressibility (1/GPa) = 0.03035288
#
# Stress axis : x y z
#
# Youngs Moduli (GPa) = 76.17897 76.17897 27.12998
#
# Poissons Ratio (x) = 0.32701 0.16397
# Poissons Ratio (y) = 0.32701 0.16397
# Poissons Ratio (z) = 0.46041 0.46041
#
# Static dielectric constant tensor:
#      x y z
#    x 3.753050 0.000000 0.000000 
#    y 0.000000 3.753050 0.000000 
#    z 0.000000 0.000000 2.995720 
# 
# 
# High freq. dielectric constant tensor:
#      x y z
#    x 1.752920 0.000000 0.000000 
#    y 0.000000 1.752920 0.000000 
#    z 0.000000 0.000000 1.688950 
# 
# From -- ./inp_files/2038.got.cif
#   From: 2010.03.12/outbox.cif.g09.slc.cpg/sg127_2_cif.got.tgz:2038.got - 2010.04.06 17:03:15.
