data_PCOD8313857
_publ_section_title
;
Structure prediction by ZEFSAII (Michael W. Deem and Ramdas Pophale) SiO2 
 PCOD8313857
Probable space group: P 4/M B M
;
_chemical_formula_sum "Si O2"
_cell_formula_units_Z 120
_cell_length_a 25.585708
_cell_length_b 25.585708
_cell_length_c 11.507218
_cell_angle_alpha 90.000000
_cell_angle_beta 90.000000
_cell_angle_gamma 90.000000
_cell_volume 7532.952328
_symmetry_space_group_name_H-M "P 4/M B M"
_symmetry_group_IT_number 127
_symmetry_cell_setting 'tetragonal'
loop_
_space_group_symop_operation_xyz
x,y,z
-y,x,z
-x,-y,z
y,-x,z
1/2+x,1/2-y,-z
1/2-x,1/2+y,-z
1/2+y,1/2+x,-z
1/2-y,1/2-x,-z
-x,-y,-z
y,-x,-z
x,y,-z
-y,x,-z
1/2-x,1/2+y,z
1/2+x,1/2-y,z
1/2-y,1/2-x,z
1/2+y,1/2+x,z
loop_
_atom_site_type_symbol
_atom_site_label
_atom_site_fract_x
_atom_site_fract_y
_atom_site_fract_z
Si Si1 0.791773 0.207449 0.137975
Si Si2 0.417864 0.999752 0.138158
Si Si3 0.917130 0.026950 0.500000
Si Si4 0.093196 0.767441 0.129844
Si Si5 0.549096 0.373263 0.745064
Si Si6 0.224796 0.912122 0.864128
Si Si7 0.880586 0.947090 0.129067
Si Si8 0.498166 0.197453 0.863270
O O1 0.749196 0.249196 0.185205
O O2 0.849665 0.222417 0.189996
O O3 0.772787 0.148932 0.173970
O O4 0.794762 0.209141 0.000000
O O5 0.447346 0.052655 0.176356
O O6 0.449573 0.949573 0.185725
O O7 0.360116 0.999928 0.192629
O O8 0.414885 0.996367 0.000000
O O9 0.880241 0.038349 0.390732
O O10 0.966955 0.064905 0.500000
O O11 0.057576 0.818666 0.125346
O O12 0.053381 0.726322 0.192165
O O13 0.106078 0.748071 0.000000
O O14 0.556976 0.313461 0.778209
O O15 0.601200 0.402269 0.784151
O O16 0.502147 0.398550 0.818869
O O17 0.278125 0.944094 0.841795
O O18 0.207163 0.916349 0.000000
O O19 0.904380 0.940274 0.000000
O O20 0.487770 0.196202 0.000000
#
# Coordination Sequence:
#
# PCOD8313857 Si02
#       8
#    16  16   8  16  16  16  16  16
#     4   9  17  27  39  59  90 121 144 173 222 284
#     4   8  14  24  36  52  80 121 162 189 212 260
#     4  11  24  40  46  60  89 124 156 195 237 272
#     4   9  16  26  39  59  87 115 145 181 224 270
#     4  12  21  34  50  64  90 122 156 194 233 281
#     4  10  18  29  46  69  92 118 153 195 237 277
#     4  11  20  30  48  71  91 116 150 193 238 278
#     4   9  16  24  38  59  82 108 146 193 233 264
#
# _framework density 15.930009
#
# number of rings (size 3 to 8) (size 9 to 14) (size 15 to 20)
#    0.000    2.200    4.000    1.600    0.000    1.333 
#    0.000    6.000    0.000    0.000    0.000    0.467 
#    0.000    0.000    0.000    1.933    0.000    2.933 
#
# Total GULP energy -1486712.645231 kJ/mol
# GULP energy per Si atom -12389.272044 kJ/mol
# Density = 1.589375 g / cm^3
# Si number density = 15.930009 Si / 1000 Ang^3
#
#
#
# Elastic Constant Matrix: (Units=GPa)
#
#
# Indices 1 2 3 4 5 6 
#
# 1 114.9894 52.6183 22.0337 0.0000 0.0000 0.0000
# 2 52.6183 114.9894 22.0337 0.0000 0.0000 0.0000
# 3 22.0337 22.0337 42.5072 0.0000 0.0000 0.0000
# 4 0.0000 0.0000 0.0000 3.9041 0.0000 0.0000
# 5 0.0000 0.0000 0.0000 0.0000 3.9041 0.0000
# 6 0.0000 0.0000 0.0000 0.0000 0.0000 24.0256
#
#
#
# Elastic Compliance Matrix: (Units=1/GPa)
#
#
# Indices 1 2 3 4 5 6 
#
# 1 0.011470 -0.004563 -0.003581 0.000000 0.000000 0.000000
# 2 -0.004563 0.011470 -0.003581 0.000000 0.000000 0.000000
# 3 -0.003581 -0.003581 0.027238 0.000000 0.000000 0.000000
# 4 0.000000 0.000000 0.000000 0.256139 0.000000 0.000000
# 5 0.000000 0.000000 0.000000 0.000000 0.256139 0.000000
# 6 0.000000 0.000000 0.000000 0.000000 0.000000 0.041622
#
#
# Mechanical properties :
#
#
# Convention : Reuss Voigt Hill
#
# Bulk Modulus (GPa) = 37.41056 51.76191 44.58624
# Shear Modulus (GPa) = 7.85623 18.08679 12.97151
#
# Velocity S-wave (km/s) = 2.22316 3.37321 2.85666
# Velocity P-wave (km/s) = 5.48864 6.90907 6.23941
#
# Compressibility (1/GPa) = 0.02673042
#
# Stress axis : x y z
#
# Youngs Moduli (GPa) = 87.18089 87.18089 36.71408
#
# Poissons Ratio (x) = 0.39778 0.13146
# Poissons Ratio (y) = 0.39778 0.13146
# Poissons Ratio (z) = 0.31216 0.31216
#
# Static dielectric constant tensor:
#      x y z
#    x 3.235390 0.000000 0.000000 
#    y 0.000000 3.235390 0.000000 
#    z 0.000000 0.000000 2.429650 
# 
# 
# High freq. dielectric constant tensor:
#      x y z
#    x 1.619360 0.000000 0.000000 
#    y 0.000000 1.619360 0.000000 
#    z 0.000000 0.000000 1.526530 
# 
# From -- ./inp_files/3834.got.cif
#   From: 2010.03.12/outbox.cif.g09.slc.cpg/sg127_2_cif.got.tgz:3834.got - 2010.04.06 17:03:15.
