data_PCOD8313883
_publ_section_title
;
Structure prediction by ZEFSAII (Michael W. Deem and Ramdas Pophale) SiO2 
 PCOD8313883
Probable space group: P 4/M B M
;
_chemical_formula_sum "Si O2"
_cell_formula_units_Z 96
_cell_length_a 24.389383
_cell_length_b 24.389383
_cell_length_c 8.092132
_cell_angle_alpha 90.000000
_cell_angle_beta 90.000000
_cell_angle_gamma 90.000000
_cell_volume 4813.540008
_symmetry_space_group_name_H-M "P 4/M B M"
_symmetry_group_IT_number 127
_symmetry_cell_setting 'tetragonal'
loop_
_space_group_symop_operation_xyz
x,y,z
-y,x,z
-x,-y,z
y,-x,z
1/2+x,1/2-y,-z
1/2-x,1/2+y,-z
1/2+y,1/2+x,-z
1/2-y,1/2-x,-z
-x,-y,-z
y,-x,-z
x,y,-z
-y,x,-z
1/2-x,1/2+y,z
1/2+x,1/2-y,z
1/2-y,1/2-x,z
1/2+y,1/2+x,z
loop_
_atom_site_type_symbol
_atom_site_label
_atom_site_fract_x
_atom_site_fract_y
_atom_site_fract_z
Si Si1 0.374481 0.874481 0.316054
Si Si2 0.359913 0.576964 0.311310
Si Si3 0.225702 0.981809 0.694320
Si Si4 0.069964 0.054676 0.000000
Si Si5 0.205791 0.294210 0.185074
Si Si6 0.456528 0.043473 0.188360
Si Si7 0.153696 0.498593 0.688396
Si Si8 0.307755 0.360779 0.195607
O O1 0.356024 0.856024 0.500000
O O2 0.340656 0.840656 0.182905
O O3 0.365116 0.937337 0.286832
O O4 0.381570 0.567042 0.500000
O O5 0.315299 0.531452 0.263991
O O6 0.406838 0.576684 0.172758
O O7 0.338569 0.639326 0.296023
O O8 0.230296 0.970802 0.500000
O O9 0.284777 0.002124 0.764538
O O10 0.206016 0.924941 0.774419
O O11 0.009417 0.076774 0.000000
O O12 0.259969 0.320808 0.267381
O O13 0.221333 0.278668 0.000000
O O14 0.464945 0.107712 0.225095
O O15 0.500000 0.000000 0.278096
O O16 0.466889 0.033112 0.000000
O O17 0.155512 0.517733 0.500000
O O18 0.316639 0.353463 0.000000
#
# Coordination Sequence:
#
# PCOD8313883 Si02
#       8
#     8  16  16   8   8   8  16  16
#     4  10  18  31  55  85 116 150 197 250 305 370
#     4  11  24  42  63  92 130 167 208 259 315 379
#     4  10  22  39  62  90 120 158 206 261 316 375
#     4  11  24  42  66  95 124 160 207 251 310 382
#     4  10  22  36  56  92 128 159 199 259 315 360
#     4  11  23  35  50  79 120 160 202 255 313 370
#     4  10  20  36  57  83 116 157 204 249 306 376
#     4  11  22  38  62  91 127 166 209 257 313 378
#
# _framework density 19.943743000000001
#
# number of rings (size 3 to 8) (size 9 to 14) (size 15 to 20)
#    0.000    1.500    3.333    1.750    1.167    4.333 
#    0.000    1.667    0.000    3.000    0.000    0.000 
#    0.000    0.000    0.000    0.000    0.000    0.000 
#
# Total GULP energy -1189497.623528 kJ/mol
# GULP energy per Si atom -12390.600245 kJ/mol
# Density = 1.989835 g / cm^3
# Si number density = 19.943743 Si / 1000 Ang^3
#
#
#
# Elastic Constant Matrix: (Units=GPa)
#
#
# Indices 1 2 3 4 5 6 
#
# 1 111.3874 38.7237 21.8436 0.0000 0.0000 0.0000
# 2 38.7237 111.3882 21.8440 0.0000 0.0000 0.0000
# 3 21.8436 21.8440 68.7455 0.0000 0.0000 0.0000
# 4 0.0000 0.0000 0.0000 21.2709 0.0000 0.0000
# 5 0.0000 0.0000 0.0000 0.0000 21.2709 0.0000
# 6 0.0000 0.0000 0.0000 0.0000 0.0000 39.7546
#
#
#
# Elastic Compliance Matrix: (Units=1/GPa)
#
#
# Indices 1 2 3 4 5 6 
#
# 1 0.010551 -0.003211 -0.002332 0.000000 0.000000 0.000000
# 2 -0.003211 0.010551 -0.002332 0.000000 0.000000 0.000000
# 3 -0.002332 -0.002332 0.016029 0.000000 0.000000 0.000000
# 4 0.000000 0.000000 0.000000 0.047013 0.000000 0.000000
# 5 0.000000 0.000000 0.000000 0.000000 0.047013 0.000000
# 6 0.000000 0.000000 0.000000 0.000000 0.000000 0.025154
#
#
# Mechanical properties :
#
#
# Convention : Reuss Voigt Hill
#
# Bulk Modulus (GPa) = 46.77278 50.70487 48.73883
# Shear Modulus (GPa) = 27.90356 30.39992 29.15174
#
# Velocity S-wave (km/s) = 3.74453 3.90844 3.82736
# Velocity P-wave (km/s) = 6.49605 6.77104 6.63497
#
# Compressibility (1/GPa) = 0.02137995
#
# Stress axis : x y z
#
# Youngs Moduli (GPa) = 94.77529 94.77583 62.38818
#
# Poissons Ratio (x) = 0.30430 0.14552
# Poissons Ratio (y) = 0.30430 0.14552
# Poissons Ratio (z) = 0.22106 0.22106
#
# Static dielectric constant tensor:
#      x y z
#    x 3.759180 0.000000 0.000000 
#    y 0.000000 3.759180 0.000000 
#    z 0.000000 0.000000 3.594870 
# 
# 
# High freq. dielectric constant tensor:
#      x y z
#    x 1.777340 0.000000 0.000000 
#    y 0.000000 1.777340 0.000000 
#    z 0.000000 0.000000 1.772560 
# 
# From -- ./inp_files/2161.got.cif
#   From: 2010.03.12/outbox.cif.g09.slc.cpg/sg127_2_cif.got.tgz:2161.got - 2010.04.06 17:03:15.
