data_PCOD8313812
_publ_section_title
;
Structure prediction by ZEFSAII (Michael W. Deem and Ramdas Pophale) SiO2 
 PCOD8313812
Probable space group: P 4/N N C
;
_chemical_formula_sum "Si O2"
_cell_formula_units_Z 48
_cell_length_a 13.165670
_cell_length_b 13.165670
_cell_length_c 13.634124
_cell_angle_alpha 90.000000
_cell_angle_beta 90.000000
_cell_angle_gamma 90.000000
_cell_volume 2363.269064
_symmetry_space_group_name_H-M "P 4/N N C"
_symmetry_group_IT_number 126
_space_group.IT_coordinate_system_code '2'
_symmetry_cell_setting 'tetragonal'
loop_
_space_group_symop_operation_xyz
x,y,z
1/2-y,x,z
1/2-x,1/2-y,z
y,1/2-x,z
x,1/2-y,1/2-z
1/2-x,y,1/2-z
y,x,1/2-z
1/2-y,1/2-x,1/2-z
-x,-y,-z
1/2+y,-x,-z
1/2+x,1/2+y,-z
-y,1/2+x,-z
-x,1/2+y,1/2+z
1/2+x,-y,1/2+z
-y,-x,1/2+z
1/2+y,1/2+x,1/2+z
loop_
_atom_site_type_symbol
_atom_site_label
_atom_site_fract_x
_atom_site_fract_y
_atom_site_fract_z
Si Si1 0.938229 0.397565 0.982952
Si Si2 0.129950 0.747149 0.862610
Si Si3 0.770007 0.586808 0.362501
O O1 0.840287 0.424240 0.917932
O O2 0.990856 0.302294 0.926419
O O3 0.909283 0.358111 0.091011
O O4 0.000000 0.500000 0.000000
O O5 0.250000 0.750000 0.877618
O O6 0.096856 0.750000 0.750000
O O7 0.861178 0.664009 0.388840
O O8 0.750000 0.554582 0.250000
#
# Coordination Sequence:
#
# PCOD8313812 Si02
#       3
#    16  16  16
#     4  12  23  40  67  93 127 171 220 261 322 396
#     4  11  25  43  63  91 131 166 208 266 323 380
#     4   9  20  36  59  92 129 165 212 269 319 373
#
# _framework density 20.310849000000001
#
# number of rings (size 3 to 8) (size 9 to 14) (size 15 to 20)
#    0.000    1.333    3.333    3.000    4.667    4.000 
#    0.000    0.000    0.000    0.000    0.000    2.333 
#    0.000    0.000    0.000    0.000    0.000    0.000 
#
# Total GULP energy -594847.307202 kJ/mol
# GULP energy per Si atom -12392.652233 kJ/mol
# Density = 2.026462 g / cm^3
# Si number density = 20.310849 Si / 1000 Ang^3
#
#
#
# Elastic Constant Matrix: (Units=GPa)
#
#
# Indices 1 2 3 4 5 6 
#
# 1 90.4156 36.6894 69.4872 0.0000 0.0000 0.0000
# 2 36.6894 90.4156 69.4872 0.0000 0.0000 0.0000
# 3 69.4872 69.4872 144.3371 0.0000 0.0000 0.0000
# 4 0.0000 0.0000 0.0000 25.8114 0.0000 0.0000
# 5 0.0000 0.0000 0.0000 0.0000 25.8114 0.0000
# 6 0.0000 0.0000 0.0000 0.0000 0.0000 45.6097
#
#
#
# Elastic Compliance Matrix: (Units=1/GPa)
#
#
# Indices 1 2 3 4 5 6 
#
# 1 0.017612 -0.001001 -0.007997 0.000000 0.000000 0.000000
# 2 -0.001001 0.017612 -0.007997 0.000000 0.000000 0.000000
# 3 -0.007997 -0.007997 0.014628 0.000000 0.000000 0.000000
# 4 0.000000 0.000000 0.000000 0.038743 0.000000 0.000000
# 5 0.000000 0.000000 0.000000 0.000000 0.038743 0.000000
# 6 0.000000 0.000000 0.000000 0.000000 0.000000 0.021925
#
#
# Mechanical properties :
#
#
# Convention : Reuss Voigt Hill
#
# Bulk Modulus (GPa) = 63.04145 75.16619 69.10382
# Shear Modulus (GPa) = 26.51953 29.41347 27.96650
#
# Velocity S-wave (km/s) = 3.61734 3.80961 3.71472
# Velocity P-wave (km/s) = 6.96797 7.51259 7.24540
#
# Compressibility (1/GPa) = 0.01586258
#
# Stress axis : x y z
#
# Youngs Moduli (GPa) = 56.77899 56.77899 68.36106
#
# Poissons Ratio (x) = 0.05682 0.54669
# Poissons Ratio (y) = 0.05682 0.54669
# Poissons Ratio (z) = 0.45407 0.45407
#
# Static dielectric constant tensor:
#      x y z
#    x 3.664210 0.000000 0.000000 
#    y 0.000000 3.664210 0.000000 
#    z 0.000000 0.000000 3.712680 
# 
# 
# High freq. dielectric constant tensor:
#      x y z
#    x 1.796400 0.000000 0.000000 
#    y 0.000000 1.796400 0.000000 
#    z 0.000000 0.000000 1.792300 
# 
# From -- ./inp_files/2203.got.cif
#   From: 2010.03.12/outbox.cif.g09.slc.cpg/sg126_2_cif.got.tgz:2203.got - 2010.04.06 16:55:23.
