data_PCOD8313935
_publ_section_title
;
Structure prediction by ZEFSAII (Michael W. Deem and Ramdas Pophale) SiO2 
 PCOD8313935
Probable space group: P 4/M B M
;
_chemical_formula_sum "Si O2"
_cell_formula_units_Z 72
_cell_length_a 23.502912
_cell_length_b 23.502912
_cell_length_c 7.943388
_cell_angle_alpha 90.000000
_cell_angle_beta 90.000000
_cell_angle_gamma 90.000000
_cell_volume 4387.823254
_symmetry_space_group_name_H-M "P 4/M B M"
_symmetry_group_IT_number 127
_symmetry_cell_setting 'tetragonal'
loop_
_space_group_symop_operation_xyz
x,y,z
-y,x,z
-x,-y,z
y,-x,z
1/2+x,1/2-y,-z
1/2-x,1/2+y,-z
1/2+y,1/2+x,-z
1/2-y,1/2-x,-z
-x,-y,-z
y,-x,-z
x,y,-z
-y,x,-z
1/2-x,1/2+y,z
1/2+x,1/2-y,z
1/2-y,1/2-x,z
1/2+y,1/2+x,z
loop_
_atom_site_type_symbol
_atom_site_label
_atom_site_fract_x
_atom_site_fract_y
_atom_site_fract_z
Si Si1 0.326696 0.000487 0.192390
Si Si2 0.708206 0.883891 0.691900
Si Si3 0.591024 0.002921 0.500000
Si Si4 0.288319 0.878201 0.801066
Si Si5 0.800912 0.205576 0.813721
O O1 0.289126 0.057992 0.200261
O O2 0.376621 0.008126 0.325754
O O3 0.291051 0.944627 0.248872
O O4 0.349353 0.992546 0.000000
O O5 0.695873 0.900305 0.500000
O O6 0.658052 0.841949 0.759698
O O7 0.769492 0.852719 0.703445
O O8 0.567281 0.067281 0.500000
O O9 0.540240 0.959760 0.500000
O O10 0.343741 0.843741 0.730726
O O11 0.228780 0.850872 0.731862
O O12 0.286518 0.870460 0.000000
O O13 0.751324 0.251324 0.824852
O O14 0.825277 0.192929 0.000000
#
# Coordination Sequence:
#
# PCOD8313935 Si02
#       5
#    16  16   8  16  16
#     4  11  21  34  52  70  93 127 162 200 245 285
#     4  10  19  31  45  66  96 124 157 199 237 281
#     4  11  24  38  48  64  92 124 166 213 242 274
#     4   8  15  29  48  69  92 118 154 197 238 286
#     4   8  14  27  47  68  89 115 148 189 239 291
#
# _framework density 16.409047000000001
#
# number of rings (size 3 to 8) (size 9 to 14) (size 15 to 20)
#    0.000    2.556    1.111    3.333    0.000    4.000 
#    2.000    1.111    0.000    0.000    0.000    0.000 
#    0.000    0.889    0.000   10.222    0.000    4.000 
#
# Total GULP energy -891986.050049 kJ/mol
# GULP energy per Si atom -12388.695140 kJ/mol
# Density = 1.637170 g / cm^3
# Si number density = 16.409047 Si / 1000 Ang^3
#
#
#
# Elastic Constant Matrix: (Units=GPa)
#
#
# Indices 1 2 3 4 5 6 
#
# 1 91.1791 60.0231 20.5327 0.0000 0.0000 0.0000
# 2 60.0231 91.1786 20.5326 0.0000 0.0000 0.0000
# 3 20.5327 20.5326 61.5005 0.0000 0.0000 0.0000
# 4 0.0000 0.0000 0.0000 17.0721 0.0000 0.0000
# 5 0.0000 0.0000 0.0000 0.0000 17.0720 0.0000
# 6 0.0000 0.0000 0.0000 0.0000 0.0000 22.7072
#
#
#
# Elastic Compliance Matrix: (Units=1/GPa)
#
#
# Indices 1 2 3 4 5 6 
#
# 1 0.019685 -0.012412 -0.002428 0.000000 0.000000 0.000000
# 2 -0.012412 0.019685 -0.002428 0.000000 0.000000 0.000000
# 3 -0.002428 -0.002428 0.017881 0.000000 0.000000 0.000000
# 4 0.000000 0.000000 0.000000 0.058575 0.000000 0.000000
# 5 0.000000 0.000000 0.000000 0.000000 0.058576 0.000000
# 6 0.000000 0.000000 0.000000 0.000000 0.000000 0.044039
#
#
# Mechanical properties :
#
#
# Convention : Reuss Voigt Hill
#
# Bulk Modulus (GPa) = 44.02413 49.55946 46.79179
# Shear Modulus (GPa) = 19.19023 20.88824 20.03924
#
# Velocity S-wave (km/s) = 3.42349 3.57174 3.49840
# Velocity P-wave (km/s) = 6.52031 6.87589 6.70046
#
# Compressibility (1/GPa) = 0.02271482
#
# Stress axis : x y z
#
# Youngs Moduli (GPa) = 50.80020 50.79995 55.92400
#
# Poissons Ratio (x) = 0.63052 0.13580
# Poissons Ratio (y) = 0.63052 0.13579
# Poissons Ratio (z) = 0.12336 0.12335
#
# Static dielectric constant tensor:
#      x y z
#    x 3.210210 0.000000 0.000000 
#    y 0.000000 3.210210 0.000000 
#    z 0.000000 0.000000 3.055230 
# 
# 
# High freq. dielectric constant tensor:
#      x y z
#    x 1.607560 0.000000 0.000000 
#    y 0.000000 1.607560 0.000000 
#    z 0.000000 0.000000 1.628090 
# 
# From -- ./inp_files/1761.got.cif
#   From: 2010.03.12/outbox.cif.g09.slc.cpg/sg127_1_cif.got.tgz:1761.got - 2010.04.06 17:03:15.
