data_PCOD8313739
_publ_section_title
;
Structure prediction by ZEFSAII (Michael W. Deem and Ramdas Pophale) SiO2 
 PCOD8313739
Probable space group: P 4/N N C
;
_chemical_formula_sum "Si O2"
_cell_formula_units_Z 52
_cell_length_a 16.540496
_cell_length_b 16.540496
_cell_length_c 8.207536
_cell_angle_alpha 90.000000
_cell_angle_beta 90.000000
_cell_angle_gamma 90.000000
_cell_volume 2245.483424
_symmetry_space_group_name_H-M "P 4/N N C"
_symmetry_group_IT_number 126
_space_group.IT_coordinate_system_code '2'
_symmetry_cell_setting 'tetragonal'
loop_
_space_group_symop_operation_xyz
x,y,z
1/2-y,x,z
1/2-x,1/2-y,z
y,1/2-x,z
x,1/2-y,1/2-z
1/2-x,y,1/2-z
y,x,1/2-z
1/2-y,1/2-x,1/2-z
-x,-y,-z
1/2+y,-x,-z
1/2+x,1/2+y,-z
-y,1/2+x,-z
-x,1/2+y,1/2+z
1/2+x,-y,1/2+z
-y,-x,1/2+z
1/2+y,1/2+x,1/2+z
loop_
_atom_site_type_symbol
_atom_site_label
_atom_site_fract_x
_atom_site_fract_y
_atom_site_fract_z
Si Si1 0.597539 0.537254 0.412885
Si Si2 0.883977 0.250000 0.250000
Si Si3 0.462500 0.632764 0.521714
Si Si4 0.501305 0.750000 0.250000
Si Si5 0.750000 0.250000 0.000000
O O1 0.541553 0.541553 0.250000
O O2 0.557809 0.605731 0.529862
O O3 0.592138 0.448096 0.492696
O O4 0.691482 0.555503 0.366882
O O5 0.941357 0.177919 0.310818
O O6 0.826317 0.280924 0.395825
O O7 0.446711 0.691704 0.364881
#
# Coordination Sequence:
#
# PCOD8313739 Si02
#       5
#    16   8  16   8   4
#     4   9  21  41  67  99 133 178 240 288 334 410
#     4  11  26  40  62  94 142 195 230 284 355 412
#     4  10  23  39  67  98 133 183 234 287 336 419
#     4  10  22  40  66  98 138 174 222 292 358 394
#     4  10  28  42  56  94 152 194 228 278 352 438
#
# _framework density 23.157596999999999
#
# number of rings (size 3 to 8) (size 9 to 14) (size 15 to 20)
#    0.000    2.154    0.000    0.000   12.923    2.462 
#    0.000    0.000    0.000   37.385    0.000   12.923 
#    0.000    0.000    0.000    0.000    0.000    0.000 
#
# Total GULP energy -644188.762041 kJ/mol
# GULP energy per Si atom -12388.245424 kJ/mol
# Density = 2.310489 g / cm^3
# Si number density = 23.157597 Si / 1000 Ang^3
#
#
#
# Elastic Constant Matrix: (Units=GPa)
#
#
# Indices 1 2 3 4 5 6 
#
# 1 157.1268 75.4455 67.6222 0.0000 0.0000 0.0000
# 2 75.4455 157.1268 67.6222 0.0000 0.0000 0.0000
# 3 67.6222 67.6222 105.1403 0.0000 0.0000 0.0000
# 4 0.0000 0.0000 0.0000 39.4432 0.0000 0.0000
# 5 0.0000 0.0000 0.0000 0.0000 39.4432 0.0000
# 6 0.0000 0.0000 0.0000 0.0000 0.0000 15.0428
#
#
#
# Elastic Compliance Matrix: (Units=1/GPa)
#
#
# Indices 1 2 3 4 5 6 
#
# 1 0.009556 -0.002687 -0.004418 0.000000 0.000000 0.000000
# 2 -0.002687 0.009556 -0.004418 0.000000 0.000000 0.000000
# 3 -0.004418 -0.004418 0.015194 0.000000 0.000000 0.000000
# 4 0.000000 0.000000 0.000000 0.025353 0.000000 0.000000
# 5 0.000000 0.000000 0.000000 0.000000 0.025353 0.000000
# 6 0.000000 0.000000 0.000000 0.000000 0.000000 0.066477
#
#
# Mechanical properties :
#
#
# Convention : Reuss Voigt Hill
#
# Bulk Modulus (GPa) = 88.80735 93.41930 91.11333
# Shear Modulus (GPa) = 28.04486 32.69946 30.37216
#
# Velocity S-wave (km/s) = 3.48378 3.76179 3.62545
# Velocity P-wave (km/s) = 7.39017 7.70041 7.54689
#
# Compressibility (1/GPa) = 0.01126033
#
# Stress axis : x y z
#
# Youngs Moduli (GPa) = 104.64959 104.64959 65.81700
#
# Poissons Ratio (x) = 0.28120 0.29076
# Poissons Ratio (y) = 0.28120 0.29076
# Poissons Ratio (z) = 0.46231 0.46231
#
# Static dielectric constant tensor:
#      x y z
#    x 4.235870 0.000000 0.000000 
#    y 0.000000 4.235870 0.000000 
#    z 0.000000 0.000000 4.410940 
# 
# 
# High freq. dielectric constant tensor:
#      x y z
#    x 1.895050 0.000000 0.000000 
#    y 0.000000 1.895050 0.000000 
#    z 0.000000 0.000000 1.917620 
# 
# From -- ./inp_files/1218.got.cif
#   From: 2010.03.12/outbox.cif.g09.slc.cpg/sg126_1_cif.got.tgz:1218.got - 2010.04.06 16:55:23.
