data_PCOD8313758
_publ_section_title
;
Structure prediction by ZEFSAII (Michael W. Deem and Ramdas Pophale) SiO2 
 PCOD8313758
Probable space group: P 4/N N C
;
_chemical_formula_sum "Si O2"
_cell_formula_units_Z 48
_cell_length_a 11.167471
_cell_length_b 11.167471
_cell_length_c 15.354999
_cell_angle_alpha 90.000000
_cell_angle_beta 90.000000
_cell_angle_gamma 90.000000
_cell_volume 1914.958908
_symmetry_space_group_name_H-M "P 4/N N C"
_symmetry_group_IT_number 126
_space_group.IT_coordinate_system_code '2'
_symmetry_cell_setting 'tetragonal'
loop_
_space_group_symop_operation_xyz
x,y,z
1/2-y,x,z
1/2-x,1/2-y,z
y,1/2-x,z
x,1/2-y,1/2-z
1/2-x,y,1/2-z
y,x,1/2-z
1/2-y,1/2-x,1/2-z
-x,-y,-z
1/2+y,-x,-z
1/2+x,1/2+y,-z
-y,1/2+x,-z
-x,1/2+y,1/2+z
1/2+x,-y,1/2+z
-y,-x,1/2+z
1/2+y,1/2+x,1/2+z
loop_
_atom_site_type_symbol
_atom_site_label
_atom_site_fract_x
_atom_site_fract_y
_atom_site_fract_z
Si Si1 0.251439 0.561988 0.482895
Si Si2 0.690698 0.931615 0.354417
Si Si3 0.966892 0.362320 0.301573
O O1 0.139320 0.650588 0.461007
O O2 0.197633 0.454685 0.541601
O O3 0.314582 0.501862 0.398832
O O4 0.600827 0.825346 0.326298
O O5 0.644866 0.048664 0.305719
O O6 0.917356 0.250000 0.250000
O O7 0.080651 0.419350 0.250000
#
# Coordination Sequence:
#
# PCOD8313758 Si02
#       3
#    16  16  16
#     4   9  21  44  74 107 145 197 253 298 374 463
#     4  10  24  47  76 108 146 200 253 310 371 466
#     4  11  27  47  74 112 154 196 247 321 391 448
#
# _framework density 25.065815000000001
#
# number of rings (size 3 to 8) (size 9 to 14) (size 15 to 20)
#    0.000    2.000    0.000    0.000    9.333    4.333 
#   18.000    1.667    0.000    0.000    0.000    0.000 
#    0.000    0.000    0.000    0.000    0.000    0.000 
#
# Total GULP energy -594875.720746 kJ/mol
# GULP energy per Si atom -12393.244182 kJ/mol
# Density = 2.500876 g / cm^3
# Si number density = 25.065815 Si / 1000 Ang^3
#
#
#
# Elastic Constant Matrix: (Units=GPa)
#
#
# Indices 1 2 3 4 5 6 
#
# 1 136.4910 80.2718 68.4576 0.0000 0.0000 0.0000
# 2 80.2718 136.4910 68.4582 0.0000 0.0000 0.0000
# 3 68.4576 68.4582 140.1568 0.0000 0.0000 0.0000
# 4 0.0000 0.0000 0.0000 46.4118 0.0000 0.0000
# 5 0.0000 0.0000 0.0000 0.0000 46.4113 0.0000
# 6 0.0000 0.0000 0.0000 0.0000 0.0000 16.2722
#
#
#
# Elastic Compliance Matrix: (Units=1/GPa)
#
#
# Indices 1 2 3 4 5 6 
#
# 1 0.012230 -0.005558 -0.003259 0.000000 0.000000 0.000000
# 2 -0.005558 0.012230 -0.003259 0.000000 0.000000 0.000000
# 3 -0.003259 -0.003259 0.010318 0.000000 0.000000 0.000000
# 4 0.000000 0.000000 0.000000 0.021546 0.000000 0.000000
# 5 0.000000 0.000000 0.000000 0.000000 0.021546 0.000000
# 6 0.000000 0.000000 0.000000 0.000000 0.000000 0.061454
#
#
# Mechanical properties :
#
#
# Convention : Reuss Voigt Hill
#
# Bulk Modulus (GPa) = 94.10213 94.16822 94.13517
# Shear Modulus (GPa) = 29.93701 34.88249 32.40975
#
# Velocity S-wave (km/s) = 3.45967 3.73451 3.59971
# Velocity P-wave (km/s) = 7.32001 7.49969 7.41040
#
# Compressibility (1/GPa) = 0.01062675
#
# Stress axis : x y z
#
# Youngs Moduli (GPa) = 81.76919 81.76868 96.91619
#
# Poissons Ratio (x) = 0.45446 0.31581
# Poissons Ratio (y) = 0.45447 0.31583
# Poissons Ratio (z) = 0.26646 0.26646
#
# Static dielectric constant tensor:
#      x y z
#    x 4.506770 0.000000 0.000000 
#    y 0.000000 4.506770 0.000000 
#    z 0.000000 0.000000 4.671460 
# 
# 
# High freq. dielectric constant tensor:
#      x y z
#    x 1.993900 0.000000 0.000000 
#    y 0.000000 1.993900 0.000000 
#    z 0.000000 0.000000 2.011930 
# 
# From -- ./inp_files/4140.got.cif
#   From: 2010.03.12/outbox.cif.g09.slc.cpg/sg126_3_cif.got.tgz:4140.got - 2010.04.06 16:55:23.
