data_PCOD8313416
_publ_section_title
;
Structure prediction by ZEFSAII (Michael W. Deem and Ramdas Pophale) SiO2 
 PCOD8313416
Probable space group: P 4/N B M
;
_chemical_formula_sum "Si O2"
_cell_formula_units_Z 96
_cell_length_a 22.482361
_cell_length_b 22.482361
_cell_length_c 10.493661
_cell_angle_alpha 90.000000
_cell_angle_beta 90.000000
_cell_angle_gamma 90.000000
_cell_volume 5304.089750
_symmetry_space_group_name_H-M "P 4/N B M"
_symmetry_group_IT_number 125
_space_group.IT_coordinate_system_code '2'
_symmetry_cell_setting 'tetragonal'
loop_
_space_group_symop_operation_xyz
x,y,z
1/2-y,x,z
1/2-x,1/2-y,z
y,1/2-x,z
x,1/2-y,-z
1/2-x,y,-z
y,x,-z
1/2-y,1/2-x,-z
-x,-y,-z
1/2+y,-x,-z
1/2+x,1/2+y,-z
-y,1/2+x,-z
-x,1/2+y,z
1/2+x,-y,z
-y,-x,z
1/2+y,1/2+x,z
loop_
_atom_site_type_symbol
_atom_site_label
_atom_site_fract_x
_atom_site_fract_y
_atom_site_fract_z
Si Si1 0.317611 0.413952 0.000001
Si Si2 0.881319 0.381319 0.770670
Si Si3 0.818579 0.995854 0.237762
Si Si4 0.495854 0.318579 0.762236
Si Si5 0.618681 0.118681 0.229332
Si Si6 0.632713 0.967712 0.500001
Si Si7 0.181466 0.818535 0.000000
Si Si8 0.895736 0.104265 0.499999
O O1 0.333017 0.451085 0.125109
O O2 0.250000 0.393553 0.000000
O O3 0.354190 0.354190 0.000000
O O4 0.333017 0.451087 0.874895
O O5 0.865492 0.450758 0.786229
O O6 0.865038 0.365038 0.623324
O O7 0.844311 0.344311 0.870751
O O8 0.750000 0.018876 0.231855
O O9 0.828275 0.960963 0.371316
O O10 0.549241 0.365492 0.786226
O O11 0.460964 0.328274 0.628680
O O12 0.655688 0.155688 0.129249
O O13 0.634962 0.134962 0.376678
O O14 0.579206 0.920795 0.500000
O O15 0.609576 0.034144 0.500002
O O16 0.166312 0.750000 0.000000
#
# Coordination Sequence:
#
# PCOD8313416 Si02
#       8
#    16   8  16  16   8  16   8   8
#     4  10  21  37  55  77 105 137 175 218 266 320
#     4  10  19  35  54  76 104 140 176 216 268 318
#     4  10  20  34  53  77 106 139 176 219 265 316
#     4  10  20  34  53  77 106 139 176 219 265 316
#     4  10  19  35  54  76 104 140 176 216 268 318
#     4  10  18  31  51  75 103 133 168 209 259 315
#     4  11  22  34  50  72  99 136 184 232 271 312
#     4   8  19  32  50  75 100 130 166 209 256 318
#
# _framework density 18.099242
#
# number of rings (size 3 to 8) (size 9 to 14) (size 15 to 20)
#    0.000    2.083    0.000    3.750    0.000    1.500 
#    0.000    5.833    0.000    1.000    0.000    0.000 
#    0.000   12.000    0.000    0.000    0.000    0.000 
#
# Total GULP energy -1189677.306463 kJ/mol
# GULP energy per Si atom -12392.471942 kJ/mol
# Density = 1.805805 g / cm^3
# Si number density = 18.099242 Si / 1000 Ang^3
#
#
#
# Elastic Constant Matrix: (Units=GPa)
#
#
# Indices 1 2 3 4 5 6 
#
# 1 75.7930 71.4462 72.8624 0.0000 0.0000 0.0000
# 2 71.4462 75.7826 72.8713 0.0000 0.0000 0.0000
# 3 72.8624 72.8713 173.1111 0.0000 0.0000 0.0000
# 4 0.0000 0.0000 0.0000 22.5615 0.0000 0.0000
# 5 0.0000 0.0000 0.0000 0.0000 22.5635 0.0000
# 6 0.0000 0.0000 0.0000 0.0000 0.0000 37.6850
#
#
#
# Elastic Compliance Matrix: (Units=1/GPa)
#
#
# Indices 1 2 3 4 5 6 
#
# 1 0.120964 -0.109345 -0.004885 0.000000 0.000000 0.000000
# 2 -0.109345 0.121011 -0.004917 0.000000 0.000000 0.000000
# 3 -0.004885 -0.004917 0.009902 0.000000 0.000000 0.000000
# 4 0.000000 0.000000 0.000000 0.044323 0.000000 0.000000
# 5 0.000000 0.000000 0.000000 0.000000 0.044319 0.000000
# 6 0.000000 0.000000 0.000000 0.000000 0.000000 0.026536
#
#
# Mechanical properties :
#
#
# Convention : Reuss Voigt Hill
#
# Bulk Modulus (GPa) = 73.61144 84.33851 78.97498
# Shear Modulus (GPa) = 8.19838 23.72913 15.96375
#
# Velocity S-wave (km/s) = 2.13061 3.62478 2.97309
# Velocity P-wave (km/s) = 6.84193 8.01359 7.45083
#
# Compressibility (1/GPa) = 0.01358484
#
# Stress axis : x y z
#
# Youngs Moduli (GPa) = 8.26695 8.26368 100.98677
#
# Poissons Ratio (x) = 0.90359 0.49329
# Poissons Ratio (y) = 0.90395 0.49652
# Poissons Ratio (z) = 0.04038 0.04063
#
# Static dielectric constant tensor:
#      x y z
#    x 3.230930 0.000000 0.000000 
#    y 0.000000 3.230930 0.000000 
#    z 0.000000 0.000000 4.142830 
# 
# 
# High freq. dielectric constant tensor:
#      x y z
#    x 1.687150 0.000000 0.000000 
#    y 0.000000 1.687150 0.000000 
#    z 0.000000 0.000000 1.733100 
# 
# From -- ./inp_files/4230.got.cif
#   From: 2010.03.12/outbox.cif.g09.slc.cpg/sg125_3_cif.got.tgz:4230.got - 2010.04.06 16:47:52.
