data_PCOD8313083
_publ_section_title
;
Structure prediction by ZEFSAII (Michael W. Deem and Ramdas Pophale) SiO2 
 PCOD8313083
Probable space group: P 4/M C C
;
_chemical_formula_sum "Si O2"
_cell_formula_units_Z 96
_cell_length_a 24.709962
_cell_length_b 24.709962
_cell_length_c 9.141331
_cell_angle_alpha 90.000000
_cell_angle_beta 90.000000
_cell_angle_gamma 90.000000
_cell_volume 5581.534194
_symmetry_space_group_name_H-M "P 4/M C C"
_symmetry_group_IT_number 124
_symmetry_cell_setting 'tetragonal'
loop_
_space_group_symop_operation_xyz
x,y,z
-y,x,z
-x,-y,z
y,-x,z
x,-y,1/2-z
-x,y,1/2-z
y,x,1/2-z
-y,-x,1/2-z
-x,-y,-z
y,-x,-z
x,y,-z
-y,x,-z
-x,y,1/2+z
x,-y,1/2+z
-y,-x,1/2+z
y,x,1/2+z
loop_
_atom_site_type_symbol
_atom_site_label
_atom_site_fract_x
_atom_site_fract_y
_atom_site_fract_z
Si Si1 0.226842 0.844825 0.336524
Si Si2 0.356791 0.052978 0.335204
Si Si3 0.645308 0.157237 0.336607
Si Si4 0.947888 0.227685 0.665116
Si Si5 0.633913 0.555920 0.671682
Si Si6 0.277393 0.354729 0.330049
O O1 0.208829 0.791172 0.250000
O O2 0.202704 0.844433 0.500000
O O3 0.290698 0.847400 0.342566
O O4 0.203695 0.896256 0.249020
O O5 0.379349 0.050648 0.500000
O O6 0.378817 0.108646 0.261733
O O7 0.292369 0.053036 0.334309
O O8 0.378701 0.000000 0.250000
O O9 0.621132 0.150814 0.500000
O O10 0.631328 0.216904 0.271615
O O11 0.948623 0.205595 0.500000
O O12 0.000000 0.205718 0.750000
O O13 0.647219 0.500000 0.750000
O O14 0.581817 0.581817 0.750000
O O15 0.621607 0.547925 0.500000
O O16 0.686202 0.592867 0.698080
O O17 0.302663 0.302663 0.250000
O O18 0.273913 0.339001 0.500000
#
# Coordination Sequence:
#
# PCOD8313083 Si02
#       6
#    16  16  16  16  16  16
#     4  10  18  26  37  54  77 104 134 167 202 242
#     4   9  16  25  38  56  79 110 147 186 224 262
#     4   9  17  28  41  59  85 117 150 183 220 263
#     4   9  16  26  38  51  69  95 128 164 204 248
#     4  10  20  35  54  76 101 129 161 197 238 281
#     4   9  18  31  47  67  93 124 156 191 231 276
#
# _framework density 17.199572
#
# number of rings (size 3 to 8) (size 9 to 14) (size 15 to 20)
#    0.000    2.667    0.000    2.500    0.000    6.167 
#    0.000    0.833    0.000    0.000    0.000    0.000 
#    0.000    1.000    0.000   11.000    0.000    5.000 
#
# Total GULP energy -1190121.760027 kJ/mol
# GULP energy per Si atom -12397.101667 kJ/mol
# Density = 1.716042 g / cm^3
# Si number density = 17.199572 Si / 1000 Ang^3
#
#
#
# Elastic Constant Matrix: (Units=GPa)
#
#
# Indices 1 2 3 4 5 6 
#
# 1 77.2049 17.1789 40.4114 0.0000 0.0000 0.0000
# 2 17.1789 77.2067 40.4115 0.0000 0.0000 0.0000
# 3 40.4114 40.4115 129.6259 0.0000 0.0000 0.0000
# 4 0.0000 0.0000 0.0000 22.7117 0.0000 0.0000
# 5 0.0000 0.0000 0.0000 0.0000 22.7115 0.0000
# 6 0.0000 0.0000 0.0000 0.0000 0.0000 8.4342
#
#
#
# Elastic Compliance Matrix: (Units=1/GPa)
#
#
# Indices 1 2 3 4 5 6 
#
# 1 0.015557 -0.001103 -0.004506 0.000000 0.000000 0.000000
# 2 -0.001103 0.015556 -0.004506 0.000000 0.000000 0.000000
# 3 -0.004506 -0.004506 0.010524 0.000000 0.000000 0.000000
# 4 0.000000 0.000000 0.000000 0.044030 0.000000 0.000000
# 5 0.000000 0.000000 0.000000 0.000000 0.044031 0.000000
# 6 0.000000 0.000000 0.000000 0.000000 0.000000 0.118565
#
#
# Mechanical properties :
#
#
# Convention : Reuss Voigt Hill
#
# Bulk Modulus (GPa) = 46.71335 53.33789 50.02562
# Shear Modulus (GPa) = 18.14044 23.17386 20.65715
#
# Velocity S-wave (km/s) = 3.25114 3.67461 3.46934
# Velocity P-wave (km/s) = 6.42743 7.00587 6.72287
#
# Compressibility (1/GPa) = 0.02140716
#
# Stress axis : x y z
#
# Youngs Moduli (GPa) = 64.28173 64.28346 95.02108
#
# Poissons Ratio (x) = 0.07090 0.42816
# Poissons Ratio (y) = 0.07090 0.42815
# Poissons Ratio (z) = 0.28965 0.28965
#
# Static dielectric constant tensor:
#      x y z
#    x 3.030750 0.000000 0.000000 
#    y 0.000000 3.030750 0.000000 
#    z 0.000000 0.000000 3.484920 
# 
# 
# High freq. dielectric constant tensor:
#      x y z
#    x 1.633430 0.000000 0.000000 
#    y 0.000000 1.633430 0.000000 
#    z 0.000000 0.000000 1.678740 
# 
# From -- ./inp_files/1352.got.cif
#   From: 2010.03.12/outbox.cif.g09.slc.cpg/sg124_1_cif.got.tgz:1352.got - 2010.04.06 16:38:57.
