data_PCOD8313844
_publ_section_title
;
Structure prediction by ZEFSAII (Michael W. Deem and Ramdas Pophale) SiO2 
 PCOD8313844
Probable space group: P 4/M B M
;
_chemical_formula_sum "Si O2"
_cell_formula_units_Z 120
_cell_length_a 24.274176
_cell_length_b 24.274176
_cell_length_c 13.552069
_cell_angle_alpha 90.000000
_cell_angle_beta 90.000000
_cell_angle_gamma 90.000000
_cell_volume 7985.361786
_symmetry_space_group_name_H-M "P 4/M B M"
_symmetry_group_IT_number 127
_symmetry_cell_setting 'tetragonal'
loop_
_space_group_symop_operation_xyz
x,y,z
-y,x,z
-x,-y,z
y,-x,z
1/2+x,1/2-y,-z
1/2-x,1/2+y,-z
1/2+y,1/2+x,-z
1/2-y,1/2-x,-z
-x,-y,-z
y,-x,-z
x,y,-z
-y,x,-z
1/2-x,1/2+y,z
1/2+x,1/2-y,z
1/2-y,1/2-x,z
1/2+y,1/2+x,z
loop_
_atom_site_type_symbol
_atom_site_label
_atom_site_fract_x
_atom_site_fract_y
_atom_site_fract_z
Si Si1 0.394357 0.195228 0.388854
Si Si2 0.804879 0.607230 0.231877
Si Si3 0.117784 0.465107 0.116219
Si Si4 0.955950 0.544051 0.617507
Si Si5 0.178343 0.228506 0.886886
Si Si6 0.741941 0.848907 0.791915
Si Si7 0.020029 0.331710 0.616286
Si Si8 0.165645 0.574311 0.109186
O O1 0.388624 0.215840 0.500000
O O2 0.363517 0.136484 0.372032
O O3 0.363712 0.242652 0.324697
O O4 0.457937 0.187001 0.359397
O O5 0.841602 0.658399 0.272240
O O6 0.834768 0.578494 0.139711
O O7 0.747494 0.628553 0.184710
O O8 0.794820 0.563851 0.321672
O O9 0.059119 0.440882 0.158218
O O10 0.135417 0.523374 0.164844
O O11 0.111244 0.471994 0.000000
O O12 0.957499 0.542502 0.500000
O O13 0.971400 0.605512 0.653919
O O14 0.000000 0.500000 0.659510
O O15 0.224351 0.275650 0.887555
O O16 0.200368 0.171492 0.837272
O O17 0.159478 0.216659 0.000000
O O18 0.698956 0.801045 0.816288
O O19 0.722028 0.906566 0.839827
O O20 0.032588 0.325516 0.500000
O O21 0.124816 0.624816 0.107812
O O22 0.181925 0.554989 0.000000
#
# Coordination Sequence:
#
# PCOD8313844 Si02
#       8
#    16  16  16   8  16  16  16  16
#     4   9  17  28  42  59  81 109 140 173 212 254
#     4  10  18  28  40  54  76 101 135 176 217 255
#     4   9  17  27  38  52  74 105 137 167 204 253
#     4   9  16  26  40  56  77 109 151 191 218 240
#     4   9  17  29  45  61  74  94 129 175 227 275
#     4   9  16  27  42  58  75  94 127 176 222 261
#     4  10  18  28  41  58  82 112 144 178 214 252
#     4   9  16  25  38  55  75 100 131 170 213 251
#
# _framework density 15.027497
#
# number of rings (size 3 to 8) (size 9 to 14) (size 15 to 20)
#    0.000    2.733    0.667    2.000    0.000    5.067 
#    0.000    2.667    0.000    2.400    0.000    0.000 
#    0.000    0.000    0.000    0.000    0.000   10.667 
#
# Total GULP energy -1486658.005715 kJ/mol
# GULP energy per Si atom -12388.816714 kJ/mol
# Density = 1.499329 g / cm^3
# Si number density = 15.027497 Si / 1000 Ang^3
#
#
#
# Elastic Constant Matrix: (Units=GPa)
#
#
# Indices 1 2 3 4 5 6 
#
# 1 50.6321 40.2607 37.6062 0.0000 0.0000 0.0000
# 2 40.2607 50.6321 37.6062 0.0000 0.0000 0.0000
# 3 37.6062 37.6062 69.9938 0.0000 0.0000 0.0000
# 4 0.0000 0.0000 0.0000 22.4931 0.0000 0.0000
# 5 0.0000 0.0000 0.0000 0.0000 22.4931 0.0000
# 6 0.0000 0.0000 0.0000 0.0000 0.0000 26.4344
#
#
#
# Elastic Compliance Matrix: (Units=1/GPa)
#
#
# Indices 1 2 3 4 5 6 
#
# 1 0.058114 -0.038305 -0.010643 0.000000 0.000000 0.000000
# 2 -0.038305 0.058114 -0.010643 0.000000 0.000000 0.000000
# 3 -0.010643 -0.010643 0.025723 0.000000 0.000000 0.000000
# 4 0.000000 0.000000 0.000000 0.044458 0.000000 0.000000
# 5 0.000000 0.000000 0.000000 0.000000 0.044458 0.000000
# 6 0.000000 0.000000 0.000000 0.000000 0.000000 0.037829
#
#
# Mechanical properties :
#
#
# Convention : Reuss Voigt Hill
#
# Bulk Modulus (GPa) = 43.91837 44.68935 44.30386
# Shear Modulus (GPa) = 12.64323 18.00311 15.32317
#
# Velocity S-wave (km/s) = 2.90373 3.46499 3.19670
# Velocity P-wave (km/s) = 6.36640 6.76839 6.57047
#
# Compressibility (1/GPa) = 0.02276952
#
# Stress axis : x y z
#
# Youngs Moduli (GPa) = 17.20755 17.20757 38.87523
#
# Poissons Ratio (x) = 0.65914 0.41374
# Poissons Ratio (y) = 0.65914 0.41374
# Poissons Ratio (z) = 0.18314 0.18314
#
# Static dielectric constant tensor:
#      x y z
#    x 2.749270 0.000000 0.000000 
#    y 0.000000 2.749280 0.000000 
#    z 0.000000 0.000000 3.120930 
# 
# 
# High freq. dielectric constant tensor:
#      x y z
#    x 1.533640 0.000000 0.000000 
#    y 0.000000 1.533640 0.000000 
#    z 0.000000 0.000000 1.595250 
# 
# From -- ./inp_files/4729.got.cif
#   From: 2010.03.12/outbox.cif.g09.slc.cpg/sg127_3_cif.got.tgz:4729.got - 2010.04.06 17:03:15.
