data_PCOD8313713
_publ_section_title
;
Structure prediction by ZEFSAII (Michael W. Deem and Ramdas Pophale) SiO2 
 PCOD8313713
Probable space group: P 4/N N C
;
_chemical_formula_sum "Si O2"
_cell_formula_units_Z 112
_cell_length_a 14.001801
_cell_length_b 14.001801
_cell_length_c 24.676889
_cell_angle_alpha 90.000000
_cell_angle_beta 90.000000
_cell_angle_gamma 90.000000
_cell_volume 4837.914730
_symmetry_space_group_name_H-M "P 4/N N C"
_symmetry_group_IT_number 126
_space_group.IT_coordinate_system_code '2'
_symmetry_cell_setting 'tetragonal'
loop_
_space_group_symop_operation_xyz
x,y,z
1/2-y,x,z
1/2-x,1/2-y,z
y,1/2-x,z
x,1/2-y,1/2-z
1/2-x,y,1/2-z
y,x,1/2-z
1/2-y,1/2-x,1/2-z
-x,-y,-z
1/2+y,-x,-z
1/2+x,1/2+y,-z
-y,1/2+x,-z
-x,1/2+y,1/2+z
1/2+x,-y,1/2+z
-y,-x,1/2+z
1/2+y,1/2+x,1/2+z
loop_
_atom_site_type_symbol
_atom_site_label
_atom_site_fract_x
_atom_site_fract_y
_atom_site_fract_z
Si Si1 0.254247 0.854535 0.086898
Si Si2 0.139403 0.507617 0.737680
Si Si3 0.072085 0.959822 0.883891
Si Si4 0.309738 0.893717 0.297619
Si Si5 0.771886 0.900003 0.830784
Si Si6 0.970276 0.637668 0.931154
Si Si7 0.119649 0.338837 0.955602
O O1 0.250000 0.750000 0.058855
O O2 0.361980 0.895146 0.087199
O O3 0.210748 0.839565 0.146903
O O4 0.180307 0.924355 0.055546
O O5 0.250000 0.496574 0.750000
O O6 0.094888 0.405113 0.750000
O O7 0.105949 0.545980 0.678673
O O8 0.102830 0.579127 0.783872
O O9 0.958289 0.973113 0.894053
O O10 0.123004 0.052294 0.908472
O O11 0.250000 0.841424 0.250000
O O12 0.274668 0.002007 0.299716
O O13 0.670753 0.856468 0.813995
O O14 0.780204 0.917628 0.895753
O O15 0.917413 0.620829 0.987249
O O16 0.118701 0.225113 0.950061
#
# Coordination Sequence:
#
# PCOD8313713 Si02
#       7
#    16  16  16  16  16  16  16
#     4  11  24  43  71 105 144 186 238 294 359 430
#     4  12  28  46  72 100 136 187 239 301 365 430
#     4  12  26  46  72 105 145 187 242 303 368 436
#     4  11  23  39  66  93 140 183 234 278 343 423
#     4  10  21  37  64  99 140 181 225 281 340 418
#     4  11  23  44  73 104 144 186 232 297 362 442
#     4  11  26  47  78 104 139 190 243 301 369 449
#
# _framework density 23.150469000000001
#
# number of rings (size 3 to 8) (size 9 to 14) (size 15 to 20)
#    0.000    0.857    1.429    6.429    6.000    1.286 
#    0.000    0.714    0.000    0.000    0.000    0.000 
#    0.000    0.000    0.000    0.000    0.000    0.000 
#
# Total GULP energy -1388560.558889 kJ/mol
# GULP energy per Si atom -12397.862133 kJ/mol
# Density = 2.309778 g / cm^3
# Si number density = 23.150469 Si / 1000 Ang^3
#
#
#
# Elastic Constant Matrix: (Units=GPa)
#
#
# Indices 1 2 3 4 5 6 
#
# 1 102.3062 16.0821 5.5106 0.0000 0.0000 0.0000
# 2 16.0821 102.3075 5.5099 0.0000 0.0000 0.0000
# 3 5.5106 5.5099 58.3063 0.0000 0.0000 0.0000
# 4 0.0000 0.0000 0.0000 24.0913 0.0000 0.0000
# 5 0.0000 0.0000 0.0000 0.0000 24.0915 0.0000
# 6 0.0000 0.0000 0.0000 0.0000 0.0000 27.8900
#
#
#
# Elastic Compliance Matrix: (Units=1/GPa)
#
#
# Indices 1 2 3 4 5 6 
#
# 1 0.010060 -0.001538 -0.000805 0.000000 0.000000 0.000000
# 2 -0.001538 0.010060 -0.000805 0.000000 0.000000 0.000000
# 3 -0.000805 -0.000805 0.017303 0.000000 0.000000 0.000000
# 4 0.000000 0.000000 0.000000 0.041509 0.000000 0.000000
# 5 0.000000 0.000000 0.000000 0.000000 0.041508 0.000000
# 6 0.000000 0.000000 0.000000 0.000000 0.000000 0.035855
#
#
# Mechanical properties :
#
#
# Convention : Reuss Voigt Hill
#
# Bulk Modulus (GPa) = 32.12848 35.23614 33.68231
# Shear Modulus (GPa) = 28.90729 30.93574 29.92151
#
# Velocity S-wave (km/s) = 3.53749 3.65950 3.59901
# Velocity P-wave (km/s) = 5.53112 5.75408 5.64370
#
# Compressibility (1/GPa) = 0.03112503
#
# Stress axis : x y z
#
# Youngs Moduli (GPa) = 99.40639 99.40774 57.79341
#
# Poissons Ratio (x) = 0.15288 0.04655
# Poissons Ratio (y) = 0.15288 0.04654
# Poissons Ratio (z) = 0.08006 0.08005
#
# Static dielectric constant tensor:
#      x y z
#    x 4.393970 0.000000 0.000000 
#    y 0.000000 4.393990 0.000000 
#    z 0.000000 0.000000 4.099540 
# 
# 
# High freq. dielectric constant tensor:
#      x y z
#    x 1.926080 0.000000 0.000000 
#    y 0.000000 1.926080 0.000000 
#    z 0.000000 0.000000 1.905870 
# 
# From -- ./inp_files/5815.got.cif
#   From: 2010.03.12/outbox.cif.g09.slc.cpg/sg126_3_cif.got.tgz:5815.got - 2010.04.06 16:55:23.
