data_PCOD8313018
_publ_section_title
;
Structure prediction by ZEFSAII (Michael W. Deem and Ramdas Pophale) SiO2 
 PCOD8313018
Probable space group: P 4/M M M
;
_chemical_formula_sum "Si O2"
_cell_formula_units_Z 96
_cell_length_a 14.127961
_cell_length_b 14.127961
_cell_length_c 29.429408
_cell_angle_alpha 90.000000
_cell_angle_beta 90.000000
_cell_angle_gamma 90.000000
_cell_volume 5874.088707
_symmetry_space_group_name_H-M "P 4/M M M"
_symmetry_group_IT_number 123
_symmetry_cell_setting 'tetragonal'
loop_
_space_group_symop_operation_xyz
x,y,z
-y,x,z
-x,-y,z
y,-x,z
x,-y,-z
-x,y,-z
y,x,-z
-y,-x,-z
-x,-y,-z
y,-x,-z
x,y,-z
-y,x,-z
-x,y,z
x,-y,z
-y,-x,z
y,x,z
loop_
_atom_site_type_symbol
_atom_site_label
_atom_site_fract_x
_atom_site_fract_y
_atom_site_fract_z
Si Si1 0.764124 0.390681 0.270573
Si Si2 0.261204 0.108253 0.892504
Si Si3 0.387719 0.105123 0.550100
Si Si4 0.607917 0.242008 0.626309
Si Si5 0.738524 0.891580 0.786644
Si Si6 0.761259 0.608275 0.052908
O O1 0.744719 0.500000 0.257997
O O2 0.667457 0.332544 0.261415
O O3 0.798081 0.380310 0.322747
O O4 0.849168 0.350933 0.240035
O O5 0.165971 0.165971 0.904676
O O6 0.285589 0.116586 0.839590
O O7 0.350230 0.149799 0.919766
O O8 0.244371 0.000000 0.907171
O O9 0.359825 0.144741 0.500000
O O10 0.500000 0.100546 0.554801
O O11 0.345331 0.169533 0.590304
O O12 0.345527 0.000000 0.556131
O O13 0.500000 0.261240 0.613804
O O14 0.657460 0.342541 0.621513
O O15 0.833820 0.833820 0.774457
O O16 0.754876 0.000000 0.771976
O O17 0.744335 0.500000 0.067531
O O18 0.665965 0.665965 0.065019
O O19 0.785818 0.616653 0.000000
#
# Coordination Sequence:
#
# PCOD8313018 Si02
#       6
#    16  16  16  16  16  16
#     4   9  18  31  45  63  88 117 150 186 222 263
#     4   9  18  32  49  69  93 120 149 182 221 266
#     4   8  14  25  40  57  78 105 137 173 211 248
#     4   9  17  28  42  61  85 113 143 174 210 253
#     4   9  18  32  49  69  92 117 146 182 224 269
#     4   9  18  32  49  69  93 121 153 189 227 265
#
# _framework density 16.342960000000001
#
# number of rings (size 3 to 8) (size 9 to 14) (size 15 to 20)
#    0.000    3.167    0.000    0.500    0.000    3.500 
#    0.000    8.333    0.000    0.000    0.000    9.333 
#    0.000    0.333    0.000    1.833    0.000    0.167 
#
# Total GULP energy -1190130.874997 kJ/mol
# GULP energy per Si atom -12397.196615 kJ/mol
# Density = 1.630576 g / cm^3
# Si number density = 16.342960 Si / 1000 Ang^3
#
#
#
# Elastic Constant Matrix: (Units=GPa)
#
#
# Indices 1 2 3 4 5 6 
#
# 1 107.6167 49.7790 50.0176 0.0000 0.0000 0.0000
# 2 49.7790 107.6167 50.0176 0.0000 0.0000 0.0000
# 3 50.0176 50.0176 61.3777 0.0000 0.0000 0.0000
# 4 0.0000 0.0000 0.0000 26.6865 0.0000 0.0000
# 5 0.0000 0.0000 0.0000 0.0000 26.6865 0.0000
# 6 0.0000 0.0000 0.0000 0.0000 0.0000 12.6482
#
#
#
# Elastic Compliance Matrix: (Units=1/GPa)
#
#
# Indices 1 2 3 4 5 6 
#
# 1 0.015235 -0.002055 -0.010740 0.000000 0.000000 0.000000
# 2 -0.002055 0.015235 -0.010740 0.000000 0.000000 0.000000
# 3 -0.010740 -0.010740 0.033797 0.000000 0.000000 0.000000
# 4 0.000000 0.000000 0.000000 0.037472 0.000000 0.000000
# 5 0.000000 0.000000 0.000000 0.000000 0.037472 0.000000
# 6 0.000000 0.000000 0.000000 0.000000 0.000000 0.079062
#
#
# Mechanical properties :
#
#
# Convention : Reuss Voigt Hill
#
# Bulk Modulus (GPa) = 58.15464 64.02659 61.09061
# Shear Modulus (GPa) = 18.44503 21.65737 20.05120
#
# Velocity S-wave (km/s) = 3.36314 3.64425 3.50652
# Velocity P-wave (km/s) = 7.12335 7.54780 7.33865
#
# Compressibility (1/GPa) = 0.01719553
#
# Stress axis : x y z
#
# Youngs Moduli (GPa) = 65.63997 65.63997 29.58832
#
# Poissons Ratio (x) = 0.13490 0.31778
# Poissons Ratio (y) = 0.13490 0.31778
# Poissons Ratio (z) = 0.70498 0.70498
#
# Static dielectric constant tensor:
#      x y z
#    x 3.057490 0.000000 0.000000 
#    y 0.000000 3.057490 0.000000 
#    z 0.000000 0.000000 3.218930 
# 
# 
# High freq. dielectric constant tensor:
#      x y z
#    x 1.615940 0.000000 0.000000 
#    y 0.000000 1.615940 0.000000 
#    z 0.000000 0.000000 1.633250 
# 
# From -- ./inp_files/6466.got.cif
#   From: 2010.03.12/outbox.cif.g09.slc.cpg/sg123_4_cif.got.tgz:6466.got - 2010.04.06 16:26:55.
