data_PCOD8313949
_publ_section_title
;
Structure prediction by ZEFSAII (Michael W. Deem and Ramdas Pophale) SiO2 
 PCOD8313949
Probable space group: P 4/M B M
;
_chemical_formula_sum "Si O2"
_cell_formula_units_Z 96
_cell_length_a 24.024028
_cell_length_b 24.024028
_cell_length_c 8.860732
_cell_angle_alpha 90.000000
_cell_angle_beta 90.000000
_cell_angle_gamma 90.000000
_cell_volume 5114.006220
_symmetry_space_group_name_H-M "P 4/M B M"
_symmetry_group_IT_number 127
_symmetry_cell_setting 'tetragonal'
loop_
_space_group_symop_operation_xyz
x,y,z
-y,x,z
-x,-y,z
y,-x,z
1/2+x,1/2-y,-z
1/2-x,1/2+y,-z
1/2+y,1/2+x,-z
1/2-y,1/2-x,-z
-x,-y,-z
y,-x,-z
x,y,-z
-y,x,-z
1/2-x,1/2+y,z
1/2+x,1/2-y,z
1/2-y,1/2-x,z
1/2+y,1/2+x,z
loop_
_atom_site_type_symbol
_atom_site_label
_atom_site_fract_x
_atom_site_fract_y
_atom_site_fract_z
Si Si1 0.138484 0.724828 0.678805
Si Si2 0.775346 0.184234 0.324525
Si Si3 0.202084 0.930513 0.821711
Si Si4 0.787932 0.485415 0.679914
Si Si5 0.499868 0.912204 0.320689
Si Si6 0.581469 0.533769 0.179274
O O1 0.138219 0.719866 0.500000
O O2 0.171103 0.671103 0.744745
O O3 0.170746 0.780640 0.726512
O O4 0.076155 0.726157 0.741148
O O5 0.778627 0.167801 0.500000
O O6 0.719335 0.219335 0.293063
O O7 0.775114 0.129491 0.224246
O O8 0.139678 0.941879 0.757652
O O9 0.242845 0.975127 0.751395
O O10 0.203140 0.936288 0.000000
O O11 0.784890 0.489496 0.500000
O O12 0.849373 0.501238 0.741151
O O13 0.501969 0.911036 0.500000
O O14 0.444182 0.944182 0.265469
O O15 0.554505 0.945496 0.261815
O O16 0.529935 0.572087 0.236359
O O17 0.582483 0.534043 0.000000
#
# Coordination Sequence:
#
# PCOD8313949 Si02
#       6
#    16  16  16  16  16  16
#     4   8  15  30  54  80 101 129 173 223 268 306
#     4   9  19  37  57  74  98 135 176 216 263 317
#     4  11  23  34  51  79 108 139 174 216 260 311
#     4  10  19  31  50  77 107 137 169 209 257 308
#     4   8  14  26  47  75 102 129 167 211 247 286
#     4   8  16  33  54  73  96 132 176 217 259 309
#
# _framework density 18.771975999999999
#
# number of rings (size 3 to 8) (size 9 to 14) (size 15 to 20)
#    0.000    3.000    0.000    3.000    2.333    3.000 
#    0.000    1.667    0.000    3.000    0.000    5.833 
#    0.000    0.000    0.000    0.000    0.000    0.000 
#
# Total GULP energy -1189915.510889 kJ/mol
# GULP energy per Si atom -12394.953238 kJ/mol
# Density = 1.872925 g / cm^3
# Si number density = 18.771976 Si / 1000 Ang^3
#
#
#
# Elastic Constant Matrix: (Units=GPa)
#
#
# Indices 1 2 3 4 5 6 
#
# 1 167.6632 46.6385 24.6353 0.0000 0.0000 0.0000
# 2 46.6385 167.6632 24.6353 0.0000 0.0000 0.0000
# 3 24.6353 24.6353 22.3351 0.0000 0.0000 0.0000
# 4 0.0000 0.0000 0.0000 14.3411 0.0000 0.0000
# 5 0.0000 0.0000 0.0000 0.0000 14.3411 0.0000
# 6 0.0000 0.0000 0.0000 0.0000 0.0000 25.7764
#
#
#
# Elastic Compliance Matrix: (Units=1/GPa)
#
#
# Indices 1 2 3 4 5 6 
#
# 1 0.007257 -0.001006 -0.006896 0.000000 0.000000 0.000000
# 2 -0.001006 0.007257 -0.006896 0.000000 0.000000 0.000000
# 3 -0.006896 -0.006896 0.059984 0.000000 0.000000 0.000000
# 4 0.000000 0.000000 0.000000 0.069730 0.000000 0.000000
# 5 0.000000 0.000000 0.000000 0.000000 0.069730 0.000000
# 6 0.000000 0.000000 0.000000 0.000000 0.000000 0.038795
#
#
# Mechanical properties :
#
#
# Convention : Reuss Voigt Hill
#
# Bulk Modulus (GPa) = 22.26909 61.05331 41.66120
# Shear Modulus (GPa) = 16.81717 28.34185 22.57951
#
# Velocity S-wave (km/s) = 2.99635 3.88982 3.47195
# Velocity P-wave (km/s) = 4.88462 7.26420 6.18983
#
# Compressibility (1/GPa) = 0.04490529
#
# Stress axis : x y z
#
# Youngs Moduli (GPa) = 137.79350 137.79350 16.67108
#
# Poissons Ratio (x) = 0.13856 0.11496
# Poissons Ratio (y) = 0.13856 0.11496
# Poissons Ratio (z) = 0.95016 0.95016
#
# Static dielectric constant tensor:
#      x y z
#    x 3.768510 0.000000 0.000000 
#    y 0.000000 3.768510 0.000000 
#    z 0.000000 0.000000 2.873430 
# 
# 
# High freq. dielectric constant tensor:
#      x y z
#    x 1.739560 0.000000 0.000000 
#    y 0.000000 1.739560 0.000000 
#    z 0.000000 0.000000 1.670170 
# 
# From -- ./inp_files/1946.got.cif
#   From: 2010.03.12/outbox.cif.g09.slc.cpg/sg127_1_cif.got.tgz:1946.got - 2010.04.06 17:03:15.
