data_PCOD8313710
_publ_section_title
;
Structure prediction by ZEFSAII (Michael W. Deem and Ramdas Pophale) SiO2 
 PCOD8313710
Probable space group: P 4/N N C
;
_chemical_formula_sum "Si O2"
_cell_formula_units_Z 72
_cell_length_a 17.854226
_cell_length_b 17.854226
_cell_length_c 11.033136
_cell_angle_alpha 90.000000
_cell_angle_beta 90.000000
_cell_angle_gamma 90.000000
_cell_volume 3517.070122
_symmetry_space_group_name_H-M "P 4/N N C"
_symmetry_group_IT_number 126
_space_group.IT_coordinate_system_code '2'
_symmetry_cell_setting 'tetragonal'
loop_
_space_group_symop_operation_xyz
x,y,z
1/2-y,x,z
1/2-x,1/2-y,z
y,1/2-x,z
x,1/2-y,1/2-z
1/2-x,y,1/2-z
y,x,1/2-z
1/2-y,1/2-x,1/2-z
-x,-y,-z
1/2+y,-x,-z
1/2+x,1/2+y,-z
-y,1/2+x,-z
-x,1/2+y,1/2+z
1/2+x,-y,1/2+z
-y,-x,1/2+z
1/2+y,1/2+x,1/2+z
loop_
_atom_site_type_symbol
_atom_site_label
_atom_site_fract_x
_atom_site_fract_y
_atom_site_fract_z
Si Si1 0.679646 0.157800 0.508128
Si Si2 0.837020 0.837020 0.250000
Si Si3 0.930554 0.597506 0.035873
Si Si4 0.679359 0.015739 0.666342
Si Si5 0.085238 0.543244 0.118357
O O1 0.660865 0.240324 0.562149
O O2 0.689699 0.099246 0.616742
O O3 0.613794 0.136449 0.416239
O O4 0.750000 0.855268 0.250000
O O5 0.870828 0.869483 0.126783
O O6 0.999641 0.567745 0.114807
O O7 0.894870 0.526109 0.969157
O O8 0.956624 0.662853 0.941673
O O9 0.750000 0.991172 0.750000
O O10 0.603854 0.017487 0.745817
#
# Coordination Sequence:
#
# PCOD8313710 Si02
#       5
#    16   8  16  16  16
#     4  10  21  37  56  91 140 185 221 258 316 391
#     4  11  28  50  70  96 130 174 228 285 346 422
#     4  10  25  42  71  95 130 171 218 283 340 404
#     4  11  22  40  66  97 133 177 220 278 331 401
#     4  10  22  41  64 101 132 166 222 273 330 399
#
# _framework density 20.471585000000001
#
# number of rings (size 3 to 8) (size 9 to 14) (size 15 to 20)
#    0.000    1.667    2.222    0.667   12.444    0.889 
#    0.000    0.000    0.000    0.000    0.000    0.000 
#    0.000    0.000    0.000    0.000    0.000    0.000 
#
# Total GULP energy -892652.494357 kJ/mol
# GULP energy per Si atom -12397.951311 kJ/mol
# Density = 2.042499 g / cm^3
# Si number density = 20.471585 Si / 1000 Ang^3
#
#
#
# Elastic Constant Matrix: (Units=GPa)
#
#
# Indices 1 2 3 4 5 6 
#
# 1 70.8676 79.4977 48.0515 0.0000 0.0000 0.0000
# 2 79.4977 70.8676 48.0515 0.0000 0.0000 0.0000
# 3 48.0515 48.0515 108.6500 0.0000 0.0000 0.0000
# 4 0.0000 0.0000 0.0000 33.2456 0.0000 0.0000
# 5 0.0000 0.0000 0.0000 0.0000 33.2456 0.0000
# 6 0.0000 0.0000 0.0000 0.0000 0.0000 26.8860
#
#
#
# Elastic Compliance Matrix: (Units=1/GPa)
#
#
# Indices 1 2 3 4 5 6 
#
# 1 -0.053301 0.062572 -0.004100 0.000000 0.000000 0.000000
# 2 0.062572 -0.053301 -0.004100 0.000000 0.000000 0.000000
# 3 -0.004100 -0.004100 0.012831 0.000000 0.000000 0.000000
# 4 0.000000 0.000000 0.000000 0.030079 0.000000 0.000000
# 5 0.000000 0.000000 0.000000 0.000000 0.030079 0.000000
# 6 0.000000 0.000000 0.000000 0.000000 0.000000 0.037194
#
#
# Mechanical properties :
#
#
# Convention : Reuss Voigt Hill
#
# Bulk Modulus (GPa) = 66.79210 66.84295 66.81752
# Shear Modulus (GPa) = -49.91340 23.66108 -13.12616
#
# Velocity S-wave (km/s) = -4.94315 3.40340 -2.53492
# Velocity P-wave (km/s) = 0.34341 6.94022 4.91348
#
# Compressibility (1/GPa) = 0.01497183
#
# Stress axis : x y z
#
# Youngs Moduli (GPa) = -18.76121 -18.76121 77.93886
#
# Poissons Ratio (x) = 1.17394 0.31956
# Poissons Ratio (y) = 1.17394 0.31956
# Poissons Ratio (z) = -0.07692 -0.07692
#
# Static dielectric constant tensor:
#      x y z
#    x 3.803880 0.000000 0.000000 
#    y 0.000000 3.803880 0.000000 
#    z 0.000000 0.000000 3.572240 
# 
# 
# High freq. dielectric constant tensor:
#      x y z
#    x 1.805430 0.000000 0.000000 
#    y 0.000000 1.805430 0.000000 
#    z 0.000000 0.000000 1.792870 
# 
# From -- ./inp_files/2692.got.cif
#   From: 2010.03.12/outbox.cif.g09.slc.cpg/sg126_2_cif.got.tgz:2692.got - 2010.04.06 16:55:23.
