data_PCOD8313402
_publ_section_title
;
Structure prediction by ZEFSAII (Michael W. Deem and Ramdas Pophale) SiO2 
 PCOD8313402
Probable space group: P 4/N B M
;
_chemical_formula_sum "Si O2"
_cell_formula_units_Z 112
_cell_length_a 21.335849
_cell_length_b 21.335849
_cell_length_c 16.839731
_cell_angle_alpha 90.000000
_cell_angle_beta 90.000000
_cell_angle_gamma 90.000000
_cell_volume 7665.756287
_symmetry_space_group_name_H-M "P 4/N B M"
_symmetry_group_IT_number 125
_space_group.IT_coordinate_system_code '2'
_symmetry_cell_setting 'tetragonal'
loop_
_space_group_symop_operation_xyz
x,y,z
1/2-y,x,z
1/2-x,1/2-y,z
y,1/2-x,z
x,1/2-y,-z
1/2-x,y,-z
y,x,-z
1/2-y,1/2-x,-z
-x,-y,-z
1/2+y,-x,-z
1/2+x,1/2+y,-z
-y,1/2+x,-z
-x,1/2+y,z
1/2+x,-y,z
-y,-x,z
1/2+y,1/2+x,z
loop_
_atom_site_type_symbol
_atom_site_label
_atom_site_fract_x
_atom_site_fract_y
_atom_site_fract_z
Si Si1 0.656559 0.052062 0.781449
Si Si2 0.425423 0.470488 0.688125
Si Si3 0.197941 0.697941 0.823976
Si Si4 0.782720 0.111741 0.079527
Si Si5 0.031208 0.632624 0.455839
Si Si6 0.197778 0.697778 0.647017
Si Si7 0.377140 0.980596 0.637892
Si Si8 0.746578 0.430283 0.363102
O O1 0.601581 0.101581 0.780185
O O2 0.687296 0.054025 0.869654
O O3 0.705125 0.076668 0.715732
O O4 0.626994 0.983652 0.757643
O O5 0.480176 0.519825 0.699181
O O6 0.392996 0.478055 0.602876
O O7 0.458787 0.402457 0.687396
O O8 0.250000 0.750000 0.815772
O O9 0.138722 0.725553 0.869621
O O10 0.177737 0.677737 0.736160
O O11 0.834326 0.165675 0.060156
O O12 0.750000 0.085221 0.000000
O O13 0.096539 0.596539 0.440369
O O14 0.006020 0.620975 0.543807
O O15 0.042507 0.705939 0.436132
O O16 0.250000 0.750000 0.642951
O O17 0.135437 0.724491 0.605386
O O18 0.418363 0.918363 0.657066
O O19 0.304789 0.974193 0.661691
#
# Coordination Sequence:
#
# PCOD8313402 Si02
#       8
#    16  16   8  16  16   8  16  16
#     4   9  17  28  41  56  76 104 135 164 201 245
#     4   8  15  28  43  54  65  95 133 174 210 235
#     4   9  16  22  32  50  75 105 135 163 189 231
#     4  10  16  22  34  55  81 106 133 167 203 240
#     4   9  17  28  41  52  71  98 132 170 208 242
#     4  11  18  26  36  48  76 117 143 155 191 248
#     4  10  18  27  38  54  74  95 133 173 207 232
#     4  11  18  26  36  55  77 104 132 165 199 246
#
# _framework density 14.610429999999999
#
# number of rings (size 3 to 8) (size 9 to 14) (size 15 to 20)
#    0.000    2.429    2.857    3.000    0.000    1.714 
#    0.000    0.000    0.000    0.000    0.000    1.000 
#    0.000   14.857    0.000   22.857    0.000    0.000 
#
# Total GULP energy -1387521.977305 kJ/mol
# GULP energy per Si atom -12388.589083 kJ/mol
# Density = 1.457718 g / cm^3
# Si number density = 14.610430 Si / 1000 Ang^3
#
#
#
# Elastic Constant Matrix: (Units=GPa)
#
#
# Indices 1 2 3 4 5 6 
#
# 1 48.8903 31.5430 12.3562 0.0000 0.0000 0.0000
# 2 31.5430 48.8903 12.3562 0.0000 0.0000 0.0000
# 3 12.3562 12.3562 49.7550 0.0000 0.0000 0.0000
# 4 0.0000 0.0000 0.0000 15.0340 0.0000 0.0000
# 5 0.0000 0.0000 0.0000 0.0000 15.0340 0.0000
# 6 0.0000 0.0000 0.0000 0.0000 0.0000 15.2615
#
#
#
# Elastic Compliance Matrix: (Units=1/GPa)
#
#
# Indices 1 2 3 4 5 6 
#
# 1 0.035553 -0.022093 -0.003343 0.000000 0.000000 0.000000
# 2 -0.022093 0.035553 -0.003343 0.000000 0.000000 0.000000
# 3 -0.003343 -0.003343 0.021759 0.000000 0.000000 0.000000
# 4 0.000000 0.000000 0.000000 0.066516 0.000000 0.000000
# 5 0.000000 0.000000 0.000000 0.000000 0.066516 0.000000
# 6 0.000000 0.000000 0.000000 0.000000 0.000000 0.065525
#
#
# Mechanical properties :
#
#
# Convention : Reuss Voigt Hill
#
# Bulk Modulus (GPa) = 28.32247 28.89404 28.60826
# Shear Modulus (GPa) = 13.86015 15.15124 14.50570
#
# Velocity S-wave (km/s) = 3.08335 3.22377 3.15434
# Velocity P-wave (km/s) = 5.66598 5.80311 5.73496
#
# Compressibility (1/GPa) = 0.03530765
#
# Stress axis : x y z
#
# Youngs Moduli (GPa) = 28.12720 28.12720 45.95868
#
# Poissons Ratio (x) = 0.62142 0.15362
# Poissons Ratio (y) = 0.62142 0.15362
# Poissons Ratio (z) = 0.09402 0.09402
#
# Static dielectric constant tensor:
#      x y z
#    x 2.873490 0.000000 0.000000 
#    y 0.000000 2.873490 0.000000 
#    z 0.000000 0.000000 2.915870 
# 
# 
# High freq. dielectric constant tensor:
#      x y z
#    x 1.527850 0.000000 0.000000 
#    y 0.000000 1.527850 0.000000 
#    z 0.000000 0.000000 1.544590 
# 
# From -- ./inp_files/5611.got.cif
#   From: 2010.03.12/outbox.cif.g09.slc.cpg/sg125_3_cif.got.tgz:5611.got - 2010.04.06 16:47:52.
