data_PCOD8313622
_publ_section_title
;
Structure prediction by ZEFSAII (Michael W. Deem and Ramdas Pophale) SiO2 
 PCOD8313622
Probable space group: P 4/N B M
;
_chemical_formula_sum "Si O2"
_cell_formula_units_Z 40
_cell_length_a 15.207485
_cell_length_b 15.207485
_cell_length_c 7.493852
_cell_angle_alpha 90.000000
_cell_angle_beta 90.000000
_cell_angle_gamma 90.000000
_cell_volume 1733.085167
_symmetry_space_group_name_H-M "P 4/N B M"
_symmetry_group_IT_number 125
_space_group.IT_coordinate_system_code '2'
_symmetry_cell_setting 'tetragonal'
loop_
_space_group_symop_operation_xyz
x,y,z
1/2-y,x,z
1/2-x,1/2-y,z
y,1/2-x,z
x,1/2-y,-z
1/2-x,y,-z
y,x,-z
1/2-y,1/2-x,-z
-x,-y,-z
1/2+y,-x,-z
1/2+x,1/2+y,-z
-y,1/2+x,-z
-x,1/2+y,z
1/2+x,-y,z
-y,-x,z
1/2+y,1/2+x,z
loop_
_atom_site_type_symbol
_atom_site_label
_atom_site_fract_x
_atom_site_fract_y
_atom_site_fract_z
Si Si1 0.840682 0.858858 0.793632
Si Si2 0.250000 0.608938 0.000000
Si Si3 0.675211 0.468668 0.647133
O O1 0.737639 0.871047 0.740620
O O2 0.880310 0.939684 0.677153
O O3 0.866817 0.866817 0.000000
O O4 0.277788 0.548193 0.163731
O O5 0.169128 0.669128 0.064857
O O6 0.750000 0.475239 0.500000
O O7 0.608511 0.391490 0.593352
#
# Coordination Sequence:
#
# PCOD8313622 Si02
#       3
#    16   8  16
#     4   9  19  39  65  90 121 163 210 263 329 397
#     4   9  18  34  56  81 116 166 216 263 320 382
#     4  11  23  39  62  93 129 169 217 270 323 385
#
# _framework density 23.080227000000001
#
# number of rings (size 3 to 8) (size 9 to 14) (size 15 to 20)
#    0.000    2.200    0.000    4.800    0.000    4.400 
#    0.000    8.000    0.000    0.000    0.000    0.000 
#    0.000    0.000    0.000    0.000    0.000    0.000 
#
# Total GULP energy -495546.560189 kJ/mol
# GULP energy per Si atom -12388.664005 kJ/mol
# Density = 2.302770 g / cm^3
# Si number density = 23.080227 Si / 1000 Ang^3
#
#
#
# Elastic Constant Matrix: (Units=GPa)
#
#
# Indices 1 2 3 4 5 6 
#
# 1 90.6558 22.2849 43.3739 0.0000 0.0000 0.0000
# 2 22.2849 90.6558 43.3739 0.0000 0.0000 0.0000
# 3 43.3739 43.3739 88.3693 0.0000 0.0000 0.0000
# 4 0.0000 0.0000 0.0000 31.6249 0.0000 0.0000
# 5 0.0000 0.0000 0.0000 0.0000 31.6249 0.0000
# 6 0.0000 0.0000 0.0000 0.0000 0.0000 9.7613
#
#
#
# Elastic Compliance Matrix: (Units=1/GPa)
#
#
# Indices 1 2 3 4 5 6 
#
# 1 0.014419 -0.000207 -0.006976 0.000000 0.000000 0.000000
# 2 -0.000207 0.014419 -0.006976 0.000000 0.000000 0.000000
# 3 -0.006976 -0.006976 0.018164 0.000000 0.000000 0.000000
# 4 0.000000 0.000000 0.000000 0.031621 0.000000 0.000000
# 5 0.000000 0.000000 0.000000 0.000000 0.031621 0.000000
# 6 0.000000 0.000000 0.000000 0.000000 0.000000 0.102445
#
#
# Mechanical properties :
#
#
# Convention : Reuss Voigt Hill
#
# Bulk Modulus (GPa) = 53.51787 54.19407 53.85597
# Shear Modulus (GPa) = 20.22381 25.31212 22.76797
#
# Velocity S-wave (km/s) = 2.96335 3.31524 3.14422
# Velocity P-wave (km/s) = 5.91157 6.17949 6.04702
#
# Compressibility (1/GPa) = 0.01868535
#
# Stress axis : x y z
#
# Youngs Moduli (GPa) = 69.35251 69.35251 55.05454
#
# Poissons Ratio (x) = 0.01436 0.38404
# Poissons Ratio (y) = 0.01436 0.38404
# Poissons Ratio (z) = 0.48378 0.48378
#
# Static dielectric constant tensor:
#      x y z
#    x 4.221550 0.000000 0.000000 
#    y 0.000000 4.221550 0.000000 
#    z 0.000000 0.000000 4.022740 
# 
# 
# High freq. dielectric constant tensor:
#      x y z
#    x 1.910060 0.000000 0.000000 
#    y 0.000000 1.910060 0.000000 
#    z 0.000000 0.000000 1.909620 
# 
# From -- ./inp_files/1659.got.cif
#   From: 2010.03.12/outbox.cif.g09.slc.cpg/sg125_1_cif.got.tgz:1659.got - 2010.04.06 16:47:52.
