data_PCOD8313929
_publ_section_title
;
Structure prediction by ZEFSAII (Michael W. Deem and Ramdas Pophale) SiO2 
 PCOD8313929
Probable space group: P 4/M B M
;
_chemical_formula_sum "Si O2"
_cell_formula_units_Z 104
_cell_length_a 26.783902
_cell_length_b 26.783902
_cell_length_c 8.177770
_cell_angle_alpha 90.000000
_cell_angle_beta 90.000000
_cell_angle_gamma 90.000000
_cell_volume 5866.547432
_symmetry_space_group_name_H-M "P 4/M B M"
_symmetry_group_IT_number 127
_symmetry_cell_setting 'tetragonal'
loop_
_space_group_symop_operation_xyz
x,y,z
-y,x,z
-x,-y,z
y,-x,z
1/2+x,1/2-y,-z
1/2-x,1/2+y,-z
1/2+y,1/2+x,-z
1/2-y,1/2-x,-z
-x,-y,-z
y,-x,-z
x,y,-z
-y,x,-z
1/2-x,1/2+y,z
1/2+x,1/2-y,z
1/2-y,1/2-x,z
1/2+y,1/2+x,z
loop_
_atom_site_type_symbol
_atom_site_label
_atom_site_fract_x
_atom_site_fract_y
_atom_site_fract_z
Si Si1 0.372173 0.420007 0.692244
Si Si2 0.629924 0.792619 0.190870
Si Si3 0.503088 0.289647 0.690157
Si Si4 0.812947 0.479436 0.190179
Si Si5 0.564949 0.548932 0.000000
Si Si6 0.579694 0.999696 0.307190
Si Si7 0.191120 0.106758 0.687884
O O1 0.387643 0.431601 0.500000
O O2 0.322836 0.450012 0.749905
O O3 0.363854 0.360668 0.711320
O O4 0.413572 0.432754 0.826312
O O5 0.673677 0.826324 0.271602
O O6 0.576457 0.809797 0.265697
O O7 0.639415 0.734198 0.225974
O O8 0.629595 0.802322 0.000000
O O9 0.500619 0.296827 0.500000
O O10 0.512800 0.231717 0.734632
O O11 0.449901 0.309377 0.763791
O O12 0.866385 0.503682 0.225383
O O13 0.803012 0.477513 0.000000
O O14 0.509787 0.569656 0.000000
O O15 0.586157 0.998483 0.500000
O O16 0.550082 0.949919 0.248820
O O17 0.548277 0.048277 0.253169
O O18 0.205971 0.102353 0.500000
#
# Coordination Sequence:
#
# PCOD8313929 Si02
#       7
#    16  16  16  16   8  16  16
#     4  10  21  37  56  77 106 141 178 222 265 314
#     4   9  18  31  47  71 103 134 162 202 260 313
#     4   9  18  33  52  73  99 132 170 211 257 308
#     4  10  19  30  48  74 103 132 167 212 255 306
#     4  11  24  36  52  80 107 138 178 213 261 324
#     4   9  18  32  49  70  99 136 173 207 250 306
#     4   9  18  32  51  75  98 129 171 210 255 306
#
# _framework density 17.727632
#
# number of rings (size 3 to 8) (size 9 to 14) (size 15 to 20)
#    0.000    2.538    0.000    2.308    2.154    4.000 
#    0.000    1.538    0.000    0.923    0.000    2.154 
#    0.000    0.000    0.000    0.000    0.000    0.000 
#
# Total GULP energy -1288746.756278 kJ/mol
# GULP energy per Si atom -12391.795733 kJ/mol
# Density = 1.768728 g / cm^3
# Si number density = 17.727632 Si / 1000 Ang^3
#
#
#
# Elastic Constant Matrix: (Units=GPa)
#
#
# Indices 1 2 3 4 5 6 
#
# 1 102.6219 34.1951 12.7529 0.0000 0.0000 0.0000
# 2 34.1951 102.6219 12.7529 0.0000 0.0000 0.0000
# 3 12.7529 12.7529 34.1221 0.0000 0.0000 0.0000
# 4 0.0000 0.0000 0.0000 22.5454 0.0000 0.0000
# 5 0.0000 0.0000 0.0000 0.0000 22.5454 0.0000
# 6 0.0000 0.0000 0.0000 0.0000 0.0000 34.6090
#
#
#
# Elastic Compliance Matrix: (Units=1/GPa)
#
#
# Indices 1 2 3 4 5 6 
#
# 1 0.011235 -0.003379 -0.002936 0.000000 0.000000 0.000000
# 2 -0.003379 0.011235 -0.002936 0.000000 0.000000 0.000000
# 3 -0.002936 -0.002936 0.031501 0.000000 0.000000 0.000000
# 4 0.000000 0.000000 0.000000 0.044355 0.000000 0.000000
# 5 0.000000 0.000000 0.000000 0.000000 0.044355 0.000000
# 6 0.000000 0.000000 0.000000 0.000000 0.000000 0.028894
#
#
# Mechanical properties :
#
#
# Convention : Reuss Voigt Hill
#
# Bulk Modulus (GPa) = 28.19361 39.86309 34.02835
# Shear Modulus (GPa) = 24.76453 27.91765 26.34109
#
# Velocity S-wave (km/s) = 3.74163 3.97269 3.85889
# Velocity P-wave (km/s) = 5.88257 6.60138 6.25232
#
# Compressibility (1/GPa) = 0.03546903
#
# Stress axis : x y z
#
# Youngs Moduli (GPa) = 89.00532 89.00532 31.74470
#
# Poissons Ratio (x) = 0.30074 0.09321
# Poissons Ratio (y) = 0.30074 0.09321
# Poissons Ratio (z) = 0.26135 0.26135
#
# Static dielectric constant tensor:
#      x y z
#    x 3.390900 0.000000 0.000000 
#    y 0.000000 3.390900 0.000000 
#    z 0.000000 0.000000 3.234600 
# 
# 
# High freq. dielectric constant tensor:
#      x y z
#    x 1.673020 0.000000 0.000000 
#    y 0.000000 1.673020 0.000000 
#    z 0.000000 0.000000 1.685190 
# 
# From -- ./inp_files/2326.got.cif
#   From: 2010.03.12/outbox.cif.g09.slc.cpg/sg127_2_cif.got.tgz:2326.got - 2010.04.06 17:03:15.
