data_PCOD8313692
_publ_section_title
;
Structure prediction by ZEFSAII (Michael W. Deem and Ramdas Pophale) SiO2 
 PCOD8313692
Probable space group: P 4/N N C
;
_chemical_formula_sum "Si O2"
_cell_formula_units_Z 40
_cell_length_a 12.533876
_cell_length_b 12.533876
_cell_length_c 11.650583
_cell_angle_alpha 90.000000
_cell_angle_beta 90.000000
_cell_angle_gamma 90.000000
_cell_volume 1830.283843
_symmetry_space_group_name_H-M "P 4/N N C"
_symmetry_group_IT_number 126
_space_group.IT_coordinate_system_code '2'
_symmetry_cell_setting 'tetragonal'
loop_
_space_group_symop_operation_xyz
x,y,z
1/2-y,x,z
1/2-x,1/2-y,z
y,1/2-x,z
x,1/2-y,1/2-z
1/2-x,y,1/2-z
y,x,1/2-z
1/2-y,1/2-x,1/2-z
-x,-y,-z
1/2+y,-x,-z
1/2+x,1/2+y,-z
-y,1/2+x,-z
-x,1/2+y,1/2+z
1/2+x,-y,1/2+z
-y,-x,1/2+z
1/2+y,1/2+x,1/2+z
loop_
_atom_site_type_symbol
_atom_site_label
_atom_site_fract_x
_atom_site_fract_y
_atom_site_fract_z
Si Si1 0.686927 0.378295 0.436460
Si Si2 0.934881 0.250000 0.250000
Si Si3 0.194862 0.417711 0.053251
O O1 0.815284 0.360566 0.450147
O O2 0.639367 0.334202 0.318257
O O3 0.664405 0.504926 0.446612
O O4 0.012636 0.181424 0.168012
O O5 0.116756 0.318442 0.048560
#
# Coordination Sequence:
#
# PCOD8313692 Si02
#       3
#    16   8  16
#     4   9  20  36  56  85 125 159 197 250 302 356
#     4  10  20  36  58  86 122 163 206 249 300 358
#     4  10  21  38  61  92 126 158 199 251 303 358
#
# _framework density 21.854531999999999
#
# number of rings (size 3 to 8) (size 9 to 14) (size 15 to 20)
#    0.000    2.400    0.000    1.200    0.000   20.800 
#    0.000    8.000    0.000    0.000    0.000   33.600 
#    0.000  320.000    0.000    0.000    0.000    0.000 
#
# Total GULP energy -495545.528617 kJ/mol
# GULP energy per Si atom -12388.638215 kJ/mol
# Density = 2.180479 g / cm^3
# Si number density = 21.854532 Si / 1000 Ang^3
#
#
#
# Elastic Constant Matrix: (Units=GPa)
#
#
# Indices 1 2 3 4 5 6 
#
# 1 129.5709 46.4976 73.6953 0.0000 0.0000 0.0000
# 2 46.4976 129.5709 73.6953 0.0000 0.0000 0.0000
# 3 73.6953 73.6953 116.8883 0.0000 0.0000 0.0000
# 4 0.0000 0.0000 0.0000 27.0140 0.0000 0.0000
# 5 0.0000 0.0000 0.0000 0.0000 27.0140 0.0000
# 6 0.0000 0.0000 0.0000 0.0000 0.0000 8.9630
#
#
#
# Elastic Compliance Matrix: (Units=1/GPa)
#
#
# Indices 1 2 3 4 5 6 
#
# 1 0.012033 -0.000005 -0.007583 0.000000 0.000000 0.000000
# 2 -0.000005 0.012033 -0.007583 0.000000 0.000000 0.000000
# 3 -0.007583 -0.007583 0.018117 0.000000 0.000000 0.000000
# 4 0.000000 0.000000 0.000000 0.037018 0.000000 0.000000
# 5 0.000000 0.000000 0.000000 0.000000 0.037018 0.000000
# 6 0.000000 0.000000 0.000000 0.000000 0.000000 0.111569
#
#
# Mechanical properties :
#
#
# Convention : Reuss Voigt Hill
#
# Bulk Modulus (GPa) = 84.46051 84.86741 84.66396
# Shear Modulus (GPa) = 19.07844 24.74103 21.90973
#
# Velocity S-wave (km/s) = 2.95782 3.36829 3.16970
# Velocity P-wave (km/s) = 7.09898 7.35148 7.22633
#
# Compressibility (1/GPa) = 0.01183985
#
# Stress axis : x y z
#
# Youngs Moduli (GPa) = 83.10780 83.10780 55.19650
#
# Poissons Ratio (x) = 0.00042 0.41856
# Poissons Ratio (y) = 0.00042 0.41856
# Poissons Ratio (z) = 0.63021 0.63021
#
# Static dielectric constant tensor:
#      x y z
#    x 4.058170 0.000000 0.000000 
#    y 0.000000 4.058170 0.000000 
#    z 0.000000 0.000000 3.819120 
# 
# 
# High freq. dielectric constant tensor:
#      x y z
#    x 1.860140 0.000000 0.000000 
#    y 0.000000 1.860140 0.000000 
#    z 0.000000 0.000000 1.832470 
# 
# From -- ./inp_files/2153.got.cif
#   From: 2010.03.12/outbox.cif.g09.slc.cpg/sg126_2_cif.got.tgz:2153.got - 2010.04.06 16:55:23.
