data_PCOD8313633
_publ_section_title
;
Structure prediction by ZEFSAII (Michael W. Deem and Ramdas Pophale) SiO2 
 PCOD8313633
Probable space group: P 4/N B M
;
_chemical_formula_sum "Si O2"
_cell_formula_units_Z 50
_cell_length_a 16.948926
_cell_length_b 16.948926
_cell_length_c 7.973844
_cell_angle_alpha 90.000000
_cell_angle_beta 90.000000
_cell_angle_gamma 90.000000
_cell_volume 2290.615009
_symmetry_space_group_name_H-M "P 4/N B M"
_symmetry_group_IT_number 125
_space_group.IT_coordinate_system_code '2'
_symmetry_cell_setting 'tetragonal'
loop_
_space_group_symop_operation_xyz
x,y,z
1/2-y,x,z
1/2-x,1/2-y,z
y,1/2-x,z
x,1/2-y,-z
1/2-x,y,-z
y,x,-z
1/2-y,1/2-x,-z
-x,-y,-z
1/2+y,-x,-z
1/2+x,1/2+y,-z
-y,1/2+x,-z
-x,1/2+y,z
1/2+x,-y,z
-y,-x,z
1/2+y,1/2+x,z
loop_
_atom_site_type_symbol
_atom_site_label
_atom_site_fract_x
_atom_site_fract_y
_atom_site_fract_z
Si Si1 0.630749 0.369252 0.858734
Si Si2 0.750000 0.250000 0.000000
Si Si3 0.791357 0.532074 0.179269
Si Si4 0.952025 0.452025 0.858511
Si Si5 0.583166 0.864605 0.317358
O O1 0.666812 0.448305 0.767792
O O2 0.697348 0.302653 0.874226
O O3 0.606906 0.393094 0.047214
O O4 0.728525 0.566158 0.311933
O O5 0.856369 0.601533 0.176900
O O6 0.750000 0.521914 0.000000
O O7 0.903153 0.501219 0.727163
O O8 0.000000 0.500000 0.000000
O O9 0.612575 0.887426 0.500000
#
# Coordination Sequence:
#
# PCOD8313633 Si02
#       5
#     8   2  16   8  16
#     4  12  22  40  72 102 136 173 249 285 351 411
#     4  12  20  36  60 108 134 168 200 312 342 396
#     4  12  23  43  69  99 136 185 238 291 347 434
#     4  12  19  42  67  96 129 183 245 286 334 420
#     4  12  25  41  65 102 143 186 230 297 364 417
#
# _framework density 21.828198
#
# number of rings (size 3 to 8) (size 9 to 14) (size 15 to 20)
#    0.000    0.000    8.000    2.400    0.000    0.640 
#    0.000    3.200    0.000    1.920    0.000    2.240 
#    0.000    0.000    0.000    0.000    0.000    0.000 
#
# Total GULP energy -619516.902678 kJ/mol
# GULP energy per Si atom -12390.338054 kJ/mol
# Density = 2.177852 g / cm^3
# Si number density = 21.828198 Si / 1000 Ang^3
#
#
#
# Elastic Constant Matrix: (Units=GPa)
#
#
# Indices 1 2 3 4 5 6 
#
# 1 136.9911 84.9995 26.4974 0.0000 0.0000 0.0000
# 2 84.9995 136.9911 26.4974 0.0000 0.0000 0.0000
# 3 26.4974 26.4974 72.4953 0.0000 0.0000 0.0000
# 4 0.0000 0.0000 0.0000 47.0305 0.0000 0.0000
# 5 0.0000 0.0000 0.0000 0.0000 47.0305 0.0000
# 6 0.0000 0.0000 0.0000 0.0000 0.0000 60.1515
#
#
#
# Elastic Compliance Matrix: (Units=1/GPa)
#
#
# Indices 1 2 3 4 5 6 
#
# 1 0.012085 -0.007149 -0.001804 0.000000 0.000000 0.000000
# 2 -0.007149 0.012085 -0.001804 0.000000 0.000000 0.000000
# 3 -0.001804 -0.001804 0.015113 0.000000 0.000000 0.000000
# 4 0.000000 0.000000 0.000000 0.021263 0.000000 0.000000
# 5 0.000000 0.000000 0.000000 0.000000 0.021263 0.000000
# 6 0.000000 0.000000 0.000000 0.000000 0.000000 0.016625
#
#
# Mechanical properties :
#
#
# Convention : Reuss Voigt Hill
#
# Bulk Modulus (GPa) = 56.28171 69.16290 62.72231
# Shear Modulus (GPa) = 39.72389 44.74139 42.23264
#
# Velocity S-wave (km/s) = 4.27059 4.53228 4.40338
# Velocity P-wave (km/s) = 7.08217 7.69043 7.39256
#
# Compressibility (1/GPa) = 0.01776776
#
# Stress axis : x y z
#
# Youngs Moduli (GPa) = 82.74988 82.74985 66.16976
#
# Poissons Ratio (x) = 0.59160 0.11936
# Poissons Ratio (y) = 0.59160 0.11936
# Poissons Ratio (z) = 0.14927 0.14927
#
# Static dielectric constant tensor:
#      x y z
#    x 4.543700 0.000000 0.000000 
#    y 0.000000 4.543690 0.000000 
#    z 0.000000 0.000000 3.772990 
# 
# 
# High freq. dielectric constant tensor:
#      x y z
#    x 1.876600 0.000000 0.000000 
#    y 0.000000 1.876600 0.000000 
#    z 0.000000 0.000000 1.824370 
# 
# From -- ./inp_files/1998.got.cif
#   From: 2010.03.12/outbox.cif.g09.slc.cpg/sg125_1_cif.got.tgz:1998.got - 2010.04.06 16:47:52.
