data_PCOD8313180
_publ_section_title
;
Structure prediction by ZEFSAII (Michael W. Deem and Ramdas Pophale) SiO2 
 PCOD8313180
Probable space group: P 4/M C C
;
_chemical_formula_sum "Si O2"
_cell_formula_units_Z 80
_cell_length_a 15.071753
_cell_length_b 15.071753
_cell_length_c 18.763778
_cell_angle_alpha 90.000000
_cell_angle_beta 90.000000
_cell_angle_gamma 90.000000
_cell_volume 4262.337376
_symmetry_space_group_name_H-M "P 4/M C C"
_symmetry_group_IT_number 124
_symmetry_cell_setting 'tetragonal'
loop_
_space_group_symop_operation_xyz
x,y,z
-y,x,z
-x,-y,z
y,-x,z
x,-y,1/2-z
-x,y,1/2-z
y,x,1/2-z
-y,-x,1/2-z
-x,-y,-z
y,-x,-z
x,y,-z
-y,x,-z
-x,y,1/2+z
x,-y,1/2+z
-y,-x,1/2+z
y,x,1/2+z
loop_
_atom_site_type_symbol
_atom_site_label
_atom_site_fract_x
_atom_site_fract_y
_atom_site_fract_z
Si Si1 0.177242 0.196047 0.335301
Si Si2 0.014792 0.245358 0.173489
Si Si3 0.757698 0.475592 0.419010
Si Si4 0.297517 0.669069 0.918537
Si Si5 0.553915 0.076978 0.823629
O O1 0.193597 0.193597 0.250000
O O2 0.194412 0.096048 0.365814
O O3 0.248819 0.262224 0.367610
O O4 0.081082 0.230914 0.363765
O O5 0.042009 0.346906 0.187417
O O6 0.000000 0.199366 0.250000
O O7 0.792140 0.481949 0.500000
O O8 0.722785 0.569988 0.391933
O O9 0.679754 0.403504 0.412242
O O10 0.836428 0.441660 0.370251
O O11 0.266310 0.684411 0.000000
O O12 0.500000 0.094704 0.750000
O O13 0.500000 0.000000 0.865515
#
# Coordination Sequence:
#
# PCOD8313180 Si02
#       5
#    16  16  16  16  16
#     4  10  21  36  59  81 115 145 192 229 282 333
#     4  10  19  35  54  87 110 149 182 234 280 326
#     4  10  22  37  56  81 112 147 186 229 278 331
#     4  10  21  38  56  82 114 148 187 231 278 335
#     4  11  20  33  57  82 115 141 186 230 282 336
#
# _framework density 18.769043
#
# number of rings (size 3 to 8) (size 9 to 14) (size 15 to 20)
#    0.000    1.800    4.000    1.200    2.800    1.200 
#    0.000    6.000    0.000    0.000    0.000    4.200 
#    0.000    0.000    0.000    0.000    0.000    0.000 
#
# Total GULP energy -991253.873704 kJ/mol
# GULP energy per Si atom -12390.673421 kJ/mol
# Density = 1.872632 g / cm^3
# Si number density = 18.769043 Si / 1000 Ang^3
#
#
#
# Elastic Constant Matrix: (Units=GPa)
#
#
# Indices 1 2 3 4 5 6 
#
# 1 139.2108 57.5634 34.3648 0.0000 0.0000 0.0000
# 2 57.5634 139.2108 34.3648 0.0000 0.0000 0.0000
# 3 34.3648 34.3648 37.4589 0.0000 0.0000 0.0000
# 4 0.0000 0.0000 0.0000 20.9215 0.0000 0.0000
# 5 0.0000 0.0000 0.0000 0.0000 20.9215 0.0000
# 6 0.0000 0.0000 0.0000 0.0000 0.0000 36.3509
#
#
#
# Elastic Compliance Matrix: (Units=1/GPa)
#
#
# Indices 1 2 3 4 5 6 
#
# 1 0.009863 -0.002385 -0.006861 0.000000 0.000000 0.000000
# 2 -0.002385 0.009863 -0.006861 0.000000 0.000000 0.000000
# 3 -0.006861 -0.006861 0.039284 0.000000 0.000000 0.000000
# 4 0.000000 0.000000 0.000000 0.047798 0.000000 0.000000
# 5 0.000000 0.000000 0.000000 0.000000 0.047798 0.000000
# 6 0.000000 0.000000 0.000000 0.000000 0.000000 0.027510
#
#
# Mechanical properties :
#
#
# Convention : Reuss Voigt Hill
#
# Bulk Modulus (GPa) = 37.31627 63.16294 50.23960
# Shear Modulus (GPa) = 22.39550 28.27794 25.33672
#
# Velocity S-wave (km/s) = 3.45804 3.88574 3.67811
# Velocity P-wave (km/s) = 5.98908 7.33878 6.69801
#
# Compressibility (1/GPa) = 0.02679797
#
# Stress axis : x y z
#
# Youngs Moduli (GPa) = 101.38907 101.38907 25.45593
#
# Poissons Ratio (x) = 0.24179 0.17464
# Poissons Ratio (y) = 0.24179 0.17464
# Poissons Ratio (z) = 0.69558 0.69558
#
# Static dielectric constant tensor:
#      x y z
#    x 3.666100 0.000000 0.000000 
#    y 0.000000 3.666100 0.000000 
#    z 0.000000 0.000000 3.162560 
# 
# 
# High freq. dielectric constant tensor:
#      x y z
#    x 1.740600 0.000000 0.000000 
#    y 0.000000 1.740600 0.000000 
#    z 0.000000 0.000000 1.692450 
# 
# From -- ./inp_files/5083.got.cif
#   From: 2010.03.12/outbox.cif.g09.slc.cpg/sg124_3_cif.got.tgz:5083.got - 2010.04.06 16:38:57.
