data_PCOD8313220
_publ_section_title
;
Structure prediction by ZEFSAII (Michael W. Deem and Ramdas Pophale) SiO2 
 PCOD8313220
Probable space group: P 4/M C C
;
_chemical_formula_sum "Si O2"
_cell_formula_units_Z 80
_cell_length_a 14.797011
_cell_length_b 14.797011
_cell_length_c 18.815801
_cell_angle_alpha 90.000000
_cell_angle_beta 90.000000
_cell_angle_gamma 90.000000
_cell_volume 4119.748502
_symmetry_space_group_name_H-M "P 4/M C C"
_symmetry_group_IT_number 124
_symmetry_cell_setting 'tetragonal'
loop_
_space_group_symop_operation_xyz
x,y,z
-y,x,z
-x,-y,z
y,-x,z
x,-y,1/2-z
-x,y,1/2-z
y,x,1/2-z
-y,-x,1/2-z
-x,-y,-z
y,-x,-z
x,y,-z
-y,x,-z
-x,y,1/2+z
x,-y,1/2+z
-y,-x,1/2+z
y,x,1/2+z
loop_
_atom_site_type_symbol
_atom_site_label
_atom_site_fract_x
_atom_site_fract_y
_atom_site_fract_z
Si Si1 0.581568 0.064048 0.581036
Si Si2 0.892256 0.312813 0.419392
Si Si3 0.071151 0.121268 0.915305
Si Si4 0.741945 0.605910 0.831192
Si Si5 0.403677 0.248860 0.166777
O O1 0.560776 0.095134 0.500000
O O2 0.602269 0.152656 0.627398
O O3 0.500000 0.000000 0.609349
O O4 0.669032 0.999727 0.584620
O O5 0.857672 0.321854 0.500000
O O6 0.877684 0.211293 0.388753
O O7 0.835225 0.382983 0.373484
O O8 0.967519 0.121596 0.886802
O O9 0.066973 0.123076 0.000000
O O10 0.667745 0.676563 0.861587
O O11 0.708240 0.503357 0.843687
O O12 0.766336 0.619697 0.749039
#
# Coordination Sequence:
#
# PCOD8313220 Si02
#       5
#    16  16  16  16  16
#     4  10  20  36  58  85 115 143 180 234 294 348
#     4  10  20  33  53  84 114 146 188 235 288 344
#     4   8  15  28  46  72 108 146 184 222 266 330
#     4  10  22  39  58  82 113 151 196 242 290 351
#     4  10  22  40  59  83 113 149 195 242 293 351
#
# _framework density 19.418659999999999
#
# number of rings (size 3 to 8) (size 9 to 14) (size 15 to 20)
#    0.000    2.400    2.000    0.600    2.800    2.000 
#    0.000    2.000    0.000    0.000    0.000    2.800 
#    0.000    0.000    0.000    0.000    0.000    0.000 
#
# Total GULP energy -991404.482169 kJ/mol
# GULP energy per Si atom -12392.556027 kJ/mol
# Density = 1.937446 g / cm^3
# Si number density = 19.418660 Si / 1000 Ang^3
#
#
#
# Elastic Constant Matrix: (Units=GPa)
#
#
# Indices 1 2 3 4 5 6 
#
# 1 107.6800 39.1462 39.8351 0.0000 0.0000 0.0000
# 2 39.1462 107.6800 39.8351 0.0000 0.0000 0.0000
# 3 39.8351 39.8351 48.2112 0.0000 0.0000 0.0000
# 4 0.0000 0.0000 0.0000 25.0088 0.0000 0.0000
# 5 0.0000 0.0000 0.0000 0.0000 25.0088 0.0000
# 6 0.0000 0.0000 0.0000 0.0000 0.0000 32.1294
#
#
#
# Elastic Compliance Matrix: (Units=1/GPa)
#
#
# Indices 1 2 3 4 5 6 
#
# 1 0.013469 -0.001123 -0.010201 0.000000 0.000000 0.000000
# 2 -0.001123 0.013469 -0.010201 0.000000 0.000000 0.000000
# 3 -0.010201 -0.010201 0.037600 0.000000 0.000000 0.000000
# 4 0.000000 0.000000 0.000000 0.039986 0.000000 0.000000
# 5 0.000000 0.000000 0.000000 0.000000 0.039986 0.000000
# 6 0.000000 0.000000 0.000000 0.000000 0.000000 0.031124
#
#
# Mechanical properties :
#
#
# Convention : Reuss Voigt Hill
#
# Bulk Modulus (GPa) = 46.53893 55.68933 51.11413
# Shear Modulus (GPa) = 22.13909 26.07972 24.10941
#
# Velocity S-wave (km/s) = 3.38019 3.66870 3.52740
# Velocity P-wave (km/s) = 6.26517 6.83274 6.55510
#
# Compressibility (1/GPa) = 0.02148739
#
# Stress axis : x y z
#
# Youngs Moduli (GPa) = 74.24632 74.24632 26.59605
#
# Poissons Ratio (x) = 0.08335 0.27131
# Poissons Ratio (y) = 0.08335 0.27131
# Poissons Ratio (z) = 0.75739 0.75739
#
# Static dielectric constant tensor:
#      x y z
#    x 3.694160 0.000000 0.000000 
#    y 0.000000 3.694160 0.000000 
#    z 0.000000 0.000000 3.191330 
# 
# 
# High freq. dielectric constant tensor:
#      x y z
#    x 1.761460 0.000000 0.000000 
#    y 0.000000 1.761460 0.000000 
#    z 0.000000 0.000000 1.716160 
# 
# From -- ./inp_files/5113.got.cif
#   From: 2010.03.12/outbox.cif.g09.slc.cpg/sg124_3_cif.got.tgz:5113.got - 2010.04.06 16:38:57.
