data_PCOD8313127
_publ_section_title
;
Structure prediction by ZEFSAII (Michael W. Deem and Ramdas Pophale) SiO2 
 PCOD8313127
Probable space group: P 4/M C C
;
_chemical_formula_sum "Si O2"
_cell_formula_units_Z 88
_cell_length_a 15.837852
_cell_length_b 15.837852
_cell_length_c 21.701796
_cell_angle_alpha 90.000000
_cell_angle_beta 90.000000
_cell_angle_gamma 90.000000
_cell_volume 5443.625469
_symmetry_space_group_name_H-M "P 4/M C C"
_symmetry_group_IT_number 124
_symmetry_cell_setting 'tetragonal'
loop_
_space_group_symop_operation_xyz
x,y,z
-y,x,z
-x,-y,z
y,-x,z
x,-y,1/2-z
-x,y,1/2-z
y,x,1/2-z
-y,-x,1/2-z
-x,-y,-z
y,-x,-z
x,y,-z
-y,x,-z
-x,y,1/2+z
x,-y,1/2+z
-y,-x,1/2+z
y,x,1/2+z
loop_
_atom_site_type_symbol
_atom_site_label
_atom_site_fract_x
_atom_site_fract_y
_atom_site_fract_z
Si Si1 0.144256 0.715957 0.928002
Si Si2 0.677208 0.659225 0.571267
Si Si3 0.058172 0.119420 0.573416
Si Si4 0.490257 0.267498 0.376514
Si Si5 0.358056 0.500000 0.750000
Si Si6 0.533204 0.908872 0.072208
O O1 0.238450 0.703511 0.901576
O O2 0.099218 0.796687 0.896822
O O3 0.088415 0.633246 0.915391
O O4 0.153016 0.732312 0.000000
O O5 0.663518 0.679165 0.500000
O O6 0.600824 0.696441 0.608835
O O7 0.686842 0.558621 0.579732
O O8 0.058565 0.123876 0.500000
O O9 0.961524 0.111537 0.596227
O O10 0.508110 0.293623 0.306656
O O11 0.491148 0.166146 0.387553
O O12 0.416849 0.416849 0.750000
O O13 0.500000 0.000000 0.093912
O O14 0.513097 0.892060 0.000000
#
# Coordination Sequence:
#
# PCOD8313127 Si02
#       6
#    16  16  16  16   8  16
#     4   8  15  26  39  59  89 123 156 190 232 287
#     4  10  19  30  46  70  98 126 160 204 250 304
#     4   8  13  21  34  54  81 114 152 190 224 265
#     4  11  20  34  50  71  98 128 169 206 256 299
#     4  11  22  38  53  72  98 134 173 216 260 301
#     4   9  18  32  49  71 100 132 163 201 252 312
#
# _framework density 16.165697000000002
#
# number of rings (size 3 to 8) (size 9 to 14) (size 15 to 20)
#    0.000    2.636    1.818    3.273    0.000    1.818 
#    0.000    6.818    0.000    0.000    0.000    0.000 
#    0.000    0.000    0.000    0.000    0.000    7.818 
#
# Total GULP energy -1090712.273683 kJ/mol
# GULP energy per Si atom -12394.457655 kJ/mol
# Density = 1.612890 g / cm^3
# Si number density = 16.165697 Si / 1000 Ang^3
#
#
#
# Elastic Constant Matrix: (Units=GPa)
#
#
# Indices 1 2 3 4 5 6 
#
# 1 131.2921 74.5451 23.0864 0.0000 0.0000 0.0000
# 2 74.5451 131.2921 23.0864 0.0000 0.0000 0.0000
# 3 23.0864 23.0864 45.7016 0.0000 0.0000 0.0000
# 4 0.0000 0.0000 0.0000 14.1206 0.0000 0.0000
# 5 0.0000 0.0000 0.0000 0.0000 14.1206 0.0000
# 6 0.0000 0.0000 0.0000 0.0000 0.0000 24.7669
#
#
#
# Elastic Compliance Matrix: (Units=1/GPa)
#
#
# Indices 1 2 3 4 5 6 
#
# 1 0.011551 -0.006072 -0.002768 0.000000 0.000000 0.000000
# 2 -0.006072 0.011551 -0.002768 0.000000 0.000000 0.000000
# 3 -0.002768 -0.002768 0.024677 0.000000 0.000000 0.000000
# 4 0.000000 0.000000 0.000000 0.070818 0.000000 0.000000
# 5 0.000000 0.000000 0.000000 0.000000 0.070818 0.000000
# 6 0.000000 0.000000 0.000000 0.000000 0.000000 0.040377
#
#
# Mechanical properties :
#
#
# Convention : Reuss Voigt Hill
#
# Bulk Modulus (GPa) = 40.70931 61.08018 50.89475
# Shear Modulus (GPa) = 19.14284 23.10614 21.12449
#
# Velocity S-wave (km/s) = 3.44490 3.78475 3.61882
# Velocity P-wave (km/s) = 6.40783 7.54751 7.00090
#
# Compressibility (1/GPa) = 0.02456440
#
# Stress axis : x y z
#
# Youngs Moduli (GPa) = 86.57581 86.57581 40.52294
#
# Poissons Ratio (x) = 0.52565 0.11216
# Poissons Ratio (y) = 0.52565 0.11216
# Poissons Ratio (z) = 0.23962 0.23962
#
# Static dielectric constant tensor:
#      x y z
#    x 3.284600 0.000000 0.000000 
#    y 0.000000 3.284600 0.000000 
#    z 0.000000 0.000000 2.609860 
# 
# 
# High freq. dielectric constant tensor:
#      x y z
#    x 1.628640 0.000000 0.000000 
#    y 0.000000 1.628640 0.000000 
#    z 0.000000 0.000000 1.562860 
# 
# From -- ./inp_files/5992.got.cif
#   From: 2010.03.12/outbox.cif.g09.slc.cpg/sg124_3_cif.got.tgz:5992.got - 2010.04.06 16:38:57.
