data_PCOD8313253
_publ_section_title
;
Structure prediction by ZEFSAII (Michael W. Deem and Ramdas Pophale) SiO2 
 PCOD8313253
Probable space group: P 4/M C C
;
_chemical_formula_sum "Si O2"
_cell_formula_units_Z 88
_cell_length_a 18.206432
_cell_length_b 18.206432
_cell_length_c 14.668855
_cell_angle_alpha 90.000000
_cell_angle_beta 90.000000
_cell_angle_gamma 90.000000
_cell_volume 4862.346480
_symmetry_space_group_name_H-M "P 4/M C C"
_symmetry_group_IT_number 124
_symmetry_cell_setting 'tetragonal'
loop_
_space_group_symop_operation_xyz
x,y,z
-y,x,z
-x,-y,z
y,-x,z
x,-y,1/2-z
-x,y,1/2-z
y,x,1/2-z
-y,-x,1/2-z
-x,-y,-z
y,-x,-z
x,y,-z
-y,x,-z
-x,y,1/2+z
x,-y,1/2+z
-y,-x,1/2+z
y,x,1/2+z
loop_
_atom_site_type_symbol
_atom_site_label
_atom_site_fract_x
_atom_site_fract_y
_atom_site_fract_z
Si Si1 0.424297 0.682071 0.697370
Si Si2 0.085144 0.505374 0.849577
Si Si3 0.690813 0.807909 0.235706
Si Si4 0.649937 0.095623 0.099507
Si Si5 0.385609 0.455465 0.500000
Si Si6 0.071458 0.335565 0.398386
O O1 0.500000 0.697572 0.750000
O O2 0.384332 0.615669 0.750000
O O3 0.375005 0.755662 0.701054
O O4 0.437406 0.661249 0.591162
O O5 0.124493 0.500000 0.750000
O O6 0.108714 0.437414 0.912080
O O7 0.103503 0.581533 0.898574
O O8 0.000000 0.500000 0.831801
O O9 0.765042 0.765042 0.250000
O O10 0.677281 0.842269 0.333999
O O11 0.709519 0.874431 0.166678
O O12 0.667153 0.013089 0.136455
O O13 0.685901 0.106848 0.000000
O O14 0.458642 0.405851 0.500000
O O15 0.076320 0.303383 0.500000
#
# Coordination Sequence:
#
# PCOD8313253 Si02
#       6
#    16  16  16  16   8  16
#     4  11  24  42  57  82 111 141 196 247 299 356
#     4   9  15  27  50  78 106 131 169 223 267 307
#     4  11  25  39  53  79 118 155 177 223 286 344
#     4  10  20  37  59  82 107 141 188 230 272 327
#     4  11  22  40  70  82  94 141 201 277 319 337
#     4  10  20  35  59  84 106 142 188 230 268 326
#
# _framework density 18.098258999999999
#
# number of rings (size 3 to 8) (size 9 to 14) (size 15 to 20)
#    0.000    1.727    3.636    1.091    3.818    3.091 
#    6.545    0.000    0.000    0.000    0.000    0.000 
#    0.000    5.818    0.000   16.000    0.000    0.000 
#
# Total GULP energy -1090408.622801 kJ/mol
# GULP energy per Si atom -12391.007077 kJ/mol
# Density = 1.805707 g / cm^3
# Si number density = 18.098259 Si / 1000 Ang^3
#
#
#
# Elastic Constant Matrix: (Units=GPa)
#
#
# Indices 1 2 3 4 5 6 
#
# 1 84.5678 40.7904 44.8212 0.0000 0.0000 0.0000
# 2 40.7904 84.5683 44.8214 0.0000 0.0000 0.0000
# 3 44.8212 44.8214 134.0426 0.0000 0.0000 0.0000
# 4 0.0000 0.0000 0.0000 24.2076 0.0000 0.0000
# 5 0.0000 0.0000 0.0000 0.0000 24.2076 0.0000
# 6 0.0000 0.0000 0.0000 0.0000 0.0000 18.6163
#
#
#
# Elastic Compliance Matrix: (Units=1/GPa)
#
#
# Indices 1 2 3 4 5 6 
#
# 1 0.016663 -0.006179 -0.003506 0.000000 0.000000 0.000000
# 2 -0.006179 0.016663 -0.003506 0.000000 0.000000 0.000000
# 3 -0.003506 -0.003506 0.009805 0.000000 0.000000 0.000000
# 4 0.000000 0.000000 0.000000 0.041309 0.000000 0.000000
# 5 0.000000 0.000000 0.000000 0.000000 0.041309 0.000000
# 6 0.000000 0.000000 0.000000 0.000000 0.000000 0.053717
#
#
# Mechanical properties :
#
#
# Convention : Reuss Voigt Hill
#
# Bulk Modulus (GPa) = 59.70099 62.67163 61.18631
# Shear Modulus (GPa) = 23.64835 24.92267 24.28551
#
# Velocity S-wave (km/s) = 3.61870 3.71492 3.66713
# Velocity P-wave (km/s) = 7.10766 7.28729 7.19803
#
# Compressibility (1/GPa) = 0.01675014
#
# Stress axis : x y z
#
# Youngs Moduli (GPa) = 60.01179 60.01212 101.99125
#
# Poissons Ratio (x) = 0.37084 0.35755
# Poissons Ratio (y) = 0.37083 0.35755
# Poissons Ratio (z) = 0.21038 0.21038
#
# Static dielectric constant tensor:
#      x y z
#    x 3.241190 0.000000 0.000000 
#    y 0.000000 3.241190 0.000000 
#    z 0.000000 0.000000 3.497340 
# 
# 
# High freq. dielectric constant tensor:
#      x y z
#    x 1.674290 0.000000 0.000000 
#    y 0.000000 1.674290 0.000000 
#    z 0.000000 0.000000 1.718570 
# 
# From -- ./inp_files/3184.got.cif
#   From: 2010.03.12/outbox.cif.g09.slc.cpg/sg124_2_cif.got.tgz:3184.got - 2010.04.06 16:38:57.
