data_PCOD8313248
_publ_section_title
;
Structure prediction by ZEFSAII (Michael W. Deem and Ramdas Pophale) SiO2 
 PCOD8313248
Probable space group: P 4/M C C
;
_chemical_formula_sum "Si O2"
_cell_formula_units_Z 64
_cell_length_a 19.702128
_cell_length_b 19.702128
_cell_length_c 8.568782
_cell_angle_alpha 90.000000
_cell_angle_beta 90.000000
_cell_angle_gamma 90.000000
_cell_volume 3326.177079
_symmetry_space_group_name_H-M "P 4/M C C"
_symmetry_group_IT_number 124
_symmetry_cell_setting 'tetragonal'
loop_
_space_group_symop_operation_xyz
x,y,z
-y,x,z
-x,-y,z
y,-x,z
x,-y,1/2-z
-x,y,1/2-z
y,x,1/2-z
-y,-x,1/2-z
-x,-y,-z
y,-x,-z
x,y,-z
-y,x,-z
-x,y,1/2+z
x,-y,1/2+z
-y,-x,1/2+z
y,x,1/2+z
loop_
_atom_site_type_symbol
_atom_site_label
_atom_site_fract_x
_atom_site_fract_y
_atom_site_fract_z
Si Si1 0.315868 0.930566 0.183174
Si Si2 0.066315 0.167409 0.685700
Si Si3 0.426572 0.673314 0.317073
Si Si4 0.784829 0.682614 0.316462
O O1 0.238020 0.935608 0.226785
O O2 0.340429 0.858635 0.253055
O O3 0.351989 0.000000 0.250000
O O4 0.328113 0.929538 0.000000
O O5 0.132766 0.132766 0.750000
O O6 0.067329 0.175166 0.500000
O O7 0.000000 0.126892 0.750000
O O8 0.500000 0.688657 0.250000
O O9 0.396927 0.603074 0.250000
O O10 0.431563 0.665819 0.500000
O O11 0.378290 0.735300 0.266894
O O12 0.753737 0.753737 0.250000
O O13 0.790975 0.692647 0.500000
#
# Coordination Sequence:
#
# PCOD8313248 Si02
#       4
#    16  16  16  16
#     4  11  21  34  52  75 102 134 172 220 272 324
#     4  11  21  34  48  65  89 120 159 205 258 317
#     4  10  21  37  59  86 119 153 189 226 267 316
#     4  10  20  35  55  81 110 144 183 227 274 326
#
# _framework density 19.241308
#
# number of rings (size 3 to 8) (size 9 to 14) (size 15 to 20)
#    0.000    1.500    0.000    8.250    0.000    3.500 
#    0.000    2.500    0.000    0.750    0.000    5.250 
#    0.000    0.000    0.000    0.000    0.000    0.000 
#
# Total GULP energy -793180.547372 kJ/mol
# GULP energy per Si atom -12393.446053 kJ/mol
# Density = 1.919751 g / cm^3
# Si number density = 19.241308 Si / 1000 Ang^3
#
#
#
# Elastic Constant Matrix: (Units=GPa)
#
#
# Indices 1 2 3 4 5 6 
#
# 1 104.4631 32.9737 38.9494 0.0000 0.0000 0.0000
# 2 32.9737 104.4664 38.9493 0.0000 0.0000 0.0000
# 3 38.9494 38.9493 91.7870 0.0000 0.0000 0.0000
# 4 0.0000 0.0000 0.0000 31.9685 0.0000 0.0000
# 5 0.0000 0.0000 0.0000 0.0000 31.9682 0.0000
# 6 0.0000 0.0000 0.0000 0.0000 0.0000 21.9866
#
#
#
# Elastic Compliance Matrix: (Units=1/GPa)
#
#
# Indices 1 2 3 4 5 6 
#
# 1 0.011784 -0.002204 -0.004065 0.000000 0.000000 0.000000
# 2 -0.002204 0.011784 -0.004065 0.000000 0.000000 0.000000
# 3 -0.004065 -0.004065 0.014345 0.000000 0.000000 0.000000
# 4 0.000000 0.000000 0.000000 0.031281 0.000000 0.000000
# 5 0.000000 0.000000 0.000000 0.000000 0.031281 0.000000
# 6 0.000000 0.000000 0.000000 0.000000 0.000000 0.045482
#
#
# Mechanical properties :
#
#
# Convention : Reuss Voigt Hill
#
# Bulk Modulus (GPa) = 57.99085 58.05127 58.02106
# Shear Modulus (GPa) = 29.00674 29.84094 29.42384
#
# Velocity S-wave (km/s) = 3.88690 3.94239 3.91474
# Velocity P-wave (km/s) = 7.09564 7.13855 7.11713
#
# Compressibility (1/GPa) = 0.01724410
#
# Stress axis : x y z
#
# Youngs Moduli (GPa) = 84.85951 84.86283 69.71090
#
# Poissons Ratio (x) = 0.18702 0.28340
# Poissons Ratio (y) = 0.18701 0.28339
# Poissons Ratio (z) = 0.34499 0.34498
#
# Static dielectric constant tensor:
#      x y z
#    x 3.798580 0.000000 0.000000 
#    y 0.000000 3.798520 0.000000 
#    z 0.000000 0.000000 3.656630 
# 
# 
# High freq. dielectric constant tensor:
#      x y z
#    x 1.737400 0.000000 0.000000 
#    y 0.000000 1.737400 0.000000 
#    z 0.000000 0.000000 1.768230 
# 
# From -- ./inp_files/852.got.cif
#   From: 2010.03.12/outbox.cif.g09.slc.cpg/sg124_1_cif.got.tgz:852.got - 2010.04.06 16:38:57.
