data_PCOD8313842
_publ_section_title
;
Structure prediction by ZEFSAII (Michael W. Deem and Ramdas Pophale) SiO2 
 PCOD8313842
Probable space group: P 4/M B M
;
_chemical_formula_sum "Si O2"
_cell_formula_units_Z 72
_cell_length_a 22.676964
_cell_length_b 22.676964
_cell_length_c 9.700530
_cell_angle_alpha 90.000000
_cell_angle_beta 90.000000
_cell_angle_gamma 90.000000
_cell_volume 4988.446103
_symmetry_space_group_name_H-M "P 4/M B M"
_symmetry_group_IT_number 127
_symmetry_cell_setting 'tetragonal'
loop_
_space_group_symop_operation_xyz
x,y,z
-y,x,z
-x,-y,z
y,-x,z
1/2+x,1/2-y,-z
1/2-x,1/2+y,-z
1/2+y,1/2+x,-z
1/2-y,1/2-x,-z
-x,-y,-z
y,-x,-z
x,y,-z
-y,x,-z
1/2-x,1/2+y,z
1/2+x,1/2-y,z
1/2-y,1/2-x,z
1/2+y,1/2+x,z
loop_
_atom_site_type_symbol
_atom_site_label
_atom_site_fract_x
_atom_site_fract_y
_atom_site_fract_z
Si Si1 0.284534 0.314492 0.847786
Si Si2 0.546306 0.953695 0.663335
Si Si3 0.708854 0.112669 0.340440
Si Si4 0.623392 0.779972 0.838776
Si Si5 0.322183 0.020285 0.662328
O O1 0.235014 0.264987 0.850518
O O2 0.266698 0.365695 0.741607
O O3 0.345308 0.282487 0.804643
O O4 0.290819 0.342667 0.000000
O O5 0.542975 0.957026 0.500000
O O6 0.611174 0.970730 0.714453
O O7 0.500000 0.000000 0.728198
O O8 0.724267 0.119109 0.500000
O O9 0.651215 0.151215 0.302430
O O10 0.696364 0.045697 0.299415
O O11 0.665785 0.834216 0.796809
O O12 0.564790 0.780861 0.746542
O O13 0.607315 0.783787 0.000000
O O14 0.315804 0.033128 0.500000
#
# Coordination Sequence:
#
# PCOD8313842 Si02
#       5
#    16   8  16  16  16
#     4   8  15  28  44  59  76 103 137 171 213 258
#     4   9  16  26  39  55  79 115 151 177 199 232
#     4   9  17  28  41  60  84 109 139 176 210 242
#     4   9  17  29  43  59  81 107 137 176 216 250
#     4  10  18  27  41  61  83 110 145 176 206 244
#
# _framework density 14.433351999999999
#
# number of rings (size 3 to 8) (size 9 to 14) (size 15 to 20)
#    0.000    3.000    1.111    2.000    0.000    4.444 
#    0.000    2.222    0.000    2.667    0.000    0.000 
#    0.000    0.889    0.000    9.778    0.000    7.111 
#
# Total GULP energy -892591.483614 kJ/mol
# GULP energy per Si atom -12397.103939 kJ/mol
# Density = 1.440050 g / cm^3
# Si number density = 14.433352 Si / 1000 Ang^3
#
#
#
# Elastic Constant Matrix: (Units=GPa)
#
#
# Indices 1 2 3 4 5 6 
#
# 1 81.2179 66.4663 51.3963 0.0000 0.0000 0.0000
# 2 66.4663 81.2178 51.3963 0.0000 0.0000 0.0000
# 3 51.3963 51.3963 58.5749 0.0000 0.0000 0.0000
# 4 0.0000 0.0000 0.0000 22.2646 0.0000 0.0000
# 5 0.0000 0.0000 0.0000 0.0000 22.2646 0.0000
# 6 0.0000 0.0000 0.0000 0.0000 0.0000 26.0251
#
#
#
# Elastic Compliance Matrix: (Units=1/GPa)
#
#
# Indices 1 2 3 4 5 6 
#
# 1 0.042592 -0.025197 -0.015263 0.000000 0.000000 0.000000
# 2 -0.025197 0.042592 -0.015263 0.000000 0.000000 0.000000
# 3 -0.015263 -0.015263 0.043857 0.000000 0.000000 0.000000
# 4 0.000000 0.000000 0.000000 0.044914 0.000000 0.000000
# 5 0.000000 0.000000 0.000000 0.000000 0.044914 0.000000
# 6 0.000000 0.000000 0.000000 0.000000 0.000000 0.038424
#
#
# Mechanical properties :
#
#
# Convention : Reuss Voigt Hill
#
# Bulk Modulus (GPa) = 56.83540 62.16982 59.50261
# Shear Modulus (GPa) = 13.34742 17.56098 15.45420
#
# Velocity S-wave (km/s) = 3.04429 3.49190 3.27575
# Velocity P-wave (km/s) = 7.19863 7.70876 7.45806
#
# Compressibility (1/GPa) = 0.01759467
#
# Stress axis : x y z
#
# Youngs Moduli (GPa) = 23.47872 23.47856 22.80155
#
# Poissons Ratio (x) = 0.59160 0.34801
# Poissons Ratio (y) = 0.59160 0.34802
# Poissons Ratio (z) = 0.35835 0.35835
#
# Static dielectric constant tensor:
#      x y z
#    x 2.748230 0.000000 0.000000 
#    y 0.000000 2.748230 0.000000 
#    z 0.000000 0.000000 2.791730 
# 
# 
# High freq. dielectric constant tensor:
#      x y z
#    x 1.531590 0.000000 0.000000 
#    y 0.000000 1.531590 0.000000 
#    z 0.000000 0.000000 1.545620 
# 
# From -- ./inp_files/1733.got.cif
#   From: 2010.03.12/outbox.cif.g09.slc.cpg/sg127_1_cif.got.tgz:1733.got - 2010.04.06 17:03:15.
