data_PCOD8313285
_publ_section_title
;
Structure prediction by ZEFSAII (Michael W. Deem and Ramdas Pophale) SiO2 
 PCOD8313285
Probable space group: P 4/M C C
;
_chemical_formula_sum "Si O2"
_cell_formula_units_Z 96
_cell_length_a 16.283590
_cell_length_b 16.283590
_cell_length_c 19.650185
_cell_angle_alpha 90.000000
_cell_angle_beta 90.000000
_cell_angle_gamma 90.000000
_cell_volume 5210.350763
_symmetry_space_group_name_H-M "P 4/M C C"
_symmetry_group_IT_number 124
_symmetry_cell_setting 'tetragonal'
loop_
_space_group_symop_operation_xyz
x,y,z
-y,x,z
-x,-y,z
y,-x,z
x,-y,1/2-z
-x,y,1/2-z
y,x,1/2-z
-y,-x,1/2-z
-x,-y,-z
y,-x,-z
x,y,-z
-y,x,-z
-x,y,1/2+z
x,-y,1/2+z
-y,-x,1/2+z
y,x,1/2+z
loop_
_atom_site_type_symbol
_atom_site_label
_atom_site_fract_x
_atom_site_fract_y
_atom_site_fract_z
Si Si1 0.500000 0.322673 0.250000
Si Si2 0.614855 0.440770 0.889921
Si Si3 0.088334 0.602552 0.356720
Si Si4 0.306460 0.336597 0.500000
Si Si5 0.409965 0.851950 0.500000
Si Si6 0.905711 0.586579 0.646911
Si Si7 0.166905 0.595217 0.500000
Si Si8 0.350222 0.214380 0.255605
O O1 0.448567 0.373748 0.192284
O O2 0.428281 0.267395 0.282867
O O3 0.608716 0.534296 0.913320
O O4 0.682713 0.390825 0.930758
O O5 0.103972 0.508758 0.333740
O O6 0.110248 0.616862 0.435500
O O7 0.145420 0.663267 0.312805
O O8 0.994951 0.623332 0.334932
O O9 0.208506 0.330818 0.500000
O O10 0.350554 0.249761 0.500000
O O11 0.403218 0.907504 0.565990
O O12 0.499608 0.806378 0.500000
O O13 0.830476 0.633483 0.683355
O O14 0.268925 0.268925 0.250000
#
# Coordination Sequence:
#
# PCOD8313285 Si02
#       8
#     8  16  16   8   8  16   8  16
#     4  12  24  37  51  74 112 152 206 252 290 326
#     4  11  23  37  49  66  98 157 209 249 281 322
#     4  10  21  39  62  80 111 147 195 239 293 357
#     4  12  24  33  56  76 117 141 191 247 297 352
#     4  10  21  34  57  80 108 144 188 233 285 346
#     4  10  20  40  60  84 107 150 193 240 292 349
#     4  10  23  36  55  88 109 149 188 246 303 343
#     4  12  24  35  56  84 116 149 195 244 289 336
#
# _framework density 18.424862000000001
#
# number of rings (size 3 to 8) (size 9 to 14) (size 15 to 20)
#    0.000    1.167    1.667    5.000    9.333    4.667 
#    0.000    0.000    0.000    0.000    0.000    0.000 
#    0.000    5.333    0.000    1.500    0.000    0.000 
#
# Total GULP energy -1189498.818524 kJ/mol
# GULP energy per Si atom -12390.612693 kJ/mol
# Density = 1.838293 g / cm^3
# Si number density = 18.424862 Si / 1000 Ang^3
#
#
#
# Elastic Constant Matrix: (Units=GPa)
#
#
# Indices 1 2 3 4 5 6 
#
# 1 78.8438 42.3129 18.3308 0.0000 0.0000 0.0000
# 2 42.3129 78.8438 18.3308 0.0000 0.0000 0.0000
# 3 18.3308 18.3308 87.4280 0.0000 0.0000 0.0000
# 4 0.0000 0.0000 0.0000 23.3925 0.0000 0.0000
# 5 0.0000 0.0000 0.0000 0.0000 23.3925 0.0000
# 6 0.0000 0.0000 0.0000 0.0000 0.0000 13.8344
#
#
#
# Elastic Compliance Matrix: (Units=1/GPa)
#
#
# Indices 1 2 3 4 5 6 
#
# 1 0.018093 -0.009281 -0.001848 0.000000 0.000000 0.000000
# 2 -0.009281 0.018093 -0.001848 0.000000 0.000000 0.000000
# 3 -0.001848 -0.001848 0.012213 0.000000 0.000000 0.000000
# 4 0.000000 0.000000 0.000000 0.042749 0.000000 0.000000
# 5 0.000000 0.000000 0.000000 0.000000 0.042749 0.000000
# 6 0.000000 0.000000 0.000000 0.000000 0.000000 0.072283
#
#
# Mechanical properties :
#
#
# Convention : Reuss Voigt Hill
#
# Bulk Modulus (GPa) = 44.54835 44.78495 44.66665
# Shear Modulus (GPa) = 20.86675 23.19995 22.03335
#
# Velocity S-wave (km/s) = 3.36896 3.55232 3.46186
# Velocity P-wave (km/s) = 6.27408 6.41755 6.34622
#
# Compressibility (1/GPa) = 0.02244752
#
# Stress axis : x y z
#
# Youngs Moduli (GPa) = 55.26851 55.26851 81.88122
#
# Poissons Ratio (x) = 0.51292 0.15130
# Poissons Ratio (y) = 0.51292 0.15130
# Poissons Ratio (z) = 0.10212 0.10212
#
# Static dielectric constant tensor:
#      x y z
#    x 3.209780 0.000000 0.000000 
#    y 0.000000 3.209780 0.000000 
#    z 0.000000 0.000000 3.519670 
# 
# 
# High freq. dielectric constant tensor:
#      x y z
#    x 1.682570 0.000000 0.000000 
#    y 0.000000 1.682570 0.000000 
#    z 0.000000 0.000000 1.738240 
# 
# From -- ./inp_files/5393.got.cif
#   From: 2010.03.12/outbox.cif.g09.slc.cpg/sg124_3_cif.got.tgz:5393.got - 2010.04.06 16:38:57.
