data_PCOD8313595
_publ_section_title
;
Structure prediction by ZEFSAII (Michael W. Deem and Ramdas Pophale) SiO2 
 PCOD8313595
Probable space group: P 4/N B M
;
_chemical_formula_sum "Si O2"
_cell_formula_units_Z 48
_cell_length_a 13.319105
_cell_length_b 13.319105
_cell_length_c 13.259627
_cell_angle_alpha 90.000000
_cell_angle_beta 90.000000
_cell_angle_gamma 90.000000
_cell_volume 2352.238709
_symmetry_space_group_name_H-M "P 4/N B M"
_symmetry_group_IT_number 125
_space_group.IT_coordinate_system_code '2'
_symmetry_cell_setting 'tetragonal'
loop_
_space_group_symop_operation_xyz
x,y,z
1/2-y,x,z
1/2-x,1/2-y,z
y,1/2-x,z
x,1/2-y,-z
1/2-x,y,-z
y,x,-z
1/2-y,1/2-x,-z
-x,-y,-z
1/2+y,-x,-z
1/2+x,1/2+y,-z
-y,1/2+x,-z
-x,1/2+y,z
1/2+x,-y,z
-y,-x,z
1/2+y,1/2+x,z
loop_
_atom_site_type_symbol
_atom_site_label
_atom_site_fract_x
_atom_site_fract_y
_atom_site_fract_z
Si Si1 0.133011 0.133011 0.000000
Si Si2 0.022809 0.365998 0.200969
Si Si3 0.250000 0.417236 0.500000
Si Si4 0.997594 0.331849 0.696037
O O1 0.250000 0.110156 0.000000
O O2 0.076530 0.094613 0.900719
O O3 0.007272 0.246794 0.211089
O O4 0.090609 0.409942 0.292622
O O5 0.912325 0.412325 0.205054
O O6 0.151060 0.348941 0.500000
O O7 0.265033 0.491031 0.595194
O O8 0.891388 0.391388 0.697750
#
# Coordination Sequence:
#
# PCOD8313595 Si02
#       4
#     8  16   8  16
#     4  11  21  36  66  98 123 163 218 274 318 388
#     4  11  23  41  64  92 132 171 213 269 334 396
#     4  11  22  38  66  95 122 172 225 276 328 393
#     4  11  24  41  65  96 129 169 220 274 332 398
#
# _framework density 20.406092000000001
#
# number of rings (size 3 to 8) (size 9 to 14) (size 15 to 20)
#    0.000    1.000    6.667    0.500    0.000    3.333 
#    0.000    0.000    0.000    0.000    0.000    0.000 
#    0.000    0.000    0.000    0.000    0.000    0.000 
#
# Total GULP energy -594890.094866 kJ/mol
# GULP energy per Si atom -12393.543643 kJ/mol
# Density = 2.035965 g / cm^3
# Si number density = 20.406092 Si / 1000 Ang^3
#
#
#
# Elastic Constant Matrix: (Units=GPa)
#
#
# Indices 1 2 3 4 5 6 
#
# 1 106.2114 63.8890 33.4585 0.0000 0.0000 0.0000
# 2 63.8890 106.2112 33.4585 0.0000 0.0000 0.0000
# 3 33.4585 33.4585 103.0499 0.0000 0.0000 0.0000
# 4 0.0000 0.0000 0.0000 24.9476 0.0000 0.0000
# 5 0.0000 0.0000 0.0000 0.0000 24.9477 0.0000
# 6 0.0000 0.0000 0.0000 0.0000 0.0000 27.4979
#
#
#
# Elastic Compliance Matrix: (Units=1/GPa)
#
#
# Indices 1 2 3 4 5 6 
#
# 1 0.015184 -0.008444 -0.002188 0.000000 0.000000 0.000000
# 2 -0.008444 0.015184 -0.002188 0.000000 0.000000 0.000000
# 3 -0.002188 -0.002188 0.011125 0.000000 0.000000 0.000000
# 4 0.000000 0.000000 0.000000 0.040084 0.000000 0.000000
# 5 0.000000 0.000000 0.000000 0.000000 0.040084 0.000000
# 6 0.000000 0.000000 0.000000 0.000000 0.000000 0.036366
#
#
# Mechanical properties :
#
#
# Convention : Reuss Voigt Hill
#
# Bulk Modulus (GPa) = 63.08588 64.12051 63.60320
# Shear Modulus (GPa) = 26.46167 27.78975 27.12571
#
# Velocity S-wave (km/s) = 3.60495 3.69431 3.64990
# Velocity P-wave (km/s) = 6.95053 7.04895 6.99991
#
# Compressibility (1/GPa) = 0.01585141
#
# Stress axis : x y z
#
# Youngs Moduli (GPa) = 65.85906 65.85889 89.88739
#
# Poissons Ratio (x) = 0.55613 0.19670
# Poissons Ratio (y) = 0.55613 0.19670
# Poissons Ratio (z) = 0.14412 0.14412
#
# Static dielectric constant tensor:
#      x y z
#    x 3.474260 0.000000 0.000000 
#    y 0.000000 3.474260 0.000000 
#    z 0.000000 0.000000 3.796060 
# 
# 
# High freq. dielectric constant tensor:
#      x y z
#    x 1.786090 0.000000 0.000000 
#    y 0.000000 1.786090 0.000000 
#    z 0.000000 0.000000 1.801700 
# 
# From -- ./inp_files/3448.got.cif
#   From: 2010.03.12/outbox.cif.g09.slc.cpg/sg125_2_cif.got.tgz:3448.got - 2010.04.06 16:47:52.
