data_PCOD8313499
_publ_section_title
;
Structure prediction by ZEFSAII (Michael W. Deem and Ramdas Pophale) SiO2 
 PCOD8313499
Probable space group: P 4/N B M
;
_chemical_formula_sum "Si O2"
_cell_formula_units_Z 26
_cell_length_a 9.897981
_cell_length_b 9.897981
_cell_length_c 14.296771
_cell_angle_alpha 90.000000
_cell_angle_beta 90.000000
_cell_angle_gamma 90.000000
_cell_volume 1400.655053
_symmetry_space_group_name_H-M "P 4/N B M"
_symmetry_group_IT_number 125
_space_group.IT_coordinate_system_code '2'
_symmetry_cell_setting 'tetragonal'
loop_
_space_group_symop_operation_xyz
x,y,z
1/2-y,x,z
1/2-x,1/2-y,z
y,1/2-x,z
x,1/2-y,-z
1/2-x,y,-z
y,x,-z
1/2-y,1/2-x,-z
-x,-y,-z
1/2+y,-x,-z
1/2+x,1/2+y,-z
-y,1/2+x,-z
-x,1/2+y,z
1/2+x,-y,z
-y,-x,z
1/2+y,1/2+x,z
loop_
_atom_site_type_symbol
_atom_site_label
_atom_site_fract_x
_atom_site_fract_y
_atom_site_fract_z
Si Si1 0.103614 0.603614 0.538327
Si Si2 0.613970 0.113970 0.832369
Si Si3 0.250000 0.750000 0.000000
Si Si4 0.097212 0.902789 0.241258
O O1 0.063714 0.750000 0.500000
O O2 0.087687 0.587687 0.648439
O O3 0.000000 0.500000 0.500000
O O4 0.652143 0.152143 0.939400
O O5 0.749785 0.059518 0.784274
O O6 0.500515 0.000515 0.818611
#
# Coordination Sequence:
#
# PCOD8313499 Si02
#       4
#     8   8   2   8
#     4  11  21  35  55  79 113 151 191 227 269 328
#     4  10  21  36  60  79 115 141 187 231 284 340
#     4   8  20  40  60  88 106 148 184 240 292 344
#     4  10  20  37  54  83 111 150 182 233 277 323
#
# _framework density 18.562743999999999
#
# number of rings (size 3 to 8) (size 9 to 14) (size 15 to 20)
#    0.000    2.154    0.000    7.385    0.000    6.769 
#    0.000    6.154    0.000   14.769    0.000    0.000 
#    0.000    0.000    0.000    0.000    0.000    0.000 
#
# Total GULP energy -322232.742094 kJ/mol
# GULP energy per Si atom -12393.567004 kJ/mol
# Density = 1.852049 g / cm^3
# Si number density = 18.562744 Si / 1000 Ang^3
#
#
#
# Elastic Constant Matrix: (Units=GPa)
#
#
# Indices 1 2 3 4 5 6 
#
# 1 120.8118 117.7286 58.4763 0.0000 0.0000 0.0000
# 2 117.7286 120.8118 58.4763 0.0000 0.0000 0.0000
# 3 58.4763 58.4763 177.1788 0.0000 0.0000 0.0000
# 4 0.0000 0.0000 0.0000 37.2158 0.0000 0.0000
# 5 0.0000 0.0000 0.0000 0.0000 37.2158 0.0000
# 6 0.0000 0.0000 0.0000 0.0000 0.0000 55.0637
#
#
#
# Elastic Compliance Matrix: (Units=1/GPa)
#
#
# Indices 1 2 3 4 5 6 
#
# 1 0.164671 -0.159670 -0.001651 0.000000 0.000000 0.000000
# 2 -0.159670 0.164671 -0.001651 0.000000 0.000000 0.000000
# 3 -0.001651 -0.001651 0.006734 0.000000 0.000000 0.000000
# 4 0.000000 0.000000 0.000000 0.026870 0.000000 0.000000
# 5 0.000000 0.000000 0.000000 0.000000 0.026870 0.000000
# 6 0.000000 0.000000 0.000000 0.000000 0.000000 0.018161
#
#
# Mechanical properties :
#
#
# Convention : Reuss Voigt Hill
#
# Bulk Modulus (GPa) = 98.67980 98.68495 98.68238
# Shear Modulus (GPa) = 6.78153 38.17383 22.47768
#
# Velocity S-wave (km/s) = 1.91343 4.53976 3.48358
# Velocity P-wave (km/s) = 7.62609 8.98652 8.33411
#
# Compressibility (1/GPa) = 0.01013379
#
# Stress axis : x y z
#
# Youngs Moduli (GPa) = 6.07271 6.07271 148.50884
#
# Poissons Ratio (x) = 0.96963 0.24514
# Poissons Ratio (y) = 0.96963 0.24514
# Poissons Ratio (z) = 0.01002 0.01002
#
# Static dielectric constant tensor:
#      x y z
#    x 3.402000 0.000000 0.000000 
#    y 0.000000 3.402000 0.000000 
#    z 0.000000 0.000000 3.210470 
# 
# 
# High freq. dielectric constant tensor:
#      x y z
#    x 1.719060 0.000000 0.000000 
#    y 0.000000 1.719060 0.000000 
#    z 0.000000 0.000000 1.741330 
# 
# From -- ./inp_files/4430.got.cif
#   From: 2010.03.12/outbox.cif.g09.slc.cpg/sg125_3_cif.got.tgz:4430.got - 2010.04.06 16:47:52.
