data_PCOD8313899
_publ_section_title
;
Structure prediction by ZEFSAII (Michael W. Deem and Ramdas Pophale) SiO2 
 PCOD8313899
Probable space group: P 4/M B M
;
_chemical_formula_sum "Si O2"
_cell_formula_units_Z 96
_cell_length_a 22.705394
_cell_length_b 22.705394
_cell_length_c 13.597295
_cell_angle_alpha 90.000000
_cell_angle_beta 90.000000
_cell_angle_gamma 90.000000
_cell_volume 7009.880345
_symmetry_space_group_name_H-M "P 4/M B M"
_symmetry_group_IT_number 127
_symmetry_cell_setting 'tetragonal'
loop_
_space_group_symop_operation_xyz
x,y,z
-y,x,z
-x,-y,z
y,-x,z
1/2+x,1/2-y,-z
1/2-x,1/2+y,-z
1/2+y,1/2+x,-z
1/2-y,1/2-x,-z
-x,-y,-z
y,-x,-z
x,y,-z
-y,x,-z
1/2-x,1/2+y,z
1/2+x,1/2-y,z
1/2-y,1/2-x,z
1/2+y,1/2+x,z
loop_
_atom_site_type_symbol
_atom_site_label
_atom_site_fract_x
_atom_site_fract_y
_atom_site_fract_z
Si Si1 0.001250 0.837462 0.697880
Si Si2 0.121908 0.881975 0.385353
Si Si3 0.246108 0.838191 0.384601
Si Si4 0.992998 0.903270 0.889713
Si Si5 0.467732 0.781282 0.384198
Si Si6 0.407996 0.000674 0.383496
O O1 0.064841 0.862886 0.673235
O O2 0.951531 0.867701 0.630190
O O3 0.988258 0.849885 0.812669
O O4 0.001412 0.767984 0.678521
O O5 0.112216 0.870114 0.500000
O O6 0.178897 0.844913 0.345198
O O7 0.242484 0.828621 0.500000
O O8 0.282678 0.782678 0.338058
O O9 0.281496 0.898137 0.361637
O O10 0.053346 0.938365 0.872620
O O11 0.991052 0.876994 0.000000
O O12 0.479442 0.770685 0.500000
O O13 0.495163 0.841948 0.343607
O O14 0.406606 0.993973 0.500000
O O15 0.448327 0.948327 0.339768
O O16 0.436266 0.063735 0.353340
#
# Coordination Sequence:
#
# PCOD8313899 Si02
#       6
#    16  16  16  16  16  16
#     4  11  18  28  39  55  80 106 134 164 199 233
#     4  10  19  27  37  55  81 111 137 160 187 229
#     4   8  14  25  38  50  69 102 139 165 185 215
#     4   9  17  30  45  59  73  95 131 173 213 242
#     4   9  16  24  36  56  82 108 133 166 198 226
#     4   8  13  22  37  56  79 110 143 168 196 235
#
# _framework density 13.694955
#
# number of rings (size 3 to 8) (size 9 to 14) (size 15 to 20)
#    0.000    2.833    1.667    4.000    0.000    2.333 
#    0.000    1.667    0.000    4.000    0.000    0.000 
#    0.000   24.667    0.000    1.833    0.000    0.167 
#
# Total GULP energy -1189700.024443 kJ/mol
# GULP energy per Si atom -12392.708588 kJ/mol
# Density = 1.366379 g / cm^3
# Si number density = 13.694955 Si / 1000 Ang^3
#
#
#
# Elastic Constant Matrix: (Units=GPa)
#
#
# Indices 1 2 3 4 5 6 
#
# 1 81.8268 34.8045 12.8991 0.0000 0.0000 0.0000
# 2 34.8045 81.8268 12.8991 0.0000 0.0000 0.0000
# 3 12.8991 12.8991 44.7325 0.0000 0.0000 0.0000
# 4 0.0000 0.0000 0.0000 6.7515 0.0000 0.0000
# 5 0.0000 0.0000 0.0000 0.0000 6.7515 0.0000
# 6 0.0000 0.0000 0.0000 0.0000 0.0000 18.7043
#
#
#
# Elastic Compliance Matrix: (Units=1/GPa)
#
#
# Indices 1 2 3 4 5 6 
#
# 1 0.015212 -0.006054 -0.002641 0.000000 0.000000 0.000000
# 2 -0.006054 0.015212 -0.002641 0.000000 0.000000 0.000000
# 3 -0.002641 -0.002641 0.023878 0.000000 0.000000 0.000000
# 4 0.000000 0.000000 0.000000 0.148115 0.000000 0.000000
# 5 0.000000 0.000000 0.000000 0.000000 0.148115 0.000000
# 6 0.000000 0.000000 0.000000 0.000000 0.000000 0.053464
#
#
# Mechanical properties :
#
#
# Convention : Reuss Voigt Hill
#
# Bulk Modulus (GPa) = 31.61449 36.62127 34.11788
# Shear Modulus (GPa) = 11.43611 16.29369 13.86490
#
# Velocity S-wave (km/s) = 2.89288 3.45303 3.18529
# Velocity P-wave (km/s) = 5.85604 6.53427 6.20443
#
# Compressibility (1/GPa) = 0.03163107
#
# Stress axis : x y z
#
# Youngs Moduli (GPa) = 65.73609 65.73609 41.87929
#
# Poissons Ratio (x) = 0.39798 0.11060
# Poissons Ratio (y) = 0.39798 0.11060
# Poissons Ratio (z) = 0.17360 0.17360
#
# Static dielectric constant tensor:
#      x y z
#    x 2.835830 0.000000 0.000000 
#    y 0.000000 2.835830 0.000000 
#    z 0.000000 0.000000 2.366080 
# 
# 
# High freq. dielectric constant tensor:
#      x y z
#    x 1.519420 0.000000 0.000000 
#    y 0.000000 1.519420 0.000000 
#    z 0.000000 0.000000 1.468820 
# 
# From -- ./inp_files/3682.got.cif
#   From: 2010.03.12/outbox.cif.g09.slc.cpg/sg127_2_cif.got.tgz:3682.got - 2010.04.06 17:03:15.
