data_PCOD8313295
_publ_section_title
;
Structure prediction by ZEFSAII (Michael W. Deem and Ramdas Pophale) SiO2 
 PCOD8313295
Probable space group: P 4/M C C
;
_chemical_formula_sum "Si O2"
_cell_formula_units_Z 96
_cell_length_a 19.383519
_cell_length_b 19.383519
_cell_length_c 14.683711
_cell_angle_alpha 90.000000
_cell_angle_beta 90.000000
_cell_angle_gamma 90.000000
_cell_volume 5516.975773
_symmetry_space_group_name_H-M "P 4/M C C"
_symmetry_group_IT_number 124
_symmetry_cell_setting 'tetragonal'
loop_
_space_group_symop_operation_xyz
x,y,z
-y,x,z
-x,-y,z
y,-x,z
x,-y,1/2-z
-x,y,1/2-z
y,x,1/2-z
-y,-x,1/2-z
-x,-y,-z
y,-x,-z
x,y,-z
-y,x,-z
-x,y,1/2+z
x,-y,1/2+z
-y,-x,1/2+z
y,x,1/2+z
loop_
_atom_site_type_symbol
_atom_site_label
_atom_site_fract_x
_atom_site_fract_y
_atom_site_fract_z
Si Si1 0.154876 0.429620 0.395367
Si Si2 0.789179 0.104055 0.742570
Si Si3 0.325402 0.787231 0.258170
Si Si4 0.146543 0.585173 0.396532
Si Si5 0.234258 0.007626 0.600342
Si Si6 0.619315 0.994657 0.146665
O O1 0.162323 0.407252 0.500000
O O2 0.208200 0.383466 0.336813
O O3 0.177288 0.508895 0.380615
O O4 0.074552 0.425294 0.364788
O O5 0.863796 0.136205 0.750000
O O6 0.732238 0.158600 0.710393
O O7 0.768729 0.078678 0.843636
O O8 0.801531 0.048877 0.663382
O O9 0.288987 0.711014 0.250000
O O10 0.360330 0.810912 0.163692
O O11 0.157119 0.609614 0.500000
O O12 0.064562 0.578348 0.376148
O O13 0.199261 0.013482 0.500000
O O14 0.313932 0.988351 0.583295
O O15 0.647104 0.000000 0.250000
#
# Coordination Sequence:
#
# PCOD8313295 Si02
#       6
#    16  16  16  16  16  16
#     4  11  22  35  53  78 108 143 179 213 255 305
#     4  10  21  36  50  74 102 129 169 216 259 305
#     4  11  22  36  52  73 106 144 180 213 252 299
#     4  11  22  35  53  78 108 143 179 213 255 305
#     4  11  19  33  54  73 100 133 168 210 257 310
#     4  12  19  32  51  77 110 142 175 211 252 297
#
# _framework density 17.400838
#
# number of rings (size 3 to 8) (size 9 to 14) (size 15 to 20)
#    0.000    1.000    6.667    2.500    0.000    3.333 
#    0.000    3.333    0.000    4.000    0.000    4.667 
#    0.000    5.333    0.000   14.667    0.000    0.000 
#
# Total GULP energy -1189884.837720 kJ/mol
# GULP energy per Si atom -12394.633726 kJ/mol
# Density = 1.736123 g / cm^3
# Si number density = 17.400838 Si / 1000 Ang^3
#
#
#
# Elastic Constant Matrix: (Units=GPa)
#
#
# Indices 1 2 3 4 5 6 
#
# 1 66.8106 36.8547 30.5457 0.0000 0.0000 0.0000
# 2 36.8547 66.8132 30.5465 0.0000 0.0000 0.0000
# 3 30.5457 30.5465 130.5836 0.0000 0.0000 0.0000
# 4 0.0000 0.0000 0.0000 9.9739 0.0000 0.0000
# 5 0.0000 0.0000 0.0000 0.0000 9.9673 0.0000
# 6 0.0000 0.0000 0.0000 0.0000 0.0000 22.4980
#
#
#
# Elastic Compliance Matrix: (Units=1/GPa)
#
#
# Indices 1 2 3 4 5 6 
#
# 1 0.022285 -0.011096 -0.002617 0.000000 0.000000 0.000000
# 2 -0.011096 0.022284 -0.002617 0.000000 0.000000 0.000000
# 3 -0.002617 -0.002617 0.008882 0.000000 0.000000 0.000000
# 4 0.000000 0.000000 0.000000 0.100262 0.000000 0.000000
# 5 0.000000 0.000000 0.000000 0.000000 0.100328 0.000000
# 6 0.000000 0.000000 0.000000 0.000000 0.000000 0.044448
#
#
# Mechanical properties :
#
#
# Convention : Reuss Voigt Hill
#
# Bulk Modulus (GPa) = 48.09833 51.12236 49.61035
# Shear Modulus (GPa) = 14.78934 19.57188 17.18061
#
# Velocity S-wave (km/s) = 2.91850 3.35739 3.14561
# Velocity P-wave (km/s) = 6.24966 6.66877 6.46261
#
# Compressibility (1/GPa) = 0.02079074
#
# Stress axis : x y z
#
# Youngs Moduli (GPa) = 44.87277 44.87448 112.58236
#
# Poissons Ratio (x) = 0.49793 0.29466
# Poissons Ratio (y) = 0.49791 0.29466
# Poissons Ratio (z) = 0.11744 0.11745
#
# Static dielectric constant tensor:
#      x y z
#    x 3.095880 0.000000 0.000000 
#    y 0.000000 3.095870 0.000000 
#    z 0.000000 0.000000 3.420700 
# 
# 
# High freq. dielectric constant tensor:
#      x y z
#    x 1.643590 0.000000 0.000000 
#    y 0.000000 1.643590 0.000000 
#    z 0.000000 0.000000 1.689820 
# 
# From -- ./inp_files/3403.got.cif
#   From: 2010.03.12/outbox.cif.g09.slc.cpg/sg124_2_cif.got.tgz:3403.got - 2010.04.06 16:38:57.
