data_PCOD8313024
_publ_section_title
;
Structure prediction by ZEFSAII (Michael W. Deem and Ramdas Pophale) SiO2 
 PCOD8313024
Probable space group: P 4/M M M
;
_chemical_formula_sum "Si O2"
_cell_formula_units_Z 120
_cell_length_a 14.161695
_cell_length_b 14.161695
_cell_length_c 37.412266
_cell_angle_alpha 90.000000
_cell_angle_beta 90.000000
_cell_angle_gamma 90.000000
_cell_volume 7503.164828
_symmetry_space_group_name_H-M "P 4/M M M"
_symmetry_group_IT_number 123
_symmetry_cell_setting 'tetragonal'
loop_
_space_group_symop_operation_xyz
x,y,z
-y,x,z
-x,-y,z
y,-x,z
x,-y,-z
-x,y,-z
y,x,-z
-y,-x,-z
-x,-y,-z
y,-x,-z
x,y,-z
-y,x,-z
-x,y,z
x,-y,z
-y,-x,z
y,x,z
loop_
_atom_site_type_symbol
_atom_site_label
_atom_site_fract_x
_atom_site_fract_y
_atom_site_fract_z
Si Si1 0.609490 0.236583 0.747787
Si Si2 0.739228 0.891840 0.792069
Si Si3 0.609031 0.891287 0.603575
Si Si4 0.767645 0.611186 0.922095
Si Si5 0.756021 0.605940 0.000000
Si Si6 0.891268 0.260590 0.540012
Si Si7 0.108216 0.739105 0.124456
Si Si8 0.392271 0.758829 0.333592
O O1 0.500000 0.254461 0.757388
O O2 0.666386 0.333615 0.755444
O O3 0.649548 0.151570 0.771649
O O4 0.622154 0.204176 0.706735
O O5 0.834308 0.834308 0.782268
O O6 0.716574 0.884505 0.833807
O O7 0.754502 0.000000 0.780176
O O8 0.500000 0.872076 0.595985
O O9 0.662678 0.854480 0.568378
O O10 0.644622 0.838101 0.639059
O O11 0.630338 0.000000 0.610952
O O12 0.748788 0.500000 0.914490
O O13 0.670002 0.670002 0.916506
O O14 0.809908 0.627732 0.962563
O O15 0.848200 0.648927 0.895668
O O16 0.722248 0.500000 0.000000
O O17 0.658077 0.658077 0.000000
O O18 0.874468 0.301182 0.500000
O O19 0.836418 0.163583 0.545976
O O20 0.000000 0.236242 0.546436
O O21 0.165903 0.834097 0.114568
O O22 0.000000 0.754589 0.112593
O O23 0.500000 0.733401 0.341121
O O24 0.337016 0.662985 0.340606
#
# Coordination Sequence:
#
# PCOD8313024 Si02
#       8
#    16  16  16  16   8  16  16  16
#     4   9  18  31  46  66  91 118 149 182 215 254
#     4   9  18  32  49  69  91 114 143 180 221 264
#     4   9  17  28  42  61  84 109 137 169 206 248
#     4   9  17  29  45  66  92 120 150 183 218 259
#     4   8  14  25  41  61  86 116 148 182 219 256
#     4   9  17  28  42  60  81 106 136 169 205 245
#     4   9  18  32  49  68  89 114 145 182 223 264
#     4   9  17  29  45  64  86 112 141 174 210 246
#
# _framework density 15.993251000000001
#
# number of rings (size 3 to 8) (size 9 to 14) (size 15 to 20)
#    0.000    3.067    0.000    0.400    0.000    2.733 
#    0.000    9.000    0.000    1.200    0.000    3.733 
#    0.000    5.867    0.000   12.400    0.000    0.400 
#
# Total GULP energy -1487341.917513 kJ/mol
# GULP energy per Si atom -12394.515979 kJ/mol
# Density = 1.595685 g / cm^3
# Si number density = 15.993251 Si / 1000 Ang^3
#
#
#
# Elastic Constant Matrix: (Units=GPa)
#
#
# Indices 1 2 3 4 5 6 
#
# 1 93.1008 49.1880 53.6984 0.0000 0.0000 0.0000
# 2 49.1880 93.1008 53.6984 0.0000 0.0000 0.0000
# 3 53.6984 53.6984 78.4290 0.0000 0.0000 0.0000
# 4 0.0000 0.0000 0.0000 25.8546 0.0000 0.0000
# 5 0.0000 0.0000 0.0000 0.0000 25.8546 0.0000
# 6 0.0000 0.0000 0.0000 0.0000 0.0000 17.9868
#
#
#
# Elastic Compliance Matrix: (Units=1/GPa)
#
#
# Indices 1 2 3 4 5 6 
#
# 1 0.018658 -0.004114 -0.009958 0.000000 0.000000 0.000000
# 2 -0.004114 0.018658 -0.009958 0.000000 0.000000 0.000000
# 3 -0.009958 -0.009958 0.026386 0.000000 0.000000 0.000000
# 4 0.000000 0.000000 0.000000 0.038678 0.000000 0.000000
# 5 0.000000 0.000000 0.000000 0.000000 0.038678 0.000000
# 6 0.000000 0.000000 0.000000 0.000000 0.000000 0.055596
#
#
# Mechanical properties :
#
#
# Convention : Reuss Voigt Hill
#
# Bulk Modulus (GPa) = 63.92802 64.20003 64.06403
# Shear Modulus (GPa) = 20.00566 21.14223 20.57395
#
# Velocity S-wave (km/s) = 3.54062 3.63980 3.59055
# Velocity P-wave (km/s) = 7.53480 7.60877 7.57188
#
# Compressibility (1/GPa) = 0.01564259
#
# Stress axis : x y z
#
# Youngs Moduli (GPa) = 53.59564 53.59564 37.89842
#
# Poissons Ratio (x) = 0.22050 0.37739
# Poissons Ratio (y) = 0.22050 0.37739
# Poissons Ratio (z) = 0.53370 0.53370
#
# Static dielectric constant tensor:
#      x y z
#    x 2.986540 0.000000 0.000000 
#    y 0.000000 2.986540 0.000000 
#    z 0.000000 0.000000 3.289080 
# 
# 
# High freq. dielectric constant tensor:
#      x y z
#    x 1.605240 0.000000 0.000000 
#    y 0.000000 1.605240 0.000000 
#    z 0.000000 0.000000 1.622660 
# 
# From -- ./inp_files/8850.got.cif
#   From: 2010.03.12/outbox.cif.g09.slc.cpg/sg123_5_cif.got.tgz:8850.got - 2010.04.06 16:26:55.
