data_PCOD8313976
_publ_section_title
;
Structure prediction by ZEFSAII (Michael W. Deem and Ramdas Pophale) SiO2 
 PCOD8313976
Probable space group: P 4/M B M
;
_chemical_formula_sum "Si O2"
_cell_formula_units_Z 96
_cell_length_a 24.729963
_cell_length_b 24.729963
_cell_length_c 9.032100
_cell_angle_alpha 90.000000
_cell_angle_beta 90.000000
_cell_angle_gamma 90.000000
_cell_volume 5523.771061
_symmetry_space_group_name_H-M "P 4/M B M"
_symmetry_group_IT_number 127
_symmetry_cell_setting 'tetragonal'
loop_
_space_group_symop_operation_xyz
x,y,z
-y,x,z
-x,-y,z
y,-x,z
1/2+x,1/2-y,-z
1/2-x,1/2+y,-z
1/2+y,1/2+x,-z
1/2-y,1/2-x,-z
-x,-y,-z
y,-x,-z
x,y,-z
-y,x,-z
1/2-x,1/2+y,z
1/2+x,1/2-y,z
1/2-y,1/2-x,z
1/2+y,1/2+x,z
loop_
_atom_site_type_symbol
_atom_site_label
_atom_site_fract_x
_atom_site_fract_y
_atom_site_fract_z
Si Si1 0.964352 0.157981 0.828535
Si Si2 0.766059 0.482152 0.673234
Si Si3 0.663256 0.163256 0.824377
Si Si4 0.876002 0.464059 0.826066
Si Si5 0.576232 0.076232 0.824463
Si Si6 0.085724 0.135820 0.828085
Si Si7 0.394703 0.742920 0.326896
O O1 0.953565 0.212603 0.737082
O O2 0.920449 0.113279 0.783441
O O3 0.022233 0.131633 0.790592
O O4 0.960312 0.173707 0.000000
O O5 0.768053 0.471338 0.500000
O O6 0.818832 0.456023 0.746499
O O7 0.764375 0.545565 0.712270
O O8 0.619633 0.119633 0.766860
O O9 0.721483 0.148296 0.761009
O O10 0.665623 0.165623 0.000000
O O11 0.912035 0.412035 0.789025
O O12 0.907000 0.517202 0.764111
O O13 0.865399 0.470210 0.000000
O O14 0.574534 0.074534 0.000000
O O15 0.113023 0.181993 0.729019
O O16 0.094855 0.149942 0.000000
O O17 0.382538 0.745858 0.500000
#
# Coordination Sequence:
#
# PCOD8313976 Si02
#       7
#    16  16   8  16   8  16  16
#     4   9  18  33  55  80 107 135 168 207 253 306
#     4  10  20  33  50  72 101 137 174 209 250 303
#     4  11  19  30  53  77 100 134 174 219 265 308
#     4  10  19  32  51  74 101 134 173 215 259 308
#     4   9  17  29  48  75 103 131 165 211 261 305
#     4   9  18  33  54  81 108 137 169 207 253 307
#     4  10  20  33  50  74 104 136 171 211 256 306
#
# _framework density 17.379432000000001
#
# number of rings (size 3 to 8) (size 9 to 14) (size 15 to 20)
#    0.000    2.333    1.667    1.500    0.000    3.667 
#    0.000    2.083    1.833    1.000    0.000    4.667 
#    0.000    0.000    0.000    0.000    0.000    0.000 
#
# Total GULP energy -1190686.277512 kJ/mol
# GULP energy per Si atom -12402.982057 kJ/mol
# Density = 1.733988 g / cm^3
# Si number density = 17.379432 Si / 1000 Ang^3
#
#
#
# Elastic Constant Matrix: (Units=GPa)
#
#
# Indices 1 2 3 4 5 6 
#
# 1 117.6257 75.3672 50.3579 0.0000 0.0000 0.0000
# 2 75.3672 117.6257 50.3579 0.0000 0.0000 0.0000
# 3 50.3579 50.3579 66.2041 0.0000 0.0000 0.0000
# 4 0.0000 0.0000 0.0000 21.0053 0.0000 0.0000
# 5 0.0000 0.0000 0.0000 0.0000 21.0053 0.0000
# 6 0.0000 0.0000 0.0000 0.0000 0.0000 28.1530
#
#
#
# Elastic Compliance Matrix: (Units=1/GPa)
#
#
# Indices 1 2 3 4 5 6 
#
# 1 0.016128 -0.007536 -0.006536 0.000000 0.000000 0.000000
# 2 -0.007536 0.016128 -0.006536 0.000000 0.000000 0.000000
# 3 -0.006536 -0.006536 0.025048 0.000000 0.000000 0.000000
# 4 0.000000 0.000000 0.000000 0.047607 0.000000 0.000000
# 5 0.000000 0.000000 0.000000 0.000000 0.047607 0.000000
# 6 0.000000 0.000000 0.000000 0.000000 0.000000 0.035520
#
#
# Mechanical properties :
#
#
# Convention : Reuss Voigt Hill
#
# Bulk Modulus (GPa) = 62.15309 72.62463 67.38886
# Shear Modulus (GPa) = 21.31148 22.39088 21.85118
#
# Velocity S-wave (km/s) = 3.50558 3.59326 3.54969
# Velocity P-wave (km/s) = 7.22672 7.68725 7.46054
#
# Compressibility (1/GPa) = 0.01608931
#
# Stress axis : x y z
#
# Youngs Moduli (GPa) = 62.00368 62.00368 39.92414
#
# Poissons Ratio (x) = 0.46725 0.26093
# Poissons Ratio (y) = 0.46725 0.26093
# Poissons Ratio (z) = 0.40524 0.40524
#
# Static dielectric constant tensor:
#      x y z
#    x 3.182940 0.000000 0.000000 
#    y 0.000000 3.182940 0.000000 
#    z 0.000000 0.000000 3.123230 
# 
# 
# High freq. dielectric constant tensor:
#      x y z
#    x 1.663230 0.000000 0.000000 
#    y 0.000000 1.663230 0.000000 
#    z 0.000000 0.000000 1.664900 
# 
# From -- ./inp_files/2091.got.cif
#   From: 2010.03.12/outbox.cif.g09.slc.cpg/sg127_2_cif.got.tgz:2091.got - 2010.04.06 17:03:15.
