data_PCOD8313436
_publ_section_title
;
Structure prediction by ZEFSAII (Michael W. Deem and Ramdas Pophale) SiO2 
 PCOD8313436
Probable space group: P 4/N B M
;
_chemical_formula_sum "Si O2"
_cell_formula_units_Z 96
_cell_length_a 22.201074
_cell_length_b 22.201074
_cell_length_c 10.773005
_cell_angle_alpha 90.000000
_cell_angle_beta 90.000000
_cell_angle_gamma 90.000000
_cell_volume 5309.881514
_symmetry_space_group_name_H-M "P 4/N B M"
_symmetry_group_IT_number 125
_space_group.IT_coordinate_system_code '2'
_symmetry_cell_setting 'tetragonal'
loop_
_space_group_symop_operation_xyz
x,y,z
1/2-y,x,z
1/2-x,1/2-y,z
y,1/2-x,z
x,1/2-y,-z
1/2-x,y,-z
y,x,-z
1/2-y,1/2-x,-z
-x,-y,-z
1/2+y,-x,-z
1/2+x,1/2+y,-z
-y,1/2+x,-z
-x,1/2+y,z
1/2+x,-y,z
-y,-x,z
1/2+y,1/2+x,z
loop_
_atom_site_type_symbol
_atom_site_label
_atom_site_fract_x
_atom_site_fract_y
_atom_site_fract_z
Si Si1 0.540815 0.790633 0.612633
Si Si2 0.745828 0.844734 0.264672
Si Si3 0.598752 0.598752 0.500000
Si Si4 0.878779 0.025255 0.784905
Si Si5 0.866342 0.536049 0.969149
Si Si6 0.615324 0.750000 0.000000
Si Si7 0.978253 0.926729 0.722862
O O1 0.513732 0.750000 0.500000
O O2 0.585102 0.749340 0.695674
O O3 0.591210 0.838849 0.570939
O O4 0.486682 0.821401 0.692683
O O5 0.687715 0.806770 0.312499
O O6 0.737527 0.842393 0.116628
O O7 0.540992 0.600838 0.591602
O O8 0.908386 0.091615 0.762311
O O9 0.927437 0.974467 0.758661
O O10 0.860128 0.018146 0.929800
O O11 0.876185 0.511783 0.829136
O O12 0.924352 0.575649 0.000000
O O13 0.806768 0.574284 0.971128
O O14 0.042382 0.957619 0.703228
#
# Coordination Sequence:
#
# PCOD8313436 Si02
#       7
#    16  16   8  16  16   8  16
#     4  11  22  35  51  70  98 136 175 214 256 310
#     4  11  23  36  50  69  97 139 186 231 267 301
#     4  10  21  32  50  69 100 132 168 212 257 304
#     4   9  18  34  52  73  96 126 164 211 268 319
#     4  10  19  31  51  72  95 129 170 219 264 312
#     4  12  22  31  52  72 100 130 176 225 278 302
#     4   9  18  31  50  72  93 122 164 213 261 314
#
# _framework density 18.079498999999998
#
# number of rings (size 3 to 8) (size 9 to 14) (size 15 to 20)
#    0.000    1.833    1.667    3.250    7.000    3.333 
#    0.000    0.833    0.000    0.000    0.000    0.000 
#    0.000    0.333    0.000    0.667    0.000    8.583 
#
# Total GULP energy -1189583.207601 kJ/mol
# GULP energy per Si atom -12391.491746 kJ/mol
# Density = 1.803835 g / cm^3
# Si number density = 18.079499 Si / 1000 Ang^3
#
#
#
# Elastic Constant Matrix: (Units=GPa)
#
#
# Indices 1 2 3 4 5 6 
#
# 1 47.7319 31.5666 26.7853 0.0000 0.0000 0.0000
# 2 31.5666 47.7314 26.7852 0.0000 0.0000 0.0000
# 3 26.7853 26.7852 108.5740 0.0000 0.0000 0.0000
# 4 0.0000 0.0000 0.0000 26.1943 0.0000 0.0000
# 5 0.0000 0.0000 0.0000 0.0000 26.1934 0.0000
# 6 0.0000 0.0000 0.0000 0.0000 0.0000 22.1992
#
#
#
# Elastic Compliance Matrix: (Units=1/GPa)
#
#
# Indices 1 2 3 4 5 6 
#
# 1 0.038497 -0.023365 -0.003733 0.000000 0.000000 0.000000
# 2 -0.023365 0.038497 -0.003733 0.000000 0.000000 0.000000
# 3 -0.003733 -0.003733 0.011052 0.000000 0.000000 0.000000
# 4 0.000000 0.000000 0.000000 0.038176 0.000000 0.000000
# 5 0.000000 0.000000 0.000000 0.000000 0.038178 0.000000
# 6 0.000000 0.000000 0.000000 0.000000 0.000000 0.045047
#
#
# Mechanical properties :
#
#
# Convention : Reuss Voigt Hill
#
# Bulk Modulus (GPa) = 37.90084 41.59017 39.74551
# Shear Modulus (GPa) = 17.86324 22.84405 20.35364
#
# Velocity S-wave (km/s) = 3.14672 3.55848 3.35891
# Velocity P-wave (km/s) = 5.84905 6.31963 6.08889
#
# Compressibility (1/GPa) = 0.02638464
#
# Stress axis : x y z
#
# Youngs Moduli (GPa) = 25.97602 25.97572 90.47903
#
# Poissons Ratio (x) = 0.60691 0.33778
# Poissons Ratio (y) = 0.60692 0.33778
# Poissons Ratio (z) = 0.09697 0.09697
#
# Static dielectric constant tensor:
#      x y z
#    x 3.123940 0.000000 0.000000 
#    y 0.000000 3.123940 0.000000 
#    z 0.000000 0.000000 3.820070 
# 
# 
# High freq. dielectric constant tensor:
#      x y z
#    x 1.658260 0.000000 0.000000 
#    y 0.000000 1.658260 0.000000 
#    z 0.000000 0.000000 1.722750 
# 
# From -- ./inp_files/4190.got.cif
#   From: 2010.03.12/outbox.cif.g09.slc.cpg/sg125_3_cif.got.tgz:4190.got - 2010.04.06 16:47:52.
