data_PCOD8313853
_publ_section_title
;
Structure prediction by ZEFSAII (Michael W. Deem and Ramdas Pophale) SiO2 
 PCOD8313853
Probable space group: P 4/M B M
;
_chemical_formula_sum "Si O2"
_cell_formula_units_Z 96
_cell_length_a 24.038062
_cell_length_b 24.038062
_cell_length_c 9.656314
_cell_angle_alpha 90.000000
_cell_angle_beta 90.000000
_cell_angle_gamma 90.000000
_cell_volume 5579.692707
_symmetry_space_group_name_H-M "P 4/M B M"
_symmetry_group_IT_number 127
_symmetry_cell_setting 'tetragonal'
loop_
_space_group_symop_operation_xyz
x,y,z
-y,x,z
-x,-y,z
y,-x,z
1/2+x,1/2-y,-z
1/2-x,1/2+y,-z
1/2+y,1/2+x,-z
1/2-y,1/2-x,-z
-x,-y,-z
y,-x,-z
x,y,-z
-y,x,-z
1/2-x,1/2+y,z
1/2+x,1/2-y,z
1/2-y,1/2-x,z
1/2+y,1/2+x,z
loop_
_atom_site_type_symbol
_atom_site_label
_atom_site_fract_x
_atom_site_fract_y
_atom_site_fract_z
Si Si1 0.266476 0.853078 0.835754
Si Si2 0.566885 0.442516 0.164400
Si Si3 0.858233 0.161383 0.834790
Si Si4 0.730795 0.858743 0.657557
Si Si5 0.950676 0.361811 0.343894
Si Si6 0.557297 0.148157 0.159112
O O1 0.296682 0.796682 0.780164
O O2 0.203165 0.856984 0.785107
O O3 0.300018 0.906848 0.781811
O O4 0.269662 0.852645 0.000000
O O5 0.577804 0.505840 0.216295
O O6 0.614857 0.401503 0.220600
O O7 0.567417 0.440990 0.000000
O O8 0.871315 0.219574 0.762885
O O9 0.861911 0.169148 0.000000
O O10 0.752881 0.852891 0.500000
O O11 0.697243 0.802758 0.699815
O O12 0.691035 0.911275 0.669977
O O13 0.973292 0.366731 0.500000
O O14 0.917222 0.417222 0.302916
O O15 0.001133 0.355333 0.241751
O O16 0.591426 0.091426 0.177552
O O17 0.541802 0.158251 0.000000
#
# Coordination Sequence:
#
# PCOD8313853 Si02
#       6
#    16  16  16  16  16  16
#     4   8  15  28  44  66  99 128 147 183 240 285
#     4   8  15  28  44  66  99 130 153 186 233 278
#     4  10  18  28  50  78  94 116 160 200 228 271
#     4   9  19  35  50  66  95 129 154 186 239 291
#     4   9  19  35  51  67  92 127 162 197 240 285
#     4   9  18  32  49  70  98 130 160 194 238 282
#
# _framework density 17.205249999999999
#
# number of rings (size 3 to 8) (size 9 to 14) (size 15 to 20)
#    0.000    3.167    0.000    3.000    0.000    4.000 
#    0.000    7.500    0.000    2.000    0.000    1.167 
#    0.000    0.000    0.000    0.000    0.000    0.000 
#
# Total GULP energy -1189891.245157 kJ/mol
# GULP energy per Si atom -12394.700470 kJ/mol
# Density = 1.716609 g / cm^3
# Si number density = 17.205250 Si / 1000 Ang^3
#
#
#
# Elastic Constant Matrix: (Units=GPa)
#
#
# Indices 1 2 3 4 5 6 
#
# 1 128.7211 35.2897 36.2309 0.0000 0.0000 0.0000
# 2 35.2897 128.7211 36.2309 0.0000 0.0000 0.0000
# 3 36.2309 36.2309 39.2413 0.0000 0.0000 0.0000
# 4 0.0000 0.0000 0.0000 13.5579 0.0000 0.0000
# 5 0.0000 0.0000 0.0000 0.0000 13.5579 0.0000
# 6 0.0000 0.0000 0.0000 0.0000 0.0000 23.1211
#
#
#
# Elastic Compliance Matrix: (Units=1/GPa)
#
#
# Indices 1 2 3 4 5 6 
#
# 1 0.010500 -0.000203 -0.009508 0.000000 0.000000 0.000000
# 2 -0.000203 0.010500 -0.009508 0.000000 0.000000 0.000000
# 3 -0.009508 -0.009508 0.043040 0.000000 0.000000 0.000000
# 4 0.000000 0.000000 0.000000 0.073758 0.000000 0.000000
# 5 0.000000 0.000000 0.000000 0.000000 0.073758 0.000000
# 6 0.000000 0.000000 0.000000 0.000000 0.000000 0.043250
#
#
# Mechanical properties :
#
#
# Convention : Reuss Voigt Hill
#
# Bulk Modulus (GPa) = 39.05550 56.90961 47.98255
# Shear Modulus (GPa) = 16.56842 22.64284 19.60563
#
# Velocity S-wave (km/s) = 3.10657 3.63167 3.37933
# Velocity P-wave (km/s) = 5.96798 7.12278 6.57080
#
# Compressibility (1/GPa) = 0.02560459
#
# Stress axis : x y z
#
# Youngs Moduli (GPa) = 95.23416 95.23416 23.23405
#
# Poissons Ratio (x) = 0.01930 0.22091
# Poissons Ratio (y) = 0.01930 0.22091
# Poissons Ratio (z) = 0.90547 0.90547
#
# Static dielectric constant tensor:
#      x y z
#    x 3.331850 0.000000 0.000000 
#    y 0.000000 3.331850 0.000000 
#    z 0.000000 0.000000 2.890390 
# 
# 
# High freq. dielectric constant tensor:
#      x y z
#    x 1.668900 0.000000 0.000000 
#    y 0.000000 1.668900 0.000000 
#    z 0.000000 0.000000 1.625490 
# 
# From -- ./inp_files/1937.got.cif
#   From: 2010.03.12/outbox.cif.g09.slc.cpg/sg127_1_cif.got.tgz:1937.got - 2010.04.06 17:03:15.
