data_PCOD8313362
_publ_section_title
;
Structure prediction by ZEFSAII (Michael W. Deem and Ramdas Pophale) SiO2 
 PCOD8313362
Probable space group: P 4/M C C
;
_chemical_formula_sum "Si O2"
_cell_formula_units_Z 64
_cell_length_a 19.768470
_cell_length_b 19.768470
_cell_length_c 8.409205
_cell_angle_alpha 90.000000
_cell_angle_beta 90.000000
_cell_angle_gamma 90.000000
_cell_volume 3286.253456
_symmetry_space_group_name_H-M "P 4/M C C"
_symmetry_group_IT_number 124
_symmetry_cell_setting 'tetragonal'
loop_
_space_group_symop_operation_xyz
x,y,z
-y,x,z
-x,-y,z
y,-x,z
x,-y,1/2-z
-x,y,1/2-z
y,x,1/2-z
-y,-x,1/2-z
-x,-y,-z
y,-x,-z
x,y,-z
-y,x,-z
-x,y,1/2+z
x,-y,1/2+z
-y,-x,1/2+z
y,x,1/2+z
loop_
_atom_site_type_symbol
_atom_site_label
_atom_site_fract_x
_atom_site_fract_y
_atom_site_fract_z
Si Si1 0.320012 0.782427 0.186972
Si Si2 0.168272 0.066300 0.311306
Si Si3 0.676372 0.425143 0.187087
Si Si4 0.315249 0.929956 0.315927
O O1 0.247877 0.752124 0.250000
O O2 0.381440 0.739813 0.256675
O O3 0.336141 0.860483 0.228880
O O4 0.318149 0.774405 0.000000
O O5 0.132645 0.132645 0.250000
O O6 0.180627 0.068382 0.500000
O O7 0.236123 0.062781 0.210373
O O8 0.126726 0.000000 0.250000
O O9 0.685450 0.500000 0.250000
O O10 0.606391 0.393610 0.250000
O O11 0.674196 0.425714 0.000000
O O12 0.333790 0.923410 0.500000
O O13 0.350095 0.000000 0.250000
#
# Coordination Sequence:
#
# PCOD8313362 Si02
#       4
#    16  16  16  16
#     4  11  21  36  57  84 114 150 191 237 285 338
#     4  11  21  34  48  66  90 122 162 210 265 327
#     4  11  22  39  61  90 123 159 196 235 277 328
#     4  11  21  35  53  77 105 138 178 228 282 336
#
# _framework density 19.475066000000002
#
# number of rings (size 3 to 8) (size 9 to 14) (size 15 to 20)
#    0.000    1.000    0.000   12.750    0.000    0.500 
#    0.000    2.500    0.000    0.750    0.000    5.250 
#    0.000    0.000    0.000    0.000    0.000    0.000 
#
# Total GULP energy -793204.642239 kJ/mol
# GULP energy per Si atom -12393.822535 kJ/mol
# Density = 1.943074 g / cm^3
# Si number density = 19.475066 Si / 1000 Ang^3
#
#
#
# Elastic Constant Matrix: (Units=GPa)
#
#
# Indices 1 2 3 4 5 6 
#
# 1 105.5432 30.8540 29.8223 0.0000 0.0000 0.0000
# 2 30.8540 105.5381 29.8215 0.0000 0.0000 0.0000
# 3 29.8223 29.8215 159.9314 0.0000 0.0000 0.0000
# 4 0.0000 0.0000 0.0000 33.2777 0.0000 0.0000
# 5 0.0000 0.0000 0.0000 0.0000 33.2780 0.0000
# 6 0.0000 0.0000 0.0000 0.0000 0.0000 19.0162
#
#
#
# Elastic Compliance Matrix: (Units=1/GPa)
#
#
# Indices 1 2 3 4 5 6 
#
# 1 0.010686 -0.002703 -0.001488 0.000000 0.000000 0.000000
# 2 -0.002703 0.010686 -0.001489 0.000000 0.000000 0.000000
# 3 -0.001488 -0.001489 0.006808 0.000000 0.000000 0.000000
# 4 0.000000 0.000000 0.000000 0.030050 0.000000 0.000000
# 5 0.000000 0.000000 0.000000 0.000000 0.030050 0.000000
# 6 0.000000 0.000000 0.000000 0.000000 0.000000 0.052587
#
#
# Mechanical properties :
#
#
# Convention : Reuss Voigt Hill
#
# Bulk Modulus (GPa) = 59.45662 61.33425 60.39543
# Shear Modulus (GPa) = 31.67901 35.81539 33.74720
#
# Velocity S-wave (km/s) = 4.03754 4.29305 4.16726
# Velocity P-wave (km/s) = 7.23406 7.49239 7.36435
#
# Compressibility (1/GPa) = 0.01681898
#
# Stress axis : x y z
#
# Youngs Moduli (GPa) = 93.58333 93.57882 146.89063
#
# Poissons Ratio (x) = 0.25298 0.21864
# Poissons Ratio (y) = 0.25299 0.21865
# Poissons Ratio (z) = 0.13930 0.13929
#
# Static dielectric constant tensor:
#      x y z
#    x -0.089420 0.000000 0.000000 
#    y 0.000000 -0.089320 0.000000 
#    z 0.000000 0.000000 3.725840 
# 
# 
# High freq. dielectric constant tensor:
#      x y z
#    x 1.747350 0.000000 0.000000 
#    y 0.000000 1.747350 0.000000 
#    z 0.000000 0.000000 1.784080 
# 
# From -- ./inp_files/866.got.cif
#   From: 2010.03.12/outbox.cif.g09.slc.cpg/sg124_1_cif.got.tgz:866.got - 2010.04.06 16:38:57.
