data_PCOD8313401
_publ_section_title
;
Structure prediction by ZEFSAII (Michael W. Deem and Ramdas Pophale) SiO2 
 PCOD8313401
Probable space group: P 4/M C C
;
_chemical_formula_sum "Si O2"
_cell_formula_units_Z 80
_cell_length_a 15.802918
_cell_length_b 15.802918
_cell_length_c 18.880765
_cell_angle_alpha 90.000000
_cell_angle_beta 90.000000
_cell_angle_gamma 90.000000
_cell_volume 4715.135308
_symmetry_space_group_name_H-M "P 4/M C C"
_symmetry_group_IT_number 124
_symmetry_cell_setting 'tetragonal'
loop_
_space_group_symop_operation_xyz
x,y,z
-y,x,z
-x,-y,z
y,-x,z
x,-y,1/2-z
-x,y,1/2-z
y,x,1/2-z
-y,-x,1/2-z
-x,-y,-z
y,-x,-z
x,y,-z
-y,x,-z
-x,y,1/2+z
x,-y,1/2+z
-y,-x,1/2+z
y,x,1/2+z
loop_
_atom_site_type_symbol
_atom_site_label
_atom_site_fract_x
_atom_site_fract_y
_atom_site_fract_z
Si Si1 0.815547 0.827922 0.667946
Si Si2 0.409385 0.034558 0.417534
Si Si3 0.991723 0.748720 0.668130
Si Si4 0.619174 0.441103 0.415834
Si Si5 0.218158 0.343989 0.082939
O O1 0.803942 0.803942 0.750000
O O2 0.805706 0.926967 0.649434
O O3 0.745186 0.778066 0.623391
O O4 0.910045 0.802591 0.645980
O O5 0.397379 0.014757 0.500000
O O6 0.337524 0.984430 0.375652
O O7 0.398831 0.134216 0.401335
O O8 0.500000 0.000000 0.391109
O O9 0.000000 0.723503 0.750000
O O10 0.612109 0.537876 0.388669
O O11 0.621024 0.441189 0.500000
O O12 0.704484 0.399179 0.386445
O O13 0.227182 0.324132 0.000000
#
# Coordination Sequence:
#
# PCOD8313401 Si02
#       5
#    16  16  16  16  16
#     4   9  18  32  48  67  91 118 149 185 224 268
#     4   9  18  31  46  67  95 122 150 187 227 269
#     4   9  18  32  49  68  91 119 151 187 226 269
#     4   8  14  25  42  65  90 114 145 185 222 259
#     4   9  17  29  46  68  92 118 149 185 225 268
#
# _framework density 16.966640000000002
#
# number of rings (size 3 to 8) (size 9 to 14) (size 15 to 20)
#    0.000    3.200    0.000    0.600    0.000    3.200 
#    0.000    6.000    0.000    3.600    0.000    7.000 
#    0.000    0.000    0.000    0.000    0.000    0.000 
#
# Total GULP energy -991705.454263 kJ/mol
# GULP energy per Si atom -12396.318178 kJ/mol
# Density = 1.692802 g / cm^3
# Si number density = 16.966640 Si / 1000 Ang^3
#
#
#
# Elastic Constant Matrix: (Units=GPa)
#
#
# Indices 1 2 3 4 5 6 
#
# 1 134.2364 85.1481 39.9959 0.0000 0.0000 0.0000
# 2 85.1481 134.2364 39.9959 0.0000 0.0000 0.0000
# 3 39.9959 39.9959 32.1248 0.0000 0.0000 0.0000
# 4 0.0000 0.0000 0.0000 24.3509 0.0000 0.0000
# 5 0.0000 0.0000 0.0000 0.0000 24.3509 0.0000
# 6 0.0000 0.0000 0.0000 0.0000 0.0000 31.6761
#
#
#
# Elastic Compliance Matrix: (Units=1/GPa)
#
#
# Indices 1 2 3 4 5 6 
#
# 1 0.014360 -0.006012 -0.010393 0.000000 0.000000 0.000000
# 2 -0.006012 0.014360 -0.010393 0.000000 0.000000 0.000000
# 3 -0.010393 -0.010393 0.057008 0.000000 0.000000 0.000000
# 4 0.000000 0.000000 0.000000 0.041066 0.000000 0.000000
# 5 0.000000 0.000000 0.000000 0.000000 0.041066 0.000000
# 6 0.000000 0.000000 0.000000 0.000000 0.000000 0.031570
#
#
# Mechanical properties :
#
#
# Convention : Reuss Voigt Hill
#
# Bulk Modulus (GPa) = 31.12269 70.09752 50.61010
# Shear Modulus (GPa) = 18.95842 25.10609 22.03226
#
# Velocity S-wave (km/s) = 3.34637 3.85090 3.60747
# Velocity P-wave (km/s) = 5.77185 7.82159 6.87355
#
# Compressibility (1/GPa) = 0.03213090
#
# Stress axis : x y z
#
# Youngs Moduli (GPa) = 69.63990 69.63990 17.54149
#
# Poissons Ratio (x) = 0.41867 0.18231
# Poissons Ratio (y) = 0.41867 0.18231
# Poissons Ratio (z) = 0.72377 0.72377
#
# Static dielectric constant tensor:
#      x y z
#    x 3.322620 0.000000 0.000000 
#    y 0.000000 3.322620 0.000000 
#    z 0.000000 0.000000 2.950040 
# 
# 
# High freq. dielectric constant tensor:
#      x y z
#    x 1.657590 0.000000 0.000000 
#    y 0.000000 1.657590 0.000000 
#    z 0.000000 0.000000 1.627480 
# 
# From -- ./inp_files/5066.got.cif
#   From: 2010.03.12/outbox.cif.g09.slc.cpg/sg124_3_cif.got.tgz:5066.got - 2010.04.06 16:38:57.
