data_PCOD8313255
_publ_section_title
;
Structure prediction by ZEFSAII (Michael W. Deem and Ramdas Pophale) SiO2 
 PCOD8313255
Probable space group: P 4/M C C
;
_chemical_formula_sum "Si O2"
_cell_formula_units_Z 64
_cell_length_a 20.027194
_cell_length_b 20.027194
_cell_length_c 8.600152
_cell_angle_alpha 90.000000
_cell_angle_beta 90.000000
_cell_angle_gamma 90.000000
_cell_volume 3449.422061
_symmetry_space_group_name_H-M "P 4/M C C"
_symmetry_group_IT_number 124
_symmetry_cell_setting 'tetragonal'
loop_
_space_group_symop_operation_xyz
x,y,z
-y,x,z
-x,-y,z
y,-x,z
x,-y,1/2-z
-x,y,1/2-z
y,x,1/2-z
-y,-x,1/2-z
-x,-y,-z
y,-x,-z
x,y,-z
-y,x,-z
-x,y,1/2+z
x,-y,1/2+z
-y,-x,1/2+z
y,x,1/2+z
loop_
_atom_site_type_symbol
_atom_site_label
_atom_site_fract_x
_atom_site_fract_y
_atom_site_fract_z
Si Si1 0.173651 0.070414 0.316197
Si Si2 0.570936 0.819838 0.314856
Si Si3 0.069557 0.325192 0.183073
Si Si4 0.324459 0.571503 0.815381
O O1 0.129993 0.129993 0.250000
O O2 0.167577 0.068861 0.500000
O O3 0.249624 0.083285 0.259866
O O4 0.147442 0.000000 0.250000
O O5 0.500000 0.844979 0.250000
O O6 0.567285 0.813250 0.500000
O O7 0.627199 0.871398 0.257607
O O8 0.590421 0.749149 0.241940
O O9 0.000000 0.352345 0.250000
O O10 0.064415 0.327755 0.000000
O O11 0.346876 0.500000 0.750000
O O12 0.373765 0.626236 0.750000
O O13 0.326541 0.569930 0.000000
#
# Coordination Sequence:
#
# PCOD8313255 Si02
#       4
#    16  16  16  16
#     4  10  20  36  55  78 105 137 173 216 262 312
#     4  10  20  36  55  80 110 143 181 223 267 317
#     4   9  20  36  55  78 108 141 179 221 267 318
#     4  11  22  38  58  82 110 143 180 222 268 319
#
# _framework density 18.553832
#
# number of rings (size 3 to 8) (size 9 to 14) (size 15 to 20)
#    0.000    2.000    0.000    5.250    0.000    5.000 
#    0.000    7.500    0.000    0.000    0.000    0.000 
#    0.000    0.000    0.000    0.000    0.000    0.000 
#
# Total GULP energy -793783.297367 kJ/mol
# GULP energy per Si atom -12402.864021 kJ/mol
# Density = 1.851160 g / cm^3
# Si number density = 18.553832 Si / 1000 Ang^3
#
#
#
# Elastic Constant Matrix: (Units=GPa)
#
#
# Indices 1 2 3 4 5 6 
#
# 1 129.3197 104.6865 50.8540 0.0000 0.0000 0.0000
# 2 104.6865 129.3061 50.8546 0.0000 0.0000 0.0000
# 3 50.8540 50.8546 102.0835 0.0000 0.0000 0.0000
# 4 0.0000 0.0000 0.0000 32.6854 0.0000 0.0000
# 5 0.0000 0.0000 0.0000 0.0000 32.6852 0.0000
# 6 0.0000 0.0000 0.0000 0.0000 0.0000 -170.3368
#
#
#
# Elastic Compliance Matrix: (Units=1/GPa)
#
#
# Indices 1 2 3 4 5 6 
#
# 1 0.023029 -0.017576 -0.002716 0.000000 0.000000 0.000000
# 2 -0.017576 0.023032 -0.002718 0.000000 0.000000 0.000000
# 3 -0.002716 -0.002718 0.012503 0.000000 0.000000 0.000000
# 4 0.000000 0.000000 0.000000 0.030595 0.000000 0.000000
# 5 0.000000 0.000000 0.000000 0.000000 0.030595 0.000000
# 6 0.000000 0.000000 0.000000 0.000000 0.000000 -0.005871
#
#
# Mechanical properties :
#
#
# Convention : Reuss Voigt Hill
#
# Bulk Modulus (GPa) = 79.72407 85.94440 82.83423
# Shear Modulus (GPa) = 30.47181 -10.70564 9.88308
#
# Velocity S-wave (km/s) = 4.05698 -2.40470 2.31047
# Velocity P-wave (km/s) = 8.06274 6.22191 7.20139
#
# Compressibility (1/GPa) = 0.01254326
#
# Stress axis : x y z
#
# Youngs Moduli (GPa) = 43.42322 43.41728 79.97947
#
# Poissons Ratio (x) = 0.76311 0.21725
# Poissons Ratio (y) = 0.76321 0.21740
# Poissons Ratio (z) = 0.11795 0.11802
#
# Static dielectric constant tensor:
#      x y z
#    x 3.575640 0.000000 0.000000 
#    y 0.000000 3.575650 0.000000 
#    z 0.000000 0.000000 3.505320 
# 
# 
# High freq. dielectric constant tensor:
#      x y z
#    x 1.724210 0.000000 0.000000 
#    y 0.000000 1.724210 0.000000 
#    z 0.000000 0.000000 1.733130 
# 
# From -- ./inp_files/875.got.cif
#   From: 2010.03.12/outbox.cif.g09.slc.cpg/sg124_1_cif.got.tgz:875.got - 2010.04.06 16:38:57.
