data_PCOD8313003
_publ_section_title
;
Structure prediction by ZEFSAII (Michael W. Deem and Ramdas Pophale) SiO2 
 PCOD8313003
Probable space group: P 4/M M M
;
_chemical_formula_sum "Si O2"
_cell_formula_units_Z 112
_cell_length_a 14.105526
_cell_length_b 14.105526
_cell_length_c 35.365099
_cell_angle_alpha 90.000000
_cell_angle_beta 90.000000
_cell_angle_gamma 90.000000
_cell_volume 7036.447469
_symmetry_space_group_name_H-M "P 4/M M M"
_symmetry_group_IT_number 123
_symmetry_cell_setting 'tetragonal'
loop_
_space_group_symop_operation_xyz
x,y,z
-y,x,z
-x,-y,z
y,-x,z
x,-y,-z
-x,y,-z
y,x,-z
-y,-x,-z
-x,-y,-z
y,-x,-z
x,y,-z
-y,x,-z
-x,y,z
x,-y,z
-y,-x,z
y,x,z
loop_
_atom_site_type_symbol
_atom_site_label
_atom_site_fract_x
_atom_site_fract_y
_atom_site_fract_z
Si Si1 0.108398 0.261583 0.410044
Si Si2 0.236506 0.389406 0.892453
Si Si3 0.894511 0.387588 0.958392
Si Si4 0.388644 0.768576 0.728503
Si Si5 0.238332 0.391572 0.543979
Si Si6 0.891341 0.738002 0.677970
Si Si7 0.758296 0.606729 0.189145
O O1 0.166242 0.166242 0.420116
O O2 0.149482 0.350553 0.432994
O O3 0.117119 0.286493 0.366052
O O4 0.000000 0.244234 0.422080
O O5 0.255535 0.500000 0.899765
O O6 0.337121 0.337121 0.894693
O O7 0.169372 0.345291 0.924814
O O8 0.187145 0.371676 0.850725
O O9 0.898515 0.500000 0.954660
O O10 0.000000 0.345789 0.953628
O O11 0.854353 0.359249 0.000000
O O12 0.500000 0.748454 0.720633
O O13 0.329125 0.670876 0.722896
O O14 0.351809 0.848864 0.700087
O O15 0.372416 0.812332 0.771164
O O16 0.213121 0.382793 0.500000
O O17 0.255821 0.500000 0.555964
O O18 0.333759 0.333759 0.553970
O O19 0.833477 0.833477 0.688113
O O20 0.000000 0.754794 0.690014
O O21 0.724473 0.500000 0.188730
O O22 0.660709 0.660709 0.189522
#
# Coordination Sequence:
#
# PCOD8313003 Si02
#       7
#    16  16  16  16  16  16  16
#     4   9  18  32  49  69  92 117 146 180 218 262
#     4   9  16  25  38  57  81 107 133 161 195 238
#     4   8  14  25  39  52  68  95 131 167 199 229
#     4   9  17  29  44  62  86 115 146 179 213 251
#     4   9  18  32  49  69  93 121 153 188 223 258
#     4   9  18  32  49  68  89 114 144 179 220 264
#     4   8  14  24  37  54  78 108 139 169 199 233
#
# _framework density 15.917123999999999
#
# number of rings (size 3 to 8) (size 9 to 14) (size 15 to 20)
#    0.000    3.286    0.000    0.429    0.000    2.571 
#    0.000    7.857    0.000    2.571    0.000    8.000 
#    0.000    0.286    0.000    1.571    0.000    0.143 
#
# Total GULP energy -1387491.458047 kJ/mol
# GULP energy per Si atom -12388.316590 kJ/mol
# Density = 1.588090 g / cm^3
# Si number density = 15.917124 Si / 1000 Ang^3
#
#
#
# Elastic Constant Matrix: (Units=GPa)
#
#
# Indices 1 2 3 4 5 6 
#
# 1 86.1817 38.6586 49.5189 0.0000 0.0000 0.0000
# 2 38.6586 86.1817 49.5189 0.0000 0.0000 0.0000
# 3 49.5189 49.5189 78.7378 0.0000 0.0000 0.0000
# 4 0.0000 0.0000 0.0000 22.9631 0.0000 0.0000
# 5 0.0000 0.0000 0.0000 0.0000 22.9631 0.0000
# 6 0.0000 0.0000 0.0000 0.0000 0.0000 9.8046
#
#
#
# Elastic Compliance Matrix: (Units=1/GPa)
#
#
# Indices 1 2 3 4 5 6 
#
# 1 0.018514 -0.002528 -0.010054 0.000000 0.000000 0.000000
# 2 -0.002528 0.018514 -0.010054 0.000000 0.000000 0.000000
# 3 -0.010054 -0.010054 0.025346 0.000000 0.000000 0.000000
# 4 0.000000 0.000000 0.000000 0.043548 0.000000 0.000000
# 5 0.000000 0.000000 0.000000 0.000000 0.043548 0.000000
# 6 0.000000 0.000000 0.000000 0.000000 0.000000 0.101993
#
#
# Mechanical properties :
#
#
# Convention : Reuss Voigt Hill
#
# Bulk Modulus (GPa) = 58.46854 58.49933 58.48393
# Shear Modulus (GPa) = 16.53239 18.70648 17.61943
#
# Velocity S-wave (km/s) = 3.22631 3.43190 3.33069
# Velocity P-wave (km/s) = 7.11981 7.24818 7.18428
#
# Compressibility (1/GPa) = 0.01710321
#
# Stress axis : x y z
#
# Youngs Moduli (GPa) = 54.01247 54.01247 39.45357
#
# Poissons Ratio (x) = 0.13655 0.39666
# Poissons Ratio (y) = 0.13655 0.39666
# Poissons Ratio (z) = 0.54303 0.54303
#
# Static dielectric constant tensor:
#      x y z
#    x 2.890810 0.000000 0.000000 
#    y 0.000000 2.890810 0.000000 
#    z 0.000000 0.000000 3.451030 
# 
# 
# High freq. dielectric constant tensor:
#      x y z
#    x 1.588170 0.000000 0.000000 
#    y 0.000000 1.588170 0.000000 
#    z 0.000000 0.000000 1.628320 
# 
# From -- ./inp_files/8780.got.cif
#   From: 2010.03.12/outbox.cif.g09.slc.cpg/sg123_5_cif.got.tgz:8780.got - 2010.04.06 16:26:55.
