data_PCOD8313456
_publ_section_title
;
Structure prediction by ZEFSAII (Michael W. Deem and Ramdas Pophale) SiO2 
 PCOD8313456
Probable space group: P 4/N B M
;
_chemical_formula_sum "Si O2"
_cell_formula_units_Z 96
_cell_length_a 24.156122
_cell_length_b 24.156122
_cell_length_c 8.168756
_cell_angle_alpha 90.000000
_cell_angle_beta 90.000000
_cell_angle_gamma 90.000000
_cell_volume 4766.618043
_symmetry_space_group_name_H-M "P 4/N B M"
_symmetry_group_IT_number 125
_space_group.IT_coordinate_system_code '2'
_symmetry_cell_setting 'tetragonal'
loop_
_space_group_symop_operation_xyz
x,y,z
1/2-y,x,z
1/2-x,1/2-y,z
y,1/2-x,z
x,1/2-y,-z
1/2-x,y,-z
y,x,-z
1/2-y,1/2-x,-z
-x,-y,-z
1/2+y,-x,-z
1/2+x,1/2+y,-z
-y,1/2+x,-z
-x,1/2+y,z
1/2+x,-y,z
-y,-x,z
1/2+y,1/2+x,z
loop_
_atom_site_type_symbol
_atom_site_label
_atom_site_fract_x
_atom_site_fract_y
_atom_site_fract_z
Si Si1 0.130970 0.957044 0.191176
Si Si2 0.514904 0.250001 0.689350
Si Si3 0.862253 0.862256 0.317271
Si Si4 0.058008 0.058007 0.817998
Si Si5 0.896940 0.750002 0.187089
Si Si6 0.542958 0.369029 0.191176
O O1 0.102729 0.897272 0.219182
O O2 0.191807 0.953295 0.275200
O O3 0.087786 0.003905 0.265076
O O4 0.139631 0.970412 1.000000
O O5 0.497536 0.250000 0.500000
O O6 0.463010 0.250004 0.809851
O O7 0.546704 0.191808 0.724804
O O8 0.880522 0.880522 0.500000
O O9 0.895354 0.895356 0.179137
O O10 0.872948 0.798895 0.292033
O O11 0.798893 0.872955 0.292042
O O12 0.087786 0.003902 0.734925
O O13 0.040276 0.040276 0.000000
O O14 0.876264 0.750000 0.000000
O O15 0.602731 0.397270 0.219182
#
# Coordination Sequence:
#
# PCOD8313456 Si02
#       6
#    16  16  16  16  16  16
#     4  10  21  38  62  91 122 158 202 247 294 356
#     4  12  24  38  59  88 123 160 196 245 300 353
#     4  12  24  38  58  87 118 153 200 256 302 347
#     4  10  19  34  59  89 122 159 195 239 294 355
#     4  12  24  41  61  82 113 161 209 249 294 353
#     4  10  21  38  62  91 122 158 202 247 294 356
#
# _framework density 20.140066999999998
#
# number of rings (size 3 to 8) (size 9 to 14) (size 15 to 20)
#    0.000    1.000    3.333    5.000    0.000    3.000 
#    0.000    1.667    0.000    3.500    0.000    3.500 
#    0.000    0.000    0.000    0.000    0.000    0.000 
#
# Total GULP energy -1189305.364642 kJ/mol
# GULP energy per Si atom -12388.597548 kJ/mol
# Density = 2.009423 g / cm^3
# Si number density = 20.140067 Si / 1000 Ang^3
#
#
#
# Elastic Constant Matrix: (Units=GPa)
#
#
# Indices 1 2 3 4 5 6 
#
# 1 316.9752 -129.8494 18.4149 0.0000 0.0000 0.0000
# 2 -129.8494 316.9752 18.4149 0.0000 0.0000 0.0000
# 3 18.4149 18.4149 71.8967 0.0000 0.0000 0.0000
# 4 0.0000 0.0000 0.0000 21.9530 0.0000 0.0000
# 5 0.0000 0.0000 0.0000 0.0000 21.9530 0.0000
# 6 0.0000 0.0000 0.0000 0.0000 0.0000 15.8052
#
#
#
# Elastic Compliance Matrix: (Units=1/GPa)
#
#
# Indices 1 2 3 4 5 6 
#
# 1 0.003933 0.001695 -0.001441 0.000000 0.000000 0.000000
# 2 0.001695 0.003933 -0.001441 0.000000 0.000000 0.000000
# 3 -0.001441 -0.001441 0.014647 0.000000 0.000000 0.000000
# 4 0.000000 0.000000 0.000000 0.045552 0.000000 0.000000
# 5 0.000000 0.000000 0.000000 0.000000 0.045552 0.000000
# 6 0.000000 0.000000 0.000000 0.000000 0.000000 0.063270
#
#
# Mechanical properties :
#
#
# Convention : Reuss Voigt Hill
#
# Bulk Modulus (GPa) = 49.65999 57.75643 53.70821
# Shear Modulus (GPa) = 26.88528 65.20001 46.04265
#
# Velocity S-wave (km/s) = 3.65761 5.69593 4.78653
# Velocity P-wave (km/s) = 6.52291 8.48515 7.56790
#
# Compressibility (1/GPa) = 0.02013694
#
# Stress axis : x y z
#
# Youngs Moduli (GPa) = 254.26813 254.26813 68.27230
#
# Poissons Ratio (x) = -0.43094 0.09841
# Poissons Ratio (y) = -0.43094 0.09841
# Poissons Ratio (z) = 0.36651 0.36651
#
# Static dielectric constant tensor:
#      x y z
#    x 3.638310 0.000000 0.000000 
#    y 0.000000 3.638310 0.000000 
#    z 0.000000 0.000000 3.428080 
# 
# 
# High freq. dielectric constant tensor:
#      x y z
#    x 1.780150 0.000000 0.000000 
#    y 0.000000 1.780150 0.000000 
#    z 0.000000 0.000000 1.773270 
# 
# From -- ./inp_files/2883.got.cif
#   From: 2010.03.12/outbox.cif.g09.slc.cpg/sg125_2_cif.got.tgz:2883.got - 2010.04.06 16:47:52.
