data_PCOD8313944
_publ_section_title
;
Structure prediction by ZEFSAII (Michael W. Deem and Ramdas Pophale) SiO2 
 PCOD8313944
Probable space group: P 4/M B M
;
_chemical_formula_sum "Si O2"
_cell_formula_units_Z 72
_cell_length_a 21.470763
_cell_length_b 21.470763
_cell_length_c 8.833757
_cell_angle_alpha 90.000000
_cell_angle_beta 90.000000
_cell_angle_gamma 90.000000
_cell_volume 4072.306005
_symmetry_space_group_name_H-M "P 4/M B M"
_symmetry_group_IT_number 127
_symmetry_cell_setting 'tetragonal'
loop_
_space_group_symop_operation_xyz
x,y,z
-y,x,z
-x,-y,z
y,-x,z
1/2+x,1/2-y,-z
1/2-x,1/2+y,-z
1/2+y,1/2+x,-z
1/2-y,1/2-x,-z
-x,-y,-z
y,-x,-z
x,y,-z
-y,x,-z
1/2-x,1/2+y,z
1/2+x,1/2-y,z
1/2-y,1/2-x,z
1/2+y,1/2+x,z
loop_
_atom_site_type_symbol
_atom_site_label
_atom_site_fract_x
_atom_site_fract_y
_atom_site_fract_z
Si Si1 0.129764 0.124405 0.820223
Si Si2 0.185046 0.995167 0.179050
Si Si3 0.315588 0.045296 0.820843
Si Si4 0.247892 0.155067 0.667958
Si Si5 0.448354 0.051647 0.321330
O O1 0.065079 0.150462 0.752573
O O2 0.183306 0.167808 0.752823
O O3 0.145588 0.054595 0.762320
O O4 0.130225 0.128250 0.000000
O O5 0.258496 0.998472 0.225771
O O6 0.180986 0.993740 0.000000
O O7 0.294095 0.112852 0.766842
O O8 0.381696 0.028557 0.744351
O O9 0.325886 0.045828 0.000000
O O10 0.238425 0.125735 0.500000
O O11 0.277196 0.222805 0.653387
O O12 0.440937 0.059064 0.500000
O O13 0.500000 0.000000 0.278643
#
# Coordination Sequence:
#
# PCOD8313944 Si02
#       5
#    16  16  16  16   8
#     4   9  17  31  50  73 103 135 173 213 258 309
#     4   8  16  30  50  77 103 132 170 216 261 305
#     4  10  19  33  55  78 101 130 169 214 262 307
#     4  10  19  31  49  73 100 128 167 214 260 306
#     4  11  23  37  53  77 107 139 175 211 257 316
#
# _framework density 17.680401
#
# number of rings (size 3 to 8) (size 9 to 14) (size 15 to 20)
#    0.000    2.556    1.111    3.000    0.000    2.667 
#    0.000    8.889    0.000    6.667    0.000    6.222 
#    0.000    0.000    0.000    0.000    0.000    0.000 
#
# Total GULP energy -892131.891847 kJ/mol
# GULP energy per Si atom -12390.720720 kJ/mol
# Density = 1.764016 g / cm^3
# Si number density = 17.680401 Si / 1000 Ang^3
#
#
#
# Elastic Constant Matrix: (Units=GPa)
#
#
# Indices 1 2 3 4 5 6 
#
# 1 128.9963 82.8870 37.7487 0.0000 0.0000 0.0000
# 2 82.8870 128.9962 37.7489 0.0000 0.0000 0.0000
# 3 37.7487 37.7489 56.8300 0.0000 0.0000 0.0000
# 4 0.0000 0.0000 0.0000 13.5014 0.0000 0.0000
# 5 0.0000 0.0000 0.0000 0.0000 13.5014 0.0000
# 6 0.0000 0.0000 0.0000 0.0000 0.0000 28.4636
#
#
#
# Elastic Compliance Matrix: (Units=1/GPa)
#
#
# Indices 1 2 3 4 5 6 
#
# 1 0.013935 -0.007752 -0.004107 0.000000 0.000000 0.000000
# 2 -0.007752 0.013935 -0.004107 0.000000 0.000000 0.000000
# 3 -0.004107 -0.004107 0.023052 0.000000 0.000000 0.000000
# 4 0.000000 0.000000 0.000000 0.074067 0.000000 0.000000
# 5 0.000000 0.000000 0.000000 0.000000 0.074066 0.000000
# 6 0.000000 0.000000 0.000000 0.000000 0.000000 0.035133
#
#
# Mechanical properties :
#
#
# Convention : Reuss Voigt Hill
#
# Bulk Modulus (GPa) = 52.65816 70.17685 61.41751
# Shear Modulus (GPa) = 18.35191 21.52246 19.93719
#
# Velocity S-wave (km/s) = 3.22527 3.49278 3.36168
# Velocity P-wave (km/s) = 6.61194 7.48626 7.06264
#
# Compressibility (1/GPa) = 0.01899041
#
# Stress axis : x y z
#
# Youngs Moduli (GPa) = 71.76029 71.76002 43.37949
#
# Poissons Ratio (x) = 0.55631 0.17816
# Poissons Ratio (y) = 0.55631 0.17816
# Poissons Ratio (z) = 0.29471 0.29472
#
# Static dielectric constant tensor:
#      x y z
#    x 3.488310 0.000000 0.000000 
#    y 0.000000 3.488310 0.000000 
#    z 0.000000 0.000000 3.191330 
# 
# 
# High freq. dielectric constant tensor:
#      x y z
#    x 1.675290 0.000000 0.000000 
#    y 0.000000 1.675290 0.000000 
#    z 0.000000 0.000000 1.674730 
# 
# From -- ./inp_files/1513.got.cif
#   From: 2010.03.12/outbox.cif.g09.slc.cpg/sg127_1_cif.got.tgz:1513.got - 2010.04.06 17:03:15.
