data_PCOD8313771
_publ_section_title
;
Structure prediction by ZEFSAII (Michael W. Deem and Ramdas Pophale) SiO2 
 PCOD8313771
Probable space group: P 4/N N C
;
_chemical_formula_sum "Si O2"
_cell_formula_units_Z 112
_cell_length_a 15.438703
_cell_length_b 15.438703
_cell_length_c 24.624826
_cell_angle_alpha 90.000000
_cell_angle_beta 90.000000
_cell_angle_gamma 90.000000
_cell_volume 5869.414703
_symmetry_space_group_name_H-M "P 4/N N C"
_symmetry_group_IT_number 126
_space_group.IT_coordinate_system_code '2'
_symmetry_cell_setting 'tetragonal'
loop_
_space_group_symop_operation_xyz
x,y,z
1/2-y,x,z
1/2-x,1/2-y,z
y,1/2-x,z
x,1/2-y,1/2-z
1/2-x,y,1/2-z
y,x,1/2-z
1/2-y,1/2-x,1/2-z
-x,-y,-z
1/2+y,-x,-z
1/2+x,1/2+y,-z
-y,1/2+x,-z
-x,1/2+y,1/2+z
1/2+x,-y,1/2+z
-y,-x,1/2+z
1/2+y,1/2+x,1/2+z
loop_
_atom_site_type_symbol
_atom_site_label
_atom_site_fract_x
_atom_site_fract_y
_atom_site_fract_z
Si Si1 0.470738 0.914937 0.921144
Si Si2 0.810644 0.875018 0.971431
Si Si3 0.009016 0.147657 0.190894
Si Si4 0.957556 0.094354 0.605879
Si Si5 0.623179 0.691783 0.400746
Si Si6 0.352454 0.656251 0.493444
Si Si7 0.652692 0.511677 0.813446
O O1 0.544427 0.848009 0.939308
O O2 0.447470 0.889910 0.858486
O O3 0.503431 0.012645 0.926242
O O4 0.388092 0.907779 0.960066
O O5 0.710372 0.864274 0.955087
O O6 0.817261 0.891945 0.035266
O O7 0.934206 0.102043 0.155960
O O8 0.024149 0.246414 0.173517
O O9 0.102333 0.103222 0.181897
O O10 0.974848 0.139749 0.252856
O O11 0.899645 0.147953 0.563986
O O12 0.037377 0.153194 0.628111
O O13 0.708182 0.636712 0.383691
O O14 0.252774 0.633540 0.484202
#
# Coordination Sequence:
#
# PCOD8313771 Si02
#       7
#    16  16  16  16  16  16  16
#     4  11  22  32  55  79 104 147 184 227 269 326
#     4   9  19  31  47  77 117 151 182 225 272 326
#     4   9  19  36  53  79 107 152 182 230 280 318
#     4  11  22  34  58  81 107 147 191 223 279 335
#     4   9  19  35  55  83 117 147 175 225 281 336
#     4  11  25  38  51  77 116 150 180 224 274 332
#     4   9  19  34  53  78 113 141 190 231 269 329
#
# _framework density 19.081970999999999
#
# number of rings (size 3 to 8) (size 9 to 14) (size 15 to 20)
#    0.000    2.143    1.429    2.143    8.000    0.286 
#    0.000    1.429    0.000    0.857    3.714    4.000 
#    0.000   18.286    0.000    0.000    0.000    0.000 
#
# Total GULP energy -1388732.998594 kJ/mol
# GULP energy per Si atom -12399.401773 kJ/mol
# Density = 1.903854 g / cm^3
# Si number density = 19.081971 Si / 1000 Ang^3
#
#
#
# Elastic Constant Matrix: (Units=GPa)
#
#
# Indices 1 2 3 4 5 6 
#
# 1 81.7885 44.9479 33.8362 0.0000 0.0000 0.0000
# 2 44.9479 81.7885 33.8362 0.0000 0.0000 0.0000
# 3 33.8362 33.8362 58.8869 0.0000 0.0000 0.0000
# 4 0.0000 0.0000 0.0000 24.9484 0.0000 0.0000
# 5 0.0000 0.0000 0.0000 0.0000 24.9484 0.0000
# 6 0.0000 0.0000 0.0000 0.0000 0.0000 21.4981
#
#
#
# Elastic Compliance Matrix: (Units=1/GPa)
#
#
# Indices 1 2 3 4 5 6 
#
# 1 0.019263 -0.007881 -0.006540 0.000000 0.000000 0.000000
# 2 -0.007881 0.019263 -0.006540 0.000000 0.000000 0.000000
# 3 -0.006540 -0.006540 0.024498 0.000000 0.000000 0.000000
# 4 0.000000 0.000000 0.000000 0.040083 0.000000 0.000000
# 5 0.000000 0.000000 0.000000 0.000000 0.040083 0.000000
# 6 0.000000 0.000000 0.000000 0.000000 0.000000 0.046516
#
#
# Mechanical properties :
#
#
# Convention : Reuss Voigt Hill
#
# Bulk Modulus (GPa) = 47.38987 49.74493 48.56740
# Shear Modulus (GPa) = 20.95004 21.60188 21.27596
#
# Velocity S-wave (km/s) = 3.31705 3.36826 3.34275
# Velocity P-wave (km/s) = 6.28961 6.42281 6.35656
#
# Compressibility (1/GPa) = 0.02110156
#
# Stress axis : x y z
#
# Youngs Moduli (GPa) = 51.91195 51.91195 40.81969
#
# Poissons Ratio (x) = 0.40910 0.26698
# Poissons Ratio (y) = 0.40910 0.26698
# Poissons Ratio (z) = 0.33953 0.33953
#
# Static dielectric constant tensor:
#      x y z
#    x 3.510830 0.000000 0.000000 
#    y 0.000000 3.510830 0.000000 
#    z 0.000000 0.000000 3.494950 
# 
# 
# High freq. dielectric constant tensor:
#      x y z
#    x 1.737490 0.000000 0.000000 
#    y 0.000000 1.737490 0.000000 
#    z 0.000000 0.000000 1.723280 
# 
# From -- ./inp_files/6234.got.cif
#   From: 2010.03.12/outbox.cif.g09.slc.cpg/sg126_4_cif.got.tgz:6234.got - 2010.04.06 16:55:23.
