data_PCOD8313601
_publ_section_title
;
Structure prediction by ZEFSAII (Michael W. Deem and Ramdas Pophale) SiO2 
 PCOD8313601
Probable space group: P 4/N B M
;
_chemical_formula_sum "Si O2"
_cell_formula_units_Z 64
_cell_length_a 27.568623
_cell_length_b 27.568623
_cell_length_c 5.030151
_cell_angle_alpha 90.000000
_cell_angle_beta 90.000000
_cell_angle_gamma 90.000000
_cell_volume 3823.060504
_symmetry_space_group_name_H-M "P 4/N B M"
_symmetry_group_IT_number 125
_space_group.IT_coordinate_system_code '2'
_symmetry_cell_setting 'tetragonal'
loop_
_space_group_symop_operation_xyz
x,y,z
1/2-y,x,z
1/2-x,1/2-y,z
y,1/2-x,z
x,1/2-y,-z
1/2-x,y,-z
y,x,-z
1/2-y,1/2-x,-z
-x,-y,-z
1/2+y,-x,-z
1/2+x,1/2+y,-z
-y,1/2+x,-z
-x,1/2+y,z
1/2+x,-y,z
-y,-x,z
1/2+y,1/2+x,z
loop_
_atom_site_type_symbol
_atom_site_label
_atom_site_fract_x
_atom_site_fract_y
_atom_site_fract_z
Si Si1 0.580331 0.500846 0.439109
Si Si2 0.602319 0.250000 0.500000
Si Si3 0.382961 0.882961 0.955879
Si Si4 0.857668 0.010349 0.958137
Si Si5 0.844922 0.344922 0.543398
Si Si6 0.533696 0.250000 0.000000
O O1 0.543686 0.543686 0.500000
O O2 0.549372 0.450629 0.408930
O O3 0.620777 0.498061 0.667762
O O4 0.610443 0.518112 0.177921
O O5 0.639849 0.207452 0.442506
O O6 0.567595 0.241204 0.748227
O O7 0.435315 0.867221 0.052891
O O8 0.379557 0.879557 0.636550
O O9 0.348754 0.848754 0.138189
O O10 0.799024 0.000647 0.962791
#
# Coordination Sequence:
#
# PCOD8313601 Si02
#       6
#    16   8   8  16   8   8
#     4  11  22  35  54  78 102 130 166 209 260 309
#     4  12  22  35  48  68  90 122 170 216 266 317
#     4  12  20  34  53  71  94 132 156 214 268 310
#     4  12  21  35  53  75 100 130 168 209 255 299
#     4  12  22  35  48  64  93 122 166 214 276 312
#     4  12  24  34  54  75  96 130 172 209 252 312
#
# _framework density 16.740514999999998
#
# number of rings (size 3 to 8) (size 9 to 14) (size 15 to 20)
#    0.000    0.250    7.500    3.750    0.000    2.250 
#    0.000    0.000    0.000    3.000    0.000    0.000 
#    0.000    0.000    0.000    0.000    0.000   43.750 
#
# Total GULP energy -792858.657121 kJ/mol
# GULP energy per Si atom -12388.416518 kJ/mol
# Density = 1.670241 g / cm^3
# Si number density = 16.740515 Si / 1000 Ang^3
#
#
#
# Elastic Constant Matrix: (Units=GPa)
#
#
# Indices 1 2 3 4 5 6 
#
# 1 63.4452 14.9024 0.5803 0.0000 0.0000 0.0000
# 2 14.9024 63.4452 0.5803 0.0000 0.0000 0.0000
# 3 0.5803 0.5803 67.0010 0.0000 0.0000 0.0000
# 4 0.0000 0.0000 0.0000 23.0111 0.0000 0.0000
# 5 0.0000 0.0000 0.0000 0.0000 23.0111 0.0000
# 6 0.0000 0.0000 0.0000 0.0000 0.0000 24.2084
#
#
#
# Elastic Compliance Matrix: (Units=1/GPa)
#
#
# Indices 1 2 3 4 5 6 
#
# 1 0.016683 -0.003918 -0.000111 0.000000 0.000000 0.000000
# 2 -0.003918 0.016683 -0.000111 0.000000 0.000000 0.000000
# 3 -0.000111 -0.000111 0.014927 0.000000 0.000000 0.000000
# 4 0.000000 0.000000 0.000000 0.043457 0.000000 0.000000
# 5 0.000000 0.000000 0.000000 0.000000 0.043457 0.000000
# 6 0.000000 0.000000 0.000000 0.000000 0.000000 0.041308
#
#
# Mechanical properties :
#
#
# Convention : Reuss Voigt Hill
#
# Bulk Modulus (GPa) = 24.99041 25.11306 25.05173
# Shear Modulus (GPa) = 25.23579 25.90133 25.56856
#
# Velocity S-wave (km/s) = 3.88682 3.93774 3.91237
# Velocity P-wave (km/s) = 5.92484 5.97565 5.95030
#
# Compressibility (1/GPa) = 0.04001535
#
# Stress axis : x y z
#
# Youngs Moduli (GPa) = 59.94194 59.94194 66.99241
#
# Poissons Ratio (x) = 0.23483 0.00741
# Poissons Ratio (y) = 0.23483 0.00741
# Poissons Ratio (z) = 0.00663 0.00663
#
# Static dielectric constant tensor:
#      x y z
#    x 3.055380 0.000000 0.000000 
#    y 0.000000 3.055380 0.000000 
#    z 0.000000 0.000000 3.497980 
# 
# 
# High freq. dielectric constant tensor:
#      x y z
#    x 1.613930 0.000000 0.000000 
#    y 0.000000 1.613930 0.000000 
#    z 0.000000 0.000000 1.674020 
# 
# From -- ./inp_files/1017.got.cif
#   From: 2010.03.12/outbox.cif.g09.slc.cpg/sg125_1_cif.got.tgz:1017.got - 2010.04.06 16:47:52.
