data_PCOD8313868
_publ_section_title
;
Structure prediction by ZEFSAII (Michael W. Deem and Ramdas Pophale) SiO2 
 PCOD8313868
Probable space group: P 4/M B M
;
_chemical_formula_sum "Si O2"
_cell_formula_units_Z 56
_cell_length_a 19.129941
_cell_length_b 19.129941
_cell_length_c 9.102451
_cell_angle_alpha 90.000000
_cell_angle_beta 90.000000
_cell_angle_gamma 90.000000
_cell_volume 3331.084203
_symmetry_space_group_name_H-M "P 4/M B M"
_symmetry_group_IT_number 127
_symmetry_cell_setting 'tetragonal'
loop_
_space_group_symop_operation_xyz
x,y,z
-y,x,z
-x,-y,z
y,-x,z
1/2+x,1/2-y,-z
1/2-x,1/2+y,-z
1/2+y,1/2+x,-z
1/2-y,1/2-x,-z
-x,-y,-z
y,-x,-z
x,y,-z
-y,x,-z
1/2-x,1/2+y,z
1/2+x,1/2-y,z
1/2-y,1/2-x,z
1/2+y,1/2+x,z
loop_
_atom_site_type_symbol
_atom_site_label
_atom_site_fract_x
_atom_site_fract_y
_atom_site_fract_z
Si Si1 0.023938 0.289515 0.173317
Si Si2 0.944794 0.555207 0.825375
Si Si3 0.232170 0.846240 0.672513
Si Si4 0.632861 0.753582 0.830080
O O1 0.034971 0.368121 0.231833
O O2 0.078350 0.238684 0.253034
O O3 0.946715 0.265405 0.217482
O O4 0.036681 0.285216 0.000000
O O5 0.000000 0.500000 0.758977
O O6 0.947508 0.552493 0.000000
O O7 0.224165 0.855643 0.500000
O O8 0.299508 0.799508 0.714580
O O9 0.162605 0.809629 0.733557
O O10 0.674985 0.825016 0.799190
O O11 0.638873 0.732285 0.000000
#
# Coordination Sequence:
#
# PCOD8313868 Si02
#       4
#    16   8  16  16
#     4  10  18  30  51  76 101 131 165 207 252 296
#     4   9  16  26  45  75 107 133 159 194 245 302
#     4  10  20  33  49  70  99 136 174 207 244 295
#     4   9  18  32  51  75 101 129 167 210 251 296
#
# _framework density 16.811343000000001
#
# number of rings (size 3 to 8) (size 9 to 14) (size 15 to 20)
#    0.000    2.429    1.429    1.714    0.000    5.714 
#    0.000    0.000    0.000    4.286    0.000    6.000 
#    0.000    0.000    0.000    0.000    0.000    0.000 
#
# Total GULP energy -694562.119371 kJ/mol
# GULP energy per Si atom -12402.894989 kJ/mol
# Density = 1.677308 g / cm^3
# Si number density = 16.811343 Si / 1000 Ang^3
#
#
#
# Elastic Constant Matrix: (Units=GPa)
#
#
# Indices 1 2 3 4 5 6 
#
# 1 126.1807 80.9784 50.0459 0.0000 0.0000 0.0000
# 2 80.9784 126.1807 50.0458 0.0000 0.0000 0.0000
# 3 50.0459 50.0458 52.4205 0.0000 0.0000 0.0000
# 4 0.0000 0.0000 0.0000 16.7376 0.0000 0.0000
# 5 0.0000 0.0000 0.0000 0.0000 16.7375 0.0000
# 6 0.0000 0.0000 0.0000 0.0000 0.0000 25.4346
#
#
#
# Elastic Compliance Matrix: (Units=1/GPa)
#
#
# Indices 1 2 3 4 5 6 
#
# 1 0.015542 -0.006581 -0.008555 0.000000 0.000000 0.000000
# 2 -0.006581 0.015542 -0.008554 0.000000 0.000000 0.000000
# 3 -0.008555 -0.008554 0.035411 0.000000 0.000000 0.000000
# 4 0.000000 0.000000 0.000000 0.059746 0.000000 0.000000
# 5 0.000000 0.000000 0.000000 0.000000 0.059746 0.000000
# 6 0.000000 0.000000 0.000000 0.000000 0.000000 0.039317
#
#
# Mechanical properties :
#
#
# Convention : Reuss Voigt Hill
#
# Bulk Modulus (GPa) = 52.31968 74.10248 63.21108
# Shear Modulus (GPa) = 17.91770 20.02938 18.97354
#
# Velocity S-wave (km/s) = 3.26822 3.45544 3.36313
# Velocity P-wave (km/s) = 6.74024 7.75207 7.26380
#
# Compressibility (1/GPa) = 0.01911327
#
# Stress axis : x y z
#
# Youngs Moduli (GPa) = 64.34330 64.34353 28.24021
#
# Poissons Ratio (x) = 0.42346 0.24158
# Poissons Ratio (y) = 0.42345 0.24158
# Poissons Ratio (z) = 0.55043 0.55043
#
# Static dielectric constant tensor:
#      x y z
#    x 3.113100 0.000000 0.000000 
#    y 0.000000 3.113100 0.000000 
#    z 0.000000 0.000000 2.928990 
# 
# 
# High freq. dielectric constant tensor:
#      x y z
#    x 1.641640 0.000000 0.000000 
#    y 0.000000 1.641640 0.000000 
#    z 0.000000 0.000000 1.631900 
# 
# From -- ./inp_files/1058.got.cif
#   From: 2010.03.12/outbox.cif.g09.slc.cpg/sg127_1_cif.got.tgz:1058.got - 2010.04.06 17:03:15.
