data_PCOD8313470
_publ_section_title
;
Structure prediction by ZEFSAII (Michael W. Deem and Ramdas Pophale) SiO2 
 PCOD8313470
Probable space group: P 4/N B M
;
_chemical_formula_sum "Si O2"
_cell_formula_units_Z 96
_cell_length_a 20.358776
_cell_length_b 20.358776
_cell_length_c 12.170203
_cell_angle_alpha 90.000000
_cell_angle_beta 90.000000
_cell_angle_gamma 90.000000
_cell_volume 5044.302821
_symmetry_space_group_name_H-M "P 4/N B M"
_symmetry_group_IT_number 125
_space_group.IT_coordinate_system_code '2'
_symmetry_cell_setting 'tetragonal'
loop_
_space_group_symop_operation_xyz
x,y,z
1/2-y,x,z
1/2-x,1/2-y,z
y,1/2-x,z
x,1/2-y,-z
1/2-x,y,-z
y,x,-z
1/2-y,1/2-x,-z
-x,-y,-z
1/2+y,-x,-z
1/2+x,1/2+y,-z
-y,1/2+x,-z
-x,1/2+y,z
1/2+x,-y,z
-y,-x,z
1/2+y,1/2+x,z
loop_
_atom_site_type_symbol
_atom_site_label
_atom_site_fract_x
_atom_site_fract_y
_atom_site_fract_z
Si Si1 0.184157 0.402314 0.071632
Si Si2 0.190920 0.336401 0.301827
Si Si3 0.306201 0.590586 0.638493
Si Si4 0.928170 0.587999 0.622365
Si Si5 0.889653 0.490227 0.802252
Si Si6 0.837771 0.444231 0.399186
O O1 0.192679 0.352033 0.172202
O O2 0.154829 0.471515 0.110686
O O3 0.250000 0.412344 0.000000
O O4 0.126873 0.373128 0.000000
O O5 0.160161 0.266521 0.335063
O O6 0.146974 0.386509 0.371038
O O7 0.333982 0.666019 0.631258
O O8 0.337591 0.554353 0.740056
O O9 0.227778 0.587050 0.654349
O O10 0.328131 0.551358 0.529840
O O11 0.940960 0.559041 0.500000
O O12 0.932781 0.533786 0.717364
O O13 0.982644 0.644795 0.645610
O O14 0.942743 0.442743 0.862353
O O15 0.897889 0.397889 0.365665
#
# Coordination Sequence:
#
# PCOD8313470 Si02
#       6
#    16  16  16  16  16  16
#     4  11  22  37  60  83 107 144 188 244 298 344
#     4  10  22  36  53  80 112 152 199 240 283 339
#     4   9  19  35  55  78 110 149 190 233 279 333
#     4  11  22  33  55  81 120 161 193 229 278 341
#     4  10  22  38  57  84 114 148 190 234 288 355
#     4  10  20  32  52  80 112 153 194 230 270 328
#
# _framework density 19.031372000000001
#
# number of rings (size 3 to 8) (size 9 to 14) (size 15 to 20)
#    0.000    1.833    3.333    0.500    4.667    2.167 
#    0.000    2.500    0.000    1.000    0.000    0.000 
#    0.000    0.000    0.000    0.000    0.000    0.000 
#
# Total GULP energy -1189691.600322 kJ/mol
# GULP energy per Si atom -12392.620837 kJ/mol
# Density = 1.898806 g / cm^3
# Si number density = 19.031372 Si / 1000 Ang^3
#
#
#
# Elastic Constant Matrix: (Units=GPa)
#
#
# Indices 1 2 3 4 5 6 
#
# 1 111.2413 39.0639 26.3089 0.0000 0.0000 0.0000
# 2 39.0639 111.2439 26.3089 0.0000 0.0000 0.0000
# 3 26.3089 26.3089 53.2907 0.0000 0.0000 0.0000
# 4 0.0000 0.0000 0.0000 21.6622 0.0000 0.0000
# 5 0.0000 0.0000 0.0000 0.0000 21.6655 0.0000
# 6 0.0000 0.0000 0.0000 0.0000 0.0000 31.9784
#
#
#
# Elastic Compliance Matrix: (Units=1/GPa)
#
#
# Indices 1 2 3 4 5 6 
#
# 1 0.010949 -0.002906 -0.003971 0.000000 0.000000 0.000000
# 2 -0.002906 0.010949 -0.003971 0.000000 0.000000 0.000000
# 3 -0.003971 -0.003971 0.022686 0.000000 0.000000 0.000000
# 4 0.000000 0.000000 0.000000 0.046163 0.000000 0.000000
# 5 0.000000 0.000000 0.000000 0.000000 0.046156 0.000000
# 6 0.000000 0.000000 0.000000 0.000000 0.000000 0.031271
#
#
# Mechanical properties :
#
#
# Convention : Reuss Voigt Hill
#
# Bulk Modulus (GPa) = 43.68959 51.01550 47.35254
# Shear Modulus (GPa) = 25.31668 27.33416 26.32542
#
# Velocity S-wave (km/s) = 3.65123 3.79392 3.72326
# Velocity P-wave (km/s) = 6.38606 6.78646 6.58930
#
# Compressibility (1/GPa) = 0.02288875
#
# Stress axis : x y z
#
# Youngs Moduli (GPa) = 91.33284 91.33535 44.08077
#
# Poissons Ratio (x) = 0.26539 0.17504
# Poissons Ratio (y) = 0.26538 0.17503
# Poissons Ratio (z) = 0.36267 0.36267
#
# Static dielectric constant tensor:
#      x y z
#    x 3.232990 0.000000 0.000000 
#    y 0.000000 3.229040 0.000000 
#    z 0.000000 0.000000 3.238490 
# 
# 
# High freq. dielectric constant tensor:
#      x y z
#    x 1.745020 0.000000 0.000000 
#    y 0.000000 1.745020 0.000000 
#    z 0.000000 0.000000 1.705940 
# 
# From -- ./inp_files/4150.got.cif
#   From: 2010.03.12/outbox.cif.g09.slc.cpg/sg125_3_cif.got.tgz:4150.got - 2010.04.06 16:47:52.
