data_PCOD8313559
_publ_section_title
;
Structure prediction by ZEFSAII (Michael W. Deem and Ramdas Pophale) SiO2 
 PCOD8313559
Probable space group: P 4/N B M
;
_chemical_formula_sum "Si O2"
_cell_formula_units_Z 48
_cell_length_a 12.882096
_cell_length_b 12.882096
_cell_length_c 13.296099
_cell_angle_alpha 90.000000
_cell_angle_beta 90.000000
_cell_angle_gamma 90.000000
_cell_volume 2206.466320
_symmetry_space_group_name_H-M "P 4/N B M"
_symmetry_group_IT_number 125
_space_group.IT_coordinate_system_code '2'
_symmetry_cell_setting 'tetragonal'
loop_
_space_group_symop_operation_xyz
x,y,z
1/2-y,x,z
1/2-x,1/2-y,z
y,1/2-x,z
x,1/2-y,-z
1/2-x,y,-z
y,x,-z
1/2-y,1/2-x,-z
-x,-y,-z
1/2+y,-x,-z
1/2+x,1/2+y,-z
-y,1/2+x,-z
-x,1/2+y,z
1/2+x,-y,z
-y,-x,z
1/2+y,1/2+x,z
loop_
_atom_site_type_symbol
_atom_site_label
_atom_site_fract_x
_atom_site_fract_y
_atom_site_fract_z
Si Si1 0.388490 0.346874 0.238233
Si Si2 0.033489 0.700279 0.398006
Si Si3 0.982273 0.482273 0.116481
Si Si4 0.836493 0.163508 0.752200
O O1 0.275471 0.392324 0.223892
O O2 0.438756 0.365796 0.348879
O O3 0.457947 0.402568 0.155503
O O4 0.990105 0.750000 0.500000
O O5 0.126844 0.626844 0.431520
O O6 0.075103 0.782552 0.315441
O O7 0.896159 0.396159 0.154528
O O8 0.000000 0.500000 0.000000
O O9 0.750000 0.250000 0.788994
#
# Coordination Sequence:
#
# PCOD8313559 Si02
#       4
#    16  16   8   8
#     4  11  25  46  69 102 147 185 237 297 357 450
#     4  11  21  39  73 108 146 193 242 302 372 435
#     4  12  26  49  79 103 141 191 245 311 379 426
#     4  10  22  43  71 103 145 183 246 303 353 446
#
# _framework density 21.754242999999999
#
# number of rings (size 3 to 8) (size 9 to 14) (size 15 to 20)
#    0.000    1.000    6.667    0.000    0.000    2.667 
#    0.000    6.667    3.667    0.000    0.000    0.000 
#    0.000    0.000    0.000    0.000    0.000    0.000 
#
# Total GULP energy -594728.704093 kJ/mol
# GULP energy per Si atom -12390.181335 kJ/mol
# Density = 2.170473 g / cm^3
# Si number density = 21.754243 Si / 1000 Ang^3
#
#
#
# Elastic Constant Matrix: (Units=GPa)
#
#
# Indices 1 2 3 4 5 6 
#
# 1 128.9598 46.0433 75.7091 0.0000 0.0000 0.0000
# 2 46.0433 128.9598 75.7091 0.0000 0.0000 0.0000
# 3 75.7091 75.7091 187.1101 0.0000 0.0000 0.0000
# 4 0.0000 0.0000 0.0000 4.3840 0.0000 0.0000
# 5 0.0000 0.0000 0.0000 0.0000 4.3840 0.0000
# 6 0.0000 0.0000 0.0000 0.0000 0.0000 27.5662
#
#
#
# Elastic Compliance Matrix: (Units=1/GPa)
#
#
# Indices 1 2 3 4 5 6 
#
# 1 0.010426 -0.001634 -0.003558 0.000000 0.000000 0.000000
# 2 -0.001634 0.010426 -0.003558 0.000000 0.000000 0.000000
# 3 -0.003558 -0.003558 0.008223 0.000000 0.000000 0.000000
# 4 0.000000 0.000000 0.000000 0.228102 0.000000 0.000000
# 5 0.000000 0.000000 0.000000 0.000000 0.228102 0.000000
# 6 0.000000 0.000000 0.000000 0.000000 0.000000 0.036276
#
#
# Mechanical properties :
#
#
# Convention : Reuss Voigt Hill
#
# Bulk Modulus (GPa) = 86.37272 93.32806 89.85039
# Shear Modulus (GPa) = 9.20955 23.77138 16.49047
#
# Velocity S-wave (km/s) = 2.05977 3.30922 2.75623
# Velocity P-wave (km/s) = 6.74143 7.58917 7.17783
#
# Compressibility (1/GPa) = 0.01157773
#
# Stress axis : x y z
#
# Youngs Moduli (GPa) = 95.91113 95.91113 121.60421
#
# Poissons Ratio (x) = 0.15672 0.43262
# Poissons Ratio (y) = 0.15672 0.43262
# Poissons Ratio (z) = 0.34121 0.34121
#
# Static dielectric constant tensor:
#      x y z
#    x 4.407630 0.000000 0.000000 
#    y 0.000000 4.407630 0.000000 
#    z 0.000000 0.000000 3.591220 
# 
# 
# High freq. dielectric constant tensor:
#      x y z
#    x 1.869920 0.000000 0.000000 
#    y 0.000000 1.869920 0.000000 
#    z 0.000000 0.000000 1.823670 
# 
# From -- ./inp_files/3437.got.cif
#   From: 2010.03.12/outbox.cif.g09.slc.cpg/sg125_2_cif.got.tgz:3437.got - 2010.04.06 16:47:52.
