data_PCOD8313690
_publ_section_title
;
Structure prediction by ZEFSAII (Michael W. Deem and Ramdas Pophale) SiO2 
 PCOD8313690
Probable space group: P 4/N N C
;
_chemical_formula_sum "Si O2"
_cell_formula_units_Z 88
_cell_length_a 19.625784
_cell_length_b 19.625784
_cell_length_c 12.340264
_cell_angle_alpha 90.000000
_cell_angle_beta 90.000000
_cell_angle_gamma 90.000000
_cell_volume 4753.116732
_symmetry_space_group_name_H-M "P 4/N N C"
_symmetry_group_IT_number 126
_space_group.IT_coordinate_system_code '2'
_symmetry_cell_setting 'tetragonal'
loop_
_space_group_symop_operation_xyz
x,y,z
1/2-y,x,z
1/2-x,1/2-y,z
y,1/2-x,z
x,1/2-y,1/2-z
1/2-x,y,1/2-z
y,x,1/2-z
1/2-y,1/2-x,1/2-z
-x,-y,-z
1/2+y,-x,-z
1/2+x,1/2+y,-z
-y,1/2+x,-z
-x,1/2+y,1/2+z
1/2+x,-y,1/2+z
-y,-x,1/2+z
1/2+y,1/2+x,1/2+z
loop_
_atom_site_type_symbol
_atom_site_label
_atom_site_fract_x
_atom_site_fract_y
_atom_site_fract_z
Si Si1 0.653304 0.494508 0.004884
Si Si2 0.991881 0.411501 0.207905
Si Si3 0.140783 0.881300 0.376449
Si Si4 0.295164 0.533774 0.558773
Si Si5 0.545442 0.922242 0.366818
Si Si6 0.873565 0.250000 0.750000
O O1 0.642137 0.417368 0.042077
O O2 0.729084 0.513537 0.041928
O O3 0.598649 0.546015 0.051118
O O4 0.650898 0.497909 0.874688
O O5 0.937811 0.391300 0.298473
O O6 0.968007 0.478333 0.142178
O O7 0.067435 0.432566 0.250000
O O8 0.197146 0.917494 0.452095
O O9 0.167815 0.812319 0.311556
O O10 0.352065 0.477355 0.579209
O O11 0.290654 0.580274 0.665053
O O12 0.583031 0.916969 0.250000
#
# Coordination Sequence:
#
# PCOD8313690 Si02
#       6
#    16  16  16  16  16   8
#     4  11  21  34  55  82 117 152 189 239 295 345
#     4  11  19  32  55  86 110 143 182 248 299 335
#     4  11  19  34  55  81 114 145 193 234 289 343
#     4  11  22  35  57  86 117 153 191 241 293 356
#     4  11  18  34  57  87 113 145 191 241 301 343
#     4  10  20  36  56  81 112 153 192 238 288 346
#
# _framework density 18.514168999999999
#
# number of rings (size 3 to 8) (size 9 to 14) (size 15 to 20)
#    0.000    1.091    7.273    2.727    0.000    0.727 
#    0.000    0.000    0.000   33.273    0.000    1.273 
#    0.000    1.455    0.000    0.000    0.000    0.000 
#
# Total GULP energy -1090428.628774 kJ/mol
# GULP energy per Si atom -12391.234418 kJ/mol
# Density = 1.847203 g / cm^3
# Si number density = 18.514169 Si / 1000 Ang^3
#
#
#
# Elastic Constant Matrix: (Units=GPa)
#
#
# Indices 1 2 3 4 5 6 
#
# 1 51.9180 21.8384 32.1851 0.0000 0.0000 0.0000
# 2 21.8384 51.9187 32.1855 0.0000 0.0000 0.0000
# 3 32.1851 32.1855 94.7357 0.0000 0.0000 0.0000
# 4 0.0000 0.0000 0.0000 30.2042 0.0000 0.0000
# 5 0.0000 0.0000 0.0000 0.0000 30.2032 0.0000
# 6 0.0000 0.0000 0.0000 0.0000 0.0000 15.1570
#
#
#
# Elastic Compliance Matrix: (Units=1/GPa)
#
#
# Indices 1 2 3 4 5 6 
#
# 1 0.026259 -0.006986 -0.006548 0.000000 0.000000 0.000000
# 2 -0.006986 0.026258 -0.006548 0.000000 0.000000 0.000000
# 3 -0.006548 -0.006548 0.015005 0.000000 0.000000 0.000000
# 4 0.000000 0.000000 0.000000 0.033108 0.000000 0.000000
# 5 0.000000 0.000000 0.000000 0.000000 0.033109 0.000000
# 6 0.000000 0.000000 0.000000 0.000000 0.000000 0.065976
#
#
# Mechanical properties :
#
#
# Convention : Reuss Voigt Hill
#
# Bulk Modulus (GPa) = 36.55083 41.22116 38.88600
# Shear Modulus (GPa) = 20.08052 22.60376 21.34214
#
# Velocity S-wave (km/s) = 3.29690 3.49791 3.39890
# Velocity P-wave (km/s) = 5.85472 6.21505 6.03757
#
# Compressibility (1/GPa) = 0.02735916
#
# Stress axis : x y z
#
# Youngs Moduli (GPa) = 38.08254 38.08293 66.64619
#
# Poissons Ratio (x) = 0.26605 0.43637
# Poissons Ratio (y) = 0.26605 0.43637
# Poissons Ratio (z) = 0.24935 0.24935
#
# Static dielectric constant tensor:
#      x y z
#    x 3.413430 0.000000 0.000000 
#    y 0.000000 3.413420 0.000000 
#    z 0.000000 0.000000 3.877900 
# 
# 
# High freq. dielectric constant tensor:
#      x y z
#    x 1.691800 0.000000 0.000000 
#    y 0.000000 1.691800 0.000000 
#    z 0.000000 0.000000 1.742080 
# 
# From -- ./inp_files/3764.got.cif
#   From: 2010.03.12/outbox.cif.g09.slc.cpg/sg126_2_cif.got.tgz:3764.got - 2010.04.06 16:55:23.
