data_PCOD8313787
_publ_section_title
;
Structure prediction by ZEFSAII (Michael W. Deem and Ramdas Pophale) SiO2 
 PCOD8313787
Probable space group: P 4/N N C
;
_chemical_formula_sum "Si O2"
_cell_formula_units_Z 84
_cell_length_a 20.790614
_cell_length_b 20.790614
_cell_length_c 10.070194
_cell_angle_alpha 90.000000
_cell_angle_beta 90.000000
_cell_angle_gamma 90.000000
_cell_volume 4352.837636
_symmetry_space_group_name_H-M "P 4/N N C"
_symmetry_group_IT_number 126
_space_group.IT_coordinate_system_code '2'
_symmetry_cell_setting 'tetragonal'
loop_
_space_group_symop_operation_xyz
x,y,z
1/2-y,x,z
1/2-x,1/2-y,z
y,1/2-x,z
x,1/2-y,1/2-z
1/2-x,y,1/2-z
y,x,1/2-z
1/2-y,1/2-x,1/2-z
-x,-y,-z
1/2+y,-x,-z
1/2+x,1/2+y,-z
-y,1/2+x,-z
-x,1/2+y,1/2+z
1/2+x,-y,1/2+z
-y,-x,1/2+z
1/2+y,1/2+x,1/2+z
loop_
_atom_site_type_symbol
_atom_site_label
_atom_site_fract_x
_atom_site_fract_y
_atom_site_fract_z
Si Si1 0.750000 0.250000 0.000000
Si Si2 0.679696 0.016475 0.710951
Si Si3 0.678493 0.457885 0.263748
Si Si4 0.485082 0.398083 0.527816
Si Si5 0.395704 0.510047 0.484661
Si Si6 0.337164 0.683275 0.682343
O O1 0.713724 0.187201 0.062657
O O2 0.750000 0.990164 0.750000
O O3 0.653525 0.973967 0.589649
O O4 0.685585 0.087661 0.648136
O O5 0.630575 0.012746 0.834580
O O6 0.750000 0.484287 0.250000
O O7 0.633866 0.501539 0.170015
O O8 0.660069 0.467141 0.417271
O O9 0.674982 0.381325 0.230306
O O10 0.419489 0.439224 0.527996
O O11 0.545477 0.442128 0.491643
O O12 0.316696 0.750000 0.750000
#
# Coordination Sequence:
#
# PCOD8313787 Si02
#       6
#     4  16  16  16  16  16
#     4  12  26  36  52  70 116 176 202 244 270 324
#     4  11  23  37  60  83 116 147 197 242 281 331
#     4  12  24  37  59  84 117 150 200 242 281 335
#     4  11  22  40  60  81 113 155 195 238 292 342
#     4  11  22  40  59  83 113 153 196 237 294 342
#     4  11  25  37  51  76 115 160 207 240 278 316
#
# _framework density 19.297757000000001
#
# number of rings (size 3 to 8) (size 9 to 14) (size 15 to 20)
#    0.000    0.762    3.810    3.714   10.667    3.048 
#    0.000    0.000    0.000    0.000    0.000    0.000 
#    0.000   53.333    0.000    0.000    0.000    0.000 
#
# Total GULP energy -1041106.503871 kJ/mol
# GULP energy per Si atom -12394.125046 kJ/mol
# Density = 1.925383 g / cm^3
# Si number density = 19.297757 Si / 1000 Ang^3
#
#
#
# Elastic Constant Matrix: (Units=GPa)
#
#
# Indices 1 2 3 4 5 6 
#
# 1 72.6049 37.8157 16.3666 0.0000 0.0000 0.0000
# 2 37.8157 72.6049 16.3666 0.0000 0.0000 0.0000
# 3 16.3666 16.3666 77.1146 0.0000 0.0000 0.0000
# 4 0.0000 0.0000 0.0000 26.7769 0.0000 0.0000
# 5 0.0000 0.0000 0.0000 0.0000 26.7769 0.0000
# 6 0.0000 0.0000 0.0000 0.0000 0.0000 26.2973
#
#
#
# Elastic Compliance Matrix: (Units=1/GPa)
#
#
# Indices 1 2 3 4 5 6 
#
# 1 0.019204 -0.009540 -0.002051 0.000000 0.000000 0.000000
# 2 -0.009540 0.019204 -0.002051 0.000000 0.000000 0.000000
# 3 -0.002051 -0.002051 0.013838 0.000000 0.000000 0.000000
# 4 0.000000 0.000000 0.000000 0.037346 0.000000 0.000000
# 5 0.000000 0.000000 0.000000 0.000000 0.037346 0.000000
# 6 0.000000 0.000000 0.000000 0.000000 0.000000 0.038027
#
#
# Mechanical properties :
#
#
# Convention : Reuss Voigt Hill
#
# Bulk Modulus (GPa) = 40.06014 40.38028 40.22021
# Shear Modulus (GPa) = 24.92886 26.08859 25.50873
#
# Velocity S-wave (km/s) = 3.59806 3.68080 3.63967
# Velocity P-wave (km/s) = 6.16972 6.24778 6.20887
#
# Compressibility (1/GPa) = 0.02496247
#
# Stress axis : x y z
#
# Youngs Moduli (GPa) = 52.07131 52.07131 72.26282
#
# Poissons Ratio (x) = 0.49677 0.14822
# Poissons Ratio (y) = 0.49677 0.14822
# Poissons Ratio (z) = 0.10681 0.10681
#
# Static dielectric constant tensor:
#      x y z
#    x 3.532740 0.000000 0.000000 
#    y 0.000000 3.532740 0.000000 
#    z 0.000000 0.000000 3.635240 
# 
# 
# High freq. dielectric constant tensor:
#      x y z
#    x 1.732850 0.000000 0.000000 
#    y 0.000000 1.732850 0.000000 
#    z 0.000000 0.000000 1.757720 
# 
# From -- ./inp_files/1716.got.cif
#   From: 2010.03.12/outbox.cif.g09.slc.cpg/sg126_1_cif.got.tgz:1716.got - 2010.04.06 16:55:23.
