data_PCOD8313696
_publ_section_title
;
Structure prediction by ZEFSAII (Michael W. Deem and Ramdas Pophale) SiO2 
 PCOD8313696
Probable space group: P 4/N N C
;
_chemical_formula_sum "Si O2"
_cell_formula_units_Z 64
_cell_length_a 15.892842
_cell_length_b 15.892842
_cell_length_c 12.088977
_cell_angle_alpha 90.000000
_cell_angle_beta 90.000000
_cell_angle_gamma 90.000000
_cell_volume 3053.463149
_symmetry_space_group_name_H-M "P 4/N N C"
_symmetry_group_IT_number 126
_space_group.IT_coordinate_system_code '2'
_symmetry_cell_setting 'tetragonal'
loop_
_space_group_symop_operation_xyz
x,y,z
1/2-y,x,z
1/2-x,1/2-y,z
y,1/2-x,z
x,1/2-y,1/2-z
1/2-x,y,1/2-z
y,x,1/2-z
1/2-y,1/2-x,1/2-z
-x,-y,-z
1/2+y,-x,-z
1/2+x,1/2+y,-z
-y,1/2+x,-z
-x,1/2+y,1/2+z
1/2+x,-y,1/2+z
-y,-x,1/2+z
1/2+y,1/2+x,1/2+z
loop_
_atom_site_type_symbol
_atom_site_label
_atom_site_fract_x
_atom_site_fract_y
_atom_site_fract_z
Si Si1 0.282904 0.551976 0.630244
Si Si2 0.549226 0.909618 0.624779
Si Si3 0.119888 0.294865 0.538405
Si Si4 0.432115 0.614642 0.498529
O O1 0.250000 0.578481 0.750000
O O2 0.313187 0.454078 0.627318
O O3 0.362440 0.608333 0.595452
O O4 0.209598 0.567602 0.542258
O O5 0.573064 0.926937 0.750000
O O6 0.583496 0.817803 0.584479
O O7 0.448730 0.913009 0.604076
O O8 0.594690 0.976882 0.546864
O O9 0.144789 0.198860 0.556832
#
# Coordination Sequence:
#
# PCOD8313696 Si02
#       4
#    16  16  16  16
#     4  11  23  42  67  91 124 168 209 267 322 367
#     4  10  20  38  63  87 125 174 207 251 317 377
#     4  10  21  39  60  94 133 157 206 260 306 387
#     4  10  22  41  60  92 126 158 223 266 300 388
#
# _framework density 20.959807999999999
#
# number of rings (size 3 to 8) (size 9 to 14) (size 15 to 20)
#    0.000    1.750    2.500    1.500    0.000    2.500 
#    0.000    7.500    0.000    0.000    0.000    0.000 
#    0.000    0.000    0.000    0.000    0.000    0.000 
#
# Total GULP energy -793354.074742 kJ/mol
# GULP energy per Si atom -12396.157418 kJ/mol
# Density = 2.091210 g / cm^3
# Si number density = 20.959808 Si / 1000 Ang^3
#
#
#
# Elastic Constant Matrix: (Units=GPa)
#
#
# Indices 1 2 3 4 5 6 
#
# 1 77.1751 39.5224 15.5979 0.0000 0.0000 0.0000
# 2 39.5224 77.1758 15.5984 0.0000 0.0000 0.0000
# 3 15.5979 15.5984 94.4416 0.0000 0.0000 0.0000
# 4 0.0000 0.0000 0.0000 23.0751 0.0000 0.0000
# 5 0.0000 0.0000 0.0000 0.0000 23.0757 0.0000
# 6 0.0000 0.0000 0.0000 0.0000 0.0000 37.9359
#
#
#
# Elastic Compliance Matrix: (Units=1/GPa)
#
#
# Indices 1 2 3 4 5 6 
#
# 1 0.017762 -0.008797 -0.001481 0.000000 0.000000 0.000000
# 2 -0.008797 0.017762 -0.001481 0.000000 0.000000 0.000000
# 3 -0.001481 -0.001481 0.011078 0.000000 0.000000 0.000000
# 4 0.000000 0.000000 0.000000 0.043337 0.000000 0.000000
# 5 0.000000 0.000000 0.000000 0.000000 0.043336 0.000000
# 6 0.000000 0.000000 0.000000 0.000000 0.000000 0.026360
#
#
# Mechanical properties :
#
#
# Convention : Reuss Voigt Hill
#
# Bulk Modulus (GPa) = 43.31838 43.35888 43.33863
# Shear Modulus (GPa) = 26.19934 28.68892 27.44413
#
# Velocity S-wave (km/s) = 3.53934 3.70369 3.62245
# Velocity P-wave (km/s) = 6.11676 6.24671 6.18208
#
# Compressibility (1/GPa) = 0.02308489
#
# Stress axis : x y z
#
# Youngs Moduli (GPa) = 56.30102 56.30138 90.27186
#
# Poissons Ratio (x) = 0.49526 0.13366
# Poissons Ratio (y) = 0.49526 0.13367
# Poissons Ratio (z) = 0.08336 0.08337
#
# Static dielectric constant tensor:
#      x y z
#    x 3.954230 0.000000 0.000000 
#    y 0.000000 3.954230 0.000000 
#    z 0.000000 0.000000 3.450700 
# 
# 
# High freq. dielectric constant tensor:
#      x y z
#    x 1.829230 0.000000 0.000000 
#    y 0.000000 1.829230 0.000000 
#    z 0.000000 0.000000 1.792690 
# 
# From -- ./inp_files/2552.got.cif
#   From: 2010.03.12/outbox.cif.g09.slc.cpg/sg126_2_cif.got.tgz:2552.got - 2010.04.06 16:55:23.
