data_PCOD8313745
_publ_section_title
;
Structure prediction by ZEFSAII (Michael W. Deem and Ramdas Pophale) SiO2 
 PCOD8313745
Probable space group: P 4/N N C
;
_chemical_formula_sum "Si O2"
_cell_formula_units_Z 96
_cell_length_a 24.713451
_cell_length_b 24.713451
_cell_length_c 8.731313
_cell_angle_alpha 90.000000
_cell_angle_beta 90.000000
_cell_angle_gamma 90.000000
_cell_volume 5332.690106
_symmetry_space_group_name_H-M "P 4/N N C"
_symmetry_group_IT_number 126
_space_group.IT_coordinate_system_code '2'
_symmetry_cell_setting 'tetragonal'
loop_
_space_group_symop_operation_xyz
x,y,z
1/2-y,x,z
1/2-x,1/2-y,z
y,1/2-x,z
x,1/2-y,1/2-z
1/2-x,y,1/2-z
y,x,1/2-z
1/2-y,1/2-x,1/2-z
-x,-y,-z
1/2+y,-x,-z
1/2+x,1/2+y,-z
-y,1/2+x,-z
-x,1/2+y,1/2+z
1/2+x,-y,1/2+z
-y,-x,1/2+z
1/2+y,1/2+x,1/2+z
loop_
_atom_site_type_symbol
_atom_site_label
_atom_site_fract_x
_atom_site_fract_y
_atom_site_fract_z
Si Si1 0.118065 0.676846 0.598743
Si Si2 0.396123 0.700849 0.559507
Si Si3 0.037154 0.454474 0.427844
Si Si4 0.233410 0.494584 0.584201
Si Si5 0.507978 0.349329 0.952342
Si Si6 0.630427 0.554792 0.160135
O O1 0.130024 0.739727 0.567625
O O2 0.103335 0.670162 0.777411
O O3 0.169984 0.640365 0.564079
O O4 0.071374 0.656562 0.483826
O O5 0.458739 0.703002 0.509513
O O6 0.037045 0.462956 0.250000
O O7 0.094669 0.458597 0.512499
O O8 0.000000 0.500000 0.500000
O O9 0.015052 0.394021 0.435901
O O10 0.250000 0.518691 0.750000
O O11 0.291392 0.478430 0.508809
O O12 0.193108 0.442238 0.600783
O O13 0.496032 0.369946 0.778399
O O14 0.608789 0.608789 0.250000
#
# Coordination Sequence:
#
# PCOD8313745 Si02
#       6
#    16  16  16  16  16  16
#     4  10  23  37  53  75  99 136 181 234 280 330
#     4  10  23  36  53  75  99 133 186 231 283 329
#     4  11  23  35  52  79 112 150 185 231 279 331
#     4   9  19  36  60  79 104 144 177 229 274 331
#     4   9  20  37  54  79 108 141 184 219 277 335
#     4   9  19  36  55  80 107 138 181 220 273 338
#
# _framework density 18.002172000000002
#
# number of rings (size 3 to 8) (size 9 to 14) (size 15 to 20)
#    0.000    2.333    0.000    1.500   11.667    0.333 
#    0.000    1.667    0.000    0.000    0.000    0.000 
#    0.000  175.667    0.000   24.000    0.000    0.000 
#
# Total GULP energy -1189431.725469 kJ/mol
# GULP energy per Si atom -12389.913807 kJ/mol
# Density = 1.796120 g / cm^3
# Si number density = 18.002172 Si / 1000 Ang^3
#
#
#
# Elastic Constant Matrix: (Units=GPa)
#
#
# Indices 1 2 3 4 5 6 
#
# 1 99.2886 68.8433 48.4157 0.0000 0.0000 0.0000
# 2 68.8433 99.2881 48.4154 0.0000 0.0000 0.0000
# 3 48.4157 48.4154 108.7527 0.0000 0.0000 0.0000
# 4 0.0000 0.0000 0.0000 24.2675 0.0000 0.0000
# 5 0.0000 0.0000 0.0000 0.0000 24.2680 0.0000
# 6 0.0000 0.0000 0.0000 0.0000 0.0000 31.5065
#
#
#
# Elastic Compliance Matrix: (Units=1/GPa)
#
#
# Indices 1 2 3 4 5 6 
#
# 1 0.020422 -0.012424 -0.003561 0.000000 0.000000 0.000000
# 2 -0.012424 0.020422 -0.003561 0.000000 0.000000 0.000000
# 3 -0.003561 -0.003561 0.012366 0.000000 0.000000 0.000000
# 4 0.000000 0.000000 0.000000 0.041207 0.000000 0.000000
# 5 0.000000 0.000000 0.000000 0.000000 0.041207 0.000000
# 6 0.000000 0.000000 0.000000 0.000000 0.000000 0.031740
#
#
# Mechanical properties :
#
#
# Convention : Reuss Voigt Hill
#
# Bulk Modulus (GPa) = 70.82512 70.96425 70.89469
# Shear Modulus (GPa) = 23.67861 25.45205 24.56533
#
# Velocity S-wave (km/s) = 3.63067 3.76418 3.69802
# Velocity P-wave (km/s) = 7.55007 7.64182 7.59609
#
# Compressibility (1/GPa) = 0.01411928
#
# Stress axis : x y z
#
# Youngs Moduli (GPa) = 48.96625 48.96614 80.86903
#
# Poissons Ratio (x) = 0.60834 0.28797
# Poissons Ratio (y) = 0.60834 0.28796
# Poissons Ratio (z) = 0.17436 0.17436
#
# Static dielectric constant tensor:
#      x y z
#    x 3.472170 0.000000 0.000000 
#    y 0.000000 3.472150 0.000000 
#    z 0.000000 0.000000 3.482660 
# 
# 
# High freq. dielectric constant tensor:
#      x y z
#    x 1.682240 0.000000 0.000000 
#    y 0.000000 1.682240 0.000000 
#    z 0.000000 0.000000 1.706590 
# 
# From -- ./inp_files/1739.got.cif
#   From: 2010.03.12/outbox.cif.g09.slc.cpg/sg126_1_cif.got.tgz:1739.got - 2010.04.06 16:55:23.
