data_PCOD8313378
_publ_section_title
;
Structure prediction by ZEFSAII (Michael W. Deem and Ramdas Pophale) SiO2 
 PCOD8313378
Probable space group: P 4/M C C
;
_chemical_formula_sum "Si O2"
_cell_formula_units_Z 80
_cell_length_a 13.603608
_cell_length_b 13.603608
_cell_length_c 20.362074
_cell_angle_alpha 90.000000
_cell_angle_beta 90.000000
_cell_angle_gamma 90.000000
_cell_volume 3768.167757
_symmetry_space_group_name_H-M "P 4/M C C"
_symmetry_group_IT_number 124
_symmetry_cell_setting 'tetragonal'
loop_
_space_group_symop_operation_xyz
x,y,z
-y,x,z
-x,-y,z
y,-x,z
x,-y,1/2-z
-x,y,1/2-z
y,x,1/2-z
-y,-x,1/2-z
-x,-y,-z
y,-x,-z
x,y,-z
-y,x,-z
-x,y,1/2+z
x,-y,1/2+z
-y,-x,1/2+z
y,x,1/2+z
loop_
_atom_site_type_symbol
_atom_site_label
_atom_site_fract_x
_atom_site_fract_y
_atom_site_fract_z
Si Si1 0.384089 0.884089 0.750000
Si Si2 0.113850 0.266788 0.878157
Si Si3 0.233212 0.613850 0.878157
Si Si4 0.901557 0.762586 0.426552
Si Si5 0.737414 0.598443 0.926552
O O1 0.500000 0.863323 0.750000
O O2 0.320119 0.847305 0.811844
O O3 0.347305 0.820119 0.688156
O O4 0.363323 0.000000 0.750000
O O5 0.152148 0.154759 0.885607
O O6 0.166192 0.332501 0.934361
O O7 0.997446 0.267422 0.885518
O O8 0.167499 0.666192 0.934361
O O9 0.345241 0.652148 0.885607
O O10 0.232578 0.497446 0.885518
O O11 0.929331 0.799164 0.500000
O O12 0.700836 0.570669 0.000000
#
# Coordination Sequence:
#
# PCOD8313378 Si02
#       5
#    16  16  16  16  16
#     4  11  22  43  64  94 129 171 232 278 327 401
#     4  11  23  42  65  97 134 178 226 280 340 404
#     4  11  23  42  65  97 134 178 226 280 340 404
#     4  11  23  41  66 100 137 177 225 280 343 408
#     4  11  23  41  66 100 137 177 225 280 343 408
#
# _framework density 21.230475999999999
#
# number of rings (size 3 to 8) (size 9 to 14) (size 15 to 20)
#    0.000    1.000    4.000    4.800    0.000    4.800 
#    0.000    4.000    0.000    0.000    0.000    0.000 
#    0.000    0.000    0.000    0.000    0.000    0.000 
#
# Total GULP energy -991369.488693 kJ/mol
# GULP energy per Si atom -12392.118609 kJ/mol
# Density = 2.118215 g / cm^3
# Si number density = 21.230476 Si / 1000 Ang^3
#
#
#
# Elastic Constant Matrix: (Units=GPa)
#
#
# Indices 1 2 3 4 5 6 
#
# 1 107.4063 46.1240 30.4222 0.0000 0.0000 0.0000
# 2 46.1240 107.4063 30.4222 0.0000 0.0000 0.0000
# 3 30.4222 30.4222 138.1721 0.0000 0.0000 0.0000
# 4 0.0000 0.0000 0.0000 29.7362 0.0000 0.0000
# 5 0.0000 0.0000 0.0000 0.0000 29.7362 0.0000
# 6 0.0000 0.0000 0.0000 0.0000 0.0000 31.8703
#
#
#
# Elastic Compliance Matrix: (Units=1/GPa)
#
#
# Indices 1 2 3 4 5 6 
#
# 1 0.011727 -0.004591 -0.001571 0.000000 0.000000 0.000000
# 2 -0.004591 0.011727 -0.001571 0.000000 0.000000 0.000000
# 3 -0.001571 -0.001571 0.007929 0.000000 0.000000 0.000000
# 4 0.000000 0.000000 0.000000 0.033629 0.000000 0.000000
# 5 0.000000 0.000000 0.000000 0.000000 0.033629 0.000000
# 6 0.000000 0.000000 0.000000 0.000000 0.000000 0.031377
#
#
# Mechanical properties :
#
#
# Convention : Reuss Voigt Hill
#
# Bulk Modulus (GPa) = 62.82764 62.99127 62.90946
# Shear Modulus (GPa) = 33.15857 34.66964 33.91410
#
# Velocity S-wave (km/s) = 3.95630 4.04544 4.00112
# Velocity P-wave (km/s) = 7.10824 7.18021 7.14432
#
# Compressibility (1/GPa) = 0.01591656
#
# Stress axis : x y z
#
# Youngs Moduli (GPa) = 85.27352 85.27352 126.11576
#
# Poissons Ratio (x) = 0.39149 0.19815
# Poissons Ratio (y) = 0.39149 0.19815
# Poissons Ratio (z) = 0.13398 0.13398
#
# Static dielectric constant tensor:
#      x y z
#    x 3.716300 0.000000 0.000000 
#    y 0.000000 3.716300 0.000000 
#    z 0.000000 0.000000 3.849200 
# 
# 
# High freq. dielectric constant tensor:
#      x y z
#    x 1.827920 0.000000 0.000000 
#    y 0.000000 1.827920 0.000000 
#    z 0.000000 0.000000 1.833840 
# 
# From -- ./inp_files/5057.got.cif
#   From: 2010.03.12/outbox.cif.g09.slc.cpg/sg124_3_cif.got.tgz:5057.got - 2010.04.06 16:38:57.
