data_PCOD8313858
_publ_section_title
;
Structure prediction by ZEFSAII (Michael W. Deem and Ramdas Pophale) SiO2 
 PCOD8313858
Probable space group: P 4/M B M
;
_chemical_formula_sum "Si O2"
_cell_formula_units_Z 96
_cell_length_a 25.515909
_cell_length_b 25.515909
_cell_length_c 8.619449
_cell_angle_alpha 90.000000
_cell_angle_beta 90.000000
_cell_angle_gamma 90.000000
_cell_volume 5611.792361
_symmetry_space_group_name_H-M "P 4/M B M"
_symmetry_group_IT_number 127
_symmetry_cell_setting 'tetragonal'
loop_
_space_group_symop_operation_xyz
x,y,z
-y,x,z
-x,-y,z
y,-x,z
1/2+x,1/2-y,-z
1/2-x,1/2+y,-z
1/2+y,1/2+x,-z
1/2-y,1/2-x,-z
-x,-y,-z
y,-x,-z
x,y,-z
-y,x,-z
1/2-x,1/2+y,z
1/2+x,1/2-y,z
1/2-y,1/2-x,z
1/2+y,1/2+x,z
loop_
_atom_site_type_symbol
_atom_site_label
_atom_site_fract_x
_atom_site_fract_y
_atom_site_fract_z
Si Si1 0.692084 0.609115 0.682786
Si Si2 0.605176 0.690906 0.316555
Si Si3 0.608775 0.193064 0.817477
Si Si4 0.390534 0.190942 0.318927
Si Si5 0.502571 0.310797 0.819579
Si Si6 0.995197 0.698328 0.680342
O O1 0.700483 0.609044 0.500000
O O2 0.653783 0.655640 0.736461
O O3 0.747842 0.619336 0.762796
O O4 0.665582 0.554131 0.735435
O O5 0.598049 0.691867 0.500000
O O6 0.614841 0.750019 0.251919
O O7 0.551852 0.666088 0.246481
O O8 0.658187 0.158187 0.766906
O O9 0.556876 0.167540 0.735165
O O10 0.600016 0.192000 0.000000
O O11 0.378549 0.193348 0.500000
O O12 0.348588 0.151413 0.239003
O O13 0.449686 0.168286 0.290785
O O14 0.503628 0.249188 0.787717
O O15 0.506461 0.323316 0.000000
O O16 0.990493 0.714685 0.500000
#
# Coordination Sequence:
#
# PCOD8313858 Si02
#       6
#    16  16  16  16  16  16
#     4  10  19  31  49  71  95 122 155 194 231 273
#     4   9  18  31  48  70  94 122 154 188 226 270
#     4  10  20  32  46  66  94 125 155 191 235 280
#     4   8  14  26  45  69  94 117 145 185 230 271
#     4  10  18  29  47  67  91 123 156 190 227 270
#     4   9  16  28  47  67  88 118 158 196 227 269
#
# _framework density 17.106833000000002
#
# number of rings (size 3 to 8) (size 9 to 14) (size 15 to 20)
#    0.000    2.667    0.000    6.000    0.000    3.333 
#    0.000    1.667    0.000   13.500    0.000    7.000 
#    0.000    0.000    0.000    0.000    0.000    0.000 
#
# Total GULP energy -1189514.766676 kJ/mol
# GULP energy per Si atom -12390.778820 kJ/mol
# Density = 1.706790 g / cm^3
# Si number density = 17.106833 Si / 1000 Ang^3
#
#
#
# Elastic Constant Matrix: (Units=GPa)
#
#
# Indices 1 2 3 4 5 6 
#
# 1 112.5833 73.0846 28.6020 0.0000 0.0000 0.0000
# 2 73.0846 112.5833 28.6020 0.0000 0.0000 0.0000
# 3 28.6020 28.6020 40.1916 0.0000 0.0000 0.0000
# 4 0.0000 0.0000 0.0000 16.9260 0.0000 0.0000
# 5 0.0000 0.0000 0.0000 0.0000 16.9260 0.0000
# 6 0.0000 0.0000 0.0000 0.0000 0.0000 5.7057
#
#
#
# Elastic Compliance Matrix: (Units=1/GPa)
#
#
# Indices 1 2 3 4 5 6 
#
# 1 0.016108 -0.009209 -0.004909 0.000000 0.000000 0.000000
# 2 -0.009209 0.016108 -0.004909 0.000000 0.000000 0.000000
# 3 -0.004909 -0.004909 0.031868 0.000000 0.000000 0.000000
# 4 0.000000 0.000000 0.000000 0.059081 0.000000 0.000000
# 5 0.000000 0.000000 0.000000 0.000000 0.059081 0.000000
# 6 0.000000 0.000000 0.000000 0.000000 0.000000 0.175264
#
#
# Mechanical properties :
#
#
# Convention : Reuss Voigt Hill
#
# Bulk Modulus (GPa) = 38.42012 58.43729 48.42871
# Shear Modulus (GPa) = 12.36886 16.91618 14.64252
#
# Velocity S-wave (km/s) = 2.69185 3.14802 2.92883
# Velocity P-wave (km/s) = 5.67178 6.88823 6.30939
#
# Compressibility (1/GPa) = 0.02602803
#
# Stress axis : x y z
#
# Youngs Moduli (GPa) = 62.08134 62.08134 31.37937
#
# Poissons Ratio (x) = 0.57173 0.15405
# Poissons Ratio (y) = 0.57173 0.15405
# Poissons Ratio (z) = 0.30477 0.30477
#
# Static dielectric constant tensor:
#      x y z
#    x 3.458630 0.000000 0.000000 
#    y 0.000000 3.458630 0.000000 
#    z 0.000000 0.000000 3.074830 
# 
# 
# High freq. dielectric constant tensor:
#      x y z
#    x 1.645320 0.000000 0.000000 
#    y 0.000000 1.645320 0.000000 
#    z 0.000000 0.000000 1.654310 
# 
# From -- ./inp_files/2215.got.cif
#   From: 2010.03.12/outbox.cif.g09.slc.cpg/sg127_2_cif.got.tgz:2215.got - 2010.04.06 17:03:15.
