data_PCOD8313138
_publ_section_title
;
Structure prediction by ZEFSAII (Michael W. Deem and Ramdas Pophale) SiO2 
 PCOD8313138
Probable space group: P 4/M C C
;
_chemical_formula_sum "Si O2"
_cell_formula_units_Z 52
_cell_length_a 18.554304
_cell_length_b 18.554304
_cell_length_c 9.149754
_cell_angle_alpha 90.000000
_cell_angle_beta 90.000000
_cell_angle_gamma 90.000000
_cell_volume 3149.914413
_symmetry_space_group_name_H-M "P 4/M C C"
_symmetry_group_IT_number 124
_symmetry_cell_setting 'tetragonal'
loop_
_space_group_symop_operation_xyz
x,y,z
-y,x,z
-x,-y,z
y,-x,z
x,-y,1/2-z
-x,y,1/2-z
y,x,1/2-z
-y,-x,1/2-z
-x,-y,-z
y,-x,-z
x,y,-z
-y,x,-z
-x,y,1/2+z
x,-y,1/2+z
-y,-x,1/2+z
y,x,1/2+z
loop_
_atom_site_type_symbol
_atom_site_label
_atom_site_fract_x
_atom_site_fract_y
_atom_site_fract_z
Si Si1 0.500000 0.000000 0.750000
Si Si2 0.160941 0.934197 0.162170
Si Si3 0.931949 0.362237 0.164163
Si Si4 0.717285 0.184259 0.835174
O O1 0.551428 0.947005 0.845336
O O2 0.089811 0.910190 0.250000
O O3 0.216331 0.869265 0.155276
O O4 0.196829 0.000000 0.250000
O O5 0.139143 0.958922 0.000000
O O6 0.856555 0.346628 0.247331
O O7 0.000000 0.326119 0.250000
O O8 0.927993 0.330266 0.000000
O O9 0.743191 0.256810 0.750000
O O10 0.691241 0.204312 0.000000
#
# Coordination Sequence:
#
# PCOD8313138 Si02
#       4
#     4  16  16  16
#     4   8  22  32  50  72  98 124 156 190 242 280
#     4  10  20  32  44  58  75  98 130 171 217 268
#     4  10  19  31  48  68  93 120 153 192 234 281
#     4  10  20  32  47  65  87 114 146 183 227 275
#
# _framework density 16.508386000000002
#
# number of rings (size 3 to 8) (size 9 to 14) (size 15 to 20)
#    0.923    1.231    0.000    4.154    0.000    6.462 
#    0.000    1.538    0.000    0.000    0.000    0.000 
#    0.000    0.000    0.000    0.000    0.000    0.769 
#
# Total GULP energy -644222.594362 kJ/mol
# GULP energy per Si atom -12388.896045 kJ/mol
# Density = 1.647081 g / cm^3
# Si number density = 16.508386 Si / 1000 Ang^3
#
#
#
# Elastic Constant Matrix: (Units=GPa)
#
#
# Indices 1 2 3 4 5 6 
#
# 1 52.8026 19.2008 29.4540 0.0000 0.0000 0.0000
# 2 19.2008 52.8006 29.4536 0.0000 0.0000 0.0000
# 3 29.4540 29.4536 153.3387 0.0000 0.0000 0.0000
# 4 0.0000 0.0000 0.0000 19.0649 0.0000 0.0000
# 5 0.0000 0.0000 0.0000 0.0000 19.0652 0.0000
# 6 0.0000 0.0000 0.0000 0.0000 0.0000 15.1321
#
#
#
# Elastic Compliance Matrix: (Units=1/GPa)
#
#
# Indices 1 2 3 4 5 6 
#
# 1 0.023119 -0.006642 -0.003165 0.000000 0.000000 0.000000
# 2 -0.006642 0.023120 -0.003165 0.000000 0.000000 0.000000
# 3 -0.003165 -0.003165 0.007737 0.000000 0.000000 0.000000
# 4 0.000000 0.000000 0.000000 0.052453 0.000000 0.000000
# 5 0.000000 0.000000 0.000000 0.000000 0.052452 0.000000
# 6 0.000000 0.000000 0.000000 0.000000 0.000000 0.066085
#
#
# Mechanical properties :
#
#
# Convention : Reuss Voigt Hill
#
# Bulk Modulus (GPa) = 35.67255 46.12875 40.90065
# Shear Modulus (GPa) = 19.21206 22.70801 20.96003
#
# Velocity S-wave (km/s) = 3.41512 3.71286 3.56709
# Velocity P-wave (km/s) = 6.09970 6.81056 6.46491
#
# Compressibility (1/GPa) = 0.02803276
#
# Stress axis : x y z
#
# Youngs Moduli (GPa) = 43.25422 43.25258 129.24159
#
# Poissons Ratio (x) = 0.28727 0.40906
# Poissons Ratio (y) = 0.28728 0.40907
# Poissons Ratio (z) = 0.13690 0.13690
#
# Static dielectric constant tensor:
#      x y z
#    x 2.787680 0.000000 0.000000 
#    y 0.000000 2.787690 0.000000 
#    z 0.000000 0.000000 3.631680 
# 
# 
# High freq. dielectric constant tensor:
#      x y z
#    x 1.590530 0.000000 0.000000 
#    y 0.000000 1.590530 0.000000 
#    z 0.000000 0.000000 1.658200 
# 
# From -- ./inp_files/574.got.cif
#   From: 2010.03.12/outbox.cif.g09.slc.cpg/sg124_1_cif.got.tgz:574.got - 2010.04.06 16:38:57.
