data_PCOD8313893
_publ_section_title
;
Structure prediction by ZEFSAII (Michael W. Deem and Ramdas Pophale) SiO2 
 PCOD8313893
Probable space group: P 4/M B M
;
_chemical_formula_sum "Si O2"
_cell_formula_units_Z 96
_cell_length_a 20.292780
_cell_length_b 20.292780
_cell_length_c 13.311981
_cell_angle_alpha 90.000000
_cell_angle_beta 90.000000
_cell_angle_gamma 90.000000
_cell_volume 5481.832777
_symmetry_space_group_name_H-M "P 4/M B M"
_symmetry_group_IT_number 127
_symmetry_cell_setting 'tetragonal'
loop_
_space_group_symop_operation_xyz
x,y,z
-y,x,z
-x,-y,z
y,-x,z
1/2+x,1/2-y,-z
1/2-x,1/2+y,-z
1/2+y,1/2+x,-z
1/2-y,1/2-x,-z
-x,-y,-z
y,-x,-z
x,y,-z
-y,x,-z
1/2-x,1/2+y,z
1/2+x,1/2-y,z
1/2-y,1/2-x,z
1/2+y,1/2+x,z
loop_
_atom_site_type_symbol
_atom_site_label
_atom_site_fract_x
_atom_site_fract_y
_atom_site_fract_z
Si Si1 0.949260 0.777474 0.754029
Si Si2 0.785264 0.178605 0.881744
Si Si3 0.651594 0.043326 0.384012
Si Si4 0.038193 0.100853 0.385335
Si Si5 0.054357 0.554357 0.307009
Si Si6 0.239832 0.076787 0.884424
Si Si7 0.108393 0.608393 0.887262
O O1 0.889725 0.766629 0.830365
O O2 0.949257 0.716985 0.678916
O O3 0.938200 0.843212 0.690307
O O4 0.016742 0.782729 0.815549
O O5 0.735423 0.235423 0.844160
O O6 0.859501 0.198041 0.852394
O O7 0.778146 0.168910 0.000000
O O8 0.670589 0.047553 0.500000
O O9 0.600963 0.100963 0.353053
O O10 0.620472 0.971434 0.360894
O O11 0.046988 0.124973 0.500000
O O12 0.962253 0.083593 0.364968
O O13 0.065322 0.565322 0.188652
O O14 0.000000 0.500000 0.322689
O O15 0.315627 0.094175 0.867458
O O16 0.226284 0.057970 0.000000
O O17 0.087929 0.587929 0.000000
#
# Coordination Sequence:
#
# PCOD8313893 Si02
#       7
#    16  16  16  16   8  16   8
#     4  12  20  32  55  83 104 128 177 226 262 296
#     4  10  21  37  54  75 107 144 175 210 262 322
#     4  10  21  35  51  73 104 140 175 214 260 312
#     4   9  19  36  55  76 104 136 169 209 261 318
#     4  10  19  35  54  77 105 140 179 215 263 317
#     4  10  20  35  55  76 105 142 178 212 258 322
#     4  10  18  34  55  78 104 141 181 214 256 319
#
# _framework density 17.512392999999999
#
# number of rings (size 3 to 8) (size 9 to 14) (size 15 to 20)
#    0.000    1.833    2.500    3.250    0.000    1.167 
#    0.000    0.000    0.000    0.000    0.000    7.000 
#    0.000    0.000    0.000    0.000    0.000    0.000 
#
# Total GULP energy -1190536.437835 kJ/mol
# GULP energy per Si atom -12401.421227 kJ/mol
# Density = 1.747253 g / cm^3
# Si number density = 17.512393 Si / 1000 Ang^3
#
#
#
# Elastic Constant Matrix: (Units=GPa)
#
#
# Indices 1 2 3 4 5 6 
#
# 1 117.0893 -6.6624 42.0935 0.0000 0.0000 0.0000
# 2 -6.6624 117.0893 42.0935 0.0000 0.0000 0.0000
# 3 42.0935 42.0935 68.6566 0.0000 0.0000 0.0000
# 4 0.0000 0.0000 0.0000 32.2715 0.0000 0.0000
# 5 0.0000 0.0000 0.0000 0.0000 32.2715 0.0000
# 6 0.0000 0.0000 0.0000 0.0000 0.0000 13.8746
#
#
#
# Elastic Compliance Matrix: (Units=1/GPa)
#
#
# Indices 1 2 3 4 5 6 
#
# 1 0.012542 0.004461 -0.010425 0.000000 0.000000 0.000000
# 2 0.004461 0.012542 -0.010425 0.000000 0.000000 0.000000
# 3 -0.010425 -0.010425 0.027348 0.000000 0.000000 0.000000
# 4 0.000000 0.000000 0.000000 0.030987 0.000000 0.000000
# 5 0.000000 0.000000 0.000000 0.000000 0.030987 0.000000
# 6 0.000000 0.000000 0.000000 0.000000 0.000000 0.072074
#
#
# Mechanical properties :
#
#
# Convention : Reuss Voigt Hill
#
# Bulk Modulus (GPa) = 50.87578 50.87607 50.87592
# Shear Modulus (GPa) = 22.14261 30.70425 26.42343
#
# Velocity S-wave (km/s) = 3.55969 4.19177 3.88860
# Velocity P-wave (km/s) = 6.78304 7.24862 7.01969
#
# Compressibility (1/GPa) = 0.01965572
#
# Stress axis : x y z
#
# Youngs Moduli (GPa) = 79.73172 79.73172 36.56543
#
# Poissons Ratio (x) = -0.35571 0.38119
# Poissons Ratio (y) = -0.35571 0.38119
# Poissons Ratio (z) = 0.83119 0.83119
#
# Static dielectric constant tensor:
#      x y z
#    x 3.255780 0.000000 0.000000 
#    y 0.000000 3.255780 0.000000 
#    z 0.000000 0.000000 3.247660 
# 
# 
# High freq. dielectric constant tensor:
#      x y z
#    x 1.677820 0.000000 0.000000 
#    y 0.000000 1.677820 0.000000 
#    z 0.000000 0.000000 1.680390 
# 
# From -- ./inp_files/3593.got.cif
#   From: 2010.03.12/outbox.cif.g09.slc.cpg/sg127_2_cif.got.tgz:3593.got - 2010.04.06 17:03:15.
