data_PCOD8313584
_publ_section_title
;
Structure prediction by ZEFSAII (Michael W. Deem and Ramdas Pophale) SiO2 
 PCOD8313584
Probable space group: P 4/N B M
;
_chemical_formula_sum "Si O2"
_cell_formula_units_Z 112
_cell_length_a 13.635532
_cell_length_b 13.635532
_cell_length_c 28.210856
_cell_angle_alpha 90.000000
_cell_angle_beta 90.000000
_cell_angle_gamma 90.000000
_cell_volume 5245.180500
_symmetry_space_group_name_H-M "P 4/N B M"
_symmetry_group_IT_number 125
_space_group.IT_coordinate_system_code '2'
_symmetry_cell_setting 'tetragonal'
loop_
_space_group_symop_operation_xyz
x,y,z
1/2-y,x,z
1/2-x,1/2-y,z
y,1/2-x,z
x,1/2-y,-z
1/2-x,y,-z
y,x,-z
1/2-y,1/2-x,-z
-x,-y,-z
1/2+y,-x,-z
1/2+x,1/2+y,-z
-y,1/2+x,-z
-x,1/2+y,z
1/2+x,-y,z
-y,-x,z
1/2+y,1/2+x,z
loop_
_atom_site_type_symbol
_atom_site_label
_atom_site_fract_x
_atom_site_fract_y
_atom_site_fract_z
Si Si1 0.292646 0.550340 0.951040
Si Si2 0.330782 0.111675 0.110711
Si Si3 0.332155 0.832155 0.882904
Si Si4 0.085983 0.253181 0.624420
Si Si5 0.750124 0.408213 0.444169
Si Si6 0.668578 0.611528 0.216912
Si Si7 0.668436 0.168436 0.223689
Si Si8 0.541272 0.199144 0.713696
O O1 0.352508 0.647493 0.964259
O O2 0.365062 0.469223 0.927494
O O3 0.209175 0.574929 0.911964
O O4 0.250000 0.508311 0.000000
O O5 0.381072 0.214375 0.101721
O O6 0.352550 0.074255 0.163799
O O7 0.250000 0.750000 0.878204
O O8 0.365127 0.865127 0.829537
O O9 0.151063 0.154873 0.624160
O O10 0.015538 0.252331 0.578927
O O11 0.015580 0.253886 0.669826
O O12 0.750000 0.424993 0.500000
O O13 0.654339 0.345662 0.428948
O O14 0.847735 0.347735 0.428953
O O15 0.784946 0.619143 0.226056
O O16 0.631127 0.531651 0.254725
O O17 0.750000 0.250000 0.217254
O O18 0.577722 0.212080 0.252991
O O19 0.631292 0.131292 0.695758
#
# Coordination Sequence:
#
# PCOD8313584 Si02
#       8
#    16  16   8  16  16  16   8  16
#     4  11  21  36  58  83 111 143 183 229 285 351
#     4   9  20  39  60  80 109 152 190 229 290 355
#     4   9  18  34  58  79 113 149 186 231 293 369
#     4  11  25  43  62  89 131 180 226 275 328 382
#     4   9  20  41  69 100 135 175 220 274 339 400
#     4   9  18  37  60  80 111 152 192 238 298 367
#     4   9  20  36  54  82 113 152 189 243 308 369
#     4  11  22  37  58  86 122 156 204 255 316 377
#
# _framework density 21.352936
#
# number of rings (size 3 to 8) (size 9 to 14) (size 15 to 20)
#    0.000    2.143    0.714    3.429    1.000    5.143 
#    5.143    3.571    0.000    0.000    0.000    0.000 
#    0.000    0.000    0.000    0.000    0.000    0.000 
#
# Total GULP energy -1388461.866587 kJ/mol
# GULP energy per Si atom -12396.980952 kJ/mol
# Density = 2.130434 g / cm^3
# Si number density = 21.352936 Si / 1000 Ang^3
#
#
#
# Elastic Constant Matrix: (Units=GPa)
#
#
# Indices 1 2 3 4 5 6 
#
# 1 92.7905 3.2122 40.1230 0.0000 0.0000 0.0000
# 2 3.2122 92.7905 40.1230 0.0000 0.0000 0.0000
# 3 40.1230 40.1230 112.7078 0.0000 0.0000 0.0000
# 4 0.0000 0.0000 0.0000 26.3236 0.0000 0.0000
# 5 0.0000 0.0000 0.0000 0.0000 26.3236 0.0000
# 6 0.0000 0.0000 0.0000 0.0000 0.0000 20.9138
#
#
#
# Elastic Compliance Matrix: (Units=1/GPa)
#
#
# Indices 1 2 3 4 5 6 
#
# 1 0.012996 0.001833 -0.005279 0.000000 0.000000 0.000000
# 2 0.001833 0.012996 -0.005279 0.000000 0.000000 0.000000
# 3 -0.005279 -0.005279 0.012631 0.000000 0.000000 0.000000
# 4 0.000000 0.000000 0.000000 0.037989 0.000000 0.000000
# 5 0.000000 0.000000 0.000000 0.000000 0.037989 0.000000
# 6 0.000000 0.000000 0.000000 0.000000 0.000000 0.047815
#
#
# Mechanical properties :
#
#
# Convention : Reuss Voigt Hill
#
# Bulk Modulus (GPa) = 47.22994 51.68947 49.45971
# Shear Modulus (GPa) = 26.74881 29.03424 27.89153
#
# Velocity S-wave (km/s) = 3.54319 3.69145 3.61808
# Velocity P-wave (km/s) = 6.23744 6.51374 6.37709
#
# Compressibility (1/GPa) = 0.02117301
#
# Stress axis : x y z
#
# Youngs Moduli (GPa) = 76.94573 76.94573 79.17005
#
# Poissons Ratio (x) = -0.14102 0.41794
# Poissons Ratio (y) = -0.14102 0.41794
# Poissons Ratio (z) = 0.40619 0.40619
#
# Static dielectric constant tensor:
#      x y z
#    x 3.763170 0.000000 0.000000 
#    y 0.000000 3.763170 0.000000 
#    z 0.000000 0.000000 3.845610 
# 
# 
# High freq. dielectric constant tensor:
#      x y z
#    x 1.828810 0.000000 0.000000 
#    y 0.000000 1.828810 0.000000 
#    z 0.000000 0.000000 1.841330 
# 
# From -- ./inp_files/6471.got.cif
#   From: 2010.03.12/outbox.cif.g09.slc.cpg/sg125_4_cif.got.tgz:6471.got - 2010.04.06 16:47:52.
