data_PCOD8313988
_publ_section_title
;
Structure prediction by ZEFSAII (Michael W. Deem and Ramdas Pophale) SiO2 
 PCOD8313988
Probable space group: P 4/M B M
;
_chemical_formula_sum "Si O2"
_cell_formula_units_Z 128
_cell_length_a 23.361754
_cell_length_b 23.361754
_cell_length_c 13.860461
_cell_angle_alpha 90.000000
_cell_angle_beta 90.000000
_cell_angle_gamma 90.000000
_cell_volume 7564.645283
_symmetry_space_group_name_H-M "P 4/M B M"
_symmetry_group_IT_number 127
_symmetry_cell_setting 'tetragonal'
loop_
_space_group_symop_operation_xyz
x,y,z
-y,x,z
-x,-y,z
y,-x,z
1/2+x,1/2-y,-z
1/2-x,1/2+y,-z
1/2+y,1/2+x,-z
1/2-y,1/2-x,-z
-x,-y,-z
y,-x,-z
x,y,-z
-y,x,-z
1/2-x,1/2+y,z
1/2+x,1/2-y,z
1/2-y,1/2-x,z
1/2+y,1/2+x,z
loop_
_atom_site_type_symbol
_atom_site_label
_atom_site_fract_x
_atom_site_fract_y
_atom_site_fract_z
Si Si1 0.135968 0.269167 0.106705
Si Si2 0.115755 0.710805 0.279731
Si Si3 0.444338 0.848527 0.213961
Si Si4 0.196750 0.208811 0.736583
Si Si5 0.058026 0.651136 0.108682
Si Si6 0.921101 0.042720 0.385068
Si Si7 0.293891 0.000774 0.389349
Si Si8 0.695875 0.589214 0.388944
O O1 0.177149 0.322852 0.094606
O O2 0.083768 0.289401 0.175208
O O3 0.169490 0.216255 0.156520
O O4 0.114645 0.249888 0.000000
O O5 0.159966 0.659966 0.306437
O O6 0.147880 0.771756 0.272361
O O7 0.085790 0.699536 0.176841
O O8 0.067359 0.715358 0.362016
O O9 0.399777 0.899777 0.219836
O O10 0.493845 0.864756 0.138996
O O11 0.471335 0.840845 0.320412
O O12 0.240944 0.259057 0.714344
O O13 0.146330 0.218590 0.660497
O O14 0.092481 0.592481 0.117332
O O15 0.059172 0.675429 0.000000
O O16 0.917941 0.042034 0.500000
O O17 0.865294 0.073157 0.341723
O O18 0.977057 0.076489 0.348592
O O19 0.315282 0.997530 0.500000
O O20 0.235405 0.966137 0.375129
O O21 0.689647 0.605335 0.500000
#
# Coordination Sequence:
#
# PCOD8313988 Si02
#       8
#    16  16  16  16  16  16  16  16
#     4   9  17  30  49  72  98 129 163 202 252 307
#     4   9  20  36  53  73 101 136 173 214 258 309
#     4  10  19  33  51  73 103 135 169 210 258 308
#     4  10  20  34  50  73 102 132 168 210 253 302
#     4   9  18  33  53  77 103 131 165 208 259 310
#     4   8  15  28  45  66  92 121 154 195 244 294
#     4  10  21  35  51  72 100 137 177 216 261 308
#     4  10  20  31  47  71  98 131 168 210 255 299
#
# _framework density 16.920819999999999
#
# number of rings (size 3 to 8) (size 9 to 14) (size 15 to 20)
#    0.000    2.625    1.250    0.750    1.750    2.750 
#    0.000    5.625    0.000    0.000    0.000    3.500 
#    0.000    0.000    0.000    1.375    0.000    0.125 
#
# Total GULP energy -1586713.113415 kJ/mol
# GULP energy per Si atom -12396.196199 kJ/mol
# Density = 1.688231 g / cm^3
# Si number density = 16.920820 Si / 1000 Ang^3
#
#
#
# Elastic Constant Matrix: (Units=GPa)
#
#
# Indices 1 2 3 4 5 6 
#
# 1 82.2395 36.8557 40.7794 0.0000 0.0000 0.0000
# 2 36.8557 82.2395 40.7794 0.0000 0.0000 0.0000
# 3 40.7794 40.7794 95.1155 0.0000 0.0000 0.0000
# 4 0.0000 0.0000 0.0000 18.0250 0.0000 0.0000
# 5 0.0000 0.0000 0.0000 0.0000 18.0250 0.0000
# 6 0.0000 0.0000 0.0000 0.0000 0.0000 21.4867
#
#
#
# Elastic Compliance Matrix: (Units=1/GPa)
#
#
# Indices 1 2 3 4 5 6 
#
# 1 0.016960 -0.005074 -0.005096 0.000000 0.000000 0.000000
# 2 -0.005074 0.016960 -0.005096 0.000000 0.000000 0.000000
# 3 -0.005096 -0.005096 0.014883 0.000000 0.000000 0.000000
# 4 0.000000 0.000000 0.000000 0.055478 0.000000 0.000000
# 5 0.000000 0.000000 0.000000 0.000000 0.055478 0.000000
# 6 0.000000 0.000000 0.000000 0.000000 0.000000 0.046541
#
#
# Mechanical properties :
#
#
# Convention : Reuss Voigt Hill
#
# Bulk Modulus (GPa) = 54.72922 55.15818 54.94370
# Shear Modulus (GPa) = 20.58249 20.91934 20.75091
#
# Velocity S-wave (km/s) = 3.49148 3.51993 3.50573
# Velocity P-wave (km/s) = 6.97627 7.01345 6.99489
#
# Compressibility (1/GPa) = 0.01827178
#
# Stress axis : x y z
#
# Youngs Moduli (GPa) = 58.96063 58.96063 67.18894
#
# Poissons Ratio (x) = 0.29916 0.34241
# Poissons Ratio (y) = 0.29916 0.34241
# Poissons Ratio (z) = 0.30048 0.30048
#
# Static dielectric constant tensor:
#      x y z
#    x 3.198310 0.000000 0.000000 
#    y 0.000000 3.198310 0.000000 
#    z 0.000000 0.000000 3.174730 
# 
# 
# High freq. dielectric constant tensor:
#      x y z
#    x 1.648500 0.000000 0.000000 
#    y 0.000000 1.648500 0.000000 
#    z 0.000000 0.000000 1.638980 
# 
# From -- ./inp_files/3885.got.cif
#   From: 2010.03.12/outbox.cif.g09.slc.cpg/sg127_2_cif.got.tgz:3885.got - 2010.04.06 17:03:15.
