data_PCOD8313724
_publ_section_title
;
Structure prediction by ZEFSAII (Michael W. Deem and Ramdas Pophale) SiO2 
 PCOD8313724
Probable space group: P 4/N N C
;
_chemical_formula_sum "Si O2"
_cell_formula_units_Z 64
_cell_length_a 11.007370
_cell_length_b 11.007370
_cell_length_c 27.810126
_cell_angle_alpha 90.000000
_cell_angle_beta 90.000000
_cell_angle_gamma 90.000000
_cell_volume 3369.535890
_symmetry_space_group_name_H-M "P 4/N N C"
_symmetry_group_IT_number 126
_space_group.IT_coordinate_system_code '2'
_symmetry_cell_setting 'tetragonal'
loop_
_space_group_symop_operation_xyz
x,y,z
1/2-y,x,z
1/2-x,1/2-y,z
y,1/2-x,z
x,1/2-y,1/2-z
1/2-x,y,1/2-z
y,x,1/2-z
1/2-y,1/2-x,1/2-z
-x,-y,-z
1/2+y,-x,-z
1/2+x,1/2+y,-z
-y,1/2+x,-z
-x,1/2+y,1/2+z
1/2+x,-y,1/2+z
-y,-x,1/2+z
1/2+y,1/2+x,1/2+z
loop_
_atom_site_type_symbol
_atom_site_label
_atom_site_fract_x
_atom_site_fract_y
_atom_site_fract_z
Si Si1 0.435760 0.781970 0.986553
Si Si2 0.568697 0.677753 0.423126
Si Si3 0.881021 0.308054 0.389075
Si Si4 0.243552 0.448197 0.195189
O O1 0.468679 0.742326 0.932058
O O2 0.385174 0.667156 0.016596
O O3 0.547893 0.831322 0.018632
O O4 0.682584 0.594807 0.408905
O O5 0.453628 0.629116 0.393126
O O6 0.750000 0.250000 0.395668
O O7 0.934705 0.266450 0.338391
O O8 0.126893 0.365163 0.184618
O O9 0.250000 0.494047 0.250000
#
# Coordination Sequence:
#
# PCOD8313724 Si02
#       4
#    16  16  16  16
#     4   9  16  33  49  76 110 147 189 233 274 318
#     4  10  22  36  52  81 121 159 192 234 282 339
#     4  11  21  34  60  86 114 150 200 233 287 350
#     4   9  21  41  62  87 116 142 183 247 301 341
#
# _framework density 18.993713
#
# number of rings (size 3 to 8) (size 9 to 14) (size 15 to 20)
#    0.000    2.250    5.000    0.750    3.500    6.500 
#    0.000    2.500    0.000    0.000    0.000    0.000 
#    0.000    0.000    0.000    0.000    0.000    0.000 
#
# Total GULP energy -793289.908474 kJ/mol
# GULP energy per Si atom -12395.154820 kJ/mol
# Density = 1.895048 g / cm^3
# Si number density = 18.993713 Si / 1000 Ang^3
#
#
#
# Elastic Constant Matrix: (Units=GPa)
#
#
# Indices 1 2 3 4 5 6 
#
# 1 50.8958 4.5328 37.1974 0.0000 0.0000 0.0000
# 2 4.5328 50.8958 37.1974 0.0000 0.0000 0.0000
# 3 37.1974 37.1974 114.0121 0.0000 0.0000 0.0000
# 4 0.0000 0.0000 0.0000 27.3705 0.0000 0.0000
# 5 0.0000 0.0000 0.0000 0.0000 27.3705 0.0000
# 6 0.0000 0.0000 0.0000 0.0000 0.0000 14.6649
#
#
#
# Elastic Compliance Matrix: (Units=1/GPa)
#
#
# Indices 1 2 3 4 5 6 
#
# 1 0.026832 0.005263 -0.010472 0.000000 0.000000 0.000000
# 2 0.005263 0.026832 -0.010472 0.000000 0.000000 0.000000
# 3 -0.010472 -0.010472 0.015604 0.000000 0.000000 0.000000
# 4 0.000000 0.000000 0.000000 0.036536 0.000000 0.000000
# 5 0.000000 0.000000 0.000000 0.000000 0.036536 0.000000
# 6 0.000000 0.000000 0.000000 0.000000 0.000000 0.068190
#
#
# Mechanical properties :
#
#
# Convention : Reuss Voigt Hill
#
# Bulk Modulus (GPa) = 26.37870 41.51767 33.94818
# Shear Modulus (GPa) = 19.64438 23.00624 21.32531
#
# Velocity S-wave (km/s) = 3.21948 3.48409 3.35439
# Velocity P-wave (km/s) = 5.26672 6.17181 5.73714
#
# Compressibility (1/GPa) = 0.03790938
#
# Stress axis : x y z
#
# Youngs Moduli (GPa) = 37.26838 37.26838 64.08667
#
# Poissons Ratio (x) = -0.19616 0.67109
# Poissons Ratio (y) = -0.19616 0.67109
# Poissons Ratio (z) = 0.39026 0.39026
#
# Static dielectric constant tensor:
#      x y z
#    x 3.374310 0.000000 0.000000 
#    y 0.000000 3.374310 0.000000 
#    z 0.000000 0.000000 3.280570 
# 
# 
# High freq. dielectric constant tensor:
#      x y z
#    x 1.732150 0.000000 0.000000 
#    y 0.000000 1.732150 0.000000 
#    z 0.000000 0.000000 1.713710 
# 
# From -- ./inp_files/4920.got.cif
#   From: 2010.03.12/outbox.cif.g09.slc.cpg/sg126_3_cif.got.tgz:4920.got - 2010.04.06 16:55:23.
