data_PCOD8313673
_publ_section_title
;
Structure prediction by ZEFSAII (Michael W. Deem and Ramdas Pophale) SiO2 
 PCOD8313673
Probable space group: P 4/N N C
;
_chemical_formula_sum "Si O2"
_cell_formula_units_Z 96
_cell_length_a 26.062133
_cell_length_b 26.062133
_cell_length_c 9.848012
_cell_angle_alpha 90.000000
_cell_angle_beta 90.000000
_cell_angle_gamma 90.000000
_cell_volume 6689.112230
_symmetry_space_group_name_H-M "P 4/N N C"
_symmetry_group_IT_number 126
_space_group.IT_coordinate_system_code '2'
_symmetry_cell_setting 'tetragonal'
loop_
_space_group_symop_operation_xyz
x,y,z
1/2-y,x,z
1/2-x,1/2-y,z
y,1/2-x,z
x,1/2-y,1/2-z
1/2-x,y,1/2-z
y,x,1/2-z
1/2-y,1/2-x,1/2-z
-x,-y,-z
1/2+y,-x,-z
1/2+x,1/2+y,-z
-y,1/2+x,-z
-x,1/2+y,1/2+z
1/2+x,-y,1/2+z
-y,-x,1/2+z
1/2+y,1/2+x,1/2+z
loop_
_atom_site_type_symbol
_atom_site_label
_atom_site_fract_x
_atom_site_fract_y
_atom_site_fract_z
Si Si1 0.425540 0.624618 0.244099
Si Si2 0.773969 0.383094 0.605875
Si Si3 0.468962 0.434965 0.386352
Si Si4 0.145418 0.707198 0.354998
Si Si5 0.064689 0.011598 0.635758
Si Si6 0.364547 0.552695 0.051166
O O1 0.404652 0.681588 0.215218
O O2 0.481447 0.616897 0.174146
O O3 0.386619 0.584482 0.177858
O O4 0.429258 0.612798 0.405235
O O5 0.750000 0.396553 0.750000
O O6 0.729296 0.370626 0.500095
O O7 0.810151 0.333517 0.617328
O O8 0.804033 0.434216 0.553828
O O9 0.435258 0.435258 0.250000
O O10 0.429379 0.456760 0.497282
O O11 0.518711 0.470887 0.375133
O O12 0.492329 0.378620 0.424756
O O13 0.166163 0.750000 0.250000
O O14 0.053239 0.053239 0.750000
#
# Coordination Sequence:
#
# PCOD8313673 Si02
#       6
#    16  16  16  16  16  16
#     4  10  20  30  46  61  83 105 130 164 208 261
#     4  11  24  35  50  62  79 103 139 187 235 278
#     4   9  17  25  41  63  87 106 126 150 188 248
#     4  11  22  37  49  62  78 103 139 184 236 273
#     4   9  15  25  40  61  84 105 124 147 188 243
#     4  10  20  32  44  62  83 104 130 164 210 260
#
# _framework density 14.35168
#
# number of rings (size 3 to 8) (size 9 to 14) (size 15 to 20)
#    0.000    2.000    3.333    1.000   14.000    2.000 
#    0.000    0.000    0.000    0.000    0.000    0.000 
#    0.000    0.000    0.000    0.000    0.000    0.000 
#
# Total GULP energy -1189663.048162 kJ/mol
# GULP energy per Si atom -12392.323418 kJ/mol
# Density = 1.431902 g / cm^3
# Si number density = 14.351680 Si / 1000 Ang^3
#
#
#
# Elastic Constant Matrix: (Units=GPa)
#
#
# Indices 1 2 3 4 5 6 
#
# 1 34.1838 33.9499 14.6404 0.0000 0.0000 0.0000
# 2 33.9499 34.1838 14.6404 0.0000 0.0000 0.0000
# 3 14.6404 14.6404 95.1406 0.0000 0.0000 0.0000
# 4 0.0000 0.0000 0.0000 21.0491 0.0000 0.0000
# 5 0.0000 0.0000 0.0000 0.0000 21.0491 0.0000
# 6 0.0000 0.0000 0.0000 0.0000 0.0000 25.0766
#
#
#
# Elastic Compliance Matrix: (Units=1/GPa)
#
#
# Indices 1 2 3 4 5 6 
#
# 1 2.144929 -2.129213 -0.002418 0.000000 0.000000 0.000000
# 2 -2.129213 2.144929 -0.002418 0.000000 0.000000 0.000000
# 3 -0.002418 -0.002418 0.011255 0.000000 0.000000 0.000000
# 4 0.000000 0.000000 0.000000 0.047508 0.000000 0.000000
# 5 0.000000 0.000000 0.000000 0.000000 0.047508 0.000000
# 6 0.000000 0.000000 0.000000 0.000000 0.000000 0.039878
#
#
# Mechanical properties :
#
#
# Convention : Reuss Voigt Hill
#
# Bulk Modulus (GPa) = 30.29022 32.21885 31.25453
# Shear Modulus (GPa) = 0.57372 20.12016 10.34694
#
# Velocity S-wave (km/s) = 0.63295 3.74831 2.68798
# Velocity P-wave (km/s) = 4.65679 6.42116 5.60879
#
# Compressibility (1/GPa) = 0.03301396
#
# Stress axis : x y z
#
# Youngs Moduli (GPa) = 0.46622 0.46622 88.84886
#
# Poissons Ratio (x) = 0.99267 0.21488
# Poissons Ratio (y) = 0.99267 0.21488
# Poissons Ratio (z) = 0.00113 0.00113
#
# Static dielectric constant tensor:
#      x y z
#    x 2.797870 0.000000 0.000000 
#    y 0.000000 2.797870 0.000000 
#    z 0.000000 0.000000 3.044920 
# 
# 
# High freq. dielectric constant tensor:
#      x y z
#    x 1.507050 0.000000 0.000000 
#    y 0.000000 1.507050 0.000000 
#    z 0.000000 0.000000 1.577670 
# 
# From -- ./inp_files/1864.got.cif
#   From: 2010.03.12/outbox.cif.g09.slc.cpg/sg126_1_cif.got.tgz:1864.got - 2010.04.06 16:55:23.
