data_PCOD8313377
_publ_section_title
;
Structure prediction by ZEFSAII (Michael W. Deem and Ramdas Pophale) SiO2 
 PCOD8313377
Probable space group: P 4/M C C
;
_chemical_formula_sum "Si O2"
_cell_formula_units_Z 96
_cell_length_a 15.293313
_cell_length_b 15.293313
_cell_length_c 19.494895
_cell_angle_alpha 90.000000
_cell_angle_beta 90.000000
_cell_angle_gamma 90.000000
_cell_volume 4559.571754
_symmetry_space_group_name_H-M "P 4/M C C"
_symmetry_group_IT_number 124
_symmetry_cell_setting 'tetragonal'
loop_
_space_group_symop_operation_xyz
x,y,z
-y,x,z
-x,-y,z
y,-x,z
x,-y,1/2-z
-x,y,1/2-z
y,x,1/2-z
-y,-x,1/2-z
-x,-y,-z
y,-x,-z
x,y,-z
-y,x,-z
-x,y,1/2+z
x,-y,1/2+z
-y,-x,1/2+z
y,x,1/2+z
loop_
_atom_site_type_symbol
_atom_site_label
_atom_site_fract_x
_atom_site_fract_y
_atom_site_fract_z
Si Si1 0.713538 0.708922 0.330560
Si Si2 0.560003 0.838728 0.191147
Si Si3 0.579821 0.618041 0.421005
Si Si4 0.091650 0.453309 0.073827
Si Si5 0.947932 0.134994 0.500000
Si Si6 0.737146 0.096934 0.122631
Si Si7 0.000000 0.669111 0.750000
O O1 0.698792 0.698792 0.250000
O O2 0.784524 0.635232 0.346679
O O3 0.625356 0.689790 0.372847
O O4 0.749282 0.803477 0.351921
O O5 0.500000 0.792953 0.250000
O O6 0.488240 0.848015 0.132908
O O7 0.603647 0.925940 0.221996
O O8 0.477205 0.619269 0.404688
O O9 0.597439 0.642697 0.500000
O O10 0.080208 0.350251 0.080379
O O11 0.000000 0.500000 0.080372
O O12 0.134561 0.473707 0.000000
O O13 0.927212 0.185330 0.429172
O O14 0.049725 0.112364 0.500000
O O15 0.733456 0.035959 0.190583
#
# Coordination Sequence:
#
# PCOD8313377 Si02
#       7
#    16  16  16  16   8  16   8
#     4  12  27  41  65 105 143 184 236 303 351 425
#     4  12  23  42  66 100 146 186 232 282 361 425
#     4   9  22  44  65  88 131 195 250 291 346 415
#     4  11  22  39  66 104 140 182 232 291 364 433
#     4  11  30  56  81 106 144 189 233 298 366 428
#     4  12  26  47  73 106 146 182 242 295 358 431
#     4  12  23  44  72  99 142 192 220 293 354 430
#
# _framework density 21.054608999999999
#
# number of rings (size 3 to 8) (size 9 to 14) (size 15 to 20)
#    0.000    0.750    5.833    0.750    8.167    0.667 
#    0.000    0.833    0.000    1.000    0.000    0.000 
#    0.000    0.000    0.000    0.000    0.000    0.000 
#
# Total GULP energy -1190110.605497 kJ/mol
# GULP energy per Si atom -12396.985474 kJ/mol
# Density = 2.100669 g / cm^3
# Si number density = 21.054609 Si / 1000 Ang^3
#
#
#
# Elastic Constant Matrix: (Units=GPa)
#
#
# Indices 1 2 3 4 5 6 
#
# 1 95.2543 39.4675 47.1467 0.0000 0.0000 0.0000
# 2 39.4675 95.2543 47.1467 0.0000 0.0000 0.0000
# 3 47.1467 47.1467 158.1181 0.0000 0.0000 0.0000
# 4 0.0000 0.0000 0.0000 20.9322 0.0000 0.0000
# 5 0.0000 0.0000 0.0000 0.0000 20.9322 0.0000
# 6 0.0000 0.0000 0.0000 0.0000 0.0000 32.8408
#
#
#
# Elastic Compliance Matrix: (Units=1/GPa)
#
#
# Indices 1 2 3 4 5 6 
#
# 1 0.013653 -0.004273 -0.002797 0.000000 0.000000 0.000000
# 2 -0.004273 0.013653 -0.002797 0.000000 0.000000 0.000000
# 3 -0.002797 -0.002797 0.007992 0.000000 0.000000 0.000000
# 4 0.000000 0.000000 0.000000 0.047773 0.000000 0.000000
# 5 0.000000 0.000000 0.000000 0.000000 0.047773 0.000000
# 6 0.000000 0.000000 0.000000 0.000000 0.000000 0.030450
#
#
# Mechanical properties :
#
#
# Convention : Reuss Voigt Hill
#
# Bulk Modulus (GPa) = 64.24613 68.46096 66.35355
# Shear Modulus (GPa) = 26.85054 29.26542 28.05798
#
# Velocity S-wave (km/s) = 3.57498 3.73228 3.65448
# Velocity P-wave (km/s) = 6.90079 7.15260 7.02783
#
# Compressibility (1/GPa) = 0.01556514
#
# Stress axis : x y z
#
# Youngs Moduli (GPa) = 73.24467 73.24467 125.11950
#
# Poissons Ratio (x) = 0.31294 0.34996
# Poissons Ratio (y) = 0.31294 0.34996
# Poissons Ratio (z) = 0.20486 0.20486
#
# Static dielectric constant tensor:
#      x y z
#    x 3.745920 0.000000 0.000000 
#    y 0.000000 3.745920 0.000000 
#    z 0.000000 0.000000 4.251280 
# 
# 
# High freq. dielectric constant tensor:
#      x y z
#    x 1.822930 0.000000 0.000000 
#    y 0.000000 1.822930 0.000000 
#    z 0.000000 0.000000 1.843820 
# 
# From -- ./inp_files/5380.got.cif
#   From: 2010.03.12/outbox.cif.g09.slc.cpg/sg124_3_cif.got.tgz:5380.got - 2010.04.06 16:38:57.
