data_PCOD8313859
_publ_section_title
;
Structure prediction by ZEFSAII (Michael W. Deem and Ramdas Pophale) SiO2 
 PCOD8313859
Probable space group: P 4/M B M
;
_chemical_formula_sum "Si O2"
_cell_formula_units_Z 88
_cell_length_a 15.460006
_cell_length_b 15.460006
_cell_length_c 21.256680
_cell_angle_alpha 90.000000
_cell_angle_beta 90.000000
_cell_angle_gamma 90.000000
_cell_volume 5080.597041
_symmetry_space_group_name_H-M "P 4/M B M"
_symmetry_group_IT_number 127
_symmetry_cell_setting 'tetragonal'
loop_
_space_group_symop_operation_xyz
x,y,z
-y,x,z
-x,-y,z
y,-x,z
1/2+x,1/2-y,-z
1/2-x,1/2+y,-z
1/2+y,1/2+x,-z
1/2-y,1/2-x,-z
-x,-y,-z
y,-x,-z
x,y,-z
-y,x,-z
1/2-x,1/2+y,z
1/2+x,1/2-y,z
1/2-y,1/2-x,z
1/2+y,1/2+x,z
loop_
_atom_site_type_symbol
_atom_site_label
_atom_site_fract_x
_atom_site_fract_y
_atom_site_fract_z
Si Si1 0.090973 0.266113 0.824115
Si Si2 0.685440 0.672020 0.295527
Si Si3 0.552708 0.804883 0.266688
Si Si4 0.565121 0.205623 0.623133
Si Si5 0.996834 0.356458 0.500000
Si Si6 0.131699 0.951055 0.072943
O O1 0.151264 0.348737 0.836792
O O2 0.130578 0.202501 0.772229
O O3 0.080308 0.214668 0.888691
O O4 0.997363 0.296565 0.799198
O O5 0.752734 0.747267 0.309669
O O6 0.589518 0.712408 0.292719
O O7 0.700586 0.600223 0.351284
O O8 0.629731 0.870270 0.253347
O O9 0.488927 0.839677 0.320762
O O10 0.646430 0.146430 0.607401
O O11 0.506296 0.207573 0.560289
O O12 0.902160 0.402160 0.500000
O O13 0.068604 0.431397 0.500000
O O14 0.050021 0.890798 0.089676
O O15 0.155438 0.942157 0.000000
#
# Coordination Sequence:
#
# PCOD8313859 Si02
#       6
#    16  16  16  16   8  16
#     4  10  19  30  47  71  98 125 153 191 241 294
#     4   8  16  29  43  63  90 119 151 188 231 276
#     4  10  18  29  47  68  92 121 155 195 235 283
#     4   9  17  29  44  63  89 120 153 192 238 286
#     4   9  16  26  42  64  90 119 151 189 236 291
#     4   9  18  33  52  72  94 123 162 204 240 280
#
# _framework density 17.320799000000001
#
# number of rings (size 3 to 8) (size 9 to 14) (size 15 to 20)
#    0.000    2.818    0.000    3.818    0.000    2.545 
#    0.000    0.909    0.000    9.818    0.000    1.273 
#    0.000    5.818    0.000    0.000    0.000    0.000 
#
# Total GULP energy -1090469.971243 kJ/mol
# GULP energy per Si atom -12391.704219 kJ/mol
# Density = 1.728138 g / cm^3
# Si number density = 17.320799 Si / 1000 Ang^3
#
#
#
# Elastic Constant Matrix: (Units=GPa)
#
#
# Indices 1 2 3 4 5 6 
#
# 1 60.2574 24.2863 46.7126 0.0000 0.0000 0.0000
# 2 24.2863 60.2574 46.7126 0.0000 0.0000 0.0000
# 3 46.7126 46.7126 105.8535 0.0000 0.0000 0.0000
# 4 0.0000 0.0000 0.0000 27.0150 0.0000 0.0000
# 5 0.0000 0.0000 0.0000 0.0000 27.0150 0.0000
# 6 0.0000 0.0000 0.0000 0.0000 0.0000 20.3144
#
#
#
# Elastic Compliance Matrix: (Units=1/GPa)
#
#
# Indices 1 2 3 4 5 6 
#
# 1 0.025443 -0.002357 -0.010188 0.000000 0.000000 0.000000
# 2 -0.002357 0.025443 -0.010188 0.000000 0.000000 0.000000
# 3 -0.010188 -0.010188 0.018439 0.000000 0.000000 0.000000
# 4 0.000000 0.000000 0.000000 0.037017 0.000000 0.000000
# 5 0.000000 0.000000 0.000000 0.000000 0.037016 0.000000
# 6 0.000000 0.000000 0.000000 0.000000 0.000000 0.049226
#
#
# Mechanical properties :
#
#
# Convention : Reuss Voigt Hill
#
# Bulk Modulus (GPa) = 41.91130 51.31015 46.61073
# Shear Modulus (GPa) = 20.32495 22.11266 21.21880
#
# Velocity S-wave (km/s) = 3.42927 3.57690 3.50386
# Velocity P-wave (km/s) = 6.31898 6.83716 6.58317
#
# Compressibility (1/GPa) = 0.02385992
#
# Stress axis : x y z
#
# Youngs Moduli (GPa) = 39.30319 39.30314 54.23348
#
# Poissons Ratio (x) = 0.09263 0.55253
# Poissons Ratio (y) = 0.09263 0.55253
# Poissons Ratio (z) = 0.40042 0.40042
#
# Static dielectric constant tensor:
#      x y z
#    x 3.253900 0.000000 0.000000 
#    y 0.000000 3.253900 0.000000 
#    z 0.000000 0.000000 3.216470 
# 
# 
# High freq. dielectric constant tensor:
#      x y z
#    x 1.653370 0.000000 0.000000 
#    y 0.000000 1.653370 0.000000 
#    z 0.000000 0.000000 1.661490 
# 
# From -- ./inp_files/5702.got.cif
#   From: 2010.03.12/outbox.cif.g09.slc.cpg/sg127_3_cif.got.tgz:5702.got - 2010.04.06 17:03:15.
