data_PCOD8313398
_publ_section_title
;
Structure prediction by ZEFSAII (Michael W. Deem and Ramdas Pophale) SiO2 
 PCOD8313398
Probable space group: P 4/M C C
;
_chemical_formula_sum "Si O2"
_cell_formula_units_Z 80
_cell_length_a 21.641105
_cell_length_b 21.641105
_cell_length_c 14.731107
_cell_angle_alpha 90.000000
_cell_angle_beta 90.000000
_cell_angle_gamma 90.000000
_cell_volume 6899.128729
_symmetry_space_group_name_H-M "P 4/M C C"
_symmetry_group_IT_number 124
_symmetry_cell_setting 'tetragonal'
loop_
_space_group_symop_operation_xyz
x,y,z
-y,x,z
-x,-y,z
y,-x,z
x,-y,1/2-z
-x,y,1/2-z
y,x,1/2-z
-y,-x,1/2-z
-x,-y,-z
y,-x,-z
x,y,-z
-y,x,-z
-x,y,1/2+z
x,-y,1/2+z
-y,-x,1/2+z
y,x,1/2+z
loop_
_atom_site_type_symbol
_atom_site_label
_atom_site_fract_x
_atom_site_fract_y
_atom_site_fract_z
Si Si1 0.767124 0.427107 0.750000
Si Si2 0.570787 0.670651 0.104118
Si Si3 0.670651 0.570787 0.104118
Si Si4 1.000000 0.426573 0.397631
Si Si5 0.095659 0.426389 0.750000
O O1 0.775302 0.500000 0.750000
O O2 0.729424 0.405710 0.838807
O O3 0.729424 0.405710 0.661193
O O4 0.835473 0.397116 0.750000
O O5 0.610575 0.610575 0.129439
O O6 0.500000 0.654017 0.127905
O O7 0.578759 0.689616 0.000000
O O8 0.689616 0.578759 0.000000
O O9 0.000000 0.398346 0.500000
O O10 0.060324 0.404041 0.341337
O O11 0.000000 0.500000 0.404042
O O12 0.939676 0.404041 0.341337
O O13 0.097498 0.500000 0.750000
#
# Coordination Sequence:
#
# PCOD8313398 Si02
#       5
#    16  16  16  16  16
#     4   9  16  25  35  46  61  77  93 116 144 176
#     4   9  17  27  37  48  60  75  97 125 158 194
#     4   9  17  27  37  48  60  75  97 125 158 194
#     4   8  13  21  32  45  61  78  93 109 128 153
#     4   8  14  22  31  45  61  76  94 111 130 161
#
# _framework density 11.595668
#
# number of rings (size 3 to 8) (size 9 to 14) (size 15 to 20)
#    0.000    3.400    0.000    1.800    0.000    2.000 
#    0.000   10.000    0.000    3.600    0.000    0.000 
#    0.000    0.000    0.000    0.000    0.000    0.000 
#
# Total GULP energy -991374.601819 kJ/mol
# GULP energy per Si atom -12392.182523 kJ/mol
# Density = 1.156928 g / cm^3
# Si number density = 11.595668 Si / 1000 Ang^3
#
#
#
# Elastic Constant Matrix: (Units=GPa)
#
#
# Indices 1 2 3 4 5 6 
#
# 1 62.3562 27.0771 38.2718 0.0000 0.0000 0.0000
# 2 27.0771 62.3562 38.2718 0.0000 0.0000 0.0000
# 3 38.2718 38.2718 97.1098 0.0000 0.0000 0.0000
# 4 0.0000 0.0000 0.0000 11.5560 0.0000 0.0000
# 5 0.0000 0.0000 0.0000 0.0000 11.5560 0.0000
# 6 0.0000 0.0000 0.0000 0.0000 0.0000 0.5694
#
#
#
# Elastic Compliance Matrix: (Units=1/GPa)
#
#
# Indices 1 2 3 4 5 6 
#
# 1 0.022609 -0.005736 -0.006650 0.000000 0.000000 0.000000
# 2 -0.005736 0.022609 -0.006650 0.000000 0.000000 0.000000
# 3 -0.006650 -0.006650 0.015539 0.000000 0.000000 0.000000
# 4 0.000000 0.000000 0.000000 0.086535 0.000000 0.000000
# 5 0.000000 0.000000 0.000000 0.000000 0.086535 0.000000
# 6 0.000000 0.000000 0.000000 0.000000 0.000000 1.756345
#
#
# Mechanical properties :
#
#
# Convention : Reuss Voigt Hill
#
# Bulk Modulus (GPa) = 44.08041 47.67375 45.87708
# Shear Modulus (GPa) = 2.45603 12.61639 7.53621
#
# Velocity S-wave (km/s) = 1.45693 3.30210 2.55211
# Velocity P-wave (km/s) = 6.39744 7.46600 6.95228
#
# Compressibility (1/GPa) = 0.02268581
#
# Stress axis : x y z
#
# Youngs Moduli (GPa) = 44.22999 44.22999 64.35397
#
# Poissons Ratio (x) = 0.25371 0.42794
# Poissons Ratio (y) = 0.25371 0.42794
# Poissons Ratio (z) = 0.29412 0.29412
#
# Static dielectric constant tensor:
#      x y z
#    x 2.310000 0.000000 0.000000 
#    y 0.000000 2.310000 0.000000 
#    z 0.000000 0.000000 2.665140 
# 
# 
# High freq. dielectric constant tensor:
#      x y z
#    x 1.398900 0.000000 0.000000 
#    y 0.000000 1.398900 0.000000 
#    z 0.000000 0.000000 1.457880 
# 
# From -- ./inp_files/3313.got.cif
#   From: 2010.03.12/outbox.cif.g09.slc.cpg/sg124_2_cif.got.tgz:3313.got - 2010.04.06 16:38:57.
