data_PCOD8313720
_publ_section_title
;
Structure prediction by ZEFSAII (Michael W. Deem and Ramdas Pophale) SiO2 
 PCOD8313720
Probable space group: P 4/N N C
;
_chemical_formula_sum "Si O2"
_cell_formula_units_Z 116
_cell_length_a 17.331029
_cell_length_b 17.331029
_cell_length_c 18.558909
_cell_angle_alpha 90.000000
_cell_angle_beta 90.000000
_cell_angle_gamma 90.000000
_cell_volume 5574.438651
_symmetry_space_group_name_H-M "P 4/N N C"
_symmetry_group_IT_number 126
_space_group.IT_coordinate_system_code '2'
_symmetry_cell_setting 'tetragonal'
loop_
_space_group_symop_operation_xyz
x,y,z
1/2-y,x,z
1/2-x,1/2-y,z
y,1/2-x,z
x,1/2-y,1/2-z
1/2-x,y,1/2-z
y,x,1/2-z
1/2-y,1/2-x,1/2-z
-x,-y,-z
1/2+y,-x,-z
1/2+x,1/2+y,-z
-y,1/2+x,-z
-x,1/2+y,1/2+z
1/2+x,-y,1/2+z
-y,-x,1/2+z
1/2+y,1/2+x,1/2+z
loop_
_atom_site_type_symbol
_atom_site_label
_atom_site_fract_x
_atom_site_fract_y
_atom_site_fract_z
Si Si1 0.164042 0.518178 0.110374
Si Si2 0.093774 0.525713 0.673066
Si Si3 0.250000 0.750000 0.000000
Si Si4 0.096125 0.814580 0.575292
Si Si5 0.533973 0.671054 0.462275
Si Si6 0.452239 0.341565 0.966687
Si Si7 0.531476 0.403083 0.835237
Si Si8 0.817001 0.850509 0.666182
O O1 0.113733 0.580934 0.151510
O O2 0.250320 0.549349 0.120061
O O3 0.147782 0.431787 0.140820
O O4 0.143171 0.520506 0.024804
O O5 0.156302 0.485023 0.621788
O O6 0.128140 0.525896 0.753660
O O7 0.008965 0.486979 0.663941
O O8 0.181372 0.713795 0.950429
O O9 0.099158 0.882642 0.633775
O O10 0.045352 0.840161 0.506395
O O11 0.574114 0.753438 0.474282
O O12 0.599596 0.613772 0.489575
O O13 0.480820 0.348042 0.885371
O O14 0.728419 0.855010 0.636455
O O15 0.834913 0.834913 0.750000
#
# Coordination Sequence:
#
# PCOD8313720 Si02
#       8
#    16  16   4  16  16  16  16  16
#     4  11  23  35  61  93 121 169 208 260 305 388
#     4  10  22  38  61  86 122 157 209 260 323 379
#     4  12  24  44  68  90 132 172 212 278 336 380
#     4  11  23  39  64  92 126 165 215 262 327 386
#     4  10  21  41  61  90 123 161 204 262 316 391
#     4  10  22  38  61  89 123 159 205 255 324 372
#     4  10  22  39  60  88 117 162 205 266 316 383
#     4   9  21  37  54  84 133 178 206 248 316 385
#
# _framework density 20.809270999999999
#
# number of rings (size 3 to 8) (size 9 to 14) (size 15 to 20)
#    0.000    1.793    0.000    4.552    7.724    4.690 
#    0.000    0.000    0.000    3.310    0.000    3.862 
#    0.000    0.000    0.000    0.000    0.000    0.000 
#
# Total GULP energy -1437080.573246 kJ/mol
# GULP energy per Si atom -12388.625631 kJ/mol
# Density = 2.076191 g / cm^3
# Si number density = 20.809271 Si / 1000 Ang^3
#
#
#
# Elastic Constant Matrix: (Units=GPa)
#
#
# Indices 1 2 3 4 5 6 
#
# 1 86.8453 27.7584 20.4143 0.0000 0.0000 0.0000
# 2 27.7584 86.8453 20.4143 0.0000 0.0000 0.0000
# 3 20.4143 20.4143 78.1411 0.0000 0.0000 0.0000
# 4 0.0000 0.0000 0.0000 29.0414 0.0000 0.0000
# 5 0.0000 0.0000 0.0000 0.0000 29.0414 0.0000
# 6 0.0000 0.0000 0.0000 0.0000 0.0000 26.7775
#
#
#
# Elastic Compliance Matrix: (Units=1/GPa)
#
#
# Indices 1 2 3 4 5 6 
#
# 1 0.013273 -0.003652 -0.002514 0.000000 0.000000 0.000000
# 2 -0.003652 0.013273 -0.002514 0.000000 0.000000 0.000000
# 3 -0.002514 -0.002514 0.014111 0.000000 0.000000 0.000000
# 4 0.000000 0.000000 0.000000 0.034434 0.000000 0.000000
# 5 0.000000 0.000000 0.000000 0.000000 0.034434 0.000000
# 6 0.000000 0.000000 0.000000 0.000000 0.000000 0.037345
#
#
# Mechanical properties :
#
#
# Convention : Reuss Voigt Hill
#
# Bulk Modulus (GPa) = 42.92039 43.22284 43.07162
# Shear Modulus (GPa) = 29.07119 29.18836 29.12977
#
# Velocity S-wave (km/s) = 3.74174 3.74928 3.74551
# Velocity P-wave (km/s) = 6.27199 6.28958 6.28079
#
# Compressibility (1/GPa) = 0.02329895
#
# Stress axis : x y z
#
# Youngs Moduli (GPa) = 75.34255 75.34255 70.86829
#
# Poissons Ratio (x) = 0.27511 0.17813
# Poissons Ratio (y) = 0.27511 0.17813
# Poissons Ratio (z) = 0.18938 0.18938
#
# Static dielectric constant tensor:
#      x y z
#    x 3.707750 0.000000 0.000000 
#    y 0.000000 3.707750 0.000000 
#    z 0.000000 0.000000 3.872760 
# 
# 
# High freq. dielectric constant tensor:
#      x y z
#    x 1.809850 0.000000 0.000000 
#    y 0.000000 1.809850 0.000000 
#    z 0.000000 0.000000 1.815670 
# 
# From -- ./inp_files/4635.got.cif
#   From: 2010.03.12/outbox.cif.g09.slc.cpg/sg126_3_cif.got.tgz:4635.got - 2010.04.06 16:55:23.
