data_PCOD8313703
_publ_section_title
;
Structure prediction by ZEFSAII (Michael W. Deem and Ramdas Pophale) SiO2 
 PCOD8313703
Probable space group: P 4/N N C
;
_chemical_formula_sum "Si O2"
_cell_formula_units_Z 112
_cell_length_a 14.949734
_cell_length_b 14.949734
_cell_length_c 23.873736
_cell_angle_alpha 90.000000
_cell_angle_beta 90.000000
_cell_angle_gamma 90.000000
_cell_volume 5335.649805
_symmetry_space_group_name_H-M "P 4/N N C"
_symmetry_group_IT_number 126
_space_group.IT_coordinate_system_code '2'
_symmetry_cell_setting 'tetragonal'
loop_
_space_group_symop_operation_xyz
x,y,z
1/2-y,x,z
1/2-x,1/2-y,z
y,1/2-x,z
x,1/2-y,1/2-z
1/2-x,y,1/2-z
y,x,1/2-z
1/2-y,1/2-x,1/2-z
-x,-y,-z
1/2+y,-x,-z
1/2+x,1/2+y,-z
-y,1/2+x,-z
-x,1/2+y,1/2+z
1/2+x,-y,1/2+z
-y,-x,1/2+z
1/2+y,1/2+x,1/2+z
loop_
_atom_site_type_symbol
_atom_site_label
_atom_site_fract_x
_atom_site_fract_y
_atom_site_fract_z
Si Si1 0.366642 0.338492 0.459739
Si Si2 0.236780 0.585417 0.876313
Si Si3 0.535823 0.954787 0.625582
Si Si4 0.118571 0.591704 0.296424
Si Si5 0.155323 0.849762 0.016798
Si Si6 0.598227 0.175590 0.327092
Si Si7 0.486118 0.376804 0.557901
O O1 0.267197 0.374086 0.450843
O O2 0.433913 0.381403 0.414952
O O3 0.395588 0.363842 0.522961
O O4 0.178256 0.565514 0.821074
O O5 0.162748 0.621938 0.920047
O O6 0.311368 0.659958 0.862224
O O7 0.289532 0.500529 0.902221
O O8 0.487344 0.861240 0.639487
O O9 0.465778 0.022036 0.595346
O O10 0.570938 0.001297 0.682405
O O11 0.220307 0.589206 0.317304
O O12 0.117124 0.601195 0.229911
O O13 0.261500 0.867427 0.019258
O O14 0.107934 0.931879 0.985606
#
# Coordination Sequence:
#
# PCOD8313703 Si02
#       7
#    16  16  16  16  16  16  16
#     4  11  25  41  58  81 118 160 203 245 294 355
#     4  10  21  34  59  87 122 158 186 234 304 365
#     4  11  23  39  62  83 115 156 204 248 300 347
#     4  11  22  37  61  87 118 160 196 248 304 353
#     4   9  19  30  51  87 121 156 183 224 287 360
#     4  10  23  39  58  88 121 150 203 252 297 357
#     4  10  23  36  58  87 121 155 195 248 287 366
#
# _framework density 20.990881999999999
#
# number of rings (size 3 to 8) (size 9 to 14) (size 15 to 20)
#    0.000    1.714    0.000    3.429   16.000    1.143 
#    0.000    0.000    0.000    0.000    0.000    6.000 
#    0.000    0.000    0.000    0.000    0.000    0.000 
#
# Total GULP energy -1388844.007790 kJ/mol
# GULP energy per Si atom -12400.392927 kJ/mol
# Density = 2.094311 g / cm^3
# Si number density = 20.990882 Si / 1000 Ang^3
#
#
#
# Elastic Constant Matrix: (Units=GPa)
#
#
# Indices 1 2 3 4 5 6 
#
# 1 58.7092 17.8874 20.7438 0.0000 0.0000 0.0000
# 2 17.8874 58.7092 20.7438 0.0000 0.0000 0.0000
# 3 20.7438 20.7438 83.2314 0.0000 0.0000 0.0000
# 4 0.0000 0.0000 0.0000 29.5632 0.0000 0.0000
# 5 0.0000 0.0000 0.0000 0.0000 29.5632 0.0000
# 6 0.0000 0.0000 0.0000 0.0000 0.0000 11.8689
#
#
#
# Elastic Compliance Matrix: (Units=1/GPa)
#
#
# Indices 1 2 3 4 5 6 
#
# 1 0.019795 -0.004702 -0.003762 0.000000 0.000000 0.000000
# 2 -0.004702 0.019795 -0.003762 0.000000 0.000000 0.000000
# 3 -0.003762 -0.003762 0.013890 0.000000 0.000000 0.000000
# 4 0.000000 0.000000 0.000000 0.033826 0.000000 0.000000
# 5 0.000000 0.000000 0.000000 0.000000 0.033826 0.000000
# 6 0.000000 0.000000 0.000000 0.000000 0.000000 0.084254
#
#
# Mechanical properties :
#
#
# Convention : Reuss Voigt Hill
#
# Bulk Modulus (GPa) = 34.44829 35.48884 34.96857
# Shear Modulus (GPa) = 20.87583 23.61737 22.24660
#
# Velocity S-wave (km/s) = 3.15702 3.35793 3.25902
# Velocity P-wave (km/s) = 5.45305 5.65489 5.55488
#
# Compressibility (1/GPa) = 0.02902901
#
# Stress axis : x y z
#
# Youngs Moduli (GPa) = 50.51837 50.51837 71.99582
#
# Poissons Ratio (x) = 0.23753 0.27082
# Poissons Ratio (y) = 0.23753 0.27082
# Poissons Ratio (z) = 0.19003 0.19003
#
# Static dielectric constant tensor:
#      x y z
#    x 3.652070 0.000000 0.000000 
#    y 0.000000 3.652070 0.000000 
#    z 0.000000 0.000000 4.014800 
# 
# 
# High freq. dielectric constant tensor:
#      x y z
#    x 1.811210 0.000000 0.000000 
#    y 0.000000 1.811210 0.000000 
#    z 0.000000 0.000000 1.827960 
# 
# From -- ./inp_files/5858.got.cif
#   From: 2010.03.12/outbox.cif.g09.slc.cpg/sg126_3_cif.got.tgz:5858.got - 2010.04.06 16:55:23.
