data_PCOD8313115
_publ_section_title
;
Structure prediction by ZEFSAII (Michael W. Deem and Ramdas Pophale) SiO2 
 PCOD8313115
Probable space group: P 4/M C C
;
_chemical_formula_sum "Si O2"
_cell_formula_units_Z 96
_cell_length_a 23.748705
_cell_length_b 23.748705
_cell_length_c 9.490955
_cell_angle_alpha 90.000000
_cell_angle_beta 90.000000
_cell_angle_gamma 90.000000
_cell_volume 5352.908008
_symmetry_space_group_name_H-M "P 4/M C C"
_symmetry_group_IT_number 124
_symmetry_cell_setting 'tetragonal'
loop_
_space_group_symop_operation_xyz
x,y,z
-y,x,z
-x,-y,z
y,-x,z
x,-y,1/2-z
-x,y,1/2-z
y,x,1/2-z
-y,-x,1/2-z
-x,-y,-z
y,-x,-z
x,y,-z
-y,x,-z
-x,y,1/2+z
x,-y,1/2+z
-y,-x,1/2+z
y,x,1/2+z
loop_
_atom_site_type_symbol
_atom_site_label
_atom_site_fract_x
_atom_site_fract_y
_atom_site_fract_z
Si Si1 0.659892 0.140171 0.840841
Si Si2 0.657186 0.727865 0.658978
Si Si3 0.877238 0.785536 0.752611
Si Si4 0.446882 0.727841 0.661056
Si Si5 0.154395 0.934583 0.000000
Si Si6 0.065723 0.841589 0.000000
Si Si7 0.138001 0.445822 0.338429
O O1 0.651173 0.206109 0.855492
O O2 0.718789 0.129271 0.763478
O O3 0.609856 0.115142 0.743361
O O4 0.658362 0.114219 0.000000
O O5 0.712767 0.712767 0.750000
O O6 0.658719 0.702009 0.500000
O O7 0.606024 0.703268 0.752504
O O8 0.815781 0.815781 0.750000
O O9 0.915240 0.801256 0.622921
O O10 0.916586 0.807698 0.872935
O O11 0.500000 0.706294 0.750000
O O12 0.448169 0.704658 0.500000
O O13 0.445202 0.795006 0.656303
O O14 0.094674 0.902804 0.000000
O O15 0.143167 0.000546 0.000000
O O16 0.116520 0.500000 0.250000
O O17 0.114694 0.447359 0.500000
#
# Coordination Sequence:
#
# PCOD8313115 Si02
#       7
#    16  16  16  16   8   8  16
#     4  10  19  31  47  68 100 138 174 211 256 308
#     4  10  19  29  41  61  89 123 160 199 240 291
#     4  10  20  35  52  77 108 142 176 218 269 324
#     4   9  16  27  41  58  81 116 156 197 242 289
#     4  10  20  39  56  82 109 141 177 219 269 315
#     4  10  22  35  60  80 109 141 177 221 265 321
#     4   9  17  28  44  67  97 132 172 213 252 297
#
# _framework density 17.934176999999998
#
# number of rings (size 3 to 8) (size 9 to 14) (size 15 to 20)
#    0.000    2.333    0.833    2.500    1.167    4.833 
#    0.000    0.000    0.000    3.000    0.000    0.000 
#    0.000    4.333    0.000    3.333    0.000    2.333 
#
# Total GULP energy -1189515.905748 kJ/mol
# GULP energy per Si atom -12390.790685 kJ/mol
# Density = 1.789336 g / cm^3
# Si number density = 17.934177 Si / 1000 Ang^3
#
#
#
# Elastic Constant Matrix: (Units=GPa)
#
#
# Indices 1 2 3 4 5 6 
#
# 1 97.2239 21.8800 49.4847 0.0000 0.0000 0.0000
# 2 21.8800 97.2239 49.4847 0.0000 0.0000 0.0000
# 3 49.4847 49.4847 178.0996 0.0000 0.0000 0.0000
# 4 0.0000 0.0000 0.0000 29.9166 0.0000 0.0000
# 5 0.0000 0.0000 0.0000 0.0000 29.9166 0.0000
# 6 0.0000 0.0000 0.0000 0.0000 0.0000 8.5195
#
#
#
# Elastic Compliance Matrix: (Units=1/GPa)
#
#
# Indices 1 2 3 4 5 6 
#
# 1 0.012094 -0.001178 -0.003033 0.000000 0.000000 0.000000
# 2 -0.001178 0.012094 -0.003033 0.000000 0.000000 0.000000
# 3 -0.003033 -0.003033 0.007300 0.000000 0.000000 0.000000
# 4 0.000000 0.000000 0.000000 0.033426 0.000000 0.000000
# 5 0.000000 0.000000 0.000000 0.000000 0.033426 0.000000
# 6 0.000000 0.000000 0.000000 0.000000 0.000000 0.117378
#
#
# Mechanical properties :
#
#
# Convention : Reuss Voigt Hill
#
# Bulk Modulus (GPa) = 58.82118 68.24961 63.53539
# Shear Modulus (GPa) = 21.19767 30.45039 25.82403
#
# Velocity S-wave (km/s) = 3.44171 4.12503 3.79876
# Velocity P-wave (km/s) = 6.97592 7.79910 7.39897
#
# Compressibility (1/GPa) = 0.01700068
#
# Stress axis : x y z
#
# Youngs Moduli (GPa) = 82.68268 82.68268 136.98018
#
# Poissons Ratio (x) = 0.09740 0.41548
# Poissons Ratio (y) = 0.09740 0.41548
# Poissons Ratio (z) = 0.25079 0.25079
#
# Static dielectric constant tensor:
#      x y z
#    x 2.992780 0.000000 0.000000 
#    y 0.000000 2.992780 0.000000 
#    z 0.000000 0.000000 3.744090 
# 
# 
# High freq. dielectric constant tensor:
#      x y z
#    x 1.662010 0.000000 0.000000 
#    y 0.000000 1.662010 0.000000 
#    z 0.000000 0.000000 1.723920 
# 
# From -- ./inp_files/1409.got.cif
#   From: 2010.03.12/outbox.cif.g09.slc.cpg/sg124_1_cif.got.tgz:1409.got - 2010.04.06 16:38:57.
