data_PCOD8313592
_publ_section_title
;
Structure prediction by ZEFSAII (Michael W. Deem and Ramdas Pophale) SiO2 
 PCOD8313592
Probable space group: P 4/N B M
;
_chemical_formula_sum "Si O2"
_cell_formula_units_Z 112
_cell_length_a 13.667692
_cell_length_b 13.667692
_cell_length_c 33.001524
_cell_angle_alpha 90.000000
_cell_angle_beta 90.000000
_cell_angle_gamma 90.000000
_cell_volume 6164.876244
_symmetry_space_group_name_H-M "P 4/N B M"
_symmetry_group_IT_number 125
_space_group.IT_coordinate_system_code '2'
_symmetry_cell_setting 'tetragonal'
loop_
_space_group_symop_operation_xyz
x,y,z
1/2-y,x,z
1/2-x,1/2-y,z
y,1/2-x,z
x,1/2-y,-z
1/2-x,y,-z
y,x,-z
1/2-y,1/2-x,-z
-x,-y,-z
1/2+y,-x,-z
1/2+x,1/2+y,-z
-y,1/2+x,-z
-x,1/2+y,z
1/2+x,-y,z
-y,-x,z
1/2+y,1/2+x,z
loop_
_atom_site_type_symbol
_atom_site_label
_atom_site_fract_x
_atom_site_fract_y
_atom_site_fract_z
Si Si1 0.489570 0.347794 0.978354
Si Si2 0.752671 0.911388 0.190827
Si Si3 0.337669 0.498606 0.733362
Si Si4 0.408243 0.279815 0.897523
Si Si5 0.857775 0.982196 0.690737
Si Si6 0.395310 0.321068 0.604509
Si Si7 0.648948 0.988604 0.479140
O O1 0.573515 0.426486 0.982647
O O2 0.483306 0.313579 0.931654
O O3 0.523238 0.250000 0.000000
O O4 0.390654 0.390654 0.000000
O O5 0.656295 0.847413 0.196185
O O6 0.731893 0.959952 0.146620
O O7 0.775488 0.992788 0.224545
O O8 0.405716 0.594285 0.734279
O O9 0.254222 0.509299 0.699771
O O10 0.401250 0.402055 0.722049
O O11 0.325952 0.361669 0.902817
O O12 0.859806 0.942603 0.645537
O O13 0.919634 0.080367 0.693969
O O14 0.294198 0.378885 0.601693
O O15 0.469937 0.346364 0.568722
O O16 0.750000 0.017260 0.500000
O O17 0.610386 0.889615 0.500000
O O18 0.578387 0.078387 0.488264
#
# Coordination Sequence:
#
# PCOD8313592 Si02
#       7
#    16  16  16  16  16  16  16
#     4  11  22  36  57  85 116 155 197 242 295 353
#     4   9  17  32  57  85 114 143 188 244 294 339
#     4  11  22  37  60  87 117 158 200 240 295 357
#     4   9  17  32  56  85 113 141 188 247 297 336
#     4  11  23  39  59  86 121 157 195 245 298 351
#     4  11  21  36  63  92 118 151 195 252 307 348
#     4  11  23  40  62  87 121 160 199 244 295 358
#
# _framework density 18.167435999999999
#
# number of rings (size 3 to 8) (size 9 to 14) (size 15 to 20)
#    0.000    1.571    5.714    1.286    0.000    1.143 
#    0.000    5.000    0.000    1.714    0.000    0.000 
#    0.000    0.000    0.000    0.000    0.000    0.000 
#
# Total GULP energy -1387698.343343 kJ/mol
# GULP energy per Si atom -12390.163780 kJ/mol
# Density = 1.812609 g / cm^3
# Si number density = 18.167436 Si / 1000 Ang^3
#
#
#
# Elastic Constant Matrix: (Units=GPa)
#
#
# Indices 1 2 3 4 5 6 
#
# 1 76.9079 31.7016 31.4467 0.0000 0.0000 0.0000
# 2 31.7016 76.9084 31.4468 0.0000 0.0000 0.0000
# 3 31.4467 31.4468 123.8738 0.0000 0.0000 0.0000
# 4 0.0000 0.0000 0.0000 24.7009 0.0000 0.0000
# 5 0.0000 0.0000 0.0000 0.0000 24.7013 0.0000
# 6 0.0000 0.0000 0.0000 0.0000 0.0000 14.7215
#
#
#
# Elastic Compliance Matrix: (Units=1/GPa)
#
#
# Indices 1 2 3 4 5 6 
#
# 1 0.016457 -0.005663 -0.002740 0.000000 0.000000 0.000000
# 2 -0.005663 0.016457 -0.002740 0.000000 0.000000 0.000000
# 3 -0.002740 -0.002740 0.009464 0.000000 0.000000 0.000000
# 4 0.000000 0.000000 0.000000 0.040484 0.000000 0.000000
# 5 0.000000 0.000000 0.000000 0.000000 0.040484 0.000000
# 6 0.000000 0.000000 0.000000 0.000000 0.000000 0.067928
#
#
# Mechanical properties :
#
#
# Convention : Reuss Voigt Hill
#
# Bulk Modulus (GPa) = 49.77267 51.87558 50.82412
# Shear Modulus (GPa) = 22.70053 25.03108 23.86580
#
# Velocity S-wave (km/s) = 3.53869 3.71590 3.62837
# Velocity P-wave (km/s) = 6.64474 6.85760 6.75201
#
# Compressibility (1/GPa) = 0.02009135
#
# Stress axis : x y z
#
# Youngs Moduli (GPa) = 60.76280 60.76321 105.66365
#
# Poissons Ratio (x) = 0.34412 0.28954
# Poissons Ratio (y) = 0.34412 0.28954
# Poissons Ratio (z) = 0.16650 0.16650
#
# Static dielectric constant tensor:
#      x y z
#    x 3.151440 0.000000 0.000000 
#    y 0.000000 3.151440 0.000000 
#    z 0.000000 0.000000 3.324990 
# 
# 
# High freq. dielectric constant tensor:
#      x y z
#    x 1.686220 0.000000 0.000000 
#    y 0.000000 1.686220 0.000000 
#    z 0.000000 0.000000 1.722930 
# 
# From -- ./inp_files/6659.got.cif
#   From: 2010.03.12/outbox.cif.g09.slc.cpg/sg125_4_cif.got.tgz:6659.got - 2010.04.06 16:47:52.
