data_PCOD8313333
_publ_section_title
;
Structure prediction by ZEFSAII (Michael W. Deem and Ramdas Pophale) SiO2 
 PCOD8313333
Probable space group: P 4/M C C
;
_chemical_formula_sum "Si O2"
_cell_formula_units_Z 112
_cell_length_a 14.821945
_cell_length_b 14.821945
_cell_length_c 25.885822
_cell_angle_alpha 90.000000
_cell_angle_beta 90.000000
_cell_angle_gamma 90.000000
_cell_volume 5686.857622
_symmetry_space_group_name_H-M "P 4/M C C"
_symmetry_group_IT_number 124
_symmetry_cell_setting 'tetragonal'
loop_
_space_group_symop_operation_xyz
x,y,z
-y,x,z
-x,-y,z
y,-x,z
x,-y,1/2-z
-x,y,1/2-z
y,x,1/2-z
-y,-x,1/2-z
-x,-y,-z
y,-x,-z
x,y,-z
-y,x,-z
-x,y,1/2+z
x,-y,1/2+z
-y,-x,1/2+z
y,x,1/2+z
loop_
_atom_site_type_symbol
_atom_site_label
_atom_site_fract_x
_atom_site_fract_y
_atom_site_fract_z
Si Si1 0.604260 0.096906 0.257793
Si Si2 0.728527 0.501670 0.557869
Si Si3 0.115621 0.089675 0.190579
Si Si4 0.344890 0.661635 0.886629
Si Si5 0.701026 0.144985 0.639641
Si Si6 0.572931 0.073734 0.440421
Si Si7 0.405592 0.720128 0.219371
O O1 0.500000 0.077029 0.250000
O O2 0.629710 0.135854 0.313691
O O3 0.626958 0.174825 0.215817
O O4 0.655766 0.000000 0.250000
O O5 0.700232 0.527447 0.500000
O O6 0.665016 0.557088 0.597528
O O7 0.714107 0.395488 0.567301
O O8 0.832293 0.522910 0.567523
O O9 0.122684 0.122684 0.250000
O O10 0.196079 0.129928 0.156607
O O11 0.016005 0.123712 0.176902
O O12 0.246747 0.704102 0.880470
O O13 0.409277 0.674931 0.836704
O O14 0.664269 0.076746 0.594742
O O15 0.601015 0.055790 0.500000
O O16 0.500000 0.000000 0.421209
O O17 0.500000 0.711652 0.250000
O O18 0.327972 0.672029 0.250000
#
# Coordination Sequence:
#
# PCOD8313333 Si02
#       7
#    16  16  16  16  16  16  16
#     4  10  24  38  55  85 123 161 197 251 304 364
#     4  10  22  41  63  87 116 155 202 255 307 360
#     4   9  21  40  58  84 125 166 205 249 300 364
#     4  11  23  38  60  86 117 156 202 254 301 357
#     4  11  23  37  62  91 117 161 211 251 305 374
#     4   9  21  40  62  90 126 158 197 256 323 377
#     4  11  22  38  56  80 124 159 202 247 300 367
#
# _framework density 19.694531999999999
#
# number of rings (size 3 to 8) (size 9 to 14) (size 15 to 20)
#    0.000    1.857    1.429    1.714   12.000    2.143 
#    0.000    2.143    0.000    0.857    0.000    1.000 
#    0.000    0.000    0.000    0.000    0.000    0.000 
#
# Total GULP energy -1387482.627175 kJ/mol
# GULP energy per Si atom -12388.237743 kJ/mol
# Density = 1.964971 g / cm^3
# Si number density = 19.694532 Si / 1000 Ang^3
#
#
#
# Elastic Constant Matrix: (Units=GPa)
#
#
# Indices 1 2 3 4 5 6 
#
# 1 112.7101 58.9102 56.1072 0.0000 0.0000 0.0000
# 2 58.9102 112.7082 56.1076 0.0000 0.0000 0.0000
# 3 56.1072 56.1076 98.2260 0.0000 0.0000 0.0000
# 4 0.0000 0.0000 0.0000 130.5233 0.0000 0.0000
# 5 0.0000 0.0000 0.0000 0.0000 130.8747 0.0000
# 6 0.0000 0.0000 0.0000 0.0000 0.0000 20.5151
#
#
#
# Elastic Compliance Matrix: (Units=1/GPa)
#
#
# Indices 1 2 3 4 5 6 
#
# 1 0.013944 -0.004644 -0.005312 0.000000 0.000000 0.000000
# 2 -0.004644 0.013944 -0.005313 0.000000 0.000000 0.000000
# 3 -0.005312 -0.005313 0.016250 0.000000 0.000000 0.000000
# 4 0.000000 0.000000 0.000000 0.007661 0.000000 0.000000
# 5 0.000000 0.000000 0.000000 0.000000 0.007641 0.000000
# 6 0.000000 0.000000 0.000000 0.000000 0.000000 0.048745
#
#
# Mechanical properties :
#
#
# Convention : Reuss Voigt Hill
#
# Bulk Modulus (GPa) = 73.52598 73.98825 73.75712
# Shear Modulus (GPa) = 34.90266 66.55057 50.72661
#
# Velocity S-wave (km/s) = 4.21432 5.81934 5.08061
# Velocity P-wave (km/s) = 7.81632 9.09959 8.48226
#
# Compressibility (1/GPa) = 0.01360063
#
# Stress axis : x y z
#
# Youngs Moduli (GPa) = 71.71595 71.71387 61.53966
#
# Poissons Ratio (x) = 0.33301 0.32692
# Poissons Ratio (y) = 0.33302 0.32694
# Poissons Ratio (z) = 0.38098 0.38099
#
# Static dielectric constant tensor:
#      x y z
#    x 3.146470 0.000000 0.000000 
#    y 0.000000 3.146150 0.000000 
#    z 0.000000 0.000000 5.139490 
# 
# 
# High freq. dielectric constant tensor:
#      x y z
#    x 1.769990 0.000000 0.000000 
#    y 0.000000 1.769990 0.000000 
#    z 0.000000 0.000000 1.755920 
# 
# From -- ./inp_files/6104.got.cif
#   From: 2010.03.12/outbox.cif.g09.slc.cpg/sg124_4_cif.got.tgz:6104.got - 2010.04.06 16:38:57.
