data_PCOD8313145
_publ_section_title
;
Structure prediction by ZEFSAII (Michael W. Deem and Ramdas Pophale) SiO2 
 PCOD8313145
Probable space group: P 4/M C C
;
_chemical_formula_sum "Si O2"
_cell_formula_units_Z 48
_cell_length_a 15.297516
_cell_length_b 15.297516
_cell_length_c 9.186055
_cell_angle_alpha 90.000000
_cell_angle_beta 90.000000
_cell_angle_gamma 90.000000
_cell_volume 2149.665436
_symmetry_space_group_name_H-M "P 4/M C C"
_symmetry_group_IT_number 124
_symmetry_cell_setting 'tetragonal'
loop_
_space_group_symop_operation_xyz
x,y,z
-y,x,z
-x,-y,z
y,-x,z
x,-y,1/2-z
-x,y,1/2-z
y,x,1/2-z
-y,-x,1/2-z
-x,-y,-z
y,-x,-z
x,y,-z
-y,x,-z
-x,y,1/2+z
x,-y,1/2+z
-y,-x,1/2+z
y,x,1/2+z
loop_
_atom_site_type_symbol
_atom_site_label
_atom_site_fract_x
_atom_site_fract_y
_atom_site_fract_z
Si Si1 0.911414 0.779093 0.176861
Si Si2 0.580774 0.109711 0.841614
Si Si3 0.420723 0.686746 0.159219
O O1 0.830663 0.830663 0.250000
O O2 0.906296 0.676997 0.226024
O O3 0.000000 0.817225 0.250000
O O4 0.909920 0.789512 0.000000
O O5 0.500000 0.069107 0.750000
O O6 0.565198 0.211592 0.857660
O O7 0.577349 0.065002 0.000000
O O8 0.500000 0.643903 0.250000
O O9 0.332452 0.667549 0.250000
O O10 0.414475 0.643234 0.000000
#
# Coordination Sequence:
#
# PCOD8313145 Si02
#       3
#    16  16  16
#     4  11  24  43  66  95 128 167 212 262 316 375
#     4   9  20  37  60  89 122 158 199 246 303 365
#     4  10  19  32  49  72 102 141 187 238 293 353
#
# _framework density 22.329056999999999
#
# number of rings (size 3 to 8) (size 9 to 14) (size 15 to 20)
#    0.000    2.000    0.000    3.000    0.000    5.333 
#    0.000    6.667    0.000    0.000    0.000    0.000 
#    0.000    0.000    0.000    0.000    0.000    0.000 
#
# Total GULP energy -594728.601084 kJ/mol
# GULP energy per Si atom -12390.179189 kJ/mol
# Density = 2.227823 g / cm^3
# Si number density = 22.329057 Si / 1000 Ang^3
#
#
#
# Elastic Constant Matrix: (Units=GPa)
#
#
# Indices 1 2 3 4 5 6 
#
# 1 95.9070 44.5811 57.4653 0.0000 0.0000 0.0000
# 2 44.5811 95.9041 57.4654 0.0000 0.0000 0.0000
# 3 57.4653 57.4654 167.1823 0.0000 0.0000 0.0000
# 4 0.0000 0.0000 0.0000 28.6569 0.0000 0.0000
# 5 0.0000 0.0000 0.0000 0.0000 28.6570 0.0000
# 6 0.0000 0.0000 0.0000 0.0000 0.0000 -40.3881
#
#
#
# Elastic Compliance Matrix: (Units=1/GPa)
#
#
# Indices 1 2 3 4 5 6 
#
# 1 0.014693 -0.004791 -0.003404 0.000000 0.000000 0.000000
# 2 -0.004791 0.014694 -0.003404 0.000000 0.000000 0.000000
# 3 -0.003404 -0.003404 0.008322 0.000000 0.000000 0.000000
# 4 0.000000 0.000000 0.000000 0.034896 0.000000 0.000000
# 5 0.000000 0.000000 0.000000 0.000000 0.034895 0.000000
# 6 0.000000 0.000000 0.000000 0.000000 0.000000 -0.024760
#
#
# Mechanical properties :
#
#
# Convention : Reuss Voigt Hill
#
# Bulk Modulus (GPa) = 68.91040 75.33522 72.12281
# Shear Modulus (GPa) = 45.13725 16.68394 30.91059
#
# Velocity S-wave (km/s) = 4.50094 2.73643 3.72468
# Velocity P-wave (km/s) = 7.61181 6.61785 7.13217
#
# Compressibility (1/GPa) = 0.01451160
#
# Stress axis : x y z
#
# Youngs Moduli (GPa) = 68.05941 68.05677 120.17045
#
# Poissons Ratio (x) = 0.32603 0.40903
# Poissons Ratio (y) = 0.32604 0.40906
# Poissons Ratio (z) = 0.23166 0.23166
#
# Static dielectric constant tensor:
#      x y z
#    x 3.890440 0.000000 0.000000 
#    y 0.000000 3.890450 0.000000 
#    z 0.000000 0.000000 4.576160 
# 
# 
# High freq. dielectric constant tensor:
#      x y z
#    x 1.876460 0.000000 0.000000 
#    y 0.000000 1.876460 0.000000 
#    z 0.000000 0.000000 1.890160 
# 
# From -- ./inp_files/478.got.cif
#   From: 2010.03.12/outbox.cif.g09.slc.cpg/sg124_1_cif.got.tgz:478.got - 2010.04.06 16:38:57.
