data_PCOD8313329
_publ_section_title
;
Structure prediction by ZEFSAII (Michael W. Deem and Ramdas Pophale) SiO2 
 PCOD8313329
Probable space group: P 4/M C C
;
_chemical_formula_sum "Si O2"
_cell_formula_units_Z 120
_cell_length_a 19.588437
_cell_length_b 19.588437
_cell_length_c 15.154564
_cell_angle_alpha 90.000000
_cell_angle_beta 90.000000
_cell_angle_gamma 90.000000
_cell_volume 5814.910229
_symmetry_space_group_name_H-M "P 4/M C C"
_symmetry_group_IT_number 124
_symmetry_cell_setting 'tetragonal'
loop_
_space_group_symop_operation_xyz
x,y,z
-y,x,z
-x,-y,z
y,-x,z
x,-y,1/2-z
-x,y,1/2-z
y,x,1/2-z
-y,-x,1/2-z
-x,-y,-z
y,-x,-z
x,y,-z
-y,x,-z
-x,y,1/2+z
x,-y,1/2+z
-y,-x,1/2+z
y,x,1/2+z
loop_
_atom_site_type_symbol
_atom_site_label
_atom_site_fract_x
_atom_site_fract_y
_atom_site_fract_z
Si Si1 0.772491 0.668794 0.265336
Si Si2 0.006144 0.108392 0.145994
Si Si3 0.652051 0.108288 0.396323
Si Si4 0.858736 0.357522 0.398064
Si Si5 0.848645 0.507458 0.400824
Si Si6 0.458660 0.704550 0.669587
Si Si7 0.266261 0.980551 0.101219
Si Si8 0.474989 0.389341 0.000000
O O1 0.743762 0.743762 0.250000
O O2 0.828725 0.678730 0.340321
O O3 0.795993 0.643249 0.168956
O O4 0.712993 0.620060 0.302752
O O5 0.936396 0.071240 0.112745
O O6 0.000000 0.110802 0.250000
O O7 0.014660 0.184896 0.111227
O O8 0.667860 0.120277 0.500000
O O9 0.570389 0.100067 0.378298
O O10 0.694283 0.044535 0.356403
O O11 0.836179 0.342997 0.500000
O O12 0.888379 0.435199 0.390211
O O13 0.911640 0.300497 0.361245
O O14 0.822138 0.516828 0.500000
O O15 0.780434 0.510086 0.342846
O O16 0.500000 0.669689 0.750000
O O17 0.464070 0.656760 0.585413
O O18 0.286634 0.980825 0.000000
O O19 0.551051 0.419129 0.000000
#
# Coordination Sequence:
#
# PCOD8313329 Si02
#       8
#    16  16  16  16  16  16  16   8
#     4  11  25  39  60  95 121 167 218 263 326 383
#     4   9  20  39  62  86 113 158 216 262 311 384
#     4   9  21  39  60  89 127 166 211 263 315 390
#     4  10  22  39  60  91 128 165 215 264 319 391
#     4   9  17  37  62  86 121 165 204 251 304 375
#     4  11  22  41  67  92 123 167 212 264 318 394
#     4  10  22  39  60  91 129 166 203 265 333 377
#     4  11  28  46  66  98 130 165 214 276 344 389
#
# _framework density 20.636604999999999
#
# number of rings (size 3 to 8) (size 9 to 14) (size 15 to 20)
#    0.000    2.067    2.000    0.400    4.667    2.667 
#    0.000    6.667    0.000    1.600    0.000    0.000 
#    0.000    0.000    0.000    0.000    0.000    0.000 
#
# Total GULP energy -1487034.992304 kJ/mol
# GULP energy per Si atom -12391.958269 kJ/mol
# Density = 2.058964 g / cm^3
# Si number density = 20.636605 Si / 1000 Ang^3
#
#
#
# Elastic Constant Matrix: (Units=GPa)
#
#
# Indices 1 2 3 4 5 6 
#
# 1 116.3713 67.8578 36.8731 0.0000 0.0000 0.0000
# 2 67.8578 116.3713 36.8731 0.0000 0.0000 0.0000
# 3 36.8731 36.8731 100.8251 0.0000 0.0000 0.0000
# 4 0.0000 0.0000 0.0000 22.3761 0.0000 0.0000
# 5 0.0000 0.0000 0.0000 0.0000 22.3761 0.0000
# 6 0.0000 0.0000 0.0000 0.0000 0.0000 35.3937
#
#
#
# Elastic Compliance Matrix: (Units=1/GPa)
#
#
# Indices 1 2 3 4 5 6 
#
# 1 0.013486 -0.007127 -0.002326 0.000000 0.000000 0.000000
# 2 -0.007127 0.013486 -0.002326 0.000000 0.000000 0.000000
# 3 -0.002326 -0.002326 0.011619 0.000000 0.000000 0.000000
# 4 0.000000 0.000000 0.000000 0.044690 0.000000 0.000000
# 5 0.000000 0.000000 0.000000 0.000000 0.044690 0.000000
# 6 0.000000 0.000000 0.000000 0.000000 0.000000 0.028254
#
#
# Mechanical properties :
#
#
# Convention : Reuss Voigt Hill
#
# Bulk Modulus (GPa) = 66.51230 68.53061 67.52146
# Shear Modulus (GPa) = 27.05729 28.82678 27.94204
#
# Velocity S-wave (km/s) = 3.62488 3.74154 3.68367
# Velocity P-wave (km/s) = 7.05832 7.20734 7.13322
#
# Compressibility (1/GPa) = 0.01503481
#
# Stress axis : x y z
#
# Youngs Moduli (GPa) = 74.15174 74.15174 86.06499
#
# Poissons Ratio (x) = 0.52847 0.20015
# Poissons Ratio (y) = 0.52847 0.20015
# Poissons Ratio (z) = 0.17244 0.17244
#
# Static dielectric constant tensor:
#      x y z
#    x 3.800320 0.000000 0.000000 
#    y 0.000000 3.800320 0.000000 
#    z 0.000000 0.000000 3.836870 
# 
# 
# High freq. dielectric constant tensor:
#      x y z
#    x 1.798060 0.000000 0.000000 
#    y 0.000000 1.798060 0.000000 
#    z 0.000000 0.000000 1.817860 
# 
# From -- ./inp_files/3517.got.cif
#   From: 2010.03.12/outbox.cif.g09.slc.cpg/sg124_2_cif.got.tgz:3517.got - 2010.04.06 16:38:57.
