data_PCOD8313915
_publ_section_title
;
Structure prediction by ZEFSAII (Michael W. Deem and Ramdas Pophale) SiO2 
 PCOD8313915
Probable space group: P 4/M B M
;
_chemical_formula_sum "Si O2"
_cell_formula_units_Z 96
_cell_length_a 25.300690
_cell_length_b 25.300690
_cell_length_c 8.978369
_cell_angle_alpha 90.000000
_cell_angle_beta 90.000000
_cell_angle_gamma 90.000000
_cell_volume 5747.277688
_symmetry_space_group_name_H-M "P 4/M B M"
_symmetry_group_IT_number 127
_symmetry_cell_setting 'tetragonal'
loop_
_space_group_symop_operation_xyz
x,y,z
-y,x,z
-x,-y,z
y,-x,z
1/2+x,1/2-y,-z
1/2-x,1/2+y,-z
1/2+y,1/2+x,-z
1/2-y,1/2-x,-z
-x,-y,-z
y,-x,-z
x,y,-z
-y,x,-z
1/2-x,1/2+y,z
1/2+x,1/2-y,z
1/2-y,1/2-x,z
1/2+y,1/2+x,z
loop_
_atom_site_type_symbol
_atom_site_label
_atom_site_fract_x
_atom_site_fract_y
_atom_site_fract_z
Si Si1 0.688086 0.611848 0.830174
Si Si2 0.606548 0.684443 0.324073
Si Si3 0.605978 0.189985 0.825323
Si Si4 0.387063 0.195406 0.324268
Si Si5 0.495044 0.304403 0.828464
Si Si6 0.997500 0.694195 0.673711
O O1 0.656015 0.648556 0.718514
O O2 0.749275 0.615137 0.778893
O O3 0.665915 0.551590 0.817962
O O4 0.682176 0.632114 0.000000
O O5 0.596776 0.681791 0.500000
O O6 0.618297 0.744256 0.267117
O O7 0.554350 0.662138 0.237275
O O8 0.655205 0.155205 0.767517
O O9 0.551644 0.166408 0.756308
O O10 0.599069 0.185476 0.000000
O O11 0.379861 0.196440 0.500000
O O12 0.341644 0.158357 0.251222
O O13 0.444744 0.170180 0.284959
O O14 0.499607 0.254631 0.721515
O O15 0.484341 0.288090 0.000000
O O16 0.986241 0.690441 0.500000
#
# Coordination Sequence:
#
# PCOD8313915 Si02
#       6
#    16  16  16  16  16  16
#     4   9  18  31  47  67  91 121 153 184 223 272
#     4  10  19  29  46  71  95 120 150 188 230 269
#     4   9  18  32  48  66  92 126 158 189 230 279
#     4   8  15  28  44  64  92 122 149 180 223 273
#     4   9  17  31  49  65  87 122 159 190 222 268
#     4   9  16  27  46  69  89 114 154 198 233 268
#
# _framework density 16.70356
#
# number of rings (size 3 to 8) (size 9 to 14) (size 15 to 20)
#    0.000    3.000    0.000    3.500    0.000    4.333 
#    0.000    0.000    0.000   18.500    0.000    7.000 
#    0.000    0.000    0.000    0.000    0.000    0.000 
#
# Total GULP energy -1189426.895845 kJ/mol
# GULP energy per Si atom -12389.863498 kJ/mol
# Density = 1.666554 g / cm^3
# Si number density = 16.703560 Si / 1000 Ang^3
#
#
#
# Elastic Constant Matrix: (Units=GPa)
#
#
# Indices 1 2 3 4 5 6 
#
# 1 94.9667 58.9922 34.4211 0.0000 0.0000 0.0000
# 2 58.9922 94.9667 34.4211 0.0000 0.0000 0.0000
# 3 34.4211 34.4211 33.1240 0.0000 0.0000 0.0000
# 4 0.0000 0.0000 0.0000 23.3503 0.0000 0.0000
# 5 0.0000 0.0000 0.0000 0.0000 23.3503 0.0000
# 6 0.0000 0.0000 0.0000 0.0000 0.0000 4.3699
#
#
#
# Elastic Compliance Matrix: (Units=1/GPa)
#
#
# Indices 1 2 3 4 5 6 
#
# 1 0.019965 -0.007832 -0.012608 0.000000 0.000000 0.000000
# 2 -0.007832 0.019965 -0.012608 0.000000 0.000000 0.000000
# 3 -0.012608 -0.012608 0.056393 0.000000 0.000000 0.000000
# 4 0.000000 0.000000 0.000000 0.042826 0.000000 0.000000
# 5 0.000000 0.000000 0.000000 0.000000 0.042826 0.000000
# 6 0.000000 0.000000 0.000000 0.000000 0.000000 0.228841
#
#
# Mechanical properties :
#
#
# Convention : Reuss Voigt Hill
#
# Bulk Modulus (GPa) = 33.08319 53.19179 43.13749
# Shear Modulus (GPa) = 10.26720 16.56229 13.41474
#
# Velocity S-wave (km/s) = 2.48195 3.15229 2.83699
# Velocity P-wave (km/s) = 5.29740 6.72034 6.05085
#
# Compressibility (1/GPa) = 0.03022683
#
# Stress axis : x y z
#
# Youngs Moduli (GPa) = 50.08723 50.08723 17.73272
#
# Poissons Ratio (x) = 0.39230 0.22357
# Poissons Ratio (y) = 0.39230 0.22357
# Poissons Ratio (z) = 0.63150 0.63150
#
# Static dielectric constant tensor:
#      x y z
#    x 3.339820 0.000000 0.000000 
#    y 0.000000 3.339820 0.000000 
#    z 0.000000 0.000000 3.075750 
# 
# 
# High freq. dielectric constant tensor:
#      x y z
#    x 1.626860 0.000000 0.000000 
#    y 0.000000 1.626860 0.000000 
#    z 0.000000 0.000000 1.639560 
# 
# From -- ./inp_files/2209.got.cif
#   From: 2010.03.12/outbox.cif.g09.slc.cpg/sg127_2_cif.got.tgz:2209.got - 2010.04.06 17:03:15.
