data_PCOD8313301
_publ_section_title
;
Structure prediction by ZEFSAII (Michael W. Deem and Ramdas Pophale) SiO2 
 PCOD8313301
Probable space group: P 4/M C C
;
_chemical_formula_sum "Si O2"
_cell_formula_units_Z 96
_cell_length_a 15.611157
_cell_length_b 15.611157
_cell_length_c 20.478001
_cell_angle_alpha 90.000000
_cell_angle_beta 90.000000
_cell_angle_gamma 90.000000
_cell_volume 4990.657232
_symmetry_space_group_name_H-M "P 4/M C C"
_symmetry_group_IT_number 124
_symmetry_cell_setting 'tetragonal'
loop_
_space_group_symop_operation_xyz
x,y,z
-y,x,z
-x,-y,z
y,-x,z
x,-y,1/2-z
-x,y,1/2-z
y,x,1/2-z
-y,-x,1/2-z
-x,-y,-z
y,-x,-z
x,y,-z
-y,x,-z
-x,y,1/2+z
x,-y,1/2+z
-y,-x,1/2+z
y,x,1/2+z
loop_
_atom_site_type_symbol
_atom_site_label
_atom_site_fract_x
_atom_site_fract_y
_atom_site_fract_z
Si Si1 0.640190 0.500000 0.137471
Si Si2 0.778134 0.500000 0.250000
Si Si3 0.677637 0.819482 0.500000
Si Si4 0.730210 0.500000 0.500000
Si Si5 0.761967 0.901484 0.119364
Si Si6 0.322363 0.819482 0.500000
Si Si7 0.098516 0.761967 0.619364
Si Si8 0.338822 0.901272 0.250000
O O1 0.584660 0.584660 0.151478
O O2 0.720968 0.500000 0.185163
O O3 0.669469 0.500000 0.062788
O O4 0.838535 0.581632 0.250000
O O5 0.579682 0.793421 0.500000
O O6 0.733923 0.733923 0.500000
O O7 0.694729 0.876472 0.563567
O O8 0.793421 0.579682 0.500000
O O9 0.694729 0.876472 0.063567
O O10 0.849320 0.849320 0.111114
O O11 0.718930 0.880414 0.187923
O O12 0.787624 0.000000 0.112947
O O13 0.119586 0.718930 0.687923
O O14 0.370300 0.000000 0.250000
#
# Coordination Sequence:
#
# PCOD8313301 Si02
#       8
#    16   8   8   8  16   8  16  16
#     4  11  24  39  56  84 117 146 186 238 280 323
#     4  12  23  39  62  82 110 156 194 223 279 344
#     4  10  21  37  57  84 114 145 187 233 277 332
#     4  12  22  37  61  84 110 154 194 224 281 343
#     4  10  21  38  59  84 115 148 185 233 284 334
#     4  10  21  37  57  84 114 145 187 233 277 332
#     4  10  21  38  59  84 115 148 185 233 284 334
#     4  10  22  38  57  84 115 146 186 235 278 326
#
# _framework density 19.235942000000001
#
# number of rings (size 3 to 8) (size 9 to 14) (size 15 to 20)
#    0.000    1.500    0.000    5.250    0.000    7.000 
#    0.000    3.333    0.000    6.000    0.000    0.000 
#    0.000    0.000    0.000    0.000    0.000    0.000 
#
# Total GULP energy -1190972.349082 kJ/mol
# GULP energy per Si atom -12405.961970 kJ/mol
# Density = 1.919216 g / cm^3
# Si number density = 19.235942 Si / 1000 Ang^3
#
#
#
# Elastic Constant Matrix: (Units=GPa)
#
#
# Indices 1 2 3 4 5 6 
#
# 1 119.9197 68.9099 44.7604 0.0000 0.0000 0.0000
# 2 68.9099 119.9197 44.7604 0.0000 0.0000 0.0000
# 3 44.7604 44.7604 139.0298 0.0000 0.0000 0.0000
# 4 0.0000 0.0000 0.0000 37.9692 0.0000 0.0000
# 5 0.0000 0.0000 0.0000 0.0000 37.9692 0.0000
# 6 0.0000 0.0000 0.0000 0.0000 0.0000 35.3266
#
#
#
# Elastic Compliance Matrix: (Units=1/GPa)
#
#
# Indices 1 2 3 4 5 6 
#
# 1 0.012927 -0.006677 -0.002012 0.000000 0.000000 0.000000
# 2 -0.006677 0.012927 -0.002012 0.000000 0.000000 0.000000
# 3 -0.002012 -0.002012 0.008488 0.000000 0.000000 0.000000
# 4 0.000000 0.000000 0.000000 0.026337 0.000000 0.000000
# 5 0.000000 0.000000 0.000000 0.000000 0.026337 0.000000
# 6 0.000000 0.000000 0.000000 0.000000 0.000000 0.028307
#
#
# Mechanical properties :
#
#
# Convention : Reuss Voigt Hill
#
# Bulk Modulus (GPa) = 77.28382 77.30342 77.29362
# Shear Modulus (GPa) = 35.45108 36.94888 36.19998
#
# Velocity S-wave (km/s) = 4.29763 4.38748 4.34279
# Velocity P-wave (km/s) = 8.05544 8.12039 8.08798
#
# Compressibility (1/GPa) = 0.01293932
#
# Stress axis : x y z
#
# Youngs Moduli (GPa) = 77.35825 77.35825 117.80970
#
# Poissons Ratio (x) = 0.51654 0.23704
# Poissons Ratio (y) = 0.51654 0.23704
# Poissons Ratio (z) = 0.15565 0.15565
#
# Static dielectric constant tensor:
#      x y z
#    x 3.537680 0.000000 0.000000 
#    y 0.000000 3.537680 0.000000 
#    z 0.000000 0.000000 3.736370 
# 
# 
# High freq. dielectric constant tensor:
#      x y z
#    x 1.753510 0.000000 0.000000 
#    y 0.000000 1.753510 0.000000 
#    z 0.000000 0.000000 1.771650 
# 
# From -- ./inp_files/5391.got.cif
#   From: 2010.03.12/outbox.cif.g09.slc.cpg/sg124_3_cif.got.tgz:5391.got - 2010.04.06 16:38:57.
