data_PCOD8313796
_publ_section_title
;
Structure prediction by ZEFSAII (Michael W. Deem and Ramdas Pophale) SiO2 
 PCOD8313796
Probable space group: P 4/N N C
;
_chemical_formula_sum "Si O2"
_cell_formula_units_Z 88
_cell_length_a 14.138277
_cell_length_b 14.138277
_cell_length_c 22.173221
_cell_angle_alpha 90.000000
_cell_angle_beta 90.000000
_cell_angle_gamma 90.000000
_cell_volume 4432.224581
_symmetry_space_group_name_H-M "P 4/N N C"
_symmetry_group_IT_number 126
_space_group.IT_coordinate_system_code '2'
_symmetry_cell_setting 'tetragonal'
loop_
_space_group_symop_operation_xyz
x,y,z
1/2-y,x,z
1/2-x,1/2-y,z
y,1/2-x,z
x,1/2-y,1/2-z
1/2-x,y,1/2-z
y,x,1/2-z
1/2-y,1/2-x,1/2-z
-x,-y,-z
1/2+y,-x,-z
1/2+x,1/2+y,-z
-y,1/2+x,-z
-x,1/2+y,1/2+z
1/2+x,-y,1/2+z
-y,-x,1/2+z
1/2+y,1/2+x,1/2+z
loop_
_atom_site_type_symbol
_atom_site_label
_atom_site_fract_x
_atom_site_fract_y
_atom_site_fract_z
Si Si1 0.045582 0.045582 0.250000
Si Si2 0.338248 0.813851 0.904391
Si Si3 0.143343 0.857126 0.229816
Si Si4 0.874929 0.654513 0.862106
Si Si5 0.913552 0.564515 0.513501
Si Si6 0.468310 0.763506 0.495958
O O1 0.111891 0.076204 0.195741
O O2 0.932992 0.068963 0.240587
O O3 0.250000 0.750000 0.885833
O O4 0.373186 0.861096 0.842492
O O5 0.305431 0.894707 0.949605
O O6 0.417001 0.750535 0.938836
O O7 0.114404 0.750000 0.250000
O O8 0.250000 0.880586 0.250000
O O9 0.880797 0.767463 0.863570
O O10 0.938885 0.618399 0.917260
O O11 0.832564 0.516703 0.472340
O O12 0.000000 0.500000 0.500000
O O13 0.939095 0.671331 0.498705
#
# Coordination Sequence:
#
# PCOD8313796 Si02
#       6
#     8  16  16  16  16  16
#     4  12  26  41  68  99 134 172 218 268 334 396
#     4  12  21  43  66  93 127 173 225 272 326 382
#     4  11  25  44  67  97 134 175 220 274 330 392
#     4  11  23  41  66  96 135 171 208 264 334 410
#     4  12  24  40  62  97 132 173 217 265 326 390
#     4  12  24  39  66  95 130 175 217 270 327 395
#
# _framework density 19.854590999999999
#
# number of rings (size 3 to 8) (size 9 to 14) (size 15 to 20)
#    0.000    0.364    7.273    2.727    2.545    2.545 
#    0.000    0.000    0.000    0.273    0.000    0.000 
#    0.000    0.000    0.000    0.000    0.000    0.000 
#
# Total GULP energy -1090709.240772 kJ/mol
# GULP energy per Si atom -12394.423191 kJ/mol
# Density = 1.980940 g / cm^3
# Si number density = 19.854591 Si / 1000 Ang^3
#
#
#
# Elastic Constant Matrix: (Units=GPa)
#
#
# Indices 1 2 3 4 5 6 
#
# 1 92.3972 47.4446 13.2393 0.0000 0.0000 0.0000
# 2 47.4446 92.3972 13.2393 0.0000 0.0000 0.0000
# 3 13.2393 13.2393 88.0640 0.0000 0.0000 0.0000
# 4 0.0000 0.0000 0.0000 21.2442 0.0000 0.0000
# 5 0.0000 0.0000 0.0000 0.0000 21.2442 0.0000
# 6 0.0000 0.0000 0.0000 0.0000 0.0000 48.5297
#
#
#
# Elastic Compliance Matrix: (Units=1/GPa)
#
#
# Indices 1 2 3 4 5 6 
#
# 1 0.014803 -0.007443 -0.001107 0.000000 0.000000 0.000000
# 2 -0.007443 0.014803 -0.001107 0.000000 0.000000 0.000000
# 3 -0.001107 -0.001107 0.011688 0.000000 0.000000 0.000000
# 4 0.000000 0.000000 0.000000 0.047072 0.000000 0.000000
# 5 0.000000 0.000000 0.000000 0.000000 0.047072 0.000000
# 6 0.000000 0.000000 0.000000 0.000000 0.000000 0.020606
#
#
# Mechanical properties :
#
#
# Convention : Reuss Voigt Hill
#
# Bulk Modulus (GPa) = 45.49008 46.74496 46.11752
# Shear Modulus (GPa) = 27.36988 31.46597 29.41793
#
# Velocity S-wave (km/s) = 3.71687 3.98530 3.85342
# Velocity P-wave (km/s) = 6.43284 6.69116 6.56327
#
# Compressibility (1/GPa) = 0.02198281
#
# Stress axis : x y z
#
# Youngs Moduli (GPa) = 67.55361 67.55361 85.55722
#
# Poissons Ratio (x) = 0.50277 0.09467
# Poissons Ratio (y) = 0.50277 0.09467
# Poissons Ratio (z) = 0.07475 0.07475
#
# Static dielectric constant tensor:
#      x y z
#    x 2.464780 0.000000 0.000000 
#    y 0.000000 2.464780 0.000000 
#    z 0.000000 0.000000 3.607420 
# 
# 
# High freq. dielectric constant tensor:
#      x y z
#    x 1.784280 0.000000 0.000000 
#    y 0.000000 1.784280 0.000000 
#    z 0.000000 0.000000 1.762390 
# 
# From -- ./inp_files/5137.got.cif
#   From: 2010.03.12/outbox.cif.g09.slc.cpg/sg126_3_cif.got.tgz:5137.got - 2010.04.06 16:55:23.
