data_PCOD8313931
_publ_section_title
;
Structure prediction by ZEFSAII (Michael W. Deem and Ramdas Pophale) SiO2 
 PCOD8313931
Probable space group: P 4/M B M
;
_chemical_formula_sum "Si O2"
_cell_formula_units_Z 96
_cell_length_a 24.085292
_cell_length_b 24.085292
_cell_length_c 8.724093
_cell_angle_alpha 90.000000
_cell_angle_beta 90.000000
_cell_angle_gamma 90.000000
_cell_volume 5060.857610
_symmetry_space_group_name_H-M "P 4/M B M"
_symmetry_group_IT_number 127
_symmetry_cell_setting 'tetragonal'
loop_
_space_group_symop_operation_xyz
x,y,z
-y,x,z
-x,-y,z
y,-x,z
1/2+x,1/2-y,-z
1/2-x,1/2+y,-z
1/2+y,1/2+x,-z
1/2-y,1/2-x,-z
-x,-y,-z
y,-x,-z
x,y,-z
-y,x,-z
1/2-x,1/2+y,z
1/2+x,1/2-y,z
1/2-y,1/2-x,z
1/2+y,1/2+x,z
loop_
_atom_site_type_symbol
_atom_site_label
_atom_site_fract_x
_atom_site_fract_y
_atom_site_fract_z
Si Si1 0.365533 0.776011 0.677922
Si Si2 0.000439 0.587460 0.182384
Si Si3 0.693750 0.717399 0.177466
Si Si4 0.482857 0.790321 0.181407
Si Si5 0.568989 0.700820 0.818042
Si Si6 0.531999 0.581871 0.182319
O O1 0.380508 0.773919 0.500000
O O2 0.331827 0.831827 0.720125
O O3 0.329124 0.722762 0.720304
O O4 0.420912 0.773512 0.776164
O O5 0.057055 0.557055 0.236850
O O6 0.947330 0.552671 0.242629
O O7 0.998073 0.649343 0.251753
O O8 0.998677 0.589494 0.000000
O O9 0.722701 0.777300 0.203778
O O10 0.630142 0.720656 0.231871
O O11 0.698231 0.699478 0.000000
O O12 0.525443 0.745184 0.250214
O O13 0.488113 0.792068 0.000000
O O14 0.554784 0.639880 0.749533
O O15 0.563981 0.698819 0.000000
O O16 0.468725 0.571269 0.239118
O O17 0.532821 0.583749 0.000000
#
# Coordination Sequence:
#
# PCOD8313931 Si02
#       6
#    16  16  16  16  16  16
#     4  10  21  36  53  73  99 134 175 217 258 299
#     4   8  14  25  42  66  97 131 163 195 236 290
#     4   9  18  33  52  74 102 134 168 209 255 302
#     4  10  19  30  49  78 105 130 163 207 258 307
#     4   9  18  28  44  74 103 129 160 200 250 302
#     4   8  14  24  38  59  90 126 156 187 232 282
#
# _framework density 18.969116
#
# number of rings (size 3 to 8) (size 9 to 14) (size 15 to 20)
#    0.000    3.000    0.000    2.000    2.333    2.333 
#    0.000    4.167    0.000    0.500    0.000    2.333 
#    0.000    1.333    0.000    0.000    0.000    0.000 
#
# Total GULP energy -1190079.659336 kJ/mol
# GULP energy per Si atom -12396.663118 kJ/mol
# Density = 1.892594 g / cm^3
# Si number density = 18.969116 Si / 1000 Ang^3
#
#
#
# Elastic Constant Matrix: (Units=GPa)
#
#
# Indices 1 2 3 4 5 6 
#
# 1 153.4153 87.4210 7.3709 0.0000 0.0000 0.0000
# 2 87.4210 153.4153 7.3709 0.0000 0.0000 0.0000
# 3 7.3709 7.3709 6.5562 0.0000 0.0000 0.0000
# 4 0.0000 0.0000 0.0000 6.9548 0.0000 0.0000
# 5 0.0000 0.0000 0.0000 0.0000 6.9548 0.0000
# 6 0.0000 0.0000 0.0000 0.0000 0.0000 24.6596
#
#
#
# Elastic Compliance Matrix: (Units=1/GPa)
#
#
# Indices 1 2 3 4 5 6 
#
# 1 0.009806 -0.005347 -0.005013 0.000000 0.000000 0.000000
# 2 -0.005347 0.009806 -0.005013 0.000000 0.000000 0.000000
# 3 -0.005013 -0.005013 0.163799 0.000000 0.000000 0.000000
# 4 0.000000 0.000000 0.000000 0.143786 0.000000 0.000000
# 5 0.000000 0.000000 0.000000 0.000000 0.143786 0.000000
# 6 0.000000 0.000000 0.000000 0.000000 0.000000 0.040552
#
#
# Mechanical properties :
#
#
# Convention : Reuss Voigt Hill
#
# Bulk Modulus (GPa) = 6.55031 57.52360 32.03696
# Shear Modulus (GPa) = 8.42928 21.79543 15.11236
#
# Velocity S-wave (km/s) = 2.11029 3.39336 2.82562
# Velocity P-wave (km/s) = 3.06568 6.76342 5.25083
#
# Compressibility (1/GPa) = 0.15266449
#
# Stress axis : x y z
#
# Youngs Moduli (GPa) = 101.97907 101.97907 6.10505
#
# Poissons Ratio (x) = 0.54527 0.03061
# Poissons Ratio (y) = 0.54527 0.03061
# Poissons Ratio (z) = 0.51123 0.51123
#
# Static dielectric constant tensor:
#      x y z
#    x 3.725500 0.000000 0.000000 
#    y 0.000000 3.725500 0.000000 
#    z 0.000000 0.000000 2.858360 
# 
# 
# High freq. dielectric constant tensor:
#      x y z
#    x 1.744780 0.000000 0.000000 
#    y 0.000000 1.744780 0.000000 
#    z 0.000000 0.000000 1.672680 
# 
# From -- ./inp_files/1986.got.cif
#   From: 2010.03.12/outbox.cif.g09.slc.cpg/sg127_1_cif.got.tgz:1986.got - 2010.04.06 17:03:15.
