data_PCOD8313791
_publ_section_title
;
Structure prediction by ZEFSAII (Michael W. Deem and Ramdas Pophale) SiO2 
 PCOD8313791
Probable space group: P 4/N N C
;
_chemical_formula_sum "Si O2"
_cell_formula_units_Z 68
_cell_length_a 11.762984
_cell_length_b 11.762984
_cell_length_c 27.395206
_cell_angle_alpha 90.000000
_cell_angle_beta 90.000000
_cell_angle_gamma 90.000000
_cell_volume 3790.614182
_symmetry_space_group_name_H-M "P 4/N N C"
_symmetry_group_IT_number 126
_space_group.IT_coordinate_system_code '2'
_symmetry_cell_setting 'tetragonal'
loop_
_space_group_symop_operation_xyz
x,y,z
1/2-y,x,z
1/2-x,1/2-y,z
y,1/2-x,z
x,1/2-y,1/2-z
1/2-x,y,1/2-z
y,x,1/2-z
1/2-y,1/2-x,1/2-z
-x,-y,-z
1/2+y,-x,-z
1/2+x,1/2+y,-z
-y,1/2+x,-z
-x,1/2+y,1/2+z
1/2+x,-y,1/2+z
-y,-x,1/2+z
1/2+y,1/2+x,1/2+z
loop_
_atom_site_type_symbol
_atom_site_label
_atom_site_fract_x
_atom_site_fract_y
_atom_site_fract_z
Si Si1 0.309457 0.523625 0.954638
Si Si2 0.108603 0.372546 0.695501
Si Si3 0.010596 0.922964 0.100783
Si Si4 0.750000 0.250000 0.000000
Si Si5 0.078188 0.186728 0.440039
O O1 0.425258 0.507289 0.926009
O O2 0.202852 0.492462 0.920641
O O3 0.311958 0.656708 0.967104
O O4 0.314483 0.445151 0.002279
O O5 0.093428 0.238635 0.686742
O O6 0.082121 0.417880 0.750000
O O7 0.019835 0.429523 0.658158
O O8 0.138185 0.969365 0.090156
O O9 0.184234 0.105967 0.425788
#
# Coordination Sequence:
#
# PCOD8313791 Si02
#       5
#    16  16  16   4  16
#     4  12  22  34  53  78 116 149 192 222 277 329
#     4   9  18  34  56  83 113 142 179 231 290 346
#     4  12  22  34  56  84 109 153 183 231 282 335
#     4  12  24  36  48  80 118 152 188 244 264 320
#     4  11  23  38  52  75 114 156 192 220 263 335
#
# _framework density 17.939045
#
# number of rings (size 3 to 8) (size 9 to 14) (size 15 to 20)
#    0.000    0.941    7.059    2.824    0.000    0.471 
#    0.000    0.000    0.000    1.412    0.000    6.588 
#    0.000    0.000    0.000    0.000    0.000    0.000 
#
# Total GULP energy -843029.663659 kJ/mol
# GULP energy per Si atom -12397.495054 kJ/mol
# Density = 1.789822 g / cm^3
# Si number density = 17.939045 Si / 1000 Ang^3
#
#
#
# Elastic Constant Matrix: (Units=GPa)
#
#
# Indices 1 2 3 4 5 6 
#
# 1 52.3425 0.1343 11.0318 0.0000 0.0000 0.0000
# 2 0.1343 52.3423 11.0317 0.0000 0.0000 0.0000
# 3 11.0318 11.0317 99.4694 0.0000 0.0000 0.0000
# 4 0.0000 0.0000 0.0000 20.2656 0.0000 0.0000
# 5 0.0000 0.0000 0.0000 0.0000 20.2656 0.0000
# 6 0.0000 0.0000 0.0000 0.0000 0.0000 32.1263
#
#
#
# Elastic Compliance Matrix: (Units=1/GPa)
#
#
# Indices 1 2 3 4 5 6 
#
# 1 0.019571 0.000417 -0.002217 0.000000 0.000000 0.000000
# 2 0.000417 0.019571 -0.002217 0.000000 0.000000 0.000000
# 3 -0.002217 -0.002217 0.010545 0.000000 0.000000 0.000000
# 4 0.000000 0.000000 0.000000 0.049345 0.000000 0.000000
# 5 0.000000 0.000000 0.000000 0.000000 0.049345 0.000000
# 6 0.000000 0.000000 0.000000 0.000000 0.000000 0.031127
#
#
# Mechanical properties :
#
#
# Convention : Reuss Voigt Hill
#
# Bulk Modulus (GPa) = 24.00726 27.61665 25.81196
# Shear Modulus (GPa) = 24.82356 26.66195 25.74275
#
# Velocity S-wave (km/s) = 3.72394 3.85938 3.79227
# Velocity P-wave (km/s) = 5.64819 5.94036 5.79612
#
# Compressibility (1/GPa) = 0.04165407
#
# Stress axis : x y z
#
# Youngs Moduli (GPa) = 51.09584 51.09563 94.83120
#
# Poissons Ratio (x) = -0.02131 0.21022
# Poissons Ratio (y) = -0.02131 0.21022
# Poissons Ratio (z) = 0.11327 0.11327
#
# Static dielectric constant tensor:
#      x y z
#    x 3.325000 0.000000 0.000000 
#    y 0.000000 3.325000 0.000000 
#    z 0.000000 0.000000 3.186250 
# 
# 
# High freq. dielectric constant tensor:
#      x y z
#    x 1.693230 0.000000 0.000000 
#    y 0.000000 1.693230 0.000000 
#    z 0.000000 0.000000 1.664520 
# 
# From -- ./inp_files/6133.got.cif
#   From: 2010.03.12/outbox.cif.g09.slc.cpg/sg126_4_cif.got.tgz:6133.got - 2010.04.06 16:55:23.
