data_PCOD8313238
_publ_section_title
;
Structure prediction by ZEFSAII (Michael W. Deem and Ramdas Pophale) SiO2 
 PCOD8313238
Probable space group: P 4/M C C
;
_chemical_formula_sum "Si O2"
_cell_formula_units_Z 96
_cell_length_a 25.186431
_cell_length_b 25.186431
_cell_length_c 9.046009
_cell_angle_alpha 90.000000
_cell_angle_beta 90.000000
_cell_angle_gamma 90.000000
_cell_volume 5738.392858
_symmetry_space_group_name_H-M "P 4/M C C"
_symmetry_group_IT_number 124
_symmetry_cell_setting 'tetragonal'
loop_
_space_group_symop_operation_xyz
x,y,z
-y,x,z
-x,-y,z
y,-x,z
x,-y,1/2-z
-x,y,1/2-z
y,x,1/2-z
-y,-x,1/2-z
-x,-y,-z
y,-x,-z
x,y,-z
-y,x,-z
-x,y,1/2+z
x,-y,1/2+z
-y,-x,1/2+z
y,x,1/2+z
loop_
_atom_site_type_symbol
_atom_site_label
_atom_site_fract_x
_atom_site_fract_y
_atom_site_fract_z
Si Si1 0.142969 0.782211 0.329929
Si Si2 0.266669 0.448669 0.167646
Si Si3 0.336412 0.842452 0.173184
Si Si4 0.266865 0.655642 0.174617
Si Si5 0.449547 0.860277 0.837203
Si Si6 0.866832 0.055952 0.824383
O O1 0.196128 0.803872 0.250000
O O2 0.155856 0.790762 0.500000
O O3 0.129086 0.720193 0.297382
O O4 0.091800 0.816040 0.282290
O O5 0.289619 0.500000 0.250000
O O6 0.289662 0.398591 0.256299
O O7 0.203131 0.448939 0.172292
O O8 0.287606 0.447386 0.000000
O O9 0.337676 0.794282 0.286195
O O10 0.389222 0.878429 0.211233
O O11 0.340926 0.824187 0.000000
O O12 0.295468 0.704533 0.250000
O O13 0.275322 0.655682 0.000000
O O14 0.500000 0.884334 0.750000
O O15 0.460521 0.881267 0.000000
O O16 0.919295 0.080706 0.750000
O O17 0.855483 0.000000 0.750000
O O18 0.875159 0.050480 0.000000
#
# Coordination Sequence:
#
# PCOD8313238 Si02
#       6
#    16  16  16  16  16  16
#     4   9  18  31  47  66  91 121 153 187 228 275
#     4   9  16  27  40  54  72  98 131 168 210 257
#     4   9  17  29  42  59  84 116 150 184 221 265
#     4  11  20  28  38  55  79 108 140 175 211 251
#     4   8  14  23  36  53  77 107 141 178 215 253
#     4  10  20  35  54  76 100 127 157 192 232 277
#
# _framework density 16.729423000000001
#
# number of rings (size 3 to 8) (size 9 to 14) (size 15 to 20)
#    0.000    2.667    0.000    4.000    0.000    6.833 
#    0.000    0.833    0.000    0.000    0.000    0.000 
#    0.000    1.000    0.000   11.667    0.000    2.333 
#
# Total GULP energy -1189439.971828 kJ/mol
# GULP energy per Si atom -12389.999707 kJ/mol
# Density = 1.669135 g / cm^3
# Si number density = 16.729423 Si / 1000 Ang^3
#
#
#
# Elastic Constant Matrix: (Units=GPa)
#
#
# Indices 1 2 3 4 5 6 
#
# 1 85.9502 28.0465 33.7299 0.0000 0.0000 0.0000
# 2 28.0465 85.9521 33.7307 0.0000 0.0000 0.0000
# 3 33.7299 33.7307 102.5556 0.0000 0.0000 0.0000
# 4 0.0000 0.0000 0.0000 19.4621 0.0000 0.0000
# 5 0.0000 0.0000 0.0000 0.0000 19.4622 0.0000
# 6 0.0000 0.0000 0.0000 0.0000 0.0000 8.7544
#
#
#
# Elastic Compliance Matrix: (Units=1/GPa)
#
#
# Indices 1 2 3 4 5 6 
#
# 1 0.014081 -0.003189 -0.003582 0.000000 0.000000 0.000000
# 2 -0.003189 0.014081 -0.003582 0.000000 0.000000 0.000000
# 3 -0.003582 -0.003582 0.012107 0.000000 0.000000 0.000000
# 4 0.000000 0.000000 0.000000 0.051382 0.000000 0.000000
# 5 0.000000 0.000000 0.000000 0.000000 0.051382 0.000000
# 6 0.000000 0.000000 0.000000 0.000000 0.000000 0.114228
#
#
# Mechanical properties :
#
#
# Convention : Reuss Voigt Hill
#
# Bulk Modulus (GPa) = 51.11975 51.71910 51.41942
# Shear Modulus (GPa) = 17.57540 21.46580 19.52060
#
# Velocity S-wave (km/s) = 3.24476 3.58595 3.41961
# Velocity P-wave (km/s) = 6.68290 6.93740 6.81134
#
# Compressibility (1/GPa) = 0.01956191
#
# Stress axis : x y z
#
# Youngs Moduli (GPa) = 71.01746 71.01875 82.59495
#
# Poissons Ratio (x) = 0.22647 0.29588
# Poissons Ratio (y) = 0.22646 0.29589
# Poissons Ratio (z) = 0.25441 0.25442
#
# Static dielectric constant tensor:
#      x y z
#    x 3.146140 0.000000 0.000000 
#    y 0.000000 3.146130 0.000000 
#    z 0.000000 0.000000 3.250710 
# 
# 
# High freq. dielectric constant tensor:
#      x y z
#    x 1.617540 0.000000 0.000000 
#    y 0.000000 1.617540 0.000000 
#    z 0.000000 0.000000 1.654050 
# 
# From -- ./inp_files/1536.got.cif
#   From: 2010.03.12/outbox.cif.g09.slc.cpg/sg124_1_cif.got.tgz:1536.got - 2010.04.06 16:38:57.
