data_PCOD8313202
_publ_section_title
;
Structure prediction by ZEFSAII (Michael W. Deem and Ramdas Pophale) SiO2 
 PCOD8313202
Probable space group: P 4/M C C
;
_chemical_formula_sum "Si O2"
_cell_formula_units_Z 96
_cell_length_a 25.069942
_cell_length_b 25.069942
_cell_length_c 8.701274
_cell_angle_alpha 90.000000
_cell_angle_beta 90.000000
_cell_angle_gamma 90.000000
_cell_volume 5468.768041
_symmetry_space_group_name_H-M "P 4/M C C"
_symmetry_group_IT_number 124
_symmetry_cell_setting 'tetragonal'
loop_
_space_group_symop_operation_xyz
x,y,z
-y,x,z
-x,-y,z
y,-x,z
x,-y,1/2-z
-x,y,1/2-z
y,x,1/2-z
-y,-x,1/2-z
-x,-y,-z
y,-x,-z
x,y,-z
-y,x,-z
-x,y,1/2+z
x,-y,1/2+z
-y,-x,1/2+z
y,x,1/2+z
loop_
_atom_site_type_symbol
_atom_site_label
_atom_site_fract_x
_atom_site_fract_y
_atom_site_fract_z
Si Si1 0.946800 0.759830 0.671667
Si Si2 0.757249 0.162288 0.821094
Si Si3 0.633278 0.162642 0.179171
Si Si4 0.632941 0.946545 0.826660
Si Si5 0.360795 0.556624 0.316952
Si Si6 0.555534 0.246002 0.318335
O O1 0.944300 0.782392 0.500000
O O2 0.893817 0.779482 0.758137
O O3 0.949662 0.696363 0.673250
O O4 0.000000 0.783560 0.750000
O O5 0.788312 0.211689 0.750000
O O6 0.695294 0.169950 0.780268
O O7 0.767235 0.162013 0.000000
O O8 0.613721 0.103667 0.226222
O O9 0.602125 0.204761 0.282347
O O10 0.621484 0.171852 0.000000
O O11 0.609085 0.000000 0.750000
O O12 0.611008 0.941173 0.000000
O O13 0.379632 0.500000 0.250000
O O14 0.398471 0.601530 0.250000
O O15 0.363598 0.555514 0.500000
O O16 0.301335 0.570280 0.262822
O O17 0.500000 0.223815 0.250000
O O18 0.550035 0.254779 0.500000
#
# Coordination Sequence:
#
# PCOD8313202 Si02
#       6
#    16  16  16  16  16  16
#     4   9  16  27  44  65  92 126 166 205 245 293
#     4  10  20  32  47  69 101 135 167 205 251 298
#     4  10  20  34  51  73 100 133 171 210 252 302
#     4   9  16  27  45  70  97 127 163 206 252 299
#     4  11  22  39  60  84 110 137 168 205 249 297
#     4  11  22  38  58  79 103 134 171 211 251 296
#
# _framework density 17.554227000000001
#
# number of rings (size 3 to 8) (size 9 to 14) (size 15 to 20)
#    0.000    2.000    0.000    6.000    0.000    6.833 
#    0.000    2.500    0.000    0.500    0.000    3.500 
#    0.000    0.333    0.000    3.333    0.000    2.333 
#
# Total GULP energy -1190559.142430 kJ/mol
# GULP energy per Si atom -12401.657734 kJ/mol
# Density = 1.751427 g / cm^3
# Si number density = 17.554227 Si / 1000 Ang^3
#
#
#
# Elastic Constant Matrix: (Units=GPa)
#
#
# Indices 1 2 3 4 5 6 
#
# 1 81.6854 51.8745 50.2361 0.0000 0.0000 0.0000
# 2 51.8745 81.6764 50.2271 0.0000 0.0000 0.0000
# 3 50.2361 50.2271 142.0588 0.0000 0.0000 0.0000
# 4 0.0000 0.0000 0.0000 31.3846 0.0000 0.0000
# 5 0.0000 0.0000 0.0000 0.0000 31.3852 0.0000
# 6 0.0000 0.0000 0.0000 0.0000 0.0000 -8.8652
#
#
#
# Elastic Compliance Matrix: (Units=1/GPa)
#
#
# Indices 1 2 3 4 5 6 
#
# 1 0.021875 -0.011675 -0.003608 0.000000 0.000000 0.000000
# 2 -0.011675 0.021876 -0.003606 0.000000 0.000000 0.000000
# 3 -0.003608 -0.003606 0.009590 0.000000 0.000000 0.000000
# 4 0.000000 0.000000 0.000000 0.031863 0.000000 0.000000
# 5 0.000000 0.000000 0.000000 0.000000 0.031862 0.000000
# 6 0.000000 0.000000 0.000000 0.000000 0.000000 -0.112801
#
#
# Mechanical properties :
#
#
# Convention : Reuss Voigt Hill
#
# Bulk Modulus (GPa) = 64.25147 67.78843 66.01995
# Shear Modulus (GPa) = 105.86513 20.98643 63.42578
#
# Velocity S-wave (km/s) = 7.77421 3.46138 6.01746
# Velocity P-wave (km/s) = 10.82893 7.39427 9.27203
#
# Compressibility (1/GPa) = 0.01556385
#
# Stress axis : x y z
#
# Youngs Moduli (GPa) = 45.71459 45.71269 104.27343
#
# Poissons Ratio (x) = 0.53367 0.37620
# Poissons Ratio (y) = 0.53370 0.37602
# Poissons Ratio (z) = 0.16493 0.16484
#
# Static dielectric constant tensor:
#      x y z
#    x 3.156360 0.000000 0.000000 
#    y 0.000000 3.156360 0.000000 
#    z 0.000000 0.000000 3.479130 
# 
# 
# High freq. dielectric constant tensor:
#      x y z
#    x 1.660280 0.000000 0.000000 
#    y 0.000000 1.660280 0.000000 
#    z 0.000000 0.000000 1.702630 
# 
# From -- ./inp_files/1339.got.cif
#   From: 2010.03.12/outbox.cif.g09.slc.cpg/sg124_1_cif.got.tgz:1339.got - 2010.04.06 16:38:57.
