data_PCOD8313658
_publ_section_title
;
Structure prediction by ZEFSAII (Michael W. Deem and Ramdas Pophale) SiO2 
 PCOD8313658
Probable space group: P 4/N N C
;
_chemical_formula_sum "Si O2"
_cell_formula_units_Z 112
_cell_length_a 15.620477
_cell_length_b 15.620477
_cell_length_c 25.448826
_cell_angle_alpha 90.000000
_cell_angle_beta 90.000000
_cell_angle_gamma 90.000000
_cell_volume 6209.495773
_symmetry_space_group_name_H-M "P 4/N N C"
_symmetry_group_IT_number 126
_space_group.IT_coordinate_system_code '2'
_symmetry_cell_setting 'tetragonal'
loop_
_space_group_symop_operation_xyz
x,y,z
1/2-y,x,z
1/2-x,1/2-y,z
y,1/2-x,z
x,1/2-y,1/2-z
1/2-x,y,1/2-z
y,x,1/2-z
1/2-y,1/2-x,1/2-z
-x,-y,-z
1/2+y,-x,-z
1/2+x,1/2+y,-z
-y,1/2+x,-z
-x,1/2+y,1/2+z
1/2+x,-y,1/2+z
-y,-x,1/2+z
1/2+y,1/2+x,1/2+z
loop_
_atom_site_type_symbol
_atom_site_label
_atom_site_fract_x
_atom_site_fract_y
_atom_site_fract_z
Si Si1 0.051860 0.045781 0.881434
Si Si2 0.152176 0.745726 0.645193
Si Si3 0.137570 0.704605 0.526407
Si Si4 0.148477 0.349264 0.528458
Si Si5 0.578891 0.354747 0.810563
Si Si6 0.577449 0.985281 0.962024
Si Si7 0.848214 0.071154 0.191570
O O1 0.099398 0.102325 0.924969
O O2 0.989307 0.106888 0.850113
O O3 0.000332 0.962497 0.904303
O O4 0.121926 0.010406 0.841318
O O5 0.250000 0.750000 0.662829
O O6 0.142838 0.749437 0.582730
O O7 0.108301 0.828752 0.671338
O O8 0.111313 0.658773 0.668177
O O9 0.141377 0.780777 0.482883
O O10 0.050841 0.652310 0.521828
O O11 0.130346 0.248324 0.531955
O O12 0.109728 0.383843 0.472647
O O13 0.573898 0.253113 0.814000
O O14 0.560728 0.382420 0.750836
O O15 0.500000 0.000000 0.000000
#
# Coordination Sequence:
#
# PCOD8313658 Si02
#       7
#    16  16  16  16  16  16  16
#     4  11  21  37  56  84 108 144 187 234 279 327
#     4  10  19  34  54  81 111 145 180 223 275 334
#     4  11  22  34  56  85 115 151 185 226 283 340
#     4  10  23  40  57  77 108 150 187 228 277 334
#     4  10  22  34  58  80 113 147 184 229 284 331
#     4  10  24  35  54  81 112 145 186 233 278 332
#     4  10  20  38  55  82 110 147 185 232 279 335
#
# _framework density 18.036892000000002
#
# number of rings (size 3 to 8) (size 9 to 14) (size 15 to 20)
#    0.000    1.714    2.857    1.714    8.000    1.714 
#    0.000    0.000    0.000    0.000    0.000    6.000 
#    0.000    0.000    0.000    5.857    0.000    0.000 
#
# Total GULP energy -1388253.641302 kJ/mol
# GULP energy per Si atom -12395.121797 kJ/mol
# Density = 1.799584 g / cm^3
# Si number density = 18.036892 Si / 1000 Ang^3
#
#
#
# Elastic Constant Matrix: (Units=GPa)
#
#
# Indices 1 2 3 4 5 6 
#
# 1 82.4398 42.6533 41.6861 0.0000 0.0000 0.0000
# 2 42.6533 82.4398 41.6861 0.0000 0.0000 0.0000
# 3 41.6861 41.6861 107.5374 0.0000 0.0000 0.0000
# 4 0.0000 0.0000 0.0000 24.2658 0.0000 0.0000
# 5 0.0000 0.0000 0.0000 0.0000 24.2658 0.0000
# 6 0.0000 0.0000 0.0000 0.0000 0.0000 24.7161
#
#
#
# Elastic Compliance Matrix: (Units=1/GPa)
#
#
# Indices 1 2 3 4 5 6 
#
# 1 0.017956 -0.007178 -0.004178 0.000000 0.000000 0.000000
# 2 -0.007178 0.017956 -0.004178 0.000000 0.000000 0.000000
# 3 -0.004178 -0.004178 0.012538 0.000000 0.000000 0.000000
# 4 0.000000 0.000000 0.000000 0.041210 0.000000 0.000000
# 5 0.000000 0.000000 0.000000 0.000000 0.041210 0.000000
# 6 0.000000 0.000000 0.000000 0.000000 0.000000 0.040459
#
#
# Mechanical properties :
#
#
# Convention : Reuss Voigt Hill
#
# Bulk Modulus (GPa) = 57.52811 58.27422 57.90117
# Shear Modulus (GPa) = 24.01604 24.40899 24.21251
#
# Velocity S-wave (km/s) = 3.65292 3.68269 3.66784
# Velocity P-wave (km/s) = 7.05378 7.10362 7.07874
#
# Compressibility (1/GPa) = 0.01738281
#
# Stress axis : x y z
#
# Youngs Moduli (GPa) = 55.69020 55.69020 79.75442
#
# Poissons Ratio (x) = 0.39973 0.33324
# Poissons Ratio (y) = 0.39973 0.33324
# Poissons Ratio (z) = 0.23269 0.23269
#
# Static dielectric constant tensor:
#      x y z
#    x 3.410290 0.000000 0.000000 
#    y 0.000000 3.410290 0.000000 
#    z 0.000000 0.000000 3.530520 
# 
# 
# High freq. dielectric constant tensor:
#      x y z
#    x 1.691340 0.000000 0.000000 
#    y 0.000000 1.691340 0.000000 
#    z 0.000000 0.000000 1.700080 
# 
# From -- ./inp_files/5833.got.cif
#   From: 2010.03.12/outbox.cif.g09.slc.cpg/sg126_3_cif.got.tgz:5833.got - 2010.04.06 16:55:23.
