data_PCOD8313262
_publ_section_title
;
Structure prediction by ZEFSAII (Michael W. Deem and Ramdas Pophale) SiO2 
 PCOD8313262
Probable space group: P 4/M C C
;
_chemical_formula_sum "Si O2"
_cell_formula_units_Z 96
_cell_length_a 17.631551
_cell_length_b 17.631551
_cell_length_c 16.567933
_cell_angle_alpha 90.000000
_cell_angle_beta 90.000000
_cell_angle_gamma 90.000000
_cell_volume 5150.499686
_symmetry_space_group_name_H-M "P 4/M C C"
_symmetry_group_IT_number 124
_symmetry_cell_setting 'tetragonal'
loop_
_space_group_symop_operation_xyz
x,y,z
-y,x,z
-x,-y,z
y,-x,z
x,-y,1/2-z
-x,y,1/2-z
y,x,1/2-z
-y,-x,1/2-z
-x,-y,-z
y,-x,-z
x,y,-z
-y,x,-z
-x,y,1/2+z
x,-y,1/2+z
-y,-x,1/2+z
y,x,1/2+z
loop_
_atom_site_type_symbol
_atom_site_label
_atom_site_fract_x
_atom_site_fract_y
_atom_site_fract_z
Si Si1 0.413722 0.121719 0.257334
Si Si2 0.437529 0.606793 0.408759
Si Si3 0.042502 0.724005 0.825988
Si Si4 0.646505 0.733366 0.184194
Si Si5 0.773189 0.810350 0.093335
Si Si6 0.313936 0.103864 0.592290
O O1 0.500000 0.091895 0.250000
O O2 0.359290 0.069339 0.203219
O O3 0.410889 0.206836 0.223444
O O4 0.385850 0.121013 0.350501
O O5 0.398018 0.526668 0.393102
O O6 0.421675 0.633835 0.500000
O O7 0.403846 0.664499 0.345466
O O8 0.112156 0.776488 0.854413
O O9 0.000000 0.763887 0.750000
O O10 0.983205 0.712799 0.898899
O O11 0.707455 0.707455 0.250000
O O12 0.693511 0.768728 0.109945
O O13 0.842696 0.756291 0.118514
O O14 0.777477 0.832343 0.000000
O O15 0.338231 0.119827 0.500000
#
# Coordination Sequence:
#
# PCOD8313262 Si02
#       6
#    16  16  16  16  16  16
#     4  10  22  38  53  80 114 146 183 237 285 328
#     4   9  20  37  53  73 104 141 183 235 294 347
#     4   9  20  35  58  84 115 150 185 228 279 338
#     4  11  21  33  54  77 105 140 189 233 283 333
#     4  10  20  36  57  84 113 143 187 234 274 331
#     4  10  20  37  60  84 111 151 190 225 280 338
#
# _framework density 18.63897
#
# number of rings (size 3 to 8) (size 9 to 14) (size 15 to 20)
#    0.000    2.167    1.667    1.500    2.333    3.000 
#    0.000    6.667    0.000    0.500    0.000    5.833 
#    0.000    0.000    0.000    0.000    0.000    0.000 
#
# Total GULP energy -1190386.261715 kJ/mol
# GULP energy per Si atom -12399.856893 kJ/mol
# Density = 1.859655 g / cm^3
# Si number density = 18.638970 Si / 1000 Ang^3
#
#
#
# Elastic Constant Matrix: (Units=GPa)
#
#
# Indices 1 2 3 4 5 6 
#
# 1 89.6210 42.9564 47.7441 0.0000 0.0000 0.0000
# 2 42.9564 89.6210 47.7441 0.0000 0.0000 0.0000
# 3 47.7441 47.7441 96.7907 0.0000 0.0000 0.0000
# 4 0.0000 0.0000 0.0000 31.5336 0.0000 0.0000
# 5 0.0000 0.0000 0.0000 0.0000 31.5336 0.0000
# 6 0.0000 0.0000 0.0000 0.0000 0.0000 17.3877
#
#
#
# Elastic Compliance Matrix: (Units=1/GPa)
#
#
# Indices 1 2 3 4 5 6 
#
# 1 0.016564 -0.004865 -0.005771 0.000000 0.000000 0.000000
# 2 -0.004865 0.016564 -0.005771 0.000000 0.000000 0.000000
# 3 -0.005771 -0.005771 0.016025 0.000000 0.000000 0.000000
# 4 0.000000 0.000000 0.000000 0.031712 0.000000 0.000000
# 5 0.000000 0.000000 0.000000 0.000000 0.031712 0.000000
# 6 0.000000 0.000000 0.000000 0.000000 0.000000 0.057512
#
#
# Mechanical properties :
#
#
# Convention : Reuss Voigt Hill
#
# Bulk Modulus (GPa) = 61.20070 61.43574 61.31822
# Shear Modulus (GPa) = 23.99804 25.26351 24.63078
#
# Velocity S-wave (km/s) = 3.59210 3.68559 3.63914
# Velocity P-wave (km/s) = 7.07886 7.15150 7.11527
#
# Compressibility (1/GPa) = 0.01633968
#
# Stress axis : x y z
#
# Youngs Moduli (GPa) = 60.37051 60.37051 62.40323
#
# Poissons Ratio (x) = 0.29371 0.36012
# Poissons Ratio (y) = 0.29371 0.36012
# Poissons Ratio (z) = 0.34839 0.34839
#
# Static dielectric constant tensor:
#      x y z
#    x 3.361870 0.000000 0.000000 
#    y 0.000000 3.361870 0.000000 
#    z 0.000000 0.000000 3.472000 
# 
# 
# High freq. dielectric constant tensor:
#      x y z
#    x 1.716530 0.000000 0.000000 
#    y 0.000000 1.716530 0.000000 
#    z 0.000000 0.000000 1.728990 
# 
# From -- ./inp_files/4286.got.cif
#   From: 2010.03.12/outbox.cif.g09.slc.cpg/sg124_3_cif.got.tgz:4286.got - 2010.04.06 16:38:57.
