data_PCOD8313296
_publ_section_title
;
Structure prediction by ZEFSAII (Michael W. Deem and Ramdas Pophale) SiO2 
 PCOD8313296
Probable space group: P 4/M C C
;
_chemical_formula_sum "Si O2"
_cell_formula_units_Z 96
_cell_length_a 23.261266
_cell_length_b 23.261266
_cell_length_c 9.984016
_cell_angle_alpha 90.000000
_cell_angle_beta 90.000000
_cell_angle_gamma 90.000000
_cell_volume 5402.216233
_symmetry_space_group_name_H-M "P 4/M C C"
_symmetry_group_IT_number 124
_symmetry_cell_setting 'tetragonal'
loop_
_space_group_symop_operation_xyz
x,y,z
-y,x,z
-x,-y,z
y,-x,z
x,-y,1/2-z
-x,y,1/2-z
y,x,1/2-z
-y,-x,1/2-z
-x,-y,-z
y,-x,-z
x,y,-z
-y,x,-z
-x,y,1/2+z
x,-y,1/2+z
-y,-x,1/2+z
y,x,1/2+z
loop_
_atom_site_type_symbol
_atom_site_label
_atom_site_fract_x
_atom_site_fract_y
_atom_site_fract_z
Si Si1 0.881407 0.458648 0.000000
Si Si2 0.427010 0.245156 0.500000
Si Si3 0.607878 0.939368 0.771070
Si Si4 0.444712 0.253414 0.000000
Si Si5 0.181504 0.740541 0.158323
Si Si6 0.358645 0.262871 0.234381
Si Si7 0.888496 0.584158 0.000000
Si Si8 0.951148 0.734530 0.349365
O O1 0.898004 0.428466 0.862898
O O2 0.914408 0.519791 0.000000
O O3 0.813656 0.456343 0.000000
O O4 0.489458 0.277511 0.500000
O O5 0.390277 0.261893 0.373431
O O6 0.431743 0.177419 0.500000
O O7 0.619871 0.907794 0.629923
O O8 0.666098 0.955604 0.847560
O O9 0.574934 0.000000 0.750000
O O10 0.408402 0.274685 0.126882
O O11 0.213174 0.786827 0.250000
O O12 0.204266 0.676555 0.197201
O O13 0.114270 0.749388 0.192464
O O14 0.193637 0.750688 0.000000
O O15 0.314783 0.314783 0.250000
O O16 0.964116 0.756608 0.500000
O O17 0.000000 0.761531 0.250000
#
# Coordination Sequence:
#
# PCOD8313296 Si02
#       8
#     8   8  16   8  16  16   8  16
#     4  11  21  35  50  65  92 131 167 213 269 306
#     4  11  23  36  55  80 104 138 176 208 263 335
#     4  11  22  34  46  65  91 127 176 224 267 306
#     4  11  21  38  57  76 108 138 168 212 265 331
#     4  10  21  36  56  82 112 146 186 232 282 329
#     4  11  22  37  56  82 110 138 174 221 272 323
#     4  11  23  33  48  69  90 127 175 215 259 314
#     4  10  21  36  53  74 102 139 180 225 273 324
#
# _framework density 17.770484
#
# number of rings (size 3 to 8) (size 9 to 14) (size 15 to 20)
#    0.000    1.333    1.667    5.000    7.000    5.333 
#    0.000    0.000    0.000    0.000    0.000    0.000 
#    0.000   23.667    0.000    3.667    0.000    2.667 
#
# Total GULP energy -1189773.087941 kJ/mol
# GULP energy per Si atom -12393.469666 kJ/mol
# Density = 1.773004 g / cm^3
# Si number density = 17.770484 Si / 1000 Ang^3
#
#
#
# Elastic Constant Matrix: (Units=GPa)
#
#
# Indices 1 2 3 4 5 6 
#
# 1 71.2609 37.8718 46.3730 0.0000 0.0000 0.0000
# 2 37.8718 71.2641 46.3727 0.0000 0.0000 0.0000
# 3 46.3730 46.3727 148.0910 0.0000 0.0000 0.0000
# 4 0.0000 0.0000 0.0000 -22.2633 0.0000 0.0000
# 5 0.0000 0.0000 0.0000 0.0000 -22.2612 0.0000
# 6 0.0000 0.0000 0.0000 0.0000 0.0000 12.9097
#
#
#
# Elastic Compliance Matrix: (Units=1/GPa)
#
#
# Indices 1 2 3 4 5 6 
#
# 1 0.021218 -0.008731 -0.003910 0.000000 0.000000 0.000000
# 2 -0.008731 0.021216 -0.003909 0.000000 0.000000 0.000000
# 3 -0.003910 -0.003909 0.009201 0.000000 0.000000 0.000000
# 4 0.000000 0.000000 0.000000 -0.044917 0.000000 0.000000
# 5 0.000000 0.000000 0.000000 0.000000 -0.044921 0.000000
# 6 0.000000 0.000000 0.000000 0.000000 0.000000 0.077461
#
#
# Mechanical properties :
#
#
# Convention : Reuss Voigt Hill
#
# Bulk Modulus (GPa) = 53.95624 61.31678 57.63651
# Shear Modulus (GPa) = 63.66357 4.34360 34.00359
#
# Velocity S-wave (km/s) = 5.99193 1.56511 4.37909
# Velocity P-wave (km/s) = 8.84871 6.15190 7.62055
#
# Compressibility (1/GPa) = 0.01853354
#
# Stress axis : x y z
#
# Youngs Moduli (GPa) = 47.13046 47.13329 108.68193
#
# Poissons Ratio (x) = 0.41154 0.42494
# Poissons Ratio (y) = 0.41152 0.42489
# Poissons Ratio (z) = 0.18428 0.18427
#
# Static dielectric constant tensor:
#      x y z
#    x 3.313750 0.000000 0.000000 
#    y 0.000000 3.313750 0.000000 
#    z 0.000000 0.000000 3.699400 
# 
# 
# High freq. dielectric constant tensor:
#      x y z
#    x 1.664320 0.000000 0.000000 
#    y 0.000000 1.664320 0.000000 
#    z 0.000000 0.000000 1.710290 
# 
# From -- ./inp_files/1473.got.cif
#   From: 2010.03.12/outbox.cif.g09.slc.cpg/sg124_1_cif.got.tgz:1473.got - 2010.04.06 16:38:57.
