data_PCOD8313277
_publ_section_title
;
Structure prediction by ZEFSAII (Michael W. Deem and Ramdas Pophale) SiO2 
 PCOD8313277
Probable space group: P 4/M C C
;
_chemical_formula_sum "Si O2"
_cell_formula_units_Z 112
_cell_length_a 15.111020
_cell_length_b 15.111020
_cell_length_c 24.860440
_cell_angle_alpha 90.000000
_cell_angle_beta 90.000000
_cell_angle_gamma 90.000000
_cell_volume 5676.705597
_symmetry_space_group_name_H-M "P 4/M C C"
_symmetry_group_IT_number 124
_symmetry_cell_setting 'tetragonal'
loop_
_space_group_symop_operation_xyz
x,y,z
-y,x,z
-x,-y,z
y,-x,z
x,-y,1/2-z
-x,y,1/2-z
y,x,1/2-z
-y,-x,1/2-z
-x,-y,-z
y,-x,-z
x,y,-z
-y,x,-z
-x,y,1/2+z
x,-y,1/2+z
-y,-x,1/2+z
y,x,1/2+z
loop_
_atom_site_type_symbol
_atom_site_label
_atom_site_fract_x
_atom_site_fract_y
_atom_site_fract_z
Si Si1 0.701284 0.356880 0.102760
Si Si2 0.597272 0.728985 0.775714
Si Si3 0.743098 0.537198 0.061032
Si Si4 0.791987 0.165463 0.435619
Si Si5 0.428846 0.074833 0.388157
Si Si6 0.091692 0.601032 0.268050
Si Si7 0.250696 0.971978 0.937362
O O1 0.716874 0.402118 0.160469
O O2 0.701054 0.439468 0.061772
O O3 0.606140 0.309782 0.098459
O O4 0.777722 0.286581 0.090220
O O5 0.500000 0.727679 0.750000
O O6 0.649026 0.649026 0.750000
O O7 0.644052 0.822963 0.761123
O O8 0.843099 0.526854 0.081760
O O9 0.742673 0.573460 0.000000
O O10 0.783968 0.172904 0.500000
O O11 0.886058 0.201073 0.413376
O O12 0.785874 0.064654 0.414266
O O13 0.388094 0.106047 0.331651
O O14 0.354301 0.033617 0.425900
O O15 0.500000 0.000000 0.376016
O O16 0.086347 0.500000 0.250000
O O17 0.000000 0.649036 0.250000
O O18 0.233425 0.972279 0.000000
#
# Coordination Sequence:
#
# PCOD8313277 Si02
#       7
#    16  16  16  16  16  16  16
#     4  12  24  42  64  89 128 172 211 263 319 373
#     4  11  24  41  62  90 120 157 209 258 310 367
#     4  12  25  41  63  91 128 170 214 261 316 389
#     4  10  21  40  61  90 125 162 209 260 317 385
#     4  12  22  36  61  92 124 164 208 264 330 382
#     4  10  20  38  58  85 118 153 201 260 307 362
#     4  10  22  37  60  88 124 164 208 259 317 388
#
# _framework density 19.729752000000001
#
# number of rings (size 3 to 8) (size 9 to 14) (size 15 to 20)
#    0.000    1.000    2.857    6.000    2.000    3.000 
#    0.000    3.571    0.000    0.000    0.000    0.000 
#    0.000    0.286    0.000    0.000    0.000    0.000 
#
# Total GULP energy -1388856.405600 kJ/mol
# GULP energy per Si atom -12400.503621 kJ/mol
# Density = 1.968485 g / cm^3
# Si number density = 19.729752 Si / 1000 Ang^3
#
#
#
# Elastic Constant Matrix: (Units=GPa)
#
#
# Indices 1 2 3 4 5 6 
#
# 1 122.2145 50.6880 30.2787 0.0000 0.0000 0.0000
# 2 50.6880 122.2145 30.2787 0.0000 0.0000 0.0000
# 3 30.2787 30.2787 72.0134 0.0000 0.0000 0.0000
# 4 0.0000 0.0000 0.0000 24.6133 0.0000 0.0000
# 5 0.0000 0.0000 0.0000 0.0000 24.6133 0.0000
# 6 0.0000 0.0000 0.0000 0.0000 0.0000 14.9798
#
#
#
# Elastic Compliance Matrix: (Units=1/GPa)
#
#
# Indices 1 2 3 4 5 6 
#
# 1 0.010382 -0.003599 -0.002852 0.000000 0.000000 0.000000
# 2 -0.003599 0.010382 -0.002852 0.000000 0.000000 0.000000
# 3 -0.002852 -0.002852 0.016284 0.000000 0.000000 0.000000
# 4 0.000000 0.000000 0.000000 0.040628 0.000000 0.000000
# 5 0.000000 0.000000 0.000000 0.000000 0.040628 0.000000
# 6 0.000000 0.000000 0.000000 0.000000 0.000000 0.066757
#
#
# Mechanical properties :
#
#
# Convention : Reuss Voigt Hill
#
# Bulk Modulus (GPa) = 54.22324 59.88145 57.05234
# Shear Modulus (GPa) = 23.83064 26.52108 25.17586
#
# Velocity S-wave (km/s) = 3.47919 3.67034 3.57604
# Velocity P-wave (km/s) = 6.60926 6.95547 6.78457
#
# Compressibility (1/GPa) = 0.01844228
#
# Stress axis : x y z
#
# Youngs Moduli (GPa) = 96.32417 96.32417 61.40863
#
# Poissons Ratio (x) = 0.34669 0.17512
# Poissons Ratio (y) = 0.34669 0.17512
# Poissons Ratio (z) = 0.27469 0.27469
#
# Static dielectric constant tensor:
#      x y z
#    x 4.169390 0.000000 0.000000 
#    y 0.000000 4.169390 0.000000 
#    z 0.000000 0.000000 3.669230 
# 
# 
# High freq. dielectric constant tensor:
#      x y z
#    x 1.768800 0.000000 0.000000 
#    y 0.000000 1.768800 0.000000 
#    z 0.000000 0.000000 1.764700 
# 
# From -- ./inp_files/6079.got.cif
#   From: 2010.03.12/outbox.cif.g09.slc.cpg/sg124_4_cif.got.tgz:6079.got - 2010.04.06 16:38:57.
