data_PCOD8313822
_publ_section_title
;
Structure prediction by ZEFSAII (Michael W. Deem and Ramdas Pophale) SiO2 
 PCOD8313822
Probable space group: P 4/N N C
;
_chemical_formula_sum "Si O2"
_cell_formula_units_Z 56
_cell_length_a 12.447829
_cell_length_b 12.447829
_cell_length_c 17.189231
_cell_angle_alpha 90.000000
_cell_angle_beta 90.000000
_cell_angle_gamma 90.000000
_cell_volume 2663.444645
_symmetry_space_group_name_H-M "P 4/N N C"
_symmetry_group_IT_number 126
_space_group.IT_coordinate_system_code '2'
_symmetry_cell_setting 'tetragonal'
loop_
_space_group_symop_operation_xyz
x,y,z
1/2-y,x,z
1/2-x,1/2-y,z
y,1/2-x,z
x,1/2-y,1/2-z
1/2-x,y,1/2-z
y,x,1/2-z
1/2-y,1/2-x,1/2-z
-x,-y,-z
1/2+y,-x,-z
1/2+x,1/2+y,-z
-y,1/2+x,-z
-x,1/2+y,1/2+z
1/2+x,-y,1/2+z
-y,-x,1/2+z
1/2+y,1/2+x,1/2+z
loop_
_atom_site_type_symbol
_atom_site_label
_atom_site_fract_x
_atom_site_fract_y
_atom_site_fract_z
Si Si1 0.641059 0.021441 0.288567
Si Si2 0.916221 0.689469 0.056946
Si Si3 0.794842 0.920438 0.883971
Si Si4 0.926728 0.250000 0.250000
O O1 0.750000 0.975655 0.250000
O O2 0.641183 0.150965 0.283362
O O3 0.538812 0.961189 0.250000
O O4 0.647409 0.001944 0.381042
O O5 0.884805 0.812758 0.068726
O O6 0.966962 0.681772 0.970233
O O7 0.674483 0.878907 0.871641
O O8 0.810777 0.008274 0.818073
#
# Coordination Sequence:
#
# PCOD8313822 Si02
#       4
#    16  16  16   8
#     4  12  24  41  66  92 130 172 211 270 319 378
#     4   9  18  37  66  98 120 151 217 281 321 355
#     4   9  18  37  65  92 124 166 218 270 307 373
#     4  12  25  41  56  96 136 175 208 244 335 408
#
# _framework density 21.025404999999999
#
# number of rings (size 3 to 8) (size 9 to 14) (size 15 to 20)
#    0.000    1.714    2.857    4.714    0.000    1.429 
#    5.143    4.286    0.000    0.000    0.000    0.000 
#    0.000    0.000    0.000    0.000    0.000    0.000 
#
# Total GULP energy -694151.305349 kJ/mol
# GULP energy per Si atom -12395.559024 kJ/mol
# Density = 2.097755 g / cm^3
# Si number density = 21.025405 Si / 1000 Ang^3
#
#
#
# Elastic Constant Matrix: (Units=GPa)
#
#
# Indices 1 2 3 4 5 6 
#
# 1 79.8353 12.1936 36.3710 0.0000 0.0000 0.0000
# 2 12.1936 79.8336 36.3709 0.0000 0.0000 0.0000
# 3 36.3710 36.3709 156.0092 0.0000 0.0000 0.0000
# 4 0.0000 0.0000 0.0000 29.8343 0.0000 0.0000
# 5 0.0000 0.0000 0.0000 0.0000 29.8345 0.0000
# 6 0.0000 0.0000 0.0000 0.0000 0.0000 30.0545
#
#
#
# Elastic Compliance Matrix: (Units=1/GPa)
#
#
# Indices 1 2 3 4 5 6 
#
# 1 0.014052 -0.000731 -0.003106 0.000000 0.000000 0.000000
# 2 -0.000731 0.014053 -0.003106 0.000000 0.000000 0.000000
# 3 -0.003106 -0.003106 0.007858 0.000000 0.000000 0.000000
# 4 0.000000 0.000000 0.000000 0.033518 0.000000 0.000000
# 5 0.000000 0.000000 0.000000 0.000000 0.033518 0.000000
# 6 0.000000 0.000000 0.000000 0.000000 0.000000 0.033273
#
#
# Mechanical properties :
#
#
# Convention : Reuss Voigt Hill
#
# Bulk Modulus (GPa) = 45.29475 53.94990 49.62232
# Shear Modulus (GPa) = 31.74264 33.32751 32.53508
#
# Velocity S-wave (km/s) = 3.88974 3.98566 3.93799
# Velocity P-wave (km/s) = 6.46243 6.84805 6.65803
#
# Compressibility (1/GPa) = 0.02207761
#
# Stress axis : x y z
#
# Youngs Moduli (GPa) = 71.16269 71.16098 127.26048
#
# Poissons Ratio (x) = 0.05205 0.39521
# Poissons Ratio (y) = 0.05205 0.39522
# Poissons Ratio (z) = 0.22100 0.22100
#
# Static dielectric constant tensor:
#      x y z
#    x 3.512180 0.000000 0.000000 
#    y 0.000000 3.512190 0.000000 
#    z 0.000000 0.000000 3.991790 
# 
# 
# High freq. dielectric constant tensor:
#      x y z
#    x 1.805790 0.000000 0.000000 
#    y 0.000000 1.805790 0.000000 
#    z 0.000000 0.000000 1.840140 
# 
# From -- ./inp_files/3410.got.cif
#   From: 2010.03.12/outbox.cif.g09.slc.cpg/sg126_2_cif.got.tgz:3410.got - 2010.04.06 16:55:23.
