data_PCOD8313319
_publ_section_title
;
Structure prediction by ZEFSAII (Michael W. Deem and Ramdas Pophale) SiO2 
 PCOD8313319
Probable space group: P 4/M C C
;
_chemical_formula_sum "Si O2"
_cell_formula_units_Z 96
_cell_length_a 13.292426
_cell_length_b 13.292426
_cell_length_c 25.487954
_cell_angle_alpha 90.000000
_cell_angle_beta 90.000000
_cell_angle_gamma 90.000000
_cell_volume 4503.430628
_symmetry_space_group_name_H-M "P 4/M C C"
_symmetry_group_IT_number 124
_symmetry_cell_setting 'tetragonal'
loop_
_space_group_symop_operation_xyz
x,y,z
-y,x,z
-x,-y,z
y,-x,z
x,-y,1/2-z
-x,y,1/2-z
y,x,1/2-z
-y,-x,1/2-z
-x,-y,-z
y,-x,-z
x,y,-z
-y,x,-z
-x,y,1/2+z
x,-y,1/2+z
-y,-x,1/2+z
y,x,1/2+z
loop_
_atom_site_type_symbol
_atom_site_label
_atom_site_fract_x
_atom_site_fract_y
_atom_site_fract_z
Si Si1 0.657669 0.806092 0.124936
Si Si2 0.621194 0.391709 0.810712
Si Si3 0.538924 0.895901 0.596642
Si Si4 0.245913 0.848071 0.060220
Si Si5 0.991214 0.643035 0.190894
Si Si6 0.958168 0.157745 0.650495
O O1 0.671262 0.702395 0.156886
O O2 0.550058 0.813194 0.095325
O O3 0.746534 0.804477 0.082562
O O4 0.663785 0.901558 0.163432
O O5 0.639878 0.508274 0.825279
O O6 0.634340 0.365661 0.750000
O O7 0.632974 0.849393 0.565755
O O8 0.500000 0.000000 0.569604
O O9 0.565447 0.922928 0.657768
O O10 0.200596 0.944158 0.091257
O O11 0.215114 0.857926 0.000000
O O12 0.000000 0.601806 0.250000
O O13 0.935129 0.751742 0.191057
O O14 0.070639 0.121196 0.660316
#
# Coordination Sequence:
#
# PCOD8313319 Si02
#       6
#    16  16  16  16  16  16
#     4  11  21  39  60  87 123 162 202 261 305 370
#     4   9  19  34  55  86 119 154 195 241 302 370
#     4   9  22  42  62  89 129 162 202 264 320 375
#     4  11  24  41  64  92 118 159 217 264 315 382
#     4  10  22  39  62  92 125 164 208 246 306 380
#     4  10  21  42  61  85 125 157 203 257 311 373
#
# _framework density 21.317080000000001
#
# number of rings (size 3 to 8) (size 9 to 14) (size 15 to 20)
#    0.000    2.000    1.667    1.500    0.000   10.667 
#    0.000    1.667    0.000    0.000    0.000    3.500 
#    0.000    0.000    0.000    0.000    0.000    0.000 
#
# Total GULP energy -1190023.176701 kJ/mol
# GULP energy per Si atom -12396.074757 kJ/mol
# Density = 2.126856 g / cm^3
# Si number density = 21.317080 Si / 1000 Ang^3
#
#
#
# Elastic Constant Matrix: (Units=GPa)
#
#
# Indices 1 2 3 4 5 6 
#
# 1 78.5647 10.3593 1.4057 0.0000 0.0000 0.0000
# 2 10.3593 78.5648 1.4057 0.0000 0.0000 0.0000
# 3 1.4057 1.4057 64.3526 0.0000 0.0000 0.0000
# 4 0.0000 0.0000 0.0000 16.3850 0.0000 0.0000
# 5 0.0000 0.0000 0.0000 0.0000 16.3850 0.0000
# 6 0.0000 0.0000 0.0000 0.0000 0.0000 24.5287
#
#
#
# Elastic Compliance Matrix: (Units=1/GPa)
#
#
# Indices 1 2 3 4 5 6 
#
# 1 0.012957 -0.001704 -0.000246 0.000000 0.000000 0.000000
# 2 -0.001704 0.012957 -0.000246 0.000000 0.000000 0.000000
# 3 -0.000246 -0.000246 0.015550 0.000000 0.000000 0.000000
# 4 0.000000 0.000000 0.000000 0.061032 0.000000 0.000000
# 5 0.000000 0.000000 0.000000 0.000000 0.061032 0.000000
# 6 0.000000 0.000000 0.000000 0.000000 0.000000 0.040769
#
#
# Mechanical properties :
#
#
# Convention : Reuss Voigt Hill
#
# Bulk Modulus (GPa) = 26.97345 27.53596 27.25470
# Shear Modulus (GPa) = 22.61971 25.34715 23.98343
#
# Velocity S-wave (km/s) = 3.26100 3.45201 3.35786
# Velocity P-wave (km/s) = 5.18264 5.36971 5.27700
#
# Compressibility (1/GPa) = 0.03707350
#
# Stress axis : x y z
#
# Youngs Moduli (GPa) = 77.17558 77.17571 64.30812
#
# Poissons Ratio (x) = 0.13152 0.01581
# Poissons Ratio (y) = 0.13152 0.01581
# Poissons Ratio (z) = 0.01897 0.01897
#
# Static dielectric constant tensor:
#      x y z
#    x 3.979470 0.000000 0.000000 
#    y 0.000000 3.979480 0.000000 
#    z 0.000000 0.000000 3.402660 
# 
# 
# High freq. dielectric constant tensor:
#      x y z
#    x 1.847430 0.000000 0.000000 
#    y 0.000000 1.847430 0.000000 
#    z 0.000000 0.000000 1.794680 
# 
# From -- ./inp_files/5344.got.cif
#   From: 2010.03.12/outbox.cif.g09.slc.cpg/sg124_3_cif.got.tgz:5344.got - 2010.04.06 16:38:57.
