data_PCOD8313693
_publ_section_title
;
Structure prediction by ZEFSAII (Michael W. Deem and Ramdas Pophale) SiO2 
 PCOD8313693
Probable space group: P 4/N N C
;
_chemical_formula_sum "Si O2"
_cell_formula_units_Z 48
_cell_length_a 22.285791
_cell_length_b 22.285791
_cell_length_c 4.810846
_cell_angle_alpha 90.000000
_cell_angle_beta 90.000000
_cell_angle_gamma 90.000000
_cell_volume 2389.337843
_symmetry_space_group_name_H-M "P 4/N N C"
_symmetry_group_IT_number 126
_space_group.IT_coordinate_system_code '2'
_symmetry_cell_setting 'tetragonal'
loop_
_space_group_symop_operation_xyz
x,y,z
1/2-y,x,z
1/2-x,1/2-y,z
y,1/2-x,z
x,1/2-y,1/2-z
1/2-x,y,1/2-z
y,x,1/2-z
1/2-y,1/2-x,1/2-z
-x,-y,-z
1/2+y,-x,-z
1/2+x,1/2+y,-z
-y,1/2+x,-z
-x,1/2+y,1/2+z
1/2+x,-y,1/2+z
-y,-x,1/2+z
1/2+y,1/2+x,1/2+z
loop_
_atom_site_type_symbol
_atom_site_label
_atom_site_fract_x
_atom_site_fract_y
_atom_site_fract_z
Si Si1 0.250000 0.957076 0.750000
Si Si2 0.539043 0.750000 0.750000
Si Si3 0.928290 0.628785 0.499531
Si Si4 0.436386 0.622056 0.186466
O O1 0.275984 0.997925 0.498721
O O2 0.307288 0.918277 0.851987
O O3 0.578882 0.803749 0.621516
O O4 0.917194 0.582807 0.750000
O O5 0.993730 0.614729 0.379083
O O6 0.880489 0.619512 0.250000
O O7 0.421684 0.603639 0.500152
#
# Coordination Sequence:
#
# PCOD8313693 Si02
#       4
#     8   8  16  16
#     4  10  20  38  58  77 110 157 202 228 266 344
#     4  10  20  38  58  79 112 157 198 226 270 346
#     4  11  22  36  57  86 118 152 189 235 289 343
#     4  11  22  36  57  84 115 151 187 232 287 340
#
# _framework density 20.089248999999999
#
# number of rings (size 3 to 8) (size 9 to 14) (size 15 to 20)
#    0.000    1.333    0.000   10.000    0.000    4.000 
#    0.000    0.000    0.000    3.500    0.000   11.667 
#    0.000    0.000    0.000    0.000    0.000    0.000 
#
# Total GULP energy -595075.330590 kJ/mol
# GULP energy per Si atom -12397.402721 kJ/mol
# Density = 2.004352 g / cm^3
# Si number density = 20.089249 Si / 1000 Ang^3
#
#
#
# Elastic Constant Matrix: (Units=GPa)
#
#
# Indices 1 2 3 4 5 6 
#
# 1 90.3902 61.9264 35.0457 0.0000 0.0000 0.0000
# 2 61.9264 90.3904 35.0456 0.0000 0.0000 0.0000
# 3 35.0457 35.0456 115.6712 0.0000 0.0000 0.0000
# 4 0.0000 0.0000 0.0000 39.9274 0.0000 0.0000
# 5 0.0000 0.0000 0.0000 0.0000 39.9276 0.0000
# 6 0.0000 0.0000 0.0000 0.0000 0.0000 4.7949
#
#
#
# Elastic Compliance Matrix: (Units=1/GPa)
#
#
# Indices 1 2 3 4 5 6 
#
# 1 0.021381 -0.013752 -0.002311 0.000000 0.000000 0.000000
# 2 -0.013752 0.021381 -0.002311 0.000000 0.000000 0.000000
# 3 -0.002311 -0.002311 0.010046 0.000000 0.000000 0.000000
# 4 0.000000 0.000000 0.000000 0.025045 0.000000 0.000000
# 5 0.000000 0.000000 0.000000 0.000000 0.025045 0.000000
# 6 0.000000 0.000000 0.000000 0.000000 0.000000 0.208554
#
#
# Mechanical properties :
#
#
# Convention : Reuss Voigt Hill
#
# Bulk Modulus (GPa) = 62.27400 62.27634 62.27517
# Shear Modulus (GPa) = 14.14213 27.89226 21.01719
#
# Velocity S-wave (km/s) = 2.65611 3.73019 3.23800
# Velocity P-wave (km/s) = 6.36180 7.04411 6.71164
#
# Compressibility (1/GPa) = 0.01605807
#
# Stress axis : x y z
#
# Youngs Moduli (GPa) = 46.77143 46.77158 99.54435
#
# Poissons Ratio (x) = 0.64319 0.23009
# Poissons Ratio (y) = 0.64318 0.23008
# Poissons Ratio (z) = 0.10811 0.10810
#
# Static dielectric constant tensor:
#      x y z
#    x 3.524240 0.000000 0.000000 
#    y 0.000000 3.524240 0.000000 
#    z 0.000000 0.000000 4.233410 
# 
# 
# High freq. dielectric constant tensor:
#      x y z
#    x 1.760740 0.000000 0.000000 
#    y 0.000000 1.760740 0.000000 
#    z 0.000000 0.000000 1.819570 
# 
# From -- ./inp_files/308.got.cif
#   From: 2010.03.12/outbox.cif.g09.slc.cpg/sg126_1_cif.got.tgz:308.got - 2010.04.06 16:55:23.
