data_PCOD8313322
_publ_section_title
;
Structure prediction by ZEFSAII (Michael W. Deem and Ramdas Pophale) SiO2 
 PCOD8313322
Probable space group: P 4/M C C
;
_chemical_formula_sum "Si O2"
_cell_formula_units_Z 52
_cell_length_a 16.299724
_cell_length_b 16.299724
_cell_length_c 9.146834
_cell_angle_alpha 90.000000
_cell_angle_beta 90.000000
_cell_angle_gamma 90.000000
_cell_volume 2430.140027
_symmetry_space_group_name_H-M "P 4/M C C"
_symmetry_group_IT_number 124
_symmetry_cell_setting 'tetragonal'
loop_
_space_group_symop_operation_xyz
x,y,z
-y,x,z
-x,-y,z
y,-x,z
x,-y,1/2-z
-x,y,1/2-z
y,x,1/2-z
-y,-x,1/2-z
-x,-y,-z
y,-x,-z
x,y,-z
-y,x,-z
-x,y,1/2+z
x,-y,1/2+z
-y,-x,1/2+z
y,x,1/2+z
loop_
_atom_site_type_symbol
_atom_site_label
_atom_site_fract_x
_atom_site_fract_y
_atom_site_fract_z
Si Si1 0.214134 0.087998 0.676764
Si Si2 0.625420 0.872990 0.841734
Si Si3 0.740742 0.500000 0.250000
Si Si4 0.464384 0.629789 0.000000
Si Si5 0.500000 0.000000 0.250000
O O1 0.151148 0.151148 0.750000
O O2 0.204490 0.084523 0.500000
O O3 0.307028 0.116036 0.714787
O O4 0.196528 0.000000 0.750000
O O5 0.572353 0.791510 0.824460
O O6 0.559662 0.946006 0.849663
O O7 0.670426 0.870470 0.000000
O O8 0.684860 0.449096 0.359989
O O9 0.400377 0.557409 0.000000
#
# Coordination Sequence:
#
# PCOD8313322 Si02
#       5
#    16  16   8   8   4
#     4  12  27  48  75 107 145 187 236 289 352 420
#     4  11  23  42  67 103 141 183 227 284 350 416
#     4  11  24  42  66  97 136 178 234 293 360 414
#     4  11  24  44  66  91 128 182 236 293 350 420
#     4  10  22  36  76 100 144 174 230 270 346 412
#
# _framework density 21.397943000000001
#
# number of rings (size 3 to 8) (size 9 to 14) (size 15 to 20)
#    0.000    0.769    3.077    4.154    2.154    5.231 
#    0.000    1.538    0.000    0.000    0.000    0.000 
#    0.000    0.000    0.000    0.000    0.000    0.000 
#
# Total GULP energy -644624.035693 kJ/mol
# GULP energy per Si atom -12396.616071 kJ/mol
# Density = 2.134924 g / cm^3
# Si number density = 21.397943 Si / 1000 Ang^3
#
#
#
# Elastic Constant Matrix: (Units=GPa)
#
#
# Indices 1 2 3 4 5 6 
#
# 1 113.1090 39.6558 38.7671 0.0000 0.0000 0.0000
# 2 39.6558 113.1090 38.7671 0.0000 0.0000 0.0000
# 3 38.7671 38.7671 174.3193 0.0000 0.0000 0.0000
# 4 0.0000 0.0000 0.0000 26.5710 0.0000 0.0000
# 5 0.0000 0.0000 0.0000 0.0000 26.5710 0.0000
# 6 0.0000 0.0000 0.0000 0.0000 0.0000 752.5998
#
#
#
# Elastic Compliance Matrix: (Units=1/GPa)
#
#
# Indices 1 2 3 4 5 6 
#
# 1 0.010496 -0.003118 -0.001641 0.000000 0.000000 0.000000
# 2 -0.003118 0.010496 -0.001641 0.000000 0.000000 0.000000
# 3 -0.001641 -0.001641 0.006466 0.000000 0.000000 0.000000
# 4 0.000000 0.000000 0.000000 0.037635 0.000000 0.000000
# 5 0.000000 0.000000 0.000000 0.000000 0.037635 0.000000
# 6 0.000000 0.000000 0.000000 0.000000 0.000000 0.001329
#
#
# Mechanical properties :
#
#
# Convention : Reuss Voigt Hill
#
# Bulk Modulus (GPa) = 68.21163 70.54636 69.37899
# Shear Modulus (GPa) = 41.06969 180.03818 110.55393
#
# Velocity S-wave (km/s) = 4.38577 9.18263 7.19568
# Velocity P-wave (km/s) = 7.58904 12.06101 10.07625
#
# Compressibility (1/GPa) = 0.01466026
#
# Stress axis : x y z
#
# Youngs Moduli (GPa) = 95.26993 95.26993 154.64345
#
# Poissons Ratio (x) = 0.29701 0.25377
# Poissons Ratio (y) = 0.29701 0.25377
# Poissons Ratio (z) = 0.15634 0.15634
#
# Static dielectric constant tensor:
#      x y z
#    x 3.933530 0.000000 0.000000 
#    y 0.000000 3.933530 0.000000 
#    z 0.000000 0.000000 3.895050 
# 
# 
# High freq. dielectric constant tensor:
#      x y z
#    x 1.845430 0.000000 0.000000 
#    y 0.000000 1.845430 0.000000 
#    z 0.000000 0.000000 1.852380 
# 
# From -- ./inp_files/589.got.cif
#   From: 2010.03.12/outbox.cif.g09.slc.cpg/sg124_1_cif.got.tgz:589.got - 2010.04.06 16:38:57.
