data_PCOD8313458
_publ_section_title
;
Structure prediction by ZEFSAII (Michael W. Deem and Ramdas Pophale) SiO2 
 PCOD8313458
Probable space group: P 4/N B M
;
_chemical_formula_sum "Si O2"
_cell_formula_units_Z 88
_cell_length_a 14.908582
_cell_length_b 14.908582
_cell_length_c 20.719198
_cell_angle_alpha 90.000000
_cell_angle_beta 90.000000
_cell_angle_gamma 90.000000
_cell_volume 4605.169476
_symmetry_space_group_name_H-M "P 4/N B M"
_symmetry_group_IT_number 125
_space_group.IT_coordinate_system_code '2'
_symmetry_cell_setting 'tetragonal'
loop_
_space_group_symop_operation_xyz
x,y,z
1/2-y,x,z
1/2-x,1/2-y,z
y,1/2-x,z
x,1/2-y,-z
1/2-x,y,-z
y,x,-z
1/2-y,1/2-x,-z
-x,-y,-z
1/2+y,-x,-z
1/2+x,1/2+y,-z
-y,1/2+x,-z
-x,1/2+y,z
1/2+x,-y,z
-y,-x,z
1/2+y,1/2+x,z
loop_
_atom_site_type_symbol
_atom_site_label
_atom_site_fract_x
_atom_site_fract_y
_atom_site_fract_z
Si Si1 0.321075 0.678926 0.343394
Si Si2 0.242701 0.482964 0.637405
Si Si3 0.679140 0.320861 0.808437
Si Si4 0.750000 0.106046 0.000000
Si Si5 0.104830 0.281121 0.770921
Si Si6 0.048114 0.802759 0.865803
Si Si7 0.566048 0.579625 0.575928
O O1 0.250000 0.750000 0.370602
O O2 0.294715 0.582363 0.368551
O O3 0.321876 0.678125 0.267250
O O4 0.282904 0.457611 0.707583
O O5 0.160909 0.419998 0.614129
O O6 0.325269 0.479542 0.588800
O O7 0.750000 0.250000 0.837537
O O8 0.709986 0.416770 0.834362
O O9 0.712530 0.042925 0.942875
O O10 0.669698 0.169698 0.026396
O O11 0.144901 0.181939 0.771503
O O12 0.049520 0.311824 0.834443
O O13 0.110944 0.889057 0.849259
O O14 0.578059 0.578059 0.500000
O O15 0.501848 0.498153 0.599534
#
# Coordination Sequence:
#
# PCOD8313458 Si02
#       7
#     8  16   8   8  16  16  16
#     4  11  22  36  61  97 128 157 201 253 320 377
#     4  12  22  41  66  92 121 166 208 256 312 371
#     4   9  16  28  52  85 121 149 179 238 300 350
#     4   9  16  30  58  91 126 162 196 247 308 360
#     4  11  24  42  60  84 122 161 204 253 307 366
#     4  10  19  35  58  91 122 157 200 244 302 360
#     4  11  25  43  64  92 130 165 208 256 312 378
#
# _framework density 19.10896
#
# number of rings (size 3 to 8) (size 9 to 14) (size 15 to 20)
#    0.000    1.364    5.455    1.091    0.000    1.091 
#    3.273    1.818    0.000    3.273    0.000    0.000 
#    0.000    0.000    0.000    0.000    0.000    0.000 
#
# Total GULP energy -1090975.719728 kJ/mol
# GULP energy per Si atom -12397.451361 kJ/mol
# Density = 1.906547 g / cm^3
# Si number density = 19.108960 Si / 1000 Ang^3
#
#
#
# Elastic Constant Matrix: (Units=GPa)
#
#
# Indices 1 2 3 4 5 6 
#
# 1 91.3635 49.4414 46.0255 0.0000 0.0000 0.0000
# 2 49.4414 91.3635 46.0255 0.0000 0.0000 0.0000
# 3 46.0255 46.0255 81.1978 0.0000 0.0000 0.0000
# 4 0.0000 0.0000 0.0000 28.8434 0.0000 0.0000
# 5 0.0000 0.0000 0.0000 0.0000 28.8434 0.0000
# 6 0.0000 0.0000 0.0000 0.0000 0.0000 24.5557
#
#
#
# Elastic Compliance Matrix: (Units=1/GPa)
#
#
# Indices 1 2 3 4 5 6 
#
# 1 0.017568 -0.006285 -0.006396 0.000000 0.000000 0.000000
# 2 -0.006285 0.017568 -0.006396 0.000000 0.000000 0.000000
# 3 -0.006396 -0.006396 0.019566 0.000000 0.000000 0.000000
# 4 0.000000 0.000000 0.000000 0.034670 0.000000 0.000000
# 5 0.000000 0.000000 0.000000 0.000000 0.034670 0.000000
# 6 0.000000 0.000000 0.000000 0.000000 0.000000 0.040724
#
#
# Mechanical properties :
#
#
# Convention : Reuss Voigt Hill
#
# Bulk Modulus (GPa) = 60.42355 60.76773 60.59564
# Shear Modulus (GPa) = 23.98811 24.61067 24.29939
#
# Velocity S-wave (km/s) = 3.54691 3.59264 3.56985
# Velocity P-wave (km/s) = 6.96156 7.00565 6.98364
#
# Compressibility (1/GPa) = 0.01654984
#
# Stress axis : x y z
#
# Youngs Moduli (GPa) = 56.92011 56.92011 51.10879
#
# Poissons Ratio (x) = 0.35776 0.32687
# Poissons Ratio (y) = 0.35776 0.32687
# Poissons Ratio (z) = 0.36404 0.36404
#
# Static dielectric constant tensor:
#      x y z
#    x 3.499330 0.000000 0.000000 
#    y 0.000000 3.499330 0.000000 
#    z 0.000000 0.000000 3.365720 
# 
# 
# High freq. dielectric constant tensor:
#      x y z
#    x 1.736990 0.000000 0.000000 
#    y 0.000000 1.736990 0.000000 
#    z 0.000000 0.000000 1.742760 
# 
# From -- ./inp_files/5883.got.cif
#   From: 2010.03.12/outbox.cif.g09.slc.cpg/sg125_3_cif.got.tgz:5883.got - 2010.04.06 16:47:52.
