data_PCOD8313356
_publ_section_title
;
Structure prediction by ZEFSAII (Michael W. Deem and Ramdas Pophale) SiO2 
 PCOD8313356
Probable space group: P 4/M C C
;
_chemical_formula_sum "Si O2"
_cell_formula_units_Z 88
_cell_length_a 15.518933
_cell_length_b 15.518933
_cell_length_c 19.993259
_cell_angle_alpha 90.000000
_cell_angle_beta 90.000000
_cell_angle_gamma 90.000000
_cell_volume 4815.122145
_symmetry_space_group_name_H-M "P 4/M C C"
_symmetry_group_IT_number 124
_symmetry_cell_setting 'tetragonal'
loop_
_space_group_symop_operation_xyz
x,y,z
-y,x,z
-x,-y,z
y,-x,z
x,-y,1/2-z
-x,y,1/2-z
y,x,1/2-z
-y,-x,1/2-z
-x,-y,-z
y,-x,-z
x,y,-z
-y,x,-z
-x,y,1/2+z
x,-y,1/2+z
-y,-x,1/2+z
y,x,1/2+z
loop_
_atom_site_type_symbol
_atom_site_label
_atom_site_fract_x
_atom_site_fract_y
_atom_site_fract_z
Si Si1 0.510389 0.266780 0.134140
Si Si2 0.517146 0.640804 0.000000
Si Si3 0.121767 0.059067 0.079393
Si Si4 0.330966 0.306417 0.176993
Si Si5 0.905588 0.475680 0.923021
Si Si6 0.713473 0.839093 0.922946
O O1 0.471924 0.299350 0.063854
O O2 0.433114 0.287024 0.185853
O O3 0.595013 0.316775 0.155609
O O4 0.525300 0.164194 0.123705
O O5 0.425579 0.595049 0.000000
O O6 0.209712 0.101465 0.105519
O O7 0.039441 0.114028 0.105436
O O8 0.122267 0.058041 0.000000
O O9 0.289741 0.289741 0.250000
O O10 0.286701 0.246280 0.122020
O O11 0.893589 0.373436 0.915482
O O12 0.000000 0.500000 0.895848
O O13 0.895631 0.505768 0.000000
O O14 0.728789 0.811119 0.000000
#
# Coordination Sequence:
#
# PCOD8313356 Si02
#       6
#    16   8  16  16  16  16
#     4  11  21  35  56  76 110 138 178 214 264 314
#     4  11  20  32  53  86 112 138 167 214 268 317
#     4   8  14  27  50  81 112 135 163 216 277 325
#     4  11  24  38  53  75 106 143 180 218 261 309
#     4   9  18  31  50  78 109 138 170 219 265 308
#     4   9  19  33  53  78 106 137 178 219 263 318
#
# _framework density 18.275756999999999
#
# number of rings (size 3 to 8) (size 9 to 14) (size 15 to 20)
#    0.000    2.273    2.727    1.091    2.545    1.818 
#    0.000    4.545    0.000   14.182    0.000    1.273 
#    0.000    0.000    0.000    0.000    0.000    0.000 
#
# Total GULP energy -1091072.076411 kJ/mol
# GULP energy per Si atom -12398.546323 kJ/mol
# Density = 1.823416 g / cm^3
# Si number density = 18.275757 Si / 1000 Ang^3
#
#
#
# Elastic Constant Matrix: (Units=GPa)
#
#
# Indices 1 2 3 4 5 6 
#
# 1 102.7307 41.1323 22.7764 0.0000 0.0000 0.0000
# 2 41.1323 102.7307 22.7764 0.0000 0.0000 0.0000
# 3 22.7764 22.7764 61.9504 0.0000 0.0000 0.0000
# 4 0.0000 0.0000 0.0000 9.8941 0.0000 0.0000
# 5 0.0000 0.0000 0.0000 0.0000 9.8941 0.0000
# 6 0.0000 0.0000 0.0000 0.0000 0.0000 27.3499
#
#
#
# Elastic Compliance Matrix: (Units=1/GPa)
#
#
# Indices 1 2 3 4 5 6 
#
# 1 0.012051 -0.004184 -0.002892 0.000000 0.000000 0.000000
# 2 -0.004184 0.012051 -0.002892 0.000000 0.000000 0.000000
# 3 -0.002892 -0.002892 0.018269 0.000000 0.000000 0.000000
# 4 0.000000 0.000000 0.000000 0.101070 0.000000 0.000000
# 5 0.000000 0.000000 0.000000 0.000000 0.101070 0.000000
# 6 0.000000 0.000000 0.000000 0.000000 0.000000 0.036563
#
#
# Mechanical properties :
#
#
# Convention : Reuss Voigt Hill
#
# Bulk Modulus (GPa) = 44.57672 48.97579 46.77626
# Shear Modulus (GPa) = 16.20809 21.47606 18.84207
#
# Velocity S-wave (km/s) = 2.98125 3.43171 3.21438
# Velocity P-wave (km/s) = 6.02450 6.52369 6.27906
#
# Compressibility (1/GPa) = 0.02243323
#
# Stress axis : x y z
#
# Youngs Moduli (GPa) = 82.98394 82.98394 54.73842
#
# Poissons Ratio (x) = 0.34718 0.15832
# Poissons Ratio (y) = 0.34718 0.15832
# Poissons Ratio (z) = 0.24002 0.24002
#
# Static dielectric constant tensor:
#      x y z
#    x 3.469310 0.000000 0.000000 
#    y 0.000000 3.469310 0.000000 
#    z 0.000000 0.000000 3.126760 
# 
# 
# High freq. dielectric constant tensor:
#      x y z
#    x 1.708820 0.000000 0.000000 
#    y 0.000000 1.708820 0.000000 
#    z 0.000000 0.000000 1.673820 
# 
# From -- ./inp_files/5172.got.cif
#   From: 2010.03.12/outbox.cif.g09.slc.cpg/sg124_3_cif.got.tgz:5172.got - 2010.04.06 16:38:57.
