data_PCOD8313728
_publ_section_title
;
Structure prediction by ZEFSAII (Michael W. Deem and Ramdas Pophale) SiO2 
 PCOD8313728
Probable space group: P 4/N N C
;
_chemical_formula_sum "Si O2"
_cell_formula_units_Z 68
_cell_length_a 16.386594
_cell_length_b 16.386594
_cell_length_c 13.561708
_cell_angle_alpha 90.000000
_cell_angle_beta 90.000000
_cell_angle_gamma 90.000000
_cell_volume 3641.596110
_symmetry_space_group_name_H-M "P 4/N N C"
_symmetry_group_IT_number 126
_space_group.IT_coordinate_system_code '2'
_symmetry_cell_setting 'tetragonal'
loop_
_space_group_symop_operation_xyz
x,y,z
1/2-y,x,z
1/2-x,1/2-y,z
y,1/2-x,z
x,1/2-y,1/2-z
1/2-x,y,1/2-z
y,x,1/2-z
1/2-y,1/2-x,1/2-z
-x,-y,-z
1/2+y,-x,-z
1/2+x,1/2+y,-z
-y,1/2+x,-z
-x,1/2+y,1/2+z
1/2+x,-y,1/2+z
-y,-x,1/2+z
1/2+y,1/2+x,1/2+z
loop_
_atom_site_type_symbol
_atom_site_label
_atom_site_fract_x
_atom_site_fract_y
_atom_site_fract_z
Si Si1 0.287182 0.378726 0.572471
Si Si2 0.114603 0.824769 0.380702
Si Si3 0.750000 0.250000 0.750000
Si Si4 0.987519 0.863385 0.219587
Si Si5 0.952487 0.173809 0.977993
O O1 0.194907 0.350268 0.556636
O O2 0.302416 0.414908 0.682660
O O3 0.305974 0.452510 0.494887
O O4 0.195280 0.808581 0.317519
O O5 0.122187 0.912243 0.434348
O O6 0.100701 0.756125 0.463632
O O7 0.034576 0.823594 0.311609
O O8 0.950764 0.950764 0.250000
O O9 0.049547 0.875882 0.126656
#
# Coordination Sequence:
#
# PCOD8313728 Si02
#       5
#    16  16   4  16  16
#     4   9  19  37  61  87 114 148 192 241 294 350
#     4  12  22  39  55  84 115 153 195 238 289 350
#     4  12  20  38  64  76 114 156 208 242 276 360
#     4  10  22  38  57  84 119 148 187 239 297 347
#     4  10  23  36  56  85 115 154 187 237 290 348
#
# _framework density 18.673131999999999
#
# number of rings (size 3 to 8) (size 9 to 14) (size 15 to 20)
#    1.412    0.235    2.353    2.824    3.294    0.941 
#    0.000    1.176    0.000    0.000    0.000    0.000 
#    0.000    1.882    0.000    0.000    0.000    0.000 
#
# Total GULP energy -842579.305803 kJ/mol
# GULP energy per Si atom -12390.872144 kJ/mol
# Density = 1.863063 g / cm^3
# Si number density = 18.673132 Si / 1000 Ang^3
#
#
#
# Elastic Constant Matrix: (Units=GPa)
#
#
# Indices 1 2 3 4 5 6 
#
# 1 100.0311 49.1241 33.2414 0.0000 0.0000 0.0000
# 2 49.1241 100.0311 33.2414 0.0000 0.0000 0.0000
# 3 33.2414 33.2414 55.5882 0.0000 0.0000 0.0000
# 4 0.0000 0.0000 0.0000 25.6360 0.0000 0.0000
# 5 0.0000 0.0000 0.0000 0.0000 25.6360 0.0000
# 6 0.0000 0.0000 0.0000 0.0000 0.0000 34.9371
#
#
#
# Elastic Compliance Matrix: (Units=1/GPa)
#
#
# Indices 1 2 3 4 5 6 
#
# 1 0.014392 -0.005251 -0.005466 0.000000 0.000000 0.000000
# 2 -0.005251 0.014392 -0.005466 0.000000 0.000000 0.000000
# 3 -0.005466 -0.005466 0.024527 0.000000 0.000000 0.000000
# 4 0.000000 0.000000 0.000000 0.039008 0.000000 0.000000
# 5 0.000000 0.000000 0.000000 0.000000 0.039008 0.000000
# 6 0.000000 0.000000 0.000000 0.000000 0.000000 0.028623
#
#
# Mechanical properties :
#
#
# Convention : Reuss Voigt Hill
#
# Bulk Modulus (GPa) = 47.74657 54.09602 50.92129
# Shear Modulus (GPa) = 25.08800 26.57804 25.83302
#
# Velocity S-wave (km/s) = 3.66940 3.77680 3.72349
# Velocity P-wave (km/s) = 6.60135 6.93194 6.76867
#
# Compressibility (1/GPa) = 0.02094391
#
# Stress axis : x y z
#
# Youngs Moduli (GPa) = 69.48183 69.48183 40.77158
#
# Poissons Ratio (x) = 0.36488 0.22286
# Poissons Ratio (y) = 0.36488 0.22286
# Poissons Ratio (z) = 0.37980 0.37980
#
# Static dielectric constant tensor:
#      x y z
#    x 3.429120 0.000000 0.000000 
#    y 0.000000 3.429120 0.000000 
#    z 0.000000 0.000000 3.111770 
# 
# 
# High freq. dielectric constant tensor:
#      x y z
#    x 1.723210 0.000000 0.000000 
#    y 0.000000 1.723210 0.000000 
#    z 0.000000 0.000000 1.689850 
# 
# From -- ./inp_files/3558.got.cif
#   From: 2010.03.12/outbox.cif.g09.slc.cpg/sg126_2_cif.got.tgz:3558.got - 2010.04.06 16:55:23.
