data_PCOD8313063
_publ_section_title
;
Structure prediction by ZEFSAII (Michael W. Deem and Ramdas Pophale) SiO2 
 PCOD8313063
Probable space group: P 4/M C C
;
_chemical_formula_sum "Si O2"
_cell_formula_units_Z 80
_cell_length_a 18.663390
_cell_length_b 18.663390
_cell_length_c 13.664178
_cell_angle_alpha 90.000000
_cell_angle_beta 90.000000
_cell_angle_gamma 90.000000
_cell_volume 4759.535535
_symmetry_space_group_name_H-M "P 4/M C C"
_symmetry_group_IT_number 124
_symmetry_cell_setting 'tetragonal'
loop_
_space_group_symop_operation_xyz
x,y,z
-y,x,z
-x,-y,z
y,-x,z
x,-y,1/2-z
-x,y,1/2-z
y,x,1/2-z
-y,-x,1/2-z
-x,-y,-z
y,-x,-z
x,y,-z
-y,x,-z
-x,y,1/2+z
x,-y,1/2+z
-y,-x,1/2+z
y,x,1/2+z
loop_
_atom_site_type_symbol
_atom_site_label
_atom_site_fract_x
_atom_site_fract_y
_atom_site_fract_z
Si Si1 0.623761 0.299992 0.887639
Si Si2 0.924257 0.816099 0.198370
Si Si3 0.282780 0.500000 0.250000
Si Si4 0.109876 0.955120 0.000000
Si Si5 0.816879 0.701144 0.227451
Si Si6 0.610810 0.768307 0.888493
O O1 0.560954 0.326611 0.811975
O O2 0.650343 0.220518 0.854380
O O3 0.688731 0.355709 0.879233
O O4 0.595991 0.296613 0.000000
O O5 0.873073 0.873073 0.250000
O O6 0.892449 0.734880 0.194803
O O7 0.000000 0.813548 0.250000
O O8 0.934751 0.840916 0.089293
O O9 0.233657 0.534350 0.165004
O O10 0.038589 0.908040 0.000000
O O11 0.767944 0.767944 0.250000
O O12 0.826080 0.658768 0.330263
O O13 0.602914 0.793548 0.000000
#
# Coordination Sequence:
#
# PCOD8313063 Si02
#       6
#    16  16   8   8  16  16
#     4   9  17  29  46  69  93 123 155 193 238 284
#     4  11  21  35  49  70  98 128 166 203 238 284
#     4  10  16  26  46  71  97 122 156 192 236 284
#     4  11  22  34  50  68  96 140 173 201 241 278
#     4   8  17  31  46  66  92 122 154 199 244 279
#     4   9  17  31  48  70  98 125 157 196 240 289
#
# _framework density 16.808361999999999
#
# number of rings (size 3 to 8) (size 9 to 14) (size 15 to 20)
#    0.000    2.500    2.000    2.400    1.400    0.200 
#    7.200    0.000    0.000    4.800    0.000   22.400 
#    0.000   12.800    0.000    0.000    0.000    0.000 
#
# Total GULP energy -991064.250895 kJ/mol
# GULP energy per Si atom -12388.303136 kJ/mol
# Density = 1.677011 g / cm^3
# Si number density = 16.808362 Si / 1000 Ang^3
#
#
#
# Elastic Constant Matrix: (Units=GPa)
#
#
# Indices 1 2 3 4 5 6 
#
# 1 56.2106 37.7134 42.7645 0.0000 0.0000 0.0000
# 2 37.7134 56.2106 42.7645 0.0000 0.0000 0.0000
# 3 42.7645 42.7645 156.3774 0.0000 0.0000 0.0000
# 4 0.0000 0.0000 0.0000 19.4065 0.0000 0.0000
# 5 0.0000 0.0000 0.0000 0.0000 19.4065 0.0000
# 6 0.0000 0.0000 0.0000 0.0000 0.0000 16.8768
#
#
#
# Elastic Compliance Matrix: (Units=1/GPa)
#
#
# Indices 1 2 3 4 5 6 
#
# 1 0.034120 -0.019942 -0.003877 0.000000 0.000000 0.000000
# 2 -0.019942 0.034120 -0.003877 0.000000 0.000000 0.000000
# 3 -0.003877 -0.003877 0.008515 0.000000 0.000000 0.000000
# 4 0.000000 0.000000 0.000000 0.051529 0.000000 0.000000
# 5 0.000000 0.000000 0.000000 0.000000 0.051529 0.000000
# 6 0.000000 0.000000 0.000000 0.000000 0.000000 0.059253
#
#
# Mechanical properties :
#
#
# Convention : Reuss Voigt Hill
#
# Bulk Modulus (GPa) = 46.81247 57.25373 52.03310
# Shear Modulus (GPa) = 16.57935 20.84171 18.71053
#
# Velocity S-wave (km/s) = 3.14407 3.52513 3.34004
# Velocity P-wave (km/s) = 6.41026 7.12077 6.77483
#
# Compressibility (1/GPa) = 0.02136183
#
# Stress axis : x y z
#
# Youngs Moduli (GPa) = 29.30845 29.30845 117.43527
#
# Poissons Ratio (x) = 0.58448 0.45531
# Poissons Ratio (y) = 0.58448 0.45531
# Poissons Ratio (z) = 0.11363 0.11363
#
# Static dielectric constant tensor:
#      x y z
#    x 3.102240 0.000000 0.000000 
#    y 0.000000 3.102240 0.000000 
#    z 0.000000 0.000000 3.391660 
# 
# 
# High freq. dielectric constant tensor:
#      x y z
#    x 1.619860 0.000000 0.000000 
#    y 0.000000 1.619860 0.000000 
#    z 0.000000 0.000000 1.670110 
# 
# From -- ./inp_files/3141.got.cif
#   From: 2010.03.12/outbox.cif.g09.slc.cpg/sg124_2_cif.got.tgz:3141.got - 2010.04.06 16:38:57.
