data_PCOD8313942
_publ_section_title
;
Structure prediction by ZEFSAII (Michael W. Deem and Ramdas Pophale) SiO2 
 PCOD8313942
Probable space group: P 4/M B M
;
_chemical_formula_sum "Si O2"
_cell_formula_units_Z 104
_cell_length_a 26.733651
_cell_length_b 26.733651
_cell_length_c 8.150010
_cell_angle_alpha 90.000000
_cell_angle_beta 90.000000
_cell_angle_gamma 90.000000
_cell_volume 5824.715128
_symmetry_space_group_name_H-M "P 4/M B M"
_symmetry_group_IT_number 127
_symmetry_cell_setting 'tetragonal'
loop_
_space_group_symop_operation_xyz
x,y,z
-y,x,z
-x,-y,z
y,-x,z
1/2+x,1/2-y,-z
1/2-x,1/2+y,-z
1/2+y,1/2+x,-z
1/2-y,1/2-x,-z
-x,-y,-z
y,-x,-z
x,y,-z
-y,x,-z
1/2-x,1/2+y,z
1/2+x,1/2-y,z
1/2-y,1/2-x,z
1/2+y,1/2+x,z
loop_
_atom_site_type_symbol
_atom_site_label
_atom_site_fract_x
_atom_site_fract_y
_atom_site_fract_z
Si Si1 0.369010 0.423368 0.687492
Si Si2 0.630891 0.789896 0.808182
Si Si3 0.492726 0.291946 0.309281
Si Si4 0.817139 0.473031 0.688449
Si Si5 0.431776 0.455112 0.000000
Si Si6 0.577808 0.000139 0.192059
Si Si7 0.178971 0.111274 0.809859
O O1 0.387854 0.435177 0.500000
O O2 0.318035 0.453877 0.721986
O O3 0.408011 0.437232 0.829063
O O4 0.360421 0.363721 0.704324
O O5 0.683137 0.816864 0.764535
O O6 0.586482 0.819042 0.717110
O O7 0.633837 0.732194 0.751305
O O8 0.618720 0.792658 0.000000
O O9 0.478283 0.290777 0.500000
O O10 0.494994 0.235181 0.239511
O O11 0.448641 0.322371 0.218761
O O12 0.820887 0.485714 0.500000
O O13 0.863721 0.500890 0.768943
O O14 0.485871 0.431102 0.000000
O O15 0.550151 0.050151 0.261365
O O16 0.549188 0.950813 0.263909
O O17 0.571775 0.999336 0.000000
O O18 0.168503 0.122070 0.000000
#
# Coordination Sequence:
#
# PCOD8313942 Si02
#       7
#    16  16  16  16   8  16  16
#     4  11  22  37  56  76 106 143 175 217 268 314
#     4   9  18  32  50  74 105 137 167 207 262 315
#     4   9  20  35  51  73 101 135 170 208 261 316
#     4  10  19  31  48  74 104 132 170 216 257 306
#     4  11  24  38  54  80 107 134 176 217 255 318
#     4   9  18  32  48  68  99 138 175 210 255 313
#     4  10  19  32  53  78 102 133 174 217 258 308
#
# _framework density 17.854949999999999
#
# number of rings (size 3 to 8) (size 9 to 14) (size 15 to 20)
#    0.000    2.231    0.769    2.769    1.077    5.846 
#    0.000    1.538    0.000    0.923    0.000    4.308 
#    0.000    0.000    0.000    0.000    0.000    0.000 
#
# Total GULP energy -1289025.612301 kJ/mol
# GULP energy per Si atom -12394.477041 kJ/mol
# Density = 1.781431 g / cm^3
# Si number density = 17.854950 Si / 1000 Ang^3
#
#
#
# Elastic Constant Matrix: (Units=GPa)
#
#
# Indices 1 2 3 4 5 6 
#
# 1 121.5306 61.5174 25.1608 0.0000 0.0000 0.0000
# 2 61.5174 121.5306 25.1608 0.0000 0.0000 0.0000
# 3 25.1608 25.1608 58.0800 0.0000 0.0000 0.0000
# 4 0.0000 0.0000 0.0000 21.3060 0.0000 0.0000
# 5 0.0000 0.0000 0.0000 0.0000 21.3060 0.0000
# 6 0.0000 0.0000 0.0000 0.0000 0.0000 32.5936
#
#
#
# Elastic Compliance Matrix: (Units=1/GPa)
#
#
# Indices 1 2 3 4 5 6 
#
# 1 0.011432 -0.005231 -0.002687 0.000000 0.000000 0.000000
# 2 -0.005231 0.011432 -0.002687 0.000000 0.000000 0.000000
# 3 -0.002687 -0.002687 0.019545 0.000000 0.000000 0.000000
# 4 0.000000 0.000000 0.000000 0.046935 0.000000 0.000000
# 5 0.000000 0.000000 0.000000 0.000000 0.046935 0.000000
# 6 0.000000 0.000000 0.000000 0.000000 0.000000 0.030681
#
#
# Mechanical properties :
#
#
# Convention : Reuss Voigt Hill
#
# Bulk Modulus (GPa) = 47.16494 58.31323 52.73908
# Shear Modulus (GPa) = 25.60997 27.66125 26.63561
#
# Velocity S-wave (km/s) = 3.79137 3.94028 3.86654
# Velocity P-wave (km/s) = 6.75566 7.30968 7.03812
#
# Compressibility (1/GPa) = 0.02120219
#
# Stress axis : x y z
#
# Youngs Moduli (GPa) = 87.47140 87.47140 51.16311
#
# Poissons Ratio (x) = 0.45754 0.13745
# Poissons Ratio (y) = 0.45754 0.13745
# Poissons Ratio (z) = 0.23500 0.23500
#
# Static dielectric constant tensor:
#      x y z
#    x 3.467880 0.000000 0.000000 
#    y 0.000000 3.467880 0.000000 
#    z 0.000000 0.000000 3.318340 
# 
# 
# High freq. dielectric constant tensor:
#      x y z
#    x 1.679150 0.000000 0.000000 
#    y 0.000000 1.679150 0.000000 
#    z 0.000000 0.000000 1.695280 
# 
# From -- ./inp_files/2323.got.cif
#   From: 2010.03.12/outbox.cif.g09.slc.cpg/sg127_2_cif.got.tgz:2323.got - 2010.04.06 17:03:15.
