data_PCOD8313514
_publ_section_title
;
Structure prediction by ZEFSAII (Michael W. Deem and Ramdas Pophale) SiO2 
 PCOD8313514
Probable space group: P 4/N B M
;
_chemical_formula_sum "Si O2"
_cell_formula_units_Z 96
_cell_length_a 15.325131
_cell_length_b 15.325131
_cell_length_c 22.158240
_cell_angle_alpha 90.000000
_cell_angle_beta 90.000000
_cell_angle_gamma 90.000000
_cell_volume 5204.076273
_symmetry_space_group_name_H-M "P 4/N B M"
_symmetry_group_IT_number 125
_space_group.IT_coordinate_system_code '2'
_symmetry_cell_setting 'tetragonal'
loop_
_space_group_symop_operation_xyz
x,y,z
1/2-y,x,z
1/2-x,1/2-y,z
y,1/2-x,z
x,1/2-y,-z
1/2-x,y,-z
y,x,-z
1/2-y,1/2-x,-z
-x,-y,-z
1/2+y,-x,-z
1/2+x,1/2+y,-z
-y,1/2+x,-z
-x,1/2+y,z
1/2+x,-y,z
-y,-x,z
1/2+y,1/2+x,z
loop_
_atom_site_type_symbol
_atom_site_label
_atom_site_fract_x
_atom_site_fract_y
_atom_site_fract_z
Si Si1 0.852880 0.650177 0.931232
Si Si2 0.424537 0.072154 0.817625
Si Si3 0.191893 0.550348 0.442567
Si Si4 0.115011 0.746628 0.323741
Si Si5 0.741167 0.948900 0.750404
Si Si6 0.201062 0.121490 0.626546
O O1 0.870682 0.751831 0.917960
O O2 0.915781 0.591770 0.889112
O O3 0.874754 0.625247 0.000000
O O4 0.328583 0.074473 0.786890
O O5 0.471880 0.160252 0.794387
O O6 0.486033 0.986033 0.806382
O O7 0.250000 0.526944 0.500000
O O8 0.106023 0.606023 0.460738
O O9 0.253057 0.603035 0.396030
O O10 0.162098 0.463228 0.406692
O O11 0.185648 0.814353 0.301945
O O12 0.148646 0.648646 0.308033
O O13 0.030382 0.771641 0.288111
O O14 0.703784 0.881367 0.700100
O O15 0.300326 0.138490 0.605390
#
# Coordination Sequence:
#
# PCOD8313514 Si02
#       6
#    16  16  16  16  16  16
#     4   9  18  35  59  85 115 154 198 246 298 345
#     4  12  23  34  58  89 117 154 196 239 290 351
#     4  10  21  37  58  83 110 144 190 239 286 346
#     4   9  18  34  54  75 106 147 186 231 280 333
#     4  11  21  36  54  83 118 147 189 230 290 347
#     4  10  21  39  60  81 108 148 187 229 297 349
#
# _framework density 18.447078000000001
#
# number of rings (size 3 to 8) (size 9 to 14) (size 15 to 20)
#    0.000    1.833    3.333    2.000    0.000    2.833 
#    0.000    3.333    0.000    0.000    0.000    0.000 
#    0.000    2.667    0.000    0.000    0.000    0.000 
#
# Total GULP energy -1189290.500736 kJ/mol
# GULP energy per Si atom -12388.442716 kJ/mol
# Density = 1.840509 g / cm^3
# Si number density = 18.447078 Si / 1000 Ang^3
#
#
#
# Elastic Constant Matrix: (Units=GPa)
#
#
# Indices 1 2 3 4 5 6 
#
# 1 60.1709 24.2328 26.2068 0.0000 0.0000 0.0000
# 2 24.2328 60.1711 26.2068 0.0000 0.0000 0.0000
# 3 26.2068 26.2068 91.3069 0.0000 0.0000 0.0000
# 4 0.0000 0.0000 0.0000 18.8091 0.0000 0.0000
# 5 0.0000 0.0000 0.0000 0.0000 18.8091 0.0000
# 6 0.0000 0.0000 0.0000 0.0000 0.0000 20.6602
#
#
#
# Elastic Compliance Matrix: (Units=1/GPa)
#
#
# Indices 1 2 3 4 5 6 
#
# 1 0.021122 -0.006704 -0.004138 0.000000 0.000000 0.000000
# 2 -0.006704 0.021121 -0.004138 0.000000 0.000000 0.000000
# 3 -0.004138 -0.004138 0.013327 0.000000 0.000000 0.000000
# 4 0.000000 0.000000 0.000000 0.053166 0.000000 0.000000
# 5 0.000000 0.000000 0.000000 0.000000 0.053166 0.000000
# 6 0.000000 0.000000 0.000000 0.000000 0.000000 0.048402
#
#
# Mechanical properties :
#
#
# Convention : Reuss Voigt Hill
#
# Bulk Modulus (GPa) = 39.04704 40.54906 39.79805
# Shear Modulus (GPa) = 20.09634 20.65585 20.37609
#
# Velocity S-wave (km/s) = 3.30419 3.34987 3.32711
# Velocity P-wave (km/s) = 5.98080 6.08204 6.03163
#
# Compressibility (1/GPa) = 0.02561014
#
# Stress axis : x y z
#
# Youngs Moduli (GPa) = 47.34495 47.34515 75.03289
#
# Poissons Ratio (x) = 0.31740 0.31049
# Poissons Ratio (y) = 0.31740 0.31049
# Poissons Ratio (z) = 0.19592 0.19592
#
# Static dielectric constant tensor:
#      x y z
#    x 3.306900 0.000000 0.000000 
#    y 0.000000 3.306900 0.000000 
#    z 0.000000 0.000000 3.381800 
# 
# 
# High freq. dielectric constant tensor:
#      x y z
#    x 1.705980 0.000000 0.000000 
#    y 0.000000 1.705980 0.000000 
#    z 0.000000 0.000000 1.713370 
# 
# From -- ./inp_files/5949.got.cif
#   From: 2010.03.12/outbox.cif.g09.slc.cpg/sg125_3_cif.got.tgz:5949.got - 2010.04.06 16:47:52.
