data_PCOD8313078
_publ_section_title
;
Structure prediction by ZEFSAII (Michael W. Deem and Ramdas Pophale) SiO2 
 PCOD8313078
Probable space group: P 4/M C C
;
_chemical_formula_sum "Si O2"
_cell_formula_units_Z 96
_cell_length_a 15.078039
_cell_length_b 15.078039
_cell_length_c 27.386266
_cell_angle_alpha 90.000000
_cell_angle_beta 90.000000
_cell_angle_gamma 90.000000
_cell_volume 6226.192539
_symmetry_space_group_name_H-M "P 4/M C C"
_symmetry_group_IT_number 124
_symmetry_cell_setting 'tetragonal'
loop_
_space_group_symop_operation_xyz
x,y,z
-y,x,z
-x,-y,z
y,-x,z
x,-y,1/2-z
-x,y,1/2-z
y,x,1/2-z
-y,-x,1/2-z
-x,-y,-z
y,-x,-z
x,y,-z
-y,x,-z
-x,y,1/2+z
x,-y,1/2+z
-y,-x,1/2+z
y,x,1/2+z
loop_
_atom_site_type_symbol
_atom_site_label
_atom_site_fract_x
_atom_site_fract_y
_atom_site_fract_z
Si Si1 0.183550 0.163725 0.850631
Si Si2 0.427780 0.056055 0.300424
Si Si3 0.694853 0.317582 0.808900
Si Si4 0.983078 0.763560 0.806871
Si Si5 0.743781 0.510426 0.802713
Si Si6 0.896031 0.897467 0.944792
O O1 0.245173 0.245640 0.836110
O O2 0.231397 0.073976 0.835703
O O3 0.164248 0.161904 0.908713
O O4 0.089115 0.164108 0.822722
O O5 0.465502 0.153956 0.294572
O O6 0.500000 0.000000 0.332495
O O7 0.418126 0.000000 0.250000
O O8 0.330635 0.059573 0.323311
O O9 0.699706 0.300295 0.750000
O O10 0.728934 0.414265 0.827546
O O11 0.593561 0.305383 0.828505
O O12 0.000000 0.774461 0.750000
O O13 0.698152 0.500000 0.750000
O O14 0.999112 0.877027 0.935234
O O15 0.869999 0.871593 0.000000
#
# Coordination Sequence:
#
# PCOD8313078 Si02
#       6
#    16  16  16  16  16  16
#     4  12  20  32  46  71  97 128 165 201 243 286
#     4  10  17  28  45  59  86 129 175 197 229 279
#     4  10  21  32  48  68 101 128 168 206 243 288
#     4  11  22  29  42  66 101 135 162 196 237 285
#     4  10  18  32  45  65  91 133 169 208 236 277
#     4   9  18  34  51  66  88 124 169 210 241 282
#
# _framework density 15.418733
#
# number of rings (size 3 to 8) (size 9 to 14) (size 15 to 20)
#    0.000    1.667    5.000    3.000    4.667    0.667 
#    0.000    2.500    0.000    0.000    0.000    1.167 
#    0.000    5.333    0.000    1.500    0.000    0.167 
#
# Total GULP energy -1189323.473249 kJ/mol
# GULP energy per Si atom -12388.786180 kJ/mol
# Density = 1.538364 g / cm^3
# Si number density = 15.418733 Si / 1000 Ang^3
#
#
#
# Elastic Constant Matrix: (Units=GPa)
#
#
# Indices 1 2 3 4 5 6 
#
# 1 101.3759 42.4992 33.0086 0.0000 0.0000 0.0000
# 2 42.4992 101.3758 33.0086 0.0000 0.0000 0.0000
# 3 33.0086 33.0086 71.0401 0.0000 0.0000 0.0000
# 4 0.0000 0.0000 0.0000 2.9471 0.0000 0.0000
# 5 0.0000 0.0000 0.0000 0.0000 2.9468 0.0000
# 6 0.0000 0.0000 0.0000 0.0000 0.0000 30.6072
#
#
#
# Elastic Compliance Matrix: (Units=1/GPa)
#
#
# Indices 1 2 3 4 5 6 
#
# 1 0.012909 -0.004075 -0.004105 0.000000 0.000000 0.000000
# 2 -0.004075 0.012909 -0.004105 0.000000 0.000000 0.000000
# 3 -0.004105 -0.004105 0.017891 0.000000 0.000000 0.000000
# 4 0.000000 0.000000 0.000000 0.339319 0.000000 0.000000
# 5 0.000000 0.000000 0.000000 0.000000 0.339349 0.000000
# 6 0.000000 0.000000 0.000000 0.000000 0.000000 0.032672
#
#
# Mechanical properties :
#
#
# Convention : Reuss Voigt Hill
#
# Bulk Modulus (GPa) = 52.24610 54.53607 53.39109
# Shear Modulus (GPa) = 6.36133 18.31858 12.33996
#
# Velocity S-wave (km/s) = 2.03339 3.45058 2.83207
# Velocity P-wave (km/s) = 6.28262 7.16395 6.73771
#
# Compressibility (1/GPa) = 0.01914019
#
# Stress axis : x y z
#
# Youngs Moduli (GPa) = 77.46369 77.46364 55.89404
#
# Poissons Ratio (x) = 0.31569 0.22943
# Poissons Ratio (y) = 0.31569 0.22943
# Poissons Ratio (z) = 0.31796 0.31796
#
# Static dielectric constant tensor:
#      x y z
#    x 3.280860 0.000000 0.000000 
#    y 0.000000 3.280860 0.000000 
#    z 0.000000 0.000000 2.604470 
# 
# 
# High freq. dielectric constant tensor:
#      x y z
#    x 1.601690 0.000000 0.000000 
#    y 0.000000 1.601690 0.000000 
#    z 0.000000 0.000000 1.522870 
# 
# From -- ./inp_files/7197.got.cif
#   From: 2010.03.12/outbox.cif.g09.slc.cpg/sg124_4_cif.got.tgz:7197.got - 2010.04.06 16:38:57.
