data_PCOD8313096
_publ_section_title
;
Structure prediction by ZEFSAII (Michael W. Deem and Ramdas Pophale) SiO2 
 PCOD8313096
Probable space group: P 4/M C C
;
_chemical_formula_sum "Si O2"
_cell_formula_units_Z 48
_cell_length_a 18.639565
_cell_length_b 18.639565
_cell_length_c 8.929208
_cell_angle_alpha 90.000000
_cell_angle_beta 90.000000
_cell_angle_gamma 90.000000
_cell_volume 3102.304946
_symmetry_space_group_name_H-M "P 4/M C C"
_symmetry_group_IT_number 124
_symmetry_cell_setting 'tetragonal'
loop_
_space_group_symop_operation_xyz
x,y,z
-y,x,z
-x,-y,z
y,-x,z
x,-y,1/2-z
-x,y,1/2-z
y,x,1/2-z
-y,-x,1/2-z
-x,-y,-z
y,-x,-z
x,y,-z
-y,x,-z
-x,y,1/2+z
x,-y,1/2+z
-y,-x,1/2+z
y,x,1/2+z
loop_
_atom_site_type_symbol
_atom_site_label
_atom_site_fract_x
_atom_site_fract_y
_atom_site_fract_z
Si Si1 0.349632 0.650369 0.250000
Si Si2 0.557404 0.603021 0.000000
Si Si3 0.421001 0.929764 0.320480
Si Si4 0.575815 0.211051 0.827401
O O1 0.417835 0.647216 0.358221
O O2 0.362649 0.727071 0.172789
O O3 0.472922 0.597381 0.000000
O O4 0.500000 0.928174 0.250000
O O5 0.421139 0.933689 0.500000
O O6 0.386412 0.855627 0.260617
O O7 0.381271 0.000000 0.250000
O O8 0.500000 0.232623 0.750000
O O9 0.559359 0.191037 0.000000
#
# Coordination Sequence:
#
# PCOD8313096 Si02
#       4
#     8   8  16  16
#     4  12  24  33  48  64  86 114 150 195 238 282
#     4  11  22  36  48  60  78 110 154 200 242 277
#     4  10  18  30  49  69  90 109 136 172 219 273
#     4  11  22  34  49  65  87 114 147 187 232 277
#
# _framework density 15.472365999999999
#
# number of rings (size 3 to 8) (size 9 to 14) (size 15 to 20)
#    0.000    1.167    1.667   10.000    4.667    1.333 
#    0.000    0.000    0.000    0.000    0.000    0.000 
#    0.000    0.000    0.000    0.000    0.000    0.833 
#
# Total GULP energy -594700.975881 kJ/mol
# GULP energy per Si atom -12389.603664 kJ/mol
# Density = 1.543715 g / cm^3
# Si number density = 15.472366 Si / 1000 Ang^3
#
#
#
# Elastic Constant Matrix: (Units=GPa)
#
#
# Indices 1 2 3 4 5 6 
#
# 1 28.7858 61.0637 23.4701 0.0000 0.0000 0.0000
# 2 61.0637 28.7852 23.4690 0.0000 0.0000 0.0000
# 3 23.4701 23.4690 139.0827 0.0000 0.0000 0.0000
# 4 0.0000 0.0000 0.0000 21.2185 0.0000 0.0000
# 5 0.0000 0.0000 0.0000 0.0000 21.2190 0.0000
# 6 0.0000 0.0000 0.0000 0.0000 0.0000 6.7215
#
#
#
# Elastic Compliance Matrix: (Units=1/GPa)
#
#
# Indices 1 2 3 4 5 6 
#
# 1 -0.009387 0.021593 -0.002060 0.000000 0.000000 0.000000
# 2 0.021593 -0.009387 -0.002060 0.000000 0.000000 0.000000
# 3 -0.002060 -0.002060 0.007885 0.000000 0.000000 0.000000
# 4 0.000000 0.000000 0.000000 0.047129 0.000000 0.000000
# 5 0.000000 0.000000 0.000000 0.000000 0.047128 0.000000
# 6 0.000000 0.000000 0.000000 0.000000 0.000000 0.148777
#
#
# Mechanical properties :
#
#
# Convention : Reuss Voigt Hill
#
# Bulk Modulus (GPa) = 41.56631 45.85106 43.70868
# Shear Modulus (GPa) = 24.36466 15.74185 20.05326
#
# Velocity S-wave (km/s) = 3.97258 3.19316 3.60400
# Velocity P-wave (km/s) = 6.92568 6.57978 6.75494
#
# Compressibility (1/GPa) = 0.02405795
#
# Stress axis : x y z
#
# Youngs Moduli (GPa) = -106.52569 -106.52486 126.82170
#
# Poissons Ratio (x) = 2.30021 0.26119
# Poissons Ratio (y) = 2.30023 0.26123
# Poissons Ratio (z) = -0.21939 -0.21942
#
# Static dielectric constant tensor:
#      x y z
#    x 3.180000 0.000000 0.000000 
#    y 0.000000 3.179990 0.000000 
#    z 0.000000 0.000000 3.189460 
# 
# 
# High freq. dielectric constant tensor:
#      x y z
#    x 1.556570 0.000000 0.000000 
#    y 0.000000 1.556570 0.000000 
#    z 0.000000 0.000000 1.623380 
# 
# From -- ./inp_files/503.got.cif
#   From: 2010.03.12/outbox.cif.g09.slc.cpg/sg124_1_cif.got.tgz:503.got - 2010.04.06 16:38:57.
