data_PCOD8313442
_publ_section_title
;
Structure prediction by ZEFSAII (Michael W. Deem and Ramdas Pophale) SiO2 
 PCOD8313442
Probable space group: P 4/N B M
;
_chemical_formula_sum "Si O2"
_cell_formula_units_Z 112
_cell_length_a 14.278830
_cell_length_b 14.278830
_cell_length_c 28.542382
_cell_angle_alpha 90.000000
_cell_angle_beta 90.000000
_cell_angle_gamma 90.000000
_cell_volume 5819.363159
_symmetry_space_group_name_H-M "P 4/N B M"
_symmetry_group_IT_number 125
_space_group.IT_coordinate_system_code '2'
_symmetry_cell_setting 'tetragonal'
loop_
_space_group_symop_operation_xyz
x,y,z
1/2-y,x,z
1/2-x,1/2-y,z
y,1/2-x,z
x,1/2-y,-z
1/2-x,y,-z
y,x,-z
1/2-y,1/2-x,-z
-x,-y,-z
1/2+y,-x,-z
1/2+x,1/2+y,-z
-y,1/2+x,-z
-x,1/2+y,z
1/2+x,-y,z
-y,-x,z
1/2+y,1/2+x,z
loop_
_atom_site_type_symbol
_atom_site_label
_atom_site_fract_x
_atom_site_fract_y
_atom_site_fract_z
Si Si1 0.756064 0.398929 0.723151
Si Si2 0.849695 0.868104 0.700889
Si Si3 0.507081 0.851859 0.977267
Si Si4 0.756153 0.596402 0.447071
Si Si5 0.310129 0.392190 0.114703
Si Si6 0.171322 0.981832 0.366394
Si Si7 0.016388 0.139029 0.787964
O O1 0.687393 0.312608 0.725031
O O2 0.862857 0.362857 0.728766
O O3 0.744487 0.447401 0.672855
O O4 0.730361 0.465251 0.766713
O O5 0.737706 0.880223 0.697841
O O6 0.892926 0.907597 0.749239
O O7 0.885264 0.929774 0.656620
O O8 0.529130 0.840398 0.922405
O O9 0.412561 0.912561 0.983781
O O10 0.491717 0.750000 0.000000
O O11 0.596112 0.903889 0.000000
O O12 0.845552 0.662301 0.437814
O O13 0.750000 0.557676 0.500000
O O14 0.767926 0.509494 0.411934
O O15 0.200916 0.370982 0.107601
O O16 0.328723 0.431808 0.165783
O O17 0.097456 0.902545 0.381203
O O18 0.945970 0.054030 0.798543
#
# Coordination Sequence:
#
# PCOD8313442 Si02
#       7
#    16  16  16  16  16  16  16
#     4   8  16  33  53  71 100 147 190 219 263 335
#     4  10  19  33  53  75 103 141 185 224 268 327
#     4  11  23  42  68  97 128 164 209 256 308 368
#     4   9  18  35  56  74  97 133 174 213 264 329
#     4  11  22  38  62  88 117 155 200 248 300 355
#     4  10  19  32  51  77 107 132 168 223 274 321
#     4  10  20  35  53  79 115 147 184 237 289 339
#
# _framework density 19.246092999999998
#
# number of rings (size 3 to 8) (size 9 to 14) (size 15 to 20)
#    0.000    2.143    1.429    3.857    0.000    2.571 
#    0.000   16.429    0.000    1.714    0.000    0.000 
#    0.000    0.000    0.000    0.000    0.000    0.000 
#
# Total GULP energy -1388187.955578 kJ/mol
# GULP energy per Si atom -12394.535318 kJ/mol
# Density = 1.920229 g / cm^3
# Si number density = 19.246093 Si / 1000 Ang^3
#
#
#
# Elastic Constant Matrix: (Units=GPa)
#
#
# Indices 1 2 3 4 5 6 
#
# 1 76.3619 41.6117 29.7245 0.0000 0.0000 0.0000
# 2 41.6117 76.3624 29.7247 0.0000 0.0000 0.0000
# 3 29.7245 29.7247 118.9455 0.0000 0.0000 0.0000
# 4 0.0000 0.0000 0.0000 30.5560 0.0000 0.0000
# 5 0.0000 0.0000 0.0000 0.0000 30.5558 0.0000
# 6 0.0000 0.0000 0.0000 0.0000 0.0000 -246.2985
#
#
#
# Elastic Compliance Matrix: (Units=1/GPa)
#
#
# Indices 1 2 3 4 5 6 
#
# 1 0.019237 -0.009539 -0.002423 0.000000 0.000000 0.000000
# 2 -0.009539 0.019237 -0.002423 0.000000 0.000000 0.000000
# 3 -0.002423 -0.002423 0.009618 0.000000 0.000000 0.000000
# 4 0.000000 0.000000 0.000000 0.032727 0.000000 0.000000
# 5 0.000000 0.000000 0.000000 0.000000 0.032727 0.000000
# 6 0.000000 0.000000 0.000000 0.000000 0.000000 -0.004060
#
#
# Mechanical properties :
#
#
# Convention : Reuss Voigt Hill
#
# Bulk Modulus (GPa) = 51.75988 52.64352 52.20170
# Shear Modulus (GPa) = 34.55443 -25.66343 4.44550
#
# Velocity S-wave (km/s) = 4.24181 -3.65559 1.52146
# Velocity P-wave (km/s) = 7.13742 3.09749 5.50169
#
# Compressibility (1/GPa) = 0.01931998
#
# Stress axis : x y z
#
# Youngs Moduli (GPa) = 51.98260 51.98291 103.96672
#
# Poissons Ratio (x) = 0.49589 0.25196
# Poissons Ratio (y) = 0.49589 0.25196
# Poissons Ratio (z) = 0.12598 0.12598
#
# Static dielectric constant tensor:
#      x y z
#    x 3.675610 0.000000 0.000000 
#    y 0.000000 3.675610 0.000000 
#    z 0.000000 0.000000 3.510060 
# 
# 
# High freq. dielectric constant tensor:
#      x y z
#    x 1.743060 0.000000 0.000000 
#    y 0.000000 1.743060 0.000000 
#    z 0.000000 0.000000 1.750140 
# 
# From -- ./inp_files/6450.got.cif
#   From: 2010.03.12/outbox.cif.g09.slc.cpg/sg125_4_cif.got.tgz:6450.got - 2010.04.06 16:47:52.
