data_PCOD8313000
_publ_section_title
;
Structure prediction by ZEFSAII (Michael W. Deem and Ramdas Pophale) SiO2 
 PCOD8313000
Probable space group: P 4/M M M
;
_chemical_formula_sum "Si O2"
_cell_formula_units_Z 96
_cell_length_a 24.542380
_cell_length_b 24.542380
_cell_length_c 10.061425
_cell_angle_alpha 90.000000
_cell_angle_beta 90.000000
_cell_angle_gamma 90.000000
_cell_volume 6060.282184
_symmetry_space_group_name_H-M "P 4/M M M"
_symmetry_group_IT_number 123
_symmetry_cell_setting 'tetragonal'
loop_
_space_group_symop_operation_xyz
x,y,z
-y,x,z
-x,-y,z
y,-x,z
x,-y,-z
-x,y,-z
y,x,-z
-y,-x,-z
-x,-y,-z
y,-x,-z
x,y,-z
-y,x,-z
-x,y,z
x,-y,z
-y,-x,z
y,x,z
loop_
_atom_site_type_symbol
_atom_site_label
_atom_site_fract_x
_atom_site_fract_y
_atom_site_fract_z
Si Si1 0.231563 0.060281 0.853972
Si Si2 0.061128 0.639017 0.151022
Si Si3 0.153904 0.356097 0.651228
Si Si4 0.279412 0.367895 0.345289
Si Si5 0.228530 0.143254 0.646143
Si Si6 0.349438 0.562762 0.151311
O O1 0.296329 0.060169 0.839884
O O2 0.203684 0.099966 0.748461
O O3 0.208786 0.000000 0.828075
O O4 0.214925 0.080745 0.000000
O O5 0.108374 0.616427 0.251246
O O6 0.000000 0.617601 0.190435
O O7 0.074926 0.620352 0.000000
O O8 0.142347 0.375695 0.500000
O O9 0.215760 0.368650 0.694330
O O10 0.149597 0.291995 0.663756
O O11 0.286489 0.383480 0.500000
O O12 0.309483 0.309483 0.318175
O O13 0.305181 0.414258 0.253502
O O14 0.214047 0.121364 0.500000
O O15 0.202014 0.202014 0.672399
O O16 0.359831 0.500000 0.184727
O O17 0.406693 0.593308 0.171545
O O18 0.328072 0.570617 0.000000
#
# Coordination Sequence:
#
# PCOD8313000 Si02
#       6
#    16  16  16  16  16  16
#     4   8  14  24  35  46  63  89 120 153 189 228
#     4   8  14  24  36  51  74 104 137 173 210 244
#     4   9  16  25  38  56  79 109 142 172 203 241
#     4   9  17  29  44  62  87 118 148 178 214 256
#     4   9  16  24  34  50  72  96 123 155 188 224
#     4   9  18  32  49  69  92 117 146 181 219 257
#
# _framework density 15.840846000000001
#
# number of rings (size 3 to 8) (size 9 to 14) (size 15 to 20)
#    0.000    3.333    0.000    1.500    0.000    4.167 
#    0.000    4.167    0.000    3.000    0.000    2.333 
#    0.000    1.000    0.000   11.000    0.000    8.667 
#
# Total GULP energy -1189402.914007 kJ/mol
# GULP energy per Si atom -12389.613688 kJ/mol
# Density = 1.580479 g / cm^3
# Si number density = 15.840846 Si / 1000 Ang^3
#
#
#
# Elastic Constant Matrix: (Units=GPa)
#
#
# Indices 1 2 3 4 5 6 
#
# 1 79.4886 23.8169 52.4003 0.0000 0.0000 0.0000
# 2 23.8169 79.4886 52.4003 0.0000 0.0000 0.0000
# 3 52.4003 52.4003 97.1049 0.0000 0.0000 0.0000
# 4 0.0000 0.0000 0.0000 23.9929 0.0000 0.0000
# 5 0.0000 0.0000 0.0000 0.0000 23.9929 0.0000
# 6 0.0000 0.0000 0.0000 0.0000 0.0000 9.3522
#
#
#
# Elastic Compliance Matrix: (Units=1/GPa)
#
#
# Indices 1 2 3 4 5 6 
#
# 1 0.019676 0.001713 -0.011542 0.000000 0.000000 0.000000
# 2 0.001713 0.019676 -0.011542 0.000000 0.000000 0.000000
# 3 -0.011542 -0.011542 0.022755 0.000000 0.000000 0.000000
# 4 0.000000 0.000000 0.000000 0.041679 0.000000 0.000000
# 5 0.000000 0.000000 0.000000 0.000000 0.041679 0.000000
# 6 0.000000 0.000000 0.000000 0.000000 0.000000 0.106927
#
#
# Mechanical properties :
#
#
# Convention : Reuss Voigt Hill
#
# Bulk Modulus (GPa) = 51.64004 57.03523 54.33763
# Shear Modulus (GPa) = 16.57888 19.96525 18.27206
#
# Velocity S-wave (km/s) = 3.23861 3.55401 3.39997
# Velocity P-wave (km/s) = 6.83044 7.27493 7.05619
#
# Compressibility (1/GPa) = 0.01936482
#
# Stress axis : x y z
#
# Youngs Moduli (GPa) = 50.82376 50.82376 43.94632
#
# Poissons Ratio (x) = -0.08708 0.50724
# Poissons Ratio (y) = -0.08708 0.50724
# Poissons Ratio (z) = 0.58662 0.58662
#
# Static dielectric constant tensor:
#      x y z
#    x 2.904080 0.000000 0.000000 
#    y 0.000000 2.904080 0.000000 
#    z 0.000000 0.000000 3.339570 
# 
# 
# High freq. dielectric constant tensor:
#      x y z
#    x 1.579130 0.000000 0.000000 
#    y 0.000000 1.579130 0.000000 
#    z 0.000000 0.000000 1.618580 
# 
# From -- ./inp_files/1841.got.cif
#   From: 2010.03.12/outbox.cif.g09.slc.cpg/sg123_1_cif.got.tgz:1841.got - 2010.04.06 16:26:55.
