data_PCOD8313350
_publ_section_title
;
Structure prediction by ZEFSAII (Michael W. Deem and Ramdas Pophale) SiO2 
 PCOD8313350
Probable space group: P 4/M C C
;
_chemical_formula_sum "Si O2"
_cell_formula_units_Z 48
_cell_length_a 12.920813
_cell_length_b 12.920813
_cell_length_c 13.775627
_cell_angle_alpha 90.000000
_cell_angle_beta 90.000000
_cell_angle_gamma 90.000000
_cell_volume 2299.805229
_symmetry_space_group_name_H-M "P 4/M C C"
_symmetry_group_IT_number 124
_symmetry_cell_setting 'tetragonal'
loop_
_space_group_symop_operation_xyz
x,y,z
-y,x,z
-x,-y,z
y,-x,z
x,-y,1/2-z
-x,y,1/2-z
y,x,1/2-z
-y,-x,1/2-z
-x,-y,-z
y,-x,-z
x,y,-z
-y,x,-z
-x,y,1/2+z
x,-y,1/2+z
-y,-x,1/2+z
y,x,1/2+z
loop_
_atom_site_type_symbol
_atom_site_label
_atom_site_fract_x
_atom_site_fract_y
_atom_site_fract_z
Si Si1 0.474486 0.119805 0.891913
Si Si2 0.173454 0.666216 0.726047
Si Si3 0.842487 0.059780 0.112963
O O1 0.370308 0.128599 0.829400
O O2 0.568220 0.185958 0.845520
O O3 0.500000 0.000000 0.893289
O O4 0.453347 0.162073 0.000000
O O5 0.285145 0.714856 0.750000
O O6 0.095719 0.747869 0.678271
O O7 0.941111 0.131395 0.138017
O O8 0.812919 0.070828 0.000000
#
# Coordination Sequence:
#
# PCOD8313350 Si02
#       3
#    16  16  16
#     4  10  24  44  62  88 129 171 216 268 321 378
#     4  11  23  37  66  94 123 164 219 266 315 374
#     4   9  20  36  56  90 135 176 210 249 302 368
#
# _framework density 20.871333
#
# number of rings (size 3 to 8) (size 9 to 14) (size 15 to 20)
#    0.000    2.000    0.000    4.000    9.333    2.667 
#    0.000    1.667    0.000    8.000    0.000   11.667 
#    0.000    0.000    0.000    0.000    0.000    0.000 
#
# Total GULP energy -595295.102224 kJ/mol
# GULP energy per Si atom -12401.981296 kJ/mol
# Density = 2.082383 g / cm^3
# Si number density = 20.871333 Si / 1000 Ang^3
#
#
#
# Elastic Constant Matrix: (Units=GPa)
#
#
# Indices 1 2 3 4 5 6 
#
# 1 113.4679 47.4285 75.7416 0.0000 0.0000 0.0000
# 2 47.4285 113.4692 75.7419 0.0000 0.0000 0.0000
# 3 75.7416 75.7419 183.3674 0.0000 0.0000 0.0000
# 4 0.0000 0.0000 0.0000 23.6410 0.0000 0.0000
# 5 0.0000 0.0000 0.0000 0.0000 23.6377 0.0000
# 6 0.0000 0.0000 0.0000 0.0000 0.0000 35.6436
#
#
#
# Elastic Compliance Matrix: (Units=1/GPa)
#
#
# Indices 1 2 3 4 5 6 
#
# 1 0.012656 -0.002486 -0.004201 0.000000 0.000000 0.000000
# 2 -0.002486 0.012656 -0.004201 0.000000 0.000000 0.000000
# 3 -0.004201 -0.004201 0.008924 0.000000 0.000000 0.000000
# 4 0.000000 0.000000 0.000000 0.042299 0.000000 0.000000
# 5 0.000000 0.000000 0.000000 0.000000 0.042305 0.000000
# 6 0.000000 0.000000 0.000000 0.000000 0.000000 0.028056
#
#
# Mechanical properties :
#
#
# Convention : Reuss Voigt Hill
#
# Bulk Modulus (GPa) = 80.25131 89.79205 85.02168
# Shear Modulus (GPa) = 28.93079 30.67730 29.80404
#
# Velocity S-wave (km/s) = 3.72714 3.83799 3.78297
# Velocity P-wave (km/s) = 7.55355 7.92183 7.73988
#
# Compressibility (1/GPa) = 0.01246086
#
# Stress axis : x y z
#
# Youngs Moduli (GPa) = 79.01141 79.01238 112.05704
#
# Poissons Ratio (x) = 0.19642 0.47075
# Poissons Ratio (y) = 0.19642 0.47074
# Poissons Ratio (z) = 0.33192 0.33193
#
# Static dielectric constant tensor:
#      x y z
#    x 3.947060 0.000000 0.000000 
#    y 0.000000 3.947100 0.000000 
#    z 0.000000 0.000000 4.397730 
# 
# 
# High freq. dielectric constant tensor:
#      x y z
#    x 1.799590 0.000000 0.000000 
#    y 0.000000 1.799590 0.000000 
#    z 0.000000 0.000000 1.846030 
# 
# From -- ./inp_files/2765.got.cif
#   From: 2010.03.12/outbox.cif.g09.slc.cpg/sg124_2_cif.got.tgz:2765.got - 2010.04.06 16:38:57.
