data_PCOD8313953
_publ_section_title
;
Structure prediction by ZEFSAII (Michael W. Deem and Ramdas Pophale) SiO2 
 PCOD8313953
Probable space group: P 4/M B M
;
_chemical_formula_sum "Si O2"
_cell_formula_units_Z 64
_cell_length_a 19.264703
_cell_length_b 19.264703
_cell_length_c 9.661088
_cell_angle_alpha 90.000000
_cell_angle_beta 90.000000
_cell_angle_gamma 90.000000
_cell_volume 3585.507819
_symmetry_space_group_name_H-M "P 4/M B M"
_symmetry_group_IT_number 127
_symmetry_cell_setting 'tetragonal'
loop_
_space_group_symop_operation_xyz
x,y,z
-y,x,z
-x,-y,z
y,-x,z
1/2+x,1/2-y,-z
1/2-x,1/2+y,-z
1/2+y,1/2+x,-z
1/2-y,1/2-x,-z
-x,-y,-z
y,-x,-z
x,y,-z
-y,x,-z
1/2-x,1/2+y,z
1/2+x,1/2-y,z
1/2-y,1/2-x,z
1/2+y,1/2+x,z
loop_
_atom_site_type_symbol
_atom_site_label
_atom_site_fract_x
_atom_site_fract_y
_atom_site_fract_z
Si Si1 0.032105 0.358916 0.835633
Si Si2 0.623200 0.876801 0.165343
Si Si3 0.044675 0.104509 0.655386
Si Si4 0.390985 0.720877 0.835618
Si Si5 0.765668 0.265668 0.835693
O O1 0.071767 0.428234 0.783152
O O2 0.074964 0.292456 0.783192
O O3 0.953441 0.357344 0.778063
O O4 0.030040 0.359055 0.000000
O O5 0.678858 0.821143 0.224498
O O6 0.624244 0.875757 0.000000
O O7 0.057125 0.133027 0.500000
O O8 0.066095 0.159290 0.769477
O O9 0.964115 0.089492 0.678763
O O10 0.311548 0.715821 0.783904
O O11 0.395931 0.714317 0.000000
O O12 0.767141 0.267141 0.000000
#
# Coordination Sequence:
#
# PCOD8313953 Si02
#       5
#    16   8  16  16   8
#     4   9  16  28  44  68 100 136 171 207 249 297
#     4   9  17  26  43  67  98 137 174 203 245 304
#     4   9  20  38  55  72  99 135 172 211 256 305
#     4  10  19  31  51  77 106 135 166 207 258 306
#     4   9  18  31  43  69 111 139 157 204 266 303
#
# _framework density 17.849633999999998
#
# number of rings (size 3 to 8) (size 9 to 14) (size 15 to 20)
#    0.000    2.750    1.250    1.125    3.500    2.500 
#    0.000    1.875    0.000    0.000    0.000    0.875 
#    0.000    2.000    0.000    0.000    0.000    0.000 
#
# Total GULP energy -793406.416616 kJ/mol
# GULP energy per Si atom -12396.975260 kJ/mol
# Density = 1.780901 g / cm^3
# Si number density = 17.849634 Si / 1000 Ang^3
#
#
#
# Elastic Constant Matrix: (Units=GPa)
#
#
# Indices 1 2 3 4 5 6 
#
# 1 154.9000 59.3976 21.7670 0.0000 0.0000 0.0000
# 2 59.3976 154.8996 21.7669 0.0000 0.0000 0.0000
# 3 21.7670 21.7669 20.4285 0.0000 0.0000 0.0000
# 4 0.0000 0.0000 0.0000 11.1307 0.0000 0.0000
# 5 0.0000 0.0000 0.0000 0.0000 11.1307 0.0000
# 6 0.0000 0.0000 0.0000 0.0000 0.0000 61.8874
#
#
#
# Elastic Compliance Matrix: (Units=1/GPa)
#
#
# Indices 1 2 3 4 5 6 
#
# 1 0.008213 -0.002258 -0.006346 0.000000 0.000000 0.000000
# 2 -0.002258 0.008213 -0.006346 0.000000 0.000000 0.000000
# 3 -0.006346 -0.006346 0.062474 0.000000 0.000000 0.000000
# 4 0.000000 0.000000 0.000000 0.089841 0.000000 0.000000
# 5 0.000000 0.000000 0.000000 0.000000 0.089842 0.000000
# 6 0.000000 0.000000 0.000000 0.000000 0.000000 0.016158
#
#
# Mechanical properties :
#
#
# Convention : Reuss Voigt Hill
#
# Bulk Modulus (GPa) = 20.40721 59.56566 39.98644
# Shear Modulus (GPa) = 15.57756 31.98288 23.78022
#
# Velocity S-wave (km/s) = 2.95737 4.23755 3.65396
# Velocity P-wave (km/s) = 4.80823 7.57534 6.34448
#
# Compressibility (1/GPa) = 0.04900228
#
# Stress axis : x y z
#
# Youngs Moduli (GPa) = 121.75475 121.75447 16.00664
#
# Poissons Ratio (x) = 0.27489 0.10157
# Poissons Ratio (y) = 0.27489 0.10157
# Poissons Ratio (z) = 0.77262 0.77262
#
# Static dielectric constant tensor:
#      x y z
#    x 3.499160 0.000000 0.000000 
#    y 0.000000 3.499160 0.000000 
#    z 0.000000 0.000000 2.706770 
# 
# 
# High freq. dielectric constant tensor:
#      x y z
#    x 1.703690 0.000000 0.000000 
#    y 0.000000 1.703700 0.000000 
#    z 0.000000 0.000000 1.624610 
# 
# From -- ./inp_files/3063.got.cif
#   From: 2010.03.12/outbox.cif.g09.slc.cpg/sg127_2_cif.got.tgz:3063.got - 2010.04.06 17:03:15.
