data_PCOD8313716
_publ_section_title
;
Structure prediction by ZEFSAII (Michael W. Deem and Ramdas Pophale) SiO2 
 PCOD8313716
Probable space group: P 4/N N C
;
_chemical_formula_sum "Si O2"
_cell_formula_units_Z 112
_cell_length_a 14.277148
_cell_length_b 14.277148
_cell_length_c 27.612784
_cell_angle_alpha 90.000000
_cell_angle_beta 90.000000
_cell_angle_gamma 90.000000
_cell_volume 5628.505810
_symmetry_space_group_name_H-M "P 4/N N C"
_symmetry_group_IT_number 126
_space_group.IT_coordinate_system_code '2'
_symmetry_cell_setting 'tetragonal'
loop_
_space_group_symop_operation_xyz
x,y,z
1/2-y,x,z
1/2-x,1/2-y,z
y,1/2-x,z
x,1/2-y,1/2-z
1/2-x,y,1/2-z
y,x,1/2-z
1/2-y,1/2-x,1/2-z
-x,-y,-z
1/2+y,-x,-z
1/2+x,1/2+y,-z
-y,1/2+x,-z
-x,1/2+y,1/2+z
1/2+x,-y,1/2+z
-y,-x,1/2+z
1/2+y,1/2+x,1/2+z
loop_
_atom_site_type_symbol
_atom_site_label
_atom_site_fract_x
_atom_site_fract_y
_atom_site_fract_z
Si Si1 0.422108 0.408696 0.305324
Si Si2 0.067915 0.066100 0.805151
Si Si3 0.895244 0.223997 0.516660
Si Si4 0.974070 0.249240 0.692064
Si Si5 0.597157 0.731756 0.532250
Si Si6 0.185164 0.834162 0.882087
Si Si7 0.757246 0.979395 0.636520
O O1 0.391739 0.391739 0.250000
O O2 0.472530 0.508180 0.310342
O O3 0.491255 0.328338 0.325449
O O4 0.330519 0.410134 0.338170
O O5 0.089750 0.089750 0.750000
O O6 0.015675 0.154169 0.828872
O O7 0.169567 0.045506 0.827571
O O8 0.828445 0.148517 0.489244
O O9 0.905390 0.192603 0.572783
O O10 0.001300 0.220950 0.497487
O O11 0.958256 0.250000 0.750000
O O12 0.874821 0.228519 0.667396
O O13 0.668637 0.646659 0.520314
O O14 0.571067 0.722582 0.588406
O O15 0.250000 0.750000 0.899097
O O16 0.079564 0.801374 0.874541
#
# Coordination Sequence:
#
# PCOD8313716 Si02
#       7
#    16  16  16  16  16  16  16
#     4  11  23  39  59  93 134 174 220 266 315 386
#     4   9  19  37  58  84 126 166 215 265 313 375
#     4  11  22  44  68  94 128 163 213 276 333 387
#     4  10  21  39  61  91 128 172 214 266 324 388
#     4  11  24  44  67  95 130 168 215 270 332 402
#     4  12  23  41  65  95 126 164 221 269 325 391
#     4  12  22  40  66  90 127 177 213 261 330 388
#
# _framework density 19.898709
#
# number of rings (size 3 to 8) (size 9 to 14) (size 15 to 20)
#    0.000    1.143    5.714    1.286    0.000    1.429 
#    5.143    2.143    0.000    0.000    0.000    0.000 
#    0.000    0.000    0.000    0.000    0.000    0.000 
#
# Total GULP energy -1388537.164382 kJ/mol
# GULP energy per Si atom -12397.653253 kJ/mol
# Density = 1.985342 g / cm^3
# Si number density = 19.898709 Si / 1000 Ang^3
#
#
#
# Elastic Constant Matrix: (Units=GPa)
#
#
# Indices 1 2 3 4 5 6 
#
# 1 104.0533 30.0673 49.5714 0.0000 0.0000 0.0000
# 2 30.0673 104.0533 49.5714 0.0000 0.0000 0.0000
# 3 49.5714 49.5714 107.7700 0.0000 0.0000 0.0000
# 4 0.0000 0.0000 0.0000 27.0848 0.0000 0.0000
# 5 0.0000 0.0000 0.0000 0.0000 27.0848 0.0000
# 6 0.0000 0.0000 0.0000 0.0000 0.0000 27.3365
#
#
#
# Elastic Compliance Matrix: (Units=1/GPa)
#
#
# Indices 1 2 3 4 5 6 
#
# 1 0.012407 -0.001109 -0.005196 0.000000 0.000000 0.000000
# 2 -0.001109 0.012407 -0.005196 0.000000 0.000000 0.000000
# 3 -0.005196 -0.005196 0.014059 0.000000 0.000000 0.000000
# 4 0.000000 0.000000 0.000000 0.036921 0.000000 0.000000
# 5 0.000000 0.000000 0.000000 0.000000 0.036921 0.000000
# 6 0.000000 0.000000 0.000000 0.000000 0.000000 0.036581
#
#
# Mechanical properties :
#
#
# Convention : Reuss Voigt Hill
#
# Bulk Modulus (GPa) = 63.01922 63.81078 63.41500
# Shear Modulus (GPa) = 28.15475 28.74566 28.45021
#
# Velocity S-wave (km/s) = 3.76560 3.80491 3.78531
# Velocity P-wave (km/s) = 7.11654 7.17221 7.14443
#
# Compressibility (1/GPa) = 0.01586818
#
# Stress axis : x y z
#
# Youngs Moduli (GPa) = 80.60205 80.60205 71.12654
#
# Poissons Ratio (x) = 0.08942 0.36960
# Poissons Ratio (y) = 0.08942 0.36960
# Poissons Ratio (z) = 0.41884 0.41884
#
# Static dielectric constant tensor:
#      x y z
#    x 3.704020 0.000000 0.000000 
#    y 0.000000 3.704020 0.000000 
#    z 0.000000 0.000000 3.570850 
# 
# 
# High freq. dielectric constant tensor:
#      x y z
#    x 1.778940 0.000000 0.000000 
#    y 0.000000 1.778940 0.000000 
#    z 0.000000 0.000000 1.767330 
# 
# From -- ./inp_files/6226.got.cif
#   From: 2010.03.12/outbox.cif.g09.slc.cpg/sg126_4_cif.got.tgz:6226.got - 2010.04.06 16:55:23.
