data_PCOD8313864
_publ_section_title
;
Structure prediction by ZEFSAII (Michael W. Deem and Ramdas Pophale) SiO2 
 PCOD8313864
Probable space group: P 4/M B M
;
_chemical_formula_sum "Si O2"
_cell_formula_units_Z 56
_cell_length_a 17.027896
_cell_length_b 17.027896
_cell_length_c 11.527799
_cell_angle_alpha 90.000000
_cell_angle_beta 90.000000
_cell_angle_gamma 90.000000
_cell_volume 3342.476584
_symmetry_space_group_name_H-M "P 4/M B M"
_symmetry_group_IT_number 127
_symmetry_cell_setting 'tetragonal'
loop_
_space_group_symop_operation_xyz
x,y,z
-y,x,z
-x,-y,z
y,-x,z
1/2+x,1/2-y,-z
1/2-x,1/2+y,-z
1/2+y,1/2+x,-z
1/2-y,1/2-x,-z
-x,-y,-z
y,-x,-z
x,y,-z
-y,x,-z
1/2-x,1/2+y,z
1/2+x,1/2-y,z
1/2-y,1/2-x,z
1/2+y,1/2+x,z
loop_
_atom_site_type_symbol
_atom_site_label
_atom_site_fract_x
_atom_site_fract_y
_atom_site_fract_z
Si Si1 0.435048 0.064953 0.359973
Si Si2 0.008031 0.872840 0.135912
Si Si3 0.858118 0.235554 0.500000
Si Si4 0.606575 0.228790 0.500000
Si Si5 0.478554 0.237797 0.313779
O O1 0.425395 0.074606 0.500000
O O2 0.460367 0.145714 0.296823
O O3 0.500000 0.000000 0.331113
O O4 0.012723 0.787531 0.196185
O O5 0.927759 0.918003 0.170795
O O6 0.009218 0.855963 0.000000
O O7 0.824836 0.324836 0.500000
O O8 0.787354 0.177381 0.500000
O O9 0.909156 0.221422 0.614264
O O10 0.639304 0.139304 0.500000
O O11 0.558854 0.243995 0.383949
#
# Coordination Sequence:
#
# PCOD8313864 Si02
#       5
#     8  16   8   8  16
#     4  11  20  34  55  77 107 145 188 211 256 318
#     4   9  19  36  57  79 104 138 178 218 266 324
#     4  10  18  30  44  73 106 133 164 208 260 309
#     4  10  20  29  47  74 107 135 166 210 261 310
#     4  11  18  32  51  77 101 140 174 220 254 316
#
# _framework density 16.754045000000001
#
# number of rings (size 3 to 8) (size 9 to 14) (size 15 to 20)
#    0.000    1.857    4.286    3.429    0.000    0.000 
#    0.000    0.714    0.000   11.143    0.000    0.000 
#    0.000    0.000    0.000    0.000    0.000    0.000 
#
# Total GULP energy -694131.144663 kJ/mol
# GULP energy per Si atom -12395.199012 kJ/mol
# Density = 1.671591 g / cm^3
# Si number density = 16.754045 Si / 1000 Ang^3
#
#
#
# Elastic Constant Matrix: (Units=GPa)
#
#
# Indices 1 2 3 4 5 6 
#
# 1 113.3927 53.3386 49.1975 0.0000 0.0000 0.0000
# 2 53.3386 113.3928 49.1975 0.0000 0.0000 0.0000
# 3 49.1975 49.1975 74.3910 0.0000 0.0000 0.0000
# 4 0.0000 0.0000 0.0000 35.2488 0.0000 0.0000
# 5 0.0000 0.0000 0.0000 0.0000 35.2486 0.0000
# 6 0.0000 0.0000 0.0000 0.0000 0.0000 25.0394
#
#
#
# Elastic Compliance Matrix: (Units=1/GPa)
#
#
# Indices 1 2 3 4 5 6 
#
# 1 0.013244 -0.003407 -0.006505 0.000000 0.000000 0.000000
# 2 -0.003407 0.013244 -0.006505 0.000000 0.000000 0.000000
# 3 -0.006505 -0.006505 0.022047 0.000000 0.000000 0.000000
# 4 0.000000 0.000000 0.000000 0.028370 0.000000 0.000000
# 5 0.000000 0.000000 0.000000 0.000000 0.028370 0.000000
# 6 0.000000 0.000000 0.000000 0.000000 0.000000 0.039937
#
#
# Mechanical properties :
#
#
# Convention : Reuss Voigt Hill
#
# Bulk Modulus (GPa) = 63.69872 67.18264 65.44068
# Shear Modulus (GPa) = 27.28039 29.07021 28.17530
#
# Velocity S-wave (km/s) = 4.03958 4.16999 4.10530
# Velocity P-wave (km/s) = 7.73693 7.96062 7.84957
#
# Compressibility (1/GPa) = 0.01569890
#
# Stress axis : x y z
#
# Youngs Moduli (GPa) = 75.50456 75.50468 45.35754
#
# Poissons Ratio (x) = 0.25728 0.29507
# Poissons Ratio (y) = 0.25728 0.29507
# Poissons Ratio (z) = 0.49119 0.49119
#
# Static dielectric constant tensor:
#      x y z
#    x 3.265240 0.000000 0.000000 
#    y 0.000000 3.265240 0.000000 
#    z 0.000000 0.000000 2.804930 
# 
# 
# High freq. dielectric constant tensor:
#      x y z
#    x 1.658400 0.000000 0.000000 
#    y 0.000000 1.658400 0.000000 
#    z 0.000000 0.000000 1.609270 
# 
# From -- ./inp_files/1137.got.cif
#   From: 2010.03.12/outbox.cif.g09.slc.cpg/sg127_1_cif.got.tgz:1137.got - 2010.04.06 17:03:15.
