data_PCOD8313357
_publ_section_title
;
Structure prediction by ZEFSAII (Michael W. Deem and Ramdas Pophale) SiO2 
 PCOD8313357
Probable space group: P 4/M C C
;
_chemical_formula_sum "Si O2"
_cell_formula_units_Z 56
_cell_length_a 11.992191
_cell_length_b 11.992191
_cell_length_c 19.597829
_cell_angle_alpha 90.000000
_cell_angle_beta 90.000000
_cell_angle_gamma 90.000000
_cell_volume 2818.415624
_symmetry_space_group_name_H-M "P 4/M C C"
_symmetry_group_IT_number 124
_symmetry_cell_setting 'tetragonal'
loop_
_space_group_symop_operation_xyz
x,y,z
-y,x,z
-x,-y,z
y,-x,z
x,-y,1/2-z
-x,y,1/2-z
y,x,1/2-z
-y,-x,1/2-z
-x,-y,-z
y,-x,-z
x,y,-z
-y,x,-z
-x,y,1/2+z
x,-y,1/2+z
-y,-x,1/2+z
y,x,1/2+z
loop_
_atom_site_type_symbol
_atom_site_label
_atom_site_fract_x
_atom_site_fract_y
_atom_site_fract_z
Si Si1 0.701811 0.137833 0.575375
Si Si2 0.182884 0.000000 0.250000
Si Si3 0.502654 0.867464 0.172555
Si Si4 0.094295 0.279522 0.119112
O O1 0.676717 0.188584 0.500000
O O2 0.608030 0.178335 0.629550
O O3 0.823796 0.179040 0.600194
O O4 0.704134 0.003350 0.563526
O O5 0.260510 0.012964 0.315295
O O6 0.110789 0.110789 0.250000
O O7 0.500000 0.819144 0.250000
O O8 0.389628 0.830681 0.132732
O O9 0.500000 0.000000 0.173410
#
# Coordination Sequence:
#
# PCOD8313357 Si02
#       4
#    16   8  16  16
#     4  11  23  37  55  83 120 158 193 237 296 355
#     4  11  20  32  55  82 120 153 188 233 292 340
#     4   9  20  36  57  81 109 148 198 246 284 340
#     4  11  21  36  56  84 116 152 194 238 291 358
#
# _framework density 19.869319999999998
#
# number of rings (size 3 to 8) (size 9 to 14) (size 15 to 20)
#    0.000    1.571    2.857    4.286    0.000    6.857 
#    0.000    1.429    0.000    0.857    0.000    4.000 
#    0.000    0.000    0.000    0.000    0.000    0.000 
#
# Total GULP energy -693962.268494 kJ/mol
# GULP energy per Si atom -12392.183366 kJ/mol
# Density = 1.982410 g / cm^3
# Si number density = 19.869320 Si / 1000 Ang^3
#
#
#
# Elastic Constant Matrix: (Units=GPa)
#
#
# Indices 1 2 3 4 5 6 
#
# 1 83.1893 23.2546 31.9380 0.0000 0.0000 0.0000
# 2 23.2546 83.1893 31.9380 0.0000 0.0000 0.0000
# 3 31.9380 31.9380 140.9004 0.0000 0.0000 0.0000
# 4 0.0000 0.0000 0.0000 20.0971 0.0000 0.0000
# 5 0.0000 0.0000 0.0000 0.0000 20.0971 0.0000
# 6 0.0000 0.0000 0.0000 0.0000 0.0000 9.3043
#
#
#
# Elastic Compliance Matrix: (Units=1/GPa)
#
#
# Indices 1 2 3 4 5 6 
#
# 1 0.013779 -0.002906 -0.002465 0.000000 0.000000 0.000000
# 2 -0.002906 0.013779 -0.002465 0.000000 0.000000 0.000000
# 3 -0.002465 -0.002465 0.008215 0.000000 0.000000 0.000000
# 4 0.000000 0.000000 0.000000 0.049758 0.000000 0.000000
# 5 0.000000 0.000000 0.000000 0.000000 0.049758 0.000000
# 6 0.000000 0.000000 0.000000 0.000000 0.000000 0.107478
#
#
# Mechanical properties :
#
#
# Convention : Reuss Voigt Hill
#
# Bulk Modulus (GPa) = 49.74385 53.50444 51.62414
# Shear Modulus (GPa) = 18.85805 24.57625 21.71715
#
# Velocity S-wave (km/s) = 3.08410 3.52077 3.30964
# Velocity P-wave (km/s) = 6.14590 6.59654 6.37520
#
# Compressibility (1/GPa) = 0.02010299
#
# Stress axis : x y z
#
# Youngs Moduli (GPa) = 72.57283 72.57283 121.73472
#
# Poissons Ratio (x) = 0.21087 0.30005
# Poissons Ratio (y) = 0.21087 0.30005
# Poissons Ratio (z) = 0.17887 0.17887
#
# Static dielectric constant tensor:
#      x y z
#    x 3.509670 0.000000 0.000000 
#    y 0.000000 3.509670 0.000000 
#    z 0.000000 0.000000 3.859680 
# 
# 
# High freq. dielectric constant tensor:
#      x y z
#    x 1.745870 0.000000 0.000000 
#    y 0.000000 1.745870 0.000000 
#    z 0.000000 0.000000 1.789190 
# 
# From -- ./inp_files/4852.got.cif
#   From: 2010.03.12/outbox.cif.g09.slc.cpg/sg124_3_cif.got.tgz:4852.got - 2010.04.06 16:38:57.
