data_PCOD8313411
_publ_section_title
;
Structure prediction by ZEFSAII (Michael W. Deem and Ramdas Pophale) SiO2 
 PCOD8313411
Probable space group: P 4/N B M
;
_chemical_formula_sum "Si O2"
_cell_formula_units_Z 120
_cell_length_a 14.692367
_cell_length_b 14.692367
_cell_length_c 31.150378
_cell_angle_alpha 90.000000
_cell_angle_beta 90.000000
_cell_angle_gamma 90.000000
_cell_volume 6724.296534
_symmetry_space_group_name_H-M "P 4/N B M"
_symmetry_group_IT_number 125
_space_group.IT_coordinate_system_code '2'
_symmetry_cell_setting 'tetragonal'
loop_
_space_group_symop_operation_xyz
x,y,z
1/2-y,x,z
1/2-x,1/2-y,z
y,1/2-x,z
x,1/2-y,-z
1/2-x,y,-z
y,x,-z
1/2-y,1/2-x,-z
-x,-y,-z
1/2+y,-x,-z
1/2+x,1/2+y,-z
-y,1/2+x,-z
-x,1/2+y,z
1/2+x,-y,z
-y,-x,z
1/2+y,1/2+x,z
loop_
_atom_site_type_symbol
_atom_site_label
_atom_site_fract_x
_atom_site_fract_y
_atom_site_fract_z
Si Si1 0.852489 0.994607 0.980584
Si Si2 0.503115 0.149881 0.276532
Si Si3 0.971685 0.331569 0.419230
Si Si4 0.303503 0.390208 0.099919
Si Si5 0.926473 0.579678 0.355910
Si Si6 0.797901 0.890529 0.803088
Si Si7 0.250000 0.901845 0.500000
Si Si8 0.777979 0.427466 0.657319
O O1 0.911810 0.088191 0.985577
O O2 0.837162 0.971715 0.930501
O O3 0.750000 0.005830 0.000000
O O4 0.908924 0.908924 0.000000
O O5 0.559654 0.059654 0.267851
O O6 0.423252 0.130384 0.311368
O O7 0.468380 0.179882 0.230445
O O8 0.564776 0.229870 0.296571
O O9 0.922312 0.422312 0.436359
O O10 0.970880 0.262166 0.459488
O O11 0.908533 0.292085 0.380816
O O12 0.069342 0.359565 0.397830
O O13 0.198478 0.365188 0.091277
O O14 0.313518 0.426232 0.148569
O O15 0.993367 0.493367 0.356308
O O16 0.978937 0.673765 0.357578
O O17 0.694216 0.863469 0.795306
O O18 0.337838 0.837838 0.492056
O O19 0.845742 0.345742 0.662745
#
# Coordination Sequence:
#
# PCOD8313411 Si02
#       8
#    16  16  16  16  16  16   8  16
#     4  11  22  35  57  87 116 150 192 235 286 343
#     4  10  19  30  46  68  97 129 159 198 249 301
#     4   9  17  29  44  63  87 115 146 185 233 285
#     4   9  17  32  55  80 106 138 179 234 282 313
#     4   8  16  29  43  62  88 116 149 192 237 277
#     4   9  18  32  51  75 102 133 174 217 258 304
#     4   9  16  26  42  64  90 117 146 182 230 289
#     4  10  18  29  47  67  88 117 156 198 239 288
#
# _framework density 17.845732999999999
#
# number of rings (size 3 to 8) (size 9 to 14) (size 15 to 20)
#    0.000    2.600    1.333    3.200    0.000    2.400 
#    0.000    0.667    0.000    8.400    0.000    1.867 
#    0.000    4.267    0.000    0.000    0.000    0.000 
#
# Total GULP energy -1486620.585780 kJ/mol
# GULP energy per Si atom -12388.504881 kJ/mol
# Density = 1.780512 g / cm^3
# Si number density = 17.845733 Si / 1000 Ang^3
#
#
#
# Elastic Constant Matrix: (Units=GPa)
#
#
# Indices 1 2 3 4 5 6 
#
# 1 58.0490 23.1781 34.4911 0.0000 0.0000 0.0000
# 2 23.1781 58.0490 34.4911 0.0000 0.0000 0.0000
# 3 34.4911 34.4911 128.9664 0.0000 0.0000 0.0000
# 4 0.0000 0.0000 0.0000 24.0203 0.0000 0.0000
# 5 0.0000 0.0000 0.0000 0.0000 24.0203 0.0000
# 6 0.0000 0.0000 0.0000 0.0000 0.0000 5.6571
#
#
#
# Elastic Compliance Matrix: (Units=1/GPa)
#
#
# Indices 1 2 3 4 5 6 
#
# 1 0.022303 -0.006374 -0.004260 0.000000 0.000000 0.000000
# 2 -0.006374 0.022303 -0.004260 0.000000 0.000000 0.000000
# 3 -0.004260 -0.004260 0.010033 0.000000 0.000000 0.000000
# 4 0.000000 0.000000 0.000000 0.041631 0.000000 0.000000
# 5 0.000000 0.000000 0.000000 0.000000 0.041631 0.000000
# 6 0.000000 0.000000 0.000000 0.000000 0.000000 0.176769
#
#
# Mechanical properties :
#
#
# Convention : Reuss Voigt Hill
#
# Bulk Modulus (GPa) = 40.24097 47.70948 43.97522
# Shear Modulus (GPa) = 14.17462 20.93314 17.55388
#
# Velocity S-wave (km/s) = 2.82137 3.42863 3.13972
# Velocity P-wave (km/s) = 5.76297 6.51663 6.15135
#
# Compressibility (1/GPa) = 0.02485030
#
# Stress axis : x y z
#
# Youngs Moduli (GPa) = 44.83673 44.83673 99.67478
#
# Poissons Ratio (x) = 0.28579 0.42463
# Poissons Ratio (y) = 0.28579 0.42463
# Poissons Ratio (z) = 0.19101 0.19101
#
# Static dielectric constant tensor:
#      x y z
#    x 3.195880 0.000000 0.000000 
#    y 0.000000 3.195880 0.000000 
#    z 0.000000 0.000000 3.334790 
# 
# 
# High freq. dielectric constant tensor:
#      x y z
#    x 1.671980 0.000000 0.000000 
#    y 0.000000 1.671980 0.000000 
#    z 0.000000 0.000000 1.692240 
# 
# From -- ./inp_files/6686.got.cif
#   From: 2010.03.12/outbox.cif.g09.slc.cpg/sg125_4_cif.got.tgz:6686.got - 2010.04.06 16:47:52.
