data_PCOD8313723
_publ_section_title
;
Structure prediction by ZEFSAII (Michael W. Deem and Ramdas Pophale) SiO2 
 PCOD8313723
Probable space group: P 4/N N C
;
_chemical_formula_sum "Si O2"
_cell_formula_units_Z 72
_cell_length_a 10.895891
_cell_length_b 10.895891
_cell_length_c 33.854864
_cell_angle_alpha 90.000000
_cell_angle_beta 90.000000
_cell_angle_gamma 90.000000
_cell_volume 4019.264373
_symmetry_space_group_name_H-M "P 4/N N C"
_symmetry_group_IT_number 126
_space_group.IT_coordinate_system_code '2'
_symmetry_cell_setting 'tetragonal'
loop_
_space_group_symop_operation_xyz
x,y,z
1/2-y,x,z
1/2-x,1/2-y,z
y,1/2-x,z
x,1/2-y,1/2-z
1/2-x,y,1/2-z
y,x,1/2-z
1/2-y,1/2-x,1/2-z
-x,-y,-z
1/2+y,-x,-z
1/2+x,1/2+y,-z
-y,1/2+x,-z
-x,1/2+y,1/2+z
1/2+x,-y,1/2+z
-y,-x,1/2+z
1/2+y,1/2+x,1/2+z
loop_
_atom_site_type_symbol
_atom_site_label
_atom_site_fract_x
_atom_site_fract_y
_atom_site_fract_z
Si Si1 0.937232 0.285556 0.988922
Si Si2 0.805484 0.384206 0.091373
Si Si3 0.953786 0.742395 0.335307
Si Si4 0.826572 0.568800 0.563419
Si Si5 0.048338 0.250000 0.750000
O O1 0.970897 0.248014 0.943981
O O2 0.888122 0.168315 0.013336
O O3 0.049690 0.336287 0.015476
O O4 0.750000 0.250000 0.086596
O O5 0.764225 0.439584 0.132727
O O6 0.952628 0.377819 0.087575
O O7 0.874953 0.865869 0.340285
O O8 0.023059 0.745505 0.292094
O O9 0.908076 0.685109 0.575390
O O10 0.130338 0.130338 0.750000
#
# Coordination Sequence:
#
# PCOD8313723 Si02
#       5
#    16  16  16  16   8
#     4   9  16  33  48  66  93 130 172 212 265 298
#     4  11  21  33  52  77 108 135 174 221 265 304
#     4   9  19  33  55  83 107 135 169 210 265 318
#     4  10  22  36  51  71 100 143 184 214 258 314
#     4   7  12  30  53  76 108 136 159 201 264 320
#
# _framework density 17.913724999999999
#
# number of rings (size 3 to 8) (size 9 to 14) (size 15 to 20)
#    0.000    2.556    4.444    1.333    3.111    5.333 
#    0.000    2.778    0.000    0.000    0.000    0.000 
#    0.000    0.000    0.000    0.000    0.000    0.000 
#
# Total GULP energy -891944.397039 kJ/mol
# GULP energy per Si atom -12388.116626 kJ/mol
# Density = 1.787295 g / cm^3
# Si number density = 17.913725 Si / 1000 Ang^3
#
#
#
# Elastic Constant Matrix: (Units=GPa)
#
#
# Indices 1 2 3 4 5 6 
#
# 1 35.8473 -1.5907 24.1588 0.0000 0.0000 0.0000
# 2 -1.5907 35.8473 24.1588 0.0000 0.0000 0.0000
# 3 24.1588 24.1588 144.2031 0.0000 0.0000 0.0000
# 4 0.0000 0.0000 0.0000 23.4760 0.0000 0.0000
# 5 0.0000 0.0000 0.0000 0.0000 23.4760 0.0000
# 6 0.0000 0.0000 0.0000 0.0000 0.0000 11.5717
#
#
#
# Elastic Compliance Matrix: (Units=1/GPa)
#
#
# Indices 1 2 3 4 5 6 
#
# 1 0.032467 0.005756 -0.006404 0.000000 0.000000 0.000000
# 2 0.005756 0.032467 -0.006404 0.000000 0.000000 0.000000
# 3 -0.006404 -0.006404 0.009080 0.000000 0.000000 0.000000
# 4 0.000000 0.000000 0.000000 0.042597 0.000000 0.000000
# 5 0.000000 0.000000 0.000000 0.000000 0.042597 0.000000
# 6 0.000000 0.000000 0.000000 0.000000 0.000000 0.086418
#
#
# Mechanical properties :
#
#
# Convention : Reuss Voigt Hill
#
# Bulk Modulus (GPa) = 16.69094 34.37238 25.53166
# Shear Modulus (GPa) = 17.87633 22.98276 20.42954
#
# Velocity S-wave (km/s) = 3.16240 3.58574 3.38070
# Velocity P-wave (km/s) = 4.76151 6.03099 5.43345
#
# Compressibility (1/GPa) = 0.05991273
#
# Stress axis : x y z
#
# Youngs Moduli (GPa) = 30.80026 30.80026 110.12811
#
# Poissons Ratio (x) = -0.17730 0.70523
# Poissons Ratio (y) = -0.17730 0.70523
# Poissons Ratio (z) = 0.19724 0.19724
#
# Static dielectric constant tensor:
#      x y z
#    x 3.121280 0.000000 0.000000 
#    y 0.000000 3.121280 0.000000 
#    z 0.000000 0.000000 3.524720 
# 
# 
# High freq. dielectric constant tensor:
#      x y z
#    x 1.673780 0.000000 0.000000 
#    y 0.000000 1.673780 0.000000 
#    z 0.000000 0.000000 1.683100 
# 
# From -- ./inp_files/6106.got.cif
#   From: 2010.03.12/outbox.cif.g09.slc.cpg/sg126_4_cif.got.tgz:6106.got - 2010.04.06 16:55:23.
