data_PCOD8313965
_publ_section_title
;
Structure prediction by ZEFSAII (Michael W. Deem and Ramdas Pophale) SiO2 
 PCOD8313965
Probable space group: P 4/M B M
;
_chemical_formula_sum "Si O2"
_cell_formula_units_Z 112
_cell_length_a 19.383561
_cell_length_b 19.383561
_cell_length_c 17.300598
_cell_angle_alpha 90.000000
_cell_angle_beta 90.000000
_cell_angle_gamma 90.000000
_cell_volume 6500.222843
_symmetry_space_group_name_H-M "P 4/M B M"
_symmetry_group_IT_number 127
_symmetry_cell_setting 'tetragonal'
loop_
_space_group_symop_operation_xyz
x,y,z
-y,x,z
-x,-y,z
y,-x,z
1/2+x,1/2-y,-z
1/2-x,1/2+y,-z
1/2+y,1/2+x,-z
1/2-y,1/2-x,-z
-x,-y,-z
y,-x,-z
x,y,-z
-y,x,-z
1/2-x,1/2+y,z
1/2+x,1/2-y,z
1/2-y,1/2-x,z
1/2+y,1/2+x,z
loop_
_atom_site_type_symbol
_atom_site_label
_atom_site_fract_x
_atom_site_fract_y
_atom_site_fract_z
Si Si1 0.134374 0.253337 0.832707
Si Si2 0.612213 0.512101 0.588581
Si Si3 0.146006 0.464937 0.914269
Si Si4 0.128918 0.789811 0.087039
Si Si5 0.076904 0.682356 0.201857
Si Si6 0.205048 0.987472 0.728185
Si Si7 0.972349 0.109049 0.141961
O O1 0.195934 0.304067 0.802644
O O2 0.086816 0.292222 0.894041
O O3 0.162574 0.188370 0.878789
O O4 0.087766 0.225836 0.761440
O O5 0.560106 0.574578 0.606515
O O6 0.636420 0.514634 0.500000
O O7 0.681182 0.520510 0.639837
O O8 0.073293 0.426708 0.914073
O O9 0.140169 0.523189 0.849974
O O10 0.160798 0.495574 0.000000
O O11 0.123935 0.724783 0.142420
O O12 0.054327 0.829354 0.086911
O O13 0.147003 0.767248 0.000000
O O14 0.127218 0.627218 0.244304
O O15 0.038815 0.729243 0.265886
O O16 0.140297 0.023966 0.771614
O O17 0.048767 0.082492 0.125965
#
# Coordination Sequence:
#
# PCOD8313965 Si02
#       7
#    16  16  16  16  16  16  16
#     4  10  20  34  49  69  95 131 178 213 247 298
#     4   9  18  32  55  87 113 131 155 194 243 298
#     4   9  18  33  52  69  89 123 169 224 275 309
#     4  11  22  33  46  65  94 132 172 212 257 301
#     4  10  22  35  47  70  98 128 170 213 256 300
#     4  10  19  34  55  74  99 135 166 203 247 300
#     4  10  19  32  48  69  95 127 166 206 254 304
#
# _framework density 17.230179
#
# number of rings (size 3 to 8) (size 9 to 14) (size 15 to 20)
#    0.000    2.143    1.429    2.571    2.000    4.571 
#    0.000    1.429    0.000    0.857    0.000    2.000 
#    0.000    0.000    0.000    7.143    0.000    0.000 
#
# Total GULP energy -1387991.666458 kJ/mol
# GULP energy per Si atom -12392.782736 kJ/mol
# Density = 1.719096 g / cm^3
# Si number density = 17.230179 Si / 1000 Ang^3
#
#
#
# Elastic Constant Matrix: (Units=GPa)
#
#
# Indices 1 2 3 4 5 6 
#
# 1 58.0263 37.5494 26.3181 0.0000 0.0000 0.0000
# 2 37.5494 58.0263 26.3181 0.0000 0.0000 0.0000
# 3 26.3181 26.3181 85.3069 0.0000 0.0000 0.0000
# 4 0.0000 0.0000 0.0000 17.0012 0.0000 0.0000
# 5 0.0000 0.0000 0.0000 0.0000 17.0012 0.0000
# 6 0.0000 0.0000 0.0000 0.0000 0.0000 29.3720
#
#
#
# Elastic Compliance Matrix: (Units=1/GPa)
#
#
# Indices 1 2 3 4 5 6 
#
# 1 0.030720 -0.018115 -0.003889 0.000000 0.000000 0.000000
# 2 -0.018115 0.030720 -0.003889 0.000000 0.000000 0.000000
# 3 -0.003889 -0.003889 0.014122 0.000000 0.000000 0.000000
# 4 0.000000 0.000000 0.000000 0.058819 0.000000 0.000000
# 5 0.000000 0.000000 0.000000 0.000000 0.058819 0.000000
# 6 0.000000 0.000000 0.000000 0.000000 0.000000 0.034046
#
#
# Mechanical properties :
#
#
# Convention : Reuss Voigt Hill
#
# Bulk Modulus (GPa) = 42.05883 42.41454 42.23668
# Shear Modulus (GPa) = 17.42419 20.08647 18.75533
#
# Velocity S-wave (km/s) = 3.18348 3.41804 3.30285
# Velocity P-wave (km/s) = 6.16244 6.34407 6.25392
#
# Compressibility (1/GPa) = 0.02377622
#
# Stress axis : x y z
#
# Youngs Moduli (GPa) = 32.55217 32.55217 70.81272
#
# Poissons Ratio (x) = 0.58970 0.27536
# Poissons Ratio (y) = 0.58970 0.27536
# Poissons Ratio (z) = 0.12658 0.12658
#
# Static dielectric constant tensor:
#      x y z
#    x 3.393160 0.000000 0.000000 
#    y 0.000000 3.393160 0.000000 
#    z 0.000000 0.000000 2.853540 
# 
# 
# High freq. dielectric constant tensor:
#      x y z
#    x 1.671070 0.000000 0.000000 
#    y 0.000000 1.671070 0.000000 
#    z 0.000000 0.000000 1.614880 
# 
# From -- ./inp_files/5359.got.cif
#   From: 2010.03.12/outbox.cif.g09.slc.cpg/sg127_3_cif.got.tgz:5359.got - 2010.04.06 17:03:15.
