data_PCOD8313205
_publ_section_title
;
Structure prediction by ZEFSAII (Michael W. Deem and Ramdas Pophale) SiO2 
 PCOD8313205
Probable space group: P 4/M C C
;
_chemical_formula_sum "Si O2"
_cell_formula_units_Z 128
_cell_length_a 20.418885
_cell_length_b 20.418885
_cell_length_c 17.526849
_cell_angle_alpha 90.000000
_cell_angle_beta 90.000000
_cell_angle_gamma 90.000000
_cell_volume 7307.484308
_symmetry_space_group_name_H-M "P 4/M C C"
_symmetry_group_IT_number 124
_symmetry_cell_setting 'tetragonal'
loop_
_space_group_symop_operation_xyz
x,y,z
-y,x,z
-x,-y,z
y,-x,z
x,-y,1/2-z
-x,y,1/2-z
y,x,1/2-z
-y,-x,1/2-z
-x,-y,-z
y,-x,-z
x,y,-z
-y,x,-z
-x,y,1/2+z
x,-y,1/2+z
-y,-x,1/2+z
y,x,1/2+z
loop_
_atom_site_type_symbol
_atom_site_label
_atom_site_fract_x
_atom_site_fract_y
_atom_site_fract_z
Si Si1 0.490706 0.131220 0.660305
Si Si2 0.347902 0.665777 0.338271
Si Si3 0.628034 0.903751 0.089546
Si Si4 0.052186 0.627355 0.408339
Si Si5 0.241899 0.413646 0.084412
Si Si6 0.282109 0.212419 0.909118
Si Si7 0.594483 0.547691 0.587529
Si Si8 0.159905 0.717737 0.417075
O O1 0.500000 0.125515 0.750000
O O2 0.561849 0.122414 0.625222
O O3 0.440257 0.075763 0.630281
O O4 0.465093 0.202790 0.636662
O O5 0.331764 0.668237 0.250000
O O6 0.309891 0.604727 0.376305
O O7 0.331772 0.736062 0.373090
O O8 0.423937 0.651186 0.357173
O O9 0.691039 0.859444 0.113890
O O10 0.641328 0.977873 0.116168
O O11 0.618244 0.900425 0.000000
O O12 0.061371 0.620349 0.500000
O O13 0.093232 0.691302 0.376504
O O14 0.202497 0.347115 0.075095
O O15 0.254133 0.444111 0.000000
O O16 0.207182 0.227042 0.877319
O O17 0.280953 0.222675 0.000000
O O18 0.527851 0.586134 0.605957
O O19 0.614874 0.558860 0.500000
O O20 0.139926 0.745463 0.500000
#
# Coordination Sequence:
#
# PCOD8313205 Si02
#       8
#    16  16  16  16  16  16  16  16
#     4  11  22  32  49  70 103 136 170 211 253 296
#     4  11  22  33  53  74  99 126 157 208 261 308
#     4  10  20  32  49  73 101 131 167 215 257 298
#     4   9  17  32  52  71  94 133 179 209 244 305
#     4   9  18  35  53  68  90 130 173 202 243 311
#     4   9  18  33  51  71  97 127 163 202 249 299
#     4   9  19  37  56  70  85 113 158 205 253 314
#     4   7  12  27  50  68  84 117 165 205 234 282
#
# _framework density 17.516287999999999
#
# number of rings (size 3 to 8) (size 9 to 14) (size 15 to 20)
#    0.000    2.625    0.000    4.500    1.750    3.500 
#    0.000    1.875    0.000    0.000    0.000    0.000 
#    0.000    0.500    0.000    7.000    0.000    0.000 
#
# Total GULP energy -1585700.756847 kJ/mol
# GULP energy per Si atom -12388.287163 kJ/mol
# Density = 1.747642 g / cm^3
# Si number density = 17.516288 Si / 1000 Ang^3
#
#
#
# Elastic Constant Matrix: (Units=GPa)
#
#
# Indices 1 2 3 4 5 6 
#
# 1 69.9011 49.2518 24.1961 0.0000 0.0000 0.0000
# 2 49.2518 69.9011 24.1960 0.0000 0.0000 0.0000
# 3 24.1961 24.1960 47.2926 0.0000 0.0000 0.0000
# 4 0.0000 0.0000 0.0000 10.1070 0.0000 0.0000
# 5 0.0000 0.0000 0.0000 0.0000 10.1069 0.0000
# 6 0.0000 0.0000 0.0000 0.0000 0.0000 30.4420
#
#
#
# Elastic Compliance Matrix: (Units=1/GPa)
#
#
# Indices 1 2 3 4 5 6 
#
# 1 0.029511 -0.018917 -0.005420 0.000000 0.000000 0.000000
# 2 -0.018917 0.029511 -0.005420 0.000000 0.000000 0.000000
# 3 -0.005420 -0.005420 0.026691 0.000000 0.000000 0.000000
# 4 0.000000 0.000000 0.000000 0.098942 0.000000 0.000000
# 5 0.000000 0.000000 0.000000 0.000000 0.098942 0.000000
# 6 0.000000 0.000000 0.000000 0.000000 0.000000 0.032849
#
#
# Mechanical properties :
#
#
# Convention : Reuss Voigt Hill
#
# Bulk Modulus (GPa) = 38.17020 42.48696 40.32858
# Shear Modulus (GPa) = 12.99738 16.09458 14.54598
#
# Velocity S-wave (km/s) = 2.72695 3.03452 2.88484
# Velocity P-wave (km/s) = 5.63503 6.04864 5.84550
#
# Compressibility (1/GPa) = 0.02619845
#
# Stress axis : x y z
#
# Youngs Moduli (GPa) = 33.88585 33.88588 37.46574
#
# Poissons Ratio (x) = 0.64102 0.20307
# Poissons Ratio (y) = 0.64102 0.20306
# Poissons Ratio (z) = 0.18367 0.18366
#
# Static dielectric constant tensor:
#      x y z
#    x 3.407140 0.000000 0.000000 
#    y 0.000000 3.407140 0.000000 
#    z 0.000000 0.000000 3.147810 
# 
# 
# High freq. dielectric constant tensor:
#      x y z
#    x 1.660530 0.000000 0.000000 
#    y 0.000000 1.660530 0.000000 
#    z 0.000000 0.000000 1.657720 
# 
# From -- ./inp_files/4613.got.cif
#   From: 2010.03.12/outbox.cif.g09.slc.cpg/sg124_3_cif.got.tgz:4613.got - 2010.04.06 16:38:57.
