data_PCOD8313291
_publ_section_title
;
Structure prediction by ZEFSAII (Michael W. Deem and Ramdas Pophale) SiO2 
 PCOD8313291
Probable space group: P 4/M C C
;
_chemical_formula_sum "Si O2"
_cell_formula_units_Z 96
_cell_length_a 17.532496
_cell_length_b 17.532496
_cell_length_c 18.085796
_cell_angle_alpha 90.000000
_cell_angle_beta 90.000000
_cell_angle_gamma 90.000000
_cell_volume 5559.364184
_symmetry_space_group_name_H-M "P 4/M C C"
_symmetry_group_IT_number 124
_symmetry_cell_setting 'tetragonal'
loop_
_space_group_symop_operation_xyz
x,y,z
-y,x,z
-x,-y,z
y,-x,z
x,-y,1/2-z
-x,y,1/2-z
y,x,1/2-z
-y,-x,1/2-z
-x,-y,-z
y,-x,-z
x,y,-z
-y,x,-z
-x,y,1/2+z
x,-y,1/2+z
-y,-x,1/2+z
y,x,1/2+z
loop_
_atom_site_type_symbol
_atom_site_label
_atom_site_fract_x
_atom_site_fract_y
_atom_site_fract_z
Si Si1 0.446163 0.717582 0.585888
Si Si2 0.410988 0.997998 0.083831
Si Si3 0.773166 0.744257 0.830431
Si Si4 0.687091 0.924896 0.708778
Si Si5 0.383933 0.693514 0.914660
Si Si6 0.354215 0.851930 0.645518
O O1 0.445339 0.741715 0.500000
O O2 0.529884 0.696556 0.614527
O O3 0.392117 0.645050 0.599450
O O4 0.416942 0.787209 0.634907
O O5 0.371603 0.080940 0.087804
O O6 0.500000 0.000000 0.105791
O O7 0.368032 0.942882 0.140588
O O8 0.401462 0.967313 0.000000
O O9 0.735229 0.735229 0.750000
O O10 0.865844 0.752521 0.821217
O O11 0.756609 0.666773 0.873934
O O12 0.731811 0.817426 0.869218
O O13 0.636866 0.882137 0.770792
O O14 0.722983 0.000000 0.750000
O O15 0.380011 0.715610 0.000000
#
# Coordination Sequence:
#
# PCOD8313291 Si02
#       6
#    16  16  16  16  16  16
#     4   9  17  30  47  69  94 127 170 216 264 308
#     4  10  21  34  48  72 106 138 170 210 255 304
#     4   9  18  34  50  72  97 128 168 211 255 308
#     4   9  19  34  51  73  98 128 167 208 257 311
#     4   9  18  30  46  67  92 126 171 218 263 308
#     4   9  18  33  50  70 101 135 166 205 255 307
#
# _framework density 17.268162
#
# number of rings (size 3 to 8) (size 9 to 14) (size 15 to 20)
#    0.000    2.833    0.000    0.500    2.333    4.667 
#    3.000    4.167    0.000    0.000    0.000    9.333 
#    0.000  175.667    0.000   24.000    0.000    0.000 
#
# Total GULP energy -1189621.603105 kJ/mol
# GULP energy per Si atom -12391.891699 kJ/mol
# Density = 1.722886 g / cm^3
# Si number density = 17.268162 Si / 1000 Ang^3
#
#
#
# Elastic Constant Matrix: (Units=GPa)
#
#
# Indices 1 2 3 4 5 6 
#
# 1 116.9838 53.6935 38.5709 0.0000 0.0000 0.0000
# 2 53.6935 116.9838 38.5709 0.0000 0.0000 0.0000
# 3 38.5709 38.5709 58.8688 0.0000 0.0000 0.0000
# 4 0.0000 0.0000 0.0000 23.0208 0.0000 0.0000
# 5 0.0000 0.0000 0.0000 0.0000 23.0208 0.0000
# 6 0.0000 0.0000 0.0000 0.0000 0.0000 16.8464
#
#
#
# Elastic Compliance Matrix: (Units=1/GPa)
#
#
# Indices 1 2 3 4 5 6 
#
# 1 0.012062 -0.003738 -0.005454 0.000000 0.000000 0.000000
# 2 -0.003738 0.012062 -0.005454 0.000000 0.000000 0.000000
# 3 -0.005454 -0.005454 0.024134 0.000000 0.000000 0.000000
# 4 0.000000 0.000000 0.000000 0.043439 0.000000 0.000000
# 5 0.000000 0.000000 0.000000 0.000000 0.043439 0.000000
# 6 0.000000 0.000000 0.000000 0.000000 0.000000 0.059360
#
#
# Mechanical properties :
#
#
# Convention : Reuss Voigt Hill
#
# Bulk Modulus (GPa) = 52.72548 61.61188 57.16868
# Shear Modulus (GPa) = 21.72876 23.37768 22.55322
#
# Velocity S-wave (km/s) = 3.55112 3.68340 3.61786
# Velocity P-wave (km/s) = 6.88575 7.33804 7.11549
#
# Compressibility (1/GPa) = 0.01896616
#
# Stress axis : x y z
#
# Youngs Moduli (GPa) = 82.90411 82.90411 41.43573
#
# Poissons Ratio (x) = 0.30990 0.22599
# Poissons Ratio (y) = 0.30990 0.22599
# Poissons Ratio (z) = 0.45215 0.45215
#
# Static dielectric constant tensor:
#      x y z
#    x 3.315800 0.000000 0.000000 
#    y 0.000000 3.315800 0.000000 
#    z 0.000000 0.000000 3.260230 
# 
# 
# High freq. dielectric constant tensor:
#      x y z
#    x 1.652780 0.000000 0.000000 
#    y 0.000000 1.652780 0.000000 
#    z 0.000000 0.000000 1.669280 
# 
# From -- ./inp_files/4252.got.cif
#   From: 2010.03.12/outbox.cif.g09.slc.cpg/sg124_3_cif.got.tgz:4252.got - 2010.04.06 16:38:57.
