data_PCOD8313035
_publ_section_title
;
Structure prediction by ZEFSAII (Michael W. Deem and Ramdas Pophale) SiO2 
 PCOD8313035
Probable space group: P 4/M M M
;
_chemical_formula_sum "Si O2"
_cell_formula_units_Z 72
_cell_length_a 20.553727
_cell_length_b 20.553727
_cell_length_c 10.227080
_cell_angle_alpha 90.000000
_cell_angle_beta 90.000000
_cell_angle_gamma 90.000000
_cell_volume 4320.488175
_symmetry_space_group_name_H-M "P 4/M M M"
_symmetry_group_IT_number 123
_symmetry_cell_setting 'tetragonal'
loop_
_space_group_symop_operation_xyz
x,y,z
-y,x,z
-x,-y,z
y,-x,z
x,-y,-z
-x,y,-z
y,x,-z
-y,-x,-z
-x,-y,-z
y,-x,-z
x,y,-z
-y,x,-z
-x,y,z
x,-y,z
-y,-x,z
y,x,z
loop_
_atom_site_type_symbol
_atom_site_label
_atom_site_fract_x
_atom_site_fract_y
_atom_site_fract_z
Si Si1 0.321276 0.426359 0.353465
Si Si2 0.645543 0.246429 0.851922
Si Si3 0.898171 0.320415 0.846601
Si Si4 0.823086 0.072730 0.154864
Si Si5 0.574669 0.000000 0.844374
O O1 0.294872 0.412021 0.500000
O O2 0.343485 0.500000 0.338072
O O3 0.384804 0.384804 0.321342
O O4 0.265571 0.411303 0.248026
O O5 0.706897 0.293104 0.836857
O O6 0.669450 0.176149 0.809765
O O7 0.617971 0.247584 0.000000
O O8 0.918549 0.250161 0.786920
O O9 0.938347 0.382879 0.792904
O O10 0.910805 0.317128 0.000000
O O11 0.873864 0.126137 0.213472
O O12 0.847562 0.000000 0.191251
O O13 0.820280 0.082045 0.000000
O O14 0.500000 0.000000 0.787181
O O15 0.568873 0.000000 0.000000
#
# Coordination Sequence:
#
# PCOD8313035 Si02
#       5
#    16  16  16  16   8
#     4   9  18  32  48  66  89 116 146 181 222 269
#     4   9  17  28  44  66  89 114 146 184 224 265
#     4   9  15  25  38  54  80 111 143 178 220 268
#     4   9  15  22  33  49  73 108 145 180 219 263
#     4   9  16  24  34  50  74 104 138 178 221 260
#
# _framework density 16.664783
#
# number of rings (size 3 to 8) (size 9 to 14) (size 15 to 20)
#    0.000    3.000    1.111    0.667    0.000    4.444 
#    0.000    4.444    0.000    0.000    0.000    3.889 
#    0.000    2.667    0.000    0.000    0.000    0.222 
#
# Total GULP energy -892185.234494 kJ/mol
# GULP energy per Si atom -12391.461590 kJ/mol
# Density = 1.662685 g / cm^3
# Si number density = 16.664783 Si / 1000 Ang^3
#
#
#
# Elastic Constant Matrix: (Units=GPa)
#
#
# Indices 1 2 3 4 5 6 
#
# 1 117.2213 51.2131 27.7125 0.0000 0.0000 0.0000
# 2 51.2131 117.2213 27.7125 0.0000 0.0000 0.0000
# 3 27.7125 27.7125 36.9311 0.0000 0.0000 0.0000
# 4 0.0000 0.0000 0.0000 8.1458 0.0000 0.0000
# 5 0.0000 0.0000 0.0000 0.0000 8.1458 0.0000
# 6 0.0000 0.0000 0.0000 0.0000 0.0000 16.0727
#
#
#
# Elastic Compliance Matrix: (Units=1/GPa)
#
#
# Indices 1 2 3 4 5 6 
#
# 1 0.011517 -0.003633 -0.005916 0.000000 0.000000 0.000000
# 2 -0.003633 0.011517 -0.005916 0.000000 0.000000 0.000000
# 3 -0.005916 -0.005916 0.035956 0.000000 0.000000 0.000000
# 4 0.000000 0.000000 0.000000 0.122762 0.000000 0.000000
# 5 0.000000 0.000000 0.000000 0.000000 0.122762 0.000000
# 6 0.000000 0.000000 0.000000 0.000000 0.000000 0.062217
#
#
# Mechanical properties :
#
#
# Convention : Reuss Voigt Hill
#
# Bulk Modulus (GPa) = 35.63805 53.85002 44.74404
# Shear Modulus (GPa) = 12.28463 17.45526 14.86994
#
# Velocity S-wave (km/s) = 2.71802 3.23992 2.99038
# Velocity P-wave (km/s) = 5.59302 6.81028 6.23144
#
# Compressibility (1/GPa) = 0.02805989
#
# Stress axis : x y z
#
# Youngs Moduli (GPa) = 86.83076 86.83076 27.81199
#
# Poissons Ratio (x) = 0.31545 0.16453
# Poissons Ratio (y) = 0.31545 0.16453
# Poissons Ratio (z) = 0.51367 0.51367
#
# Static dielectric constant tensor:
#      x y z
#    x 3.280230 0.000000 0.000000 
#    y 0.000000 3.280230 0.000000 
#    z 0.000000 0.000000 2.682370 
# 
# 
# High freq. dielectric constant tensor:
#      x y z
#    x 1.649480 0.000000 0.000000 
#    y 0.000000 1.649480 0.000000 
#    z 0.000000 0.000000 1.569230 
# 
# From -- ./inp_files/1117.got.cif
#   From: 2010.03.12/outbox.cif.g09.slc.cpg/sg123_1_cif.got.tgz:1117.got - 2010.04.06 16:26:55.
