data_PCOD8313368
_publ_section_title
;
Structure prediction by ZEFSAII (Michael W. Deem and Ramdas Pophale) SiO2 
 PCOD8313368
Probable space group: P 4/M C C
;
_chemical_formula_sum "Si O2"
_cell_formula_units_Z 80
_cell_length_a 20.166986
_cell_length_b 20.166986
_cell_length_c 13.984065
_cell_angle_alpha 90.000000
_cell_angle_beta 90.000000
_cell_angle_gamma 90.000000
_cell_volume 5687.421659
_symmetry_space_group_name_H-M "P 4/M C C"
_symmetry_group_IT_number 124
_symmetry_cell_setting 'tetragonal'
loop_
_space_group_symop_operation_xyz
x,y,z
-y,x,z
-x,-y,z
y,-x,z
x,-y,1/2-z
-x,y,1/2-z
y,x,1/2-z
-y,-x,1/2-z
-x,-y,-z
y,-x,-z
x,y,-z
-y,x,-z
-x,y,1/2+z
x,-y,1/2+z
-y,-x,1/2+z
y,x,1/2+z
loop_
_atom_site_type_symbol
_atom_site_label
_atom_site_fract_x
_atom_site_fract_y
_atom_site_fract_z
Si Si1 0.921488 0.573672 0.754612
Si Si2 0.092051 0.674008 0.894999
Si Si3 0.897629 0.790856 0.731680
Si Si4 0.311180 0.064958 0.608086
Si Si5 0.895147 0.029611 0.389307
O O1 0.889961 0.500000 0.750000
O O2 0.890673 0.606976 0.660551
O O3 0.904062 0.621124 0.845791
O O4 0.000000 0.567930 0.750000
O O5 0.125886 0.736270 0.844305
O O6 0.013486 0.683594 0.893890
O O7 0.121925 0.667344 0.000000
O O8 0.833008 0.833008 0.750000
O O9 0.920445 0.754641 0.829345
O O10 0.955428 0.835189 0.682503
O O11 0.302898 0.093066 0.500000
O O12 0.872521 0.036222 0.500000
O O13 0.954866 0.080979 0.368236
#
# Coordination Sequence:
#
# PCOD8313368 Si02
#       5
#    16  16  16  16  16
#     4   8  14  26  45  66  83  98 117 140 177 232
#     4   9  18  31  43  59  80  98 121 155 194 240
#     4  11  22  30  45  57  72  99 133 165 205 247
#     4   9  19  32  43  58  82 103 124 154 193 241
#     4   9  20  35  47  59  70  84 118 172 226 267
#
# _framework density 14.066127
#
# number of rings (size 3 to 8) (size 9 to 14) (size 15 to 20)
#    0.000    2.800    0.000    3.000    5.600    2.400 
#    0.000    5.000    0.000    0.000    0.000    1.400 
#    0.000    0.000    0.000    0.000    0.000    0.000 
#
# Total GULP energy -991286.578806 kJ/mol
# GULP energy per Si atom -12391.082235 kJ/mol
# Density = 1.403411 g / cm^3
# Si number density = 14.066127 Si / 1000 Ang^3
#
#
#
# Elastic Constant Matrix: (Units=GPa)
#
#
# Indices 1 2 3 4 5 6 
#
# 1 66.0554 18.3459 42.3911 0.0000 0.0000 0.0000
# 2 18.3459 66.0554 42.3911 0.0000 0.0000 0.0000
# 3 42.3911 42.3911 134.0127 0.0000 0.0000 0.0000
# 4 0.0000 0.0000 0.0000 11.1916 0.0000 0.0000
# 5 0.0000 0.0000 0.0000 0.0000 11.1916 0.0000
# 6 0.0000 0.0000 0.0000 0.0000 0.0000 5.4926
#
#
#
# Elastic Compliance Matrix: (Units=1/GPa)
#
#
# Indices 1 2 3 4 5 6 
#
# 1 0.019163 -0.001797 -0.005493 0.000000 0.000000 0.000000
# 2 -0.001797 0.019163 -0.005493 0.000000 0.000000 0.000000
# 3 -0.005493 -0.005493 0.010937 0.000000 0.000000 0.000000
# 4 0.000000 0.000000 0.000000 0.089353 0.000000 0.000000
# 5 0.000000 0.000000 0.000000 0.000000 0.089353 0.000000
# 6 0.000000 0.000000 0.000000 0.000000 0.000000 0.182064
#
#
# Mechanical properties :
#
#
# Convention : Reuss Voigt Hill
#
# Bulk Modulus (GPa) = 42.20027 52.48665 47.34346
# Shear Modulus (GPa) = 11.27395 16.44150 13.85773
#
# Velocity S-wave (km/s) = 2.83414 3.42259 3.14217
# Velocity P-wave (km/s) = 6.38563 7.28107 6.84800
#
# Compressibility (1/GPa) = 0.02369653
#
# Stress axis : x y z
#
# Youngs Moduli (GPa) = 52.18327 52.18327 91.43035
#
# Poissons Ratio (x) = 0.09377 0.50226
# Poissons Ratio (y) = 0.09377 0.50226
# Poissons Ratio (z) = 0.28666 0.28666
#
# Static dielectric constant tensor:
#      x y z
#    x 2.633170 0.000000 0.000000 
#    y 0.000000 2.633170 0.000000 
#    z 0.000000 0.000000 3.251900 
# 
# 
# High freq. dielectric constant tensor:
#      x y z
#    x 1.496180 0.000000 0.000000 
#    y 0.000000 1.496180 0.000000 
#    z 0.000000 0.000000 1.560830 
# 
# From -- ./inp_files/3308.got.cif
#   From: 2010.03.12/outbox.cif.g09.slc.cpg/sg124_2_cif.got.tgz:3308.got - 2010.04.06 16:38:57.
