data_PCOD8313058
_publ_section_title
;
Structure prediction by ZEFSAII (Michael W. Deem and Ramdas Pophale) SiO2 
 PCOD8313058
Probable space group: P 4/M M M
;
_chemical_formula_sum "Si O2"
_cell_formula_units_Z 96
_cell_length_a 24.000000
_cell_length_b 24.000000
_cell_length_c 9.000000
_cell_angle_alpha 90.000000
_cell_angle_beta 90.000000
_cell_angle_gamma 90.000000
_cell_volume 5184.000000
_symmetry_space_group_name_H-M "P 4/M M M"
_symmetry_group_IT_number 123
_symmetry_cell_setting 'tetragonal'
loop_
_space_group_symop_operation_xyz
x,y,z
-y,x,z
-x,-y,z
y,-x,z
x,-y,-z
-x,y,-z
y,x,-z
-y,-x,-z
-x,-y,-z
y,-x,-z
x,y,-z
-y,x,-z
-x,y,z
x,-y,z
-y,-x,z
y,x,z
loop_
_atom_site_type_symbol
_atom_site_label
_atom_site_fract_x
_atom_site_fract_y
_atom_site_fract_z
Si Si1 0.152085 0.063080 0.331777
Si Si2 0.062310 0.434748 0.166777
Si Si3 0.262289 0.649944 0.676756
Si Si4 0.862171 0.646762 0.324827
Si Si5 0.561923 0.350145 0.323150
Si Si6 0.064187 0.736950 0.171232
O O1 0.172755 0.074814 0.500000
O O2 0.099521 0.099521 0.287481
O O3 0.200480 0.078066 0.217463
O O4 0.132372 0.000000 0.313377
O O5 0.070910 0.500000 0.166905
O O6 0.108248 0.409939 0.275415
O O7 0.000000 0.419178 0.221869
O O8 0.070441 0.410945 0.000000
O O9 0.260477 0.649679 0.500000
O O10 0.294508 0.705493 0.732040
O O11 0.200091 0.649187 0.743265
O O12 0.295480 0.595197 0.732783
O O13 0.859566 0.648561 0.500000
O O14 0.897186 0.698303 0.268431
O O15 0.558883 0.349608 0.500000
O O16 0.500000 0.349906 0.253494
O O17 0.594396 0.405605 0.269601
O O18 0.000000 0.722313 0.205555
O O19 0.078584 0.728698 0.000000
#
# Coordination Sequence:
#
# PCOD8313058 Si02
#       6
#    16  16  16  16  16  16
#     4   9  18  33  53  77 104 132 163 202 249 300
#     4   9  19  36  54  71  97 133 165 194 239 301
#     4   8  16  30  43  59  90 128 158 188 235 290
#     4  11  21  31  50  77  98 122 164 213 252 291
#     4   8  13  22  37  57  84 119 155 190 228 270
#     4  10  21  36  52  70  96 130 165 202 247 300
#
# _framework density 18.518519000000001
#
# number of rings (size 3 to 8) (size 9 to 14) (size 15 to 20)
#    0.000    2.833    0.000    3.000    0.000    5.667 
#    0.000    5.833    0.000    1.500    0.000    2.333 
#    0.000    0.000    0.000    0.000    0.000    0.500 
#
# Total GULP energy -1190040.204885 kJ/mol
# GULP energy per Si atom -12396.252134 kJ/mol
# Density = 1.847637 g / cm^3
# Si number density = 18.518519 Si / 1000 Ang^3
#
#
#
# Elastic Constant Matrix: (Units=GPa)
#
#
# Indices 1 2 3 4 5 6 
#
# 1 124.4370 74.7137 36.2997 0.0000 0.0000 0.0000
# 2 74.7137 124.4370 36.2997 0.0000 0.0000 0.0000
# 3 36.2997 36.2997 35.1921 0.0000 0.0000 0.0000
# 4 0.0000 0.0000 0.0000 56.8174 0.0000 0.0000
# 5 0.0000 0.0000 0.0000 0.0000 56.8174 0.0000
# 6 0.0000 0.0000 0.0000 0.0000 0.0000 33.0673
#
#
#
# Elastic Compliance Matrix: (Units=1/GPa)
#
#
# Indices 1 2 3 4 5 6 
#
# 1 0.014079 -0.006032 -0.008300 0.000000 0.000000 0.000000
# 2 -0.006032 0.014079 -0.008300 0.000000 0.000000 0.000000
# 3 -0.008300 -0.008300 0.045539 0.000000 0.000000 0.000000
# 4 0.000000 0.000000 0.000000 0.017600 0.000000 0.000000
# 5 0.000000 0.000000 0.000000 0.000000 0.017600 0.000000
# 6 0.000000 0.000000 0.000000 0.000000 0.000000 0.030241
#
#
# Mechanical properties :
#
#
# Convention : Reuss Voigt Hill
#
# Bulk Modulus (GPa) = 35.17239 64.29916 49.73577
# Shear Modulus (GPa) = 25.78882 38.45729 32.12306
#
# Velocity S-wave (km/s) = 3.73580 4.56202 4.16943
# Velocity P-wave (km/s) = 6.13536 7.90862 7.07774
#
# Compressibility (1/GPa) = 0.02843139
#
# Stress axis : x y z
#
# Youngs Moduli (GPa) = 71.02641 71.02641 21.95925
#
# Poissons Ratio (x) = 0.42843 0.18227
# Poissons Ratio (y) = 0.42843 0.18227
# Poissons Ratio (z) = 0.58955 0.58955
#
# Static dielectric constant tensor:
#      x y z
#    x 3.578950 0.000000 0.000000 
#    y 0.000000 3.578950 0.000000 
#    z 0.000000 0.000000 3.149490 
# 
# 
# High freq. dielectric constant tensor:
#      x y z
#    x 1.718560 0.000000 0.000000 
#    y 0.000000 1.718560 0.000000 
#    z 0.000000 0.000000 1.677330 
# 
# From -- ./inp_files/1555.got.cif
#   From: 2010.03.12/outbox.ucp.g09.slc.cvg/sg123_1_cif.got.tgz:1555.got - 2010.05.04 20:25:19.
