data_PCOD8313339
_publ_section_title
;
Structure prediction by ZEFSAII (Michael W. Deem and Ramdas Pophale) SiO2 
 PCOD8313339
Probable space group: P 4/M C C
;
_chemical_formula_sum "Si O2"
_cell_formula_units_Z 88
_cell_length_a 12.004752
_cell_length_b 12.004752
_cell_length_c 31.989798
_cell_angle_alpha 90.000000
_cell_angle_beta 90.000000
_cell_angle_gamma 90.000000
_cell_volume 4610.180007
_symmetry_space_group_name_H-M "P 4/M C C"
_symmetry_group_IT_number 124
_symmetry_cell_setting 'tetragonal'
loop_
_space_group_symop_operation_xyz
x,y,z
-y,x,z
-x,-y,z
y,-x,z
x,-y,1/2-z
-x,y,1/2-z
y,x,1/2-z
-y,-x,1/2-z
-x,-y,-z
y,-x,-z
x,y,-z
-y,x,-z
-x,y,1/2+z
x,-y,1/2+z
-y,-x,1/2+z
y,x,1/2+z
loop_
_atom_site_type_symbol
_atom_site_label
_atom_site_fract_x
_atom_site_fract_y
_atom_site_fract_z
Si Si1 0.739429 0.135635 0.624177
Si Si2 0.492067 0.125152 0.637652
Si Si3 0.281453 0.909563 0.085569
Si Si4 0.513392 0.319152 0.798321
Si Si5 0.968472 0.184561 0.500000
Si Si6 0.876051 0.135648 0.795635
O O1 0.609984 0.163371 0.618941
O O2 0.802849 0.202280 0.588249
O O3 0.786489 0.178574 0.669036
O O4 0.761642 0.004142 0.617806
O O5 0.406360 0.126816 0.598638
O O6 0.462048 0.208283 0.675097
O O7 0.500000 0.000000 0.656586
O O8 0.269412 0.956511 0.038868
O O9 0.616893 0.399247 0.809288
O O10 0.500000 0.285055 0.750000
O O11 0.089313 0.126382 0.500000
O O12 0.828849 0.171152 0.750000
O O13 0.007317 0.154269 0.800486
#
# Coordination Sequence:
#
# PCOD8313339 Si02
#       6
#    16  16  16  16   8  16
#     4  11  20  36  58  82 118 159 194 243 303 351
#     4  10  23  38  52  82 121 164 191 228 304 373
#     4  11  22  38  60  87 119 151 198 248 299 369
#     4   9  18  37  63  84 105 147 213 268 290 321
#     4  11  22  38  65  99 119 146 199 254 309 363
#     4   9  17  30  50  80 113 149 197 243 288 344
#
# _framework density 19.088191999999999
#
# number of rings (size 3 to 8) (size 9 to 14) (size 15 to 20)
#    0.000    1.909    3.636    2.182    0.000    0.727 
#    6.545    5.000    0.000    0.000    0.000    0.000 
#    0.000    4.364    0.000    0.000    0.000    0.000 
#
# Total GULP energy -1090679.339931 kJ/mol
# GULP energy per Si atom -12394.083408 kJ/mol
# Density = 1.904475 g / cm^3
# Si number density = 19.088192 Si / 1000 Ang^3
#
#
#
# Elastic Constant Matrix: (Units=GPa)
#
#
# Indices 1 2 3 4 5 6 
#
# 1 96.9837 32.8420 39.2842 0.0000 0.0000 0.0000
# 2 32.8420 96.9834 39.2842 0.0000 0.0000 0.0000
# 3 39.2842 39.2842 115.2125 0.0000 0.0000 0.0000
# 4 0.0000 0.0000 0.0000 26.0769 0.0000 0.0000
# 5 0.0000 0.0000 0.0000 0.0000 26.0770 0.0000
# 6 0.0000 0.0000 0.0000 0.0000 0.0000 21.7664
#
#
#
# Elastic Compliance Matrix: (Units=1/GPa)
#
#
# Indices 1 2 3 4 5 6 
#
# 1 0.012648 -0.002943 -0.003309 0.000000 0.000000 0.000000
# 2 -0.002943 0.012648 -0.003309 0.000000 0.000000 0.000000
# 3 -0.003309 -0.003309 0.010936 0.000000 0.000000 0.000000
# 4 0.000000 0.000000 0.000000 0.038348 0.000000 0.000000
# 5 0.000000 0.000000 0.000000 0.000000 0.038348 0.000000
# 6 0.000000 0.000000 0.000000 0.000000 0.000000 0.045942
#
#
# Mechanical properties :
#
#
# Convention : Reuss Voigt Hill
#
# Bulk Modulus (GPa) = 58.44522 59.11115 58.77818
# Shear Modulus (GPa) = 27.21885 27.96867 27.59376
#
# Velocity S-wave (km/s) = 3.78027 3.83199 3.80622
# Velocity P-wave (km/s) = 7.05259 7.11432 7.08352
#
# Compressibility (1/GPa) = 0.01711004
#
# Stress axis : x y z
#
# Youngs Moduli (GPa) = 79.06448 79.06417 91.43836
#
# Poissons Ratio (x) = 0.23265 0.30259
# Poissons Ratio (y) = 0.23265 0.30259
# Poissons Ratio (z) = 0.26164 0.26164
#
# Static dielectric constant tensor:
#      x y z
#    x 3.440470 0.000000 0.000000 
#    y 0.000000 3.440460 0.000000 
#    z 0.000000 0.000000 3.341770 
# 
# 
# High freq. dielectric constant tensor:
#      x y z
#    x 1.736780 0.000000 0.000000 
#    y 0.000000 1.736780 0.000000 
#    z 0.000000 0.000000 1.723750 
# 
# From -- ./inp_files/7073.got.cif
#   From: 2010.03.12/outbox.cif.g09.slc.cpg/sg124_4_cif.got.tgz:7073.got - 2010.04.06 16:38:57.
