data_PCOD8313530
_publ_section_title
;
Structure prediction by ZEFSAII (Michael W. Deem and Ramdas Pophale) SiO2 
 PCOD8313530
Probable space group: P 4/N B M
;
_chemical_formula_sum "Si O2"
_cell_formula_units_Z 96
_cell_length_a 23.917817
_cell_length_b 23.917817
_cell_length_c 8.502701
_cell_angle_alpha 90.000000
_cell_angle_beta 90.000000
_cell_angle_gamma 90.000000
_cell_volume 4864.071885
_symmetry_space_group_name_H-M "P 4/N B M"
_symmetry_group_IT_number 125
_space_group.IT_coordinate_system_code '2'
_symmetry_cell_setting 'tetragonal'
loop_
_space_group_symop_operation_xyz
x,y,z
1/2-y,x,z
1/2-x,1/2-y,z
y,1/2-x,z
x,1/2-y,-z
1/2-x,y,-z
y,x,-z
1/2-y,1/2-x,-z
-x,-y,-z
1/2+y,-x,-z
1/2+x,1/2+y,-z
-y,1/2+x,-z
-x,1/2+y,z
1/2+x,-y,z
-y,-x,z
1/2+y,1/2+x,z
loop_
_atom_site_type_symbol
_atom_site_label
_atom_site_fract_x
_atom_site_fract_y
_atom_site_fract_z
Si Si1 0.224138 0.522405 0.653483
Si Si2 0.825701 0.502621 0.868175
Si Si3 0.691519 0.099898 0.070964
Si Si4 0.574666 0.642624 0.369645
Si Si5 0.807762 0.607704 0.067356
Si Si6 0.464349 0.445696 0.183581
O O1 0.250000 0.552791 0.500000
O O2 0.272852 0.491724 0.753234
O O3 0.195576 0.569489 0.760410
O O4 0.181290 0.477006 0.576015
O O5 0.882443 0.517071 0.776230
O O6 0.834337 0.441587 0.941564
O O7 0.813382 0.543567 0.014019
O O8 0.652888 0.152888 0.094940
O O9 0.750000 0.121077 0.000000
O O10 0.616992 0.616992 0.500000
O O11 0.610821 0.683720 0.255458
O O12 0.544045 0.592666 0.276338
O O13 0.750000 0.633812 0.000000
O O14 0.859627 0.640374 0.000000
O O15 0.511035 0.488966 0.245466
O O16 0.453988 0.453988 0.000000
#
# Coordination Sequence:
#
# PCOD8313530 Si02
#       6
#    16  16  16  16  16  16
#     4  11  23  38  60  89 125 166 211 254 310 388
#     4  11  18  39  65  88 116 162 213 254 305 381
#     4  10  21  39  66  96 125 162 213 264 312 374
#     4  12  23  37  58  91 124 162 205 260 324 376
#     4  12  22  40  62  85 116 159 215 266 315 381
#     4  11  21  35  58  88 122 157 195 247 315 382
#
# _framework density 19.736550999999999
#
# number of rings (size 3 to 8) (size 9 to 14) (size 15 to 20)
#    0.000    0.833    6.667    2.000    0.000    2.667 
#    0.000    5.833    0.000    0.000    0.000    1.167 
#    0.000    0.000    0.000    0.000    0.000    0.000 
#
# Total GULP energy -1189940.578168 kJ/mol
# GULP energy per Si atom -12395.214356 kJ/mol
# Density = 1.969163 g / cm^3
# Si number density = 19.736551 Si / 1000 Ang^3
#
#
#
# Elastic Constant Matrix: (Units=GPa)
#
#
# Indices 1 2 3 4 5 6 
#
# 1 94.8095 60.3895 36.8647 0.0000 0.0000 0.0000
# 2 60.3895 94.8133 36.8628 0.0000 0.0000 0.0000
# 3 36.8647 36.8628 97.3040 0.0000 0.0000 0.0000
# 4 0.0000 0.0000 0.0000 24.9710 0.0000 0.0000
# 5 0.0000 0.0000 0.0000 0.0000 24.9701 0.0000
# 6 0.0000 0.0000 0.0000 0.0000 0.0000 33.7102
#
#
#
# Elastic Compliance Matrix: (Units=1/GPa)
#
#
# Indices 1 2 3 4 5 6 
#
# 1 0.018455 -0.010597 -0.002977 0.000000 0.000000 0.000000
# 2 -0.010597 0.018454 -0.002976 0.000000 0.000000 0.000000
# 3 -0.002977 -0.002976 0.012533 0.000000 0.000000 0.000000
# 4 0.000000 0.000000 0.000000 0.040047 0.000000 0.000000
# 5 0.000000 0.000000 0.000000 0.000000 0.040048 0.000000
# 6 0.000000 0.000000 0.000000 0.000000 0.000000 0.029665
#
#
# Mechanical properties :
#
#
# Convention : Reuss Voigt Hill
#
# Bulk Modulus (GPa) = 61.19871 61.68454 61.44162
# Shear Modulus (GPa) = 25.28470 26.91756 26.10113
#
# Velocity S-wave (km/s) = 3.58314 3.69703 3.64053
# Velocity P-wave (km/s) = 6.94217 7.03888 6.99069
#
# Compressibility (1/GPa) = 0.01634021
#
# Stress axis : x y z
#
# Youngs Moduli (GPa) = 54.18614 54.18965 79.79201
#
# Poissons Ratio (x) = 0.57424 0.23756
# Poissons Ratio (y) = 0.57421 0.23748
# Poissons Ratio (z) = 0.16133 0.16128
#
# Static dielectric constant tensor:
#      x y z
#    x 3.642570 0.000000 0.000000 
#    y 0.000000 3.642560 0.000000 
#    z 0.000000 0.000000 3.678840 
# 
# 
# High freq. dielectric constant tensor:
#      x y z
#    x 1.762350 0.000000 0.000000 
#    y 0.000000 1.762350 0.000000 
#    z 0.000000 0.000000 1.764800 
# 
# From -- ./inp_files/2861.got.cif
#   From: 2010.03.12/outbox.cif.g09.slc.cpg/sg125_2_cif.got.tgz:2861.got - 2010.04.06 16:47:52.
