data_PCOD8313118
_publ_section_title
;
Structure prediction by ZEFSAII (Michael W. Deem and Ramdas Pophale) SiO2 
 PCOD8313118
Probable space group: P 4/M C C
;
_chemical_formula_sum "Si O2"
_cell_formula_units_Z 88
_cell_length_a 14.443812
_cell_length_b 14.443812
_cell_length_c 24.699610
_cell_angle_alpha 90.000000
_cell_angle_beta 90.000000
_cell_angle_gamma 90.000000
_cell_volume 5152.924153
_symmetry_space_group_name_H-M "P 4/M C C"
_symmetry_group_IT_number 124
_symmetry_cell_setting 'tetragonal'
loop_
_space_group_symop_operation_xyz
x,y,z
-y,x,z
-x,-y,z
y,-x,z
x,-y,1/2-z
-x,y,1/2-z
y,x,1/2-z
-y,-x,1/2-z
-x,-y,-z
y,-x,-z
x,y,-z
-y,x,-z
-x,y,1/2+z
x,-y,1/2+z
-y,-x,1/2+z
y,x,1/2+z
loop_
_atom_site_type_symbol
_atom_site_label
_atom_site_fract_x
_atom_site_fract_y
_atom_site_fract_z
Si Si1 0.362935 0.745668 0.594859
Si Si2 0.305057 0.162712 0.437357
Si Si3 0.549482 0.357661 0.500000
Si Si4 0.504587 0.891506 0.063878
Si Si5 0.949788 0.136806 0.564549
Si Si6 0.597649 0.384922 0.311775
O O1 0.261692 0.744121 0.569182
O O2 0.435651 0.696751 0.555147
O O3 0.408057 0.848752 0.597940
O O4 0.352779 0.692706 0.652039
O O5 0.316618 0.139653 0.500000
O O6 0.408580 0.153687 0.413181
O O7 0.234403 0.087134 0.411558
O O8 0.618059 0.443019 0.500000
O O9 0.500000 0.000000 0.075864
O O10 0.520185 0.871614 0.000000
O O11 0.946080 0.138346 0.500000
O O12 0.053900 0.117701 0.585029
O O13 0.627533 0.489303 0.324985
O O14 0.629354 0.370647 0.250000
#
# Coordination Sequence:
#
# PCOD8313118 Si02
#       6
#    16  16   8  16  16  16
#     4  12  20  31  48  68 100 135 170 206 249 312
#     4  10  19  29  45  65  94 131 168 201 245 306
#     4  11  20  28  43  66  98 131 167 204 244 294
#     4  10  21  33  44  66 104 142 174 213 259 313
#     4   8  15  27  43  61  85 118 162 207 245 284
#     4   9  18  32  50  72  96 123 162 211 256 297
#
# _framework density 17.077680999999998
#
# number of rings (size 3 to 8) (size 9 to 14) (size 15 to 20)
#    0.000    2.091    1.818    4.364    2.545    1.455 
#    0.000    0.000    0.000    0.000    0.000   10.182 
#    0.000    0.000    0.000    2.000    0.000    0.182 
#
# Total GULP energy -1090507.490814 kJ/mol
# GULP energy per Si atom -12392.130577 kJ/mol
# Density = 1.703881 g / cm^3
# Si number density = 17.077681 Si / 1000 Ang^3
#
#
#
# Elastic Constant Matrix: (Units=GPa)
#
#
# Indices 1 2 3 4 5 6 
#
# 1 82.2816 23.4692 8.7474 0.0000 0.0000 0.0000
# 2 23.4692 82.2818 8.7474 0.0000 0.0000 0.0000
# 3 8.7474 8.7474 44.8702 0.0000 0.0000 0.0000
# 4 0.0000 0.0000 0.0000 11.3446 0.0000 0.0000
# 5 0.0000 0.0000 0.0000 0.0000 11.3446 0.0000
# 6 0.0000 0.0000 0.0000 0.0000 0.0000 35.7954
#
#
#
# Elastic Compliance Matrix: (Units=1/GPa)
#
#
# Indices 1 2 3 4 5 6 
#
# 1 0.013387 -0.003616 -0.001905 0.000000 0.000000 0.000000
# 2 -0.003616 0.013387 -0.001905 0.000000 0.000000 0.000000
# 3 -0.001905 -0.001905 0.023029 0.000000 0.000000 0.000000
# 4 0.000000 0.000000 0.000000 0.088148 0.000000 0.000000
# 5 0.000000 0.000000 0.000000 0.000000 0.088148 0.000000
# 6 0.000000 0.000000 0.000000 0.000000 0.000000 0.027937
#
#
# Mechanical properties :
#
#
# Convention : Reuss Voigt Hill
#
# Bulk Modulus (GPa) = 28.61046 32.37351 30.49199
# Shear Modulus (GPa) = 17.82290 22.92823 20.37557
#
# Velocity S-wave (km/s) = 3.23404 3.66810 3.45789
# Velocity P-wave (km/s) = 5.54390 6.07764 5.81690
#
# Compressibility (1/GPa) = 0.03495225
#
# Stress axis : x y z
#
# Youngs Moduli (GPa) = 74.69781 74.69800 43.42304
#
# Poissons Ratio (x) = 0.27010 0.08272
# Poissons Ratio (y) = 0.27010 0.08272
# Poissons Ratio (z) = 0.14229 0.14229
#
# Static dielectric constant tensor:
#      x y z
#    x 3.349330 0.000000 0.000000 
#    y 0.000000 3.349330 0.000000 
#    z 0.000000 0.000000 2.668000 
# 
# 
# High freq. dielectric constant tensor:
#      x y z
#    x 1.664640 0.000000 0.000000 
#    y 0.000000 1.664640 0.000000 
#    z 0.000000 0.000000 1.583190 
# 
# From -- ./inp_files/5191.got.cif
#   From: 2010.03.12/outbox.cif.g09.slc.cpg/sg124_3_cif.got.tgz:5191.got - 2010.04.06 16:38:57.
