data_PCOD8313918
_publ_section_title
;
Structure prediction by ZEFSAII (Michael W. Deem and Ramdas Pophale) SiO2 
 PCOD8313918
Probable space group: P 4/M B M
;
_chemical_formula_sum "Si O2"
_cell_formula_units_Z 88
_cell_length_a 15.474717
_cell_length_b 15.474717
_cell_length_c 21.930881
_cell_angle_alpha 90.000000
_cell_angle_beta 90.000000
_cell_angle_gamma 90.000000
_cell_volume 5251.719347
_symmetry_space_group_name_H-M "P 4/M B M"
_symmetry_group_IT_number 127
_symmetry_cell_setting 'tetragonal'
loop_
_space_group_symop_operation_xyz
x,y,z
-y,x,z
-x,-y,z
y,-x,z
1/2+x,1/2-y,-z
1/2-x,1/2+y,-z
1/2+y,1/2+x,-z
1/2-y,1/2-x,-z
-x,-y,-z
y,-x,-z
x,y,-z
-y,x,-z
1/2-x,1/2+y,z
1/2+x,1/2-y,z
1/2-y,1/2-x,z
1/2+y,1/2+x,z
loop_
_atom_site_type_symbol
_atom_site_label
_atom_site_fract_x
_atom_site_fract_y
_atom_site_fract_z
Si Si1 0.823560 0.819628 0.662446
Si Si2 0.683679 0.039021 0.332723
Si Si3 0.529201 0.638401 0.000000
Si Si4 0.029774 0.858570 0.867493
Si Si5 0.227866 0.585397 0.432724
Si Si6 0.909166 0.269107 0.233059
O O1 0.755637 0.744364 0.651467
O O2 0.918316 0.779020 0.665302
O O3 0.812957 0.887331 0.606347
O O4 0.805766 0.866519 0.726224
O O5 0.607113 0.107113 0.327387
O O6 0.674093 0.987087 0.395920
O O7 0.677621 0.977383 0.273941
O O8 0.434814 0.600051 0.000000
O O9 0.539436 0.686816 0.065084
O O10 0.043761 0.778643 0.822358
O O11 0.934295 0.899182 0.858392
O O12 0.255267 0.551199 0.500000
O O13 0.167515 0.667515 0.440714
O O14 0.836673 0.336673 0.209226
#
# Coordination Sequence:
#
# PCOD8313918 Si02
#       6
#    16  16   8  16  16  16
#     4   8  16  30  45  61  83 111 144 182 221 260
#     4  10  19  31  48  67  86 115 155 189 219 267
#     4   7  12  24  43  68  94 117 147 191 234 269
#     4   9  16  28  48  71  93 120 155 192 231 274
#     4   9  18  31  45  63  88 113 138 179 232 275
#     4  10  19  30  44  66  96 123 148 185 231 273
#
# _framework density 16.756416999999999
#
# number of rings (size 3 to 8) (size 9 to 14) (size 15 to 20)
#    0.000    3.000    0.000    3.818    0.000    2.545 
#    0.000    3.182    0.000    4.909    0.000    7.000 
#    0.000    1.455    0.000    0.000    0.000    0.000 
#
# Total GULP energy -1090224.694184 kJ/mol
# GULP energy per Si atom -12388.916979 kJ/mol
# Density = 1.671828 g / cm^3
# Si number density = 16.756417 Si / 1000 Ang^3
#
#
#
# Elastic Constant Matrix: (Units=GPa)
#
#
# Indices 1 2 3 4 5 6 
#
# 1 43.9622 9.8168 29.2153 0.0000 0.0000 0.0000
# 2 9.8168 43.9622 29.2153 0.0000 0.0000 0.0000
# 3 29.2153 29.2153 119.6039 0.0000 0.0000 0.0000
# 4 0.0000 0.0000 0.0000 14.3866 0.0000 0.0000
# 5 0.0000 0.0000 0.0000 0.0000 14.3866 0.0000
# 6 0.0000 0.0000 0.0000 0.0000 0.0000 22.4029
#
#
#
# Elastic Compliance Matrix: (Units=1/GPa)
#
#
# Indices 1 2 3 4 5 6 
#
# 1 0.027299 -0.001987 -0.006183 0.000000 0.000000 0.000000
# 2 -0.001987 0.027299 -0.006183 0.000000 0.000000 0.000000
# 3 -0.006183 -0.006183 0.011382 0.000000 0.000000 0.000000
# 4 0.000000 0.000000 0.000000 0.069509 0.000000 0.000000
# 5 0.000000 0.000000 0.000000 0.000000 0.069509 0.000000
# 6 0.000000 0.000000 0.000000 0.000000 0.000000 0.044637
#
#
# Mechanical properties :
#
#
# Convention : Reuss Voigt Hill
#
# Bulk Modulus (GPa) = 26.82806 38.22478 32.52642
# Shear Modulus (GPa) = 17.19591 19.52061 18.35826
#
# Velocity S-wave (km/s) = 3.20696 3.41686 3.31357
# Velocity P-wave (km/s) = 5.45510 6.19904 5.83893
#
# Compressibility (1/GPa) = 0.03727441
#
# Stress axis : x y z
#
# Youngs Moduli (GPa) = 36.63076 36.63076 87.86163
#
# Poissons Ratio (x) = 0.07279 0.54325
# Poissons Ratio (y) = 0.07279 0.54325
# Poissons Ratio (z) = 0.22649 0.22649
#
# Static dielectric constant tensor:
#      x y z
#    x 3.018140 0.000000 0.000000 
#    y 0.000000 3.018140 0.000000 
#    z 0.000000 0.000000 3.431070 
# 
# 
# High freq. dielectric constant tensor:
#      x y z
#    x 1.623110 0.000000 0.000000 
#    y 0.000000 1.623110 0.000000 
#    z 0.000000 0.000000 1.651110 
# 
# From -- ./inp_files/5686.got.cif
#   From: 2010.03.12/outbox.cif.g09.slc.cpg/sg127_3_cif.got.tgz:5686.got - 2010.04.06 17:03:15.
