data_PCOD8313991
_publ_section_title
;
Structure prediction by ZEFSAII (Michael W. Deem and Ramdas Pophale) SiO2 
 PCOD8313991
Probable space group: P 4/M B M
;
_chemical_formula_sum "Si O2"
_cell_formula_units_Z 112
_cell_length_a 15.134471
_cell_length_b 15.134471
_cell_length_c 27.322130
_cell_angle_alpha 90.000000
_cell_angle_beta 90.000000
_cell_angle_gamma 90.000000
_cell_volume 6258.194325
_symmetry_space_group_name_H-M "P 4/M B M"
_symmetry_group_IT_number 127
_symmetry_cell_setting 'tetragonal'
loop_
_space_group_symop_operation_xyz
x,y,z
-y,x,z
-x,-y,z
y,-x,z
1/2+x,1/2-y,-z
1/2-x,1/2+y,-z
1/2+y,1/2+x,-z
1/2-y,1/2-x,-z
-x,-y,-z
y,-x,-z
x,y,-z
-y,x,-z
1/2-x,1/2+y,z
1/2+x,1/2-y,z
1/2-y,1/2-x,z
1/2+y,1/2+x,z
loop_
_atom_site_type_symbol
_atom_site_label
_atom_site_fract_x
_atom_site_fract_y
_atom_site_fract_z
Si Si1 0.704773 0.523074 0.296694
Si Si2 0.586072 0.228012 0.135933
Si Si3 0.090751 0.886638 0.444463
Si Si4 0.860002 0.496890 0.779243
Si Si5 0.836306 0.189482 0.648716
Si Si6 0.119939 0.930371 0.797333
Si Si7 0.141789 0.974403 0.056383
O O1 0.784440 0.506338 0.260229
O O2 0.720213 0.603134 0.334840
O O3 0.688782 0.430938 0.324090
O O4 0.626453 0.562735 0.261825
O O5 0.669518 0.169518 0.119381
O O6 0.513712 0.170182 0.164874
O O7 0.620086 0.300804 0.175386
O O8 0.541870 0.271151 0.088395
O O9 0.112688 0.858994 0.500000
O O10 0.143907 0.820568 0.409005
O O11 0.986578 0.878624 0.434271
O O12 0.897780 0.397780 0.777058
O O13 0.933796 0.566205 0.763610
O O14 0.778520 0.278520 0.657815
O O15 0.032312 0.880715 0.815151
O O16 0.069938 0.899061 0.068423
O O17 0.170395 0.969661 0.000000
#
# Coordination Sequence:
#
# PCOD8313991 Si02
#       7
#    16  16  16  16  16  16  16
#     4  11  21  35  51  80 113 139 181 227 277 323
#     4  10  20  32  50  78 108 137 172 218 262 313
#     4   9  18  35  59  83 109 144 182 226 283 339
#     4   9  19  37  55  70 102 152 191 218 252 309
#     4  12  23  34  56  84 112 146 184 229 281 334
#     4  10  19  33  52  72  98 139 179 212 264 315
#     4   9  18  35  58  79 100 131 170 213 266 327
#
# _framework density 17.896536999999999
#
# number of rings (size 3 to 8) (size 9 to 14) (size 15 to 20)
#    0.000    2.000    2.857    2.571    0.000    2.571 
#    0.000    4.286    0.000    1.286    0.000    2.000 
#    0.000    2.286    0.000    0.000    0.000    0.000 
#
# Total GULP energy -1387805.720548 kJ/mol
# GULP energy per Si atom -12391.122505 kJ/mol
# Density = 1.785580 g / cm^3
# Si number density = 17.896537 Si / 1000 Ang^3
#
#
#
# Elastic Constant Matrix: (Units=GPa)
#
#
# Indices 1 2 3 4 5 6 
#
# 1 68.1735 31.1926 35.6142 0.0000 0.0000 0.0000
# 2 31.1926 68.1735 35.6142 0.0000 0.0000 0.0000
# 3 35.6142 35.6142 101.6916 0.0000 0.0000 0.0000
# 4 0.0000 0.0000 0.0000 24.0257 0.0000 0.0000
# 5 0.0000 0.0000 0.0000 0.0000 24.0257 0.0000
# 6 0.0000 0.0000 0.0000 0.0000 0.0000 16.8774
#
#
#
# Elastic Compliance Matrix: (Units=1/GPa)
#
#
# Indices 1 2 3 4 5 6 
#
# 1 0.020239 -0.006802 -0.004706 0.000000 0.000000 0.000000
# 2 -0.006802 0.020239 -0.004706 0.000000 0.000000 0.000000
# 3 -0.004706 -0.004706 0.013130 0.000000 0.000000 0.000000
# 4 0.000000 0.000000 0.000000 0.041622 0.000000 0.000000
# 5 0.000000 0.000000 0.000000 0.000000 0.041622 0.000000
# 6 0.000000 0.000000 0.000000 0.000000 0.000000 0.059251
#
#
# Mechanical properties :
#
#
# Convention : Reuss Voigt Hill
#
# Bulk Modulus (GPa) = 47.21340 49.20894 48.21117
# Shear Modulus (GPa) = 21.22322 22.02691 21.62507
#
# Velocity S-wave (km/s) = 3.44740 3.51207 3.47989
# Velocity P-wave (km/s) = 6.50267 6.63342 6.56837
#
# Compressibility (1/GPa) = 0.02118043
#
# Stress axis : x y z
#
# Youngs Moduli (GPa) = 49.40937 49.40937 76.16238
#
# Poissons Ratio (x) = 0.33608 0.35841
# Poissons Ratio (y) = 0.33608 0.35841
# Poissons Ratio (z) = 0.23252 0.23252
#
# Static dielectric constant tensor:
#      x y z
#    x 3.242010 0.000000 0.000000 
#    y 0.000000 3.242010 0.000000 
#    z 0.000000 0.000000 3.375240 
# 
# 
# High freq. dielectric constant tensor:
#      x y z
#    x 1.679200 0.000000 0.000000 
#    y 0.000000 1.679200 0.000000 
#    z 0.000000 0.000000 1.697110 
# 
# From -- ./inp_files/6381.got.cif
#   From: 2010.03.12/outbox.cif.g09.slc.cpg/sg127_4_cif.got.tgz:6381.got - 2010.04.06 17:03:15.
