data_PCOD8313289
_publ_section_title
;
Structure prediction by ZEFSAII (Michael W. Deem and Ramdas Pophale) SiO2 
 PCOD8313289
Probable space group: P 4/M C C
;
_chemical_formula_sum "Si O2"
_cell_formula_units_Z 88
_cell_length_a 11.442332
_cell_length_b 11.442332
_cell_length_c 34.723185
_cell_angle_alpha 90.000000
_cell_angle_beta 90.000000
_cell_angle_gamma 90.000000
_cell_volume 4546.201109
_symmetry_space_group_name_H-M "P 4/M C C"
_symmetry_group_IT_number 124
_symmetry_cell_setting 'tetragonal'
loop_
_space_group_symop_operation_xyz
x,y,z
-y,x,z
-x,-y,z
y,-x,z
x,-y,1/2-z
-x,y,1/2-z
y,x,1/2-z
-y,-x,1/2-z
-x,-y,-z
y,-x,-z
x,y,-z
-y,x,-z
-x,y,1/2+z
x,-y,1/2+z
-y,-x,1/2+z
y,x,1/2+z
loop_
_atom_site_type_symbol
_atom_site_label
_atom_site_fract_x
_atom_site_fract_y
_atom_site_fract_z
Si Si1 0.805548 0.010284 0.500000
Si Si2 0.380077 0.070326 0.938624
Si Si3 0.675114 0.557136 0.439148
Si Si4 0.999002 0.808755 0.706747
Si Si5 0.675108 0.557595 0.347627
Si Si6 0.929731 0.382017 0.149618
O O1 0.724038 0.010670 0.537757
O O2 0.890784 0.121725 0.500000
O O3 0.401925 0.200436 0.955522
O O4 0.337516 0.075012 0.894374
O O5 0.500000 0.000000 0.943543
O O6 0.574231 0.645503 0.453712
O O7 0.679820 0.554160 0.393372
O O8 0.001430 0.707790 0.675368
O O9 0.114086 0.884475 0.700106
O O10 0.000000 0.756706 0.750000
O O11 0.573971 0.645812 0.332971
O O12 0.800544 0.599678 0.332157
O O13 0.000000 0.500000 0.151150
#
# Coordination Sequence:
#
# PCOD8313289 Si02
#       6
#     8  16  16  16  16  16
#     4  11  27  46  60  77 110 160 200 233 289 350
#     4  10  22  39  60  85 115 149 188 239 294 343
#     4   8  15  30  54  83 111 141 180 230 284 337
#     4   9  20  39  59  81 116 158 196 240 289 331
#     4   8  15  29  49  77 117 151 175 221 284 339
#     4  10  21  33  58  93 115 142 193 240 285 348
#
# _framework density 19.356819999999999
#
# number of rings (size 3 to 8) (size 9 to 14) (size 15 to 20)
#    0.000    2.818    0.000    1.909    5.091    1.818 
#    0.000    1.818    0.000    1.091    0.000    0.000 
#    0.000    0.000    0.000    0.000    0.000    0.000 
#
# Total GULP energy -1090956.928997 kJ/mol
# GULP energy per Si atom -12397.237830 kJ/mol
# Density = 1.931276 g / cm^3
# Si number density = 19.356820 Si / 1000 Ang^3
#
#
#
# Elastic Constant Matrix: (Units=GPa)
#
#
# Indices 1 2 3 4 5 6 
#
# 1 89.8626 22.1007 43.5584 0.0000 0.0000 0.0000
# 2 22.1007 89.8626 43.5584 0.0000 0.0000 0.0000
# 3 43.5584 43.5584 84.4791 0.0000 0.0000 0.0000
# 4 0.0000 0.0000 0.0000 14.5497 0.0000 0.0000
# 5 0.0000 0.0000 0.0000 0.0000 14.5497 0.0000
# 6 0.0000 0.0000 0.0000 0.0000 0.0000 22.8922
#
#
#
# Elastic Compliance Matrix: (Units=1/GPa)
#
#
# Indices 1 2 3 4 5 6 
#
# 1 0.014836 0.000079 -0.007691 0.000000 0.000000 0.000000
# 2 0.000079 0.014836 -0.007691 0.000000 0.000000 0.000000
# 3 -0.007691 -0.007691 0.019768 0.000000 0.000000 0.000000
# 4 0.000000 0.000000 0.000000 0.068730 0.000000 0.000000
# 5 0.000000 0.000000 0.000000 0.000000 0.068730 0.000000
# 6 0.000000 0.000000 0.000000 0.000000 0.000000 0.043683
#
#
# Mechanical properties :
#
#
# Convention : Reuss Voigt Hill
#
# Bulk Modulus (GPa) = 53.08839 53.62657 53.35748
# Shear Modulus (GPa) = 18.69391 20.73078 19.71235
#
# Velocity S-wave (km/s) = 3.11103 3.27613 3.19465
# Velocity P-wave (km/s) = 6.35534 6.48653 6.42127
#
# Compressibility (1/GPa) = 0.01883651
#
# Stress axis : x y z
#
# Youngs Moduli (GPa) = 67.40150 67.40150 50.58702
#
# Poissons Ratio (x) = -0.00532 0.38904
# Poissons Ratio (y) = -0.00532 0.38904
# Poissons Ratio (z) = 0.51835 0.51835
#
# Static dielectric constant tensor:
#      x y z
#    x 3.688360 0.000000 0.000000 
#    y 0.000000 3.688360 0.000000 
#    z 0.000000 0.000000 3.263570 
# 
# 
# High freq. dielectric constant tensor:
#      x y z
#    x 1.756680 0.000000 0.000000 
#    y 0.000000 1.756680 0.000000 
#    z 0.000000 0.000000 1.722730 
# 
# From -- ./inp_files/7105.got.cif
#   From: 2010.03.12/outbox.cif.g09.slc.cpg/sg124_4_cif.got.tgz:7105.got - 2010.04.06 16:38:57.
