data_PCOD8313569
_publ_section_title
;
Structure prediction by ZEFSAII (Michael W. Deem and Ramdas Pophale) SiO2 
 PCOD8313569
Probable space group: P 4/N B M
;
_chemical_formula_sum "Si O2"
_cell_formula_units_Z 58
_cell_length_a 12.082327
_cell_length_b 12.082327
_cell_length_c 19.316958
_cell_angle_alpha 90.000000
_cell_angle_beta 90.000000
_cell_angle_gamma 90.000000
_cell_volume 2819.940250
_symmetry_space_group_name_H-M "P 4/N B M"
_symmetry_group_IT_number 125
_space_group.IT_coordinate_system_code '2'
_symmetry_cell_setting 'tetragonal'
loop_
_space_group_symop_operation_xyz
x,y,z
1/2-y,x,z
1/2-x,1/2-y,z
y,1/2-x,z
x,1/2-y,-z
1/2-x,y,-z
y,x,-z
1/2-y,1/2-x,-z
-x,-y,-z
1/2+y,-x,-z
1/2+x,1/2+y,-z
-y,1/2+x,-z
-x,1/2+y,z
1/2+x,-y,z
-y,-x,z
1/2+y,1/2+x,z
loop_
_atom_site_type_symbol
_atom_site_label
_atom_site_fract_x
_atom_site_fract_y
_atom_site_fract_z
Si Si1 0.861441 0.964418 0.663556
Si Si2 0.502871 0.185684 0.568628
Si Si3 0.250000 0.750000 0.000000
Si Si4 0.337685 0.837685 0.867762
Si Si5 0.920242 0.789866 0.187171
O O1 0.795587 0.918760 0.729493
O O2 0.898877 0.871891 0.607546
O O3 0.777492 0.046374 0.622928
O O4 0.967491 0.032510 0.690623
O O5 0.463290 0.250000 0.500000
O O6 0.598252 0.098252 0.549371
O O7 0.327529 0.672472 0.048651
O O8 0.250000 0.750000 0.833525
O O9 0.460944 0.809943 0.845208
O O10 0.831764 0.881715 0.162082
#
# Coordination Sequence:
#
# PCOD8313569 Si02
#       5
#    16  16   2   8  16
#     4  11  22  38  60  89 124 169 227 294 353 424
#     4  11  24  40  58  81 122 172 230 295 361 428
#     4   8  24  52  72 124 140 200 234 252 348 440
#     4  10  24  45  78 106 150 190 236 276 345 428
#     4  11  23  41  68 106 147 186 240 299 360 420
#
# _framework density 20.567812
#
# number of rings (size 3 to 8) (size 9 to 14) (size 15 to 20)
#    0.414    0.828    4.138    1.655    1.931    5.793 
#    0.000    4.138    0.000    1.655    0.000    0.000 
#    0.000    0.000    0.000    0.000    0.000    0.000 
#
# Total GULP energy -718632.055616 kJ/mol
# GULP energy per Si atom -12390.207855 kJ/mol
# Density = 2.052100 g / cm^3
# Si number density = 20.567812 Si / 1000 Ang^3
#
#
#
# Elastic Constant Matrix: (Units=GPa)
#
#
# Indices 1 2 3 4 5 6 
#
# 1 137.5721 66.5856 60.2091 0.0000 0.0000 0.0000
# 2 66.5856 137.5721 60.2091 0.0000 0.0000 0.0000
# 3 60.2091 60.2091 107.7905 0.0000 0.0000 0.0000
# 4 0.0000 0.0000 0.0000 19.0333 0.0000 0.0000
# 5 0.0000 0.0000 0.0000 0.0000 19.0333 0.0000
# 6 0.0000 0.0000 0.0000 0.0000 0.0000 11.2065
#
#
#
# Elastic Compliance Matrix: (Units=1/GPa)
#
#
# Indices 1 2 3 4 5 6 
#
# 1 0.010696 -0.003391 -0.004080 0.000000 0.000000 0.000000
# 2 -0.003391 0.010696 -0.004080 0.000000 0.000000 0.000000
# 3 -0.004080 -0.004080 0.013836 0.000000 0.000000 0.000000
# 4 0.000000 0.000000 0.000000 0.052540 0.000000 0.000000
# 5 0.000000 0.000000 0.000000 0.000000 0.052540 0.000000
# 6 0.000000 0.000000 0.000000 0.000000 0.000000 0.089234
#
#
# Mechanical properties :
#
#
# Convention : Reuss Voigt Hill
#
# Bulk Modulus (GPa) = 82.48071 84.10470 83.29271
# Shear Modulus (GPa) = 19.47907 22.91667 21.19787
#
# Velocity S-wave (km/s) = 3.08078 3.34159 3.21383
# Velocity P-wave (km/s) = 7.26938 7.47452 7.37266
#
# Compressibility (1/GPa) = 0.01212405
#
# Stress axis : x y z
#
# Youngs Moduli (GPa) = 93.49265 93.49265 72.27748
#
# Poissons Ratio (x) = 0.31705 0.29491
# Poissons Ratio (y) = 0.31705 0.29491
# Poissons Ratio (z) = 0.38148 0.38148
#
# Static dielectric constant tensor:
#      x y z
#    x 3.725810 0.000000 0.000000 
#    y 0.000000 3.725810 0.000000 
#    z 0.000000 0.000000 3.481700 
# 
# 
# High freq. dielectric constant tensor:
#      x y z
#    x 1.808690 0.000000 0.000000 
#    y 0.000000 1.808690 0.000000 
#    z 0.000000 0.000000 1.779550 
# 
# From -- ./inp_files/5746.got.cif
#   From: 2010.03.12/outbox.cif.g09.slc.cpg/sg125_3_cif.got.tgz:5746.got - 2010.04.06 16:47:52.
