data_PCOD8313653
_publ_section_title
;
Structure prediction by ZEFSAII (Michael W. Deem and Ramdas Pophale) SiO2 
 PCOD8313653
Probable space group: P 4/N N C
;
_chemical_formula_sum "Si O2"
_cell_formula_units_Z 128
_cell_length_a 21.614404
_cell_length_b 21.614404
_cell_length_c 16.559089
_cell_angle_alpha 90.000000
_cell_angle_beta 90.000000
_cell_angle_gamma 90.000000
_cell_volume 7736.115939
_symmetry_space_group_name_H-M "P 4/N N C"
_symmetry_group_IT_number 126
_space_group.IT_coordinate_system_code '2'
_symmetry_cell_setting 'tetragonal'
loop_
_space_group_symop_operation_xyz
x,y,z
1/2-y,x,z
1/2-x,1/2-y,z
y,1/2-x,z
x,1/2-y,1/2-z
1/2-x,y,1/2-z
y,x,1/2-z
1/2-y,1/2-x,1/2-z
-x,-y,-z
1/2+y,-x,-z
1/2+x,1/2+y,-z
-y,1/2+x,-z
-x,1/2+y,1/2+z
1/2+x,-y,1/2+z
-y,-x,1/2+z
1/2+y,1/2+x,1/2+z
loop_
_atom_site_type_symbol
_atom_site_label
_atom_site_fract_x
_atom_site_fract_y
_atom_site_fract_z
Si Si1 0.494236 0.677176 0.599916
Si Si2 0.889419 0.127586 0.845579
Si Si3 0.250000 0.680094 0.845913
Si Si4 0.502955 0.405807 0.545736
Si Si5 0.889419 0.372414 0.845579
Si Si6 0.078171 0.177698 0.250000
Si Si7 0.094193 0.502955 0.954264
Si Si8 0.005764 0.677176 0.599916
O O1 0.426207 0.653967 0.621302
O O2 0.518278 0.647326 0.516622
O O3 0.540032 0.657218 0.671386
O O4 0.492190 0.750000 0.588906
O O5 0.857374 0.190348 0.876625
O O6 0.894220 0.124542 0.750000
O O7 0.959230 0.123708 0.879930
O O8 0.250000 0.750000 0.881507
O O9 0.250000 0.683808 0.750000
O O10 0.309652 0.642626 0.876625
O O11 0.540770 0.376292 0.620070
O O12 0.442037 0.442037 0.578028
O O13 0.546459 0.453541 0.500000
O O14 0.846033 0.426207 0.878698
O O15 0.092365 0.250000 0.250000
O O16 0.143477 0.143477 0.250000
O O17 0.040032 0.157218 0.171386
O O18 0.147326 0.481722 0.016622
#
# Coordination Sequence:
#
# PCOD8313653 Si02
#       8
#    16  16  16  16  16  16  16  16
#     4  10  19  32  52  72  96 128 166 207 244 297
#     4  10  19  32  49  73  98 132 170 208 249 298
#     4   9  18  30  48  70 100 135 166 204 249 295
#     4   9  19  33  47  68  97 128 163 207 251 291
#     4  10  19  32  49  73  98 132 170 208 249 298
#     4  10  20  33  52  77  99 127 163 201 252 306
#     4   9  19  33  47  68  97 128 163 207 251 291
#     4  10  19  32  52  72  96 128 166 207 244 297
#
# _framework density 16.545770000000001
#
# number of rings (size 3 to 8) (size 9 to 14) (size 15 to 20)
#    0.000    2.375    1.250    1.500    1.750    2.625 
#    0.000    0.000    0.000    0.000    0.000    0.000 
#    0.000    0.000    0.000    0.000    0.000    7.000 
#
# Total GULP energy -1587183.598912 kJ/mol
# GULP energy per Si atom -12399.871866 kJ/mol
# Density = 1.650811 g / cm^3
# Si number density = 16.545770 Si / 1000 Ang^3
#
#
#
# Elastic Constant Matrix: (Units=GPa)
#
#
# Indices 1 2 3 4 5 6 
#
# 1 86.4857 68.6282 26.7531 0.0000 0.0000 0.0000
# 2 68.6282 86.4857 26.7531 0.0000 0.0000 0.0000
# 3 26.7531 26.7531 25.1408 0.0000 0.0000 0.0000
# 4 0.0000 0.0000 0.0000 23.0592 0.0000 0.0000
# 5 0.0000 0.0000 0.0000 0.0000 23.0592 0.0000
# 6 0.0000 0.0000 0.0000 0.0000 0.0000 31.8172
#
#
#
# Elastic Compliance Matrix: (Units=1/GPa)
#
#
# Indices 1 2 3 4 5 6 
#
# 1 0.033092 -0.022907 -0.010839 0.000000 0.000000 0.000000
# 2 -0.022907 0.033092 -0.010839 0.000000 0.000000 0.000000
# 3 -0.010839 -0.010839 0.062844 0.000000 0.000000 0.000000
# 4 0.000000 0.000000 0.000000 0.043367 0.000000 0.000000
# 5 0.000000 0.000000 0.000000 0.000000 0.043367 0.000000
# 6 0.000000 0.000000 0.000000 0.000000 0.000000 0.031429
#
#
# Mechanical properties :
#
#
# Convention : Reuss Voigt Hill
#
# Bulk Modulus (GPa) = 25.08796 49.15346 37.12071
# Shear Modulus (GPa) = 14.30013 20.65233 17.47623
#
# Velocity S-wave (km/s) = 2.94305 3.53681 3.25350
# Velocity P-wave (km/s) = 5.17150 6.81548 6.04959
#
# Compressibility (1/GPa) = 0.03985976
#
# Stress axis : x y z
#
# Youngs Moduli (GPa) = 30.21845 30.21845 15.91237
#
# Poissons Ratio (x) = 0.69220 0.17247
# Poissons Ratio (y) = 0.69220 0.17247
# Poissons Ratio (z) = 0.32754 0.32754
#
# Static dielectric constant tensor:
#      x y z
#    x 3.171440 0.000000 0.000000 
#    y 0.000000 3.171440 0.000000 
#    z 0.000000 0.000000 3.123360 
# 
# 
# High freq. dielectric constant tensor:
#      x y z
#    x 1.630340 0.000000 0.000000 
#    y 0.000000 1.630340 0.000000 
#    z 0.000000 0.000000 1.628460 
# 
# From -- ./inp_files/4717.got.cif
#   From: 2010.03.12/outbox.cif.g09.slc.cpg/sg126_3_cif.got.tgz:4717.got - 2010.04.06 16:55:23.
