data_PCOD8313346
_publ_section_title
;
Structure prediction by ZEFSAII (Michael W. Deem and Ramdas Pophale) SiO2 
 PCOD8313346
Probable space group: P 4/M C C
;
_chemical_formula_sum "Si O2"
_cell_formula_units_Z 56
_cell_length_a 16.905324
_cell_length_b 16.905324
_cell_length_c 9.539811
_cell_angle_alpha 90.000000
_cell_angle_beta 90.000000
_cell_angle_gamma 90.000000
_cell_volume 2726.382391
_symmetry_space_group_name_H-M "P 4/M C C"
_symmetry_group_IT_number 124
_symmetry_cell_setting 'tetragonal'
loop_
_space_group_symop_operation_xyz
x,y,z
-y,x,z
-x,-y,z
y,-x,z
x,-y,1/2-z
-x,y,1/2-z
y,x,1/2-z
-y,-x,1/2-z
-x,-y,-z
y,-x,-z
x,y,-z
-y,x,-z
-x,y,1/2+z
x,-y,1/2+z
-y,-x,1/2+z
y,x,1/2+z
loop_
_atom_site_type_symbol
_atom_site_label
_atom_site_fract_x
_atom_site_fract_y
_atom_site_fract_z
Si Si1 0.101824 0.275419 0.500000
Si Si2 0.452974 0.163289 0.000000
Si Si3 0.619917 0.096344 0.000000
Si Si4 0.747377 0.273679 0.500000
Si Si5 0.661332 0.338669 0.750000
Si Si6 0.500000 0.728350 0.250000
Si Si7 0.000000 0.306317 0.250000
O O1 0.115467 0.370757 0.500000
O O2 0.182134 0.223447 0.500000
O O3 0.054184 0.253665 0.356151
O O4 0.460283 0.217792 0.134346
O O5 0.525693 0.102160 0.000000
O O6 0.663570 0.181690 0.000000
O O7 0.641451 0.053164 0.855042
O O8 0.686873 0.280920 0.626838
O O9 0.571164 0.327443 0.802629
#
# Coordination Sequence:
#
# PCOD8313346 Si02
#       7
#     8   8   8   8   8   8   8
#     4  11  22  39  60  86 119 156 196 236 292 349
#     4  12  22  37  60  83 118 158 196 252 288 349
#     4  11  22  39  60  86 119 156 196 236 292 349
#     4  12  22  40  64  87 108 161 202 238 290 358
#     4  12  22  37  58  82 114 154 206 265 300 334
#     4  12  22  37  54  85 114 150 210 264 300 335
#     4  10  24  39  56  88 124 149 190 246 284 351
#
# _framework density 20.540037999999999
#
# number of rings (size 3 to 8) (size 9 to 14) (size 15 to 20)
#    0.000    0.571    5.714    3.429    0.000    3.714 
#    0.000    0.000    0.000    3.429    0.000    0.000 
#    0.000   40.000    0.000    0.000    0.000    0.000 
#
# Total GULP energy -693967.434302 kJ/mol
# GULP energy per Si atom -12392.275613 kJ/mol
# Density = 2.049329 g / cm^3
# Si number density = 20.540038 Si / 1000 Ang^3
#
#
#
# Elastic Constant Matrix: (Units=GPa)
#
#
# Indices 1 2 3 4 5 6 
#
# 1 75.6976 3.4396 17.4203 0.0000 0.0000 0.0000
# 2 3.4396 75.6983 17.4205 0.0000 0.0000 0.0000
# 3 17.4203 17.4205 136.9913 0.0000 0.0000 0.0000
# 4 0.0000 0.0000 0.0000 14.1855 0.0000 0.0000
# 5 0.0000 0.0000 0.0000 0.0000 14.1850 0.0000
# 6 0.0000 0.0000 0.0000 0.0000 0.0000 16.0806
#
#
#
# Elastic Compliance Matrix: (Units=1/GPa)
#
#
# Indices 1 2 3 4 5 6 
#
# 1 0.013612 -0.000227 -0.001702 0.000000 0.000000 0.000000
# 2 -0.000227 0.013612 -0.001702 0.000000 0.000000 0.000000
# 3 -0.001702 -0.001702 0.007733 0.000000 0.000000 0.000000
# 4 0.000000 0.000000 0.000000 0.070495 0.000000 0.000000
# 5 0.000000 0.000000 0.000000 0.000000 0.070497 0.000000
# 6 0.000000 0.000000 0.000000 0.000000 0.000000 0.062187
#
#
# Mechanical properties :
#
#
# Convention : Reuss Voigt Hill
#
# Bulk Modulus (GPa) = 36.10735 40.54979 38.32857
# Shear Modulus (GPa) = 19.63637 25.56402 22.60019
#
# Velocity S-wave (km/s) = 3.09529 3.53171 3.32067
# Velocity P-wave (km/s) = 5.51286 6.03451 5.77957
#
# Compressibility (1/GPa) = 0.02769519
#
# Stress axis : x y z
#
# Youngs Moduli (GPa) = 73.46200 73.46264 129.32185
#
# Poissons Ratio (x) = 0.01666 0.22013
# Poissons Ratio (y) = 0.01666 0.22013
# Poissons Ratio (z) = 0.12505 0.12505
#
# Static dielectric constant tensor:
#      x y z
#    x 3.704490 0.000000 0.000000 
#    y 0.000000 3.704470 0.000000 
#    z 0.000000 0.000000 3.916950 
# 
# 
# High freq. dielectric constant tensor:
#      x y z
#    x 1.784490 0.000000 0.000000 
#    y 0.000000 1.784490 0.000000 
#    z 0.000000 0.000000 1.828670 
# 
# From -- ./inp_files/716.got.cif
#   From: 2010.03.12/outbox.cif.g09.slc.cpg/sg124_1_cif.got.tgz:716.got - 2010.04.06 16:38:57.
