data_PCOD8313300
_publ_section_title
;
Structure prediction by ZEFSAII (Michael W. Deem and Ramdas Pophale) SiO2 
 PCOD8313300
Probable space group: P 4/M C C
;
_chemical_formula_sum "Si O2"
_cell_formula_units_Z 88
_cell_length_a 17.259754
_cell_length_b 17.259754
_cell_length_c 15.061532
_cell_angle_alpha 90.000000
_cell_angle_beta 90.000000
_cell_angle_gamma 90.000000
_cell_volume 4486.816950
_symmetry_space_group_name_H-M "P 4/M C C"
_symmetry_group_IT_number 124
_symmetry_cell_setting 'tetragonal'
loop_
_space_group_symop_operation_xyz
x,y,z
-y,x,z
-x,-y,z
y,-x,z
x,-y,1/2-z
-x,y,1/2-z
y,x,1/2-z
-y,-x,1/2-z
-x,-y,-z
y,-x,-z
x,y,-z
-y,x,-z
-x,y,1/2+z
x,-y,1/2+z
-y,-x,1/2+z
y,x,1/2+z
loop_
_atom_site_type_symbol
_atom_site_label
_atom_site_fract_x
_atom_site_fract_y
_atom_site_fract_z
Si Si1 0.664034 0.226012 0.772264
Si Si2 0.902442 0.913331 0.500000
Si Si3 0.441725 0.845179 0.099169
Si Si4 0.125366 0.804203 0.667400
Si Si5 0.667587 0.018248 0.153283
Si Si6 0.860364 0.380760 0.902094
O O1 0.684255 0.315746 0.750000
O O2 0.585840 0.220254 0.830140
O O3 0.736723 0.190971 0.828402
O O4 0.658779 0.185859 0.676661
O O5 0.859886 0.872455 0.582594
O O6 0.993498 0.892017 0.500000
O O7 0.384871 0.917455 0.107221
O O8 0.528670 0.871061 0.120644
O O9 0.435629 0.810748 0.000000
O O10 0.137137 0.862864 0.750000
O O11 0.044100 0.757199 0.665346
O O12 0.631907 0.000000 0.250000
O O13 0.662079 0.942835 0.092338
O O14 0.821297 0.370271 0.000000
#
# Coordination Sequence:
#
# PCOD8313300 Si02
#       6
#    16   8  16  16  16  16
#     4  10  22  38  55  84 114 156 193 225 280 341
#     4  11  28  44  62  80  95 136 198 264 323 368
#     4  10  21  36  57  84 120 155 182 229 285 341
#     4  10  24  42  57  80 107 142 189 246 311 358
#     4  11  21  35  57  85 109 148 188 229 298 357
#     4  11  22  36  57  86 117 149 188 233 282 344
#
# _framework density 19.613012999999999
#
# number of rings (size 3 to 8) (size 9 to 14) (size 15 to 20)
#    0.000    1.545    3.636    1.636    8.909    2.909 
#    4.909    0.909    0.000    0.000    0.000    0.000 
#    0.000    5.818    0.000   16.000    0.000    0.000 
#
# Total GULP energy -1090305.352401 kJ/mol
# GULP energy per Si atom -12389.833550 kJ/mol
# Density = 1.956837 g / cm^3
# Si number density = 19.613013 Si / 1000 Ang^3
#
#
#
# Elastic Constant Matrix: (Units=GPa)
#
#
# Indices 1 2 3 4 5 6 
#
# 1 63.9793 44.4648 38.9375 0.0000 0.0000 0.0000
# 2 44.4648 63.9768 38.9365 0.0000 0.0000 0.0000
# 3 38.9375 38.9365 115.7105 0.0000 0.0000 0.0000
# 4 0.0000 0.0000 0.0000 15.8285 0.0000 0.0000
# 5 0.0000 0.0000 0.0000 0.0000 15.8252 0.0000
# 6 0.0000 0.0000 0.0000 0.0000 0.0000 20.0533
#
#
#
# Elastic Compliance Matrix: (Units=1/GPa)
#
#
# Indices 1 2 3 4 5 6 
#
# 1 0.031703 -0.019544 -0.004092 0.000000 0.000000 0.000000
# 2 -0.019544 0.031704 -0.004092 0.000000 0.000000 0.000000
# 3 -0.004092 -0.004092 0.011396 0.000000 0.000000 0.000000
# 4 0.000000 0.000000 0.000000 0.063177 0.000000 0.000000
# 5 0.000000 0.000000 0.000000 0.000000 0.063190 0.000000
# 6 0.000000 0.000000 0.000000 0.000000 0.000000 0.049867
#
#
# Mechanical properties :
#
#
# Convention : Reuss Voigt Hill
#
# Bulk Modulus (GPa) = 51.68376 54.26047 52.97212
# Shear Modulus (GPa) = 15.97739 18.42992 17.20366
#
# Velocity S-wave (km/s) = 2.85727 3.06874 2.96489
# Velocity P-wave (km/s) = 6.10691 6.34680 6.22801
#
# Compressibility (1/GPa) = 0.01934844
#
# Stress axis : x y z
#
# Youngs Moduli (GPa) = 31.54278 31.54161 87.74942
#
# Poissons Ratio (x) = 0.61644 0.35906
# Poissons Ratio (y) = 0.61646 0.35905
# Poissons Ratio (z) = 0.12907 0.12906
#
# Static dielectric constant tensor:
#      x y z
#    x 3.586700 0.000000 0.000000 
#    y 0.000000 3.586710 0.000000 
#    z 0.000000 0.000000 3.626320 
# 
# 
# High freq. dielectric constant tensor:
#      x y z
#    x 1.737490 0.000000 0.000000 
#    y 0.000000 1.737490 0.000000 
#    z 0.000000 0.000000 1.783800 
# 
# From -- ./inp_files/3250.got.cif
#   From: 2010.03.12/outbox.cif.g09.slc.cpg/sg124_2_cif.got.tgz:3250.got - 2010.04.06 16:38:57.
