data_PCOD8313121
_publ_section_title
;
Structure prediction by ZEFSAII (Michael W. Deem and Ramdas Pophale) SiO2 
 PCOD8313121
Probable space group: P 4/M C C
;
_chemical_formula_sum "Si O2"
_cell_formula_units_Z 96
_cell_length_a 24.740725
_cell_length_b 24.740725
_cell_length_c 9.156647
_cell_angle_alpha 90.000000
_cell_angle_beta 90.000000
_cell_angle_gamma 90.000000
_cell_volume 5604.815435
_symmetry_space_group_name_H-M "P 4/M C C"
_symmetry_group_IT_number 124
_symmetry_cell_setting 'tetragonal'
loop_
_space_group_symop_operation_xyz
x,y,z
-y,x,z
-x,-y,z
y,-x,z
x,-y,1/2-z
-x,y,1/2-z
y,x,1/2-z
-y,-x,1/2-z
-x,-y,-z
y,-x,-z
x,y,-z
-y,x,-z
-x,y,1/2+z
x,-y,1/2+z
-y,-x,1/2+z
y,x,1/2+z
loop_
_atom_site_type_symbol
_atom_site_label
_atom_site_fract_x
_atom_site_fract_y
_atom_site_fract_z
Si Si1 0.337429 0.741150 0.670901
Si Si2 0.552145 0.746358 0.664774
Si Si3 0.248437 0.050923 0.161649
Si Si4 0.949409 0.120874 0.837425
Si Si5 0.752466 0.170317 0.330531
Si Si6 0.619501 0.449782 0.338494
O O1 0.310873 0.689128 0.750000
O O2 0.345555 0.726950 0.500000
O O3 0.393858 0.758252 0.743624
O O4 0.299765 0.792926 0.693520
O O5 0.500000 0.771065 0.750000
O O6 0.555991 0.770991 0.500000
O O7 0.544292 0.682966 0.651155
O O8 0.184607 0.045595 0.155340
O O9 0.261652 0.110159 0.230825
O O10 0.273369 0.000000 0.250000
O O11 0.273741 0.047292 0.000000
O O12 0.895296 0.104705 0.750000
O O13 0.000000 0.095833 0.750000
O O14 0.947657 0.096408 0.000000
O O15 0.804116 0.195885 0.250000
O O16 0.768715 0.165449 0.500000
O O17 0.594147 0.500000 0.250000
O O18 0.604567 0.395434 0.250000
O O19 0.594071 0.447508 0.500000
#
# Coordination Sequence:
#
# PCOD8313121 Si02
#       6
#    16  16  16  16  16  16
#     4  10  19  31  48  70  97 127 158 193 233 277
#     4  10  20  33  49  68  91 119 151 187 227 273
#     4   9  18  31  46  65  89 117 149 185 225 270
#     4  10  19  30  43  58  77 103 138 179 222 265
#     4   9  18  31  47  69  96 125 157 193 233 277
#     4  10  20  32  45  60  79 105 139 179 220 260
#
# _framework density 17.128128
#
# number of rings (size 3 to 8) (size 9 to 14) (size 15 to 20)
#    0.000    2.333    0.000    3.000    0.000    5.667 
#    0.000    1.667    0.000    0.000    0.000    0.000 
#    0.000    0.667    0.000    7.667    0.000    2.333 
#
# Total GULP energy -1189973.936167 kJ/mol
# GULP energy per Si atom -12395.561835 kJ/mol
# Density = 1.708914 g / cm^3
# Si number density = 17.128128 Si / 1000 Ang^3
#
#
#
# Elastic Constant Matrix: (Units=GPa)
#
#
# Indices 1 2 3 4 5 6 
#
# 1 76.3061 13.9750 38.1020 0.0000 0.0000 0.0000
# 2 13.9750 76.3083 38.1034 0.0000 0.0000 0.0000
# 3 38.1020 38.1034 127.1604 0.0000 0.0000 0.0000
# 4 0.0000 0.0000 0.0000 20.6910 0.0000 0.0000
# 5 0.0000 0.0000 0.0000 0.0000 20.6913 0.0000
# 6 0.0000 0.0000 0.0000 0.0000 0.0000 17.3758
#
#
#
# Elastic Compliance Matrix: (Units=1/GPa)
#
#
# Indices 1 2 3 4 5 6 
#
# 1 0.015435 -0.000608 -0.004443 0.000000 0.000000 0.000000
# 2 -0.000608 0.015435 -0.004443 0.000000 0.000000 0.000000
# 3 -0.004443 -0.004443 0.010526 0.000000 0.000000 0.000000
# 4 0.000000 0.000000 0.000000 0.048330 0.000000 0.000000
# 5 0.000000 0.000000 0.000000 0.000000 0.048330 0.000000
# 6 0.000000 0.000000 0.000000 0.000000 0.000000 0.057551
#
#
# Mechanical properties :
#
#
# Convention : Reuss Voigt Hill
#
# Bulk Modulus (GPa) = 44.62558 51.12618 47.87588
# Shear Modulus (GPa) = 22.51608 24.39124 23.45366
#
# Velocity S-wave (km/s) = 3.62963 3.77775 3.70443
# Velocity P-wave (km/s) = 6.60879 6.99590 6.80510
#
# Compressibility (1/GPa) = 0.02240867
#
# Stress axis : x y z
#
# Youngs Moduli (GPa) = 64.78848 64.78985 94.99864
#
# Poissons Ratio (x) = 0.03942 0.42204
# Poissons Ratio (y) = 0.03942 0.42204
# Poissons Ratio (z) = 0.28783 0.28784
#
# Static dielectric constant tensor:
#      x y z
#    x 3.039230 0.000000 0.000000 
#    y 0.000000 3.039220 0.000000 
#    z 0.000000 0.000000 3.620410 
# 
# 
# High freq. dielectric constant tensor:
#      x y z
#    x 1.631910 0.000000 0.000000 
#    y 0.000000 1.631910 0.000000 
#    z 0.000000 0.000000 1.678040 
# 
# From -- ./inp_files/1399.got.cif
#   From: 2010.03.12/outbox.cif.g09.slc.cpg/sg124_1_cif.got.tgz:1399.got - 2010.04.06 16:38:57.
