data_PCOD8313072
_publ_section_title
;
Structure prediction by ZEFSAII (Michael W. Deem and Ramdas Pophale) SiO2 
 PCOD8313072
Probable space group: P 4/M C C
;
_chemical_formula_sum "Si O2"
_cell_formula_units_Z 96
_cell_length_a 27.019162
_cell_length_b 27.019162
_cell_length_c 8.803024
_cell_angle_alpha 90.000000
_cell_angle_beta 90.000000
_cell_angle_gamma 90.000000
_cell_volume 6426.516640
_symmetry_space_group_name_H-M "P 4/M C C"
_symmetry_group_IT_number 124
_symmetry_cell_setting 'tetragonal'
loop_
_space_group_symop_operation_xyz
x,y,z
-y,x,z
-x,-y,z
y,-x,z
x,-y,1/2-z
-x,y,1/2-z
y,x,1/2-z
-y,-x,1/2-z
-x,-y,-z
y,-x,-z
x,y,-z
-y,x,-z
-x,y,1/2+z
x,-y,1/2+z
-y,-x,1/2+z
y,x,1/2+z
loop_
_atom_site_type_symbol
_atom_site_label
_atom_site_fract_x
_atom_site_fract_y
_atom_site_fract_z
Si Si1 0.869182 0.946543 0.182319
Si Si2 0.612245 0.453005 0.665333
Si Si3 0.730307 0.346225 0.175324
Si Si4 0.798554 0.876167 0.318853
Si Si5 0.267438 0.192698 0.824609
Si Si6 0.271690 0.549002 0.331270
O O1 0.911060 0.911060 0.250000
O O2 0.815374 0.928114 0.243614
O O3 0.879883 0.000000 0.250000
O O4 0.870720 0.946744 0.000000
O O5 0.588691 0.500000 0.750000
O O6 0.597687 0.402314 0.750000
O O7 0.588366 0.450814 0.500000
O O8 0.670328 0.458347 0.656376
O O9 0.686285 0.313716 0.250000
O O10 0.785379 0.322519 0.194437
O O11 0.738164 0.400607 0.241715
O O12 0.715255 0.350390 0.000000
O O13 0.834741 0.834741 0.250000
O O14 0.802116 0.879615 0.500000
O O15 0.743145 0.859477 0.264348
O O16 0.234202 0.234202 0.750000
O O17 0.253114 0.185187 0.000000
O O18 0.248802 0.500000 0.250000
O O19 0.248431 0.552963 0.500000
#
# Coordination Sequence:
#
# PCOD8313072 Si02
#       6
#    16  16  16  16  16  16
#     4  11  21  34  48  64  85 113 150 191 232 269
#     4  10  20  32  44  56  68  84 107 139 177 220
#     4  10  19  29  43  62  83 104 130 162 199 239
#     4  10  17  27  43  62  83 109 138 172 213 257
#     4   9  16  26  40  60  83 106 130 162 201 244
#     4  10  20  32  45  58  75  98 124 153 188 230
#
# _framework density 14.938108
#
# number of rings (size 3 to 8) (size 9 to 14) (size 15 to 20)
#    0.000    2.000    0.000    7.500    0.000    5.667 
#    0.000    1.667    0.000    0.000    0.000    0.000 
#    0.000    0.000    0.000    0.000    0.000    0.833 
#
# Total GULP energy -1189381.203407 kJ/mol
# GULP energy per Si atom -12389.387535 kJ/mol
# Density = 1.490411 g / cm^3
# Si number density = 14.938108 Si / 1000 Ang^3
#
#
#
# Elastic Constant Matrix: (Units=GPa)
#
#
# Indices 1 2 3 4 5 6 
#
# 1 49.4449 47.0505 43.4820 0.0000 0.0000 0.0000
# 2 47.0505 49.4436 43.4824 0.0000 0.0000 0.0000
# 3 43.4820 43.4824 154.4513 0.0000 0.0000 0.0000
# 4 0.0000 0.0000 0.0000 14.9612 0.0000 0.0000
# 5 0.0000 0.0000 0.0000 0.0000 14.9624 0.0000
# 6 0.0000 0.0000 0.0000 0.0000 0.0000 18.9319
#
#
#
# Elastic Compliance Matrix: (Units=1/GPa)
#
#
# Indices 1 2 3 4 5 6 
#
# 1 0.215816 -0.201934 -0.003908 0.000000 0.000000 0.000000
# 2 -0.201934 0.215825 -0.003911 0.000000 0.000000 0.000000
# 3 -0.003908 -0.003911 0.008676 0.000000 0.000000 0.000000
# 4 0.000000 0.000000 0.000000 0.066840 0.000000 0.000000
# 5 0.000000 0.000000 0.000000 0.000000 0.066834 0.000000
# 6 0.000000 0.000000 0.000000 0.000000 0.000000 0.052821
#
#
# Mechanical properties :
#
#
# Convention : Reuss Voigt Hill
#
# Bulk Modulus (GPa) = 48.05116 57.92995 52.99056
# Shear Modulus (GPa) = 4.74719 17.72609 11.23664
#
# Velocity S-wave (km/s) = 1.78460 3.44849 2.74563
# Velocity P-wave (km/s) = 6.04012 7.39732 6.75290
#
# Compressibility (1/GPa) = 0.02081115
#
# Stress axis : x y z
#
# Youngs Moduli (GPa) = 4.63358 4.63338 115.26362
#
# Poissons Ratio (x) = 0.93564 0.45040
# Poissons Ratio (y) = 0.93568 0.45084
# Poissons Ratio (z) = 0.01811 0.01812
#
# Static dielectric constant tensor:
#      x y z
#    x 3.073840 0.000000 0.000000 
#    y 0.000000 3.073840 0.000000 
#    z 0.000000 0.000000 3.346310 
# 
# 
# High freq. dielectric constant tensor:
#      x y z
#    x 1.537950 0.000000 0.000000 
#    y 0.000000 1.537950 0.000000 
#    z 0.000000 0.000000 1.601240 
# 
# From -- ./inp_files/1563.got.cif
#   From: 2010.03.12/outbox.cif.g09.slc.cpg/sg124_1_cif.got.tgz:1563.got - 2010.04.06 16:38:57.
