data_PCOD8313469
_publ_section_title
;
Structure prediction by ZEFSAII (Michael W. Deem and Ramdas Pophale) SiO2 
 PCOD8313469
Probable space group: P 4/N B M
;
_chemical_formula_sum "Si O2"
_cell_formula_units_Z 128
_cell_length_a 23.465551
_cell_length_b 23.465551
_cell_length_c 12.170555
_cell_angle_alpha 90.000000
_cell_angle_beta 90.000000
_cell_angle_gamma 90.000000
_cell_volume 6701.498060
_symmetry_space_group_name_H-M "P 4/N B M"
_symmetry_group_IT_number 125
_space_group.IT_coordinate_system_code '2'
_symmetry_cell_setting 'tetragonal'
loop_
_space_group_symop_operation_xyz
x,y,z
1/2-y,x,z
1/2-x,1/2-y,z
y,1/2-x,z
x,1/2-y,-z
1/2-x,y,-z
y,x,-z
1/2-y,1/2-x,-z
-x,-y,-z
1/2+y,-x,-z
1/2+x,1/2+y,-z
-y,1/2+x,-z
-x,1/2+y,z
1/2+x,-y,z
-y,-x,z
1/2+y,1/2+x,z
loop_
_atom_site_type_symbol
_atom_site_label
_atom_site_fract_x
_atom_site_fract_y
_atom_site_fract_z
Si Si1 0.815061 0.683501 0.374921
Si Si2 0.517190 0.572229 0.604200
Si Si3 0.309157 0.900800 0.261313
Si Si4 0.937062 0.345795 0.512456
Si Si5 0.605460 0.890676 0.223514
Si Si6 0.011893 0.188318 0.128717
Si Si7 0.912658 0.182243 0.722928
Si Si8 0.486615 0.319438 0.877098
O O1 0.829160 0.749123 0.351969
O O2 0.831491 0.668510 0.500000
O O3 0.850513 0.644457 0.295089
O O4 0.540711 0.540711 0.500000
O O5 0.462576 0.537425 0.651804
O O6 0.498313 0.635623 0.563146
O O7 0.564494 0.573337 0.697876
O O8 0.348100 0.848100 0.219890
O O9 0.310924 0.904333 0.393643
O O10 0.243141 0.890651 0.231211
O O11 0.331768 0.959000 0.204592
O O12 0.903946 0.403946 0.482292
O O13 0.940780 0.310195 0.399116
O O14 0.568145 0.848149 0.150793
O O15 0.640536 0.932345 0.143970
O O16 0.027505 0.254018 0.153885
O O17 0.994146 0.177471 0.003243
O O18 0.858778 0.141223 0.721757
O O19 0.961015 0.157917 0.803468
#
# Coordination Sequence:
#
# PCOD8313469 Si02
#       8
#    16  16  16  16  16  16  16  16
#     4   9  19  35  53  79 117 151 180 224 279 331
#     4  10  20  32  49  77 114 148 180 223 271 321
#     4  10  20  37  60  84 112 148 187 229 280 338
#     4   9  17  33  53  79 113 147 180 220 276 331
#     4  12  20  34  59  83 104 142 197 233 272 332
#     4  10  22  40  57  79 112 148 185 237 285 336
#     4  10  21  37  58  84 115 148 183 229 283 338
#     4  10  23  39  56  80 112 147 187 234 290 331
#
# _framework density 19.100207999999999
#
# number of rings (size 3 to 8) (size 9 to 14) (size 15 to 20)
#    0.000    2.000    1.250    3.000    0.000    2.250 
#    0.000    1.250    0.000    4.500    0.000    8.750 
#    0.000    0.000    0.000    0.000    0.000    0.000 
#
# Total GULP energy -1587074.828298 kJ/mol
# GULP energy per Si atom -12399.022096 kJ/mol
# Density = 1.905673 g / cm^3
# Si number density = 19.100208 Si / 1000 Ang^3
#
#
#
# Elastic Constant Matrix: (Units=GPa)
#
#
# Indices 1 2 3 4 5 6 
#
# 1 84.1585 47.6185 34.6090 0.0000 0.0000 0.0000
# 2 47.6185 84.1580 34.6093 0.0000 0.0000 0.0000
# 3 34.6090 34.6093 91.9201 0.0000 0.0000 0.0000
# 4 0.0000 0.0000 0.0000 25.5836 0.0000 0.0000
# 5 0.0000 0.0000 0.0000 0.0000 25.5836 0.0000
# 6 0.0000 0.0000 0.0000 0.0000 0.0000 35.7724
#
#
#
# Elastic Compliance Matrix: (Units=1/GPa)
#
#
# Indices 1 2 3 4 5 6 
#
# 1 0.018413 -0.008954 -0.003562 0.000000 0.000000 0.000000
# 2 -0.008954 0.018414 -0.003562 0.000000 0.000000 0.000000
# 3 -0.003562 -0.003562 0.013561 0.000000 0.000000 0.000000
# 4 0.000000 0.000000 0.000000 0.039087 0.000000 0.000000
# 5 0.000000 0.000000 0.000000 0.000000 0.039088 0.000000
# 6 0.000000 0.000000 0.000000 0.000000 0.000000 0.027954
#
#
# Mechanical properties :
#
#
# Convention : Reuss Voigt Hill
#
# Bulk Modulus (GPa) = 54.84438 54.87892 54.86165
# Shear Modulus (GPa) = 25.67400 26.94792 26.31096
#
# Velocity S-wave (km/s) = 3.67027 3.76023 3.71552
# Velocity P-wave (km/s) = 6.83649 6.90267 6.86966
#
# Compressibility (1/GPa) = 0.01823341
#
# Stress axis : x y z
#
# Youngs Moduli (GPa) = 54.30853 54.30792 73.74089
#
# Poissons Ratio (x) = 0.48627 0.26263
# Poissons Ratio (y) = 0.48628 0.26264
# Poissons Ratio (z) = 0.19342 0.19343
#
# Static dielectric constant tensor:
#      x y z
#    x 3.818960 0.000000 0.000000 
#    y 0.000000 3.818700 0.000000 
#    z 0.000000 0.000000 3.462260 
# 
# 
# High freq. dielectric constant tensor:
#      x y z
#    x 1.739270 0.000000 0.000000 
#    y 0.000000 1.739270 0.000000 
#    z 0.000000 0.000000 1.740090 
# 
# From -- ./inp_files/4385.got.cif
#   From: 2010.03.12/outbox.cif.g09.slc.cpg/sg125_3_cif.got.tgz:4385.got - 2010.04.06 16:47:52.
