data_PCOD8313744
_publ_section_title
;
Structure prediction by ZEFSAII (Michael W. Deem and Ramdas Pophale) SiO2 
 PCOD8313744
Probable space group: P 4/N N C
;
_chemical_formula_sum "Si O2"
_cell_formula_units_Z 92
_cell_length_a 14.217106
_cell_length_b 14.217106
_cell_length_c 19.802952
_cell_angle_alpha 90.000000
_cell_angle_beta 90.000000
_cell_angle_gamma 90.000000
_cell_volume 4002.693516
_symmetry_space_group_name_H-M "P 4/N N C"
_symmetry_group_IT_number 126
_space_group.IT_coordinate_system_code '2'
_symmetry_cell_setting 'tetragonal'
loop_
_space_group_symop_operation_xyz
x,y,z
1/2-y,x,z
1/2-x,1/2-y,z
y,1/2-x,z
x,1/2-y,1/2-z
1/2-x,y,1/2-z
y,x,1/2-z
1/2-y,1/2-x,1/2-z
-x,-y,-z
1/2+y,-x,-z
1/2+x,1/2+y,-z
-y,1/2+x,-z
-x,1/2+y,1/2+z
1/2+x,-y,1/2+z
-y,-x,1/2+z
1/2+y,1/2+x,1/2+z
loop_
_atom_site_type_symbol
_atom_site_label
_atom_site_fract_x
_atom_site_fract_y
_atom_site_fract_z
Si Si1 0.458926 0.458926 0.750000
Si Si2 0.431630 0.824340 0.946078
Si Si3 0.346944 0.994933 0.290550
Si Si4 0.365402 0.147545 0.629053
Si Si5 0.865944 0.648218 0.622515
Si Si6 0.250000 0.750000 0.000000
Si Si7 0.514969 0.633344 0.999361
O O1 0.437642 0.571809 0.748343
O O2 0.413110 0.419118 0.683612
O O3 0.457650 0.830834 0.867078
O O4 0.322903 0.795470 0.947782
O O5 0.489045 0.743326 0.986534
O O6 0.434017 0.925455 0.985956
O O7 0.250000 0.991442 0.250000
O O8 0.389380 0.102817 0.304111
O O9 0.380668 0.257867 0.639001
O O10 0.406831 0.122855 0.556766
O O11 0.881387 0.757283 0.614476
O O12 0.927862 0.594139 0.566242
#
# Coordination Sequence:
#
# PCOD8313744 Si02
#       7
#     8  16  16  16  16   4  16
#     4  12  26  47  72 101 144 194 252 288 364 448
#     4  10  22  44  71 105 140 181 242 298 377 422
#     4  12  26  48  68 102 146 195 243 296 358 445
#     4  11  25  47  73 105 147 193 242 299 366 439
#     4  11  23  41  67 103 143 184 232 290 365 431
#     4   8  20  44  74 100 140 172 220 318 368 420
#     4  11  22  44  73 107 142 181 239 312 366 436
#
# _framework density 22.984524
#
# number of rings (size 3 to 8) (size 9 to 14) (size 15 to 20)
#    0.000    1.043    3.478    2.609    0.000    4.174 
#    6.261    1.304    0.000    0.000    0.000    0.000 
#    0.000    0.000    0.000    0.000    0.000    0.000 
#
# Total GULP energy -1139845.783948 kJ/mol
# GULP energy per Si atom -12389.628086 kJ/mol
# Density = 2.293221 g / cm^3
# Si number density = 22.984524 Si / 1000 Ang^3
#
#
#
# Elastic Constant Matrix: (Units=GPa)
#
#
# Indices 1 2 3 4 5 6 
#
# 1 116.4801 51.3744 75.2610 0.0000 0.0000 0.0000
# 2 51.3744 116.4801 75.2610 0.0000 0.0000 0.0000
# 3 75.2610 75.2610 163.7298 0.0000 0.0000 0.0000
# 4 0.0000 0.0000 0.0000 43.9094 0.0000 0.0000
# 5 0.0000 0.0000 0.0000 0.0000 43.9094 0.0000
# 6 0.0000 0.0000 0.0000 0.0000 0.0000 17.6656
#
#
#
# Elastic Compliance Matrix: (Units=1/GPa)
#
#
# Indices 1 2 3 4 5 6 
#
# 1 0.012747 -0.002612 -0.004659 0.000000 0.000000 0.000000
# 2 -0.002612 0.012747 -0.004659 0.000000 0.000000 0.000000
# 3 -0.004659 -0.004659 0.010391 0.000000 0.000000 0.000000
# 4 0.000000 0.000000 0.000000 0.022774 0.000000 0.000000
# 5 0.000000 0.000000 0.000000 0.000000 0.022774 0.000000
# 6 0.000000 0.000000 0.000000 0.000000 0.000000 0.056607
#
#
# Mechanical properties :
#
#
# Convention : Reuss Voigt Hill
#
# Bulk Modulus (GPa) = 83.15407 88.94253 86.04830
# Shear Modulus (GPa) = 30.13688 34.08311 32.10999
#
# Velocity S-wave (km/s) = 3.62495 3.85499 3.74174
# Velocity P-wave (km/s) = 7.33329 7.65475 7.49575
#
# Compressibility (1/GPa) = 0.01202587
#
# Stress axis : x y z
#
# Youngs Moduli (GPa) = 78.44685 78.44685 96.24026
#
# Poissons Ratio (x) = 0.20492 0.44837
# Poissons Ratio (y) = 0.20492 0.44837
# Poissons Ratio (z) = 0.36547 0.36547
#
# Static dielectric constant tensor:
#      x y z
#    x 3.591680 0.000000 0.000000 
#    y 0.000000 3.591680 0.000000 
#    z 0.000000 0.000000 4.717740 
# 
# 
# High freq. dielectric constant tensor:
#      x y z
#    x 1.925180 0.000000 0.000000 
#    y 0.000000 1.925180 0.000000 
#    z 0.000000 0.000000 1.918660 
# 
# From -- ./inp_files/5316.got.cif
#   From: 2010.03.12/outbox.cif.g09.slc.cpg/sg126_3_cif.got.tgz:5316.got - 2010.04.06 16:55:23.
