data_PCOD8313845
_publ_section_title
;
Structure prediction by ZEFSAII (Michael W. Deem and Ramdas Pophale) SiO2 
 PCOD8313845
Probable space group: P 4/M B M
;
_chemical_formula_sum "Si O2"
_cell_formula_units_Z 96
_cell_length_a 23.338743
_cell_length_b 23.338743
_cell_length_c 12.887312
_cell_angle_alpha 90.000000
_cell_angle_beta 90.000000
_cell_angle_gamma 90.000000
_cell_volume 7019.679216
_symmetry_space_group_name_H-M "P 4/M B M"
_symmetry_group_IT_number 127
_symmetry_cell_setting 'tetragonal'
loop_
_space_group_symop_operation_xyz
x,y,z
-y,x,z
-x,-y,z
y,-x,z
1/2+x,1/2-y,-z
1/2-x,1/2+y,-z
1/2+y,1/2+x,-z
1/2-y,1/2-x,-z
-x,-y,-z
y,-x,-z
x,y,-z
-y,x,-z
1/2-x,1/2+y,z
1/2+x,1/2-y,z
1/2-y,1/2-x,z
1/2+y,1/2+x,z
loop_
_atom_site_type_symbol
_atom_site_label
_atom_site_fract_x
_atom_site_fract_y
_atom_site_fract_z
Si Si1 0.784433 0.380607 0.615443
Si Si2 0.942725 0.651773 0.122385
Si Si3 0.693503 0.289939 0.384779
Si Si4 0.713885 0.882042 0.000000
Si Si5 0.304721 0.707917 0.000000
Si Si6 0.662265 0.933898 0.804688
Si Si7 0.740328 0.143899 0.808012
O O1 0.782726 0.408054 0.500000
O O2 0.831712 0.331712 0.620470
O O3 0.723263 0.351045 0.641848
O O4 0.801012 0.429211 0.698640
O O5 0.902338 0.597663 0.144029
O O6 0.916666 0.709554 0.172530
O O7 0.002072 0.638860 0.180557
O O8 0.951547 0.660931 0.000000
O O9 0.665849 0.292097 0.500000
O O10 0.741863 0.241863 0.381054
O O11 0.644240 0.274701 0.301219
O O12 0.705745 0.920170 0.102034
O O13 0.668600 0.831401 0.000000
O O14 0.777347 0.855339 0.000000
O O15 0.344338 0.714079 0.101137
O O16 0.255860 0.755860 0.000000
O O17 0.607672 0.892329 0.804857
O O18 0.692871 0.192871 0.810380
#
# Coordination Sequence:
#
# PCOD8313845 Si02
#       7
#    16  16  16   8   8  16  16
#     4   8  14  25  41  59  77  97 119 149 198 252
#     4  10  19  30  40  51  72 105 143 175 207 238
#     4   8  13  22  38  59  79  95 113 143 187 242
#     4   9  16  23  35  58  77  88 111 157 209 243
#     4   9  14  21  36  55  73  90 110 144 193 247
#     4  10  18  28  40  55  75  98 133 180 212 231
#     4   9  15  24  37  53  72  96 124 154 189 235
#
# _framework density 13.675839
#
# number of rings (size 3 to 8) (size 9 to 14) (size 15 to 20)
#    0.000    3.000    1.667    2.000    0.000    4.333 
#    0.000    1.667    0.000    1.500    0.000    2.333 
#    0.000    0.000    0.000    0.000    0.000   34.167 
#
# Total GULP energy -1189775.021653 kJ/mol
# GULP energy per Si atom -12393.489809 kJ/mol
# Density = 1.364471 g / cm^3
# Si number density = 13.675839 Si / 1000 Ang^3
#
#
#
# Elastic Constant Matrix: (Units=GPa)
#
#
# Indices 1 2 3 4 5 6 
#
# 1 40.8041 38.6256 37.6500 0.0000 0.0000 0.0000
# 2 38.6256 40.8045 37.6500 0.0000 0.0000 0.0000
# 3 37.6500 37.6500 113.1012 0.0000 0.0000 0.0000
# 4 0.0000 0.0000 0.0000 16.9018 0.0000 0.0000
# 5 0.0000 0.0000 0.0000 0.0000 16.9018 0.0000
# 6 0.0000 0.0000 0.0000 0.0000 0.0000 11.7532
#
#
#
# Elastic Compliance Matrix: (Units=1/GPa)
#
#
# Indices 1 2 3 4 5 6 
#
# 1 0.238692 -0.220296 -0.006124 0.000000 0.000000 0.000000
# 2 -0.220296 0.238689 -0.006123 0.000000 0.000000 0.000000
# 3 -0.006124 -0.006123 0.012918 0.000000 0.000000 0.000000
# 4 0.000000 0.000000 0.000000 0.059165 0.000000 0.000000
# 5 0.000000 0.000000 0.000000 0.000000 0.059165 0.000000
# 6 0.000000 0.000000 0.000000 0.000000 0.000000 0.085083
#
#
# Mechanical properties :
#
#
# Convention : Reuss Voigt Hill
#
# Bulk Modulus (GPa) = 39.65990 46.95120 43.30555
# Shear Modulus (GPa) = 4.28374 14.49697 9.39036
#
# Velocity S-wave (km/s) = 1.77176 3.25936 2.62322
# Velocity P-wave (km/s) = 5.76615 6.96926 6.39606
#
# Compressibility (1/GPa) = 0.02521438
#
# Stress axis : x y z
#
# Youngs Moduli (GPa) = 4.18949 4.18955 77.40873
#
# Poissons Ratio (x) = 0.92294 0.47404
# Poissons Ratio (y) = 0.92293 0.47396
# Poissons Ratio (z) = 0.02566 0.02565
#
# Static dielectric constant tensor:
#      x y z
#    x 2.470560 0.000000 0.000000 
#    y 0.000000 2.470560 0.000000 
#    z 0.000000 0.000000 3.030220 
# 
# 
# High freq. dielectric constant tensor:
#      x y z
#    x 1.481490 0.000000 0.000000 
#    y 0.000000 1.481490 0.000000 
#    z 0.000000 0.000000 1.535830 
# 
# From -- ./inp_files/3707.got.cif
#   From: 2010.03.12/outbox.cif.g09.slc.cpg/sg127_2_cif.got.tgz:3707.got - 2010.04.06 17:03:15.
