data_PCOD8313449
_publ_section_title
;
Structure prediction by ZEFSAII (Michael W. Deem and Ramdas Pophale) SiO2 
 PCOD8313449
Probable space group: P 4/N B M
;
_chemical_formula_sum "Si O2"
_cell_formula_units_Z 96
_cell_length_a 14.432706
_cell_length_b 14.432706
_cell_length_c 22.925270
_cell_angle_alpha 90.000000
_cell_angle_beta 90.000000
_cell_angle_gamma 90.000000
_cell_volume 4775.402574
_symmetry_space_group_name_H-M "P 4/N B M"
_symmetry_group_IT_number 125
_space_group.IT_coordinate_system_code '2'
_symmetry_cell_setting 'tetragonal'
loop_
_space_group_symop_operation_xyz
x,y,z
1/2-y,x,z
1/2-x,1/2-y,z
y,1/2-x,z
x,1/2-y,-z
1/2-x,y,-z
y,x,-z
1/2-y,1/2-x,-z
-x,-y,-z
1/2+y,-x,-z
1/2+x,1/2+y,-z
-y,1/2+x,-z
-x,1/2+y,z
1/2+x,-y,z
-y,-x,z
1/2+y,1/2+x,z
loop_
_atom_site_type_symbol
_atom_site_label
_atom_site_fract_x
_atom_site_fract_y
_atom_site_fract_z
Si Si1 0.584225 0.929975 0.630868
Si Si2 0.729477 0.423345 0.349098
Si Si3 0.506872 0.851582 0.971854
Si Si4 0.996694 0.853904 0.259642
Si Si5 0.831808 0.474254 0.455782
Si Si6 0.303659 0.393885 0.142997
O O1 0.579513 0.869200 0.689626
O O2 0.571172 0.871204 0.570893
O O3 0.498567 0.998567 0.634895
O O4 0.680524 0.981997 0.630236
O O5 0.663100 0.336900 0.343431
O O6 0.777090 0.432704 0.285697
O O7 0.801645 0.409125 0.401204
O O8 0.530736 0.834508 0.904460
O O9 0.412857 0.912857 0.977624
O O10 0.491755 0.750000 0.000000
O O11 0.593969 0.906032 0.000000
O O12 0.053422 0.946579 0.242221
O O13 0.941769 0.815389 0.205006
O O14 0.750000 0.496679 0.500000
O O15 0.913260 0.413260 0.487424
O O16 0.196232 0.367760 0.135923
#
# Coordination Sequence:
#
# PCOD8313449 Si02
#       6
#    16  16  16  16  16  16
#     4   8  17  33  50  71 101 138 180 225 277 343
#     4  10  19  33  54  75 101 142 186 232 289 353
#     4  11  23  42  68  97 132 173 215 265 321 375
#     4  10  20  35  54  81 116 148 186 238 298 362
#     4  10  20  32  48  72 102 134 173 227 286 349
#     4  11  22  37  62  92 121 160 212 261 301 358
#
# _framework density 20.103016
#
# number of rings (size 3 to 8) (size 9 to 14) (size 15 to 20)
#    0.000    2.000    1.667    3.500    0.000    3.167 
#    0.000    4.167    0.000    6.500    0.000    4.667 
#    0.000    0.000    0.000    0.000    0.000    0.000 
#
# Total GULP energy -1189782.213368 kJ/mol
# GULP energy per Si atom -12393.564723 kJ/mol
# Density = 2.005726 g / cm^3
# Si number density = 20.103016 Si / 1000 Ang^3
#
#
#
# Elastic Constant Matrix: (Units=GPa)
#
#
# Indices 1 2 3 4 5 6 
#
# 1 89.9506 45.5307 30.1450 0.0000 0.0000 0.0000
# 2 45.5307 89.9512 30.1452 0.0000 0.0000 0.0000
# 3 30.1450 30.1452 106.8694 0.0000 0.0000 0.0000
# 4 0.0000 0.0000 0.0000 -14.4368 0.0000 0.0000
# 5 0.0000 0.0000 0.0000 0.0000 -14.4369 0.0000
# 6 0.0000 0.0000 0.0000 0.0000 0.0000 28.8316
#
#
#
# Elastic Compliance Matrix: (Units=1/GPa)
#
#
# Indices 1 2 3 4 5 6 
#
# 1 0.015476 -0.007036 -0.002381 0.000000 0.000000 0.000000
# 2 -0.007036 0.015476 -0.002381 0.000000 0.000000 0.000000
# 3 -0.002381 -0.002381 0.010700 0.000000 0.000000 0.000000
# 4 0.000000 0.000000 0.000000 -0.069267 0.000000 0.000000
# 5 0.000000 0.000000 0.000000 0.000000 -0.069267 0.000000
# 6 0.000000 0.000000 0.000000 0.000000 0.000000 0.034684
#
#
# Mechanical properties :
#
#
# Convention : Reuss Voigt Hill
#
# Bulk Modulus (GPa) = 55.37692 55.37921 55.37806
# Shear Modulus (GPa) = -153.45723 12.05493 -70.70115
#
# Velocity S-wave (km/s) = -8.74649 2.45145 -5.93682
# Velocity P-wave (km/s) = 8.62526 5.96828 4.40312
#
# Compressibility (1/GPa) = 0.01805806
#
# Stress axis : x y z
#
# Youngs Moduli (GPa) = 64.61415 64.61453 93.45465
#
# Poissons Ratio (x) = 0.45462 0.22250
# Poissons Ratio (y) = 0.45462 0.22250
# Poissons Ratio (z) = 0.15384 0.15384
#
# Static dielectric constant tensor:
#      x y z
#    x 3.723010 0.000000 0.000000 
#    y 0.000000 3.723000 0.000000 
#    z 0.000000 0.000000 3.579260 
# 
# 
# High freq. dielectric constant tensor:
#      x y z
#    x 1.783400 0.000000 0.000000 
#    y 0.000000 1.783400 0.000000 
#    z 0.000000 0.000000 1.782380 
# 
# From -- ./inp_files/5912.got.cif
#   From: 2010.03.12/outbox.cif.g09.slc.cpg/sg125_3_cif.got.tgz:5912.got - 2010.04.06 16:47:52.
