data_PCOD8313617
_publ_section_title
;
Structure prediction by ZEFSAII (Michael W. Deem and Ramdas Pophale) SiO2 
 PCOD8313617
Probable space group: P 4/N B M
;
_chemical_formula_sum "Si O2"
_cell_formula_units_Z 96
_cell_length_a 14.617001
_cell_length_b 14.617001
_cell_length_c 20.895419
_cell_angle_alpha 90.000000
_cell_angle_beta 90.000000
_cell_angle_gamma 90.000000
_cell_volume 4464.446650
_symmetry_space_group_name_H-M "P 4/N B M"
_symmetry_group_IT_number 125
_space_group.IT_coordinate_system_code '2'
_symmetry_cell_setting 'tetragonal'
loop_
_space_group_symop_operation_xyz
x,y,z
1/2-y,x,z
1/2-x,1/2-y,z
y,1/2-x,z
x,1/2-y,-z
1/2-x,y,-z
y,x,-z
1/2-y,1/2-x,-z
-x,-y,-z
1/2+y,-x,-z
1/2+x,1/2+y,-z
-y,1/2+x,-z
-x,1/2+y,z
1/2+x,-y,z
-y,-x,z
1/2+y,1/2+x,z
loop_
_atom_site_type_symbol
_atom_site_label
_atom_site_fract_x
_atom_site_fract_y
_atom_site_fract_z
Si Si1 0.326220 0.673781 0.383470
Si Si2 0.852746 0.996528 0.973542
Si Si3 0.066785 0.080263 0.362020
Si Si4 0.013328 0.257449 0.427584
Si Si5 0.002353 0.218106 0.831992
Si Si6 0.594822 0.554737 0.217223
Si Si7 0.824491 0.324491 0.240266
O O1 0.250000 0.750000 0.376815
O O2 0.287770 0.591018 0.424668
O O3 0.357990 0.642011 0.310830
O O4 0.837125 0.991180 0.898117
O O5 0.750000 0.005686 0.000000
O O6 0.905696 0.905696 0.000000
O O7 0.913625 0.086376 0.991059
O O8 0.045566 0.119792 0.291309
O O9 0.017184 0.154280 0.404518
O O10 0.172828 0.073427 0.383778
O O11 0.018668 0.981333 0.372041
O O12 0.049334 0.250000 0.500000
O O13 0.036316 0.322507 0.832473
O O14 0.066802 0.160319 0.785809
O O15 0.902249 0.221361 0.802295
O O16 0.511022 0.488979 0.196822
O O17 0.750000 0.250000 0.253908
#
# Coordination Sequence:
#
# PCOD8313617 Si02
#       7
#     8  16  16  16  16  16   8
#     4  11  24  40  63  96 132 169 224 291 347 399
#     4  11  25  46  69 100 145 188 233 286 344 410
#     4  11  24  44  66  96 133 174 222 283 349 409
#     4  12  26  41  66  92 131 178 228 276 338 418
#     4  12  23  42  69 101 133 177 230 279 339 414
#     4  11  23  41  69  98 135 174 223 284 351 408
#     4  11  22  40  65  96 134 169 222 289 351 407
#
# _framework density 21.503225
#
# number of rings (size 3 to 8) (size 9 to 14) (size 15 to 20)
#    0.000    0.667    2.500    5.500    2.333    7.000 
#    0.000    4.167    0.000    0.000    0.000    0.000 
#    0.000    0.000    0.000    0.000    0.000    0.000 
#
# Total GULP energy -1190040.499632 kJ/mol
# GULP energy per Si atom -12396.255204 kJ/mol
# Density = 2.145428 g / cm^3
# Si number density = 21.503225 Si / 1000 Ang^3
#
#
#
# Elastic Constant Matrix: (Units=GPa)
#
#
# Indices 1 2 3 4 5 6 
#
# 1 111.9254 37.2287 24.2563 0.0000 0.0000 0.0000
# 2 37.2287 111.9254 24.2563 0.0000 0.0000 0.0000
# 3 24.2563 24.2563 85.4993 0.0000 0.0000 0.0000
# 4 0.0000 0.0000 0.0000 37.5429 0.0000 0.0000
# 5 0.0000 0.0000 0.0000 0.0000 37.5429 0.0000
# 6 0.0000 0.0000 0.0000 0.0000 0.0000 28.9394
#
#
#
# Elastic Compliance Matrix: (Units=1/GPa)
#
#
# Indices 1 2 3 4 5 6 
#
# 1 0.010387 -0.003001 -0.002095 0.000000 0.000000 0.000000
# 2 -0.003001 0.010387 -0.002095 0.000000 0.000000 0.000000
# 3 -0.002095 -0.002095 0.012885 0.000000 0.000000 0.000000
# 4 0.000000 0.000000 0.000000 0.026636 0.000000 0.000000
# 5 0.000000 0.000000 0.000000 0.000000 0.026636 0.000000
# 6 0.000000 0.000000 0.000000 0.000000 0.000000 0.034555
#
#
# Mechanical properties :
#
#
# Convention : Reuss Voigt Hill
#
# Bulk Modulus (GPa) = 51.87991 53.42585 52.65288
# Shear Modulus (GPa) = 35.13850 35.71229 35.42540
#
# Velocity S-wave (km/s) = 4.04679 4.07970 4.06328
# Velocity P-wave (km/s) = 6.78338 6.86231 6.82296
#
# Compressibility (1/GPa) = 0.01927528
#
# Stress axis : x y z
#
# Youngs Moduli (GPa) = 96.27661 96.27661 77.60989
#
# Poissons Ratio (x) = 0.28890 0.16263
# Poissons Ratio (y) = 0.28890 0.16263
# Poissons Ratio (z) = 0.20174 0.20174
#
# Static dielectric constant tensor:
#      x y z
#    x 3.890990 0.000000 0.000000 
#    y 0.000000 3.890990 0.000000 
#    z 0.000000 0.000000 4.693340 
# 
# 
# High freq. dielectric constant tensor:
#      x y z
#    x 1.848020 0.000000 0.000000 
#    y 0.000000 1.848020 0.000000 
#    z 0.000000 0.000000 1.853270 
# 
# From -- ./inp_files/5986.got.cif
#   From: 2010.03.12/outbox.cif.g09.slc.cpg/sg125_3_cif.got.tgz:5986.got - 2010.04.06 16:47:52.
