data_PCOD8313353
_publ_section_title
;
Structure prediction by ZEFSAII (Michael W. Deem and Ramdas Pophale) SiO2 
 PCOD8313353
Probable space group: P 4/M C C
;
_chemical_formula_sum "Si O2"
_cell_formula_units_Z 88
_cell_length_a 14.912782
_cell_length_b 14.912782
_cell_length_c 25.281957
_cell_angle_alpha 90.000000
_cell_angle_beta 90.000000
_cell_angle_gamma 90.000000
_cell_volume 5622.481393
_symmetry_space_group_name_H-M "P 4/M C C"
_symmetry_group_IT_number 124
_symmetry_cell_setting 'tetragonal'
loop_
_space_group_symop_operation_xyz
x,y,z
-y,x,z
-x,-y,z
y,-x,z
x,-y,1/2-z
-x,y,1/2-z
y,x,1/2-z
-y,-x,1/2-z
-x,-y,-z
y,-x,-z
x,y,-z
-y,x,-z
-x,y,1/2+z
x,-y,1/2+z
-y,-x,1/2+z
y,x,1/2+z
loop_
_atom_site_type_symbol
_atom_site_label
_atom_site_fract_x
_atom_site_fract_y
_atom_site_fract_z
Si Si1 0.351758 0.507767 0.000000
Si Si2 0.495581 0.354210 0.810944
Si Si3 0.521915 0.779961 0.902129
Si Si4 0.068299 0.877146 0.937194
Si Si5 0.316691 0.104109 0.062965
Si Si6 0.416027 0.935877 0.057669
O O1 0.406701 0.416036 0.000000
O O2 0.292550 0.510445 0.052277
O O3 0.585068 0.409515 0.824385
O O4 0.500000 0.325170 0.750000
O O5 0.488366 0.264777 0.845195
O O6 0.619602 0.826238 0.906654
O O7 0.441523 0.852977 0.904705
O O8 0.119381 0.786398 0.918899
O O9 0.964941 0.879463 0.916223
O O10 0.063848 0.876892 0.000000
O O11 0.337210 0.000246 0.079436
O O12 0.331952 0.116718 0.000000
O O13 0.500000 0.000000 0.050401
O O14 0.389761 0.895993 0.000000
#
# Coordination Sequence:
#
# PCOD8313353 Si02
#       6
#     8  16  16  16  16  16
#     4  11  22  32  39  60 100 129 144 181 241 285
#     4   9  19  36  53  65  83 120 165 200 236 278
#     4  11  17  30  46  67  91 118 158 192 227 279
#     4   8  14  26  40  56  85 127 164 190 218 254
#     4   9  16  28  43  65  96 127 157 188 221 275
#     4   8  14  26  42  59  91 129 149 173 219 276
#
# _framework density 15.651452000000001
#
# number of rings (size 3 to 8) (size 9 to 14) (size 15 to 20)
#    0.000    2.818    1.818    3.273    0.000    1.455 
#    6.545    0.000    0.000    4.909    0.000    0.000 
#    0.000    0.000    0.000    0.000    0.000    0.000 
#
# Total GULP energy -1090397.790988 kJ/mol
# GULP energy per Si atom -12390.883989 kJ/mol
# Density = 1.561583 g / cm^3
# Si number density = 15.651452 Si / 1000 Ang^3
#
#
#
# Elastic Constant Matrix: (Units=GPa)
#
#
# Indices 1 2 3 4 5 6 
#
# 1 78.9962 24.5058 35.2885 0.0000 0.0000 0.0000
# 2 24.5058 78.9962 35.2885 0.0000 0.0000 0.0000
# 3 35.2885 35.2885 60.4510 0.0000 0.0000 0.0000
# 4 0.0000 0.0000 0.0000 -19.2680 0.0000 0.0000
# 5 0.0000 0.0000 0.0000 0.0000 -19.2680 0.0000
# 6 0.0000 0.0000 0.0000 0.0000 0.0000 16.7204
#
#
#
# Elastic Compliance Matrix: (Units=1/GPa)
#
#
# Indices 1 2 3 4 5 6 
#
# 1 0.017201 -0.001151 -0.009370 0.000000 0.000000 0.000000
# 2 -0.001151 0.017201 -0.009370 0.000000 0.000000 0.000000
# 3 -0.009370 -0.009370 0.027481 0.000000 0.000000 0.000000
# 4 0.000000 0.000000 0.000000 -0.051899 0.000000 0.000000
# 5 0.000000 0.000000 0.000000 0.000000 -0.051899 0.000000
# 6 0.000000 0.000000 0.000000 0.000000 0.000000 0.059807
#
#
# Mechanical properties :
#
#
# Convention : Reuss Voigt Hill
#
# Bulk Modulus (GPa) = 45.24013 45.40098 45.32055
# Shear Modulus (GPa) = 76.87558 3.86092 40.36825
#
# Velocity S-wave (km/s) = 7.01597 1.57231 5.08409
# Velocity P-wave (km/s) = 9.72622 5.68917 7.96762
#
# Compressibility (1/GPa) = 0.02210427
#
# Stress axis : x y z
#
# Youngs Moduli (GPa) = 58.13522 58.13522 36.38821
#
# Poissons Ratio (x) = 0.06689 0.34094
# Poissons Ratio (y) = 0.06689 0.34094
# Poissons Ratio (z) = 0.54471 0.54471
#
# Static dielectric constant tensor:
#      x y z
#    x 3.245410 0.000000 0.000000 
#    y 0.000000 3.245410 0.000000 
#    z 0.000000 0.000000 2.531030 
# 
# 
# High freq. dielectric constant tensor:
#      x y z
#    x 1.604330 0.000000 0.000000 
#    y 0.000000 1.604330 0.000000 
#    z 0.000000 0.000000 1.537070 
# 
# From -- ./inp_files/5986.got.cif
#   From: 2010.03.12/outbox.cif.g09.slc.cpg/sg124_3_cif.got.tgz:5986.got - 2010.04.06 16:38:57.
