data_PCOD8313164
_publ_section_title
;
Structure prediction by ZEFSAII (Michael W. Deem and Ramdas Pophale) SiO2 
 PCOD8313164
Probable space group: P 4/M C C
;
_chemical_formula_sum "Si O2"
_cell_formula_units_Z 88
_cell_length_a 15.586291
_cell_length_b 15.586291
_cell_length_c 20.486841
_cell_angle_alpha 90.000000
_cell_angle_beta 90.000000
_cell_angle_gamma 90.000000
_cell_volume 4976.918828
_symmetry_space_group_name_H-M "P 4/M C C"
_symmetry_group_IT_number 124
_symmetry_cell_setting 'tetragonal'
loop_
_space_group_symop_operation_xyz
x,y,z
-y,x,z
-x,-y,z
y,-x,z
x,-y,1/2-z
-x,y,1/2-z
y,x,1/2-z
-y,-x,1/2-z
-x,-y,-z
y,-x,-z
x,y,-z
-y,x,-z
-x,y,1/2+z
x,-y,1/2+z
-y,-x,1/2+z
y,x,1/2+z
loop_
_atom_site_type_symbol
_atom_site_label
_atom_site_fract_x
_atom_site_fract_y
_atom_site_fract_z
Si Si1 0.920826 0.558097 0.576023
Si Si2 0.328857 0.670569 0.378693
Si Si3 0.272673 0.727328 0.750000
Si Si4 0.122095 0.068597 0.925589
Si Si5 0.503975 0.733622 0.073142
Si Si6 0.149508 0.280830 0.638533
O O1 0.932133 0.583422 0.500000
O O2 0.834663 0.503945 0.589078
O O3 0.917990 0.644526 0.619864
O O4 0.000000 0.500000 0.599970
O O5 0.290776 0.655540 0.305695
O O6 0.432881 0.679720 0.379305
O O7 0.299130 0.592941 0.423077
O O8 0.293284 0.763170 0.404967
O O9 0.283600 0.821418 0.715488
O O10 0.189651 0.107655 0.875536
O O11 0.032245 0.114810 0.912103
O O12 0.151619 0.084474 0.000000
O O13 0.537439 0.717541 0.000000
#
# Coordination Sequence:
#
# PCOD8313164 Si02
#       6
#    16  16   8  16  16  16
#     4   9  18  32  53  83 114 141 179 230 282 332
#     4   9  20  35  53  77 106 146 177 228 267 325
#     4   8  20  38  54  74 100 154 190 218 254 328
#     4   9  18  32  54  84 111 137 175 227 285 338
#     4  10  19  33  55  82 111 138 177 225 282 332
#     4   9  18  36  54  75 108 152 184 227 270 327
#
# _framework density 17.681623999999999
#
# number of rings (size 3 to 8) (size 9 to 14) (size 15 to 20)
#    1.091    1.818    0.000    1.636    0.000    4.727 
#    0.000    5.455    0.000    3.273    0.000    0.000 
#    0.000    0.000    0.000    0.000    0.000    0.000 
#
# Total GULP energy -1090235.814806 kJ/mol
# GULP energy per Si atom -12389.043350 kJ/mol
# Density = 1.764138 g / cm^3
# Si number density = 17.681624 Si / 1000 Ang^3
#
#
#
# Elastic Constant Matrix: (Units=GPa)
#
#
# Indices 1 2 3 4 5 6 
#
# 1 100.6730 61.0877 39.9780 0.0000 0.0000 0.0000
# 2 61.0877 100.6733 39.9780 0.0000 0.0000 0.0000
# 3 39.9780 39.9780 75.7511 0.0000 0.0000 0.0000
# 4 0.0000 0.0000 0.0000 27.3432 0.0000 0.0000
# 5 0.0000 0.0000 0.0000 0.0000 27.3429 0.0000
# 6 0.0000 0.0000 0.0000 0.0000 0.0000 33.1002
#
#
#
# Elastic Compliance Matrix: (Units=1/GPa)
#
#
# Indices 1 2 3 4 5 6 
#
# 1 0.016813 -0.008449 -0.004414 0.000000 0.000000 0.000000
# 2 -0.008449 0.016813 -0.004414 0.000000 0.000000 0.000000
# 3 -0.004414 -0.004414 0.017860 0.000000 0.000000 0.000000
# 4 0.000000 0.000000 0.000000 0.036572 0.000000 0.000000
# 5 0.000000 0.000000 0.000000 0.000000 0.036573 0.000000
# 6 0.000000 0.000000 0.000000 0.000000 0.000000 0.030211
#
#
# Mechanical properties :
#
#
# Convention : Reuss Voigt Hill
#
# Bulk Modulus (GPa) = 59.06112 62.13167 60.59640
# Shear Modulus (GPa) = 25.63581 26.62751 26.13166
#
# Velocity S-wave (km/s) = 3.81183 3.88486 3.84852
# Velocity P-wave (km/s) = 7.26969 7.43897 7.35482
#
# Compressibility (1/GPa) = 0.01693161
#
# Stress axis : x y z
#
# Youngs Moduli (GPa) = 59.47849 59.47866 55.99058
#
# Poissons Ratio (x) = 0.50254 0.24714
# Poissons Ratio (y) = 0.50254 0.24714
# Poissons Ratio (z) = 0.26254 0.26254
#
# Static dielectric constant tensor:
#      x y z
#    x 3.129510 0.000000 0.000000 
#    y 0.000000 3.129510 0.000000 
#    z 0.000000 0.000000 3.034070 
# 
# 
# High freq. dielectric constant tensor:
#      x y z
#    x 1.677310 0.000000 0.000000 
#    y 0.000000 1.677310 0.000000 
#    z 0.000000 0.000000 1.658830 
# 
# From -- ./inp_files/6011.got.cif
#   From: 2010.03.12/outbox.cif.g09.slc.cpg/sg124_4_cif.got.tgz:6011.got - 2010.04.06 16:38:57.
