data_PCOD8313746
_publ_section_title
;
Structure prediction by ZEFSAII (Michael W. Deem and Ramdas Pophale) SiO2 
 PCOD8313746
Probable space group: P 4/N N C
;
_chemical_formula_sum "Si O2"
_cell_formula_units_Z 88
_cell_length_a 11.870834
_cell_length_b 11.870834
_cell_length_c 31.662080
_cell_angle_alpha 90.000000
_cell_angle_beta 90.000000
_cell_angle_gamma 90.000000
_cell_volume 4461.715824
_symmetry_space_group_name_H-M "P 4/N N C"
_symmetry_group_IT_number 126
_space_group.IT_coordinate_system_code '2'
_symmetry_cell_setting 'tetragonal'
loop_
_space_group_symop_operation_xyz
x,y,z
1/2-y,x,z
1/2-x,1/2-y,z
y,1/2-x,z
x,1/2-y,1/2-z
1/2-x,y,1/2-z
y,x,1/2-z
1/2-y,1/2-x,1/2-z
-x,-y,-z
1/2+y,-x,-z
1/2+x,1/2+y,-z
-y,1/2+x,-z
-x,1/2+y,1/2+z
1/2+x,-y,1/2+z
-y,-x,1/2+z
1/2+y,1/2+x,1/2+z
loop_
_atom_site_type_symbol
_atom_site_label
_atom_site_fract_x
_atom_site_fract_y
_atom_site_fract_z
Si Si1 0.832695 0.030083 0.834997
Si Si2 0.765757 0.375596 0.115135
Si Si3 0.810809 0.925804 0.444077
Si Si4 0.483638 0.611218 0.878004
Si Si5 0.062796 0.250000 0.250000
Si Si6 0.338280 0.411599 0.461170
O O1 0.863038 0.161125 0.842098
O O2 0.742537 0.991991 0.869929
O O3 0.771013 0.016995 0.790038
O O4 0.943386 0.956801 0.843774
O O5 0.750000 0.250000 0.094005
O O6 0.832496 0.463620 0.084696
O O7 0.645512 0.424537 0.129479
O O8 0.681451 0.890236 0.434938
O O9 0.844863 0.961795 0.491565
O O10 0.507691 0.597090 0.928027
O O11 0.139499 0.139499 0.250000
O O12 0.206122 0.399217 0.453772
#
# Coordination Sequence:
#
# PCOD8313746 Si02
#       6
#    16  16  16  16   8  16
#     4  11  22  38  62  88 119 152 190 240 300 362
#     4  10  23  39  51  81 123 166 194 228 297 366
#     4   9  18  37  61  83 109 153 218 266 283 324
#     4  11  20  36  58  85 120 160 194 243 299 355
#     4  11  22  38  67  98 116 133 184 249 298 354
#     4   9  17  31  56  85 110 148 205 261 301 332
#
# _framework density 19.723352999999999
#
# number of rings (size 3 to 8) (size 9 to 14) (size 15 to 20)
#    0.000    1.909    3.636    2.182    0.000    0.364 
#    6.545    6.818    0.000    0.000    0.000    0.000 
#    0.000    0.000    3.273    0.000    0.000    0.000 
#
# Total GULP energy -1090150.991257 kJ/mol
# GULP energy per Si atom -12388.079446 kJ/mol
# Density = 1.967846 g / cm^3
# Si number density = 19.723353 Si / 1000 Ang^3
#
#
#
# Elastic Constant Matrix: (Units=GPa)
#
#
# Indices 1 2 3 4 5 6 
#
# 1 82.3406 18.7741 46.8012 0.0000 0.0000 0.0000
# 2 18.7741 82.3406 46.8012 0.0000 0.0000 0.0000
# 3 46.8012 46.8012 129.9013 0.0000 0.0000 0.0000
# 4 0.0000 0.0000 0.0000 28.2921 0.0000 0.0000
# 5 0.0000 0.0000 0.0000 0.0000 28.2921 0.0000
# 6 0.0000 0.0000 0.0000 0.0000 0.0000 16.1664
#
#
#
# Elastic Compliance Matrix: (Units=1/GPa)
#
#
# Indices 1 2 3 4 5 6 
#
# 1 0.015285 -0.000446 -0.005346 0.000000 0.000000 0.000000
# 2 -0.000446 0.015285 -0.005346 0.000000 0.000000 0.000000
# 3 -0.005346 -0.005346 0.011550 0.000000 0.000000 0.000000
# 4 0.000000 0.000000 0.000000 0.035346 0.000000 0.000000
# 5 0.000000 0.000000 0.000000 0.000000 0.035346 0.000000
# 6 0.000000 0.000000 0.000000 0.000000 0.000000 0.061857
#
#
# Mechanical properties :
#
#
# Convention : Reuss Voigt Hill
#
# Bulk Modulus (GPa) = 50.39490 57.70395 54.04942
# Shear Modulus (GPa) = 24.56274 26.69718 25.62996
#
# Velocity S-wave (km/s) = 3.53280 3.68310 3.60873
# Velocity P-wave (km/s) = 6.49979 6.88528 6.69531
#
# Compressibility (1/GPa) = 0.01984328
#
# Stress axis : x y z
#
# Youngs Moduli (GPa) = 65.42302 65.42302 86.57708
#
# Poissons Ratio (x) = 0.02921 0.46285
# Poissons Ratio (y) = 0.02921 0.46285
# Poissons Ratio (z) = 0.34976 0.34976
#
# Static dielectric constant tensor:
#      x y z
#    x 3.574290 0.000000 0.000000 
#    y 0.000000 3.574290 0.000000 
#    z 0.000000 0.000000 3.418700 
# 
# 
# High freq. dielectric constant tensor:
#      x y z
#    x 1.768980 0.000000 0.000000 
#    y 0.000000 1.768980 0.000000 
#    z 0.000000 0.000000 1.740650 
# 
# From -- ./inp_files/6509.got.cif
#   From: 2010.03.12/outbox.cif.g09.slc.cpg/sg126_4_cif.got.tgz:6509.got - 2010.04.06 16:55:23.
