data_PCOD8313940
_publ_section_title
;
Structure prediction by ZEFSAII (Michael W. Deem and Ramdas Pophale) SiO2 
 PCOD8313940
Probable space group: P 4/M B M
;
_chemical_formula_sum "Si O2"
_cell_formula_units_Z 112
_cell_length_a 15.851249
_cell_length_b 15.851249
_cell_length_c 25.222362
_cell_angle_alpha 90.000000
_cell_angle_beta 90.000000
_cell_angle_gamma 90.000000
_cell_volume 6337.423513
_symmetry_space_group_name_H-M "P 4/M B M"
_symmetry_group_IT_number 127
_symmetry_cell_setting 'tetragonal'
loop_
_space_group_symop_operation_xyz
x,y,z
-y,x,z
-x,-y,z
y,-x,z
1/2+x,1/2-y,-z
1/2-x,1/2+y,-z
1/2+y,1/2+x,-z
1/2-y,1/2-x,-z
-x,-y,-z
y,-x,-z
x,y,-z
-y,x,-z
1/2-x,1/2+y,z
1/2+x,1/2-y,z
1/2-y,1/2-x,z
1/2+y,1/2+x,z
loop_
_atom_site_type_symbol
_atom_site_label
_atom_site_fract_x
_atom_site_fract_y
_atom_site_fract_z
Si Si1 0.504303 0.133061 0.317981
Si Si2 0.577480 0.613923 0.439479
Si Si3 0.320890 0.680313 0.242692
Si Si4 0.943000 0.124390 0.061666
Si Si5 0.098034 0.738901 0.855052
Si Si6 0.737541 0.380153 0.649692
Si Si7 0.689352 0.053567 0.792556
O O1 0.599456 0.099456 0.334025
O O2 0.472693 0.217006 0.348122
O O3 0.500489 0.147609 0.254913
O O4 0.440178 0.059823 0.332363
O O5 0.478035 0.614942 0.427848
O O6 0.595245 0.640134 0.500000
O O7 0.624542 0.680536 0.402294
O O8 0.254043 0.754043 0.248226
O O9 0.295971 0.617237 0.195991
O O10 0.322069 0.630437 0.298537
O O11 0.411461 0.720766 0.228923
O O12 0.905343 0.203053 0.093276
O O13 0.040855 0.109940 0.076262
O O14 0.933359 0.145403 0.000000
O O15 0.167451 0.667451 0.865369
O O16 0.006628 0.698405 0.843559
O O17 0.806792 0.306792 0.646905
O O18 0.630488 0.130488 0.811538
#
# Coordination Sequence:
#
# PCOD8313940 Si02
#       7
#    16  16  16  16  16  16  16
#     4   9  17  30  48  71 101 136 169 199 243 309
#     4   9  20  38  55  71  96 133 173 213 262 317
#     4   9  19  31  44  72 107 135 163 207 257 296
#     4   9  19  37  58  77  99 133 177 220 264 314
#     4  11  20  32  51  76 108 137 171 214 257 309
#     4  10  19  32  52  78 105 132 171 219 260 305
#     4  10  19  31  48  70 103 142 172 201 247 304
#
# _framework density 17.672796999999999
#
# number of rings (size 3 to 8) (size 9 to 14) (size 15 to 20)
#    0.000    2.429    1.429    2.143    2.000    1.429 
#    0.000    0.000    0.000    4.286    0.000    3.000 
#    0.000    0.000    0.000    0.000    0.000    0.000 
#
# Total GULP energy -1388361.878982 kJ/mol
# GULP energy per Si atom -12396.088205 kJ/mol
# Density = 1.763257 g / cm^3
# Si number density = 17.672797 Si / 1000 Ang^3
#
#
#
# Elastic Constant Matrix: (Units=GPa)
#
#
# Indices 1 2 3 4 5 6 
#
# 1 77.9402 37.2505 49.1453 0.0000 0.0000 0.0000
# 2 37.2505 77.9402 49.1453 0.0000 0.0000 0.0000
# 3 49.1453 49.1453 95.7407 0.0000 0.0000 0.0000
# 4 0.0000 0.0000 0.0000 29.8860 0.0000 0.0000
# 5 0.0000 0.0000 0.0000 0.0000 29.8860 0.0000
# 6 0.0000 0.0000 0.0000 0.0000 0.0000 21.4218
#
#
#
# Elastic Compliance Matrix: (Units=1/GPa)
#
#
# Indices 1 2 3 4 5 6 
#
# 1 0.020012 -0.004565 -0.007929 0.000000 0.000000 0.000000
# 2 -0.004565 0.020012 -0.007929 0.000000 0.000000 0.000000
# 3 -0.007929 -0.007929 0.018585 0.000000 0.000000 0.000000
# 4 0.000000 0.000000 0.000000 0.033460 0.000000 0.000000
# 5 0.000000 0.000000 0.000000 0.000000 0.033460 0.000000
# 6 0.000000 0.000000 0.000000 0.000000 0.000000 0.046681
#
#
# Mechanical properties :
#
#
# Convention : Reuss Voigt Hill
#
# Bulk Modulus (GPa) = 56.29816 58.07812 57.18814
# Shear Modulus (GPa) = 22.83332 23.97745 23.40538
#
# Velocity S-wave (km/s) = 3.59834 3.68740 3.64314
# Velocity P-wave (km/s) = 7.01349 7.14587 7.07999
#
# Compressibility (1/GPa) = 0.01776257
#
# Stress axis : x y z
#
# Youngs Moduli (GPa) = 49.97067 49.97067 53.80573
#
# Poissons Ratio (x) = 0.22809 0.42664
# Poissons Ratio (y) = 0.22809 0.42664
# Poissons Ratio (z) = 0.39623 0.39623
#
# Static dielectric constant tensor:
#      x y z
#    x 3.310800 0.000000 0.000000 
#    y 0.000000 3.310800 0.000000 
#    z 0.000000 0.000000 3.033870 
# 
# 
# High freq. dielectric constant tensor:
#      x y z
#    x 1.680890 0.000000 0.000000 
#    y 0.000000 1.680890 0.000000 
#    z 0.000000 0.000000 1.659370 
# 
# From -- ./inp_files/6163.got.cif
#   From: 2010.03.12/outbox.cif.g09.slc.cpg/sg127_4_cif.got.tgz:6163.got - 2010.04.06 17:03:15.
