data_PCOD8313901
_publ_section_title
;
Structure prediction by ZEFSAII (Michael W. Deem and Ramdas Pophale) SiO2 
 PCOD8313901
Probable space group: P 4/M B M
;
_chemical_formula_sum "Si O2"
_cell_formula_units_Z 80
_cell_length_a 20.007567
_cell_length_b 20.007567
_cell_length_c 13.572908
_cell_angle_alpha 90.000000
_cell_angle_beta 90.000000
_cell_angle_gamma 90.000000
_cell_volume 5433.272225
_symmetry_space_group_name_H-M "P 4/M B M"
_symmetry_group_IT_number 127
_symmetry_cell_setting 'tetragonal'
loop_
_space_group_symop_operation_xyz
x,y,z
-y,x,z
-x,-y,z
y,-x,z
1/2+x,1/2-y,-z
1/2-x,1/2+y,-z
1/2+y,1/2+x,-z
1/2-y,1/2-x,-z
-x,-y,-z
y,-x,-z
x,y,-z
-y,x,-z
1/2-x,1/2+y,z
1/2+x,1/2-y,z
1/2-y,1/2-x,z
1/2+y,1/2+x,z
loop_
_atom_site_type_symbol
_atom_site_label
_atom_site_fract_x
_atom_site_fract_y
_atom_site_fract_z
Si Si1 0.326996 0.575209 0.385665
Si Si2 0.173171 0.933568 0.301384
Si Si3 0.530671 0.394295 0.889190
Si Si4 0.676995 0.927464 0.616175
Si Si5 0.185865 0.422942 0.384121
O O1 0.335026 0.592412 0.500000
O O2 0.343661 0.497273 0.369513
O O3 0.375802 0.620865 0.323652
O O4 0.251699 0.589740 0.347252
O O5 0.165472 0.952994 0.186426
O O6 0.247499 0.906667 0.322483
O O7 0.581085 0.455429 0.871284
O O8 0.538755 0.366316 0.000000
O O9 0.674786 0.919333 0.500000
O O10 0.623342 0.876658 0.665221
O O11 0.658440 0.003626 0.644385
O O12 0.203173 0.419069 0.500000
O O13 0.130069 0.369932 0.353191
#
# Coordination Sequence:
#
# PCOD8313901 Si02
#       5
#    16  16  16  16  16
#     4  10  19  27  38  60  90 123 152 178 209 252
#     4  11  18  29  43  61  89 120 149 184 215 262
#     4   9  17  30  46  65  86 112 151 192 225 258
#     4   8  15  28  43  59  81 112 152 188 211 243
#     4   9  18  30  43  63  91 119 147 181 223 269
#
# _framework density 14.724092000000001
#
# number of rings (size 3 to 8) (size 9 to 14) (size 15 to 20)
#    0.000    2.600    2.000    3.600    0.000    1.600 
#    0.000    5.000    0.000    0.600    0.000    0.000 
#    0.000   12.800    0.000    7.200    0.000    0.800 
#
# Total GULP energy -991765.594395 kJ/mol
# GULP energy per Si atom -12397.069930 kJ/mol
# Density = 1.469058 g / cm^3
# Si number density = 14.724092 Si / 1000 Ang^3
#
#
#
# Elastic Constant Matrix: (Units=GPa)
#
#
# Indices 1 2 3 4 5 6 
#
# 1 81.9636 55.7757 18.3621 0.0000 0.0000 0.0000
# 2 55.7757 81.9636 18.3621 0.0000 0.0000 0.0000
# 3 18.3621 18.3621 55.8341 0.0000 0.0000 0.0000
# 4 0.0000 0.0000 0.0000 12.3781 0.0000 0.0000
# 5 0.0000 0.0000 0.0000 0.0000 12.3781 0.0000
# 6 0.0000 0.0000 0.0000 0.0000 0.0000 28.3318
#
#
#
# Elastic Compliance Matrix: (Units=1/GPa)
#
#
# Indices 1 2 3 4 5 6 
#
# 1 0.023072 -0.015114 -0.002617 0.000000 0.000000 0.000000
# 2 -0.015114 0.023072 -0.002617 0.000000 0.000000 0.000000
# 3 -0.002617 -0.002617 0.019632 0.000000 0.000000 0.000000
# 4 0.000000 0.000000 0.000000 0.080788 0.000000 0.000000
# 5 0.000000 0.000000 0.000000 0.000000 0.080788 0.000000
# 6 0.000000 0.000000 0.000000 0.000000 0.000000 0.035296
#
#
# Mechanical properties :
#
#
# Convention : Reuss Voigt Hill
#
# Bulk Modulus (GPa) = 39.87414 44.97346 42.42380
# Shear Modulus (GPa) = 16.04096 19.10171 17.57134
#
# Velocity S-wave (km/s) = 3.30424 3.60573 3.45827
# Velocity P-wave (km/s) = 6.45732 6.92427 6.69487
#
# Compressibility (1/GPa) = 0.02507891
#
# Stress axis : x y z
#
# Youngs Moduli (GPa) = 43.34322 43.34322 50.93843
#
# Poissons Ratio (x) = 0.65508 0.13331
# Poissons Ratio (y) = 0.65508 0.13331
# Poissons Ratio (z) = 0.11343 0.11343
#
# Static dielectric constant tensor:
#      x y z
#    x 2.931650 0.000000 0.000000 
#    y 0.000000 2.931650 0.000000 
#    z 0.000000 0.000000 2.612840 
# 
# 
# High freq. dielectric constant tensor:
#      x y z
#    x 1.559120 0.000000 0.000000 
#    y 0.000000 1.559120 0.000000 
#    z 0.000000 0.000000 1.525910 
# 
# From -- ./inp_files/4231.got.cif
#   From: 2010.03.12/outbox.cif.g09.slc.cpg/sg127_3_cif.got.tgz:4231.got - 2010.04.06 17:03:15.
