data_PCOD8313582
_publ_section_title
;
Structure prediction by ZEFSAII (Michael W. Deem and Ramdas Pophale) SiO2 
 PCOD8313582
Probable space group: P 4/N B M
;
_chemical_formula_sum "Si O2"
_cell_formula_units_Z 112
_cell_length_a 14.322459
_cell_length_b 14.322459
_cell_length_c 28.240090
_cell_angle_alpha 90.000000
_cell_angle_beta 90.000000
_cell_angle_gamma 90.000000
_cell_volume 5792.969632
_symmetry_space_group_name_H-M "P 4/N B M"
_symmetry_group_IT_number 125
_space_group.IT_coordinate_system_code '2'
_symmetry_cell_setting 'tetragonal'
loop_
_space_group_symop_operation_xyz
x,y,z
1/2-y,x,z
1/2-x,1/2-y,z
y,1/2-x,z
x,1/2-y,-z
1/2-x,y,-z
y,x,-z
1/2-y,1/2-x,-z
-x,-y,-z
1/2+y,-x,-z
1/2+x,1/2+y,-z
-y,1/2+x,-z
-x,1/2+y,z
1/2+x,-y,z
-y,-x,z
1/2+y,1/2+x,z
loop_
_atom_site_type_symbol
_atom_site_label
_atom_site_fract_x
_atom_site_fract_y
_atom_site_fract_z
Si Si1 0.689257 0.608986 0.114747
Si Si2 0.352084 0.006737 0.022711
Si Si3 0.841997 0.008106 0.633885
Si Si4 0.631218 0.521093 0.212249
Si Si5 0.742904 0.903400 0.446898
Si Si6 0.897746 0.251464 0.276528
Si Si7 0.863057 0.645501 0.703854
O O1 0.798113 0.629100 0.106657
O O2 0.658423 0.528788 0.078278
O O3 0.671843 0.573340 0.167296
O O4 0.412090 0.912090 0.015934
O O5 0.250000 0.992399 0.000000
O O6 0.404595 0.095406 0.000000
O O7 0.772091 0.987066 0.590227
O O8 0.890600 0.914392 0.655993
O O9 0.781768 0.049564 0.676428
O O10 0.921559 0.078441 0.615637
O O11 0.547118 0.452883 0.197603
O O12 0.718003 0.465973 0.235100
O O13 0.591489 0.597256 0.249845
O O14 0.654038 0.836832 0.438455
O O15 0.750000 0.944561 0.500000
O O16 0.833921 0.166080 0.293159
O O17 0.836432 0.336432 0.255560
O O18 0.880161 0.755552 0.704067
#
# Coordination Sequence:
#
# PCOD8313582 Si02
#       7
#    16  16  16  16  16  16  16
#     4  11  23  40  63  92 128 168 209 258 319 383
#     4  11  23  43  71 101 131 169 219 272 326 389
#     4  11  21  35  56  85 112 143 194 245 288 342
#     4  11  22  38  57  85 122 158 204 254 304 363
#     4   9  19  38  59  78 107 146 184 225 288 358
#     4   9  20  39  58  77 111 159 199 234 285 354
#     4  11  21  35  53  79 116 154 193 238 298 358
#
# _framework density 19.333779
#
# number of rings (size 3 to 8) (size 9 to 14) (size 15 to 20)
#    0.000    1.571    2.857    3.000    0.000    2.571 
#    0.000    3.571    0.000    1.714    0.000    0.000 
#    0.000    0.000    0.000    0.000    0.000    0.000 
#
# Total GULP energy -1388379.220005 kJ/mol
# GULP energy per Si atom -12396.243036 kJ/mol
# Density = 1.928977 g / cm^3
# Si number density = 19.333779 Si / 1000 Ang^3
#
#
#
# Elastic Constant Matrix: (Units=GPa)
#
#
# Indices 1 2 3 4 5 6 
#
# 1 95.8718 39.7659 36.7251 0.0000 0.0000 0.0000
# 2 39.7659 95.8713 36.7248 0.0000 0.0000 0.0000
# 3 36.7251 36.7248 117.2870 0.0000 0.0000 0.0000
# 4 0.0000 0.0000 0.0000 16.8715 0.0000 0.0000
# 5 0.0000 0.0000 0.0000 0.0000 16.8714 0.0000
# 6 0.0000 0.0000 0.0000 0.0000 0.0000 6.7683
#
#
#
# Elastic Compliance Matrix: (Units=1/GPa)
#
#
# Indices 1 2 3 4 5 6 
#
# 1 0.013351 -0.004473 -0.002780 0.000000 0.000000 0.000000
# 2 -0.004473 0.013351 -0.002780 0.000000 0.000000 0.000000
# 3 -0.002780 -0.002780 0.010267 0.000000 0.000000 0.000000
# 4 0.000000 0.000000 0.000000 0.059271 0.000000 0.000000
# 5 0.000000 0.000000 0.000000 0.000000 0.059272 0.000000
# 6 0.000000 0.000000 0.000000 0.000000 0.000000 0.147748
#
#
# Mechanical properties :
#
#
# Convention : Reuss Voigt Hill
#
# Bulk Modulus (GPa) = 59.15974 59.49572 59.32773
# Shear Modulus (GPa) = 15.19945 21.15654 18.17799
#
# Velocity S-wave (km/s) = 2.80690 3.31158 3.06963
# Velocity P-wave (km/s) = 6.41642 6.74254 6.58150
#
# Compressibility (1/GPa) = 0.01690339
#
# Stress axis : x y z
#
# Youngs Moduli (GPa) = 74.90243 74.90216 97.39985
#
# Poissons Ratio (x) = 0.33502 0.27076
# Poissons Ratio (y) = 0.33502 0.27076
# Poissons Ratio (z) = 0.20822 0.20822
#
# Static dielectric constant tensor:
#      x y z
#    x 3.627460 0.000000 0.000000 
#    y 0.000000 3.627460 0.000000 
#    z 0.000000 0.000000 3.524090 
# 
# 
# High freq. dielectric constant tensor:
#      x y z
#    x 1.752120 0.000000 0.000000 
#    y 0.000000 1.752120 0.000000 
#    z 0.000000 0.000000 1.749230 
# 
# From -- ./inp_files/6233.got.cif
#   From: 2010.03.12/outbox.cif.g09.slc.cpg/sg125_4_cif.got.tgz:6233.got - 2010.04.06 16:47:52.
