data_PCOD8313061
_publ_section_title
;
Structure prediction by ZEFSAII (Michael W. Deem and Ramdas Pophale) SiO2 
 PCOD8313061
Probable space group: P 4/M C C
;
_chemical_formula_sum "Si O2"
_cell_formula_units_Z 96
_cell_length_a 27.783196
_cell_length_b 27.783196
_cell_length_c 8.681608
_cell_angle_alpha 90.000000
_cell_angle_beta 90.000000
_cell_angle_gamma 90.000000
_cell_volume 6701.385131
_symmetry_space_group_name_H-M "P 4/M C C"
_symmetry_group_IT_number 124
_symmetry_cell_setting 'tetragonal'
loop_
_space_group_symop_operation_xyz
x,y,z
-y,x,z
-x,-y,z
y,-x,z
x,-y,1/2-z
-x,y,1/2-z
y,x,1/2-z
-y,-x,1/2-z
-x,-y,-z
y,-x,-z
x,y,-z
-y,x,-z
-x,y,1/2+z
x,-y,1/2+z
-y,-x,1/2+z
y,x,1/2+z
loop_
_atom_site_type_symbol
_atom_site_label
_atom_site_fract_x
_atom_site_fract_y
_atom_site_fract_z
Si Si1 0.197129 0.121374 0.316166
Si Si2 0.398746 0.673753 0.324862
Si Si3 0.257303 0.667311 0.317639
Si Si4 0.734762 0.189299 0.316814
Si Si5 0.947684 0.872145 0.684062
Si Si6 0.643772 0.500000 0.750000
Si Si7 0.477251 0.575826 0.000000
O O1 0.160218 0.160218 0.250000
O O2 0.196166 0.120044 0.500000
O O3 0.250073 0.137126 0.253800
O O4 0.180184 0.070133 0.246736
O O5 0.373360 0.626641 0.250000
O O6 0.380256 0.676246 0.500000
O O7 0.385037 0.723472 0.235241
O O8 0.457411 0.674054 0.328713
O O9 0.297422 0.702579 0.250000
O O10 0.252745 0.671046 0.500000
O O11 0.205499 0.681593 0.241883
O O12 0.771188 0.228813 0.250000
O O13 0.737173 0.187546 0.500000
O O14 0.913635 0.913635 0.750000
O O15 0.947409 0.872955 0.500000
O O16 0.000000 0.882405 0.750000
O O17 0.609308 0.468052 0.643808
O O18 0.440589 0.532534 0.000000
#
# Coordination Sequence:
#
# PCOD8313061 Si02
#       7
#    16  16  16  16  16   8   8
#     4  10  17  27  42  61  82 105 132 165 205 247
#     4  11  22  34  47  59  75  95 120 151 190 236
#     4  10  18  28  43  60  79  98 119 146 182 229
#     4  10  16  25  40  60  83 103 124 150 187 233
#     4  11  21  34  47  62  81 108 144 185 229 267
#     4  12  24  33  48  60  74  94 120 154 197 242
#     4  11  22  36  48  60  72  88 116 156 200 242
#
# _framework density 14.325396
#
# number of rings (size 3 to 8) (size 9 to 14) (size 15 to 20)
#    0.000    1.417    0.833   12.000    2.333    0.833 
#    0.000    0.833    0.000    0.000    0.000    0.000 
#    0.000    0.000    0.000    0.000    0.000    0.000 
#
# Total GULP energy -1189385.692448 kJ/mol
# GULP energy per Si atom -12389.434296 kJ/mol
# Density = 1.429279 g / cm^3
# Si number density = 14.325396 Si / 1000 Ang^3
#
#
#
# Elastic Constant Matrix: (Units=GPa)
#
#
# Indices 1 2 3 4 5 6 
#
# 1 49.5968 45.2591 27.5984 0.0000 0.0000 0.0000
# 2 45.2591 49.5984 27.5973 0.0000 0.0000 0.0000
# 3 27.5984 27.5973 143.1278 0.0000 0.0000 0.0000
# 4 0.0000 0.0000 0.0000 19.8609 0.0000 0.0000
# 5 0.0000 0.0000 0.0000 0.0000 19.8606 0.0000
# 6 0.0000 0.0000 0.0000 0.0000 0.0000 -51.2134
#
#
#
# Elastic Compliance Matrix: (Units=1/GPa)
#
#
# Indices 1 2 3 4 5 6 
#
# 1 0.121186 -0.109309 -0.002291 0.000000 0.000000 0.000000
# 2 -0.109309 0.121181 -0.002288 0.000000 0.000000 0.000000
# 3 -0.002291 -0.002288 0.007870 0.000000 0.000000 0.000000
# 4 0.000000 0.000000 0.000000 0.050350 0.000000 0.000000
# 5 0.000000 0.000000 0.000000 0.000000 0.050351 0.000000
# 6 0.000000 0.000000 0.000000 0.000000 0.000000 -0.019526
#
#
# Mechanical properties :
#
#
# Convention : Reuss Voigt Hill
#
# Bulk Modulus (GPa) = 44.52315 49.24806 46.88561
# Shear Modulus (GPa) = 8.82340 7.15952 7.99146
#
# Velocity S-wave (km/s) = 2.48448 2.23800 2.36445
# Velocity P-wave (km/s) = 6.27515 6.41334 6.34462
#
# Compressibility (1/GPa) = 0.02246022
#
# Stress axis : x y z
#
# Youngs Moduli (GPa) = 8.25176 8.25213 127.06906
#
# Poissons Ratio (x) = 0.90203 0.29113
# Poissons Ratio (y) = 0.90199 0.29076
# Poissons Ratio (z) = 0.01891 0.01888
#
# Static dielectric constant tensor:
#      x y z
#    x 3.176290 0.000000 0.000000 
#    y 0.000000 3.176280 0.000000 
#    z 0.000000 0.000000 3.238820 
# 
# 
# High freq. dielectric constant tensor:
#      x y z
#    x 1.510300 0.000000 0.000000 
#    y 0.000000 1.510300 0.000000 
#    z 0.000000 0.000000 1.577440 
# 
# From -- ./inp_files/1717.got.cif
#   From: 2010.03.12/outbox.cif.g09.slc.cpg/sg124_1_cif.got.tgz:1717.got - 2010.04.06 16:38:57.
