data_PCOD8313190
_publ_section_title
;
Structure prediction by ZEFSAII (Michael W. Deem and Ramdas Pophale) SiO2 
 PCOD8313190
Probable space group: P 4/M C C
;
_chemical_formula_sum "Si O2"
_cell_formula_units_Z 120
_cell_length_a 19.537386
_cell_length_b 19.537386
_cell_length_c 15.005758
_cell_angle_alpha 90.000000
_cell_angle_beta 90.000000
_cell_angle_gamma 90.000000
_cell_volume 5727.839659
_symmetry_space_group_name_H-M "P 4/M C C"
_symmetry_group_IT_number 124
_symmetry_cell_setting 'tetragonal'
loop_
_space_group_symop_operation_xyz
x,y,z
-y,x,z
-x,-y,z
y,-x,z
x,-y,1/2-z
-x,y,1/2-z
y,x,1/2-z
-y,-x,1/2-z
-x,-y,-z
y,-x,-z
x,y,-z
-y,x,-z
-x,y,1/2+z
x,-y,1/2+z
-y,-x,1/2+z
y,x,1/2+z
loop_
_atom_site_type_symbol
_atom_site_label
_atom_site_fract_x
_atom_site_fract_y
_atom_site_fract_z
Si Si1 0.773958 0.669102 0.267594
Si Si2 0.014480 0.107847 0.105983
Si Si3 0.653135 0.103410 0.397902
Si Si4 0.855090 0.360594 0.400107
Si Si5 0.866652 0.505798 0.353441
Si Si6 0.459600 0.711514 0.663373
Si Si7 0.261520 0.974501 0.105372
Si Si8 0.478100 0.388845 0.000000
O O1 0.743761 0.743761 0.250000
O O2 0.835628 0.678103 0.335756
O O3 0.795088 0.635877 0.172730
O O4 0.716787 0.620453 0.311227
O O5 0.024081 0.184411 0.145901
O O6 0.076204 0.058227 0.138725
O O7 0.015127 0.110808 0.000000
O O8 0.673612 0.119037 0.500000
O O9 0.571011 0.092374 0.392028
O O10 0.693448 0.037858 0.359845
O O11 0.827904 0.344169 0.500000
O O12 0.890854 0.435789 0.401568
O O13 0.905965 0.301187 0.366406
O O14 0.883460 0.500000 0.250000
O O15 0.785701 0.515332 0.370418
O O16 0.500000 0.685828 0.750000
O O17 0.469030 0.656490 0.587108
O O18 0.257691 0.978390 0.000000
O O19 0.553394 0.420396 0.000000
#
# Coordination Sequence:
#
# PCOD8313190 Si02
#       8
#    16  16  16  16  16  16  16   8
#     4  11  25  41  60  96 124 160 220 260 315 386
#     4   8  14  28  53  83 118 163 213 257 303 371
#     4  10  21  39  62  89 127 170 209 260 317 384
#     4  11  22  39  62  90 126 165 210 264 317 381
#     4  10  19  39  61  88 122 159 206 253 298 379
#     4  10  22  42  66  88 123 167 204 262 315 382
#     4   9  20  35  56  91 129 166 209 262 322 369
#     4  11  28  44  64 100 128 159 214 268 330 391
#
# _framework density 20.950306999999999
#
# number of rings (size 3 to 8) (size 9 to 14) (size 15 to 20)
#    0.000    2.067    4.000    0.800    6.533    2.667 
#    0.000    6.000    0.000    0.000    0.000    0.000 
#    0.000    3.200    0.000    0.267    0.000    0.000 
#
# Total GULP energy -1487646.937612 kJ/mol
# GULP energy per Si atom -12397.057813 kJ/mol
# Density = 2.090262 g / cm^3
# Si number density = 20.950307 Si / 1000 Ang^3
#
#
#
# Elastic Constant Matrix: (Units=GPa)
#
#
# Indices 1 2 3 4 5 6 
#
# 1 111.9938 59.4647 25.7537 0.0000 0.0000 0.0000
# 2 59.4647 111.9938 25.7537 0.0000 0.0000 0.0000
# 3 25.7537 25.7537 91.5981 0.0000 0.0000 0.0000
# 4 0.0000 0.0000 0.0000 20.6935 0.0000 0.0000
# 5 0.0000 0.0000 0.0000 0.0000 20.6935 0.0000
# 6 0.0000 0.0000 0.0000 0.0000 0.0000 33.8064
#
#
#
# Elastic Compliance Matrix: (Units=1/GPa)
#
#
# Indices 1 2 3 4 5 6 
#
# 1 0.012704 -0.006333 -0.001791 0.000000 0.000000 0.000000
# 2 -0.006333 0.012704 -0.001791 0.000000 0.000000 0.000000
# 3 -0.001791 -0.001791 0.011924 0.000000 0.000000 0.000000
# 4 0.000000 0.000000 0.000000 0.048324 0.000000 0.000000
# 5 0.000000 0.000000 0.000000 0.000000 0.048324 0.000000
# 6 0.000000 0.000000 0.000000 0.000000 0.000000 0.029580
#
#
# Mechanical properties :
#
#
# Convention : Reuss Voigt Hill
#
# Bulk Modulus (GPa) = 57.14028 59.72557 58.43292
# Shear Modulus (GPa) = 26.42350 28.67957 27.55154
#
# Velocity S-wave (km/s) = 3.55526 3.70392 3.63035
# Velocity P-wave (km/s) = 6.64730 6.84559 6.74717
#
# Compressibility (1/GPa) = 0.01750079
#
# Stress axis : x y z
#
# Youngs Moduli (GPa) = 78.71705 78.71705 83.86151
#
# Poissons Ratio (x) = 0.49854 0.15020
# Poissons Ratio (y) = 0.49854 0.15020
# Poissons Ratio (z) = 0.14099 0.14099
#
# Static dielectric constant tensor:
#      x y z
#    x 3.889120 0.000000 0.000000 
#    y 0.000000 3.889120 0.000000 
#    z 0.000000 0.000000 3.628480 
# 
# 
# High freq. dielectric constant tensor:
#      x y z
#    x 1.813100 0.000000 0.000000 
#    y 0.000000 1.813100 0.000000 
#    z 0.000000 0.000000 1.818500 
# 
# From -- ./inp_files/3518.got.cif
#   From: 2010.03.12/outbox.cif.g09.slc.cpg/sg124_2_cif.got.tgz:3518.got - 2010.04.06 16:38:57.
