data_PCOD8313451
_publ_section_title
;
Structure prediction by ZEFSAII (Michael W. Deem and Ramdas Pophale) SiO2 
 PCOD8313451
Probable space group: P 4/N B M
;
_chemical_formula_sum "Si O2"
_cell_formula_units_Z 96
_cell_length_a 19.756891
_cell_length_b 19.756891
_cell_length_c 13.458794
_cell_angle_alpha 90.000000
_cell_angle_beta 90.000000
_cell_angle_gamma 90.000000
_cell_volume 5253.434883
_symmetry_space_group_name_H-M "P 4/N B M"
_symmetry_group_IT_number 125
_space_group.IT_coordinate_system_code '2'
_symmetry_cell_setting 'tetragonal'
loop_
_space_group_symop_operation_xyz
x,y,z
1/2-y,x,z
1/2-x,1/2-y,z
y,1/2-x,z
x,1/2-y,-z
1/2-x,y,-z
y,x,-z
1/2-y,1/2-x,-z
-x,-y,-z
1/2+y,-x,-z
1/2+x,1/2+y,-z
-y,1/2+x,-z
-x,1/2+y,z
1/2+x,-y,z
-y,-x,z
1/2+y,1/2+x,z
loop_
_atom_site_type_symbol
_atom_site_label
_atom_site_fract_x
_atom_site_fract_y
_atom_site_fract_z
Si Si1 0.437637 0.176334 0.887849
Si Si2 0.779381 0.109774 0.610484
Si Si3 0.568428 0.826523 0.886946
Si Si4 0.839570 0.049859 0.272850
Si Si5 0.465098 0.075205 0.598942
Si Si6 0.481119 0.625215 0.279158
O O1 0.403027 0.250292 0.880212
O O2 0.380293 0.124503 0.850827
O O3 0.507481 0.175445 0.826397
O O4 0.457045 0.158571 0.001484
O O5 0.750000 0.106565 0.500000
O O6 0.818532 0.181469 0.626163
O O7 0.720012 0.100731 0.692288
O O8 0.830450 0.047052 0.628366
O O9 0.504609 0.829403 0.812845
O O10 0.906512 0.093489 0.250795
O O11 0.853620 0.994991 0.361303
O O12 0.418360 0.081641 0.500000
O O13 0.529129 0.029129 0.571145
O O14 0.420001 0.043355 0.685332
O O15 0.421499 0.578502 0.237070
#
# Coordination Sequence:
#
# PCOD8313451 Si02
#       6
#    16  16  16  16  16  16
#     4  10  21  36  58  84 111 144 181 230 284 344
#     4  11  23  38  56  80 113 155 197 236 280 333
#     4  10  20  37  58  83 113 142 182 228 283 347
#     4  11  21  34  54  82 112 145 190 238 284 333
#     4   9  17  30  49  76 109 140 175 224 279 332
#     4  10  19  33  55  81 111 146 184 232 286 338
#
# _framework density 18.273758999999998
#
# number of rings (size 3 to 8) (size 9 to 14) (size 15 to 20)
#    0.000    1.833    3.333    1.500    0.000    4.833 
#    0.000    3.333    0.000    0.000    0.000    0.000 
#    0.000    2.667    0.000    0.000    0.000    0.000 
#
# Total GULP energy -1189738.511912 kJ/mol
# GULP energy per Si atom -12393.109499 kJ/mol
# Density = 1.823217 g / cm^3
# Si number density = 18.273759 Si / 1000 Ang^3
#
#
#
# Elastic Constant Matrix: (Units=GPa)
#
#
# Indices 1 2 3 4 5 6 
#
# 1 89.3863 45.4039 46.5854 0.0000 0.0000 0.0000
# 2 45.4039 89.3862 46.5855 0.0000 0.0000 0.0000
# 3 46.5854 46.5855 94.5715 0.0000 0.0000 0.0000
# 4 0.0000 0.0000 0.0000 25.0645 0.0000 0.0000
# 5 0.0000 0.0000 0.0000 0.0000 25.0645 0.0000
# 6 0.0000 0.0000 0.0000 0.0000 0.0000 32.4527
#
#
#
# Elastic Compliance Matrix: (Units=1/GPa)
#
#
# Indices 1 2 3 4 5 6 
#
# 1 0.016993 -0.005744 -0.005541 0.000000 0.000000 0.000000
# 2 -0.005744 0.016993 -0.005541 0.000000 0.000000 0.000000
# 3 -0.005541 -0.005541 0.016033 0.000000 0.000000 0.000000
# 4 0.000000 0.000000 0.000000 0.039897 0.000000 0.000000
# 5 0.000000 0.000000 0.000000 0.000000 0.039897 0.000000
# 6 0.000000 0.000000 0.000000 0.000000 0.000000 0.030814
#
#
# Mechanical properties :
#
#
# Convention : Reuss Voigt Hill
#
# Bulk Modulus (GPa) = 61.10048 61.16595 61.13321
# Shear Modulus (GPa) = 25.03315 25.50095 25.26705
#
# Velocity S-wave (km/s) = 3.70523 3.73969 3.72250
# Velocity P-wave (km/s) = 7.19817 7.22438 7.21129
#
# Compressibility (1/GPa) = 0.01636648
#
# Stress axis : x y z
#
# Youngs Moduli (GPa) = 58.84844 58.84829 62.37023
#
# Poissons Ratio (x) = 0.33800 0.34561
# Poissons Ratio (y) = 0.33800 0.34562
# Poissons Ratio (z) = 0.32610 0.32610
#
# Static dielectric constant tensor:
#      x y z
#    x 3.373640 0.000000 0.000000 
#    y 0.000000 3.373640 0.000000 
#    z 0.000000 0.000000 3.376550 
# 
# 
# High freq. dielectric constant tensor:
#      x y z
#    x 1.699990 0.000000 0.000000 
#    y 0.000000 1.699990 0.000000 
#    z 0.000000 0.000000 1.707390 
# 
# From -- ./inp_files/4177.got.cif
#   From: 2010.03.12/outbox.cif.g09.slc.cpg/sg125_3_cif.got.tgz:4177.got - 2010.04.06 16:47:52.
