data_PCOD8313493
_publ_section_title
;
Structure prediction by ZEFSAII (Michael W. Deem and Ramdas Pophale) SiO2 
 PCOD8313493
Probable space group: P 4/N B M
;
_chemical_formula_sum "Si O2"
_cell_formula_units_Z 96
_cell_length_a 13.778336
_cell_length_b 13.778336
_cell_length_c 24.035358
_cell_angle_alpha 90.000000
_cell_angle_beta 90.000000
_cell_angle_gamma 90.000000
_cell_volume 4562.933483
_symmetry_space_group_name_H-M "P 4/N B M"
_symmetry_group_IT_number 125
_space_group.IT_coordinate_system_code '2'
_symmetry_cell_setting 'tetragonal'
loop_
_space_group_symop_operation_xyz
x,y,z
1/2-y,x,z
1/2-x,1/2-y,z
y,1/2-x,z
x,1/2-y,-z
1/2-x,y,-z
y,x,-z
1/2-y,1/2-x,-z
-x,-y,-z
1/2+y,-x,-z
1/2+x,1/2+y,-z
-y,1/2+x,-z
-x,1/2+y,z
1/2+x,-y,z
-y,-x,z
1/2+y,1/2+x,z
loop_
_atom_site_type_symbol
_atom_site_label
_atom_site_fract_x
_atom_site_fract_y
_atom_site_fract_z
Si Si1 0.596450 0.253295 0.764503
Si Si2 0.509738 0.852314 0.527247
Si Si3 0.975144 0.629067 0.846848
Si Si4 0.105618 0.054886 0.742118
Si Si5 0.509879 0.650429 0.031388
Si Si6 0.610118 0.824495 0.636870
O O1 0.659772 0.340229 0.733995
O O2 0.668914 0.168914 0.783917
O O3 0.549392 0.294602 0.819961
O O4 0.510852 0.201261 0.727655
O O5 0.484868 0.750000 0.500000
O O6 0.608686 0.891315 0.500000
O O7 0.526419 0.854921 0.593727
O O8 0.419405 0.919405 0.511962
O O9 0.886605 0.605936 0.803371
O O10 0.945546 0.671829 0.906807
O O11 0.026729 0.526729 0.858812
O O12 0.084254 0.142861 0.699511
O O13 0.008943 0.991058 0.740178
O O14 0.409249 0.590752 0.034225
O O15 0.487356 0.750000 0.000000
O O16 0.592550 0.592550 0.000000
O O17 0.620660 0.710896 0.626482
#
# Coordination Sequence:
#
# PCOD8313493 Si02
#       6
#    16  16  16  16  16  16
#     4   9  18  33  56  85 116 156 204 251 310 385
#     4  11  23  42  70  99 132 176 222 268 324 384
#     4   9  19  35  55  82 113 152 198 248 310 377
#     4  10  20  35  58  86 123 163 201 252 318 383
#     4  10  23  41  62  88 120 157 206 261 318 385
#     4  11  22  37  60  92 127 164 217 269 311 373
#
# _framework density 21.039097000000002
#
# number of rings (size 3 to 8) (size 9 to 14) (size 15 to 20)
#    0.000    2.000    1.667    1.500    2.333    1.333 
#    0.000    2.500    0.000    0.000    0.000    0.000 
#    0.000    0.000    0.000    0.000    0.000    0.000 
#
# Total GULP energy -1189271.256317 kJ/mol
# GULP energy per Si atom -12388.242253 kJ/mol
# Density = 2.099121 g / cm^3
# Si number density = 21.039097 Si / 1000 Ang^3
#
#
#
# Elastic Constant Matrix: (Units=GPa)
#
#
# Indices 1 2 3 4 5 6 
#
# 1 82.3325 45.1951 32.3744 0.0000 0.0000 0.0000
# 2 45.1951 82.3326 32.3756 0.0000 0.0000 0.0000
# 3 32.3744 32.3756 129.9387 0.0000 0.0000 0.0000
# 4 0.0000 0.0000 0.0000 29.7507 0.0000 0.0000
# 5 0.0000 0.0000 0.0000 0.0000 29.7506 0.0000
# 6 0.0000 0.0000 0.0000 0.0000 0.0000 32.9224
#
#
#
# Elastic Compliance Matrix: (Units=1/GPa)
#
#
# Indices 1 2 3 4 5 6 
#
# 1 0.017952 -0.008975 -0.002237 0.000000 0.000000 0.000000
# 2 -0.008975 0.017952 -0.002237 0.000000 0.000000 0.000000
# 3 -0.002237 -0.002237 0.008811 0.000000 0.000000 0.000000
# 4 0.000000 0.000000 0.000000 0.033613 0.000000 0.000000
# 5 0.000000 0.000000 0.000000 0.000000 0.033613 0.000000
# 6 0.000000 0.000000 0.000000 0.000000 0.000000 0.030374
#
#
# Mechanical properties :
#
#
# Convention : Reuss Voigt Hill
#
# Bulk Modulus (GPa) = 56.12335 57.16599 56.64467
# Shear Modulus (GPa) = 28.54689 30.79532 29.67111
#
# Velocity S-wave (km/s) = 3.68754 3.83001 3.75945
# Velocity P-wave (km/s) = 6.69808 6.84024 6.76953
#
# Compressibility (1/GPa) = 0.01781790
#
# Stress axis : x y z
#
# Youngs Moduli (GPa) = 55.70421 55.70387 113.50087
#
# Poissons Ratio (x) = 0.49994 0.25385
# Poissons Ratio (y) = 0.49994 0.25388
# Poissons Ratio (z) = 0.12459 0.12460
#
# Static dielectric constant tensor:
#      x y z
#    x 3.878560 0.000000 0.000000 
#    y 0.000000 3.878560 0.000000 
#    z 0.000000 0.000000 3.844770 
# 
# 
# High freq. dielectric constant tensor:
#      x y z
#    x 1.823600 0.000000 0.000000 
#    y 0.000000 1.823600 0.000000 
#    z 0.000000 0.000000 1.811010 
# 
# From -- ./inp_files/5937.got.cif
#   From: 2010.03.12/outbox.cif.g09.slc.cpg/sg125_3_cif.got.tgz:5937.got - 2010.04.06 16:47:52.
