data_PCOD8313627
_publ_section_title
;
Structure prediction by ZEFSAII (Michael W. Deem and Ramdas Pophale) SiO2 
 PCOD8313627
Probable space group: P 4/N B M
;
_chemical_formula_sum "Si O2"
_cell_formula_units_Z 88
_cell_length_a 12.725360
_cell_length_b 12.725360
_cell_length_c 27.401946
_cell_angle_alpha 90.000000
_cell_angle_beta 90.000000
_cell_angle_gamma 90.000000
_cell_volume 4437.328292
_symmetry_space_group_name_H-M "P 4/N B M"
_symmetry_group_IT_number 125
_space_group.IT_coordinate_system_code '2'
_symmetry_cell_setting 'tetragonal'
loop_
_space_group_symop_operation_xyz
x,y,z
1/2-y,x,z
1/2-x,1/2-y,z
y,1/2-x,z
x,1/2-y,-z
1/2-x,y,-z
y,x,-z
1/2-y,1/2-x,-z
-x,-y,-z
1/2+y,-x,-z
1/2+x,1/2+y,-z
-y,1/2+x,-z
-x,1/2+y,z
1/2+x,-y,z
-y,-x,z
1/2+y,1/2+x,z
loop_
_atom_site_type_symbol
_atom_site_label
_atom_site_fract_x
_atom_site_fract_y
_atom_site_fract_z
Si Si1 0.417264 0.279774 0.862832
Si Si2 0.842270 0.514357 0.031854
Si Si3 0.422444 0.750000 0.500000
Si Si4 0.923080 0.739240 0.305206
Si Si5 0.080651 0.749788 0.782876
Si Si6 0.752430 0.424451 0.394520
O O1 0.334114 0.370123 0.849677
O O2 0.442510 0.288258 0.919661
O O3 0.521630 0.292391 0.830927
O O4 0.929121 0.429121 0.046008
O O5 0.750000 0.461095 0.000000
O O6 0.891357 0.608644 0.000000
O O7 0.352663 0.647338 0.498180
O O8 0.483540 0.750196 0.447984
O O9 0.860269 0.847308 0.302035
O O10 0.001153 0.727208 0.260361
O O11 0.984915 0.737419 0.355624
O O12 0.144073 0.855928 0.795934
O O13 0.160018 0.660018 0.764901
O O14 0.657245 0.342756 0.390408
O O15 0.861919 0.361919 0.386321
#
# Coordination Sequence:
#
# PCOD8313627 Si02
#       6
#    16  16   8  16  16  16
#     4  11  23  40  66  93 121 157 197 239 286 344
#     4  11  23  40  64  92 124 163 203 244 292 344
#     4   7  12  26  50  81 114 146 186 239 296 355
#     4  11  24  40  57  81 115 155 200 244 294 354
#     4  11  25  43  63  89 120 152 191 243 299 354
#     4   9  17  32  57  86 114 148 193 245 300 356
#
# _framework density 19.831755000000001
#
# number of rings (size 3 to 8) (size 9 to 14) (size 15 to 20)
#    0.000    1.727    1.818    3.818    0.000    9.818 
#    0.000    0.909    0.000    4.364    0.000    0.000 
#    0.000    0.000    0.000    0.000    0.000    0.000 
#
# Total GULP energy -1090977.858247 kJ/mol
# GULP energy per Si atom -12397.475662 kJ/mol
# Density = 1.978662 g / cm^3
# Si number density = 19.831755 Si / 1000 Ang^3
#
#
#
# Elastic Constant Matrix: (Units=GPa)
#
#
# Indices 1 2 3 4 5 6 
#
# 1 89.4902 35.3861 43.7857 0.0000 0.0000 0.0000
# 2 35.3861 89.4898 43.7862 0.0000 0.0000 0.0000
# 3 43.7857 43.7862 132.9456 0.0000 0.0000 0.0000
# 4 0.0000 0.0000 0.0000 24.9916 0.0000 0.0000
# 5 0.0000 0.0000 0.0000 0.0000 24.9918 0.0000
# 6 0.0000 0.0000 0.0000 0.0000 0.0000 11.6175
#
#
#
# Elastic Compliance Matrix: (Units=1/GPa)
#
#
# Indices 1 2 3 4 5 6 
#
# 1 0.014448 -0.004035 -0.003429 0.000000 0.000000 0.000000
# 2 -0.004035 0.014448 -0.003430 0.000000 0.000000 0.000000
# 3 -0.003429 -0.003430 0.009781 0.000000 0.000000 0.000000
# 4 0.000000 0.000000 0.000000 0.040013 0.000000 0.000000
# 5 0.000000 0.000000 0.000000 0.000000 0.040013 0.000000
# 6 0.000000 0.000000 0.000000 0.000000 0.000000 0.086077
#
#
# Mechanical properties :
#
#
# Convention : Reuss Voigt Hill
#
# Bulk Modulus (GPa) = 59.21113 61.98241 60.59677
# Shear Modulus (GPa) = 21.53332 24.91801 23.22567
#
# Velocity S-wave (km/s) = 3.29872 3.54852 3.42590
# Velocity P-wave (km/s) = 6.66561 6.93623 6.80226
#
# Compressibility (1/GPa) = 0.01688872
#
# Stress axis : x y z
#
# Youngs Moduli (GPa) = 69.21424 69.21360 102.23976
#
# Poissons Ratio (x) = 0.27928 0.35063
# Poissons Ratio (y) = 0.27928 0.35064
# Poissons Ratio (z) = 0.23737 0.23737
#
# Static dielectric constant tensor:
#      x y z
#    x 3.498920 0.000000 0.000000 
#    y 0.000000 3.498920 0.000000 
#    z 0.000000 0.000000 3.879830 
# 
# 
# High freq. dielectric constant tensor:
#      x y z
#    x 1.763680 0.000000 0.000000 
#    y 0.000000 1.763680 0.000000 
#    z 0.000000 0.000000 1.794110 
# 
# From -- ./inp_files/6563.got.cif
#   From: 2010.03.12/outbox.cif.g09.slc.cpg/sg125_4_cif.got.tgz:6563.got - 2010.04.06 16:47:52.
