data_PCOD8313515
_publ_section_title
;
Structure prediction by ZEFSAII (Michael W. Deem and Ramdas Pophale) SiO2 
 PCOD8313515
Probable space group: P 4/N B M
;
_chemical_formula_sum "Si O2"
_cell_formula_units_Z 40
_cell_length_a 13.220679
_cell_length_b 13.220679
_cell_length_c 10.769125
_cell_angle_alpha 90.000000
_cell_angle_beta 90.000000
_cell_angle_gamma 90.000000
_cell_volume 1882.296086
_symmetry_space_group_name_H-M "P 4/N B M"
_symmetry_group_IT_number 125
_space_group.IT_coordinate_system_code '2'
_symmetry_cell_setting 'tetragonal'
loop_
_space_group_symop_operation_xyz
x,y,z
1/2-y,x,z
1/2-x,1/2-y,z
y,1/2-x,z
x,1/2-y,-z
1/2-x,y,-z
y,x,-z
1/2-y,1/2-x,-z
-x,-y,-z
1/2+y,-x,-z
1/2+x,1/2+y,-z
-y,1/2+x,-z
-x,1/2+y,z
1/2+x,-y,z
-y,-x,z
1/2+y,1/2+x,z
loop_
_atom_site_type_symbol
_atom_site_label
_atom_site_fract_x
_atom_site_fract_y
_atom_site_fract_z
Si Si1 0.414581 0.750000 0.500000
Si Si2 0.824405 0.013121 0.751911
Si Si3 0.037117 0.125172 0.117042
O O1 0.345177 0.654823 0.538482
O O2 0.486943 0.776553 0.615013
O O3 0.879033 0.120968 0.778196
O O4 0.906047 0.922649 0.762614
O O5 0.739926 0.994176 0.856690
O O6 0.113385 0.113385 0.000000
O O7 0.934368 0.065633 0.086113
#
# Coordination Sequence:
#
# PCOD8313515 Si02
#       3
#     8  16  16
#     4   9  18  34  58  87 118 158 202 237 286 351
#     4  10  21  37  58  85 118 154 195 245 292 344
#     4  10  21  37  58  86 118 155 199 240 291 355
#
# _framework density 21.250641000000002
#
# number of rings (size 3 to 8) (size 9 to 14) (size 15 to 20)
#    0.000    2.200    0.000    2.400    0.000    4.800 
#    0.000   10.000    0.000   16.800    0.000    0.000 
#    0.000    0.000    0.000    0.000    0.000    0.000 
#
# Total GULP energy -495917.543222 kJ/mol
# GULP energy per Si atom -12397.938581 kJ/mol
# Density = 2.120227 g / cm^3
# Si number density = 21.250641 Si / 1000 Ang^3
#
#
#
# Elastic Constant Matrix: (Units=GPa)
#
#
# Indices 1 2 3 4 5 6 
#
# 1 86.1230 41.1108 39.2519 0.0000 0.0000 0.0000
# 2 41.1108 86.1230 39.2519 0.0000 0.0000 0.0000
# 3 39.2519 39.2519 102.7187 0.0000 0.0000 0.0000
# 4 0.0000 0.0000 0.0000 38.0061 0.0000 0.0000
# 5 0.0000 0.0000 0.0000 0.0000 38.0061 0.0000
# 6 0.0000 0.0000 0.0000 0.0000 0.0000 28.6915
#
#
#
# Elastic Compliance Matrix: (Units=1/GPa)
#
#
# Indices 1 2 3 4 5 6 
#
# 1 0.016250 -0.005966 -0.003930 0.000000 0.000000 0.000000
# 2 -0.005966 0.016250 -0.003930 0.000000 0.000000 0.000000
# 3 -0.003930 -0.003930 0.012739 0.000000 0.000000 0.000000
# 4 0.000000 0.000000 0.000000 0.026312 0.000000 0.000000
# 5 0.000000 0.000000 0.000000 0.000000 0.026312 0.000000
# 6 0.000000 0.000000 0.000000 0.000000 0.000000 0.034854
#
#
# Mechanical properties :
#
#
# Convention : Reuss Voigt Hill
#
# Bulk Modulus (GPa) = 56.85791 57.13264 56.99527
# Shear Modulus (GPa) = 30.07874 31.29740 30.68807
#
# Velocity S-wave (km/s) = 3.76630 3.84184 3.80426
# Velocity P-wave (km/s) = 6.76219 6.82811 6.79523
#
# Compressibility (1/GPa) = 0.01758770
#
# Stress axis : x y z
#
# Youngs Moduli (GPa) = 61.53745 61.53745 78.50014
#
# Poissons Ratio (x) = 0.36713 0.30850
# Poissons Ratio (y) = 0.36713 0.30850
# Poissons Ratio (z) = 0.24184 0.24184
#
# Static dielectric constant tensor:
#      x y z
#    x 3.763620 0.000000 0.000000 
#    y 0.000000 3.763620 0.000000 
#    z 0.000000 0.000000 3.791390 
# 
# 
# High freq. dielectric constant tensor:
#      x y z
#    x 1.824320 0.000000 0.000000 
#    y 0.000000 1.824320 0.000000 
#    z 0.000000 0.000000 1.830790 
# 
# From -- ./inp_files/1646.got.cif
#   From: 2010.03.12/outbox.cif.g09.slc.cpg/sg125_1_cif.got.tgz:1646.got - 2010.04.06 16:47:52.
