data_PCOD8313132
_publ_section_title
;
Structure prediction by ZEFSAII (Michael W. Deem and Ramdas Pophale) SiO2 
 PCOD8313132
Probable space group: P 4/M C C
;
_chemical_formula_sum "Si O2"
_cell_formula_units_Z 64
_cell_length_a 19.632818
_cell_length_b 19.632818
_cell_length_c 8.806152
_cell_angle_alpha 90.000000
_cell_angle_beta 90.000000
_cell_angle_gamma 90.000000
_cell_volume 3394.309648
_symmetry_space_group_name_H-M "P 4/M C C"
_symmetry_group_IT_number 124
_symmetry_cell_setting 'tetragonal'
loop_
_space_group_symop_operation_xyz
x,y,z
-y,x,z
-x,-y,z
y,-x,z
x,-y,1/2-z
-x,y,1/2-z
y,x,1/2-z
-y,-x,1/2-z
-x,-y,-z
y,-x,-z
x,y,-z
-y,x,-z
-x,y,1/2+z
x,-y,1/2+z
-y,-x,1/2+z
y,x,1/2+z
loop_
_atom_site_type_symbol
_atom_site_label
_atom_site_fract_x
_atom_site_fract_y
_atom_site_fract_z
Si Si1 0.066665 0.683369 0.832946
Si Si2 0.678826 0.780741 0.816488
Si Si3 0.676084 0.425476 0.317165
Si Si4 0.843938 0.934849 0.166440
O O1 0.140988 0.668280 0.760260
O O2 0.059366 0.763667 0.839425
O O3 0.000000 0.651824 0.750000
O O4 0.065088 0.651108 0.000000
O O5 0.749101 0.749101 0.750000
O O6 0.615975 0.740461 0.745051
O O7 0.680491 0.775567 0.000000
O O8 0.682554 0.500000 0.250000
O O9 0.607267 0.392734 0.250000
O O10 0.674580 0.425292 0.500000
O O11 0.865590 0.865590 0.250000
O O12 0.875814 0.000000 0.250000
O O13 0.875512 0.932470 0.000000
#
# Coordination Sequence:
#
# PCOD8313132 Si02
#       4
#    16  16  16  16
#     4   9  19  32  49  72 100 131 169 215 267 319
#     4  10  19  33  53  80 109 142 181 224 270 322
#     4  11  22  38  59  86 117 151 185 220 259 307
#     4  10  19  31  44  61  84 115 153 199 251 309
#
# _framework density 18.855086
#
# number of rings (size 3 to 8) (size 9 to 14) (size 15 to 20)
#    0.000    2.000    0.000    6.000    0.000    3.500 
#    0.000    2.500    0.000    0.750    0.000    5.250 
#    0.000    0.000    0.000    0.000    0.000    0.000 
#
# Total GULP energy -793087.967213 kJ/mol
# GULP energy per Si atom -12391.999488 kJ/mol
# Density = 1.881217 g / cm^3
# Si number density = 18.855086 Si / 1000 Ang^3
#
#
#
# Elastic Constant Matrix: (Units=GPa)
#
#
# Indices 1 2 3 4 5 6 
#
# 1 114.9238 30.0030 45.1131 0.0000 0.0000 0.0000
# 2 30.0030 114.9172 45.1118 0.0000 0.0000 0.0000
# 3 45.1131 45.1118 139.2258 0.0000 0.0000 0.0000
# 4 0.0000 0.0000 0.0000 27.4508 0.0000 0.0000
# 5 0.0000 0.0000 0.0000 0.0000 27.4512 0.0000
# 6 0.0000 0.0000 0.0000 0.0000 0.0000 15.6204
#
#
#
# Elastic Compliance Matrix: (Units=1/GPa)
#
#
# Indices 1 2 3 4 5 6 
#
# 1 0.010210 -0.001566 -0.002801 0.000000 0.000000 0.000000
# 2 -0.001566 0.010210 -0.002801 0.000000 0.000000 0.000000
# 3 -0.002801 -0.002801 0.008998 0.000000 0.000000 0.000000
# 4 0.000000 0.000000 0.000000 0.036429 0.000000 0.000000
# 5 0.000000 0.000000 0.000000 0.000000 0.036428 0.000000
# 6 0.000000 0.000000 0.000000 0.000000 0.000000 0.064019
#
#
# Mechanical properties :
#
#
# Convention : Reuss Voigt Hill
#
# Bulk Modulus (GPa) = 66.30361 67.72473 67.01417
# Shear Modulus (GPa) = 26.93142 30.69371 28.81257
#
# Velocity S-wave (km/s) = 3.78343 4.03907 3.91334
# Velocity P-wave (km/s) = 7.37069 7.59925 7.48584
#
# Compressibility (1/GPa) = 0.01508214
#
# Stress axis : x y z
#
# Youngs Moduli (GPa) = 97.94583 97.94018 111.14017
#
# Poissons Ratio (x) = 0.15339 0.31128
# Poissons Ratio (y) = 0.15339 0.31129
# Poissons Ratio (z) = 0.27433 0.27432
#
# Static dielectric constant tensor:
#      x y z
#    x 3.418800 0.000000 0.000000 
#    y 0.000000 3.418810 0.000000 
#    z 0.000000 0.000000 3.910850 
# 
# 
# High freq. dielectric constant tensor:
#      x y z
#    x 1.718640 0.000000 0.000000 
#    y 0.000000 1.718640 0.000000 
#    z 0.000000 0.000000 1.746260 
# 
# From -- ./inp_files/871.got.cif
#   From: 2010.03.12/outbox.cif.g09.slc.cpg/sg124_1_cif.got.tgz:871.got - 2010.04.06 16:38:57.
