data_PCOD8313466
_publ_section_title
;
Structure prediction by ZEFSAII (Michael W. Deem and Ramdas Pophale) SiO2 
 PCOD8313466
Probable space group: P 4/N B M
;
_chemical_formula_sum "Si O2"
_cell_formula_units_Z 120
_cell_length_a 25.316573
_cell_length_b 25.316573
_cell_length_c 12.521089
_cell_angle_alpha 90.000000
_cell_angle_beta 90.000000
_cell_angle_gamma 90.000000
_cell_volume 8025.127405
_symmetry_space_group_name_H-M "P 4/N B M"
_symmetry_group_IT_number 125
_space_group.IT_coordinate_system_code '2'
_symmetry_cell_setting 'tetragonal'
loop_
_space_group_symop_operation_xyz
x,y,z
1/2-y,x,z
1/2-x,1/2-y,z
y,1/2-x,z
x,1/2-y,-z
1/2-x,y,-z
y,x,-z
1/2-y,1/2-x,-z
-x,-y,-z
1/2+y,-x,-z
1/2+x,1/2+y,-z
-y,1/2+x,-z
-x,1/2+y,z
1/2+x,-y,z
-y,-x,z
1/2+y,1/2+x,z
loop_
_atom_site_type_symbol
_atom_site_label
_atom_site_fract_x
_atom_site_fract_y
_atom_site_fract_z
Si Si1 0.749073 0.166402 0.703997
Si Si2 0.893570 0.017775 0.192240
Si Si3 0.393967 0.750000 0.500000
Si Si4 0.920219 0.991420 0.560788
Si Si5 0.871951 0.460825 0.040120
Si Si6 0.566817 0.977807 0.204517
Si Si7 0.879118 0.290053 0.094714
Si Si8 0.354109 0.557332 0.590956
O O1 0.784631 0.215370 0.737479
O O2 0.688143 0.188143 0.694955
O O3 0.771827 0.143401 0.593613
O O4 0.755331 0.122632 0.796699
O O5 0.939903 0.060098 0.198250
O O6 0.855212 0.028424 0.293389
O O7 0.920058 0.959636 0.193909
O O8 0.860948 0.022001 0.082119
O O9 0.428184 0.794851 0.441828
O O10 0.968992 0.031009 0.561431
O O11 0.871280 0.015981 0.498749
O O12 0.902953 0.979522 0.682033
O O13 0.938210 0.938210 0.500000
O O14 0.917934 0.417934 0.042780
O O15 0.890253 0.511124 0.111281
O O16 0.817949 0.436358 0.087033
O O17 0.521900 0.021900 0.198361
O O18 0.834385 0.334385 0.090698
O O19 0.868865 0.250000 0.000000
O O20 0.390860 0.609141 0.590964
#
# Coordination Sequence:
#
# PCOD8313466 Si02
#       8
#    16  16   8  16  16  16  16  16
#     4  10  21  36  50  60  73 101 146 197 245 282
#     4   9  16  28  44  63  84 108 133 162 212 271
#     4  12  24  33  46  64  86 110 140 187 238 282
#     4   9  15  26  43  63  84 107 136 172 210 258
#     4   9  18  28  42  63  85 105 132 172 217 265
#     4   9  15  25  43  64  87 107 128 163 211 262
#     4  10  21  34  47  61  78 106 145 190 235 275
#     4  10  20  31  45  63  84 112 145 181 226 276
#
# _framework density 14.953034000000001
#
# number of rings (size 3 to 8) (size 9 to 14) (size 15 to 20)
#    0.000    2.400    1.333    2.000    3.733    2.800 
#    0.000    0.000    0.000    0.000    0.000    0.000 
#    0.000    0.000    0.000    0.000    0.000    0.333 
#
# Total GULP energy -1487210.735795 kJ/mol
# GULP energy per Si atom -12393.422798 kJ/mol
# Density = 1.491900 g / cm^3
# Si number density = 14.953034 Si / 1000 Ang^3
#
#
#
# Elastic Constant Matrix: (Units=GPa)
#
#
# Indices 1 2 3 4 5 6 
#
# 1 42.8110 32.3915 37.9598 0.0000 0.0000 0.0000
# 2 32.3915 42.8110 37.9598 0.0000 0.0000 0.0000
# 3 37.9598 37.9598 144.0768 0.0000 0.0000 0.0000
# 4 0.0000 0.0000 0.0000 16.7506 0.0000 0.0000
# 5 0.0000 0.0000 0.0000 0.0000 16.7506 0.0000
# 6 0.0000 0.0000 0.0000 0.0000 0.0000 22.0897
#
#
#
# Elastic Compliance Matrix: (Units=1/GPa)
#
#
# Indices 1 2 3 4 5 6 
#
# 1 0.057045 -0.038929 -0.004773 0.000000 0.000000 0.000000
# 2 -0.038929 0.057045 -0.004773 0.000000 0.000000 0.000000
# 3 -0.004773 -0.004773 0.009456 0.000000 0.000000 0.000000
# 4 0.000000 0.000000 0.000000 0.059699 0.000000 0.000000
# 5 0.000000 0.000000 0.000000 0.000000 0.059699 0.000000
# 6 0.000000 0.000000 0.000000 0.000000 0.000000 0.045270
#
#
# Mechanical properties :
#
#
# Convention : Reuss Voigt Hill
#
# Bulk Modulus (GPa) = 37.60000 49.59121 43.59560
# Shear Modulus (GPa) = 12.68939 19.21068 15.95003
#
# Velocity S-wave (km/s) = 2.91626 3.58821 3.26954
# Velocity P-wave (km/s) = 6.04479 7.09955 6.59329
#
# Compressibility (1/GPa) = 0.02659574
#
# Stress axis : x y z
#
# Youngs Moduli (GPa) = 17.53002 17.53002 105.75506
#
# Poissons Ratio (x) = 0.68243 0.50477
# Poissons Ratio (y) = 0.68243 0.50477
# Poissons Ratio (z) = 0.08367 0.08367
#
# Static dielectric constant tensor:
#      x y z
#    x 2.654460 0.000000 0.000000 
#    y 0.000000 2.654460 0.000000 
#    z 0.000000 0.000000 3.246450 
# 
# 
# High freq. dielectric constant tensor:
#      x y z
#    x 1.527360 0.000000 0.000000 
#    y 0.000000 1.527360 0.000000 
#    z 0.000000 0.000000 1.599460 
# 
# From -- ./inp_files/4408.got.cif
#   From: 2010.03.12/outbox.cif.g09.slc.cpg/sg125_3_cif.got.tgz:4408.got - 2010.04.06 16:47:52.
