data_PCOD8313211
_publ_section_title
;
Structure prediction by ZEFSAII (Michael W. Deem and Ramdas Pophale) SiO2 
 PCOD8313211
Probable space group: P 4/M C C
;
_chemical_formula_sum "Si O2"
_cell_formula_units_Z 64
_cell_length_a 21.644811
_cell_length_b 21.644811
_cell_length_c 8.783095
_cell_angle_alpha 90.000000
_cell_angle_beta 90.000000
_cell_angle_gamma 90.000000
_cell_volume 4114.861064
_symmetry_space_group_name_H-M "P 4/M C C"
_symmetry_group_IT_number 124
_symmetry_cell_setting 'tetragonal'
loop_
_space_group_symop_operation_xyz
x,y,z
-y,x,z
-x,-y,z
y,-x,z
x,-y,1/2-z
-x,y,1/2-z
y,x,1/2-z
-y,-x,1/2-z
-x,-y,-z
y,-x,-z
x,y,-z
-y,x,-z
-x,y,1/2+z
x,-y,1/2+z
-y,-x,1/2+z
y,x,1/2+z
loop_
_atom_site_type_symbol
_atom_site_label
_atom_site_fract_x
_atom_site_fract_y
_atom_site_fract_z
Si Si1 0.740812 0.345012 0.670221
Si Si2 0.759478 0.156944 0.833861
Si Si3 0.432515 0.834479 0.681136
Si Si4 0.342018 0.932337 0.182871
O O1 0.677328 0.322673 0.750000
O O2 0.726591 0.369976 0.500000
O O3 0.786363 0.287373 0.657918
O O4 0.771224 0.398558 0.771450
O O5 0.822234 0.177767 0.750000
O O6 0.722530 0.099057 0.760122
O O7 0.781822 0.137099 0.000000
O O8 0.500000 0.832616 0.750000
O O9 0.434265 0.840026 0.500000
O O10 0.399160 0.894168 0.751128
O O11 0.345275 0.000000 0.250000
O O12 0.346080 0.931911 0.000000
#
# Coordination Sequence:
#
# PCOD8313211 Si02
#       4
#    16  16  16  16
#     4   9  16  28  45  66  88 112 143 181 224 269
#     4   8  15  26  42  62  84 107 137 175 217 261
#     4  11  21  33  47  64  88 120 154 190 226 264
#     4  10  20  33  46  64  88 117 152 188 222 264
#
# _framework density 15.553381999999999
#
# number of rings (size 3 to 8) (size 9 to 14) (size 15 to 20)
#    0.000    2.500    0.000    5.250    0.000    7.500 
#    0.000    2.500    0.000    0.000    0.000    0.000 
#    0.000    1.000    0.000   10.500    0.000    7.500 
#
# Total GULP energy -793143.222756 kJ/mol
# GULP energy per Si atom -12392.862856 kJ/mol
# Density = 1.551798 g / cm^3
# Si number density = 15.553382 Si / 1000 Ang^3
#
#
#
# Elastic Constant Matrix: (Units=GPa)
#
#
# Indices 1 2 3 4 5 6 
#
# 1 73.1458 79.9361 45.0997 0.0000 0.0000 0.0000
# 2 79.9361 73.1458 45.1002 0.0000 0.0000 0.0000
# 3 45.0997 45.1002 111.6556 0.0000 0.0000 0.0000
# 4 0.0000 0.0000 0.0000 23.2465 0.0000 0.0000
# 5 0.0000 0.0000 0.0000 0.0000 23.2464 0.0000
# 6 0.0000 0.0000 0.0000 0.0000 0.0000 15.7503
#
#
#
# Elastic Compliance Matrix: (Units=1/GPa)
#
#
# Indices 1 2 3 4 5 6 
#
# 1 -0.069347 0.077920 -0.003463 0.000000 0.000000 0.000000
# 2 0.077920 -0.069348 -0.003462 0.000000 0.000000 0.000000
# 3 -0.003463 -0.003462 0.011753 0.000000 0.000000 0.000000
# 4 0.000000 0.000000 0.000000 0.043017 0.000000 0.000000
# 5 0.000000 0.000000 0.000000 0.000000 0.043017 0.000000
# 6 0.000000 0.000000 0.000000 0.000000 0.000000 0.063491
#
#
# Mechanical properties :
#
#
# Convention : Reuss Voigt Hill
#
# Bulk Modulus (GPa) = 66.45347 66.46877 66.46112
# Shear Modulus (GPa) = -43.70996 18.30271 -12.70362
#
# Velocity S-wave (km/s) = -5.30700 3.43413 -2.86103
# Velocity P-wave (km/s) = 2.29490 7.65199 5.64887
#
# Compressibility (1/GPa) = 0.01504812
#
# Stress axis : x y z
#
# Youngs Moduli (GPa) = -14.42015 -14.42005 85.08149
#
# Poissons Ratio (x) = 1.12362 0.29465
# Poissons Ratio (y) = 1.12362 0.29458
# Poissons Ratio (z) = -0.04994 -0.04993
#
# Static dielectric constant tensor:
#      x y z
#    x 2.914220 0.000000 0.000000 
#    y 0.000000 2.914210 0.000000 
#    z 0.000000 0.000000 3.264610 
# 
# 
# High freq. dielectric constant tensor:
#      x y z
#    x 1.570140 0.000000 0.000000 
#    y 0.000000 1.570140 0.000000 
#    z 0.000000 0.000000 1.614490 
# 
# From -- ./inp_files/853.got.cif
#   From: 2010.03.12/outbox.cif.g09.slc.cpg/sg124_1_cif.got.tgz:853.got - 2010.04.06 16:38:57.
