data_PCOD8313507
_publ_section_title
;
Structure prediction by ZEFSAII (Michael W. Deem and Ramdas Pophale) SiO2 
 PCOD8313507
Probable space group: P 4/N B M
;
_chemical_formula_sum "Si O2"
_cell_formula_units_Z 96
_cell_length_a 20.349782
_cell_length_b 20.349782
_cell_length_c 12.726371
_cell_angle_alpha 90.000000
_cell_angle_beta 90.000000
_cell_angle_gamma 90.000000
_cell_volume 5270.163659
_symmetry_space_group_name_H-M "P 4/N B M"
_symmetry_group_IT_number 125
_space_group.IT_coordinate_system_code '2'
_symmetry_cell_setting 'tetragonal'
loop_
_space_group_symop_operation_xyz
x,y,z
1/2-y,x,z
1/2-x,1/2-y,z
y,1/2-x,z
x,1/2-y,-z
1/2-x,y,-z
y,x,-z
1/2-y,1/2-x,-z
-x,-y,-z
1/2+y,-x,-z
1/2+x,1/2+y,-z
-y,1/2+x,-z
-x,1/2+y,z
1/2+x,-y,z
-y,-x,z
1/2+y,1/2+x,z
loop_
_atom_site_type_symbol
_atom_site_label
_atom_site_fract_x
_atom_site_fract_y
_atom_site_fract_z
Si Si1 0.503099 0.605004 0.604520
Si Si2 0.393172 0.496734 0.371556
Si Si3 0.663702 0.059451 0.800399
Si Si4 0.499202 0.104039 0.003072
Si Si5 0.752413 0.856213 0.876562
Si Si6 0.292892 0.005029 0.815371
O O1 0.458401 0.541600 0.593244
O O2 0.572406 0.574602 0.643132
O O3 0.504270 0.638176 0.489084
O O4 0.474952 0.656099 0.687600
O O5 0.442527 0.557474 0.353142
O O6 0.334909 0.503450 0.288902
O O7 0.634075 0.134075 0.799317
O O8 0.624579 0.017261 0.885786
O O9 0.741420 0.056035 0.822340
O O10 0.549893 0.049893 0.047609
O O11 0.426097 0.073904 0.000000
O O12 0.499984 0.165398 0.079317
O O13 0.686757 0.816388 0.845498
O O14 0.754744 0.925043 0.813796
O O15 0.750000 0.871035 0.000000
#
# Coordination Sequence:
#
# PCOD8313507 Si02
#       6
#    16  16  16  16  16  16
#     4   8  16  34  56  75 103 137 173 226 279 319
#     4   9  18  33  54  79 104 135 176 225 279 329
#     4  10  21  35  50  74 107 140 178 224 275 325
#     4  10  21  35  53  79 109 136 173 231 284 325
#     4   9  20  35  48  68 105 148 186 219 252 317
#     4  12  22  30  55  82 108 145 176 225 274 342
#
# _framework density 18.215752999999999
#
# number of rings (size 3 to 8) (size 9 to 14) (size 15 to 20)
#    0.000    2.333    0.000    4.500    7.000    3.333 
#    0.000    0.000    0.000    2.000    0.000    4.667 
#    0.000    8.000    0.000    0.167    0.000    0.000 
#
# Total GULP energy -1189982.253811 kJ/mol
# GULP energy per Si atom -12395.648477 kJ/mol
# Density = 1.817429 g / cm^3
# Si number density = 18.215753 Si / 1000 Ang^3
#
#
#
# Elastic Constant Matrix: (Units=GPa)
#
#
# Indices 1 2 3 4 5 6 
#
# 1 87.4378 44.7936 34.8959 0.0000 0.0000 0.0000
# 2 44.7936 87.4370 34.8955 0.0000 0.0000 0.0000
# 3 34.8959 34.8955 84.7175 0.0000 0.0000 0.0000
# 4 0.0000 0.0000 0.0000 21.2833 0.0000 0.0000
# 5 0.0000 0.0000 0.0000 0.0000 21.2834 0.0000
# 6 0.0000 0.0000 0.0000 0.0000 0.0000 22.0648
#
#
#
# Elastic Compliance Matrix: (Units=1/GPa)
#
#
# Indices 1 2 3 4 5 6 
#
# 1 0.016557 -0.006893 -0.003980 0.000000 0.000000 0.000000
# 2 -0.006893 0.016557 -0.003980 0.000000 0.000000 0.000000
# 3 -0.003980 -0.003980 0.015083 0.000000 0.000000 0.000000
# 4 0.000000 0.000000 0.000000 0.046985 0.000000 0.000000
# 5 0.000000 0.000000 0.000000 0.000000 0.046985 0.000000
# 6 0.000000 0.000000 0.000000 0.000000 0.000000 0.045321
#
#
# Mechanical properties :
#
#
# Convention : Reuss Voigt Hill
#
# Bulk Modulus (GPa) = 54.08865 54.30693 54.19779
# Shear Modulus (GPa) = 22.38551 22.59346 22.48949
#
# Velocity S-wave (km/s) = 3.50938 3.52565 3.51752
# Velocity P-wave (km/s) = 6.79550 6.81553 6.80552
#
# Compressibility (1/GPa) = 0.01848817
#
# Stress axis : x y z
#
# Youngs Moduli (GPa) = 60.39870 60.39829 66.29959
#
# Poissons Ratio (x) = 0.41634 0.26390
# Poissons Ratio (y) = 0.41635 0.26390
# Poissons Ratio (z) = 0.24041 0.24041
#
# Static dielectric constant tensor:
#      x y z
#    x 3.313500 0.000000 0.000000 
#    y 0.000000 3.313500 0.000000 
#    z 0.000000 0.000000 3.582960 
# 
# 
# High freq. dielectric constant tensor:
#      x y z
#    x 1.688750 0.000000 0.000000 
#    y 0.000000 1.688750 0.000000 
#    z 0.000000 0.000000 1.708050 
# 
# From -- ./inp_files/4119.got.cif
#   From: 2010.03.12/outbox.cif.g09.slc.cpg/sg125_3_cif.got.tgz:4119.got - 2010.04.06 16:47:52.
