data_PCOD8313028
_publ_section_title
;
Structure prediction by ZEFSAII (Michael W. Deem and Ramdas Pophale) SiO2 
 PCOD8313028
Probable space group: P 4/M M M
;
_chemical_formula_sum "Si O2"
_cell_formula_units_Z 44
_cell_length_a 17.055307
_cell_length_b 17.055307
_cell_length_c 8.947416
_cell_angle_alpha 90.000000
_cell_angle_beta 90.000000
_cell_angle_gamma 90.000000
_cell_volume 2602.655654
_symmetry_space_group_name_H-M "P 4/M M M"
_symmetry_group_IT_number 123
_symmetry_cell_setting 'tetragonal'
loop_
_space_group_symop_operation_xyz
x,y,z
-y,x,z
-x,-y,z
y,-x,z
x,-y,-z
-x,y,-z
y,x,-z
-y,-x,-z
-x,-y,-z
y,-x,-z
x,y,-z
-y,x,-z
-x,y,z
x,-y,z
-y,-x,z
y,x,z
loop_
_atom_site_type_symbol
_atom_site_label
_atom_site_fract_x
_atom_site_fract_y
_atom_site_fract_z
Si Si1 0.203338 0.329155 0.678336
Si Si2 0.784331 0.089371 0.173576
Si Si3 0.500000 0.225002 0.334790
Si Si4 0.500000 0.372692 0.500000
O O1 0.206042 0.334143 0.500000
O O2 0.278596 0.278596 0.735548
O O3 0.124021 0.287570 0.731760
O O4 0.202479 0.418011 0.747367
O O5 0.864267 0.135734 0.210148
O O6 0.797771 0.000000 0.222656
O O7 0.762359 0.096368 0.000000
O O8 0.500000 0.185092 0.500000
O O9 0.500000 0.319538 0.351452
O O10 0.578112 0.421889 0.500000
#
# Coordination Sequence:
#
# PCOD8313028 Si02
#       4
#    16  16   8   4
#     4   9  16  28  46  66  90 121 152 184 222 264
#     4   9  18  32  49  68  89 113 144 184 229 276
#     4   8  15  24  40  62  91 118 150 181 215 259
#     4   9  14  20  36  64  95 120 146 188 233 264
#
# _framework density 16.905809999999999
#
# number of rings (size 3 to 8) (size 9 to 14) (size 15 to 20)
#    0.545    2.636    0.000    1.091    0.000    1.091 
#    0.000    3.636    0.000    5.455    0.000    5.091 
#    0.000    0.000    0.000   22.182    0.000    0.000 
#
# Total GULP energy -545104.617796 kJ/mol
# GULP energy per Si atom -12388.741314 kJ/mol
# Density = 1.686733 g / cm^3
# Si number density = 16.905810 Si / 1000 Ang^3
#
#
#
# Elastic Constant Matrix: (Units=GPa)
#
#
# Indices 1 2 3 4 5 6 
#
# 1 145.1084 68.0771 18.2133 0.0000 0.0000 0.0000
# 2 68.0771 145.1087 18.2132 0.0000 0.0000 0.0000
# 3 18.2133 18.2132 10.2566 0.0000 0.0000 0.0000
# 4 0.0000 0.0000 0.0000 17.3982 0.0000 0.0000
# 5 0.0000 0.0000 0.0000 0.0000 17.3976 0.0000
# 6 0.0000 0.0000 0.0000 0.0000 0.0000 22.7791
#
#
#
# Elastic Compliance Matrix: (Units=1/GPa)
#
#
# Indices 1 2 3 4 5 6 
#
# 1 0.009858 -0.003124 -0.011958 0.000000 0.000000 0.000000
# 2 -0.003124 0.009858 -0.011958 0.000000 0.000000 0.000000
# 3 -0.011958 -0.011958 0.139968 0.000000 0.000000 0.000000
# 4 0.000000 0.000000 0.000000 0.057477 0.000000 0.000000
# 5 0.000000 0.000000 0.000000 0.000000 0.057479 0.000000
# 6 0.000000 0.000000 0.000000 0.000000 0.000000 0.043900
#
#
# Mechanical properties :
#
#
# Convention : Reuss Voigt Hill
#
# Bulk Modulus (GPa) = 9.46936 56.60899 33.03917
# Shear Modulus (GPa) = 12.26029 24.57964 18.41997
#
# Velocity S-wave (km/s) = 2.69590 3.81716 3.30444
# Velocity P-wave (km/s) = 3.91202 7.27910 5.84334
#
# Compressibility (1/GPa) = 0.10560380
#
# Stress axis : x y z
#
# Youngs Moduli (GPa) = 101.44187 101.44227 7.14451
#
# Poissons Ratio (x) = 0.31689 0.08543
# Poissons Ratio (y) = 0.31689 0.08543
# Poissons Ratio (z) = 1.21304 1.21304
#
# Static dielectric constant tensor:
#      x y z
#    x 3.253570 0.000000 0.000000 
#    y 0.000000 3.253560 0.000000 
#    z 0.000000 0.000000 2.768370 
# 
# 
# High freq. dielectric constant tensor:
#      x y z
#    x 1.654360 0.000000 0.000000 
#    y 0.000000 1.654360 0.000000 
#    z 0.000000 0.000000 1.602300 
# 
# From -- ./inp_files/440.got.cif
#   From: 2010.03.12/outbox.cif.g09.slc.cpg/sg123_1_cif.got.tgz:440.got - 2010.04.06 16:26:55.
