data_PCOD8313526
_publ_section_title
;
Structure prediction by ZEFSAII (Michael W. Deem and Ramdas Pophale) SiO2 
 PCOD8313526
Probable space group: P 4/N B M
;
_chemical_formula_sum "Si O2"
_cell_formula_units_Z 112
_cell_length_a 14.297933
_cell_length_b 14.297933
_cell_length_c 27.923654
_cell_angle_alpha 90.000000
_cell_angle_beta 90.000000
_cell_angle_gamma 90.000000
_cell_volume 5708.457385
_symmetry_space_group_name_H-M "P 4/N B M"
_symmetry_group_IT_number 125
_space_group.IT_coordinate_system_code '2'
_symmetry_cell_setting 'tetragonal'
loop_
_space_group_symop_operation_xyz
x,y,z
1/2-y,x,z
1/2-x,1/2-y,z
y,1/2-x,z
x,1/2-y,-z
1/2-x,y,-z
y,x,-z
1/2-y,1/2-x,-z
-x,-y,-z
1/2+y,-x,-z
1/2+x,1/2+y,-z
-y,1/2+x,-z
-x,1/2+y,z
1/2+x,-y,z
-y,-x,z
1/2+y,1/2+x,z
loop_
_atom_site_type_symbol
_atom_site_label
_atom_site_fract_x
_atom_site_fract_y
_atom_site_fract_z
Si Si1 0.358634 0.012120 0.368033
Si Si2 0.350842 0.492962 0.523120
Si Si3 0.856934 0.857587 0.288742
Si Si4 0.750724 0.100746 0.707900
Si Si5 0.358147 0.006801 0.786684
Si Si6 0.007101 0.148684 0.976597
Si Si7 0.697653 0.604768 0.882296
O O1 0.450777 0.950777 0.369090
O O2 0.327102 0.031667 0.421942
O O3 0.276078 0.965186 0.336778
O O4 0.386046 0.109655 0.342070
O O5 0.250000 0.510503 0.500000
O O6 0.405063 0.405063 0.500000
O O7 0.412834 0.587167 0.517821
O O8 0.749764 0.880250 0.280654
O O9 0.918007 0.910162 0.248270
O O10 0.836463 0.163538 0.688973
O O11 0.662811 0.162811 0.723387
O O12 0.779277 0.045837 0.755627
O O13 0.310351 0.059742 0.830256
O O14 0.435434 0.935434 0.806562
O O15 0.028277 0.165823 0.920868
O O16 0.990703 0.250000 0.000000
O O17 0.095883 0.095883 0.000000
O O18 0.913330 0.086671 0.982230
O O19 0.805439 0.631907 0.888869
#
# Coordination Sequence:
#
# PCOD8313526 Si02
#       7
#    16  16  16  16  16  16  16
#     4  10  21  39  61  87 112 150 202 248 304 368
#     4  10  24  43  64  92 126 161 206 263 323 389
#     4  11  22  36  54  82 118 154 195 243 298 361
#     4   9  19  37  60  85 115 154 201 251 304 372
#     4  11  22  38  58  87 125 163 205 256 316 374
#     4  11  23  43  71 102 134 173 224 278 333 390
#     4  11  23  40  64  93 129 171 218 269 317 378
#
# _framework density 19.620013
#
# number of rings (size 3 to 8) (size 9 to 14) (size 15 to 20)
#    0.000    1.571    2.857    1.714    2.000    2.286 
#    0.000    2.857    0.000    1.714    0.000    0.000 
#    0.000    0.000    0.000    0.000    0.000    0.000 
#
# Total GULP energy -1388373.095354 kJ/mol
# GULP energy per Si atom -12396.188351 kJ/mol
# Density = 1.957536 g / cm^3
# Si number density = 19.620013 Si / 1000 Ang^3
#
#
#
# Elastic Constant Matrix: (Units=GPa)
#
#
# Indices 1 2 3 4 5 6 
#
# 1 109.7321 45.2063 49.4095 0.0000 0.0000 0.0000
# 2 45.2063 109.7321 49.4095 0.0000 0.0000 0.0000
# 3 49.4095 49.4095 141.5270 0.0000 0.0000 0.0000
# 4 0.0000 0.0000 0.0000 33.0900 0.0000 0.0000
# 5 0.0000 0.0000 0.0000 0.0000 33.0900 0.0000
# 6 0.0000 0.0000 0.0000 0.0000 0.0000 13.1210
#
#
#
# Elastic Compliance Matrix: (Units=1/GPa)
#
#
# Indices 1 2 3 4 5 6 
#
# 1 0.011900 -0.003597 -0.002899 0.000000 0.000000 0.000000
# 2 -0.003597 0.011900 -0.002899 0.000000 0.000000 0.000000
# 3 -0.002899 -0.002899 0.009090 0.000000 0.000000 0.000000
# 4 0.000000 0.000000 0.000000 0.030221 0.000000 0.000000
# 5 0.000000 0.000000 0.000000 0.000000 0.030221 0.000000
# 6 0.000000 0.000000 0.000000 0.000000 0.000000 0.076213
#
#
# Mechanical properties :
#
#
# Convention : Reuss Voigt Hill
#
# Bulk Modulus (GPa) = 70.91767 72.11577 71.51672
# Shear Modulus (GPa) = 25.90204 30.32459 28.11332
#
# Velocity S-wave (km/s) = 3.63738 3.93567 3.78946
# Velocity P-wave (km/s) = 7.33926 7.58213 7.46168
#
# Compressibility (1/GPa) = 0.01410086
#
# Stress axis : x y z
#
# Youngs Moduli (GPa) = 84.03132 84.03132 110.01377
#
# Poissons Ratio (x) = 0.30229 0.31890
# Poissons Ratio (y) = 0.30229 0.31890
# Poissons Ratio (z) = 0.24358 0.24358
#
# Static dielectric constant tensor:
#      x y z
#    x 3.672420 0.000000 0.000000 
#    y 0.000000 3.672420 0.000000 
#    z 0.000000 0.000000 3.695100 
# 
# 
# High freq. dielectric constant tensor:
#      x y z
#    x 1.770080 0.000000 0.000000 
#    y 0.000000 1.770080 0.000000 
#    z 0.000000 0.000000 1.764500 
# 
# From -- ./inp_files/6441.got.cif
#   From: 2010.03.12/outbox.cif.g09.slc.cpg/sg125_4_cif.got.tgz:6441.got - 2010.04.06 16:47:52.
