data_PCOD8313570
_publ_section_title
;
Structure prediction by ZEFSAII (Michael W. Deem and Ramdas Pophale) SiO2 
 PCOD8313570
Probable space group: P 4/N B M
;
_chemical_formula_sum "Si O2"
_cell_formula_units_Z 128
_cell_length_a 19.362662
_cell_length_b 19.362662
_cell_length_c 20.035280
_cell_angle_alpha 90.000000
_cell_angle_beta 90.000000
_cell_angle_gamma 90.000000
_cell_volume 7511.480514
_symmetry_space_group_name_H-M "P 4/N B M"
_symmetry_group_IT_number 125
_space_group.IT_coordinate_system_code '2'
_symmetry_cell_setting 'tetragonal'
loop_
_space_group_symop_operation_xyz
x,y,z
1/2-y,x,z
1/2-x,1/2-y,z
y,1/2-x,z
x,1/2-y,-z
1/2-x,y,-z
y,x,-z
1/2-y,1/2-x,-z
-x,-y,-z
1/2+y,-x,-z
1/2+x,1/2+y,-z
-y,1/2+x,-z
-x,1/2+y,z
1/2+x,-y,z
-y,-x,z
1/2+y,1/2+x,z
loop_
_atom_site_type_symbol
_atom_site_label
_atom_site_fract_x
_atom_site_fract_y
_atom_site_fract_z
Si Si1 0.896389 0.504859 0.726976
Si Si2 0.092597 0.799105 0.643523
Si Si3 0.011281 0.098157 0.647526
Si Si4 0.026538 0.229923 0.573511
Si Si5 0.230339 0.039433 0.805768
Si Si6 0.920486 0.312202 0.253603
Si Si7 0.863652 0.753072 0.683395
Si Si8 0.253082 0.137481 0.076778
O O1 0.852811 0.458825 0.676979
O O2 0.850709 0.525023 0.791321
O O3 0.963873 0.463873 0.753210
O O4 0.919558 0.572177 0.684826
O O5 0.160077 0.839924 0.615628
O O6 0.116954 0.744258 0.699402
O O7 0.050723 0.760802 0.584473
O O8 0.966970 0.033031 0.621553
O O9 0.970231 0.142756 0.700894
O O10 0.027636 0.146713 0.583825
O O11 0.051778 0.250000 0.500000
O O12 0.079871 0.262358 0.625817
O O13 0.254585 0.096958 0.753242
O O14 0.241921 0.068261 0.879758
O O15 0.274563 0.968332 0.801426
O O16 0.861170 0.361170 0.220661
O O17 0.816153 0.819817 0.677210
O O18 0.319534 0.184239 0.093327
O O19 0.250000 0.114528 0.000000
#
# Coordination Sequence:
#
# PCOD8313570 Si02
#       8
#    16  16  16  16  16  16  16  16
#     4   9  17  30  51  75  97 122 163 217 262 306
#     4   9  18  34  51  69  92 123 164 213 258 304
#     4   9  17  32  49  67  96 125 159 209 262 306
#     4  11  22  34  48  68  97 132 167 210 260 316
#     4  11  18  30  56  77  98 132 172 215 253 297
#     4   9  18  30  47  75 102 126 159 204 256 306
#     4  11  22  35  50  72  97 126 170 215 255 305
#     4   9  19  33  49  76 112 145 175 208 250 301
#
# _framework density 17.040582000000001
#
# number of rings (size 3 to 8) (size 9 to 14) (size 15 to 20)
#    0.000    2.250    3.750    1.875    1.750    2.250 
#    0.000    0.625    0.000    3.000    0.000    3.500 
#    0.000    0.000    0.000    3.500    0.000    0.000 
#
# Total GULP energy -1586514.966336 kJ/mol
# GULP energy per Si atom -12394.648174 kJ/mol
# Density = 1.700180 g / cm^3
# Si number density = 17.040582 Si / 1000 Ang^3
#
#
#
# Elastic Constant Matrix: (Units=GPa)
#
#
# Indices 1 2 3 4 5 6 
#
# 1 86.0117 48.6692 33.8720 0.0000 0.0000 0.0000
# 2 48.6692 86.0117 33.8720 0.0000 0.0000 0.0000
# 3 33.8720 33.8720 80.4922 0.0000 0.0000 0.0000
# 4 0.0000 0.0000 0.0000 17.6026 0.0000 0.0000
# 5 0.0000 0.0000 0.0000 0.0000 17.6026 0.0000
# 6 0.0000 0.0000 0.0000 0.0000 0.0000 31.9238
#
#
#
# Elastic Compliance Matrix: (Units=1/GPa)
#
#
# Indices 1 2 3 4 5 6 
#
# 1 0.018099 -0.008680 -0.003963 0.000000 0.000000 0.000000
# 2 -0.008680 0.018099 -0.003963 0.000000 0.000000 0.000000
# 3 -0.003963 -0.003963 0.015759 0.000000 0.000000 0.000000
# 4 0.000000 0.000000 0.000000 0.056810 0.000000 0.000000
# 5 0.000000 0.000000 0.000000 0.000000 0.056810 0.000000
# 6 0.000000 0.000000 0.000000 0.000000 0.000000 0.031325
#
#
# Mechanical properties :
#
#
# Convention : Reuss Voigt Hill
#
# Bulk Modulus (GPa) = 53.35421 53.92687 53.64054
# Shear Modulus (GPa) = 21.15390 22.49929 21.82659
#
# Velocity S-wave (km/s) = 3.52715 3.63758 3.58279
# Velocity P-wave (km/s) = 6.92573 7.02549 6.97579
#
# Compressibility (1/GPa) = 0.01874266
#
# Stress axis : x y z
#
# Youngs Moduli (GPa) = 55.25211 55.25211 63.45469
#
# Poissons Ratio (x) = 0.47961 0.25150
# Poissons Ratio (y) = 0.47961 0.25150
# Poissons Ratio (z) = 0.21899 0.21899
#
# Static dielectric constant tensor:
#      x y z
#    x 3.610470 0.000000 0.000000 
#    y 0.000000 3.610470 0.000000 
#    z 0.000000 0.000000 2.844270 
# 
# 
# High freq. dielectric constant tensor:
#      x y z
#    x 1.666700 0.000000 0.000000 
#    y 0.000000 1.666700 0.000000 
#    z 0.000000 0.000000 1.602010 
# 
# From -- ./inp_files/5619.got.cif
#   From: 2010.03.12/outbox.cif.g09.slc.cpg/sg125_3_cif.got.tgz:5619.got - 2010.04.06 16:47:52.
