data_PCOD8313538
_publ_section_title
;
Structure prediction by ZEFSAII (Michael W. Deem and Ramdas Pophale) SiO2 
 PCOD8313538
Probable space group: P 4/N B M
;
_chemical_formula_sum "Si O2"
_cell_formula_units_Z 96
_cell_length_a 13.298800
_cell_length_b 13.298800
_cell_length_c 29.978981
_cell_angle_alpha 90.000000
_cell_angle_beta 90.000000
_cell_angle_gamma 90.000000
_cell_volume 5302.025063
_symmetry_space_group_name_H-M "P 4/N B M"
_symmetry_group_IT_number 125
_space_group.IT_coordinate_system_code '2'
_symmetry_cell_setting 'tetragonal'
loop_
_space_group_symop_operation_xyz
x,y,z
1/2-y,x,z
1/2-x,1/2-y,z
y,1/2-x,z
x,1/2-y,-z
1/2-x,y,-z
y,x,-z
1/2-y,1/2-x,-z
-x,-y,-z
1/2+y,-x,-z
1/2+x,1/2+y,-z
-y,1/2+x,-z
-x,1/2+y,z
1/2+x,-y,z
-y,-x,z
1/2+y,1/2+x,z
loop_
_atom_site_type_symbol
_atom_site_label
_atom_site_fract_x
_atom_site_fract_y
_atom_site_fract_z
Si Si1 0.628771 0.128771 0.998000
Si Si2 0.258073 0.415710 0.548922
Si Si3 0.017689 0.137162 0.680053
Si Si4 0.146471 0.121750 0.231560
Si Si5 0.501292 0.498709 0.931803
Si Si6 0.998757 0.334987 0.634590
Si Si7 0.374078 0.360488 0.867638
O O1 0.577194 0.077194 0.954595
O O2 0.608777 0.250000 0.000000
O O3 0.571161 0.071161 0.037421
O O4 0.156618 0.353512 0.554079
O O5 0.250000 0.467897 0.500000
O O6 0.274875 0.498073 0.587501
O O7 0.054598 0.101050 0.728963
O O8 0.006448 0.255959 0.674938
O O9 0.091823 0.093721 0.641835
O O10 0.907839 0.092162 0.672672
O O11 0.265076 0.111630 0.237393
O O12 0.111992 0.086851 0.182222
O O13 0.437822 0.421870 0.902720
O O14 0.894287 0.394287 0.637526
O O15 0.258047 0.389324 0.874855
#
# Coordination Sequence:
#
# PCOD8313538 Si02
#       7
#     8  16  16  16   8  16  16
#     4  10  22  38  56  82 116 148 192 240 280 336
#     4   9  17  32  56  82 106 130 172 228 279 322
#     4  11  22  34  54  80 107 145 186 224 271 326
#     4   9  17  32  54  79 107 141 181 230 278 319
#     4  11  20  34  60  84 106 154 192 228 289 332
#     4  11  22  36  55  82 110 143 182 227 279 330
#     4   9  19  34  52  80 114 143 180 230 282 335
#
# _framework density 18.106289
#
# number of rings (size 3 to 8) (size 9 to 14) (size 15 to 20)
#    0.000    2.083    3.333    2.500    1.167    0.667 
#    0.000    2.500    0.000    4.000    0.000    0.000 
#    0.000    0.000    0.000    0.000    0.000    0.000 
#
# Total GULP energy -1189444.781738 kJ/mol
# GULP energy per Si atom -12390.049810 kJ/mol
# Density = 1.806508 g / cm^3
# Si number density = 18.106289 Si / 1000 Ang^3
#
#
#
# Elastic Constant Matrix: (Units=GPa)
#
#
# Indices 1 2 3 4 5 6 
#
# 1 73.8872 47.5117 43.3958 0.0000 0.0000 0.0000
# 2 47.5117 73.8872 43.3958 0.0000 0.0000 0.0000
# 3 43.3958 43.3958 127.9685 0.0000 0.0000 0.0000
# 4 0.0000 0.0000 0.0000 16.5573 0.0000 0.0000
# 5 0.0000 0.0000 0.0000 0.0000 16.5573 0.0000
# 6 0.0000 0.0000 0.0000 0.0000 0.0000 25.3547
#
#
#
# Elastic Compliance Matrix: (Units=1/GPa)
#
#
# Indices 1 2 3 4 5 6 
#
# 1 0.024394 -0.013520 -0.003687 0.000000 0.000000 0.000000
# 2 -0.013520 0.024394 -0.003687 0.000000 0.000000 0.000000
# 3 -0.003687 -0.003687 0.010315 0.000000 0.000000 0.000000
# 4 0.000000 0.000000 0.000000 0.060396 0.000000 0.000000
# 5 0.000000 0.000000 0.000000 0.000000 0.060396 0.000000
# 6 0.000000 0.000000 0.000000 0.000000 0.000000 0.039440
#
#
# Mechanical properties :
#
#
# Convention : Reuss Voigt Hill
#
# Bulk Modulus (GPa) = 57.76046 60.48330 59.12188
# Shear Modulus (GPa) = 18.73386 21.12318 19.92852
#
# Velocity S-wave (km/s) = 3.22010 3.41929 3.32119
# Velocity P-wave (km/s) = 6.76723 7.00470 6.88699
#
# Compressibility (1/GPa) = 0.01731288
#
# Stress axis : x y z
#
# Youngs Moduli (GPa) = 40.99413 40.99413 96.94365
#
# Poissons Ratio (x) = 0.55425 0.35746
# Poissons Ratio (y) = 0.55425 0.35746
# Poissons Ratio (z) = 0.15116 0.15116
#
# Static dielectric constant tensor:
#      x y z
#    x 3.141280 0.000000 0.000000 
#    y 0.000000 3.141280 0.000000 
#    z 0.000000 0.000000 3.535410 
# 
# 
# High freq. dielectric constant tensor:
#      x y z
#    x 1.684140 0.000000 0.000000 
#    y 0.000000 1.684140 0.000000 
#    z 0.000000 0.000000 1.715230 
# 
# From -- ./inp_files/6402.got.cif
#   From: 2010.03.12/outbox.cif.g09.slc.cpg/sg125_4_cif.got.tgz:6402.got - 2010.04.06 16:47:52.
