data_PCOD8313335
_publ_section_title
;
Structure prediction by ZEFSAII (Michael W. Deem and Ramdas Pophale) SiO2 
 PCOD8313335
Probable space group: P 4/M C C
;
_chemical_formula_sum "Si O2"
_cell_formula_units_Z 72
_cell_length_a 14.449152
_cell_length_b 14.449152
_cell_length_c 15.371417
_cell_angle_alpha 90.000000
_cell_angle_beta 90.000000
_cell_angle_gamma 90.000000
_cell_volume 3209.213599
_symmetry_space_group_name_H-M "P 4/M C C"
_symmetry_group_IT_number 124
_symmetry_cell_setting 'tetragonal'
loop_
_space_group_symop_operation_xyz
x,y,z
-y,x,z
-x,-y,z
y,-x,z
x,-y,1/2-z
-x,y,1/2-z
y,x,1/2-z
-y,-x,1/2-z
-x,-y,-z
y,-x,-z
x,y,-z
-y,x,-z
-x,y,1/2+z
x,-y,1/2+z
-y,-x,1/2+z
y,x,1/2+z
loop_
_atom_site_type_symbol
_atom_site_label
_atom_site_fract_x
_atom_site_fract_y
_atom_site_fract_z
Si Si1 0.144774 0.968105 0.898212
Si Si2 0.656295 0.021547 0.846336
Si Si3 0.295395 0.295395 0.750000
Si Si4 0.545361 0.805164 0.336007
Si Si5 0.819760 0.355955 0.904628
O O1 0.108424 0.069748 0.872537
O O2 0.236730 0.948369 0.844654
O O3 0.166676 0.964520 0.000000
O O4 0.602222 0.111983 0.882166
O O5 0.622635 0.000000 0.750000
O O6 0.638279 0.931379 0.905090
O O7 0.390752 0.282910 0.694319
O O8 0.291186 0.214672 0.824142
O O9 0.500000 0.849266 0.250000
O O10 0.459449 0.774824 0.397188
O O11 0.790028 0.316437 0.000000
#
# Coordination Sequence:
#
# PCOD8313335 Si02
#       5
#    16  16   8  16  16
#     4   9  21  39  54  79 127 177 219 265 311 364
#     4  12  22  35  64  89 129 172 225 271 324 379
#     4  10  22  42  70  95 135 172 212 276 336 398
#     4  10  22  41  64  92 130 175 210 271 336 398
#     4  11  25  42  65 100 133 173 226 274 335 411
#
# _framework density 22.435400999999999
#
# number of rings (size 3 to 8) (size 9 to 14) (size 15 to 20)
#    0.000    1.556    4.444    2.000    3.111    4.444 
#    0.000    1.111    0.000   27.000    0.000   14.000 
#    0.000    0.000    0.000    0.000    0.000    0.000 
#
# Total GULP energy -892026.234231 kJ/mol
# GULP energy per Si atom -12389.253253 kJ/mol
# Density = 2.238434 g / cm^3
# Si number density = 22.435401 Si / 1000 Ang^3
#
#
#
# Elastic Constant Matrix: (Units=GPa)
#
#
# Indices 1 2 3 4 5 6 
#
# 1 101.3870 36.4221 19.0733 0.0000 0.0000 0.0000
# 2 36.4221 101.3870 19.0733 0.0000 0.0000 0.0000
# 3 19.0733 19.0733 102.7204 0.0000 0.0000 0.0000
# 4 0.0000 0.0000 0.0000 25.0402 0.0000 0.0000
# 5 0.0000 0.0000 0.0000 0.0000 25.0402 0.0000
# 6 0.0000 0.0000 0.0000 0.0000 0.0000 34.5164
#
#
#
# Elastic Compliance Matrix: (Units=1/GPa)
#
#
# Indices 1 2 3 4 5 6 
#
# 1 0.011521 -0.003872 -0.001420 0.000000 0.000000 0.000000
# 2 -0.003872 0.011521 -0.001420 0.000000 0.000000 0.000000
# 3 -0.001420 -0.001420 0.010263 0.000000 0.000000 0.000000
# 4 0.000000 0.000000 0.000000 0.039936 0.000000 0.000000
# 5 0.000000 0.000000 0.000000 0.000000 0.039936 0.000000
# 6 0.000000 0.000000 0.000000 0.000000 0.000000 0.028972
#
#
# Mechanical properties :
#
#
# Convention : Reuss Voigt Hill
#
# Bulk Modulus (GPa) = 50.30111 50.51462 50.40786
# Shear Modulus (GPa) = 30.82611 32.31440 31.57026
#
# Velocity S-wave (km/s) = 3.71076 3.79929 3.75529
# Velocity P-wave (km/s) = 6.38974 6.46611 6.42804
#
# Compressibility (1/GPa) = 0.01988028
#
# Stress axis : x y z
#
# Youngs Moduli (GPa) = 86.79610 86.79610 97.44074
#
# Poissons Ratio (x) = 0.33605 0.13840
# Poissons Ratio (y) = 0.33605 0.13840
# Poissons Ratio (z) = 0.12328 0.12328
#
# Static dielectric constant tensor:
#      x y z
#    x 4.124400 0.000000 0.000000 
#    y 0.000000 4.124400 0.000000 
#    z 0.000000 0.000000 3.955980 
# 
# 
# High freq. dielectric constant tensor:
#      x y z
#    x 1.870270 0.000000 0.000000 
#    y 0.000000 1.870270 0.000000 
#    z 0.000000 0.000000 1.871310 
# 
# From -- ./inp_files/4092.got.cif
#   From: 2010.03.12/outbox.cif.g09.slc.cpg/sg124_3_cif.got.tgz:4092.got - 2010.04.06 16:38:57.
