data_PCOD8313174
_publ_section_title
;
Structure prediction by ZEFSAII (Michael W. Deem and Ramdas Pophale) SiO2 
 PCOD8313174
Probable space group: P 4/M C C
;
_chemical_formula_sum "Si O2"
_cell_formula_units_Z 88
_cell_length_a 18.183555
_cell_length_b 18.183555
_cell_length_c 14.800352
_cell_angle_alpha 90.000000
_cell_angle_beta 90.000000
_cell_angle_gamma 90.000000
_cell_volume 4893.613138
_symmetry_space_group_name_H-M "P 4/M C C"
_symmetry_group_IT_number 124
_symmetry_cell_setting 'tetragonal'
loop_
_space_group_symop_operation_xyz
x,y,z
-y,x,z
-x,-y,z
y,-x,z
x,-y,1/2-z
-x,y,1/2-z
y,x,1/2-z
-y,-x,1/2-z
-x,-y,-z
y,-x,-z
x,y,-z
-y,x,-z
-x,y,1/2+z
x,-y,1/2+z
-y,-x,1/2+z
y,x,1/2+z
loop_
_atom_site_type_symbol
_atom_site_label
_atom_site_fract_x
_atom_site_fract_y
_atom_site_fract_z
Si Si1 0.190280 0.306591 0.264329
Si Si2 0.849394 0.592205 0.897449
Si Si3 0.370731 0.990042 0.601615
Si Si4 0.048514 0.220595 0.328144
Si Si5 0.570587 0.162161 0.605955
Si Si6 0.961597 0.883136 0.500000
O O1 0.266305 0.266305 0.250000
O O2 0.172981 0.342781 0.168058
O O3 0.129135 0.247730 0.296807
O O4 0.208496 0.369771 0.338175
O O5 0.937189 0.580616 0.890783
O O6 0.814412 0.513168 0.870640
O O7 0.827231 0.614058 0.000000
O O8 0.349792 0.970326 0.500000
O O9 0.292731 0.000140 0.650610
O O10 0.417238 0.921813 0.640516
O O11 0.056723 0.164906 0.411522
O O12 0.000000 0.180258 0.250000
O O13 0.585326 0.172710 0.500000
O O14 0.046572 0.907807 0.500000
#
# Coordination Sequence:
#
# PCOD8313174 Si02
#       6
#    16  16  16  16  16   8
#     4  11  24  36  52  84 113 153 187 230 281 339
#     4  10  19  34  55  82 113 149 183 223 272 339
#     4   9  16  31  52  81 110 135 169 215 271 337
#     4  11  22  39  59  82 106 137 187 240 300 346
#     4   9  19  34  55  80 114 148 184 224 274 338
#     4  11  28  46  62  76  95 140 202 270 321 344
#
# _framework density 17.982621999999999
#
# number of rings (size 3 to 8) (size 9 to 14) (size 15 to 20)
#    0.000    1.909    2.727    1.091    3.818    2.909 
#    0.000    2.727    0.000    0.000    0.000    0.000 
#    0.000    5.818    0.000   16.000    0.000    0.000 
#
# Total GULP energy -1090692.623567 kJ/mol
# GULP energy per Si atom -12394.234359 kJ/mol
# Density = 1.794169 g / cm^3
# Si number density = 17.982622 Si / 1000 Ang^3
#
#
#
# Elastic Constant Matrix: (Units=GPa)
#
#
# Indices 1 2 3 4 5 6 
#
# 1 82.5857 47.3616 52.4605 0.0000 0.0000 0.0000
# 2 47.3616 82.5857 52.4605 0.0000 0.0000 0.0000
# 3 52.4605 52.4605 110.5740 0.0000 0.0000 0.0000
# 4 0.0000 0.0000 0.0000 24.4419 0.0000 0.0000
# 5 0.0000 0.0000 0.0000 0.0000 24.4419 0.0000
# 6 0.0000 0.0000 0.0000 0.0000 0.0000 21.5386
#
#
#
# Elastic Compliance Matrix: (Units=1/GPa)
#
#
# Indices 1 2 3 4 5 6 
#
# 1 0.020432 -0.007958 -0.005918 0.000000 0.000000 0.000000
# 2 -0.007958 0.020432 -0.005918 0.000000 0.000000 0.000000
# 3 -0.005918 -0.005918 0.014659 0.000000 0.000000 0.000000
# 4 0.000000 0.000000 0.000000 0.040913 0.000000 0.000000
# 5 0.000000 0.000000 0.000000 0.000000 0.040913 0.000000
# 6 0.000000 0.000000 0.000000 0.000000 0.000000 0.046428
#
#
# Mechanical properties :
#
#
# Convention : Reuss Voigt Hill
#
# Bulk Modulus (GPa) = 62.75668 64.47899 63.61783
# Shear Modulus (GPa) = 21.86490 22.31532 22.09011
#
# Velocity S-wave (km/s) = 3.49074 3.52652 3.50868
# Velocity P-wave (km/s) = 7.15691 7.24678 7.20199
#
# Compressibility (1/GPa) = 0.01593456
#
# Stress axis : x y z
#
# Youngs Moduli (GPa) = 48.94363 48.94363 68.21672
#
# Poissons Ratio (x) = 0.38949 0.40371
# Poissons Ratio (y) = 0.38949 0.40371
# Poissons Ratio (z) = 0.28965 0.28965
#
# Static dielectric constant tensor:
#      x y z
#    x 3.095340 0.000000 0.000000 
#    y 0.000000 3.095340 0.000000 
#    z 0.000000 0.000000 3.594260 
# 
# 
# High freq. dielectric constant tensor:
#      x y z
#    x 1.666750 0.000000 0.000000 
#    y 0.000000 1.666750 0.000000 
#    z 0.000000 0.000000 1.717070 
# 
# From -- ./inp_files/3182.got.cif
#   From: 2010.03.12/outbox.cif.g09.slc.cpg/sg124_2_cif.got.tgz:3182.got - 2010.04.06 16:38:57.
