data_PCOD8313068
_publ_section_title
;
Structure prediction by ZEFSAII (Michael W. Deem and Ramdas Pophale) SiO2 
 PCOD8313068
Probable space group: P 4/M C C
;
_chemical_formula_sum "Si O2"
_cell_formula_units_Z 96
_cell_length_a 25.356450
_cell_length_b 25.356450
_cell_length_c 8.871988
_cell_angle_alpha 90.000000
_cell_angle_beta 90.000000
_cell_angle_gamma 90.000000
_cell_volume 5704.240751
_symmetry_space_group_name_H-M "P 4/M C C"
_symmetry_group_IT_number 124
_symmetry_cell_setting 'tetragonal'
loop_
_space_group_symop_operation_xyz
x,y,z
-y,x,z
-x,-y,z
y,-x,z
x,-y,1/2-z
-x,y,1/2-z
y,x,1/2-z
-y,-x,1/2-z
-x,-y,-z
y,-x,-z
x,y,-z
-y,x,-z
-x,y,1/2+z
x,-y,1/2+z
-y,-x,1/2+z
y,x,1/2+z
loop_
_atom_site_type_symbol
_atom_site_label
_atom_site_fract_x
_atom_site_fract_y
_atom_site_fract_z
Si Si1 0.137178 0.552130 0.821324
Si Si2 0.863548 0.658239 0.178588
Si Si3 0.665284 0.744142 0.326999
Si Si4 0.251224 0.450616 0.824221
Si Si5 0.865231 0.945054 0.321587
Si Si6 0.744677 0.053709 0.176133
O O1 0.109086 0.500000 0.750000
O O2 0.111809 0.606181 0.757506
O O3 0.197479 0.552081 0.768752
O O4 0.131957 0.550384 0.000000
O O5 0.803844 0.668700 0.236071
O O6 0.898044 0.708233 0.229705
O O7 0.864107 0.648701 0.000000
O O8 0.707159 0.707159 0.250000
O O9 0.680770 0.745149 0.500000
O O10 0.606015 0.720374 0.303092
O O11 0.283938 0.500000 0.750000
O O12 0.239624 0.461173 0.000000
O O13 0.898032 0.898032 0.250000
O O14 0.873794 0.947104 0.500000
O O15 0.804658 0.933995 0.276273
O O16 0.884516 0.000000 0.250000
O O17 0.724060 0.000000 0.250000
O O18 0.740226 0.045343 0.000000
#
# Coordination Sequence:
#
# PCOD8313068 Si02
#       6
#    16  16  16  16  16  16
#     4  10  17  26  43  67  91 118 152 192 233 276
#     4   9  18  33  48  66  93 125 156 190 231 276
#     4   9  18  29  42  63  94 125 153 185 226 270
#     4   9  16  27  42  61  86 119 156 193 230 273
#     4  10  20  35  54  77 101 127 156 191 233 280
#     4   9  19  35  54  72  95 124 156 193 232 272
#
# _framework density 16.829584000000001
#
# number of rings (size 3 to 8) (size 9 to 14) (size 15 to 20)
#    0.000    2.667    0.000    4.500    0.000    5.500 
#    0.000    0.833    0.000    0.500    0.000    3.500 
#    0.000    0.333    0.000    3.667    0.000    2.833 
#
# Total GULP energy -1189747.641746 kJ/mol
# GULP energy per Si atom -12393.204602 kJ/mol
# Density = 1.679128 g / cm^3
# Si number density = 16.829584 Si / 1000 Ang^3
#
#
#
# Elastic Constant Matrix: (Units=GPa)
#
#
# Indices 1 2 3 4 5 6 
#
# 1 101.5720 67.6068 42.7575 0.0000 0.0000 0.0000
# 2 67.6068 101.5720 42.7575 0.0000 0.0000 0.0000
# 3 42.7575 42.7575 76.7533 0.0000 0.0000 0.0000
# 4 0.0000 0.0000 0.0000 26.3871 0.0000 0.0000
# 5 0.0000 0.0000 0.0000 0.0000 26.3871 0.0000
# 6 0.0000 0.0000 0.0000 0.0000 0.0000 0.7635
#
#
#
# Elastic Compliance Matrix: (Units=1/GPa)
#
#
# Indices 1 2 3 4 5 6 
#
# 1 0.018835 -0.010607 -0.004583 0.000000 0.000000 0.000000
# 2 -0.010607 0.018835 -0.004583 0.000000 0.000000 0.000000
# 3 -0.004583 -0.004583 0.018135 0.000000 0.000000 0.000000
# 4 0.000000 0.000000 0.000000 0.037897 0.000000 0.000000
# 5 0.000000 0.000000 0.000000 0.000000 0.037897 0.000000
# 6 0.000000 0.000000 0.000000 0.000000 0.000000 1.309744
#
#
# Mechanical properties :
#
#
# Convention : Reuss Voigt Hill
#
# Bulk Modulus (GPa) = 61.51198 65.12678 63.31938
# Shear Modulus (GPa) = 3.36403 19.15923 11.26163
#
# Velocity S-wave (km/s) = 1.41535 3.37772 2.58961
# Velocity P-wave (km/s) = 6.26899 7.34804 6.82986
#
# Compressibility (1/GPa) = 0.01625700
#
# Stress axis : x y z
#
# Youngs Moduli (GPa) = 53.09321 53.09321 55.14065
#
# Poissons Ratio (x) = 0.56316 0.25274
# Poissons Ratio (y) = 0.56316 0.25274
# Poissons Ratio (z) = 0.24335 0.24335
#
# Static dielectric constant tensor:
#      x y z
#    x 3.372220 0.000000 0.000000 
#    y 0.000000 3.372220 0.000000 
#    z 0.000000 0.000000 3.206520 
# 
# 
# High freq. dielectric constant tensor:
#      x y z
#    x 1.632060 0.000000 0.000000 
#    y 0.000000 1.632060 0.000000 
#    z 0.000000 0.000000 1.655400 
# 
# From -- ./inp_files/1511.got.cif
#   From: 2010.03.12/outbox.cif.g09.slc.cpg/sg124_1_cif.got.tgz:1511.got - 2010.04.06 16:38:57.
