data_PCOD8313916
_publ_section_title
;
Structure prediction by ZEFSAII (Michael W. Deem and Ramdas Pophale) SiO2 
 PCOD8313916
Probable space group: P 4/M B M
;
_chemical_formula_sum "Si O2"
_cell_formula_units_Z 96
_cell_length_a 24.870711
_cell_length_b 24.870711
_cell_length_c 9.275787
_cell_angle_alpha 90.000000
_cell_angle_beta 90.000000
_cell_angle_gamma 90.000000
_cell_volume 5737.559064
_symmetry_space_group_name_H-M "P 4/M B M"
_symmetry_group_IT_number 127
_symmetry_cell_setting 'tetragonal'
loop_
_space_group_symop_operation_xyz
x,y,z
-y,x,z
-x,-y,z
y,-x,z
1/2+x,1/2-y,-z
1/2-x,1/2+y,-z
1/2+y,1/2+x,-z
1/2-y,1/2-x,-z
-x,-y,-z
y,-x,-z
x,y,-z
-y,x,-z
1/2-x,1/2+y,z
1/2+x,1/2-y,z
1/2-y,1/2-x,z
1/2+y,1/2+x,z
loop_
_atom_site_type_symbol
_atom_site_label
_atom_site_fract_x
_atom_site_fract_y
_atom_site_fract_z
Si Si1 0.250162 0.835323 0.171986
Si Si2 0.752533 0.837092 0.836116
Si Si3 0.254834 0.556375 0.338166
Si Si4 0.955255 0.754893 0.839549
Si Si5 0.119152 0.955184 0.839653
Si Si6 0.118018 0.054898 0.661784
O O1 0.302331 0.802331 0.225497
O O2 0.195768 0.804657 0.224611
O O3 0.255540 0.896277 0.231381
O O4 0.247495 0.836527 0.000000
O O5 0.701194 0.798807 0.829627
O O6 0.738436 0.889149 0.742277
O O7 0.763539 0.855919 0.000000
O O8 0.231149 0.557674 0.500000
O O9 0.230770 0.503268 0.258644
O O10 0.318463 0.552629 0.342610
O O11 0.963206 0.817948 0.853304
O O12 0.958914 0.729049 0.000000
O O13 0.106960 0.900289 0.752935
O O14 0.093803 0.003656 0.746559
O O15 0.093701 0.953202 0.000000
O O16 0.094536 0.056833 0.500000
#
# Coordination Sequence:
#
# PCOD8313916 Si02
#       6
#    16  16  16  16  16  16
#     4   8  14  26  46  71  94 116 146 185 227 268
#     4   9  17  30  49  71  94 120 151 188 228 270
#     4  10  20  31  44  63  89 119 148 180 217 261
#     4   9  17  29  46  65  86 114 146 180 216 258
#     4  10  19  30  44  60  76 101 141 183 219 258
#     4  10  20  32  43  57  79 107 138 176 223 265
#
# _framework density 16.731853999999998
#
# number of rings (size 3 to 8) (size 9 to 14) (size 15 to 20)
#    0.000    2.667    0.000    3.500    0.000    4.667 
#    0.000    2.500    0.000    1.500    0.000    0.000 
#    0.000    0.667    0.000    7.667    0.000    2.167 
#
# Total GULP energy -1189786.809063 kJ/mol
# GULP energy per Si atom -12393.612594 kJ/mol
# Density = 1.669377 g / cm^3
# Si number density = 16.731854 Si / 1000 Ang^3
#
#
#
# Elastic Constant Matrix: (Units=GPa)
#
#
# Indices 1 2 3 4 5 6 
#
# 1 74.9580 13.3608 31.9802 0.0000 0.0000 0.0000
# 2 13.3608 74.9580 31.9802 0.0000 0.0000 0.0000
# 3 31.9802 31.9802 104.6828 0.0000 0.0000 0.0000
# 4 0.0000 0.0000 0.0000 16.4438 0.0000 0.0000
# 5 0.0000 0.0000 0.0000 0.0000 16.4438 0.0000
# 6 0.0000 0.0000 0.0000 0.0000 0.0000 17.5329
#
#
#
# Elastic Compliance Matrix: (Units=1/GPa)
#
#
# Indices 1 2 3 4 5 6 
#
# 1 0.015387 -0.000848 -0.004442 0.000000 0.000000 0.000000
# 2 -0.000848 0.015387 -0.004442 0.000000 0.000000 0.000000
# 3 -0.004442 -0.004442 0.012267 0.000000 0.000000 0.000000
# 4 0.000000 0.000000 0.000000 0.060813 0.000000 0.000000
# 5 0.000000 0.000000 0.000000 0.000000 0.060813 0.000000
# 6 0.000000 0.000000 0.000000 0.000000 0.000000 0.057036
#
#
# Mechanical properties :
#
#
# Convention : Reuss Voigt Hill
#
# Bulk Modulus (GPa) = 42.41185 45.47121 43.94153
# Shear Modulus (GPa) = 20.07837 21.90258 20.99047
#
# Velocity S-wave (km/s) = 3.46787 3.62198 3.54577
# Velocity P-wave (km/s) = 6.43722 6.68783 6.56372
#
# Compressibility (1/GPa) = 0.02357832
#
# Stress axis : x y z
#
# Youngs Moduli (GPa) = 64.99035 64.99035 81.52281
#
# Poissons Ratio (x) = 0.05509 0.36210
# Poissons Ratio (y) = 0.05509 0.36210
# Poissons Ratio (z) = 0.28867 0.28867
#
# Static dielectric constant tensor:
#      x y z
#    x 3.003800 0.000000 0.000000 
#    y 0.000000 3.003800 0.000000 
#    z 0.000000 0.000000 3.365290 
# 
# 
# High freq. dielectric constant tensor:
#      x y z
#    x 1.616740 0.000000 0.000000 
#    y 0.000000 1.616740 0.000000 
#    z 0.000000 0.000000 1.639870 
# 
# From -- ./inp_files/1960.got.cif
#   From: 2010.03.12/outbox.cif.g09.slc.cpg/sg127_1_cif.got.tgz:1960.got - 2010.04.06 17:03:15.
