data_PCOD8313684
_publ_section_title
;
Structure prediction by ZEFSAII (Michael W. Deem and Ramdas Pophale) SiO2 
 PCOD8313684
Probable space group: P 4/N N C
;
_chemical_formula_sum "Si O2"
_cell_formula_units_Z 80
_cell_length_a 30.293361
_cell_length_b 30.293361
_cell_length_c 5.232644
_cell_angle_alpha 90.000000
_cell_angle_beta 90.000000
_cell_angle_gamma 90.000000
_cell_volume 4801.933145
_symmetry_space_group_name_H-M "P 4/N N C"
_symmetry_group_IT_number 126
_space_group.IT_coordinate_system_code '2'
_symmetry_cell_setting 'tetragonal'
loop_
_space_group_symop_operation_xyz
x,y,z
1/2-y,x,z
1/2-x,1/2-y,z
y,1/2-x,z
x,1/2-y,1/2-z
1/2-x,y,1/2-z
y,x,1/2-z
1/2-y,1/2-x,1/2-z
-x,-y,-z
1/2+y,-x,-z
1/2+x,1/2+y,-z
-y,1/2+x,-z
-x,1/2+y,1/2+z
1/2+x,-y,1/2+z
-y,-x,1/2+z
1/2+y,1/2+x,1/2+z
loop_
_atom_site_type_symbol
_atom_site_label
_atom_site_fract_x
_atom_site_fract_y
_atom_site_fract_z
Si Si1 0.303155 0.134256 0.861020
Si Si2 0.147051 0.024815 0.227035
Si Si3 0.462506 0.299851 0.748864
Si Si4 0.118978 0.381023 0.250000
Si Si5 0.750000 0.677085 0.750000
Si Si6 0.016470 0.555698 0.760655
O O1 0.318671 0.181330 0.750000
O O2 0.298219 0.090624 0.687615
O O3 0.342756 0.122847 0.047679
O O4 0.255593 0.144897 0.002546
O O5 0.176607 0.027680 0.481828
O O6 0.123819 0.070220 0.135014
O O7 0.108129 0.989839 0.272012
O O8 0.176811 0.011556 0.983428
O O9 0.480505 0.250000 0.750000
O O10 0.794088 0.705913 0.750000
O O11 0.047661 0.539652 0.531825
O O12 0.969747 0.530254 0.750000
#
# Coordination Sequence:
#
# PCOD8313684 Si02
#       6
#    16  16  16   8   8  16
#     4  11  23  38  55  64  85 116 155 212 261 337
#     4  11  21  38  56  76 106 129 165 202 258 316
#     4  11  25  36  56  77  96 130 170 218 255 307
#     4  10  20  36  49  72  88 120 158 190 252 324
#     4  11  26  40  50  62  82 108 154 210 290 340
#     4  10  20  34  55  82 110 135 159 199 255 328
#
# _framework density 16.659956999999999
#
# number of rings (size 3 to 8) (size 9 to 14) (size 15 to 20)
#    0.000    1.300    4.000    1.800    8.400    0.000 
#    0.000    1.000    0.000    0.000    0.000    0.000 
#    0.000    0.000    0.000    0.000    0.000    0.000 
#
# Total GULP energy -991436.722844 kJ/mol
# GULP energy per Si atom -12392.959036 kJ/mol
# Density = 1.662204 g / cm^3
# Si number density = 16.659957 Si / 1000 Ang^3
#
#
#
# Elastic Constant Matrix: (Units=GPa)
#
#
# Indices 1 2 3 4 5 6 
#
# 1 72.9211 25.5341 25.0310 0.0000 0.0000 0.0000
# 2 25.5341 72.9277 25.0328 0.0000 0.0000 0.0000
# 3 25.0310 25.0328 97.7457 0.0000 0.0000 0.0000
# 4 0.0000 0.0000 0.0000 19.6254 0.0000 0.0000
# 5 0.0000 0.0000 0.0000 0.0000 19.6256 0.0000
# 6 0.0000 0.0000 0.0000 0.0000 0.0000 21.8484
#
#
#
# Elastic Compliance Matrix: (Units=1/GPa)
#
#
# Indices 1 2 3 4 5 6 
#
# 1 0.016390 -0.004712 -0.002990 0.000000 0.000000 0.000000
# 2 -0.004712 0.016389 -0.002990 0.000000 0.000000 0.000000
# 3 -0.002990 -0.002990 0.011762 0.000000 0.000000 0.000000
# 4 0.000000 0.000000 0.000000 0.050954 0.000000 0.000000
# 5 0.000000 0.000000 0.000000 0.000000 0.050954 0.000000
# 6 0.000000 0.000000 0.000000 0.000000 0.000000 0.045770
#
#
# Mechanical properties :
#
#
# Convention : Reuss Voigt Hill
#
# Bulk Modulus (GPa) = 43.18751 43.86559 43.52655
# Shear Modulus (GPa) = 22.59139 23.41963 23.00551
#
# Velocity S-wave (km/s) = 3.68642 3.75339 3.72006
# Velocity P-wave (km/s) = 6.64070 6.72094 6.68094
#
# Compressibility (1/GPa) = 0.02315484
#
# Stress axis : x y z
#
# Youngs Moduli (GPa) = 61.01298 61.01821 85.01753
#
# Poissons Ratio (x) = 0.28753 0.25424
# Poissons Ratio (y) = 0.28750 0.25424
# Poissons Ratio (z) = 0.18245 0.18247
#
# Static dielectric constant tensor:
#      x y z
#    x 2.997490 0.000000 0.000000 
#    y 0.000000 2.997500 0.000000 
#    z 0.000000 0.000000 3.242920 
# 
# 
# High freq. dielectric constant tensor:
#      x y z
#    x 1.606230 0.000000 0.000000 
#    y 0.000000 1.606230 0.000000 
#    z 0.000000 0.000000 1.662240 
# 
# From -- ./inp_files/611.got.cif
#   From: 2010.03.12/outbox.cif.g09.slc.cpg/sg126_1_cif.got.tgz:611.got - 2010.04.06 16:55:23.
