data_PCOD8313785
_publ_section_title
;
Structure prediction by ZEFSAII (Michael W. Deem and Ramdas Pophale) SiO2 
 PCOD8313785
Probable space group: P 4/N N C
;
_chemical_formula_sum "Si O2"
_cell_formula_units_Z 88
_cell_length_a 17.157848
_cell_length_b 17.157848
_cell_length_c 14.494145
_cell_angle_alpha 90.000000
_cell_angle_beta 90.000000
_cell_angle_gamma 90.000000
_cell_volume 4266.956682
_symmetry_space_group_name_H-M "P 4/N N C"
_symmetry_group_IT_number 126
_space_group.IT_coordinate_system_code '2'
_symmetry_cell_setting 'tetragonal'
loop_
_space_group_symop_operation_xyz
x,y,z
1/2-y,x,z
1/2-x,1/2-y,z
y,1/2-x,z
x,1/2-y,1/2-z
1/2-x,y,1/2-z
y,x,1/2-z
1/2-y,1/2-x,1/2-z
-x,-y,-z
1/2+y,-x,-z
1/2+x,1/2+y,-z
-y,1/2+x,-z
-x,1/2+y,1/2+z
1/2+x,-y,1/2+z
-y,-x,1/2+z
1/2+y,1/2+x,1/2+z
loop_
_atom_site_type_symbol
_atom_site_label
_atom_site_fract_x
_atom_site_fract_y
_atom_site_fract_z
Si Si1 0.899403 0.570563 0.017162
Si Si2 0.731783 0.975692 0.441905
Si Si3 0.042082 0.507770 0.349287
Si Si4 0.551938 0.250000 0.750000
Si Si5 0.859005 0.215132 0.475451
Si Si6 0.119531 0.836033 0.712150
O O1 0.805943 0.564783 0.010025
O O2 0.919657 0.657012 0.053449
O O3 0.930107 0.506851 0.090578
O O4 0.931401 0.552835 0.913589
O O5 0.756988 0.995818 0.337789
O O6 0.706596 0.051830 0.498478
O O7 0.126873 0.537417 0.317690
O O8 0.001965 0.498036 0.250000
O O9 0.605713 0.173814 0.771243
O O10 0.803961 0.167835 0.546035
O O11 0.833858 0.170981 0.382785
O O12 0.102710 0.750000 0.750000
#
# Coordination Sequence:
#
# PCOD8313785 Si02
#       6
#    16  16  16   8  16  16
#     4  11  26  45  69  98 138 180 239 291 346 409
#     4  12  25  44  69  95 134 182 231 295 340 412
#     4  11  24  44  68  99 134 182 229 280 349 422
#     4  12  23  42  64  99 138 178 232 270 349 422
#     4  11  22  39  60  95 135 173 213 270 354 413
#     4  12  24  38  63  99 135 175 217 275 344 421
#
# _framework density 20.623598000000001
#
# number of rings (size 3 to 8) (size 9 to 14) (size 15 to 20)
#    0.000    0.545    5.455    2.455    7.636    0.364 
#    0.000    0.000    0.000    1.091    0.000    1.273 
#    0.000    0.000    0.000    0.000    0.000    0.000 
#
# Total GULP energy -1090351.635922 kJ/mol
# GULP energy per Si atom -12390.359499 kJ/mol
# Density = 2.057666 g / cm^3
# Si number density = 20.623598 Si / 1000 Ang^3
#
#
#
# Elastic Constant Matrix: (Units=GPa)
#
#
# Indices 1 2 3 4 5 6 
#
# 1 53.3945 -8.7005 -1.4205 0.0000 0.0000 0.0000
# 2 -8.7005 53.3940 -1.4202 0.0000 0.0000 0.0000
# 3 -1.4205 -1.4202 74.1418 0.0000 0.0000 0.0000
# 4 0.0000 0.0000 0.0000 21.3261 0.0000 0.0000
# 5 0.0000 0.0000 0.0000 0.0000 21.3258 0.0000
# 6 0.0000 0.0000 0.0000 0.0000 0.0000 38.4968
#
#
#
# Elastic Compliance Matrix: (Units=1/GPa)
#
#
# Indices 1 2 3 4 5 6 
#
# 1 0.019253 0.003149 0.000429 0.000000 0.000000 0.000000
# 2 0.003149 0.019253 0.000429 0.000000 0.000000 0.000000
# 3 0.000429 0.000429 0.013504 0.000000 0.000000 0.000000
# 4 0.000000 0.000000 0.000000 0.046891 0.000000 0.000000
# 5 0.000000 0.000000 0.000000 0.000000 0.046892 0.000000
# 6 0.000000 0.000000 0.000000 0.000000 0.000000 0.025976
#
#
# Mechanical properties :
#
#
# Convention : Reuss Voigt Hill
#
# Bulk Modulus (GPa) = 16.65994 17.53867 17.09930
# Shear Modulus (GPa) = 27.20894 29.06116 28.13505
#
# Velocity S-wave (km/s) = 3.63617 3.75790 3.69754
# Velocity P-wave (km/s) = 5.07195 5.22989 5.15152
#
# Compressibility (1/GPa) = 0.06002424
#
# Stress axis : x y z
#
# Youngs Moduli (GPa) = 51.93989 51.93950 74.05155
#
# Poissons Ratio (x) = -0.16354 -0.03178
# Poissons Ratio (y) = -0.16354 -0.03178
# Poissons Ratio (z) = -0.02229 -0.02229
#
# Static dielectric constant tensor:
#      x y z
#    x 6.299700 0.000000 0.000000 
#    y 0.000000 6.301010 0.000000 
#    z 0.000000 0.000000 3.959150 
# 
# 
# High freq. dielectric constant tensor:
#      x y z
#    x 1.799410 0.000000 0.000000 
#    y 0.000000 1.799410 0.000000 
#    z 0.000000 0.000000 1.816890 
# 
# From -- ./inp_files/3755.got.cif
#   From: 2010.03.12/outbox.cif.g09.slc.cpg/sg126_2_cif.got.tgz:3755.got - 2010.04.06 16:55:23.
