data_PCOD8313532
_publ_section_title
;
Structure prediction by ZEFSAII (Michael W. Deem and Ramdas Pophale) SiO2 
 PCOD8313532
Probable space group: P 4/N B M
;
_chemical_formula_sum "Si O2"
_cell_formula_units_Z 112
_cell_length_a 31.180758
_cell_length_b 31.180758
_cell_length_c 5.297418
_cell_angle_alpha 90.000000
_cell_angle_beta 90.000000
_cell_angle_gamma 90.000000
_cell_volume 5150.359925
_symmetry_space_group_name_H-M "P 4/N B M"
_symmetry_group_IT_number 125
_space_group.IT_coordinate_system_code '2'
_symmetry_cell_setting 'tetragonal'
loop_
_space_group_symop_operation_xyz
x,y,z
1/2-y,x,z
1/2-x,1/2-y,z
y,1/2-x,z
x,1/2-y,-z
1/2-x,y,-z
y,x,-z
1/2-y,1/2-x,-z
-x,-y,-z
1/2+y,-x,-z
1/2+x,1/2+y,-z
-y,1/2+x,-z
-x,1/2+y,z
1/2+x,-y,z
-y,-x,z
1/2+y,1/2+x,z
loop_
_atom_site_type_symbol
_atom_site_label
_atom_site_fract_x
_atom_site_fract_y
_atom_site_fract_z
Si Si1 0.508171 0.360674 0.445099
Si Si2 0.419768 0.297938 0.014928
Si Si3 0.651857 0.221875 0.250382
Si Si4 0.416413 0.152571 0.457091
Si Si5 0.517139 0.946575 0.241299
Si Si6 0.916851 0.349240 0.214571
Si Si7 0.704208 0.483699 0.063347
O O1 0.465236 0.360689 0.615089
O O2 0.499226 0.397377 0.236369
O O3 0.553918 0.370913 0.569782
O O4 0.510095 0.310503 0.352152
O O5 0.396573 0.323919 0.788782
O O6 0.469968 0.296213 0.932165
O O7 0.400711 0.250000 0.000000
O O8 0.412673 0.318392 0.290072
O O9 0.658246 0.250000 0.500000
O O10 0.695028 0.195028 0.199950
O O11 0.612140 0.190296 0.310626
O O12 0.642692 0.250000 0.000000
O O13 0.391096 0.108905 0.500000
O O14 0.541390 0.958611 0.500000
O O15 0.475653 0.975653 0.202644
O O16 0.548331 0.951670 0.000000
O O17 0.886049 0.386049 0.099150
O O18 0.951184 0.333050 0.015746
O O19 0.750000 0.461923 0.000000
#
# Coordination Sequence:
#
# PCOD8313532 Si02
#       7
#    16  16  16  16  16  16  16
#     4  11  24  39  62  91 126 171 220 267 329 390
#     4  10  21  40  63  95 131 174 223 270 317 382
#     4  11  26  47  72 100 128 162 209 271 344 423
#     4  11  22  38  63  96 136 174 218 270 325 378
#     4  10  23  41  62  88 123 169 218 266 313 371
#     4  11  25  41  62  92 128 166 217 273 333 404
#     4  10  23  40  63  88 120 168 218 274 333 395
#
# _framework density 21.746054999999998
#
# number of rings (size 3 to 8) (size 9 to 14) (size 15 to 20)
#    0.000    1.429    1.429    2.571    6.000    4.286 
#    0.000    0.000    0.000    0.000    0.000    0.000 
#    0.000   20.000    0.000    0.000    0.000    0.000 
#
# Total GULP energy -1387480.671803 kJ/mol
# GULP energy per Si atom -12388.220284 kJ/mol
# Density = 2.169656 g / cm^3
# Si number density = 21.746055 Si / 1000 Ang^3
#
#
#
# Elastic Constant Matrix: (Units=GPa)
#
#
# Indices 1 2 3 4 5 6 
#
# 1 89.6008 42.9571 27.0437 0.0000 0.0000 0.0000
# 2 42.9571 89.6078 27.0442 0.0000 0.0000 0.0000
# 3 27.0437 27.0442 109.7432 0.0000 0.0000 0.0000
# 4 0.0000 0.0000 0.0000 31.0628 0.0000 0.0000
# 5 0.0000 0.0000 0.0000 0.0000 31.0622 0.0000
# 6 0.0000 0.0000 0.0000 0.0000 0.0000 24.2104
#
#
#
# Elastic Compliance Matrix: (Units=1/GPa)
#
#
# Indices 1 2 3 4 5 6 
#
# 1 0.014913 -0.006525 -0.002067 0.000000 0.000000 0.000000
# 2 -0.006525 0.014912 -0.002067 0.000000 0.000000 0.000000
# 3 -0.002067 -0.002067 0.010131 0.000000 0.000000 0.000000
# 4 0.000000 0.000000 0.000000 0.032193 0.000000 0.000000
# 5 0.000000 0.000000 0.000000 0.000000 0.032193 0.000000
# 6 0.000000 0.000000 0.000000 0.000000 0.000000 0.041305
#
#
# Mechanical properties :
#
#
# Convention : Reuss Voigt Hill
#
# Bulk Modulus (GPa) = 53.65505 53.67132 53.66318
# Shear Modulus (GPa) = 28.87229 30.06087 29.46658
#
# Velocity S-wave (km/s) = 3.64772 3.72204 3.68507
# Velocity P-wave (km/s) = 6.51676 6.57313 6.54500
#
# Compressibility (1/GPa) = 0.01863758
#
# Stress axis : x y z
#
# Youngs Moduli (GPa) = 67.05629 67.06169 98.70873
#
# Poissons Ratio (x) = 0.43760 0.20402
# Poissons Ratio (y) = 0.43756 0.20400
# Poissons Ratio (z) = 0.13860 0.13860
#
# Static dielectric constant tensor:
#      x y z
#    x 4.001510 0.000000 0.000000 
#    y 0.000000 4.001500 0.000000 
#    z 0.000000 0.000000 3.857260 
# 
# 
# High freq. dielectric constant tensor:
#      x y z
#    x 1.851260 0.000000 0.000000 
#    y 0.000000 1.851260 0.000000 
#    z 0.000000 0.000000 1.846020 
# 
# From -- ./inp_files/1356.got.cif
#   From: 2010.03.12/outbox.cif.g09.slc.cpg/sg125_1_cif.got.tgz:1356.got - 2010.04.06 16:47:52.
