data_PCOD8313850
_publ_section_title
;
Structure prediction by ZEFSAII (Michael W. Deem and Ramdas Pophale) SiO2 
 PCOD8313850
Probable space group: P 4/M B M
;
_chemical_formula_sum "Si O2"
_cell_formula_units_Z 96
_cell_length_a 15.437104
_cell_length_b 15.437104
_cell_length_c 23.969299
_cell_angle_alpha 90.000000
_cell_angle_beta 90.000000
_cell_angle_gamma 90.000000
_cell_volume 5711.984141
_symmetry_space_group_name_H-M "P 4/M B M"
_symmetry_group_IT_number 127
_symmetry_cell_setting 'tetragonal'
loop_
_space_group_symop_operation_xyz
x,y,z
-y,x,z
-x,-y,z
y,-x,z
1/2+x,1/2-y,-z
1/2-x,1/2+y,-z
1/2+y,1/2+x,-z
1/2-y,1/2-x,-z
-x,-y,-z
y,-x,-z
x,y,-z
-y,x,-z
1/2-x,1/2+y,z
1/2+x,1/2-y,z
1/2-y,1/2-x,z
1/2+y,1/2+x,z
loop_
_atom_site_type_symbol
_atom_site_label
_atom_site_fract_x
_atom_site_fract_y
_atom_site_fract_z
Si Si1 0.812688 0.542995 0.740977
Si Si2 0.358145 0.995820 0.937777
Si Si3 0.784690 0.423468 0.837738
Si Si4 0.866475 0.955158 0.435513
Si Si5 0.262799 0.092914 0.657561
Si Si6 0.179330 0.175526 0.759682
O O1 0.886750 0.613251 0.734160
O O2 0.836159 0.475136 0.789304
O O3 0.805856 0.494602 0.681768
O O4 0.721042 0.586260 0.759456
O O5 0.431948 0.068053 0.933324
O O6 0.280866 0.015708 0.893218
O O7 0.402592 0.902592 0.924796
O O8 0.317691 0.995030 0.000000
O O9 0.839775 0.339775 0.854212
O O10 0.691765 0.390993 0.812571
O O11 0.840919 0.946520 0.500000
O O12 0.783092 0.927562 0.400520
O O13 0.946427 0.892211 0.421268
O O14 0.335521 0.164480 0.646237
O O15 0.190712 0.124288 0.701831
O O16 0.254731 0.245270 0.764413
#
# Coordination Sequence:
#
# PCOD8313850 Si02
#       6
#    16  16  16  16  16  16
#     4  10  18  28  44  64  88 117 145 178 222 269
#     4   8  13  21  35  57  83 109 139 177 220 267
#     4   9  16  26  41  60  82 110 145 182 220 265
#     4   9  18  33  52  71  90 116 153 193 227 261
#     4  10  19  30  46  68  93 119 146 180 224 273
#     4   8  16  28  40  59  86 114 143 174 213 262
#
# _framework density 16.80677
#
# number of rings (size 3 to 8) (size 9 to 14) (size 15 to 20)
#    0.000    3.000    0.000    4.000    0.000    2.333 
#    0.000    0.000    0.000    7.000    0.000    5.833 
#    0.000    0.000    0.000    6.000    0.000    5.333 
#
# Total GULP energy -1189563.772098 kJ/mol
# GULP energy per Si atom -12391.289293 kJ/mol
# Density = 1.676852 g / cm^3
# Si number density = 16.806770 Si / 1000 Ang^3
#
#
#
# Elastic Constant Matrix: (Units=GPa)
#
#
# Indices 1 2 3 4 5 6 
#
# 1 48.2227 18.2966 32.6956 0.0000 0.0000 0.0000
# 2 18.2966 48.2227 32.6956 0.0000 0.0000 0.0000
# 3 32.6956 32.6956 106.5039 0.0000 0.0000 0.0000
# 4 0.0000 0.0000 0.0000 25.8479 0.0000 0.0000
# 5 0.0000 0.0000 0.0000 0.0000 25.8479 0.0000
# 6 0.0000 0.0000 0.0000 0.0000 0.0000 20.2178
#
#
#
# Elastic Compliance Matrix: (Units=1/GPa)
#
#
# Indices 1 2 3 4 5 6 
#
# 1 0.027473 -0.005942 -0.006610 0.000000 0.000000 0.000000
# 2 -0.005942 0.027473 -0.006610 0.000000 0.000000 0.000000
# 3 -0.006610 -0.006610 0.013448 0.000000 0.000000 0.000000
# 4 0.000000 0.000000 0.000000 0.038688 0.000000 0.000000
# 5 0.000000 0.000000 0.000000 0.000000 0.038688 0.000000
# 6 0.000000 0.000000 0.000000 0.000000 0.000000 0.049461
#
#
# Mechanical properties :
#
#
# Convention : Reuss Voigt Hill
#
# Bulk Modulus (GPa) = 33.25535 41.14721 37.20128
# Shear Modulus (GPa) = 20.52725 22.33347 21.43036
#
# Velocity S-wave (km/s) = 3.49860 3.64928 3.57473
# Velocity P-wave (km/s) = 6.01249 6.50323 6.26267
#
# Compressibility (1/GPa) = 0.03007035
#
# Stress axis : x y z
#
# Youngs Moduli (GPa) = 36.39898 36.39898 74.36277
#
# Poissons Ratio (x) = 0.21630 0.49152
# Poissons Ratio (y) = 0.21630 0.49152
# Poissons Ratio (z) = 0.24059 0.24059
#
# Static dielectric constant tensor:
#      x y z
#    x 3.081320 0.000000 0.000000 
#    y 0.000000 3.081320 0.000000 
#    z 0.000000 0.000000 3.209590 
# 
# 
# High freq. dielectric constant tensor:
#      x y z
#    x 1.625170 0.000000 0.000000 
#    y 0.000000 1.625170 0.000000 
#    z 0.000000 0.000000 1.644140 
# 
# From -- ./inp_files/5791.got.cif
#   From: 2010.03.12/outbox.cif.g09.slc.cpg/sg127_3_cif.got.tgz:5791.got - 2010.04.06 17:03:15.
