data_PCOD8313197
_publ_section_title
;
Structure prediction by ZEFSAII (Michael W. Deem and Ramdas Pophale) SiO2 
 PCOD8313197
Probable space group: P 4/M C C
;
_chemical_formula_sum "Si O2"
_cell_formula_units_Z 96
_cell_length_a 25.017458
_cell_length_b 25.017458
_cell_length_c 8.794962
_cell_angle_alpha 90.000000
_cell_angle_beta 90.000000
_cell_angle_gamma 90.000000
_cell_volume 5504.531053
_symmetry_space_group_name_H-M "P 4/M C C"
_symmetry_group_IT_number 124
_symmetry_cell_setting 'tetragonal'
loop_
_space_group_symop_operation_xyz
x,y,z
-y,x,z
-x,-y,z
y,-x,z
x,-y,1/2-z
-x,y,1/2-z
y,x,1/2-z
-y,-x,1/2-z
-x,-y,-z
y,-x,-z
x,y,-z
-y,x,-z
-x,y,1/2+z
x,-y,1/2+z
-y,-x,1/2+z
y,x,1/2+z
loop_
_atom_site_type_symbol
_atom_site_label
_atom_site_fract_x
_atom_site_fract_y
_atom_site_fract_z
Si Si1 0.245742 0.833543 0.819245
Si Si2 0.448122 0.628073 0.822459
Si Si3 0.741919 0.551383 0.678658
Si Si4 0.247447 0.946692 0.329856
Si Si5 0.248752 0.326345 0.321219
Si Si6 0.878086 0.949000 0.165844
O O1 0.190440 0.809561 0.750000
O O2 0.258882 0.893663 0.767046
O O3 0.295049 0.798221 0.762683
O O4 0.240900 0.832107 0.000000
O O5 0.500000 0.598964 0.750000
O O6 0.394741 0.605260 0.750000
O O7 0.449499 0.689504 0.780306
O O8 0.447746 0.618836 0.000000
O O9 0.775572 0.500000 0.750000
O O10 0.730913 0.541953 0.500000
O O11 0.765314 0.610863 0.704641
O O12 0.271943 0.941162 0.500000
O O13 0.184769 0.954096 0.341851
O O14 0.272047 0.000000 0.250000
O O15 0.305662 0.305662 0.250000
O O16 0.249531 0.312804 0.500000
O O17 0.894480 0.894480 0.250000
O O18 0.903192 0.000000 0.250000
O O19 0.903535 0.946938 0.000000
#
# Coordination Sequence:
#
# PCOD8313197 Si02
#       6
#    16  16  16  16  16  16
#     4  11  21  33  51  74 101 133 167 205 249 295
#     4  11  21  33  47  63  84 112 149 191 236 282
#     4  10  20  33  50  71  95 125 159 196 239 287
#     4  10  20  34  51  71  96 125 158 196 238 288
#     4  10  20  33  50  73 100 131 166 204 247 294
#     4  10  20  32  46  62  82 110 146 188 232 276
#
# _framework density 17.440178
#
# number of rings (size 3 to 8) (size 9 to 14) (size 15 to 20)
#    0.000    1.667    0.000    8.000    0.000    7.667 
#    0.000    1.667    0.000    0.000    0.000    0.000 
#    0.000    0.667    0.000    7.000    0.000    3.833 
#
# Total GULP energy -1189523.243956 kJ/mol
# GULP energy per Si atom -12390.867125 kJ/mol
# Density = 1.740048 g / cm^3
# Si number density = 17.440178 Si / 1000 Ang^3
#
#
#
# Elastic Constant Matrix: (Units=GPa)
#
#
# Indices 1 2 3 4 5 6 
#
# 1 80.4303 18.0630 40.5560 0.0000 0.0000 0.0000
# 2 18.0630 80.4279 40.5553 0.0000 0.0000 0.0000
# 3 40.5560 40.5553 168.6658 0.0000 0.0000 0.0000
# 4 0.0000 0.0000 0.0000 23.5128 0.0000 0.0000
# 5 0.0000 0.0000 0.0000 0.0000 23.5142 0.0000
# 6 0.0000 0.0000 0.0000 0.0000 0.0000 17.8986
#
#
#
# Elastic Compliance Matrix: (Units=1/GPa)
#
#
# Indices 1 2 3 4 5 6 
#
# 1 0.014347 -0.001687 -0.003044 0.000000 0.000000 0.000000
# 2 -0.001687 0.014347 -0.003044 0.000000 0.000000 0.000000
# 3 -0.003044 -0.003044 0.007393 0.000000 0.000000 0.000000
# 4 0.000000 0.000000 0.000000 0.042530 0.000000 0.000000
# 5 0.000000 0.000000 0.000000 0.000000 0.042527 0.000000
# 6 0.000000 0.000000 0.000000 0.000000 0.000000 0.055870
#
#
# Mechanical properties :
#
#
# Convention : Reuss Voigt Hill
#
# Bulk Modulus (GPa) = 48.69399 58.65252 53.67325
# Shear Modulus (GPa) = 25.07384 28.34178 26.70781
#
# Velocity S-wave (km/s) = 3.79582 4.03561 3.91755
# Velocity P-wave (km/s) = 6.86966 7.44436 7.16278
#
# Compressibility (1/GPa) = 0.02053642
#
# Stress axis : x y z
#
# Youngs Moduli (GPa) = 69.70112 69.69909 135.26702
#
# Poissons Ratio (x) = 0.11759 0.41176
# Poissons Ratio (y) = 0.11760 0.41177
# Poissons Ratio (z) = 0.21218 0.21217
#
# Static dielectric constant tensor:
#      x y z
#    x 3.093660 0.000000 0.000000 
#    y 0.000000 3.093480 0.000000 
#    z 0.000000 0.000000 3.483030 
# 
# 
# High freq. dielectric constant tensor:
#      x y z
#    x 1.646490 0.000000 0.000000 
#    y 0.000000 1.646490 0.000000 
#    z 0.000000 0.000000 1.700590 
# 
# From -- ./inp_files/1514.got.cif
#   From: 2010.03.12/outbox.cif.g09.slc.cpg/sg124_1_cif.got.tgz:1514.got - 2010.04.06 16:38:57.
