data_PCOD8313160
_publ_section_title
;
Structure prediction by ZEFSAII (Michael W. Deem and Ramdas Pophale) SiO2 
 PCOD8313160
Probable space group: P 4/M C C
;
_chemical_formula_sum "Si O2"
_cell_formula_units_Z 80
_cell_length_a 15.161892
_cell_length_b 15.161892
_cell_length_c 19.003969
_cell_angle_alpha 90.000000
_cell_angle_beta 90.000000
_cell_angle_gamma 90.000000
_cell_volume 4368.688817
_symmetry_space_group_name_H-M "P 4/M C C"
_symmetry_group_IT_number 124
_symmetry_cell_setting 'tetragonal'
loop_
_space_group_symop_operation_xyz
x,y,z
-y,x,z
-x,-y,z
y,-x,z
x,-y,1/2-z
-x,y,1/2-z
y,x,1/2-z
-y,-x,1/2-z
-x,-y,-z
y,-x,-z
x,y,-z
-y,x,-z
-x,y,1/2+z
x,-y,1/2+z
-y,-x,1/2+z
y,x,1/2+z
loop_
_atom_site_type_symbol
_atom_site_label
_atom_site_fract_x
_atom_site_fract_y
_atom_site_fract_z
Si Si1 0.559021 0.084451 0.422225
Si Si2 0.833098 0.202556 0.417024
Si Si3 0.254691 0.024952 0.082370
Si Si4 0.691827 0.684823 0.831608
Si Si5 0.495764 0.240133 0.168929
O O1 0.575749 0.125725 0.500000
O O2 0.652354 0.059034 0.385710
O O3 0.503708 0.150931 0.375065
O O4 0.500000 0.000000 0.430194
O O5 0.824643 0.222131 0.500000
O O6 0.819439 0.098407 0.401663
O O7 0.758665 0.258261 0.377811
O O8 0.929867 0.226731 0.386278
O O9 0.268572 0.010937 0.000000
O O10 0.708226 0.708226 0.750000
O O11 0.590981 0.704913 0.851641
O O12 0.703388 0.582006 0.849684
O O13 0.500000 0.212827 0.250000
#
# Coordination Sequence:
#
# PCOD8313160 Si02
#       5
#    16  16  16  16  16
#     4  10  19  33  53  80 110 139 179 225 273 322
#     4  10  19  35  56  80 111 145 183 225 272 324
#     4   9  18  31  53  81 108 143 180 221 269 318
#     4  10  21  37  55  79 109 142 181 226 275 324
#     4  10  21  36  55  78 108 141 181 223 271 325
#
# _framework density 18.31213
#
# number of rings (size 3 to 8) (size 9 to 14) (size 15 to 20)
#    0.000    2.200    2.000    1.200    0.000    3.600 
#    0.000    5.000    0.000    0.000    0.000    4.200 
#    0.000    0.000    0.000    0.000    0.000    0.000 
#
# Total GULP energy -991862.540877 kJ/mol
# GULP energy per Si atom -12398.281761 kJ/mol
# Density = 1.827045 g / cm^3
# Si number density = 18.312130 Si / 1000 Ang^3
#
#
#
# Elastic Constant Matrix: (Units=GPa)
#
#
# Indices 1 2 3 4 5 6 
#
# 1 131.5802 55.1080 48.1333 0.0000 0.0000 0.0000
# 2 55.1080 131.5802 48.1333 0.0000 0.0000 0.0000
# 3 48.1333 48.1333 48.1071 0.0000 0.0000 0.0000
# 4 0.0000 0.0000 0.0000 18.1774 0.0000 0.0000
# 5 0.0000 0.0000 0.0000 0.0000 18.1774 0.0000
# 6 0.0000 0.0000 0.0000 0.0000 0.0000 34.3255
#
#
#
# Elastic Compliance Matrix: (Units=1/GPa)
#
#
# Indices 1 2 3 4 5 6 
#
# 1 0.012071 -0.001005 -0.011072 0.000000 0.000000 0.000000
# 2 -0.001005 0.012071 -0.011072 0.000000 0.000000 0.000000
# 3 -0.011072 -0.011072 0.042942 0.000000 0.000000 0.000000
# 4 0.000000 0.000000 0.000000 0.055013 0.000000 0.000000
# 5 0.000000 0.000000 0.000000 0.000000 0.055013 0.000000
# 6 0.000000 0.000000 0.000000 0.000000 0.000000 0.029133
#
#
# Mechanical properties :
#
#
# Convention : Reuss Voigt Hill
#
# Bulk Modulus (GPa) = 48.10706 68.22405 58.16556
# Shear Modulus (GPa) = 19.26997 24.79560 22.03279
#
# Velocity S-wave (km/s) = 3.24745 3.68374 3.47245
# Velocity P-wave (km/s) = 6.35522 7.44515 6.92168
#
# Compressibility (1/GPa) = 0.02078697
#
# Stress axis : x y z
#
# Youngs Moduli (GPa) = 82.84194 82.84194 23.28697
#
# Poissons Ratio (x) = 0.08330 0.25783
# Poissons Ratio (y) = 0.08330 0.25783
# Poissons Ratio (z) = 0.91720 0.91720
#
# Static dielectric constant tensor:
#      x y z
#    x 3.539130 0.000000 0.000000 
#    y 0.000000 3.539130 0.000000 
#    z 0.000000 0.000000 3.211630 
# 
# 
# High freq. dielectric constant tensor:
#      x y z
#    x 1.718220 0.000000 0.000000 
#    y 0.000000 1.718220 0.000000 
#    z 0.000000 0.000000 1.681070 
# 
# From -- ./inp_files/5069.got.cif
#   From: 2010.03.12/outbox.cif.g09.slc.cpg/sg124_3_cif.got.tgz:5069.got - 2010.04.06 16:38:57.
