data_PCOD8313198
_publ_section_title
;
Structure prediction by ZEFSAII (Michael W. Deem and Ramdas Pophale) SiO2 
 PCOD8313198
Probable space group: P 4/M C C
;
_chemical_formula_sum "Si O2"
_cell_formula_units_Z 64
_cell_length_a 19.392093
_cell_length_b 19.392093
_cell_length_c 8.716516
_cell_angle_alpha 90.000000
_cell_angle_beta 90.000000
_cell_angle_gamma 90.000000
_cell_volume 3277.874353
_symmetry_space_group_name_H-M "P 4/M C C"
_symmetry_group_IT_number 124
_symmetry_cell_setting 'tetragonal'
loop_
_space_group_symop_operation_xyz
x,y,z
-y,x,z
-x,-y,z
y,-x,z
x,-y,1/2-z
-x,y,1/2-z
y,x,1/2-z
-y,-x,1/2-z
-x,-y,-z
y,-x,-z
x,y,-z
-y,x,-z
-x,y,1/2+z
x,-y,1/2+z
-y,-x,1/2+z
y,x,1/2+z
loop_
_atom_site_type_symbol
_atom_site_label
_atom_site_fract_x
_atom_site_fract_y
_atom_site_fract_z
Si Si1 0.930734 0.680232 0.171699
Si Si2 0.677303 0.575341 0.183517
Si Si3 0.157966 0.066058 0.666697
Si Si4 0.784015 0.318110 0.182879
O O1 0.940769 0.760970 0.158739
O O2 0.863198 0.666624 0.273865
O O3 0.000000 0.648250 0.250000
O O4 0.922085 0.648753 0.000000
O O5 0.687713 0.500000 0.250000
O O6 0.606152 0.606152 0.250000
O O7 0.740773 0.620489 0.242799
O O8 0.675399 0.574828 0.000000
O O9 0.136682 0.136682 0.750000
O O10 0.124860 0.068894 0.500000
O O11 0.125435 0.000000 0.750000
O O12 0.754671 0.245330 0.250000
O O13 0.775835 0.317289 0.000000
#
# Coordination Sequence:
#
# PCOD8313198 Si02
#       4
#    16  16  16  16
#     4  10  20  34  52  76 104 137 176 226 281 335
#     4  11  22  39  61  89 122 157 194 232 274 324
#     4  10  20  32  46  63  87 118 158 205 260 320
#     4  11  21  35  56  83 113 149 190 235 283 336
#
# _framework density 19.524850000000001
#
# number of rings (size 3 to 8) (size 9 to 14) (size 15 to 20)
#    0.000    1.500    0.000    8.250    0.000    5.500 
#    0.000    2.500    0.000    0.750    0.000    5.250 
#    0.000    0.000    0.000    0.000    0.000    0.000 
#
# Total GULP energy -793393.166948 kJ/mol
# GULP energy per Si atom -12396.768234 kJ/mol
# Density = 1.948041 g / cm^3
# Si number density = 19.524850 Si / 1000 Ang^3
#
#
#
# Elastic Constant Matrix: (Units=GPa)
#
#
# Indices 1 2 3 4 5 6 
#
# 1 91.8265 20.8982 44.9308 0.0000 0.0000 0.0000
# 2 20.8982 91.8339 44.9325 0.0000 0.0000 0.0000
# 3 44.9308 44.9325 204.0099 0.0000 0.0000 0.0000
# 4 0.0000 0.0000 0.0000 27.6356 0.0000 0.0000
# 5 0.0000 0.0000 0.0000 0.0000 27.6353 0.0000
# 6 0.0000 0.0000 0.0000 0.0000 0.0000 13.4678
#
#
#
# Elastic Compliance Matrix: (Units=1/GPa)
#
#
# Indices 1 2 3 4 5 6 
#
# 1 0.012430 -0.001669 -0.002370 0.000000 0.000000 0.000000
# 2 -0.001669 0.012429 -0.002370 0.000000 0.000000 0.000000
# 3 -0.002370 -0.002370 0.005946 0.000000 0.000000 0.000000
# 4 0.000000 0.000000 0.000000 0.036185 0.000000 0.000000
# 5 0.000000 0.000000 0.000000 0.000000 0.036186 0.000000
# 6 0.000000 0.000000 0.000000 0.000000 0.000000 0.074251
#
#
# Mechanical properties :
#
#
# Convention : Reuss Voigt Hill
#
# Bulk Modulus (GPa) = 55.59765 67.68814 61.64290
# Shear Modulus (GPa) = 25.47926 32.20835 28.84381
#
# Velocity S-wave (km/s) = 3.61635 4.06594 3.84772
# Velocity P-wave (km/s) = 6.78045 7.53561 7.16798
#
# Compressibility (1/GPa) = 0.01798637
#
# Stress axis : x y z
#
# Youngs Moduli (GPa) = 80.45369 80.46019 168.19192
#
# Poissons Ratio (x) = 0.13429 0.39859
# Poissons Ratio (y) = 0.13428 0.39857
# Poissons Ratio (z) = 0.19066 0.19067
#
# Static dielectric constant tensor:
#      x y z
#    x 3.469670 0.000000 0.000000 
#    y 0.000000 3.469670 0.000000 
#    z 0.000000 0.000000 4.027900 
# 
# 
# High freq. dielectric constant tensor:
#      x y z
#    x 1.743120 0.000000 0.000000 
#    y 0.000000 1.743120 0.000000 
#    z 0.000000 0.000000 1.787770 
# 
# From -- ./inp_files/860.got.cif
#   From: 2010.03.12/outbox.cif.g09.slc.cpg/sg124_1_cif.got.tgz:860.got - 2010.04.06 16:38:57.
