data_PCOD8313338
_publ_section_title
;
Structure prediction by ZEFSAII (Michael W. Deem and Ramdas Pophale) SiO2 
 PCOD8313338
Probable space group: P 4/M C C
;
_chemical_formula_sum "Si O2"
_cell_formula_units_Z 96
_cell_length_a 17.554178
_cell_length_b 17.554178
_cell_length_c 17.924987
_cell_angle_alpha 90.000000
_cell_angle_beta 90.000000
_cell_angle_gamma 90.000000
_cell_volume 5523.569781
_symmetry_space_group_name_H-M "P 4/M C C"
_symmetry_group_IT_number 124
_symmetry_cell_setting 'tetragonal'
loop_
_space_group_symop_operation_xyz
x,y,z
-y,x,z
-x,-y,z
y,-x,z
x,-y,1/2-z
-x,y,1/2-z
y,x,1/2-z
-y,-x,1/2-z
-x,-y,-z
y,-x,-z
x,y,-z
-y,x,-z
-x,y,1/2+z
x,-y,1/2+z
-y,-x,1/2+z
y,x,1/2+z
loop_
_atom_site_type_symbol
_atom_site_label
_atom_site_fract_x
_atom_site_fract_y
_atom_site_fract_z
Si Si1 0.084140 0.199379 0.219708
Si Si2 0.008049 0.410074 0.419232
Si Si3 0.590672 0.162096 0.087474
Si Si4 0.673676 0.208326 0.226012
Si Si5 0.951558 0.885673 0.084230
Si Si6 0.866783 0.449594 0.182294
O O1 0.121134 0.121134 0.250000
O O2 0.136838 0.270880 0.237790
O O3 0.077188 0.186426 0.131043
O O4 0.000000 0.213993 0.250000
O O5 0.035680 0.377648 0.500000
O O6 0.068864 0.393691 0.353760
O O7 0.000000 0.500000 0.426017
O O8 0.924211 0.377898 0.400460
O O9 0.644879 0.214282 0.139812
O O10 0.503595 0.168381 0.117552
O O11 0.593736 0.186534 0.000000
O O12 0.713608 0.286393 0.250000
O O13 0.602687 0.198765 0.282172
O O14 0.039613 0.902128 0.102057
O O15 0.940294 0.860124 0.000000
O O16 0.902773 0.500000 0.250000
#
# Coordination Sequence:
#
# PCOD8313338 Si02
#       6
#    16  16  16  16  16  16
#     4  11  21  32  48  66  91 130 179 224 266 307
#     4   8  14  25  44  73  99 117 155 212 259 290
#     4   9  18  34  56  76  97 129 169 212 256 303
#     4  10  23  35  46  72 110 141 164 200 261 318
#     4   9  17  30  48  65  79 107 164 236 286 306
#     4   9  17  30  52  74  95 127 168 210 248 300
#
# _framework density 17.380064999999998
#
# number of rings (size 3 to 8) (size 9 to 14) (size 15 to 20)
#    0.000    2.667    1.667    2.000    2.333    7.833 
#    0.000    1.667    0.000    2.000    0.000    0.000 
#    0.000   27.000    0.000   13.500    0.000    0.000 
#
# Total GULP energy -1189529.536465 kJ/mol
# GULP energy per Si atom -12390.932672 kJ/mol
# Density = 1.734051 g / cm^3
# Si number density = 17.380065 Si / 1000 Ang^3
#
#
#
# Elastic Constant Matrix: (Units=GPa)
#
#
# Indices 1 2 3 4 5 6 
#
# 1 53.6070 25.6767 41.7331 0.0000 0.0000 0.0000
# 2 25.6767 53.6057 41.7328 0.0000 0.0000 0.0000
# 3 41.7331 41.7328 134.1910 0.0000 0.0000 0.0000
# 4 0.0000 0.0000 0.0000 19.3671 0.0000 0.0000
# 5 0.0000 0.0000 0.0000 0.0000 19.3669 0.0000
# 6 0.0000 0.0000 0.0000 0.0000 0.0000 22.1986
#
#
#
# Elastic Compliance Matrix: (Units=1/GPa)
#
#
# Indices 1 2 3 4 5 6 
#
# 1 0.027278 -0.008526 -0.005832 0.000000 0.000000 0.000000
# 2 -0.008526 0.027279 -0.005832 0.000000 0.000000 0.000000
# 3 -0.005832 -0.005832 0.011080 0.000000 0.000000 0.000000
# 4 0.000000 0.000000 0.000000 0.051634 0.000000 0.000000
# 5 0.000000 0.000000 0.000000 0.000000 0.051634 0.000000
# 6 0.000000 0.000000 0.000000 0.000000 0.000000 0.045048
#
#
# Mechanical properties :
#
#
# Convention : Reuss Voigt Hill
#
# Bulk Modulus (GPa) = 39.59313 51.07654 45.33484
# Shear Modulus (GPa) = 19.02939 21.00393 20.01666
#
# Velocity S-wave (km/s) = 3.31251 3.48013 3.39736
# Velocity P-wave (km/s) = 6.12050 6.75279 6.44441
#
# Compressibility (1/GPa) = 0.02525691
#
# Stress axis : x y z
#
# Youngs Moduli (GPa) = 36.65941 36.65844 90.25631
#
# Poissons Ratio (x) = 0.31254 0.52637
# Poissons Ratio (y) = 0.31255 0.52638
# Poissons Ratio (z) = 0.21380 0.21380
#
# Static dielectric constant tensor:
#      x y z
#    x 2.972360 0.000000 0.000000 
#    y 0.000000 2.972360 0.000000 
#    z 0.000000 0.000000 3.541170 
# 
# 
# High freq. dielectric constant tensor:
#      x y z
#    x 1.633040 0.000000 0.000000 
#    y 0.000000 1.633040 0.000000 
#    z 0.000000 0.000000 1.691470 
# 
# From -- ./inp_files/4278.got.cif
#   From: 2010.03.12/outbox.cif.g09.slc.cpg/sg124_3_cif.got.tgz:4278.got - 2010.04.06 16:38:57.
