data_PCOD8313880
_publ_section_title
;
Structure prediction by ZEFSAII (Michael W. Deem and Ramdas Pophale) SiO2 
 PCOD8313880
Probable space group: P 4/M B M
;
_chemical_formula_sum "Si O2"
_cell_formula_units_Z 96
_cell_length_a 17.116630
_cell_length_b 17.116630
_cell_length_c 18.825714
_cell_angle_alpha 90.000000
_cell_angle_beta 90.000000
_cell_angle_gamma 90.000000
_cell_volume 5515.539287
_symmetry_space_group_name_H-M "P 4/M B M"
_symmetry_group_IT_number 127
_symmetry_cell_setting 'tetragonal'
loop_
_space_group_symop_operation_xyz
x,y,z
-y,x,z
-x,-y,z
y,-x,z
1/2+x,1/2-y,-z
1/2-x,1/2+y,-z
1/2+y,1/2+x,-z
1/2-y,1/2-x,-z
-x,-y,-z
y,-x,-z
x,y,-z
-y,x,-z
1/2-x,1/2+y,z
1/2+x,1/2-y,z
1/2-y,1/2-x,z
1/2+y,1/2+x,z
loop_
_atom_site_type_symbol
_atom_site_label
_atom_site_fract_x
_atom_site_fract_y
_atom_site_fract_z
Si Si1 0.405889 0.783134 0.331767
Si Si2 0.433836 0.809875 0.831761
Si Si3 0.736301 0.894247 0.181687
Si Si4 0.438610 0.187626 0.418061
Si Si5 0.288177 0.661272 0.325601
Si Si6 0.830975 0.799762 0.079259
O O1 0.343908 0.843908 0.364351
O O2 0.412039 0.792774 0.248345
O O3 0.485694 0.803726 0.370372
O O4 0.375580 0.693433 0.342742
O O5 0.392845 0.892845 0.854243
O O6 0.527145 0.810378 0.838492
O O7 0.403697 0.739406 0.880824
O O8 0.671902 0.828099 0.185209
O O9 0.781279 0.897966 0.258134
O O10 0.801258 0.875961 0.121859
O O11 0.461149 0.196595 0.500000
O O12 0.395782 0.104219 0.403474
O O13 0.380259 0.257320 0.396639
O O14 0.237345 0.737345 0.305545
O O15 0.761221 0.738780 0.075628
O O16 0.856677 0.825124 0.000000
#
# Coordination Sequence:
#
# PCOD8313880 Si02
#       6
#    16  16  16  16  16  16
#     4  10  19  32  53  77 103 138 179 218 260 310
#     4  10  19  31  51  81 110 136 173 220 265 313
#     4  10  18  31  53  78 106 140 176 214 261 317
#     4  10  21  35  51  76 109 140 171 217 276 325
#     4   9  17  32  52  74 100 134 179 223 254 301
#     4   9  18  33  52  75 104 138 176 217 261 312
#
# _framework density 17.405369
#
# number of rings (size 3 to 8) (size 9 to 14) (size 15 to 20)
#    0.000    2.333    3.333    0.000    0.000    2.333 
#    0.000    4.167    0.000    1.000    0.000    7.000 
#    0.000    0.000    0.000    0.000    0.000    0.000 
#
# Total GULP energy -1189652.292396 kJ/mol
# GULP energy per Si atom -12392.211379 kJ/mol
# Density = 1.736575 g / cm^3
# Si number density = 17.405369 Si / 1000 Ang^3
#
#
#
# Elastic Constant Matrix: (Units=GPa)
#
#
# Indices 1 2 3 4 5 6 
#
# 1 55.4029 49.5115 26.5598 0.0000 0.0000 0.0000
# 2 49.5115 55.4029 26.5598 0.0000 0.0000 0.0000
# 3 26.5598 26.5598 74.5438 0.0000 0.0000 0.0000
# 4 0.0000 0.0000 0.0000 19.1572 0.0000 0.0000
# 5 0.0000 0.0000 0.0000 0.0000 19.1572 0.0000
# 6 0.0000 0.0000 0.0000 0.0000 0.0000 17.6953
#
#
#
# Elastic Compliance Matrix: (Units=1/GPa)
#
#
# Indices 1 2 3 4 5 6 
#
# 1 0.090684 -0.079055 -0.004144 0.000000 0.000000 0.000000
# 2 -0.079055 0.090684 -0.004144 0.000000 0.000000 0.000000
# 3 -0.004144 -0.004144 0.016368 0.000000 0.000000 0.000000
# 4 0.000000 0.000000 0.000000 0.052200 0.000000 0.000000
# 5 0.000000 0.000000 0.000000 0.000000 0.052200 0.000000
# 6 0.000000 0.000000 0.000000 0.000000 0.000000 0.056512
#
#
# Mechanical properties :
#
#
# Convention : Reuss Voigt Hill
#
# Bulk Modulus (GPa) = 43.37946 43.40130 43.39038
# Shear Modulus (GPa) = 9.24187 16.71651 12.97919
#
# Velocity S-wave (km/s) = 2.30680 3.10243 2.73371
# Velocity P-wave (km/s) = 5.66323 6.15005 5.91166
#
# Compressibility (1/GPa) = 0.02305239
#
# Stress axis : x y z
#
# Youngs Moduli (GPa) = 11.02726 11.02726 61.09625
#
# Poissons Ratio (x) = 0.87176 0.25316
# Poissons Ratio (y) = 0.87176 0.25316
# Poissons Ratio (z) = 0.04569 0.04569
#
# Static dielectric constant tensor:
#      x y z
#    x 3.189070 0.000000 0.000000 
#    y 0.000000 3.189070 0.000000 
#    z 0.000000 0.000000 3.386430 
# 
# 
# High freq. dielectric constant tensor:
#      x y z
#    x 1.652340 0.000000 0.000000 
#    y 0.000000 1.652340 0.000000 
#    z 0.000000 0.000000 1.675510 
# 
# From -- ./inp_files/5124.got.cif
#   From: 2010.03.12/outbox.cif.g09.slc.cpg/sg127_3_cif.got.tgz:5124.got - 2010.04.06 17:03:15.
