data_PCOD8313352
_publ_section_title
;
Structure prediction by ZEFSAII (Michael W. Deem and Ramdas Pophale) SiO2 
 PCOD8313352
Probable space group: P 4/M C C
;
_chemical_formula_sum "Si O2"
_cell_formula_units_Z 112
_cell_length_a 14.222582
_cell_length_b 14.222582
_cell_length_c 24.623647
_cell_angle_alpha 90.000000
_cell_angle_beta 90.000000
_cell_angle_gamma 90.000000
_cell_volume 4980.916592
_symmetry_space_group_name_H-M "P 4/M C C"
_symmetry_group_IT_number 124
_symmetry_cell_setting 'tetragonal'
loop_
_space_group_symop_operation_xyz
x,y,z
-y,x,z
-x,-y,z
y,-x,z
x,-y,1/2-z
-x,y,1/2-z
y,x,1/2-z
-y,-x,1/2-z
-x,-y,-z
y,-x,-z
x,y,-z
-y,x,-z
-x,y,1/2+z
x,-y,1/2+z
-y,-x,1/2+z
y,x,1/2+z
loop_
_atom_site_type_symbol
_atom_site_label
_atom_site_fract_x
_atom_site_fract_y
_atom_site_fract_z
Si Si1 0.258118 0.559594 0.939569
Si Si2 0.250881 0.392045 0.768066
Si Si3 0.331035 0.071210 0.789197
Si Si4 0.737813 0.919044 0.439100
Si Si5 0.266700 0.643081 0.606722
Si Si6 0.005203 0.847043 0.340589
Si Si7 0.411119 0.056614 0.904642
O O1 0.284673 0.453332 0.925068
O O2 0.301001 0.634890 0.897281
O O3 0.145798 0.565617 0.941046
O O4 0.295923 0.582188 0.000000
O O5 0.239335 0.500000 0.750000
O O6 0.352729 0.352729 0.750000
O O7 0.172193 0.325842 0.739972
O O8 0.239184 0.383725 0.832318
O O9 0.236452 0.008248 0.797735
O O10 0.366412 0.092866 0.849016
O O11 0.391222 0.000000 0.750000
O O12 0.778680 0.906588 0.500000
O O13 0.709071 0.816194 0.416690
O O14 0.811740 0.976207 0.402185
O O15 0.647474 0.985449 0.441562
O O16 0.095682 0.910144 0.330252
O O17 0.500000 0.000000 0.884271
#
# Coordination Sequence:
#
# PCOD8313352 Si02
#       7
#    16  16  16  16  16  16  16
#     4  12  26  46  73 102 142 188 236 299 367 431
#     4  12  27  46  74 105 145 194 242 299 373 435
#     4  11  26  41  70 101 139 182 237 294 361 421
#     4  11  24  41  68 100 137 184 236 298 364 425
#     4  12  26  47  69 107 142 184 245 299 358 443
#     4  10  25  47  68  98 140 186 237 290 351 438
#     4  11  23  42  67 100 138 177 233 288 348 433
#
# _framework density 22.485823
#
# number of rings (size 3 to 8) (size 9 to 14) (size 15 to 20)
#    0.000    0.714    1.429    6.000   10.000    1.571 
#    0.000    3.571    0.000    0.000    0.000    0.000 
#    0.000    0.000    0.000    0.000    0.000    0.000 
#
# Total GULP energy -1388178.534054 kJ/mol
# GULP energy per Si atom -12394.451197 kJ/mol
# Density = 2.243464 g / cm^3
# Si number density = 22.485823 Si / 1000 Ang^3
#
#
#
# Elastic Constant Matrix: (Units=GPa)
#
#
# Indices 1 2 3 4 5 6 
#
# 1 100.8361 36.8599 22.5818 0.0000 0.0000 0.0000
# 2 36.8599 100.8361 22.5818 0.0000 0.0000 0.0000
# 3 22.5818 22.5818 146.8326 0.0000 0.0000 0.0000
# 4 0.0000 0.0000 0.0000 37.8382 0.0000 0.0000
# 5 0.0000 0.0000 0.0000 0.0000 37.8382 0.0000
# 6 0.0000 0.0000 0.0000 0.0000 0.0000 -56.0814
#
#
#
# Elastic Compliance Matrix: (Units=1/GPa)
#
#
# Indices 1 2 3 4 5 6 
#
# 1 0.011639 -0.003991 -0.001176 0.000000 0.000000 0.000000
# 2 -0.003991 0.011639 -0.001176 0.000000 0.000000 0.000000
# 3 -0.001176 -0.001176 0.007172 0.000000 0.000000 0.000000
# 4 0.000000 0.000000 0.000000 0.026428 0.000000 0.000000
# 5 0.000000 0.000000 0.000000 0.000000 0.026428 0.000000
# 6 0.000000 0.000000 0.000000 0.000000 0.000000 -0.017831
#
#
# Mechanical properties :
#
#
# Convention : Reuss Voigt Hill
#
# Bulk Modulus (GPa) = 56.29466 56.95023 56.62244
# Shear Modulus (GPa) = 59.46334 21.68443 40.57389
#
# Velocity S-wave (km/s) = 5.14803 3.10878 4.25246
# Velocity P-wave (km/s) = 7.77343 6.18613 7.02476
#
# Compressibility (1/GPa) = 0.01776367
#
# Stress axis : x y z
#
# Youngs Moduli (GPa) = 85.91446 85.91446 139.42589
#
# Poissons Ratio (x) = 0.34291 0.16400
# Poissons Ratio (y) = 0.34291 0.16400
# Poissons Ratio (z) = 0.10106 0.10106
#
# Static dielectric constant tensor:
#      x y z
#    x 3.981460 0.000000 0.000000 
#    y 0.000000 3.981460 0.000000 
#    z 0.000000 0.000000 4.044470 
# 
# 
# High freq. dielectric constant tensor:
#      x y z
#    x 1.886370 0.000000 0.000000 
#    y 0.000000 1.886370 0.000000 
#    z 0.000000 0.000000 1.903190 
# 
# From -- ./inp_files/6072.got.cif
#   From: 2010.03.12/outbox.cif.g09.slc.cpg/sg124_4_cif.got.tgz:6072.got - 2010.04.06 16:38:57.
