data_PCOD8313762
_publ_section_title
;
Structure prediction by ZEFSAII (Michael W. Deem and Ramdas Pophale) SiO2 
 PCOD8313762
Probable space group: P 4/N N C
;
_chemical_formula_sum "Si O2"
_cell_formula_units_Z 100
_cell_length_a 15.446980
_cell_length_b 15.446980
_cell_length_c 26.883675
_cell_angle_alpha 90.000000
_cell_angle_beta 90.000000
_cell_angle_gamma 90.000000
_cell_volume 6414.691946
_symmetry_space_group_name_H-M "P 4/N N C"
_symmetry_group_IT_number 126
_space_group.IT_coordinate_system_code '2'
_symmetry_cell_setting 'tetragonal'
loop_
_space_group_symop_operation_xyz
x,y,z
1/2-y,x,z
1/2-x,1/2-y,z
y,1/2-x,z
x,1/2-y,1/2-z
1/2-x,y,1/2-z
y,x,1/2-z
1/2-y,1/2-x,1/2-z
-x,-y,-z
1/2+y,-x,-z
1/2+x,1/2+y,-z
-y,1/2+x,-z
-x,1/2+y,1/2+z
1/2+x,-y,1/2+z
-y,-x,1/2+z
1/2+y,1/2+x,1/2+z
loop_
_atom_site_type_symbol
_atom_site_label
_atom_site_fract_x
_atom_site_fract_y
_atom_site_fract_z
Si Si1 0.250000 0.750000 0.500000
Si Si2 0.562808 0.250000 0.449309
Si Si3 0.510283 0.750000 0.097216
Si Si4 0.573915 0.433522 0.440125
Si Si5 0.250000 0.387958 0.508006
Si Si6 0.750000 0.892123 0.305844
Si Si7 0.926085 0.433522 0.440125
O O1 0.250000 0.661070 0.469236
O O2 0.549278 0.338477 0.417978
O O3 0.486534 0.250000 0.490447
O O4 0.549278 0.161522 0.417978
O O5 0.456222 0.665970 0.082341
O O6 0.528020 0.750000 0.155994
O O7 0.456222 0.834031 0.082341
O O8 0.602589 0.750000 0.067981
O O9 0.503524 0.503524 0.422952
O O10 0.576393 0.423607 0.500000
O O11 0.164193 0.335807 0.490758
O O12 0.664759 0.835241 0.314355
O O13 0.750000 0.930531 0.250000
#
# Coordination Sequence:
#
# PCOD8313762 Si02
#       7
#     4  16  16  16  16  16  16
#     4  12  20  24  40  52  68 112 146 172 216 268
#     4  12  19  32  39  58  86 117 154 194 224 267
#     4  12  20  30  47  68  94 124 159 195 235 286
#     4  11  20  30  44  62  89 122 156 198 237 277
#     4  11  20  28  42  61  84 119 156 190 227 266
#     4   9  18  32  49  70  97 126 160 208 256 295
#     4  11  20  30  44  62  89 122 156 198 237 277
#
# _framework density 15.589213000000001
#
# number of rings (size 3 to 8) (size 9 to 14) (size 15 to 20)
#    0.000    0.960    4.800    5.280    0.000    1.280 
#    0.000    0.000    0.000    0.000    0.000    2.240 
#    0.000    0.000    0.000    0.000    0.000    0.320 
#
# Total GULP energy -1238955.878967 kJ/mol
# GULP energy per Si atom -12389.558790 kJ/mol
# Density = 1.555373 g / cm^3
# Si number density = 15.589213 Si / 1000 Ang^3
#
#
#
# Elastic Constant Matrix: (Units=GPa)
#
#
# Indices 1 2 3 4 5 6 
#
# 1 128.4865 56.9098 33.3068 0.0000 0.0000 0.0000
# 2 56.9098 128.4865 33.3068 0.0000 0.0000 0.0000
# 3 33.3068 33.3068 64.5418 0.0000 0.0000 0.0000
# 4 0.0000 0.0000 0.0000 14.0810 0.0000 0.0000
# 5 0.0000 0.0000 0.0000 0.0000 14.0810 0.0000
# 6 0.0000 0.0000 0.0000 0.0000 0.0000 18.2476
#
#
#
# Elastic Compliance Matrix: (Units=1/GPa)
#
#
# Indices 1 2 3 4 5 6 
#
# 1 0.010296 -0.003675 -0.003417 0.000000 0.000000 0.000000
# 2 -0.003675 0.010296 -0.003417 0.000000 0.000000 0.000000
# 3 -0.003417 -0.003417 0.019021 0.000000 0.000000 0.000000
# 4 0.000000 0.000000 0.000000 0.071018 0.000000 0.000000
# 5 0.000000 0.000000 0.000000 0.000000 0.071018 0.000000
# 6 0.000000 0.000000 0.000000 0.000000 0.000000 0.054802
#
#
# Mechanical properties :
#
#
# Convention : Reuss Voigt Hill
#
# Bulk Modulus (GPa) = 53.77646 63.17351 58.47498
# Shear Modulus (GPa) = 18.96337 22.48137 20.72237
#
# Velocity S-wave (km/s) = 3.49154 3.80163 3.64988
# Velocity P-wave (km/s) = 7.12918 7.73833 7.43999
#
# Compressibility (1/GPa) = 0.01859550
#
# Stress axis : x y z
#
# Youngs Moduli (GPa) = 97.12207 97.12207 52.57459
#
# Poissons Ratio (x) = 0.35689 0.17965
# Poissons Ratio (y) = 0.35689 0.17965
# Poissons Ratio (z) = 0.33187 0.33187
#
# Static dielectric constant tensor:
#      x y z
#    x 3.317140 0.000000 0.000000 
#    y 0.000000 3.317140 0.000000 
#    z 0.000000 0.000000 2.485800 
# 
# 
# High freq. dielectric constant tensor:
#      x y z
#    x 1.616950 0.000000 0.000000 
#    y 0.000000 1.616950 0.000000 
#    z 0.000000 0.000000 1.514910 
# 
# From -- ./inp_files/6194.got.cif
#   From: 2010.03.12/outbox.cif.g09.slc.cpg/sg126_4_cif.got.tgz:6194.got - 2010.04.06 16:55:23.
