data_PCOD8313188
_publ_section_title
;
Structure prediction by ZEFSAII (Michael W. Deem and Ramdas Pophale) SiO2 
 PCOD8313188
Probable space group: P 4/M C C
;
_chemical_formula_sum "Si O2"
_cell_formula_units_Z 96
_cell_length_a 23.386871
_cell_length_b 23.386871
_cell_length_c 9.255064
_cell_angle_alpha 90.000000
_cell_angle_beta 90.000000
_cell_angle_gamma 90.000000
_cell_volume 5062.017784
_symmetry_space_group_name_H-M "P 4/M C C"
_symmetry_group_IT_number 124
_symmetry_cell_setting 'tetragonal'
loop_
_space_group_symop_operation_xyz
x,y,z
-y,x,z
-x,-y,z
y,-x,z
x,-y,1/2-z
-x,y,1/2-z
y,x,1/2-z
-y,-x,1/2-z
-x,-y,-z
y,-x,-z
x,y,-z
-y,x,-z
-x,y,1/2+z
x,-y,1/2+z
-y,-x,1/2+z
y,x,1/2+z
loop_
_atom_site_type_symbol
_atom_site_label
_atom_site_fract_x
_atom_site_fract_y
_atom_site_fract_z
Si Si1 0.748537 0.823878 0.835469
Si Si2 0.946708 0.712221 0.660605
Si Si3 0.577094 0.054079 0.336111
Si Si4 0.626565 0.373436 0.250000
Si Si5 0.755748 0.636112 0.338644
Si Si6 0.446341 0.579951 0.000000
Si Si7 0.830203 0.446223 0.671402
O O1 0.804768 0.804768 0.750000
O O2 0.727907 0.884924 0.770640
O O3 0.702092 0.773085 0.822591
O O4 0.766090 0.833083 0.000000
O O5 0.952038 0.737591 0.500000
O O6 0.950620 0.644580 0.655187
O O7 0.000000 0.737982 0.750000
O O8 0.552158 0.058125 0.500000
O O9 0.559393 0.107742 0.241017
O O10 0.551568 0.000000 0.250000
O O11 0.622972 0.311217 0.322281
O O12 0.576100 0.383639 0.135331
O O13 0.774229 0.615023 0.500000
O O14 0.790446 0.606812 0.210025
O O15 0.421379 0.515284 0.000000
O O16 0.800217 0.500000 0.750000
O O17 0.834504 0.453278 0.500000
#
# Coordination Sequence:
#
# PCOD8313188 Si02
#       7
#    16  16  16   8  16   8  16
#     4  10  20  35  57  84 120 159 195 244 293 345
#     4   9  18  33  54  80 113 154 198 244 291 339
#     4  10  19  36  58  82 113 151 200 250 297 347
#     4  12  24  43  72  94 120 156 190 236 301 374
#     4  11  23  42  61  87 122 154 191 236 291 363
#     4  11  26  48  70  94 120 150 194 250 310 374
#     4  12  26  41  59  82 113 152 195 245 301 354
#
# _framework density 18.964770000000001
#
# number of rings (size 3 to 8) (size 9 to 14) (size 15 to 20)
#    0.000    1.417    3.333    2.500    1.167    4.333 
#    0.000    1.667    0.000    0.000    0.000    0.000 
#    0.000    0.333    0.000    3.667    0.000    2.667 
#
# Total GULP energy -1189951.644473 kJ/mol
# GULP energy per Si atom -12395.329630 kJ/mol
# Density = 1.892161 g / cm^3
# Si number density = 18.964770 Si / 1000 Ang^3
#
#
#
# Elastic Constant Matrix: (Units=GPa)
#
#
# Indices 1 2 3 4 5 6 
#
# 1 80.4573 25.0628 38.4996 0.0000 0.0000 0.0000
# 2 25.0628 80.4582 38.4999 0.0000 0.0000 0.0000
# 3 38.4996 38.4999 136.1018 0.0000 0.0000 0.0000
# 4 0.0000 0.0000 0.0000 24.3531 0.0000 0.0000
# 5 0.0000 0.0000 0.0000 0.0000 24.3531 0.0000
# 6 0.0000 0.0000 0.0000 0.0000 0.0000 -3.8501
#
#
#
# Elastic Compliance Matrix: (Units=1/GPa)
#
#
# Indices 1 2 3 4 5 6 
#
# 1 0.014997 -0.003055 -0.003378 0.000000 0.000000 0.000000
# 2 -0.003055 0.014997 -0.003378 0.000000 0.000000 0.000000
# 3 -0.003378 -0.003378 0.009259 0.000000 0.000000 0.000000
# 4 0.000000 0.000000 0.000000 0.041063 0.000000 0.000000
# 5 0.000000 0.000000 0.000000 0.000000 0.041063 0.000000
# 6 0.000000 0.000000 0.000000 0.000000 0.000000 -0.259736
#
#
# Mechanical properties :
#
#
# Convention : Reuss Voigt Hill
#
# Bulk Modulus (GPa) = 50.94234 55.68246 53.31240
# Shear Modulus (GPa) = -44.56643 21.96821 -11.29911
#
# Velocity S-wave (km/s) = -4.85290 3.40718 -2.44354
# Velocity P-wave (km/s) = 2.11682 6.70098 4.49568
#
# Compressibility (1/GPa) = 0.01963004
#
# Stress axis : x y z
#
# Youngs Moduli (GPa) = 66.67967 66.68032 108.00808
#
# Poissons Ratio (x) = 0.20372 0.36486
# Poissons Ratio (y) = 0.20372 0.36486
# Poissons Ratio (z) = 0.22525 0.22525
#
# Static dielectric constant tensor:
#      x y z
#    x 3.548850 0.000000 0.000000 
#    y 0.000000 3.548880 0.000000 
#    z 0.000000 0.000000 3.740790 
# 
# 
# High freq. dielectric constant tensor:
#      x y z
#    x 1.721910 0.000000 0.000000 
#    y 0.000000 1.721910 0.000000 
#    z 0.000000 0.000000 1.748030 
# 
# From -- ./inp_files/1433.got.cif
#   From: 2010.03.12/outbox.cif.g09.slc.cpg/sg124_1_cif.got.tgz:1433.got - 2010.04.06 16:38:57.
