data_PCOD8313257
_publ_section_title
;
Structure prediction by ZEFSAII (Michael W. Deem and Ramdas Pophale) SiO2 
 PCOD8313257
Probable space group: P 4/M C C
;
_chemical_formula_sum "Si O2"
_cell_formula_units_Z 96
_cell_length_a 24.078738
_cell_length_b 24.078738
_cell_length_c 8.515563
_cell_angle_alpha 90.000000
_cell_angle_beta 90.000000
_cell_angle_gamma 90.000000
_cell_volume 4937.201005
_symmetry_space_group_name_H-M "P 4/M C C"
_symmetry_group_IT_number 124
_symmetry_cell_setting 'tetragonal'
loop_
_space_group_symop_operation_xyz
x,y,z
-y,x,z
-x,-y,z
y,-x,z
x,-y,1/2-z
-x,y,1/2-z
y,x,1/2-z
-y,-x,1/2-z
-x,-y,-z
y,-x,-z
x,y,-z
-y,x,-z
-x,y,1/2+z
x,-y,1/2+z
-y,-x,1/2+z
y,x,1/2+z
loop_
_atom_site_type_symbol
_atom_site_label
_atom_site_fract_x
_atom_site_fract_y
_atom_site_fract_z
Si Si1 0.642067 0.557332 0.685084
Si Si2 0.144450 0.354528 0.314176
Si Si3 0.768279 0.147533 0.814779
Si Si4 0.557189 0.232987 0.684691
Si Si5 0.938203 0.557665 0.812854
Si Si6 0.938148 0.852872 0.685888
O O1 0.616457 0.500000 0.750000
O O2 0.608818 0.608818 0.750000
O O3 0.639124 0.556622 0.500000
O O4 0.704642 0.564678 0.748852
O O5 0.142810 0.344638 0.500000
O O6 0.146899 0.296209 0.226682
O O7 0.197916 0.389878 0.258960
O O8 0.091035 0.388600 0.259551
O O9 0.796093 0.203908 0.750000
O O10 0.797509 0.093809 0.739848
O O11 0.776807 0.145278 0.000000
O O12 0.500000 0.206952 0.750000
O O13 0.552724 0.231850 0.500000
O O14 0.910850 0.500000 0.750000
O O15 0.000000 0.560722 0.750000
O O16 0.935871 0.559035 0.000000
O O17 0.907612 0.907612 0.750000
O O18 0.939099 0.855330 0.500000
O O19 0.000000 0.850922 0.750000
#
# Coordination Sequence:
#
# PCOD8313257 Si02
#       6
#    16  16  16  16  16  16
#     4  10  20  36  55  79 107 140 177 221 271 328
#     4  11  22  38  59  86 115 149 192 238 282 339
#     4  11  23  41  61  85 116 154 194 238 288 340
#     4   9  20  36  56  80 110 143 181 227 281 334
#     4  11  22  38  58  84 116 153 191 236 289 342
#     4  11  22  40  64  92 123 158 195 237 285 336
#
# _framework density 19.444216000000001
#
# number of rings (size 3 to 8) (size 9 to 14) (size 15 to 20)
#    0.000    1.500    0.000    7.500    0.000    5.000 
#    0.000    6.667    0.000    0.000    0.000    0.000 
#    0.000    0.000    0.000    0.000    0.000    0.000 
#
# Total GULP energy -1190656.576990 kJ/mol
# GULP energy per Si atom -12402.672677 kJ/mol
# Density = 1.939996 g / cm^3
# Si number density = 19.444216 Si / 1000 Ang^3
#
#
#
# Elastic Constant Matrix: (Units=GPa)
#
#
# Indices 1 2 3 4 5 6 
#
# 1 136.7055 64.5167 37.7075 0.0000 0.0000 0.0000
# 2 64.5167 136.7015 37.7061 0.0000 0.0000 0.0000
# 3 37.7075 37.7061 112.7266 0.0000 0.0000 0.0000
# 4 0.0000 0.0000 0.0000 32.9256 0.0000 0.0000
# 5 0.0000 0.0000 0.0000 0.0000 32.9256 0.0000
# 6 0.0000 0.0000 0.0000 0.0000 0.0000 25.5290
#
#
#
# Elastic Compliance Matrix: (Units=1/GPa)
#
#
# Indices 1 2 3 4 5 6 
#
# 1 0.009767 -0.004085 -0.001901 0.000000 0.000000 0.000000
# 2 -0.004085 0.009768 -0.001901 0.000000 0.000000 0.000000
# 3 -0.001901 -0.001901 0.010143 0.000000 0.000000 0.000000
# 4 0.000000 0.000000 0.000000 0.030372 0.000000 0.000000
# 5 0.000000 0.000000 0.000000 0.000000 0.030371 0.000000
# 6 0.000000 0.000000 0.000000 0.000000 0.000000 0.039171
#
#
# Mechanical properties :
#
#
# Convention : Reuss Voigt Hill
#
# Bulk Modulus (GPa) = 71.92148 73.99937 72.96042
# Shear Modulus (GPa) = 33.33341 34.68960 34.01151
#
# Velocity S-wave (km/s) = 4.14491 4.22839 4.18686
# Velocity P-wave (km/s) = 7.74442 7.87267 7.80881
#
# Compressibility (1/GPa) = 0.01390405
#
# Stress axis : x y z
#
# Youngs Moduli (GPa) = 102.38186 102.37941 98.59481
#
# Poissons Ratio (x) = 0.41827 0.18740
# Poissons Ratio (y) = 0.41828 0.18739
# Poissons Ratio (z) = 0.19459 0.19458
#
# Static dielectric constant tensor:
#      x y z
#    x 2.044350 0.000000 0.000000 
#    y 0.000000 2.047290 0.000000 
#    z 0.000000 0.000000 3.711320 
# 
# 
# High freq. dielectric constant tensor:
#      x y z
#    x 1.762360 0.000000 0.000000 
#    y 0.000000 1.762360 0.000000 
#    z 0.000000 0.000000 1.773330 
# 
# From -- ./inp_files/1322.got.cif
#   From: 2010.03.12/outbox.cif.g09.slc.cpg/sg124_1_cif.got.tgz:1322.got - 2010.04.06 16:38:57.
