data_PCOD8313488
_publ_section_title
;
Structure prediction by ZEFSAII (Michael W. Deem and Ramdas Pophale) SiO2 
 PCOD8313488
Probable space group: P 4/N B M
;
_chemical_formula_sum "Si O2"
_cell_formula_units_Z 88
_cell_length_a 14.169348
_cell_length_b 14.169348
_cell_length_c 22.424514
_cell_angle_alpha 90.000000
_cell_angle_beta 90.000000
_cell_angle_gamma 90.000000
_cell_volume 4502.179156
_symmetry_space_group_name_H-M "P 4/N B M"
_symmetry_group_IT_number 125
_space_group.IT_coordinate_system_code '2'
_symmetry_cell_setting 'tetragonal'
loop_
_space_group_symop_operation_xyz
x,y,z
1/2-y,x,z
1/2-x,1/2-y,z
y,1/2-x,z
x,1/2-y,-z
1/2-x,y,-z
y,x,-z
1/2-y,1/2-x,-z
-x,-y,-z
1/2+y,-x,-z
1/2+x,1/2+y,-z
-y,1/2+x,-z
-x,1/2+y,z
1/2+x,-y,z
-y,-x,z
1/2+y,1/2+x,z
loop_
_atom_site_type_symbol
_atom_site_label
_atom_site_fract_x
_atom_site_fract_y
_atom_site_fract_z
Si Si1 0.529267 0.877915 0.267675
Si Si2 0.992866 0.852270 0.971243
Si Si3 0.101361 0.752349 0.660115
Si Si4 0.388512 0.041877 0.619945
Si Si5 0.610658 0.684205 0.855943
Si Si6 0.858749 0.641252 0.500000
O O1 0.452032 0.799066 0.284708
O O2 0.606863 0.891539 0.321112
O O3 0.582570 0.837303 0.211384
O O4 0.476562 0.976562 0.252575
O O5 0.087408 0.912593 0.982042
O O6 0.972405 0.846727 0.900594
O O7 0.008490 0.750000 0.000000
O O8 0.901807 0.901807 0.000000
O O9 0.166487 0.833514 0.627740
O O10 0.169208 0.669208 0.684908
O O11 0.023101 0.705958 0.616338
O O12 0.402562 0.100406 0.560049
O O13 0.481695 0.981695 0.625309
O O14 0.705580 0.626275 0.867871
O O15 0.882042 0.750000 0.500000
#
# Coordination Sequence:
#
# PCOD8313488 Si02
#       6
#    16  16  16  16  16   8
#     4  10  20  35  56  84 117 152 195 246 301 361
#     4  11  23  42  67  93 125 165 207 254 307 367
#     4   9  18  34  56  81 112 152 193 237 296 357
#     4  10  20  36  58  81 110 148 192 245 300 359
#     4  11  22  36  59  89 120 158 205 253 303 365
#     4  11  23  36  52  76 107 145 190 238 296 361
#
# _framework density 19.546088999999998
#
# number of rings (size 3 to 8) (size 9 to 14) (size 15 to 20)
#    0.000    1.727    1.818    3.000    0.000    0.364 
#    0.000    4.545    0.000    3.273    0.000    5.091 
#    0.000    0.000    0.000    0.000    0.000    0.000 
#
# Total GULP energy -1090802.369803 kJ/mol
# GULP energy per Si atom -12395.481475 kJ/mol
# Density = 1.950160 g / cm^3
# Si number density = 19.546089 Si / 1000 Ang^3
#
#
#
# Elastic Constant Matrix: (Units=GPa)
#
#
# Indices 1 2 3 4 5 6 
#
# 1 89.2270 58.4282 45.6643 0.0000 0.0000 0.0000
# 2 58.4282 89.2277 45.6643 0.0000 0.0000 0.0000
# 3 45.6643 45.6643 134.4141 0.0000 0.0000 0.0000
# 4 0.0000 0.0000 0.0000 31.4689 0.0000 0.0000
# 5 0.0000 0.0000 0.0000 0.0000 31.4674 0.0000
# 6 0.0000 0.0000 0.0000 0.0000 0.0000 -100.7147
#
#
#
# Elastic Compliance Matrix: (Units=1/GPa)
#
#
# Indices 1 2 3 4 5 6 
#
# 1 0.020521 -0.011947 -0.002913 0.000000 0.000000 0.000000
# 2 -0.011947 0.020521 -0.002913 0.000000 0.000000 0.000000
# 3 -0.002913 -0.002913 0.009419 0.000000 0.000000 0.000000
# 4 0.000000 0.000000 0.000000 0.031777 0.000000 0.000000
# 5 0.000000 0.000000 0.000000 0.000000 0.031779 0.000000
# 6 0.000000 0.000000 0.000000 0.000000 0.000000 -0.009929
#
#
# Mechanical properties :
#
#
# Convention : Reuss Voigt Hill
#
# Bulk Modulus (GPa) = 67.04342 68.04250 67.54296
# Shear Modulus (GPa) = 34.57657 3.31844 18.94751
#
# Velocity S-wave (km/s) = 4.21048 1.30439 3.11686
# Velocity P-wave (km/s) = 7.61657 6.09553 6.89810
#
# Compressibility (1/GPa) = 0.01491571
#
# Stress axis : x y z
#
# Youngs Moduli (GPa) = 48.72956 48.73010 106.16962
#
# Poissons Ratio (x) = 0.58218 0.30927
# Poissons Ratio (y) = 0.58218 0.30926
# Poissons Ratio (z) = 0.14195 0.14194
#
# Static dielectric constant tensor:
#      x y z
#    x 3.694720 0.000000 0.000000 
#    y 0.000000 3.694710 0.000000 
#    z 0.000000 0.000000 -5.680580 
# 
# 
# High freq. dielectric constant tensor:
#      x y z
#    x 1.769500 0.000000 0.000000 
#    y 0.000000 1.769500 0.000000 
#    z 0.000000 0.000000 1.744370 
# 
# From -- ./inp_files/6176.got.cif
#   From: 2010.03.12/outbox.cif.g09.slc.cpg/sg125_4_cif.got.tgz:6176.got - 2010.04.06 16:47:52.
