data_PCOD8313972
_publ_section_title
;
Structure prediction by ZEFSAII (Michael W. Deem and Ramdas Pophale) SiO2 
 PCOD8313972
Probable space group: P 4/M B M
;
_chemical_formula_sum "Si O2"
_cell_formula_units_Z 120
_cell_length_a 27.641336
_cell_length_b 27.641336
_cell_length_c 8.449807
_cell_angle_alpha 90.000000
_cell_angle_beta 90.000000
_cell_angle_gamma 90.000000
_cell_volume 6456.019742
_symmetry_space_group_name_H-M "P 4/M B M"
_symmetry_group_IT_number 127
_symmetry_cell_setting 'tetragonal'
loop_
_space_group_symop_operation_xyz
x,y,z
-y,x,z
-x,-y,z
y,-x,z
1/2+x,1/2-y,-z
1/2-x,1/2+y,-z
1/2+y,1/2+x,-z
1/2-y,1/2-x,-z
-x,-y,-z
y,-x,-z
x,y,-z
-y,x,-z
1/2-x,1/2+y,z
1/2+x,1/2-y,z
1/2-y,1/2-x,z
1/2+y,1/2+x,z
loop_
_atom_site_type_symbol
_atom_site_label
_atom_site_fract_x
_atom_site_fract_y
_atom_site_fract_z
Si Si1 0.942745 0.875449 0.816899
Si Si2 0.131352 0.498149 0.182698
Si Si3 0.905398 0.329596 0.684588
Si Si4 0.548893 0.735118 0.686705
Si Si5 0.127601 0.046552 0.684431
Si Si6 0.461630 0.961630 0.328091
Si Si7 0.771313 0.060222 0.313957
Si Si8 0.601944 0.179881 0.186855
O O1 0.910371 0.911692 0.715319
O O2 0.927303 0.821363 0.771884
O O3 0.998584 0.886670 0.779860
O O4 0.932513 0.884827 0.000000
O O5 0.144426 0.543529 0.290904
O O6 0.076182 0.487275 0.214241
O O7 0.158721 0.449684 0.236786
O O8 0.140907 0.510930 0.000000
O O9 0.894568 0.326551 0.500000
O O10 0.860749 0.360749 0.762675
O O11 0.913196 0.275127 0.757392
O O12 0.550433 0.740709 0.500000
O O13 0.564268 0.681180 0.739437
O O14 0.493536 0.745728 0.743235
O O15 0.128777 0.032803 0.500000
O O16 0.441412 0.941412 0.500000
O O17 0.500000 0.000000 0.380419
O O18 0.780686 0.060954 0.500000
O O19 0.733103 0.102100 0.265612
O O20 0.645583 0.145583 0.251653
O O21 0.607086 0.184652 0.000000
#
# Coordination Sequence:
#
# PCOD8313972 Si02
#       8
#    16  16  16  16  16   8  16  16
#     4  11  22  37  58  88 121 151 182 218 266 318
#     4  11  21  33  47  67  95 129 168 217 276 333
#     4  10  19  32  50  73 101 134 174 222 274 325
#     4   8  16  31  52  77 103 136 179 226 268 312
#     4  10  20  37  59  85 116 151 189 222 258 311
#     4  11  23  35  45  59  85 127 175 219 269 333
#     4  10  19  34  56  79 105 141 186 230 271 322
#     4  10  20  34  50  72 102 136 176 228 286 337
#
# _framework density 18.587302999999999
#
# number of rings (size 3 to 8) (size 9 to 14) (size 15 to 20)
#    0.000    1.933    2.000    3.800    0.000    3.467 
#    0.000    2.000    0.000    0.800    0.000    1.867 
#    0.000    0.000    0.000    0.000    0.000    0.000 
#
# Total GULP energy -1487124.604781 kJ/mol
# GULP energy per Si atom -12392.705040 kJ/mol
# Density = 1.854500 g / cm^3
# Si number density = 18.587303 Si / 1000 Ang^3
#
#
#
# Elastic Constant Matrix: (Units=GPa)
#
#
# Indices 1 2 3 4 5 6 
#
# 1 96.8344 65.1482 7.3957 0.0000 0.0000 0.0000
# 2 65.1482 96.8344 7.3957 0.0000 0.0000 0.0000
# 3 7.3957 7.3957 33.5391 0.0000 0.0000 0.0000
# 4 0.0000 0.0000 0.0000 22.1216 0.0000 0.0000
# 5 0.0000 0.0000 0.0000 0.0000 22.1216 0.0000
# 6 0.0000 0.0000 0.0000 0.0000 0.0000 28.5779
#
#
#
# Elastic Compliance Matrix: (Units=1/GPa)
#
#
# Indices 1 2 3 4 5 6 
#
# 1 0.018930 -0.012630 -0.001389 0.000000 0.000000 0.000000
# 2 -0.012630 0.018930 -0.001389 0.000000 0.000000 0.000000
# 3 -0.001389 -0.001389 0.030429 0.000000 0.000000 0.000000
# 4 0.000000 0.000000 0.000000 0.045205 0.000000 0.000000
# 5 0.000000 0.000000 0.000000 0.000000 0.045205 0.000000
# 6 0.000000 0.000000 0.000000 0.000000 0.000000 0.034992
#
#
# Mechanical properties :
#
#
# Convention : Reuss Voigt Hill
#
# Bulk Modulus (GPa) = 26.68642 43.00965 34.84804
# Shear Modulus (GPa) = 21.09732 24.38211 22.73972
#
# Velocity S-wave (km/s) = 3.37269 3.62575 3.50151
# Velocity P-wave (km/s) = 5.43647 6.38104 5.92760
#
# Compressibility (1/GPa) = 0.03747224
#
# Stress axis : x y z
#
# Youngs Moduli (GPa) = 52.82635 52.82635 32.86377
#
# Poissons Ratio (x) = 0.66717 0.04566
# Poissons Ratio (y) = 0.66717 0.04566
# Poissons Ratio (z) = 0.07339 0.07339
#
# Static dielectric constant tensor:
#      x y z
#    x 3.497370 0.000000 0.000000 
#    y 0.000000 3.497370 0.000000 
#    z 0.000000 0.000000 3.216130 
# 
# 
# High freq. dielectric constant tensor:
#      x y z
#    x 1.708860 0.000000 0.000000 
#    y 0.000000 1.708860 0.000000 
#    z 0.000000 0.000000 1.712450 
# 
# From -- ./inp_files/2423.got.cif
#   From: 2010.03.12/outbox.cif.g09.slc.cpg/sg127_2_cif.got.tgz:2423.got - 2010.04.06 17:03:15.
