data_PCOD8313038
_publ_section_title
;
Structure prediction by ZEFSAII (Michael W. Deem and Ramdas Pophale) SiO2 
 PCOD8313038
Probable space group: P 4/M M M
;
_chemical_formula_sum "Si O2"
_cell_formula_units_Z 112
_cell_length_a 18.270312
_cell_length_b 18.270312
_cell_length_c 22.303859
_cell_angle_alpha 90.000000
_cell_angle_beta 90.000000
_cell_angle_gamma 90.000000
_cell_volume 7445.124054
_symmetry_space_group_name_H-M "P 4/M M M"
_symmetry_group_IT_number 123
_symmetry_cell_setting 'tetragonal'
loop_
_space_group_symop_operation_xyz
x,y,z
-y,x,z
-x,-y,z
y,-x,z
x,-y,-z
-x,y,-z
y,x,-z
-y,-x,-z
-x,-y,-z
y,-x,-z
x,y,-z
-y,x,-z
-x,y,z
x,-y,z
-y,-x,z
y,x,z
loop_
_atom_site_type_symbol
_atom_site_label
_atom_site_fract_x
_atom_site_fract_y
_atom_site_fract_z
Si Si1 0.703457 0.415533 0.930774
Si Si2 0.082526 0.800550 0.332056
Si Si3 0.281939 0.834974 0.569012
Si Si4 0.163267 0.418201 0.649457
Si Si5 0.664612 0.083935 0.248323
Si Si6 0.302883 0.581851 0.274051
Si Si7 0.336778 0.220643 0.169441
O O1 0.691787 0.500000 0.912178
O O2 0.627868 0.372133 0.917111
O O3 0.770311 0.378436 0.894005
O O4 0.725662 0.408877 0.000000
O O5 0.129452 0.870549 0.314234
O O6 0.106558 0.766405 0.395243
O O7 0.092763 0.743313 0.278553
O O8 0.000000 0.826916 0.338757
O O9 0.281910 0.858440 0.500000
O O10 0.245880 0.754121 0.577920
O O11 0.364740 0.839319 0.592612
O O12 0.141315 0.500000 0.628690
O O13 0.108499 0.395750 0.703132
O O14 0.246199 0.416070 0.671663
O O15 0.664165 0.135486 0.189241
O O16 0.649204 0.000000 0.228965
O O17 0.327078 0.500000 0.258234
O O18 0.374220 0.625781 0.294851
O O19 0.267386 0.616839 0.215918
O O20 0.254356 0.254356 0.166060
#
# Coordination Sequence:
#
# PCOD8313038 Si02
#       7
#    16  16  16  16  16  16  16
#     4   9  17  28  42  61  85 113 144 176 208 241
#     4   9  17  29  45  65  87 108 130 157 191 233
#     4   9  17  29  44  59  76 102 134 164 195 234
#     4   9  17  28  41  58  79 100 126 164 205 241
#     4   9  17  29  45  63  82 105 133 165 200 238
#     4   9  16  25  38  56  78 103 129 159 197 240
#     4   9  16  27  43  61  81 106 136 167 200 237
#
# _framework density 15.043403
#
# number of rings (size 3 to 8) (size 9 to 14) (size 15 to 20)
#    0.000    3.000    0.000    1.286    0.000    5.286 
#    0.000    0.714    0.000    3.000    0.000    7.000 
#    0.000    0.000    0.000   13.286    0.000    0.000 
#
# Total GULP energy -1388390.994512 kJ/mol
# GULP energy per Si atom -12396.348165 kJ/mol
# Density = 1.500916 g / cm^3
# Si number density = 15.043403 Si / 1000 Ang^3
#
#
#
# Elastic Constant Matrix: (Units=GPa)
#
#
# Indices 1 2 3 4 5 6 
#
# 1 103.5270 49.1346 31.8994 0.0000 0.0000 0.0000
# 2 49.1346 103.5270 31.8994 0.0000 0.0000 0.0000
# 3 31.8994 31.8994 63.7023 0.0000 0.0000 0.0000
# 4 0.0000 0.0000 0.0000 16.5242 0.0000 0.0000
# 5 0.0000 0.0000 0.0000 0.0000 16.5242 0.0000
# 6 0.0000 0.0000 0.0000 0.0000 0.0000 16.2784
#
#
#
# Elastic Compliance Matrix: (Units=1/GPa)
#
#
# Indices 1 2 3 4 5 6 
#
# 1 0.013334 -0.005050 -0.004148 0.000000 0.000000 0.000000
# 2 -0.005050 0.013334 -0.004148 0.000000 0.000000 0.000000
# 3 -0.004148 -0.004148 0.019853 0.000000 0.000000 0.000000
# 4 0.000000 0.000000 0.000000 0.060517 0.000000 0.000000
# 5 0.000000 0.000000 0.000000 0.000000 0.060517 0.000000
# 6 0.000000 0.000000 0.000000 0.000000 0.000000 0.061431
#
#
# Mechanical properties :
#
#
# Convention : Reuss Voigt Hill
#
# Bulk Modulus (GPa) = 50.43495 55.18033 52.80764
# Shear Modulus (GPa) = 19.06287 20.38691 19.72489
#
# Velocity S-wave (km/s) = 3.56362 3.68531 3.62498
# Velocity P-wave (km/s) = 7.10856 7.40736 7.25950
#
# Compressibility (1/GPa) = 0.01982752
#
# Stress axis : x y z
#
# Youngs Moduli (GPa) = 74.99346 74.99346 50.37122
#
# Poissons Ratio (x) = 0.37875 0.20895
# Poissons Ratio (y) = 0.37875 0.20895
# Poissons Ratio (z) = 0.31110 0.31110
#
# Static dielectric constant tensor:
#      x y z
#    x 2.947240 0.000000 0.000000 
#    y 0.000000 2.947240 0.000000 
#    z 0.000000 0.000000 2.780130 
# 
# 
# High freq. dielectric constant tensor:
#      x y z
#    x 1.570070 0.000000 0.000000 
#    y 0.000000 1.570070 0.000000 
#    z 0.000000 0.000000 1.556270 
# 
# From -- ./inp_files/6685.got.cif
#   From: 2010.03.12/outbox.cif.g09.slc.cpg/sg123_4_cif.got.tgz:6685.got - 2010.04.06 16:26:55.
