data_PCOD8313480
_publ_section_title
;
Structure prediction by ZEFSAII (Michael W. Deem and Ramdas Pophale) SiO2 
 PCOD8313480
Probable space group: P 4/N B M
;
_chemical_formula_sum "Si O2"
_cell_formula_units_Z 96
_cell_length_a 24.252758
_cell_length_b 24.252758
_cell_length_c 8.317590
_cell_angle_alpha 90.000000
_cell_angle_beta 90.000000
_cell_angle_gamma 90.000000
_cell_volume 4892.375418
_symmetry_space_group_name_H-M "P 4/N B M"
_symmetry_group_IT_number 125
_space_group.IT_coordinate_system_code '2'
_symmetry_cell_setting 'tetragonal'
loop_
_space_group_symop_operation_xyz
x,y,z
1/2-y,x,z
1/2-x,1/2-y,z
y,1/2-x,z
x,1/2-y,-z
1/2-x,y,-z
y,x,-z
1/2-y,1/2-x,-z
-x,-y,-z
1/2+y,-x,-z
1/2+x,1/2+y,-z
-y,1/2+x,-z
-x,1/2+y,z
1/2+x,-y,z
-y,-x,z
1/2+y,1/2+x,z
loop_
_atom_site_type_symbol
_atom_site_label
_atom_site_fract_x
_atom_site_fract_y
_atom_site_fract_z
Si Si1 0.982547 0.855978 0.366585
Si Si2 0.806768 0.607291 0.555581
Si Si3 0.805864 0.106032 0.190556
Si Si4 0.888836 0.023801 0.308857
Si Si5 0.590817 0.181161 0.180424
Si Si6 0.590751 0.882658 0.175031
O O1 0.951640 0.806469 0.463011
O O2 0.937218 0.886925 0.261504
O O3 0.003874 0.896810 0.507042
O O4 0.031667 0.833094 0.256780
O O5 0.750000 0.636651 0.500000
O O6 0.857866 0.642135 0.500000
O O7 0.821800 0.602768 0.745208
O O8 0.833820 0.166181 0.213967
O O9 0.833399 0.060757 0.306200
O O10 0.741630 0.111162 0.236789
O O11 0.817213 0.084294 0.010714
O O12 0.940611 0.059390 0.253864
O O13 0.887184 0.975211 0.177494
O O14 0.636010 0.136010 0.235868
O O15 0.617775 0.882226 0.000000
#
# Coordination Sequence:
#
# PCOD8313480 Si02
#       6
#    16  16  16  16  16  16
#     4  10  21  34  53  82 111 145 189 235 285 348
#     4   9  20  38  58  85 115 150 190 229 281 346
#     4   9  20  36  52  78 110 144 194 245 294 348
#     4  10  20  34  55  78 109 153 191 234 289 348
#     4  10  20  34  54  79 109 147 193 242 295 350
#     4  10  21  37  56  84 120 149 187 237 288 343
#
# _framework density 19.622368999999999
#
# number of rings (size 3 to 8) (size 9 to 14) (size 15 to 20)
#    0.000    2.333    0.000    3.000    4.667    2.833 
#    0.000    4.167    0.000    0.000    0.000    7.000 
#    0.000    0.000    0.000    0.000    0.000    0.000 
#
# Total GULP energy -1189286.336961 kJ/mol
# GULP energy per Si atom -12388.399343 kJ/mol
# Density = 1.957771 g / cm^3
# Si number density = 19.622369 Si / 1000 Ang^3
#
#
#
# Elastic Constant Matrix: (Units=GPa)
#
#
# Indices 1 2 3 4 5 6 
#
# 1 102.0094 49.6612 41.4979 0.0000 0.0000 0.0000
# 2 49.6612 102.0213 41.4947 0.0000 0.0000 0.0000
# 3 41.4979 41.4947 82.1467 0.0000 0.0000 0.0000
# 4 0.0000 0.0000 0.0000 20.3360 0.0000 0.0000
# 5 0.0000 0.0000 0.0000 0.0000 20.3365 0.0000
# 6 0.0000 0.0000 0.0000 0.0000 0.0000 8.7829
#
#
#
# Elastic Compliance Matrix: (Units=1/GPa)
#
#
# Indices 1 2 3 4 5 6 
#
# 1 0.014107 -0.004995 -0.004604 0.000000 0.000000 0.000000
# 2 -0.004995 0.014105 -0.004602 0.000000 0.000000 0.000000
# 3 -0.004604 -0.004602 0.016823 0.000000 0.000000 0.000000
# 4 0.000000 0.000000 0.000000 0.049174 0.000000 0.000000
# 5 0.000000 0.000000 0.000000 0.000000 0.049173 0.000000
# 6 0.000000 0.000000 0.000000 0.000000 0.000000 0.113858
#
#
# Mechanical properties :
#
#
# Convention : Reuss Voigt Hill
#
# Bulk Modulus (GPa) = 60.11169 61.27608 60.69389
# Shear Modulus (GPa) = 17.17122 20.12599 18.64860
#
# Velocity S-wave (km/s) = 2.96139 3.20608 3.08616
# Velocity P-wave (km/s) = 6.51106 6.70826 6.61039
#
# Compressibility (1/GPa) = 0.01663570
#
# Stress axis : x y z
#
# Youngs Moduli (GPa) = 70.88509 70.89834 59.44125
#
# Poissons Ratio (x) = 0.35411 0.27365
# Poissons Ratio (y) = 0.35405 0.27352
# Poissons Ratio (z) = 0.32633 0.32624
#
# Static dielectric constant tensor:
#      x y z
#    x 3.596390 0.000000 0.000000 
#    y 0.000000 3.596390 0.000000 
#    z 0.000000 0.000000 3.725390 
# 
# 
# High freq. dielectric constant tensor:
#      x y z
#    x 1.760310 0.000000 0.000000 
#    y 0.000000 1.760310 0.000000 
#    z 0.000000 0.000000 1.756600 
# 
# From -- ./inp_files/2864.got.cif
#   From: 2010.03.12/outbox.cif.g09.slc.cpg/sg125_2_cif.got.tgz:2864.got - 2010.04.06 16:47:52.
