data_PCOD8313586
_publ_section_title
;
Structure prediction by ZEFSAII (Michael W. Deem and Ramdas Pophale) SiO2 
 PCOD8313586
Probable space group: P 4/N B M
;
_chemical_formula_sum "Si O2"
_cell_formula_units_Z 88
_cell_length_a 13.989045
_cell_length_b 13.989045
_cell_length_c 20.887263
_cell_angle_alpha 90.000000
_cell_angle_beta 90.000000
_cell_angle_gamma 90.000000
_cell_volume 4087.499096
_symmetry_space_group_name_H-M "P 4/N B M"
_symmetry_group_IT_number 125
_space_group.IT_coordinate_system_code '2'
_symmetry_cell_setting 'tetragonal'
loop_
_space_group_symop_operation_xyz
x,y,z
1/2-y,x,z
1/2-x,1/2-y,z
y,1/2-x,z
x,1/2-y,-z
1/2-x,y,-z
y,x,-z
1/2-y,1/2-x,-z
-x,-y,-z
1/2+y,-x,-z
1/2+x,1/2+y,-z
-y,1/2+x,-z
-x,1/2+y,z
1/2+x,-y,z
-y,-x,z
1/2+y,1/2+x,z
loop_
_atom_site_type_symbol
_atom_site_label
_atom_site_fract_x
_atom_site_fract_y
_atom_site_fract_z
Si Si1 0.830204 0.169797 0.157956
Si Si2 0.170766 0.670766 0.301867
Si Si3 0.802202 0.041832 0.616946
Si Si4 0.612815 0.823358 0.854551
Si Si5 0.053548 0.791771 0.066712
Si Si6 0.387300 0.324306 0.709264
Si Si7 0.250000 0.410884 0.500000
O O1 0.750000 0.250000 0.163330
O O2 0.862140 0.137861 0.230091
O O3 0.789880 0.078921 0.118962
O O4 0.250000 0.750000 0.292032
O O5 0.083173 0.714482 0.341622
O O6 0.874292 0.125709 0.592723
O O7 0.862784 0.969849 0.662339
O O8 0.755198 0.982191 0.559764
O O9 0.623363 0.710592 0.868698
O O10 0.529754 0.858002 0.902566
O O11 0.580291 0.841376 0.781909
O O12 0.146256 0.853745 0.050674
O O13 0.015909 0.750000 0.000000
O O14 0.288441 0.376446 0.694709
O O15 0.155393 0.344607 0.500000
#
# Coordination Sequence:
#
# PCOD8313586 Si02
#       7
#     8   8  16  16  16  16   8
#     4   9  18  34  60  82 120 162 206 248 309 384
#     4   9  20  38  57  89 124 166 198 248 326 381
#     4  11  23  39  64  95 129 161 209 258 311 365
#     4   9  20  39  61  84 117 163 207 253 312 375
#     4  11  21  36  58  85 117 156 205 255 313 380
#     4   9  18  38  64  88 120 163 207 253 314 377
#     4  11  26  48  69  90 128 180 217 250 312 385
#
# _framework density 21.529057000000002
#
# number of rings (size 3 to 8) (size 9 to 14) (size 15 to 20)
#    0.000    2.091    0.909    3.273    1.273    4.727 
#    6.545    1.818    0.000    0.000    0.000    0.000 
#    0.000    0.000    0.000    0.000    0.000    0.000 
#
# Total GULP energy -1090933.510518 kJ/mol
# GULP energy per Si atom -12396.971710 kJ/mol
# Density = 2.148006 g / cm^3
# Si number density = 21.529057 Si / 1000 Ang^3
#
#
#
# Elastic Constant Matrix: (Units=GPa)
#
#
# Indices 1 2 3 4 5 6 
#
# 1 78.7225 -11.1277 38.8340 0.0000 0.0000 0.0000
# 2 -11.1277 78.7222 38.8339 0.0000 0.0000 0.0000
# 3 38.8340 38.8339 143.4024 0.0000 0.0000 0.0000
# 4 0.0000 0.0000 0.0000 27.3062 0.0000 0.0000
# 5 0.0000 0.0000 0.0000 0.0000 27.3057 0.0000
# 6 0.0000 0.0000 0.0000 0.0000 0.0000 22.9671
#
#
#
# Elastic Compliance Matrix: (Units=1/GPa)
#
#
# Indices 1 2 3 4 5 6 
#
# 1 0.016303 0.005174 -0.005816 0.000000 0.000000 0.000000
# 2 0.005174 0.016303 -0.005816 0.000000 0.000000 0.000000
# 3 -0.005816 -0.005816 0.010123 0.000000 0.000000 0.000000
# 4 0.000000 0.000000 0.000000 0.036622 0.000000 0.000000
# 5 0.000000 0.000000 0.000000 0.000000 0.036622 0.000000
# 6 0.000000 0.000000 0.000000 0.000000 0.000000 0.043541
#
#
# Mechanical properties :
#
#
# Convention : Reuss Voigt Hill
#
# Bulk Modulus (GPa) = 33.54246 48.21417 40.87831
# Shear Modulus (GPa) = 27.41693 31.13625 29.27659
#
# Velocity S-wave (km/s) = 3.57246 3.80708 3.69163
# Velocity P-wave (km/s) = 5.71232 6.46287 6.09915
#
# Compressibility (1/GPa) = 0.02981296
#
# Stress axis : x y z
#
# Youngs Moduli (GPa) = 61.33763 61.33743 98.78126
#
# Poissons Ratio (x) = -0.31733 0.57451
# Poissons Ratio (y) = -0.31733 0.57451
# Poissons Ratio (z) = 0.35674 0.35674
#
# Static dielectric constant tensor:
#      x y z
#    x 3.738690 0.000000 0.000000 
#    y 0.000000 3.738690 0.000000 
#    z 0.000000 0.000000 3.965060 
# 
# 
# High freq. dielectric constant tensor:
#      x y z
#    x 1.832110 0.000000 0.000000 
#    y 0.000000 1.832110 0.000000 
#    z 0.000000 0.000000 1.853400 
# 
# From -- ./inp_files/5892.got.cif
#   From: 2010.03.12/outbox.cif.g09.slc.cpg/sg125_3_cif.got.tgz:5892.got - 2010.04.06 16:47:52.
