data_PCOD8313662
_publ_section_title
;
Structure prediction by ZEFSAII (Michael W. Deem and Ramdas Pophale) SiO2 
 PCOD8313662
Probable space group: P 4/N N C
;
_chemical_formula_sum "Si O2"
_cell_formula_units_Z 88
_cell_length_a 14.668418
_cell_length_b 14.668418
_cell_length_c 21.378379
_cell_angle_alpha 90.000000
_cell_angle_beta 90.000000
_cell_angle_gamma 90.000000
_cell_volume 4599.825186
_symmetry_space_group_name_H-M "P 4/N N C"
_symmetry_group_IT_number 126
_space_group.IT_coordinate_system_code '2'
_symmetry_cell_setting 'tetragonal'
loop_
_space_group_symop_operation_xyz
x,y,z
1/2-y,x,z
1/2-x,1/2-y,z
y,1/2-x,z
x,1/2-y,1/2-z
1/2-x,y,1/2-z
y,x,1/2-z
1/2-y,1/2-x,1/2-z
-x,-y,-z
1/2+y,-x,-z
1/2+x,1/2+y,-z
-y,1/2+x,-z
-x,1/2+y,1/2+z
1/2+x,-y,1/2+z
-y,-x,1/2+z
1/2+y,1/2+x,1/2+z
loop_
_atom_site_type_symbol
_atom_site_label
_atom_site_fract_x
_atom_site_fract_y
_atom_site_fract_z
Si Si1 0.769236 0.896998 0.906321
Si Si2 0.250000 0.750000 0.149990
Si Si3 0.278165 0.105158 0.551664
Si Si4 0.615996 0.475073 0.264425
Si Si5 0.778255 0.053387 0.145562
Si Si6 0.298165 0.949240 0.309236
O O1 0.672720 0.850509 0.889208
O O2 0.776391 0.992980 0.870959
O O3 0.777694 0.920812 0.979120
O O4 0.346704 0.760696 0.113236
O O5 0.265955 0.656920 0.188975
O O6 0.355143 0.179028 0.568635
O O7 0.302778 0.014935 0.590136
O O8 0.572697 0.572697 0.250000
O O9 0.642735 0.432677 0.196901
O O10 0.696579 0.489684 0.313969
O O11 0.545058 0.406418 0.297110
O O12 0.250000 0.996491 0.250000
#
# Coordination Sequence:
#
# PCOD8313662 Si02
#       6
#    16   8  16  16  16  16
#     4   9  21  39  58  85 114 143 188 238 285 344
#     4  10  21  38  53  78 110 151 191 226 264 329
#     4   9  18  37  62  83 111 147 182 233 294 339
#     4  10  21  32  53  85 114 140 189 231 276 339
#     4  10  19  35  57  79 114 150 186 228 282 334
#     4  11  21  35  58  77 111 154 184 228 284 328
#
# _framework density 19.131162
#
# number of rings (size 3 to 8) (size 9 to 14) (size 15 to 20)
#    0.000    2.182    1.818    2.455    2.545    0.000 
#    0.000    5.455    0.000   16.364    0.000    0.000 
#    0.000    0.000    0.000    0.000    0.000    0.000 
#
# Total GULP energy -1090203.029691 kJ/mol
# GULP energy per Si atom -12388.670792 kJ/mol
# Density = 1.908762 g / cm^3
# Si number density = 19.131162 Si / 1000 Ang^3
#
#
#
# Elastic Constant Matrix: (Units=GPa)
#
#
# Indices 1 2 3 4 5 6 
#
# 1 104.3049 28.0875 41.8586 0.0000 0.0000 0.0000
# 2 28.0875 104.3049 41.8586 0.0000 0.0000 0.0000
# 3 41.8586 41.8586 81.2957 0.0000 0.0000 0.0000
# 4 0.0000 0.0000 0.0000 21.3876 0.0000 0.0000
# 5 0.0000 0.0000 0.0000 0.0000 21.3876 0.0000
# 6 0.0000 0.0000 0.0000 0.0000 0.0000 23.5794
#
#
#
# Elastic Compliance Matrix: (Units=1/GPa)
#
#
# Indices 1 2 3 4 5 6 
#
# 1 0.012160 -0.000960 -0.005767 0.000000 0.000000 0.000000
# 2 -0.000960 0.012160 -0.005767 0.000000 0.000000 0.000000
# 3 -0.005767 -0.005767 0.018239 0.000000 0.000000 0.000000
# 4 0.000000 0.000000 0.000000 0.046756 0.000000 0.000000
# 5 0.000000 0.000000 0.000000 0.000000 0.046756 0.000000
# 6 0.000000 0.000000 0.000000 0.000000 0.000000 0.042410
#
#
# Mechanical properties :
#
#
# Convention : Reuss Voigt Hill
#
# Bulk Modulus (GPa) = 56.90852 57.05721 56.98286
# Shear Modulus (GPa) = 23.88615 25.14430 24.51523
#
# Velocity S-wave (km/s) = 3.53731 3.62928 3.58359
# Velocity P-wave (km/s) = 6.81869 6.88848 6.85367
#
# Compressibility (1/GPa) = 0.01757206
#
# Stress axis : x y z
#
# Youngs Moduli (GPa) = 82.23619 82.23619 54.82686
#
# Poissons Ratio (x) = 0.07897 0.31617
# Poissons Ratio (y) = 0.07897 0.31617
# Poissons Ratio (z) = 0.47423 0.47423
#
# Static dielectric constant tensor:
#      x y z
#    x 3.477550 0.000000 0.000000 
#    y 0.000000 3.477550 0.000000 
#    z 0.000000 0.000000 3.188320 
# 
# 
# High freq. dielectric constant tensor:
#      x y z
#    x 1.743130 0.000000 0.000000 
#    y 0.000000 1.743130 0.000000 
#    z 0.000000 0.000000 1.721410 
# 
# From -- ./inp_files/5157.got.cif
#   From: 2010.03.12/outbox.cif.g09.slc.cpg/sg126_3_cif.got.tgz:5157.got - 2010.04.06 16:55:23.
