data_PCOD8313572
_publ_section_title
;
Structure prediction by ZEFSAII (Michael W. Deem and Ramdas Pophale) SiO2 
 PCOD8313572
Probable space group: P 4/N B M
;
_chemical_formula_sum "Si O2"
_cell_formula_units_Z 96
_cell_length_a 23.942291
_cell_length_b 23.942291
_cell_length_c 9.947826
_cell_angle_alpha 90.000000
_cell_angle_beta 90.000000
_cell_angle_gamma 90.000000
_cell_volume 5702.425109
_symmetry_space_group_name_H-M "P 4/N B M"
_symmetry_group_IT_number 125
_space_group.IT_coordinate_system_code '2'
_symmetry_cell_setting 'tetragonal'
loop_
_space_group_symop_operation_xyz
x,y,z
1/2-y,x,z
1/2-x,1/2-y,z
y,1/2-x,z
x,1/2-y,-z
1/2-x,y,-z
y,x,-z
1/2-y,1/2-x,-z
-x,-y,-z
1/2+y,-x,-z
1/2+x,1/2+y,-z
-y,1/2+x,-z
-x,1/2+y,z
1/2+x,-y,z
-y,-x,z
1/2+y,1/2+x,z
loop_
_atom_site_type_symbol
_atom_site_label
_atom_site_fract_x
_atom_site_fract_y
_atom_site_fract_z
Si Si1 0.599464 0.812214 0.160425
Si Si2 0.686126 0.186126 0.977159
Si Si3 0.685227 0.185227 0.479959
Si Si4 0.132682 0.867319 0.730947
Si Si5 0.025884 0.684909 0.157758
Si Si6 0.599764 0.687910 0.159832
Si Si7 0.974649 0.185443 0.844157
Si Si8 0.867041 0.367041 0.227023
O O1 0.537024 0.828326 0.207633
O O2 0.615236 0.750047 0.211956
O O3 0.643630 0.856370 0.221285
O O4 0.601523 0.812588 0.000291
O O5 0.671286 0.171286 0.824875
O O6 0.671468 0.250000 0.000000
O O7 0.649418 0.149418 0.076038
O O8 0.671751 0.250000 0.500000
O O9 0.647644 0.147644 0.578335
O O10 0.669295 0.169295 0.328963
O O11 0.067539 0.854260 0.757629
O O12 0.040028 0.749858 0.182539
O O13 0.031956 0.670998 0.000889
O O14 0.537237 0.671918 0.206432
O O15 0.932874 0.146453 0.757406
#
# Coordination Sequence:
#
# PCOD8313572 Si02
#       8
#    16   8   8   8  16  16  16   8
#     4   8  14  24  39  62  93 123 150 185 228 272
#     4  11  20  28  44  66  83 108 152 194 221 262
#     4  11  24  36  44  62  93 120 148 200 255 282
#     4  12  20  31  47  63  88 121 155 187 231 282
#     4   9  16  27  43  63  86 116 157 197 225 259
#     4   8  14  24  39  62  93 123 150 185 228 272
#     4   9  16  27  43  63  86 116 157 197 225 259
#     4  12  20  31  47  63  88 121 155 187 231 282
#
# _framework density 16.834942999999999
#
# number of rings (size 3 to 8) (size 9 to 14) (size 15 to 20)
#    0.000    2.500    1.667    5.000    0.000    1.667 
#    0.000    2.500    0.000    4.000    0.000    2.333 
#    0.000    0.000    0.000    0.000    0.000   15.333 
#
# Total GULP energy -1190095.517104 kJ/mol
# GULP energy per Si atom -12396.828303 kJ/mol
# Density = 1.679663 g / cm^3
# Si number density = 16.834943 Si / 1000 Ang^3
#
#
#
# Elastic Constant Matrix: (Units=GPa)
#
#
# Indices 1 2 3 4 5 6 
#
# 1 126.0756 84.2033 13.7018 0.0000 0.0000 0.0000
# 2 84.2033 126.0756 13.7018 0.0000 0.0000 0.0000
# 3 13.7018 13.7018 21.1310 0.0000 0.0000 0.0000
# 4 0.0000 0.0000 0.0000 10.1174 0.0000 0.0000
# 5 0.0000 0.0000 0.0000 0.0000 10.1174 0.0000
# 6 0.0000 0.0000 0.0000 0.0000 0.0000 32.7595
#
#
#
# Elastic Compliance Matrix: (Units=1/GPa)
#
#
# Indices 1 2 3 4 5 6 
#
# 1 0.014538 -0.009344 -0.003368 0.000000 0.000000 0.000000
# 2 -0.009344 0.014538 -0.003368 0.000000 0.000000 0.000000
# 3 -0.003368 -0.003368 0.051692 0.000000 0.000000 0.000000
# 4 0.000000 0.000000 0.000000 0.098839 0.000000 0.000000
# 5 0.000000 0.000000 0.000000 0.000000 0.098839 0.000000
# 6 0.000000 0.000000 0.000000 0.000000 0.000000 0.030525
#
#
# Mechanical properties :
#
#
# Convention : Reuss Voigt Hill
#
# Bulk Modulus (GPa) = 20.57277 55.16623 37.86950
# Shear Modulus (GPa) = 13.99243 21.37723 17.68483
#
# Velocity S-wave (km/s) = 2.88610 3.56731 3.24463
# Velocity P-wave (km/s) = 4.83249 7.05745 6.04816
#
# Compressibility (1/GPa) = 0.04860793
#
# Stress axis : x y z
#
# Youngs Moduli (GPa) = 68.78373 68.78373 19.34541
#
# Poissons Ratio (x) = 0.64270 0.06516
# Poissons Ratio (y) = 0.64270 0.06516
# Poissons Ratio (z) = 0.23168 0.23168
#
# Static dielectric constant tensor:
#      x y z
#    x 3.354760 0.000000 0.000000 
#    y 0.000000 3.354760 0.000000 
#    z 0.000000 0.000000 2.594370 
# 
# 
# High freq. dielectric constant tensor:
#      x y z
#    x 1.648120 0.000000 0.000000 
#    y 0.000000 1.648120 0.000000 
#    z 0.000000 0.000000 1.585000 
# 
# From -- ./inp_files/4302.got.cif
#   From: 2010.03.12/outbox.cif.g09.slc.cpg/sg125_3_cif.got.tgz:4302.got - 2010.04.06 16:47:52.
