data_PCOD8313950
_publ_section_title
;
Structure prediction by ZEFSAII (Michael W. Deem and Ramdas Pophale) SiO2 
 PCOD8313950
Probable space group: P 4/M B M
;
_chemical_formula_sum "Si O2"
_cell_formula_units_Z 104
_cell_length_a 15.648459
_cell_length_b 15.648459
_cell_length_c 22.829565
_cell_angle_alpha 90.000000
_cell_angle_beta 90.000000
_cell_angle_gamma 90.000000
_cell_volume 5590.373043
_symmetry_space_group_name_H-M "P 4/M B M"
_symmetry_group_IT_number 127
_symmetry_cell_setting 'tetragonal'
loop_
_space_group_symop_operation_xyz
x,y,z
-y,x,z
-x,-y,z
y,-x,z
1/2+x,1/2-y,-z
1/2-x,1/2+y,-z
1/2+y,1/2+x,-z
1/2-y,1/2-x,-z
-x,-y,-z
y,-x,-z
x,y,-z
-y,x,-z
1/2-x,1/2+y,z
1/2+x,1/2-y,z
1/2-y,1/2-x,z
1/2+y,1/2+x,z
loop_
_atom_site_type_symbol
_atom_site_label
_atom_site_fract_x
_atom_site_fract_y
_atom_site_fract_z
Si Si1 0.615448 0.583253 0.000000
Si Si2 0.259114 0.901384 0.335869
Si Si3 0.822619 0.179719 0.228702
Si Si4 0.003622 0.634071 0.860958
Si Si5 0.054213 0.127816 0.432258
Si Si6 0.549106 0.813462 0.737484
Si Si7 0.122197 0.232610 0.106772
O O1 0.519170 0.617858 0.000000
O O2 0.663500 0.622112 0.944153
O O3 0.326003 0.826003 0.346141
O O4 0.195146 0.884365 0.281955
O O5 0.206970 0.911350 0.395379
O O6 0.306378 0.989420 0.319450
O O7 0.750639 0.250639 0.226421
O O8 0.914526 0.222557 0.239779
O O9 0.820491 0.130006 0.167095
O O10 0.941068 0.558933 0.879378
O O11 0.970413 0.718675 0.894164
O O12 0.101498 0.601498 0.876751
O O13 0.995617 0.646967 0.791141
O O14 0.064527 0.152101 0.500000
O O15 0.955489 0.110085 0.417174
O O16 0.626270 0.873731 0.717155
O O17 0.199570 0.300431 0.098941
#
# Coordination Sequence:
#
# PCOD8313950 Si02
#       7
#     8  16  16  16  16  16  16
#     4  11  27  44  56  75 107 147 184 225 280 341
#     4  11  20  32  52  82 115 145 181 227 278 328
#     4   9  19  32  51  80 110 139 176 223 268 317
#     4   9  17  31  54  82 109 136 169 216 274 328
#     4   9  19  37  58  78 105 145 192 238 280 326
#     4  10  19  31  50  79 113 146 176 213 266 328
#     4  10  20  39  61  81 107 141 184 232 278 329
#
# _framework density 18.60341
#
# number of rings (size 3 to 8) (size 9 to 14) (size 15 to 20)
#    0.000    2.231    1.538    2.077    2.154    1.231 
#    0.000    1.154    0.000    5.077    0.000    1.077 
#    0.000    0.000    0.000    0.000    0.000    0.000 
#
# Total GULP energy -1289163.809808 kJ/mol
# GULP energy per Si atom -12395.805864 kJ/mol
# Density = 1.856107 g / cm^3
# Si number density = 18.603410 Si / 1000 Ang^3
#
#
#
# Elastic Constant Matrix: (Units=GPa)
#
#
# Indices 1 2 3 4 5 6 
#
# 1 76.3318 30.4948 41.7049 0.0000 0.0000 0.0000
# 2 30.4948 76.3318 41.7049 0.0000 0.0000 0.0000
# 3 41.7049 41.7049 99.6870 0.0000 0.0000 0.0000
# 4 0.0000 0.0000 0.0000 27.6487 0.0000 0.0000
# 5 0.0000 0.0000 0.0000 0.0000 27.6487 0.0000
# 6 0.0000 0.0000 0.0000 0.0000 0.0000 24.8729
#
#
#
# Elastic Compliance Matrix: (Units=1/GPa)
#
#
# Indices 1 2 3 4 5 6 
#
# 1 0.017859 -0.003957 -0.005816 0.000000 0.000000 0.000000
# 2 -0.003957 0.017859 -0.005816 0.000000 0.000000 0.000000
# 3 -0.005816 -0.005816 0.014898 0.000000 0.000000 0.000000
# 4 0.000000 0.000000 0.000000 0.036168 0.000000 0.000000
# 5 0.000000 0.000000 0.000000 0.000000 0.036168 0.000000
# 6 0.000000 0.000000 0.000000 0.000000 0.000000 0.040204
#
#
# Mechanical properties :
#
#
# Convention : Reuss Voigt Hill
#
# Bulk Modulus (GPa) = 51.44622 53.35110 52.39866
# Shear Modulus (GPa) = 24.89858 25.26381 25.08120
#
# Velocity S-wave (km/s) = 3.66237 3.68913 3.67577
# Velocity P-wave (km/s) = 6.75264 6.84738 6.80018
#
# Compressibility (1/GPa) = 0.01943777
#
# Stress axis : x y z
#
# Youngs Moduli (GPa) = 55.99328 55.99328 67.12392
#
# Poissons Ratio (x) = 0.22157 0.39040
# Poissons Ratio (y) = 0.22157 0.39040
# Poissons Ratio (z) = 0.32566 0.32566
#
# Static dielectric constant tensor:
#      x y z
#    x 3.467730 0.000000 0.000000 
#    y 0.000000 3.467730 0.000000 
#    z 0.000000 0.000000 3.193650 
# 
# 
# High freq. dielectric constant tensor:
#      x y z
#    x 1.719570 0.000000 0.000000 
#    y 0.000000 1.719570 0.000000 
#    z 0.000000 0.000000 1.700820 
# 
# From -- ./inp_files/6193.got.cif
#   From: 2010.03.12/outbox.cif.g09.slc.cpg/sg127_4_cif.got.tgz:6193.got - 2010.04.06 17:03:15.
