data_PCOD8313110
_publ_section_title
;
Structure prediction by ZEFSAII (Michael W. Deem and Ramdas Pophale) SiO2 
 PCOD8313110
Probable space group: P 4/M C C
;
_chemical_formula_sum "Si O2"
_cell_formula_units_Z 96
_cell_length_a 15.897340
_cell_length_b 15.897340
_cell_length_c 27.052650
_cell_angle_alpha 90.000000
_cell_angle_beta 90.000000
_cell_angle_gamma 90.000000
_cell_volume 6836.892308
_symmetry_space_group_name_H-M "P 4/M C C"
_symmetry_group_IT_number 124
_symmetry_cell_setting 'tetragonal'
loop_
_space_group_symop_operation_xyz
x,y,z
-y,x,z
-x,-y,z
y,-x,z
x,-y,1/2-z
-x,y,1/2-z
y,x,1/2-z
-y,-x,1/2-z
-x,-y,-z
y,-x,-z
x,y,-z
-y,x,-z
-x,y,1/2+z
x,-y,1/2+z
-y,-x,1/2+z
y,x,1/2+z
loop_
_atom_site_type_symbol
_atom_site_label
_atom_site_fract_x
_atom_site_fract_y
_atom_site_fract_z
Si Si1 0.410069 0.965036 0.058044
Si Si2 0.158655 0.176896 0.942314
Si Si3 0.998597 0.138423 0.694124
Si Si4 0.559060 0.618697 0.441122
Si Si5 0.010504 0.763985 0.099405
Si Si6 0.783509 0.355367 0.441991
O O1 0.335844 0.010373 0.088702
O O2 0.500000 0.000000 0.075364
O O3 0.410562 0.865856 0.069945
O O4 0.393919 0.982295 0.000000
O O5 0.197458 0.099954 0.913409
O O6 0.205009 0.260757 0.921874
O O7 0.059188 0.187429 0.933025
O O8 0.173966 0.163550 0.000000
O O9 0.994982 0.218230 0.657483
O O10 0.916797 0.081560 0.684429
O O11 0.000000 0.173295 0.750000
O O12 0.462574 0.611504 0.422906
O O13 0.559894 0.623019 0.500000
O O14 0.600664 0.702133 0.417362
O O15 0.769574 0.349918 0.500000
#
# Coordination Sequence:
#
# PCOD8313110 Si02
#       6
#    16  16  16  16  16  16
#     4   9  18  30  41  55  80 116 151 174 198 244
#     4  10  19  27  37  57  84 113 141 170 203 241
#     4   9  17  30  46  65  86 109 138 172 218 269
#     4   8  13  21  34  51  68  88 121 169 217 245
#     4  11  18  29  43  60  84 110 138 178 211 253
#     4   8  15  26  36  49  72 102 138 172 199 234
#
# _framework density 14.041467000000001
#
# number of rings (size 3 to 8) (size 9 to 14) (size 15 to 20)
#    0.000    2.833    1.667    3.500    0.000    1.667 
#    0.000    5.833    0.000    0.500    0.000    0.000 
#    0.000    0.000    0.000    0.000    0.000    0.000 
#
# Total GULP energy -1189929.751606 kJ/mol
# GULP energy per Si atom -12395.101579 kJ/mol
# Density = 1.400951 g / cm^3
# Si number density = 14.041467 Si / 1000 Ang^3
#
#
#
# Elastic Constant Matrix: (Units=GPa)
#
#
# Indices 1 2 3 4 5 6 
#
# 1 107.3589 58.4877 22.1635 0.0000 0.0000 0.0000
# 2 58.4877 107.3589 22.1635 0.0000 0.0000 0.0000
# 3 22.1635 22.1635 50.7543 0.0000 0.0000 0.0000
# 4 0.0000 0.0000 0.0000 11.7307 0.0000 0.0000
# 5 0.0000 0.0000 0.0000 0.0000 11.7307 0.0000
# 6 0.0000 0.0000 0.0000 0.0000 0.0000 20.0795
#
#
#
# Elastic Compliance Matrix: (Units=1/GPa)
#
#
# Indices 1 2 3 4 5 6 
#
# 1 0.013644 -0.006818 -0.002981 0.000000 0.000000 0.000000
# 2 -0.006818 0.013644 -0.002981 0.000000 0.000000 0.000000
# 3 -0.002981 -0.002981 0.022306 0.000000 0.000000 0.000000
# 4 0.000000 0.000000 0.000000 0.085246 0.000000 0.000000
# 5 0.000000 0.000000 0.000000 0.000000 0.085246 0.000000
# 6 0.000000 0.000000 0.000000 0.000000 0.000000 0.049802
#
#
# Mechanical properties :
#
#
# Convention : Reuss Voigt Hill
#
# Bulk Modulus (GPa) = 41.60569 52.34462 46.97515
# Shear Modulus (GPa) = 16.47663 19.55202 18.01433
#
# Velocity S-wave (km/s) = 3.42925 3.73560 3.58570
# Velocity P-wave (km/s) = 6.73606 7.48103 7.11830
#
# Compressibility (1/GPa) = 0.02403518
#
# Stress axis : x y z
#
# Youngs Moduli (GPa) = 73.29128 73.29128 44.83051
#
# Poissons Ratio (x) = 0.49968 0.13364
# Poissons Ratio (y) = 0.49968 0.13364
# Poissons Ratio (z) = 0.21848 0.21848
#
# Static dielectric constant tensor:
#      x y z
#    x 2.900580 0.000000 0.000000 
#    y 0.000000 2.900580 0.000000 
#    z 0.000000 0.000000 2.397470 
# 
# 
# High freq. dielectric constant tensor:
#      x y z
#    x 1.536250 0.000000 0.000000 
#    y 0.000000 1.536250 0.000000 
#    z 0.000000 0.000000 1.481080 
# 
# From -- ./inp_files/7214.got.cif
#   From: 2010.03.12/outbox.cif.g09.slc.cpg/sg124_4_cif.got.tgz:7214.got - 2010.04.06 16:38:57.
