data_PCOD8313518
_publ_section_title
;
Structure prediction by ZEFSAII (Michael W. Deem and Ramdas Pophale) SiO2 
 PCOD8313518
Probable space group: P 4/N B M
;
_chemical_formula_sum "Si O2"
_cell_formula_units_Z 42
_cell_length_a 13.512622
_cell_length_b 13.512622
_cell_length_c 10.369260
_cell_angle_alpha 90.000000
_cell_angle_beta 90.000000
_cell_angle_gamma 90.000000
_cell_volume 1893.333069
_symmetry_space_group_name_H-M "P 4/N B M"
_symmetry_group_IT_number 125
_space_group.IT_coordinate_system_code '2'
_symmetry_cell_setting 'tetragonal'
loop_
_space_group_symop_operation_xyz
x,y,z
1/2-y,x,z
1/2-x,1/2-y,z
y,1/2-x,z
x,1/2-y,-z
1/2-x,y,-z
y,x,-z
1/2-y,1/2-x,-z
-x,-y,-z
1/2+y,-x,-z
1/2+x,1/2+y,-z
-y,1/2+x,-z
-x,1/2+y,z
1/2+x,-y,z
-y,-x,z
1/2+y,1/2+x,z
loop_
_atom_site_type_symbol
_atom_site_label
_atom_site_fract_x
_atom_site_fract_y
_atom_site_fract_z
Si Si1 0.250000 0.750000 0.500000
Si Si2 0.097713 0.902288 0.379211
Si Si3 0.497773 0.502228 0.848009
Si Si4 0.115451 0.177689 0.230193
Si Si5 0.112652 0.112652 0.500000
O O1 0.181655 0.818346 0.405140
O O2 0.073446 0.926555 0.226229
O O3 0.995744 0.868786 0.441958
O O4 0.383893 0.481655 0.807178
O O5 0.500000 0.500000 0.000000
O O6 0.211103 0.116937 0.174366
O O7 0.123114 0.192220 0.385306
#
# Coordination Sequence:
#
# PCOD8313518 Si02
#       5
#     2   8   8  16   8
#     4  12  24  36  68 112 138 164 228 292 374 424
#     4   9  22  37  59  95 135 170 204 274 341 412
#     4  10  23  43  61  85 126 175 223 264 326 401
#     4  10  21  37  63  93 122 161 210 272 328 391
#     4   9  18  37  58  90 132 164 202 258 340 402
#
# _framework density 22.183101000000001
#
# number of rings (size 3 to 8) (size 9 to 14) (size 15 to 20)
#    0.000    2.286    0.000    2.286   10.667    3.048 
#    0.000    1.905    0.000    0.000    0.000    5.333 
#    0.000    0.000    0.000    0.000    0.000    0.000 
#
# Total GULP energy -520300.522139 kJ/mol
# GULP energy per Si atom -12388.107670 kJ/mol
# Density = 2.213261 g / cm^3
# Si number density = 22.183101 Si / 1000 Ang^3
#
#
#
# Elastic Constant Matrix: (Units=GPa)
#
#
# Indices 1 2 3 4 5 6 
#
# 1 77.4243 45.1069 14.6879 0.0000 0.0000 0.0000
# 2 45.1069 77.4243 14.6879 0.0000 0.0000 0.0000
# 3 14.6879 14.6879 104.4389 0.0000 0.0000 0.0000
# 4 0.0000 0.0000 0.0000 13.0143 0.0000 0.0000
# 5 0.0000 0.0000 0.0000 0.0000 13.0143 0.0000
# 6 0.0000 0.0000 0.0000 0.0000 0.0000 53.5713
#
#
#
# Elastic Compliance Matrix: (Units=1/GPa)
#
#
# Indices 1 2 3 4 5 6 
#
# 1 0.019695 -0.011249 -0.001188 0.000000 0.000000 0.000000
# 2 -0.011249 0.019695 -0.001188 0.000000 0.000000 0.000000
# 3 -0.001188 -0.001188 0.009909 0.000000 0.000000 0.000000
# 4 0.000000 0.000000 0.000000 0.076839 0.000000 0.000000
# 5 0.000000 0.000000 0.000000 0.000000 0.076839 0.000000
# 6 0.000000 0.000000 0.000000 0.000000 0.000000 0.018667
#
#
# Mechanical properties :
#
#
# Convention : Reuss Voigt Hill
#
# Bulk Modulus (GPa) = 45.35198 45.36142 45.35670
# Shear Modulus (GPa) = 19.51294 28.24029 23.87661
#
# Velocity S-wave (km/s) = 2.96907 3.57186 3.28432
# Velocity P-wave (km/s) = 5.67826 6.12405 5.90536
#
# Compressibility (1/GPa) = 0.02204976
#
# Stress axis : x y z
#
# Youngs Moduli (GPa) = 50.77555 50.77555 100.91760
#
# Poissons Ratio (x) = 0.57115 0.11987
# Poissons Ratio (y) = 0.57115 0.11987
# Poissons Ratio (z) = 0.06031 0.06031
#
# Static dielectric constant tensor:
#      x y z
#    x 4.067890 0.000000 0.000000 
#    y 0.000000 4.067890 0.000000 
#    z 0.000000 0.000000 3.842660 
# 
# 
# High freq. dielectric constant tensor:
#      x y z
#    x 1.871950 0.000000 0.000000 
#    y 0.000000 1.871950 0.000000 
#    z 0.000000 0.000000 1.847800 
# 
# From -- ./inp_files/1732.got.cif
#   From: 2010.03.12/outbox.cif.g09.slc.cpg/sg125_1_cif.got.tgz:1732.got - 2010.04.06 16:47:52.
