data_PCOD8313685
_publ_section_title
;
Structure prediction by ZEFSAII (Michael W. Deem and Ramdas Pophale) SiO2 
 PCOD8313685
Probable space group: P 4/N N C
;
_chemical_formula_sum "Si O2"
_cell_formula_units_Z 112
_cell_length_a 15.812816
_cell_length_b 15.812816
_cell_length_c 25.234304
_cell_angle_alpha 90.000000
_cell_angle_beta 90.000000
_cell_angle_gamma 90.000000
_cell_volume 6309.715325
_symmetry_space_group_name_H-M "P 4/N N C"
_symmetry_group_IT_number 126
_space_group.IT_coordinate_system_code '2'
_symmetry_cell_setting 'tetragonal'
loop_
_space_group_symop_operation_xyz
x,y,z
1/2-y,x,z
1/2-x,1/2-y,z
y,1/2-x,z
x,1/2-y,1/2-z
1/2-x,y,1/2-z
y,x,1/2-z
1/2-y,1/2-x,1/2-z
-x,-y,-z
1/2+y,-x,-z
1/2+x,1/2+y,-z
-y,1/2+x,-z
-x,1/2+y,1/2+z
1/2+x,-y,1/2+z
-y,-x,1/2+z
1/2+y,1/2+x,1/2+z
loop_
_atom_site_type_symbol
_atom_site_label
_atom_site_fract_x
_atom_site_fract_y
_atom_site_fract_z
Si Si1 0.298744 0.627971 0.520770
Si Si2 0.495420 0.585209 0.966336
Si Si3 0.707580 0.422892 0.807825
Si Si4 0.340100 0.147324 0.089488
Si Si5 0.844932 0.264781 0.636724
Si Si6 0.420393 0.617463 0.855491
Si Si7 0.076132 0.413328 0.191340
O O1 0.205833 0.640888 0.496105
O O2 0.337960 0.540915 0.500342
O O3 0.297956 0.610578 0.583715
O O4 0.591144 0.604871 0.950028
O O5 0.437038 0.579927 0.913774
O O6 0.500000 0.500000 0.000000
O O7 0.750000 0.427628 0.750000
O O8 0.660680 0.332654 0.815722
O O9 0.781368 0.439823 0.851149
O O10 0.632751 0.488032 0.818494
O O11 0.367781 0.242143 0.078251
O O12 0.354674 0.120727 0.150415
O O13 0.750000 0.250000 0.616191
O O14 0.891784 0.179571 0.658411
O O15 0.483800 0.567804 0.815260
O O16 0.108549 0.391452 0.250000
#
# Coordination Sequence:
#
# PCOD8313685 Si02
#       7
#    16  16  16  16  16  16  16
#     4  11  19  35  58  84 111 145 186 235 294 348
#     4  11  24  36  58  83 111 149 189 239 290 345
#     4  11  22  37  59  84 115 153 189 235 296 339
#     4  10  24  40  56  77 110 152 193 237 279 338
#     4  10  20  34  56  82 112 147 184 233 283 354
#     4  10  21  38  51  81 116 142 191 230 278 351
#     4  11  21  36  55  80 111 149 186 233 276 335
#
# _framework density 17.750405000000001
#
# number of rings (size 3 to 8) (size 9 to 14) (size 15 to 20)
#    0.000    1.429    4.286    2.571    6.000    2.571 
#    0.000    0.714    0.000    0.000    0.000    0.000 
#    0.000    0.571    0.000    1.286    0.000    0.000 
#
# Total GULP energy -1388094.695305 kJ/mol
# GULP energy per Si atom -12393.702637 kJ/mol
# Density = 1.771000 g / cm^3
# Si number density = 17.750405 Si / 1000 Ang^3
#
#
#
# Elastic Constant Matrix: (Units=GPa)
#
#
# Indices 1 2 3 4 5 6 
#
# 1 88.8869 68.9923 44.6087 0.0000 0.0000 0.0000
# 2 68.9923 88.8868 44.6088 0.0000 0.0000 0.0000
# 3 44.6087 44.6088 79.3519 0.0000 0.0000 0.0000
# 4 0.0000 0.0000 0.0000 25.2839 0.0000 0.0000
# 5 0.0000 0.0000 0.0000 0.0000 25.2839 0.0000
# 6 0.0000 0.0000 0.0000 0.0000 0.0000 26.7590
#
#
#
# Elastic Compliance Matrix: (Units=1/GPa)
#
#
# Indices 1 2 3 4 5 6 
#
# 1 0.029774 -0.020491 -0.005219 0.000000 0.000000 0.000000
# 2 -0.020491 0.029774 -0.005219 0.000000 0.000000 0.000000
# 3 -0.005219 -0.005219 0.018469 0.000000 0.000000 0.000000
# 4 0.000000 0.000000 0.000000 0.039551 0.000000 0.000000
# 5 0.000000 0.000000 0.000000 0.000000 0.039551 0.000000
# 6 0.000000 0.000000 0.000000 0.000000 0.000000 0.037371
#
#
# Mechanical properties :
#
#
# Convention : Reuss Voigt Hill
#
# Bulk Modulus (GPa) = 61.87664 63.72726 62.80195
# Shear Modulus (GPa) = 19.10344 22.05974 20.58159
#
# Velocity S-wave (km/s) = 3.28415 3.52912 3.40884
# Velocity P-wave (km/s) = 7.02252 7.25163 7.13799
#
# Compressibility (1/GPa) = 0.01616119
#
# Stress axis : x y z
#
# Youngs Moduli (GPa) = 33.58642 33.58635 54.14354
#
# Poissons Ratio (x) = 0.68822 0.28255
# Poissons Ratio (y) = 0.68822 0.28255
# Poissons Ratio (z) = 0.17527 0.17527
#
# Static dielectric constant tensor:
#      x y z
#    x 3.324930 0.000000 0.000000 
#    y 0.000000 3.324940 0.000000 
#    z 0.000000 0.000000 3.315000 
# 
# 
# High freq. dielectric constant tensor:
#      x y z
#    x 1.673520 0.000000 0.000000 
#    y 0.000000 1.673520 0.000000 
#    z 0.000000 0.000000 1.686280 
# 
# From -- ./inp_files/6210.got.cif
#   From: 2010.03.12/outbox.cif.g09.slc.cpg/sg126_4_cif.got.tgz:6210.got - 2010.04.06 16:55:23.
