data_PCOD8313216
_publ_section_title
;
Structure prediction by ZEFSAII (Michael W. Deem and Ramdas Pophale) SiO2 
 PCOD8313216
Probable space group: P 4/M C C
;
_chemical_formula_sum "Si O2"
_cell_formula_units_Z 52
_cell_length_a 18.480865
_cell_length_b 18.480865
_cell_length_c 9.116557
_cell_angle_alpha 90.000000
_cell_angle_beta 90.000000
_cell_angle_gamma 90.000000
_cell_volume 3113.690494
_symmetry_space_group_name_H-M "P 4/M C C"
_symmetry_group_IT_number 124
_symmetry_cell_setting 'tetragonal'
loop_
_space_group_symop_operation_xyz
x,y,z
-y,x,z
-x,-y,z
y,-x,z
x,-y,1/2-z
-x,y,1/2-z
y,x,1/2-z
-y,-x,1/2-z
-x,-y,-z
y,-x,-z
x,y,-z
-y,x,-z
-x,y,1/2+z
x,-y,1/2+z
-y,-x,1/2+z
y,x,1/2+z
loop_
_atom_site_type_symbol
_atom_site_label
_atom_site_fract_x
_atom_site_fract_y
_atom_site_fract_z
Si Si1 0.359802 0.067326 0.335519
Si Si2 0.208128 0.690916 0.832754
Si Si3 0.670079 0.429647 0.833522
Si Si4 0.500000 0.000000 0.750000
O O1 0.329130 0.073258 0.500000
O O2 0.340797 0.139001 0.248263
O O3 0.447040 0.052797 0.344048
O O4 0.322332 0.000000 0.250000
O O5 0.237726 0.762274 0.750000
O O6 0.267558 0.629119 0.828410
O O7 0.188594 0.711645 0.000000
O O8 0.699391 0.500000 0.750000
O O9 0.599079 0.400922 0.750000
O O10 0.649198 0.449015 0.000000
#
# Coordination Sequence:
#
# PCOD8313216 Si02
#       4
#    16  16  16   4
#     4  10  20  33  51  75 105 137 173 212 255 309
#     4  10  21  36  53  74 101 135 172 211 257 310
#     4  10  21  35  50  68  89 118 157 204 253 304
#     4   8  22  32  50  76 110 140 174 208 266 312
#
# _framework density 16.700438999999999
#
# number of rings (size 3 to 8) (size 9 to 14) (size 15 to 20)
#    0.923    1.231    0.000    3.231    2.154    4.000 
#    0.000    1.538    0.000    0.000    0.000    0.000 
#    0.000    0.615    0.000    6.154    0.000    3.692 
#
# Total GULP energy -644460.303808 kJ/mol
# GULP energy per Si atom -12393.467381 kJ/mol
# Density = 1.666243 g / cm^3
# Si number density = 16.700439 Si / 1000 Ang^3
#
#
#
# Elastic Constant Matrix: (Units=GPa)
#
#
# Indices 1 2 3 4 5 6 
#
# 1 71.2100 15.9323 45.1453 0.0000 0.0000 0.0000
# 2 15.9323 71.2076 45.1441 0.0000 0.0000 0.0000
# 3 45.1453 45.1441 174.5872 0.0000 0.0000 0.0000
# 4 0.0000 0.0000 0.0000 22.8807 0.0000 0.0000
# 5 0.0000 0.0000 0.0000 0.0000 22.8811 0.0000
# 6 0.0000 0.0000 0.0000 0.0000 0.0000 7.3061
#
#
#
# Elastic Compliance Matrix: (Units=1/GPa)
#
#
# Indices 1 2 3 4 5 6 
#
# 1 0.016883 -0.001208 -0.004053 0.000000 0.000000 0.000000
# 2 -0.001208 0.016883 -0.004053 0.000000 0.000000 0.000000
# 3 -0.004053 -0.004053 0.007824 0.000000 0.000000 0.000000
# 4 0.000000 0.000000 0.000000 0.043705 0.000000 0.000000
# 5 0.000000 0.000000 0.000000 0.000000 0.043704 0.000000
# 6 0.000000 0.000000 0.000000 0.000000 0.000000 0.136871
#
#
# Mechanical properties :
#
#
# Convention : Reuss Voigt Hill
#
# Bulk Modulus (GPa) = 43.55119 58.82758 51.18938
# Shear Modulus (GPa) = 17.11431 24.66579 20.89005
#
# Velocity S-wave (km/s) = 3.20469 3.84729 3.54060
# Velocity P-wave (km/s) = 6.31094 7.41870 6.88713
#
# Compressibility (1/GPa) = 0.02296149
#
# Stress axis : x y z
#
# Youngs Moduli (GPa) = 59.23153 59.22974 127.81151
#
# Poissons Ratio (x) = 0.07153 0.51806
# Poissons Ratio (y) = 0.07154 0.51806
# Poissons Ratio (z) = 0.24009 0.24008
#
# Static dielectric constant tensor:
#      x y z
#    x 2.970680 0.000000 0.000000 
#    y 0.000000 2.970680 0.000000 
#    z 0.000000 0.000000 3.390030 
# 
# 
# High freq. dielectric constant tensor:
#      x y z
#    x 1.618730 0.000000 0.000000 
#    y 0.000000 1.618730 0.000000 
#    z 0.000000 0.000000 1.664940 
# 
# From -- ./inp_files/562.got.cif
#   From: 2010.03.12/outbox.cif.g09.slc.cpg/sg124_1_cif.got.tgz:562.got - 2010.04.06 16:38:57.
