data_PCOD8313135
_publ_section_title
;
Structure prediction by ZEFSAII (Michael W. Deem and Ramdas Pophale) SiO2 
 PCOD8313135
Probable space group: P 4/M C C
;
_chemical_formula_sum "Si O2"
_cell_formula_units_Z 88
_cell_length_a 14.461383
_cell_length_b 14.461383
_cell_length_c 24.076428
_cell_angle_alpha 90.000000
_cell_angle_beta 90.000000
_cell_angle_gamma 90.000000
_cell_volume 5035.141868
_symmetry_space_group_name_H-M "P 4/M C C"
_symmetry_group_IT_number 124
_symmetry_cell_setting 'tetragonal'
loop_
_space_group_symop_operation_xyz
x,y,z
-y,x,z
-x,-y,z
y,-x,z
x,-y,1/2-z
-x,y,1/2-z
y,x,1/2-z
-y,-x,1/2-z
-x,-y,-z
y,-x,-z
x,y,-z
-y,x,-z
-x,y,1/2+z
x,-y,1/2+z
-y,-x,1/2+z
y,x,1/2+z
loop_
_atom_site_type_symbol
_atom_site_label
_atom_site_fract_x
_atom_site_fract_y
_atom_site_fract_z
Si Si1 0.911413 0.125653 0.500000
Si Si2 0.832121 0.260929 0.409736
Si Si3 0.301771 0.297606 0.685030
Si Si4 0.546552 0.904627 0.596699
Si Si5 0.324002 0.694663 0.000000
Si Si6 0.226666 0.498510 0.686066
Si Si7 0.770035 0.496065 0.000000
O O1 0.876605 0.173630 0.442388
O O2 0.022209 0.127875 0.500000
O O3 0.781257 0.243507 0.349818
O O4 0.910739 0.341032 0.404249
O O5 0.748748 0.299035 0.445129
O O6 0.279851 0.279851 0.750000
O O7 0.275318 0.402525 0.668063
O O8 0.411711 0.289795 0.671702
O O9 0.509242 0.872194 0.656344
O O10 0.510770 0.830085 0.553920
O O11 0.500000 0.000000 0.580078
O O12 0.434610 0.682252 0.000000
O O13 0.267632 0.603984 0.000000
O O14 0.201973 0.500000 0.750000
#
# Coordination Sequence:
#
# PCOD8313135 Si02
#       7
#     8  16  16  16   8  16   8
#     4  10  22  39  59  79  96 119 159 213 264 312
#     4   9  19  34  50  74 101 127 163 204 249 299
#     4   9  17  31  50  74 106 140 171 202 236 281
#     4  10  20  32  48  70  97 127 162 201 243 295
#     4   9  18  30  46  68  98 128 159 198 235 285
#     4   9  18  31  48  71 100 134 170 205 238 277
#     4  10  19  31  46  68  94 124 159 194 239 291
#
# _framework density 17.477164999999999
#
# number of rings (size 3 to 8) (size 9 to 14) (size 15 to 20)
#    0.000    2.636    0.000    1.909    0.000    5.273 
#    0.000    1.818    0.000    9.818    0.000    1.273 
#    0.000    0.000    0.000    0.000    0.000    0.000 
#
# Total GULP energy -1090194.096349 kJ/mol
# GULP energy per Si atom -12388.569277 kJ/mol
# Density = 1.743739 g / cm^3
# Si number density = 17.477165 Si / 1000 Ang^3
#
#
#
# Elastic Constant Matrix: (Units=GPa)
#
#
# Indices 1 2 3 4 5 6 
#
# 1 76.7265 60.6375 36.5764 0.0000 0.0000 0.0000
# 2 60.6375 76.7265 36.5764 0.0000 0.0000 0.0000
# 3 36.5764 36.5764 80.4421 0.0000 0.0000 0.0000
# 4 0.0000 0.0000 0.0000 32.7616 0.0000 0.0000
# 5 0.0000 0.0000 0.0000 0.0000 32.7616 0.0000
# 6 0.0000 0.0000 0.0000 0.0000 0.0000 26.9361
#
#
#
# Elastic Compliance Matrix: (Units=1/GPa)
#
#
# Indices 1 2 3 4 5 6 
#
# 1 0.035880 -0.026274 -0.004368 0.000000 0.000000 0.000000
# 2 -0.026274 0.035880 -0.004368 0.000000 0.000000 0.000000
# 3 -0.004368 -0.004368 0.016403 0.000000 0.000000 0.000000
# 4 0.000000 0.000000 0.000000 0.030524 0.000000 0.000000
# 5 0.000000 0.000000 0.000000 0.000000 0.030524 0.000000
# 6 0.000000 0.000000 0.000000 0.000000 0.000000 0.037125
#
#
# Mechanical properties :
#
#
# Convention : Reuss Voigt Hill
#
# Bulk Modulus (GPa) = 55.11412 55.71952 55.41682
# Shear Modulus (GPa) = 19.05464 25.16552 22.11008
#
# Velocity S-wave (km/s) = 3.30549 3.79873 3.56066
# Velocity P-wave (km/s) = 6.79498 7.15479 6.97720
#
# Compressibility (1/GPa) = 0.01814417
#
# Stress axis : x y z
#
# Youngs Moduli (GPa) = 27.87050 27.87050 60.96346
#
# Poissons Ratio (x) = 0.73228 0.26627
# Poissons Ratio (y) = 0.73228 0.26627
# Poissons Ratio (z) = 0.12173 0.12173
#
# Static dielectric constant tensor:
#      x y z
#    x 3.206910 0.000000 0.000000 
#    y 0.000000 3.206910 0.000000 
#    z 0.000000 0.000000 3.652230 
# 
# 
# High freq. dielectric constant tensor:
#      x y z
#    x 1.661510 0.000000 0.000000 
#    y 0.000000 1.661510 0.000000 
#    z 0.000000 0.000000 1.690230 
# 
# From -- ./inp_files/6022.got.cif
#   From: 2010.03.12/outbox.cif.g09.slc.cpg/sg124_4_cif.got.tgz:6022.got - 2010.04.06 16:38:57.
