data_PCOD8313254
_publ_section_title
;
Structure prediction by ZEFSAII (Michael W. Deem and Ramdas Pophale) SiO2 
 PCOD8313254
Probable space group: P 4/M C C
;
_chemical_formula_sum "Si O2"
_cell_formula_units_Z 120
_cell_length_a 20.791986
_cell_length_b 20.791986
_cell_length_c 14.108275
_cell_angle_alpha 90.000000
_cell_angle_beta 90.000000
_cell_angle_gamma 90.000000
_cell_volume 6099.101552
_symmetry_space_group_name_H-M "P 4/M C C"
_symmetry_group_IT_number 124
_symmetry_cell_setting 'tetragonal'
loop_
_space_group_symop_operation_xyz
x,y,z
-y,x,z
-x,-y,z
y,-x,z
x,-y,1/2-z
-x,y,1/2-z
y,x,1/2-z
-y,-x,1/2-z
-x,-y,-z
y,-x,-z
x,y,-z
-y,x,-z
-x,y,1/2+z
x,-y,1/2+z
-y,-x,1/2+z
y,x,1/2+z
loop_
_atom_site_type_symbol
_atom_site_label
_atom_site_fract_x
_atom_site_fract_y
_atom_site_fract_z
Si Si1 0.988178 0.249464 0.395177
Si Si2 0.074611 0.569060 0.743301
Si Si3 0.674286 0.889770 0.887305
Si Si4 0.335297 0.431841 0.301532
Si Si5 0.874349 0.664731 0.111052
Si Si6 0.995805 0.898588 0.138475
Si Si7 0.331778 0.227994 0.230129
Si Si8 0.540256 0.599876 0.000000
O O1 0.988513 0.278394 0.500000
O O2 0.054002 0.276940 0.348650
O O3 0.990026 0.172756 0.400371
O O4 0.921092 0.276358 0.352369
O O5 0.108861 0.500000 0.750000
O O6 0.101308 0.607368 0.833408
O O7 0.088447 0.599876 0.640262
O O8 0.000000 0.561082 0.750000
O O9 0.695851 0.818883 0.852968
O O10 0.666147 0.890536 0.000000
O O11 0.329364 0.500000 0.250000
O O12 0.389042 0.389042 0.250000
O O13 0.265018 0.397490 0.298648
O O14 0.356956 0.442404 0.409442
O O15 0.809091 0.662224 0.170241
O O16 0.857946 0.667305 0.000000
O O17 0.934003 0.939245 0.102430
O O18 0.000000 0.895874 0.250000
O O19 0.278922 0.278922 0.250000
O O20 0.464855 0.582641 0.000000
#
# Coordination Sequence:
#
# PCOD8313254 Si02
#       8
#    16  16  16  16  16  16  16   8
#     4  10  21  37  61  87 112 151 203 260 319 369
#     4  10  20  35  60  90 117 146 190 246 313 375
#     4  10  22  40  61  88 121 158 208 264 307 369
#     4  11  23  44  66  97 138 174 215 264 312 380
#     4  10  22  42  63  87 121 160 211 267 316 377
#     4   9  20  36  54  83 118 152 189 238 312 392
#     4  10  25  42  61  88 124 172 215 250 307 372
#     4  11  22  38  74 114 136 172 215 265 329 370
#
# _framework density 19.675028999999999
#
# number of rings (size 3 to 8) (size 9 to 14) (size 15 to 20)
#    0.000    1.933    2.667    0.400    4.667    4.933 
#    4.800    4.667    0.000    0.000    0.000    0.000 
#    0.000    0.000    0.000    0.000    0.000    0.000 
#
# Total GULP energy -1486733.987471 kJ/mol
# GULP energy per Si atom -12389.449896 kJ/mol
# Density = 1.963025 g / cm^3
# Si number density = 19.675029 Si / 1000 Ang^3
#
#
#
# Elastic Constant Matrix: (Units=GPa)
#
#
# Indices 1 2 3 4 5 6 
#
# 1 131.6521 53.9404 37.4639 0.0000 0.0000 0.0000
# 2 53.9404 131.6521 37.4639 0.0000 0.0000 0.0000
# 3 37.4639 37.4639 129.3642 0.0000 0.0000 0.0000
# 4 0.0000 0.0000 0.0000 27.0318 0.0000 0.0000
# 5 0.0000 0.0000 0.0000 0.0000 27.0318 0.0000
# 6 0.0000 0.0000 0.0000 0.0000 0.0000 12.4074
#
#
#
# Elastic Compliance Matrix: (Units=1/GPa)
#
#
# Indices 1 2 3 4 5 6 
#
# 1 0.009485 -0.003383 -0.001767 0.000000 0.000000 0.000000
# 2 -0.003383 0.009485 -0.001767 0.000000 0.000000 0.000000
# 3 -0.001767 -0.001767 0.008754 0.000000 0.000000 0.000000
# 4 0.000000 0.000000 0.000000 0.036993 0.000000 0.000000
# 5 0.000000 0.000000 0.000000 0.000000 0.036993 0.000000
# 6 0.000000 0.000000 0.000000 0.000000 0.000000 0.080597
#
#
# Mechanical properties :
#
#
# Convention : Reuss Voigt Hill
#
# Bulk Modulus (GPa) = 72.00149 72.26721 72.13435
# Shear Modulus (GPa) = 24.90399 30.88089 27.89244
#
# Velocity S-wave (km/s) = 3.56162 3.96605 3.76926
# Velocity P-wave (km/s) = 7.32041 7.60151 7.46228
#
# Compressibility (1/GPa) = 0.01388860
#
# Stress axis : x y z
#
# Youngs Moduli (GPa) = 105.43184 105.43184 114.23913
#
# Poissons Ratio (x) = 0.35670 0.20186
# Poissons Ratio (y) = 0.35670 0.20186
# Poissons Ratio (z) = 0.18630 0.18630
#
# Static dielectric constant tensor:
#      x y z
#    x 4.522590 0.000000 0.000000 
#    y 0.000000 4.522590 0.000000 
#    z 0.000000 0.000000 3.609030 
# 
# 
# High freq. dielectric constant tensor:
#      x y z
#    x 1.768920 0.000000 0.000000 
#    y 0.000000 1.768920 0.000000 
#    z 0.000000 0.000000 1.772380 
# 
# From -- ./inp_files/3491.got.cif
#   From: 2010.03.12/outbox.cif.g09.slc.cpg/sg124_2_cif.got.tgz:3491.got - 2010.04.06 16:38:57.
