data_PCOD8313697
_publ_section_title
;
Structure prediction by ZEFSAII (Michael W. Deem and Ramdas Pophale) SiO2 
 PCOD8313697
Probable space group: P 4/N N C
;
_chemical_formula_sum "Si O2"
_cell_formula_units_Z 96
_cell_length_a 20.028476
_cell_length_b 20.028476
_cell_length_c 12.671237
_cell_angle_alpha 90.000000
_cell_angle_beta 90.000000
_cell_angle_gamma 90.000000
_cell_volume 5082.938121
_symmetry_space_group_name_H-M "P 4/N N C"
_symmetry_group_IT_number 126
_space_group.IT_coordinate_system_code '2'
_symmetry_cell_setting 'tetragonal'
loop_
_space_group_symop_operation_xyz
x,y,z
1/2-y,x,z
1/2-x,1/2-y,z
y,1/2-x,z
x,1/2-y,1/2-z
1/2-x,y,1/2-z
y,x,1/2-z
1/2-y,1/2-x,1/2-z
-x,-y,-z
1/2+y,-x,-z
1/2+x,1/2+y,-z
-y,1/2+x,-z
-x,1/2+y,1/2+z
1/2+x,-y,1/2+z
-y,-x,1/2+z
1/2+y,1/2+x,1/2+z
loop_
_atom_site_type_symbol
_atom_site_label
_atom_site_fract_x
_atom_site_fract_y
_atom_site_fract_z
Si Si1 0.977179 0.826206 0.243869
Si Si2 0.557871 0.304067 0.322853
Si Si3 0.778263 0.352525 0.494498
Si Si4 0.023181 0.064470 0.361644
Si Si5 0.373639 0.820605 0.224174
Si Si6 0.934750 0.565362 0.405091
O O1 0.950096 0.750000 0.250000
O O2 0.965261 0.867549 0.352747
O O3 0.941719 0.860482 0.143091
O O4 0.055625 0.826108 0.216844
O O5 0.517533 0.250000 0.250000
O O6 0.588210 0.266410 0.423358
O O7 0.516175 0.366604 0.361174
O O8 0.618695 0.326402 0.249665
O O9 0.823402 0.293013 0.544530
O O10 0.820512 0.385525 0.401084
O O11 0.062866 0.062866 0.250000
O O12 0.069430 0.068360 0.467051
O O13 0.977099 0.999181 0.368515
O O14 0.338070 0.750000 0.250000
#
# Coordination Sequence:
#
# PCOD8313697 Si02
#       6
#    16  16  16  16  16  16
#     4  10  20  38  63  93 117 151 207 260 316 376
#     4  12  23  37  55  84 118 160 214 258 290 357
#     4  11  22  33  48  70 115 171 205 244 292 338
#     4  11  22  41  61  83 120 171 210 250 314 375
#     4  11  20  34  50  76 117 158 203 246 297 345
#     4  10  20  40  64  85 121 164 204 257 322 374
#
# _framework density 18.886714000000001
#
# number of rings (size 3 to 8) (size 9 to 14) (size 15 to 20)
#    0.000    1.167    6.667    1.000    0.000    1.667 
#    9.000    0.000    0.000    4.000    0.000    0.000 
#    0.000    0.333    0.000    0.000    0.000    0.000 
#
# Total GULP energy -1189635.630246 kJ/mol
# GULP energy per Si atom -12392.037815 kJ/mol
# Density = 1.884373 g / cm^3
# Si number density = 18.886714 Si / 1000 Ang^3
#
#
#
# Elastic Constant Matrix: (Units=GPa)
#
#
# Indices 1 2 3 4 5 6 
#
# 1 72.7347 22.5136 25.6853 0.0000 0.0000 0.0000
# 2 22.5136 72.7347 25.6853 0.0000 0.0000 0.0000
# 3 25.6853 25.6853 136.1582 0.0000 0.0000 0.0000
# 4 0.0000 0.0000 0.0000 21.3235 0.0000 0.0000
# 5 0.0000 0.0000 0.0000 0.0000 21.3235 0.0000
# 6 0.0000 0.0000 0.0000 0.0000 0.0000 17.9522
#
#
#
# Elastic Compliance Matrix: (Units=1/GPa)
#
#
# Indices 1 2 3 4 5 6 
#
# 1 0.015800 -0.004112 -0.002205 0.000000 0.000000 0.000000
# 2 -0.004112 0.015800 -0.002205 0.000000 0.000000 0.000000
# 3 -0.002205 -0.002205 0.008176 0.000000 0.000000 0.000000
# 4 0.000000 0.000000 0.000000 0.046897 0.000000 0.000000
# 5 0.000000 0.000000 0.000000 0.000000 0.046897 0.000000
# 6 0.000000 0.000000 0.000000 0.000000 0.000000 0.055703
#
#
# Mechanical properties :
#
#
# Convention : Reuss Voigt Hill
#
# Bulk Modulus (GPa) = 43.98916 47.71065 45.84990
# Shear Modulus (GPa) = 23.37608 25.96940 24.67274
#
# Velocity S-wave (km/s) = 3.52191 3.71213 3.61827
# Velocity P-wave (km/s) = 6.31507 6.60981 6.46412
#
# Compressibility (1/GPa) = 0.02273288
#
# Stress axis : x y z
#
# Youngs Moduli (GPa) = 63.29117 63.29117 122.30524
#
# Poissons Ratio (x) = 0.26025 0.26967
# Poissons Ratio (y) = 0.26025 0.26967
# Poissons Ratio (z) = 0.13955 0.13955
#
# Static dielectric constant tensor:
#      x y z
#    x 3.324380 0.000000 0.000000 
#    y 0.000000 3.324380 0.000000 
#    z 0.000000 0.000000 3.302830 
# 
# 
# High freq. dielectric constant tensor:
#      x y z
#    x 1.705790 0.000000 0.000000 
#    y 0.000000 1.705790 0.000000 
#    z 0.000000 0.000000 1.753100 
# 
# From -- ./inp_files/2876.got.cif
#   From: 2010.03.12/outbox.cif.g09.slc.cpg/sg126_2_cif.got.tgz:2876.got - 2010.04.06 16:55:23.
