data_PCOD8313936
_publ_section_title
;
Structure prediction by ZEFSAII (Michael W. Deem and Ramdas Pophale) SiO2 
 PCOD8313936
Probable space group: P 4/M B M
;
_chemical_formula_sum "Si O2"
_cell_formula_units_Z 96
_cell_length_a 21.887727
_cell_length_b 21.887727
_cell_length_c 12.280908
_cell_angle_alpha 90.000000
_cell_angle_beta 90.000000
_cell_angle_gamma 90.000000
_cell_volume 5883.446443
_symmetry_space_group_name_H-M "P 4/M B M"
_symmetry_group_IT_number 127
_symmetry_cell_setting 'tetragonal'
loop_
_space_group_symop_operation_xyz
x,y,z
-y,x,z
-x,-y,z
y,-x,z
1/2+x,1/2-y,-z
1/2-x,1/2+y,-z
1/2+y,1/2+x,-z
1/2-y,1/2-x,-z
-x,-y,-z
y,-x,-z
x,y,-z
-y,x,-z
1/2-x,1/2+y,z
1/2+x,1/2-y,z
1/2-y,1/2-x,z
1/2+y,1/2+x,z
loop_
_atom_site_type_symbol
_atom_site_label
_atom_site_fract_x
_atom_site_fract_y
_atom_site_fract_z
Si Si1 0.361408 0.359379 0.304044
Si Si2 0.670744 0.001219 0.626071
Si Si3 0.430325 0.575135 0.500000
Si Si4 0.049861 0.450140 0.620482
Si Si5 0.429751 0.569663 0.127211
Si Si6 0.228335 0.371489 0.374563
Si Si7 0.123925 0.723502 0.370575
O O1 0.392349 0.401653 0.395382
O O2 0.385095 0.383910 0.188764
O O3 0.288100 0.359435 0.304054
O O4 0.377873 0.288889 0.315038
O O5 0.657854 0.987239 0.500000
O O6 0.607416 0.021396 0.684050
O O7 0.717134 0.056718 0.642141
O O8 0.693083 0.937789 0.677108
O O9 0.414355 0.503252 0.500000
O O10 0.073127 0.426874 0.500000
O O11 0.000000 0.500000 0.603198
O O12 0.415220 0.499646 0.159338
O O13 0.419351 0.580077 0.000000
O O14 0.243147 0.356532 0.500000
O O15 0.171180 0.328821 0.336327
O O16 0.122365 0.732267 0.500000
O O17 0.182579 0.682579 0.336737
#
# Coordination Sequence:
#
# PCOD8313936 Si02
#       7
#    16  16   8   8  16  16  16
#     4  12  21  31  53  72 101 132 166 203 243 300
#     4   9  17  27  42  61  89 131 172 211 238 282
#     4  11  24  34  43  72 108 132 159 200 254 303
#     4   9  14  24  40  60  82 120 173 217 247 266
#     4   9  20  39  58  75  96 125 166 212 255 302
#     4  10  19  31  45  68 103 140 172 201 241 295
#     4  10  20  32  44  67 104 142 171 199 243 300
#
# _framework density 16.316967999999999
#
# number of rings (size 3 to 8) (size 9 to 14) (size 15 to 20)
#    0.000    2.000    2.500    2.500    4.667    4.667 
#    0.000    0.000    0.000    2.000    0.000    0.000 
#    0.000    0.000    0.000    0.000    0.000    9.750 
#
# Total GULP energy -1189874.441565 kJ/mol
# GULP energy per Si atom -12394.525433 kJ/mol
# Density = 1.627983 g / cm^3
# Si number density = 16.316968 Si / 1000 Ang^3
#
#
#
# Elastic Constant Matrix: (Units=GPa)
#
#
# Indices 1 2 3 4 5 6 
#
# 1 98.0833 24.9061 24.8132 0.0000 0.0000 0.0000
# 2 24.9061 98.0834 24.8132 0.0000 0.0000 0.0000
# 3 24.8132 24.8132 38.2627 0.0000 0.0000 0.0000
# 4 0.0000 0.0000 0.0000 16.6087 0.0000 0.0000
# 5 0.0000 0.0000 0.0000 0.0000 16.6087 0.0000
# 6 0.0000 0.0000 0.0000 0.0000 0.0000 27.1459
#
#
#
# Elastic Compliance Matrix: (Units=1/GPa)
#
#
# Indices 1 2 3 4 5 6 
#
# 1 0.012339 -0.001327 -0.007141 0.000000 0.000000 0.000000
# 2 -0.001327 0.012339 -0.007141 0.000000 0.000000 0.000000
# 3 -0.007141 -0.007141 0.035398 0.000000 0.000000 0.000000
# 4 0.000000 0.000000 0.000000 0.060209 0.000000 0.000000
# 5 0.000000 0.000000 0.000000 0.000000 0.060209 0.000000
# 6 0.000000 0.000000 0.000000 0.000000 0.000000 0.036838
#
#
# Mechanical properties :
#
#
# Convention : Reuss Voigt Hill
#
# Bulk Modulus (GPa) = 34.65437 42.61049 38.63243
# Shear Modulus (GPa) = 19.36708 22.73244 21.04976
#
# Velocity S-wave (km/s) = 3.44892 3.73658 3.59563
# Velocity P-wave (km/s) = 6.09462 6.69230 6.40044
#
# Compressibility (1/GPa) = 0.02885639
#
# Stress axis : x y z
#
# Youngs Moduli (GPa) = 81.04433 81.04446 28.25055
#
# Poissons Ratio (x) = 0.10751 0.20175
# Poissons Ratio (y) = 0.10751 0.20175
# Poissons Ratio (z) = 0.57878 0.57878
#
# Static dielectric constant tensor:
#      x y z
#    x 3.306410 0.000000 0.000000 
#    y 0.000000 3.306410 0.000000 
#    z 0.000000 0.000000 2.531910 
# 
# 
# High freq. dielectric constant tensor:
#      x y z
#    x 1.645920 0.000000 0.000000 
#    y 0.000000 1.645920 0.000000 
#    z 0.000000 0.000000 1.548090 
# 
# From -- ./inp_files/3619.got.cif
#   From: 2010.03.12/outbox.cif.g09.slc.cpg/sg127_2_cif.got.tgz:3619.got - 2010.04.06 17:03:15.
