data_PCOD8313516
_publ_section_title
;
Structure prediction by ZEFSAII (Michael W. Deem and Ramdas Pophale) SiO2 
 PCOD8313516
Probable space group: P 4/N B M
;
_chemical_formula_sum "Si O2"
_cell_formula_units_Z 56
_cell_length_a 17.969046
_cell_length_b 17.969046
_cell_length_c 8.140920
_cell_angle_alpha 90.000000
_cell_angle_beta 90.000000
_cell_angle_gamma 90.000000
_cell_volume 2628.594095
_symmetry_space_group_name_H-M "P 4/N B M"
_symmetry_group_IT_number 125
_space_group.IT_coordinate_system_code '2'
_symmetry_cell_setting 'tetragonal'
loop_
_space_group_symop_operation_xyz
x,y,z
1/2-y,x,z
1/2-x,1/2-y,z
y,1/2-x,z
x,1/2-y,-z
1/2-x,y,-z
y,x,-z
1/2-y,1/2-x,-z
-x,-y,-z
1/2+y,-x,-z
1/2+x,1/2+y,-z
-y,1/2+x,-z
-x,1/2+y,z
1/2+x,-y,z
-y,-x,z
1/2+y,1/2+x,z
loop_
_atom_site_type_symbol
_atom_site_label
_atom_site_fract_x
_atom_site_fract_y
_atom_site_fract_z
Si Si1 0.961253 0.575737 0.316711
Si Si2 0.798118 0.080347 0.336910
Si Si3 0.750000 0.127852 0.000000
Si Si4 0.671846 0.836200 0.192290
O O1 0.946516 0.553485 0.500000
O O2 0.882613 0.595355 0.234442
O O3 0.005873 0.505873 0.231516
O O4 0.011679 0.647987 0.312545
O O5 0.750000 0.068136 0.500000
O O6 0.842073 0.157928 0.358468
O O7 0.748753 0.080517 0.169344
O O8 0.675692 0.175692 0.001555
O O9 0.645738 0.754972 0.261921
O O10 0.672910 0.827091 0.000000
#
# Coordination Sequence:
#
# PCOD8313516 Si02
#       4
#    16  16   8  16
#     4  10  23  40  56  84 123 160 201 249 309 380
#     4  10  21  37  59  88 123 162 204 253 306 364
#     4   9  18  34  58  88 118 153 204 254 302 365
#     4   9  20  39  64  92 118 151 202 262 316 369
#
# _framework density 21.304162999999999
#
# number of rings (size 3 to 8) (size 9 to 14) (size 15 to 20)
#    0.000    2.429    0.000    1.714    4.000    4.286 
#    0.000    1.429    0.000    0.000    0.000    0.000 
#    0.000    0.000    0.000    0.000    0.000    0.000 
#
# Total GULP energy -693859.323813 kJ/mol
# GULP energy per Si atom -12390.345068 kJ/mol
# Density = 2.125567 g / cm^3
# Si number density = 21.304163 Si / 1000 Ang^3
#
#
#
# Elastic Constant Matrix: (Units=GPa)
#
#
# Indices 1 2 3 4 5 6 
#
# 1 94.3495 42.7204 21.2101 0.0000 0.0000 0.0000
# 2 42.7204 94.3519 21.2111 0.0000 0.0000 0.0000
# 3 21.2101 21.2111 100.8305 0.0000 0.0000 0.0000
# 4 0.0000 0.0000 0.0000 23.6847 0.0000 0.0000
# 5 0.0000 0.0000 0.0000 0.0000 23.6837 0.0000
# 6 0.0000 0.0000 0.0000 0.0000 0.0000 12.4876
#
#
#
# Elastic Compliance Matrix: (Units=1/GPa)
#
#
# Indices 1 2 3 4 5 6 
#
# 1 0.013586 -0.005782 -0.001641 0.000000 0.000000 0.000000
# 2 -0.005782 0.013586 -0.001642 0.000000 0.000000 0.000000
# 3 -0.001641 -0.001642 0.010608 0.000000 0.000000 0.000000
# 4 0.000000 0.000000 0.000000 0.042221 0.000000 0.000000
# 5 0.000000 0.000000 0.000000 0.000000 0.042223 0.000000
# 6 0.000000 0.000000 0.000000 0.000000 0.000000 0.080079
#
#
# Mechanical properties :
#
#
# Convention : Reuss Voigt Hill
#
# Bulk Modulus (GPa) = 50.89286 51.09058 50.99172
# Shear Modulus (GPa) = 22.02789 25.59721 23.81255
#
# Velocity S-wave (km/s) = 3.21903 3.47004 3.34689
# Velocity P-wave (km/s) = 6.14465 6.33155 6.23880
#
# Compressibility (1/GPa) = 0.01964912
#
# Stress axis : x y z
#
# Youngs Moduli (GPa) = 73.60435 73.60601 94.26619
#
# Poissons Ratio (x) = 0.42563 0.15474
# Poissons Ratio (y) = 0.42562 0.15475
# Poissons Ratio (z) = 0.12082 0.12083
#
# Static dielectric constant tensor:
#      x y z
#    x 4.493260 0.000000 0.000000 
#    y 0.000000 4.493240 0.000000 
#    z 0.000000 0.000000 3.757020 
# 
# 
# High freq. dielectric constant tensor:
#      x y z
#    x 1.835760 0.000000 0.000000 
#    y 0.000000 1.835760 0.000000 
#    z 0.000000 0.000000 1.825370 
# 
# From -- ./inp_files/2056.got.cif
#   From: 2010.03.12/outbox.cif.g09.slc.cpg/sg125_2_cif.got.tgz:2056.got - 2010.04.06 16:47:52.
