data_PCOD8313342
_publ_section_title
;
Structure prediction by ZEFSAII (Michael W. Deem and Ramdas Pophale) SiO2 
 PCOD8313342
Probable space group: P 4/M C C
;
_chemical_formula_sum "Si O2"
_cell_formula_units_Z 40
_cell_length_a 13.413178
_cell_length_b 13.413178
_cell_length_c 9.960538
_cell_angle_alpha 90.000000
_cell_angle_beta 90.000000
_cell_angle_gamma 90.000000
_cell_volume 1792.033700
_symmetry_space_group_name_H-M "P 4/M C C"
_symmetry_group_IT_number 124
_symmetry_cell_setting 'tetragonal'
loop_
_space_group_symop_operation_xyz
x,y,z
-y,x,z
-x,-y,z
y,-x,z
x,-y,1/2-z
-x,y,1/2-z
y,x,1/2-z
-y,-x,1/2-z
-x,-y,-z
y,-x,-z
x,y,-z
-y,x,-z
-x,y,1/2+z
x,-y,1/2+z
-y,-x,1/2+z
y,x,1/2+z
loop_
_atom_site_type_symbol
_atom_site_label
_atom_site_fract_x
_atom_site_fract_y
_atom_site_fract_z
Si Si1 0.341077 0.455599 0.500000
Si Si2 0.204668 0.331913 0.350253
Si Si3 0.161671 0.970973 0.000000
Si Si4 0.705167 0.000000 0.250000
O O1 0.432305 0.377091 0.500000
O O2 0.274009 0.431497 0.367136
O O3 0.253298 0.253298 0.250000
O O4 0.196473 0.282358 0.500000
O O5 0.093547 0.361976 0.300218
O O6 0.114314 0.079858 0.000000
O O7 0.226893 0.957087 0.132147
#
# Coordination Sequence:
#
# PCOD8313342 Si02
#       4
#     8  16   8   8
#     4   9  21  46  78 112 139 170 230 307 368 410
#     4  10  23  40  65 104 140 188 230 286 349 425
#     4  11  21  32  52  86 127 180 242 303 348 391
#     4  12  22  37  58  89 146 186 232 277 344 421
#
# _framework density 22.321007999999999
#
# number of rings (size 3 to 8) (size 9 to 14) (size 15 to 20)
#    1.200    0.400    2.000    3.600    2.800    3.200 
#    0.000    2.000    0.000    7.200    0.000    0.000 
#    0.000    0.000    0.000    0.000    0.000    0.000 
#
# Total GULP energy -495561.439002 kJ/mol
# GULP energy per Si atom -12389.035975 kJ/mol
# Density = 2.227020 g / cm^3
# Si number density = 22.321008 Si / 1000 Ang^3
#
#
#
# Elastic Constant Matrix: (Units=GPa)
#
#
# Indices 1 2 3 4 5 6 
#
# 1 104.6632 55.1671 29.7977 0.0000 0.0000 0.0000
# 2 55.1671 104.6632 29.7977 0.0000 0.0000 0.0000
# 3 29.7977 29.7977 134.2481 0.0000 0.0000 0.0000
# 4 0.0000 0.0000 0.0000 22.7359 0.0000 0.0000
# 5 0.0000 0.0000 0.0000 0.0000 22.7359 0.0000
# 6 0.0000 0.0000 0.0000 0.0000 0.0000 33.4866
#
#
#
# Elastic Compliance Matrix: (Units=1/GPa)
#
#
# Indices 1 2 3 4 5 6 
#
# 1 0.013512 -0.006691 -0.001514 0.000000 0.000000 0.000000
# 2 -0.006691 0.013512 -0.001514 0.000000 0.000000 0.000000
# 3 -0.001514 -0.001514 0.008121 0.000000 0.000000 0.000000
# 4 0.000000 0.000000 0.000000 0.043983 0.000000 0.000000
# 5 0.000000 0.000000 0.000000 0.000000 0.043983 0.000000
# 6 0.000000 0.000000 0.000000 0.000000 0.000000 0.029863
#
#
# Mechanical properties :
#
#
# Convention : Reuss Voigt Hill
#
# Bulk Modulus (GPa) = 63.66494 63.67771 63.67133
# Shear Modulus (GPa) = 28.14532 31.04582 29.59557
#
# Velocity S-wave (km/s) = 3.55482 3.73349 3.64525
# Velocity P-wave (km/s) = 6.74042 6.86843 6.80473
#
# Compressibility (1/GPa) = 0.01570723
#
# Stress axis : x y z
#
# Youngs Moduli (GPa) = 74.00611 74.00611 123.13760
#
# Poissons Ratio (x) = 0.49519 0.18643
# Poissons Ratio (y) = 0.49519 0.18643
# Poissons Ratio (z) = 0.11205 0.11205
#
# Static dielectric constant tensor:
#      x y z
#    x 3.840020 0.000000 0.000000 
#    y 0.000000 3.840020 0.000000 
#    z 0.000000 0.000000 4.080000 
# 
# 
# High freq. dielectric constant tensor:
#      x y z
#    x 1.865020 0.000000 0.000000 
#    y 0.000000 1.865020 0.000000 
#    z 0.000000 0.000000 1.889650 
# 
# From -- ./inp_files/364.got.cif
#   From: 2010.03.12/outbox.cif.g09.slc.cpg/sg124_1_cif.got.tgz:364.got - 2010.04.06 16:38:57.
