data_PCOD8313097
_publ_section_title
;
Structure prediction by ZEFSAII (Michael W. Deem and Ramdas Pophale) SiO2 
 PCOD8313097
Probable space group: P 4/M C C
;
_chemical_formula_sum "Si O2"
_cell_formula_units_Z 96
_cell_length_a 17.144073
_cell_length_b 17.144073
_cell_length_c 19.349906
_cell_angle_alpha 90.000000
_cell_angle_beta 90.000000
_cell_angle_gamma 90.000000
_cell_volume 5687.309647
_symmetry_space_group_name_H-M "P 4/M C C"
_symmetry_group_IT_number 124
_symmetry_cell_setting 'tetragonal'
loop_
_space_group_symop_operation_xyz
x,y,z
-y,x,z
-x,-y,z
y,-x,z
x,-y,1/2-z
-x,y,1/2-z
y,x,1/2-z
-y,-x,1/2-z
-x,-y,-z
y,-x,-z
x,y,-z
-y,x,-z
-x,y,1/2+z
x,-y,1/2+z
-y,-x,1/2+z
y,x,1/2+z
loop_
_atom_site_type_symbol
_atom_site_label
_atom_site_fract_x
_atom_site_fract_y
_atom_site_fract_z
Si Si1 0.736002 0.767943 0.680026
Si Si2 0.970359 0.763243 0.075711
Si Si3 0.157002 0.366520 0.077592
Si Si4 0.473481 0.918311 0.419954
Si Si5 0.307729 0.137122 0.920241
Si Si6 0.818386 0.076199 0.788185
O O1 0.717594 0.717594 0.750000
O O2 0.659578 0.777639 0.632776
O O3 0.801160 0.732095 0.630173
O O4 0.758569 0.851855 0.713724
O O5 0.922575 0.682848 0.087408
O O6 0.945396 0.829470 0.130801
O O7 0.060878 0.745249 0.083798
O O8 0.951722 0.797648 0.000000
O O9 0.143122 0.457483 0.091078
O O10 0.189208 0.353893 0.000000
O O11 0.455824 0.936002 0.500000
O O12 0.393861 0.881955 0.389682
O O13 0.500000 0.000000 0.384488
O O14 0.310976 0.167755 0.000000
O O15 0.899216 0.100785 0.750000
O O16 0.782872 0.000000 0.750000
#
# Coordination Sequence:
#
# PCOD8313097 Si02
#       6
#    16  16  16  16  16  16
#     4  10  20  32  46  65  94 131 165 206 242 295
#     4   9  16  27  47  70  91 116 153 203 247 292
#     4   9  16  28  46  69  96 125 158 198 246 292
#     4   9  15  27  49  77 102 125 156 201 254 308
#     4  10  18  30  51  75  98 125 162 202 251 309
#     4  10  20  34  47  61  83 120 164 208 253 298
#
# _framework density 16.879686
#
# number of rings (size 3 to 8) (size 9 to 14) (size 15 to 20)
#    0.000    2.500    1.667    2.500    0.000    0.833 
#    0.000    1.667    0.000    1.000    0.000    3.500 
#    0.000    0.667    0.000    7.667    0.000    3.000 
#
# Total GULP energy -1189337.723879 kJ/mol
# GULP energy per Si atom -12388.934624 kJ/mol
# Density = 1.684127 g / cm^3
# Si number density = 16.879686 Si / 1000 Ang^3
#
#
#
# Elastic Constant Matrix: (Units=GPa)
#
#
# Indices 1 2 3 4 5 6 
#
# 1 51.5243 23.9173 32.7607 0.0000 0.0000 0.0000
# 2 23.9173 51.5247 32.7611 0.0000 0.0000 0.0000
# 3 32.7607 32.7611 112.7229 0.0000 0.0000 0.0000
# 4 0.0000 0.0000 0.0000 16.3511 0.0000 0.0000
# 5 0.0000 0.0000 0.0000 0.0000 16.3509 0.0000
# 6 0.0000 0.0000 0.0000 0.0000 0.0000 12.6114
#
#
#
# Elastic Compliance Matrix: (Units=1/GPa)
#
#
# Indices 1 2 3 4 5 6 
#
# 1 0.026977 -0.009246 -0.005153 0.000000 0.000000 0.000000
# 2 -0.009246 0.026977 -0.005153 0.000000 0.000000 0.000000
# 3 -0.005153 -0.005153 0.011867 0.000000 0.000000 0.000000
# 4 0.000000 0.000000 0.000000 0.061158 0.000000 0.000000
# 5 0.000000 0.000000 0.000000 0.000000 0.061159 0.000000
# 6 0.000000 0.000000 0.000000 0.000000 0.000000 0.079294
#
#
# Mechanical properties :
#
#
# Convention : Reuss Voigt Hill
#
# Bulk Modulus (GPa) = 37.43123 43.85003 40.64063
# Shear Modulus (GPa) = 15.85089 17.48485 16.66787
#
# Velocity S-wave (km/s) = 3.06772 3.22196 3.14578
# Velocity P-wave (km/s) = 5.89672 6.31472 6.10930
#
# Compressibility (1/GPa) = 0.02671566
#
# Stress axis : x y z
#
# Youngs Moduli (GPa) = 37.06903 37.06919 84.26979
#
# Poissons Ratio (x) = 0.34274 0.43425
# Poissons Ratio (y) = 0.34273 0.43426
# Poissons Ratio (z) = 0.19102 0.19102
#
# Static dielectric constant tensor:
#      x y z
#    x 2.966550 0.000000 0.000000 
#    y 0.000000 2.966550 0.000000 
#    z 0.000000 0.000000 3.549990 
# 
# 
# High freq. dielectric constant tensor:
#      x y z
#    x 1.615540 0.000000 0.000000 
#    y 0.000000 1.615540 0.000000 
#    z 0.000000 0.000000 1.657230 
# 
# From -- ./inp_files/5453.got.cif
#   From: 2010.03.12/outbox.cif.g09.slc.cpg/sg124_3_cif.got.tgz:5453.got - 2010.04.06 16:38:57.
