data_PCOD8313392
_publ_section_title
;
Structure prediction by ZEFSAII (Michael W. Deem and Ramdas Pophale) SiO2 
 PCOD8313392
Probable space group: P 4/M C C
;
_chemical_formula_sum "Si O2"
_cell_formula_units_Z 56
_cell_length_a 10.582474
_cell_length_b 10.582474
_cell_length_c 22.928210
_cell_angle_alpha 90.000000
_cell_angle_beta 90.000000
_cell_angle_gamma 90.000000
_cell_volume 2567.701714
_symmetry_space_group_name_H-M "P 4/M C C"
_symmetry_group_IT_number 124
_symmetry_cell_setting 'tetragonal'
loop_
_space_group_symop_operation_xyz
x,y,z
-y,x,z
-x,-y,z
y,-x,z
x,-y,1/2-z
-x,y,1/2-z
y,x,1/2-z
-y,-x,1/2-z
-x,-y,-z
y,-x,-z
x,y,-z
-y,x,-z
-x,y,1/2+z
x,-y,1/2+z
-y,-x,1/2+z
y,x,1/2+z
loop_
_atom_site_type_symbol
_atom_site_label
_atom_site_fract_x
_atom_site_fract_y
_atom_site_fract_z
Si Si1 0.107038 0.416222 0.099052
Si Si2 0.415528 0.695800 0.000000
Si Si3 0.207730 0.013647 0.315045
Si Si4 0.702805 0.505554 0.682627
O O1 0.035361 0.303598 0.131983
O O2 0.167413 0.508150 0.147880
O O3 0.000000 0.500000 0.066365
O O4 0.218671 0.375451 0.055226
O O5 0.335436 0.565850 0.000000
O O6 0.115858 0.132639 0.321876
O O7 0.270242 0.000000 0.250000
O O8 0.621139 0.626830 0.665333
O O9 0.735026 0.500000 0.750000
#
# Coordination Sequence:
#
# PCOD8313392 Si02
#       4
#    16   8  16  16
#     4  12  26  38  68 100 131 169 230 280 330 399
#     4  11  27  52  74  93 132 182 226 289 355 400
#     4   9  22  43  65  95 139 185 219 261 330 404
#     4   9  20  37  59  92 133 173 216 276 346 410
#
# _framework density 21.809387000000001
#
# number of rings (size 3 to 8) (size 9 to 14) (size 15 to 20)
#    0.000    1.857    0.000    3.857   12.000    4.571 
#    0.000    0.000    0.000    1.714    0.000    0.000 
#    0.000    0.000    0.000    0.000    0.000    0.000 
#
# Total GULP energy -693864.673956 kJ/mol
# GULP energy per Si atom -12390.440606 kJ/mol
# Density = 2.175975 g / cm^3
# Si number density = 21.809387 Si / 1000 Ang^3
#
#
#
# Elastic Constant Matrix: (Units=GPa)
#
#
# Indices 1 2 3 4 5 6 
#
# 1 114.4771 -6.1649 43.8804 0.0000 0.0000 0.0000
# 2 -6.1649 114.4771 43.8804 0.0000 0.0000 0.0000
# 3 43.8804 43.8804 93.6180 0.0000 0.0000 0.0000
# 4 0.0000 0.0000 0.0000 35.3234 0.0000 0.0000
# 5 0.0000 0.0000 0.0000 0.0000 35.3234 0.0000
# 6 0.0000 0.0000 0.0000 0.0000 0.0000 65.3547
#
#
#
# Elastic Compliance Matrix: (Units=1/GPa)
#
#
# Indices 1 2 3 4 5 6 
#
# 1 0.011587 0.003299 -0.006977 0.000000 0.000000 0.000000
# 2 0.003299 0.011587 -0.006977 0.000000 0.000000 0.000000
# 3 -0.006977 -0.006977 0.017223 0.000000 0.000000 0.000000
# 4 0.000000 0.000000 0.000000 0.028310 0.000000 0.000000
# 5 0.000000 0.000000 0.000000 0.000000 0.028310 0.000000
# 6 0.000000 0.000000 0.000000 0.000000 0.000000 0.015301
#
#
# Mechanical properties :
#
#
# Convention : Reuss Voigt Hill
#
# Bulk Modulus (GPa) = 52.39668 53.97379 53.18523
# Shear Modulus (GPa) = 35.71623 43.26538 39.49081
#
# Velocity S-wave (km/s) = 4.05118 4.45881 4.25988
# Velocity P-wave (km/s) = 6.77936 7.16308 6.97386
#
# Compressibility (1/GPa) = 0.01908518
#
# Stress axis : x y z
#
# Youngs Moduli (GPa) = 86.29994 86.29994 58.06358
#
# Poissons Ratio (x) = -0.28466 0.40513
# Poissons Ratio (y) = -0.28466 0.40513
# Poissons Ratio (z) = 0.60214 0.60214
#
# Static dielectric constant tensor:
#      x y z
#    x 3.965110 0.000000 0.000000 
#    y 0.000000 3.965110 0.000000 
#    z 0.000000 0.000000 3.895610 
# 
# 
# High freq. dielectric constant tensor:
#      x y z
#    x 1.857540 0.000000 0.000000 
#    y 0.000000 1.857540 0.000000 
#    z 0.000000 0.000000 1.849540 
# 
# From -- ./inp_files/5796.got.cif
#   From: 2010.03.12/outbox.cif.g09.slc.cpg/sg124_3_cif.got.tgz:5796.got - 2010.04.06 16:38:57.
