data_PCOD8313913
_publ_section_title
;
Structure prediction by ZEFSAII (Michael W. Deem and Ramdas Pophale) SiO2 
 PCOD8313913
Probable space group: P 4/M B M
;
_chemical_formula_sum "Si O2"
_cell_formula_units_Z 128
_cell_length_a 21.580139
_cell_length_b 21.580139
_cell_length_c 16.847913
_cell_angle_alpha 90.000000
_cell_angle_beta 90.000000
_cell_angle_gamma 90.000000
_cell_volume 7846.113507
_symmetry_space_group_name_H-M "P 4/M B M"
_symmetry_group_IT_number 127
_symmetry_cell_setting 'tetragonal'
loop_
_space_group_symop_operation_xyz
x,y,z
-y,x,z
-x,-y,z
y,-x,z
1/2+x,1/2-y,-z
1/2-x,1/2+y,-z
1/2+y,1/2+x,-z
1/2-y,1/2-x,-z
-x,-y,-z
y,-x,-z
x,y,-z
-y,x,-z
1/2-x,1/2+y,z
1/2+x,1/2-y,z
1/2-y,1/2-x,z
1/2+y,1/2+x,z
loop_
_atom_site_type_symbol
_atom_site_label
_atom_site_fract_x
_atom_site_fract_y
_atom_site_fract_z
Si Si1 0.738632 0.863749 0.591565
Si Si2 0.212420 0.514464 0.313286
Si Si3 0.499492 0.900391 0.800205
Si Si4 0.902510 0.029749 0.090360
Si Si5 0.922700 0.677826 0.088505
Si Si6 0.680047 0.277360 0.691299
Si Si7 0.808275 0.596453 0.413100
Si Si8 0.070217 0.208261 0.798227
O O1 0.752273 0.883106 0.500000
O O2 0.675688 0.824313 0.595142
O O3 0.734099 0.920531 0.652124
O O4 0.796740 0.825243 0.624957
O O5 0.150235 0.521907 0.262537
O O6 0.193146 0.474885 0.389773
O O7 0.268205 0.482350 0.263638
O O8 0.557565 0.942436 0.823936
O O9 0.477562 0.865887 0.879621
O O10 0.442790 0.942790 0.766223
O O11 0.850430 0.044553 0.154784
O O12 0.959451 0.076144 0.104244
O O13 0.877565 0.037438 0.000000
O O14 0.857595 0.642405 0.090299
O O15 0.913678 0.737901 0.140979
O O16 0.941200 0.697784 0.000000
O O17 0.739163 0.239163 0.727706
O O18 0.635601 0.228928 0.649862
O O19 0.636248 0.309961 0.757228
O O20 0.778327 0.604310 0.500000
O O21 0.879137 0.620864 0.413003
#
# Coordination Sequence:
#
# PCOD8313913 Si02
#       8
#    16  16  16  16  16  16  16  16
#     4  10  20  33  48  66  94 128 159 192 230 278
#     4  10  19  29  44  69  94 121 156 198 236 277
#     4   9  17  29  44  63  92 129 164 198 234 271
#     4   9  19  35  53  73  96 121 151 191 233 281
#     4   9  17  29  46  71 100 126 157 195 231 272
#     4   9  18  31  47  69  94 121 155 191 233 278
#     4   9  16  28  46  65  87 116 153 197 240 278
#     4  10  19  30  51  73  97 122 153 191 239 280
#
# _framework density 16.31381
#
# number of rings (size 3 to 8) (size 9 to 14) (size 15 to 20)
#    0.000    2.625    0.000    2.625    1.750    4.750 
#    0.000    1.250    0.000    0.000    0.000    5.250 
#    0.000    1.000    0.000    0.000    0.000    0.000 
#
# Total GULP energy -1586392.310070 kJ/mol
# GULP energy per Si atom -12393.689922 kJ/mol
# Density = 1.627668 g / cm^3
# Si number density = 16.313810 Si / 1000 Ang^3
#
#
#
# Elastic Constant Matrix: (Units=GPa)
#
#
# Indices 1 2 3 4 5 6 
#
# 1 67.3175 29.4286 41.5746 0.0000 0.0000 0.0000
# 2 29.4286 67.3175 41.5746 0.0000 0.0000 0.0000
# 3 41.5746 41.5746 100.3321 0.0000 0.0000 0.0000
# 4 0.0000 0.0000 0.0000 21.0024 0.0000 0.0000
# 5 0.0000 0.0000 0.0000 0.0000 21.0024 0.0000
# 6 0.0000 0.0000 0.0000 0.0000 0.0000 16.7414
#
#
#
# Elastic Compliance Matrix: (Units=1/GPa)
#
#
# Indices 1 2 3 4 5 6 
#
# 1 0.021223 -0.005170 -0.006652 0.000000 0.000000 0.000000
# 2 -0.005170 0.021223 -0.006652 0.000000 0.000000 0.000000
# 3 -0.006652 -0.006652 0.015480 0.000000 0.000000 0.000000
# 4 0.000000 0.000000 0.000000 0.047614 0.000000 0.000000
# 5 0.000000 0.000000 0.000000 0.000000 0.047614 0.000000
# 6 0.000000 0.000000 0.000000 0.000000 0.000000 0.059732
#
#
# Mechanical properties :
#
#
# Convention : Reuss Voigt Hill
#
# Bulk Modulus (GPa) = 47.66799 51.12472 49.39636
# Shear Modulus (GPa) = 19.46841 19.90852 19.68846
#
# Velocity S-wave (km/s) = 3.45827 3.49714 3.47776
# Velocity P-wave (km/s) = 6.72525 6.90746 6.81696
#
# Compressibility (1/GPa) = 0.02097844
#
# Stress axis : x y z
#
# Youngs Moduli (GPa) = 47.11815 47.11815 64.60052
#
# Poissons Ratio (x) = 0.24359 0.42973
# Poissons Ratio (y) = 0.24359 0.42973
# Poissons Ratio (z) = 0.31343 0.31343
#
# Static dielectric constant tensor:
#      x y z
#    x 3.077440 0.000000 0.000000 
#    y 0.000000 3.077440 0.000000 
#    z 0.000000 0.000000 3.178180 
# 
# 
# High freq. dielectric constant tensor:
#      x y z
#    x 1.619290 0.000000 0.000000 
#    y 0.000000 1.619290 0.000000 
#    z 0.000000 0.000000 1.631160 
# 
# From -- ./inp_files/5392.got.cif
#   From: 2010.03.12/outbox.cif.g09.slc.cpg/sg127_3_cif.got.tgz:5392.got - 2010.04.06 17:03:15.
