data_PCOD8313116
_publ_section_title
;
Structure prediction by ZEFSAII (Michael W. Deem and Ramdas Pophale) SiO2 
 PCOD8313116
Probable space group: P 4/M C C
;
_chemical_formula_sum "Si O2"
_cell_formula_units_Z 64
_cell_length_a 22.856202
_cell_length_b 22.856202
_cell_length_c 9.051298
_cell_angle_alpha 90.000000
_cell_angle_beta 90.000000
_cell_angle_gamma 90.000000
_cell_volume 4728.452110
_symmetry_space_group_name_H-M "P 4/M C C"
_symmetry_group_IT_number 124
_symmetry_cell_setting 'tetragonal'
loop_
_space_group_symop_operation_xyz
x,y,z
-y,x,z
-x,-y,z
y,-x,z
x,-y,1/2-z
-x,y,1/2-z
y,x,1/2-z
-y,-x,1/2-z
-x,-y,-z
y,-x,-z
x,y,-z
-y,x,-z
-x,y,1/2+z
x,-y,1/2+z
-y,-x,1/2+z
y,x,1/2+z
loop_
_atom_site_type_symbol
_atom_site_label
_atom_site_fract_x
_atom_site_fract_y
_atom_site_fract_z
Si Si1 0.561819 0.946614 0.170353
Si Si2 0.648286 0.728454 0.334537
Si Si3 0.446914 0.369944 0.662047
Si Si4 0.815894 0.436885 0.827700
O O1 0.500000 0.944105 0.250000
O O2 0.588555 0.881913 0.189768
O O3 0.598162 0.000000 0.250000
O O4 0.554538 0.962872 0.000000
O O5 0.707571 0.707571 0.250000
O O6 0.664337 0.751123 0.500000
O O7 0.606774 0.673262 0.350080
O O8 0.614358 0.777728 0.243247
O O9 0.500000 0.339056 0.750000
O O10 0.428182 0.428182 0.750000
O O11 0.469018 0.387785 0.500000
O O12 0.806739 0.500000 0.750000
O O13 0.799492 0.445261 0.000000
#
# Coordination Sequence:
#
# PCOD8313116 Si02
#       4
#    16  16  16  16
#     4   9  16  25  38  56  78 101 122 146 175 211
#     4  10  20  32  45  58  73  93 116 146 181 216
#     4  10  20  32  44  56  68  82 102 130 166 208
#     4  10  19  29  42  60  79  99 124 151 182 222
#
# _framework density 13.535083999999999
#
# number of rings (size 3 to 8) (size 9 to 14) (size 15 to 20)
#    0.000    2.250    0.000    4.500    0.000    8.250 
#    0.000    1.250    0.000    0.000    0.000    0.000 
#    0.000    0.000    0.000    0.000    0.000    0.000 
#
# Total GULP energy -792901.733354 kJ/mol
# GULP energy per Si atom -12389.089584 kJ/mol
# Density = 1.350428 g / cm^3
# Si number density = 13.535084 Si / 1000 Ang^3
#
#
#
# Elastic Constant Matrix: (Units=GPa)
#
#
# Indices 1 2 3 4 5 6 
#
# 1 58.9716 21.1074 41.5875 0.0000 0.0000 0.0000
# 2 21.1074 58.9716 41.5875 0.0000 0.0000 0.0000
# 3 41.5875 41.5875 138.8140 0.0000 0.0000 0.0000
# 4 0.0000 0.0000 0.0000 15.9286 0.0000 0.0000
# 5 0.0000 0.0000 0.0000 0.0000 15.9286 0.0000
# 6 0.0000 0.0000 0.0000 0.0000 0.0000 2.9689
#
#
#
# Elastic Compliance Matrix: (Units=1/GPa)
#
#
# Indices 1 2 3 4 5 6 
#
# 1 0.022270 -0.004141 -0.005431 0.000000 0.000000 0.000000
# 2 -0.004141 0.022270 -0.005431 0.000000 0.000000 0.000000
# 3 -0.005431 -0.005431 0.010458 0.000000 0.000000 0.000000
# 4 0.000000 0.000000 0.000000 0.062780 0.000000 0.000000
# 5 0.000000 0.000000 0.000000 0.000000 0.062780 0.000000
# 6 0.000000 0.000000 0.000000 0.000000 0.000000 0.336822
#
#
# Mechanical properties :
#
#
# Convention : Reuss Voigt Hill
#
# Bulk Modulus (GPa) = 40.01444 51.70245 45.85844
# Shear Modulus (GPa) = 8.99740 17.13021 13.06380
#
# Velocity S-wave (km/s) = 2.58106 3.56141 3.11011
# Velocity P-wave (km/s) = 6.20566 7.42922 6.84483
#
# Compressibility (1/GPa) = 0.02499098
#
# Stress axis : x y z
#
# Youngs Moduli (GPa) = 44.90439 44.90439 95.61855
#
# Poissons Ratio (x) = 0.18593 0.51933
# Poissons Ratio (y) = 0.18593 0.51933
# Poissons Ratio (z) = 0.24389 0.24389
#
# Static dielectric constant tensor:
#      x y z
#    x 2.880660 0.000000 0.000000 
#    y 0.000000 2.880660 0.000000 
#    z 0.000000 0.000000 3.114810 
# 
# 
# High freq. dielectric constant tensor:
#      x y z
#    x 1.477750 0.000000 0.000000 
#    y 0.000000 1.477750 0.000000 
#    z 0.000000 0.000000 1.546410 
# 
# From -- ./inp_files/862.got.cif
#   From: 2010.03.12/outbox.cif.g09.slc.cpg/sg124_1_cif.got.tgz:862.got - 2010.04.06 16:38:57.
