data_PCOD8313847
_publ_section_title
;
Structure prediction by ZEFSAII (Michael W. Deem and Ramdas Pophale) SiO2 
 PCOD8313847
Probable space group: P 4/M B M
;
_chemical_formula_sum "Si O2"
_cell_formula_units_Z 72
_cell_length_a 22.607580
_cell_length_b 22.607580
_cell_length_c 9.754088
_cell_angle_alpha 90.000000
_cell_angle_beta 90.000000
_cell_angle_gamma 90.000000
_cell_volume 4985.340454
_symmetry_space_group_name_H-M "P 4/M B M"
_symmetry_group_IT_number 127
_symmetry_cell_setting 'tetragonal'
loop_
_space_group_symop_operation_xyz
x,y,z
-y,x,z
-x,-y,z
y,-x,z
1/2+x,1/2-y,-z
1/2-x,1/2+y,-z
1/2+y,1/2+x,-z
1/2-y,1/2-x,-z
-x,-y,-z
y,-x,-z
x,y,-z
-y,x,-z
1/2-x,1/2+y,z
1/2+x,1/2-y,z
1/2-y,1/2-x,z
1/2+y,1/2+x,z
loop_
_atom_site_type_symbol
_atom_site_label
_atom_site_fract_x
_atom_site_fract_y
_atom_site_fract_z
Si Si1 0.698234 0.101347 0.839534
Si Si2 0.175796 0.511233 0.339590
Si Si3 0.953052 0.453052 0.337151
Si Si4 0.365029 0.231378 0.343047
Si Si5 0.805776 0.793443 0.151124
O O1 0.642221 0.142221 0.800174
O O2 0.759670 0.134580 0.804218
O O3 0.699287 0.043292 0.747503
O O4 0.695644 0.084936 0.000000
O O5 0.173690 0.494040 0.500000
O O6 0.111212 0.528646 0.282978
O O7 0.218984 0.566408 0.313643
O O8 0.951724 0.451724 0.500000
O O9 0.000000 0.500000 0.279398
O O10 0.354473 0.248439 0.500000
O O11 0.327081 0.172920 0.305269
O O12 0.345600 0.288562 0.255434
O O13 0.754219 0.745782 0.147639
O O14 0.813694 0.821428 0.000000
#
# Coordination Sequence:
#
# PCOD8313847 Si02
#       5
#    16  16   8  16  16
#     4   9  18  31  43  58  83 112 142 179 215 246
#     4  10  18  28  42  61  84 111 145 178 209 247
#     4   9  16  26  39  55  79 115 151 177 201 234
#     4   9  16  27  42  61  84 106 134 176 216 248
#     4   8  15  28  44  59  77 104 137 172 214 258
#
# _framework density 14.442344
#
# number of rings (size 3 to 8) (size 9 to 14) (size 15 to 20)
#    0.000    3.000    1.111    2.000    0.000    3.111 
#    0.000    2.778    0.000    2.000    0.000    0.000 
#    0.000    0.889    0.000    9.778    0.000    7.111 
#
# Total GULP energy -892540.909282 kJ/mol
# GULP energy per Si atom -12396.401518 kJ/mol
# Density = 1.440947 g / cm^3
# Si number density = 14.442344 Si / 1000 Ang^3
#
#
#
# Elastic Constant Matrix: (Units=GPa)
#
#
# Indices 1 2 3 4 5 6 
#
# 1 75.1326 59.7061 54.5641 0.0000 0.0000 0.0000
# 2 59.7061 75.1326 54.5641 0.0000 0.0000 0.0000
# 3 54.5641 54.5641 71.1945 0.0000 0.0000 0.0000
# 4 0.0000 0.0000 0.0000 24.3934 0.0000 0.0000
# 5 0.0000 0.0000 0.0000 0.0000 24.3934 0.0000
# 6 0.0000 0.0000 0.0000 0.0000 0.0000 23.4008
#
#
#
# Elastic Compliance Matrix: (Units=1/GPa)
#
#
# Indices 1 2 3 4 5 6 
#
# 1 0.042177 -0.022647 -0.014968 0.000000 0.000000 0.000000
# 2 -0.022647 0.042177 -0.014968 0.000000 0.000000 0.000000
# 3 -0.014968 -0.014968 0.036990 0.000000 0.000000 0.000000
# 4 0.000000 0.000000 0.000000 0.040995 0.000000 0.000000
# 5 0.000000 0.000000 0.000000 0.000000 0.040995 0.000000
# 6 0.000000 0.000000 0.000000 0.000000 0.000000 0.042734
#
#
# Mechanical properties :
#
#
# Convention : Reuss Voigt Hill
#
# Bulk Modulus (GPa) = 61.81467 62.12536 61.97001
# Shear Modulus (GPa) = 14.02029 17.94587 15.98308
#
# Velocity S-wave (km/s) = 3.11911 3.52886 3.33029
# Velocity P-wave (km/s) = 7.47434 7.72744 7.60194
#
# Compressibility (1/GPa) = 0.01617739
#
# Stress axis : x y z
#
# Youngs Moduli (GPa) = 23.70957 23.70957 27.03449
#
# Poissons Ratio (x) = 0.53694 0.40466
# Poissons Ratio (y) = 0.53694 0.40466
# Poissons Ratio (z) = 0.35489 0.35489
#
# Static dielectric constant tensor:
#      x y z
#    x 2.727510 0.000000 0.000000 
#    y 0.000000 2.727510 0.000000 
#    z 0.000000 0.000000 2.837910 
# 
# 
# High freq. dielectric constant tensor:
#      x y z
#    x 1.531730 0.000000 0.000000 
#    y 0.000000 1.531730 0.000000 
#    z 0.000000 0.000000 1.546690 
# 
# From -- ./inp_files/1723.got.cif
#   From: 2010.03.12/outbox.cif.g09.slc.cpg/sg127_1_cif.got.tgz:1723.got - 2010.04.06 17:03:15.
