data_PCOD8313964
_publ_section_title
;
Structure prediction by ZEFSAII (Michael W. Deem and Ramdas Pophale) SiO2 
 PCOD8313964
Probable space group: P 4/M B M
;
_chemical_formula_sum "Si O2"
_cell_formula_units_Z 96
_cell_length_a 16.769723
_cell_length_b 16.769723
_cell_length_c 18.311408
_cell_angle_alpha 90.000000
_cell_angle_beta 90.000000
_cell_angle_gamma 90.000000
_cell_volume 5149.600253
_symmetry_space_group_name_H-M "P 4/M B M"
_symmetry_group_IT_number 127
_symmetry_cell_setting 'tetragonal'
loop_
_space_group_symop_operation_xyz
x,y,z
-y,x,z
-x,-y,z
y,-x,z
1/2+x,1/2-y,-z
1/2-x,1/2+y,-z
1/2+y,1/2+x,-z
1/2-y,1/2-x,-z
-x,-y,-z
y,-x,-z
x,y,-z
-y,x,-z
1/2-x,1/2+y,z
1/2+x,1/2-y,z
1/2-y,1/2-x,z
1/2+y,1/2+x,z
loop_
_atom_site_type_symbol
_atom_site_label
_atom_site_fract_x
_atom_site_fract_y
_atom_site_fract_z
Si Si1 0.289725 0.657581 0.302658
Si Si2 0.357717 0.651276 0.081114
Si Si3 0.311732 0.936625 0.919513
Si Si4 0.887364 0.935643 0.414356
Si Si5 0.911668 0.288287 0.833234
Si Si6 0.892378 0.068918 0.221285
O O1 0.240186 0.740186 0.318072
O O2 0.312733 0.609934 0.376516
O O3 0.236890 0.600073 0.250967
O O4 0.374774 0.674155 0.260590
O O5 0.367426 0.746100 0.078760
O O6 0.271429 0.633997 0.113315
O O7 0.426633 0.614842 0.133474
O O8 0.366267 0.613770 0.000000
O O9 0.396799 0.896799 0.903064
O O10 0.290686 0.996003 0.853823
O O11 0.313756 0.978720 0.000000
O O12 0.872800 0.928467 0.500000
O O13 0.970814 0.892736 0.392001
O O14 0.875714 0.375714 0.846263
O O15 0.977104 0.109580 0.245495
#
# Coordination Sequence:
#
# PCOD8313964 Si02
#       6
#    16  16  16  16  16  16
#     4  10  20  33  50  75 107 138 168 203 245 297
#     4  10  19  32  48  67  95 128 165 210 262 319
#     4  10  21  35  51  72  97 128 171 223 273 318
#     4   9  18  34  58  86 113 140 168 201 244 294
#     4  10  21  35  50  70  98 133 171 210 256 307
#     4  10  20  33  50  71  97 132 171 212 258 306
#
# _framework density 18.642225
#
# number of rings (size 3 to 8) (size 9 to 14) (size 15 to 20)
#    0.000    2.167    0.000    4.500    0.000    8.000 
#    0.000    1.667    0.000    0.000    0.000    0.000 
#    0.000    0.000    0.000   18.333    0.000    0.000 
#
# Total GULP energy -1189450.931532 kJ/mol
# GULP energy per Si atom -12390.113870 kJ/mol
# Density = 1.859979 g / cm^3
# Si number density = 18.642225 Si / 1000 Ang^3
#
#
#
# Elastic Constant Matrix: (Units=GPa)
#
#
# Indices 1 2 3 4 5 6 
#
# 1 75.6180 54.7654 34.8009 0.0000 0.0000 0.0000
# 2 54.7654 75.6180 34.8009 0.0000 0.0000 0.0000
# 3 34.8009 34.8009 73.9479 0.0000 0.0000 0.0000
# 4 0.0000 0.0000 0.0000 24.2970 0.0000 0.0000
# 5 0.0000 0.0000 0.0000 0.0000 24.2970 0.0000
# 6 0.0000 0.0000 0.0000 0.0000 0.0000 36.5257
#
#
#
# Elastic Compliance Matrix: (Units=1/GPa)
#
#
# Indices 1 2 3 4 5 6 
#
# 1 0.029099 -0.018856 -0.004820 0.000000 0.000000 0.000000
# 2 -0.018856 0.029099 -0.004820 0.000000 0.000000 0.000000
# 3 -0.004820 -0.004820 0.018060 0.000000 0.000000 0.000000
# 4 0.000000 0.000000 0.000000 0.041157 0.000000 0.000000
# 5 0.000000 0.000000 0.000000 0.000000 0.041157 0.000000
# 6 0.000000 0.000000 0.000000 0.000000 0.000000 0.027378
#
#
# Mechanical properties :
#
#
# Convention : Reuss Voigt Hill
#
# Bulk Modulus (GPa) = 51.90970 52.65759 52.28364
# Shear Modulus (GPa) = 20.05070 23.74504 21.89787
#
# Velocity S-wave (km/s) = 3.28312 3.57280 3.43102
# Velocity P-wave (km/s) = 6.50212 6.73258 6.61835
#
# Compressibility (1/GPa) = 0.01926422
#
# Stress axis : x y z
#
# Youngs Moduli (GPa) = 34.36497 34.36497 55.37029
#
# Poissons Ratio (x) = 0.64800 0.26691
# Poissons Ratio (y) = 0.64800 0.26691
# Poissons Ratio (z) = 0.16566 0.16566
#
# Static dielectric constant tensor:
#      x y z
#    x 3.339450 0.000000 0.000000 
#    y 0.000000 3.339450 0.000000 
#    z 0.000000 0.000000 3.484880 
# 
# 
# High freq. dielectric constant tensor:
#      x y z
#    x 1.705370 0.000000 0.000000 
#    y 0.000000 1.705370 0.000000 
#    z 0.000000 0.000000 1.722380 
# 
# From -- ./inp_files/5094.got.cif
#   From: 2010.03.12/outbox.cif.g09.slc.cpg/sg127_3_cif.got.tgz:5094.got - 2010.04.06 17:03:15.
