data_PCOD8313956
_publ_section_title
;
Structure prediction by ZEFSAII (Michael W. Deem and Ramdas Pophale) SiO2 
 PCOD8313956
Probable space group: P 4/M B M
;
_chemical_formula_sum "Si O2"
_cell_formula_units_Z 128
_cell_length_a 27.123974
_cell_length_b 27.123974
_cell_length_c 9.737083
_cell_angle_alpha 90.000000
_cell_angle_beta 90.000000
_cell_angle_gamma 90.000000
_cell_volume 7163.668999
_symmetry_space_group_name_H-M "P 4/M B M"
_symmetry_group_IT_number 127
_symmetry_cell_setting 'tetragonal'
loop_
_space_group_symop_operation_xyz
x,y,z
-y,x,z
-x,-y,z
y,-x,z
1/2+x,1/2-y,-z
1/2-x,1/2+y,-z
1/2+y,1/2+x,-z
1/2-y,1/2-x,-z
-x,-y,-z
y,-x,-z
x,y,-z
-y,x,-z
1/2-x,1/2+y,z
1/2+x,1/2-y,z
1/2-y,1/2-x,z
1/2+y,1/2+x,z
loop_
_atom_site_type_symbol
_atom_site_label
_atom_site_fract_x
_atom_site_fract_y
_atom_site_fract_z
Si Si1 0.261297 0.931754 0.844104
Si Si2 0.424849 0.230511 0.339469
Si Si3 0.872756 0.546916 0.840105
Si Si4 0.761555 0.820857 0.656098
Si Si5 0.993172 0.808779 0.338266
Si Si6 0.875585 0.457177 0.339570
Si Si7 0.260049 0.319685 0.846987
Si Si8 0.078455 0.999423 0.662923
O O1 0.315753 0.947245 0.795181
O O2 0.218197 0.950119 0.744276
O O3 0.260536 0.873697 0.833223
O O4 0.251171 0.949861 0.000000
O O5 0.419304 0.221766 0.500000
O O6 0.371263 0.241565 0.277496
O O7 0.457893 0.277860 0.304395
O O8 0.445523 0.179168 0.279821
O O9 0.902931 0.597070 0.810099
O O10 0.895965 0.503276 0.747943
O O11 0.876926 0.532785 0.000000
O O12 0.779266 0.828417 0.500000
O O13 0.718126 0.781875 0.667833
O O14 0.809327 0.804548 0.742130
O O15 0.980683 0.807744 0.500000
O O16 0.999127 0.865058 0.283334
O O17 0.874674 0.471786 0.500000
O O18 0.910128 0.410128 0.314181
O O19 0.214559 0.285442 0.807412
O O20 0.279670 0.308841 0.000000
O O21 0.079280 0.000081 0.500000
O O22 0.048618 0.950661 0.714425
#
# Coordination Sequence:
#
# PCOD8313956 Si02
#       8
#    16  16  16  16  16  16  16  16
#     4  10  20  35  53  73 101 136 169 207 259 313
#     4   9  17  31  50  74 105 136 167 208 257 305
#     4  10  21  37  56  76  99 132 174 217 262 313
#     4   9  17  30  49  73 101 134 170 205 245 298
#     4  10  19  31  52  78 101 129 170 214 250 291
#     4  10  20  35  55  77 103 136 171 209 261 320
#     4   9  18  33  51  71  98 132 168 205 248 301
#     4   8  15  29  49  75 107 139 171 209 253 298
#
# _framework density 17.867939
#
# number of rings (size 3 to 8) (size 9 to 14) (size 15 to 20)
#    0.000    2.625    1.250    1.125    0.000    5.250 
#    0.000    5.000    0.000    4.500    0.000    0.875 
#    0.000    0.000    0.000    0.000    0.000    0.000 
#
# Total GULP energy -1586692.089859 kJ/mol
# GULP energy per Si atom -12396.031952 kJ/mol
# Density = 1.782727 g / cm^3
# Si number density = 17.867939 Si / 1000 Ang^3
#
#
#
# Elastic Constant Matrix: (Units=GPa)
#
#
# Indices 1 2 3 4 5 6 
#
# 1 113.7036 43.6354 39.7618 0.0000 0.0000 0.0000
# 2 43.6354 113.7036 39.7618 0.0000 0.0000 0.0000
# 3 39.7618 39.7618 48.7338 0.0000 0.0000 0.0000
# 4 0.0000 0.0000 0.0000 20.4623 0.0000 0.0000
# 5 0.0000 0.0000 0.0000 0.0000 20.4623 0.0000
# 6 0.0000 0.0000 0.0000 0.0000 0.0000 23.1564
#
#
#
# Elastic Compliance Matrix: (Units=1/GPa)
#
#
# Indices 1 2 3 4 5 6 
#
# 1 0.012544 -0.001728 -0.008825 0.000000 0.000000 0.000000
# 2 -0.001728 0.012544 -0.008825 0.000000 0.000000 0.000000
# 3 -0.008825 -0.008825 0.034920 0.000000 0.000000 0.000000
# 4 0.000000 0.000000 0.000000 0.048870 0.000000 0.000000
# 5 0.000000 0.000000 0.000000 0.000000 0.048870 0.000000
# 6 0.000000 0.000000 0.000000 0.000000 0.000000 0.043185
#
#
# Mechanical properties :
#
#
# Convention : Reuss Voigt Hill
#
# Bulk Modulus (GPa) = 47.05255 58.05099 52.55177
# Shear Modulus (GPa) = 20.26160 23.01498 21.63829
#
# Velocity S-wave (km/s) = 3.37109 3.59285 3.48374
# Velocity P-wave (km/s) = 6.44539 7.05485 6.75699
#
# Compressibility (1/GPa) = 0.02125283
#
# Stress axis : x y z
#
# Youngs Moduli (GPa) = 79.72001 79.72001 28.63701
#
# Poissons Ratio (x) = 0.13775 0.25271
# Poissons Ratio (y) = 0.13775 0.25271
# Poissons Ratio (z) = 0.70351 0.70351
#
# Static dielectric constant tensor:
#      x y z
#    x 3.414020 0.000000 0.000000 
#    y 0.000000 3.414020 0.000000 
#    z 0.000000 0.000000 3.166560 
# 
# 
# High freq. dielectric constant tensor:
#      x y z
#    x 1.694460 0.000000 0.000000 
#    y 0.000000 1.694460 0.000000 
#    z 0.000000 0.000000 1.660820 
# 
# From -- ./inp_files/3868.got.cif
#   From: 2010.03.12/outbox.cif.g09.slc.cpg/sg127_2_cif.got.tgz:3868.got - 2010.04.06 17:03:15.
