data_PCOD8313610
_publ_section_title
;
Structure prediction by ZEFSAII (Michael W. Deem and Ramdas Pophale) SiO2 
 PCOD8313610
Probable space group: P 4/N B M
;
_chemical_formula_sum "Si O2"
_cell_formula_units_Z 112
_cell_length_a 14.132559
_cell_length_b 14.132559
_cell_length_c 28.709933
_cell_angle_alpha 90.000000
_cell_angle_beta 90.000000
_cell_angle_gamma 90.000000
_cell_volume 5734.212636
_symmetry_space_group_name_H-M "P 4/N B M"
_symmetry_group_IT_number 125
_space_group.IT_coordinate_system_code '2'
_symmetry_cell_setting 'tetragonal'
loop_
_space_group_symop_operation_xyz
x,y,z
1/2-y,x,z
1/2-x,1/2-y,z
y,1/2-x,z
x,1/2-y,-z
1/2-x,y,-z
y,x,-z
1/2-y,1/2-x,-z
-x,-y,-z
1/2+y,-x,-z
1/2+x,1/2+y,-z
-y,1/2+x,-z
-x,1/2+y,z
1/2+x,-y,z
-y,-x,z
1/2+y,1/2+x,z
loop_
_atom_site_type_symbol
_atom_site_label
_atom_site_fract_x
_atom_site_fract_y
_atom_site_fract_z
Si Si1 0.330959 0.116011 0.693225
Si Si2 0.323761 0.676240 0.614601
Si Si3 0.536184 0.307297 0.765785
Si Si4 0.924453 0.922328 0.596394
Si Si5 0.011999 0.745508 0.554211
Si Si6 0.753426 0.593787 0.049058
Si Si7 0.170688 0.670688 0.284123
Si Si8 0.260870 0.407163 0.150057
O O1 0.378093 0.217843 0.698470
O O2 0.365540 0.075477 0.644069
O O3 0.359898 0.042041 0.733346
O O4 0.250000 0.750000 0.634597
O O5 0.396015 0.733075 0.583437
O O6 0.364083 0.635918 0.663918
O O7 0.616752 0.383249 0.777950
O O8 0.578624 0.213929 0.740965
O O9 0.490391 0.269240 0.813028
O O10 0.932849 0.818676 0.573379
O O11 0.862486 0.982246 0.560785
O O12 0.028773 0.971228 0.601578
O O13 0.033934 0.750000 0.500000
O O14 0.844411 0.659679 0.048530
O O15 0.758953 0.540457 0.098921
O O16 0.750000 0.532670 0.000000
O O17 0.250000 0.750000 0.284440
O O18 0.163939 0.348976 0.156582
#
# Coordination Sequence:
#
# PCOD8313610 Si02
#       8
#    16   8  16  16  16  16   8  16
#     4  11  23  42  64  87 116 150 191 237 290 349
#     4  11  24  44  69  93 121 152 198 248 300 357
#     4  11  22  38  58  83 116 153 197 239 292 350
#     4  12  25  45  66  93 127 157 194 238 293 355
#     4  12  27  43  67  95 123 158 194 239 293 354
#     4   7  10  19  41  73 107 145 189 235 288 345
#     4   9  22  42  60  81 111 150 189 236 288 341
#     4   9  17  32  51  81 120 152 190 244 298 343
#
# _framework density 19.531887000000001
#
# number of rings (size 3 to 8) (size 9 to 14) (size 15 to 20)
#    0.000    1.714    2.143    4.286    2.000    3.143 
#    5.143    0.714    0.000    0.000    1.857    2.000 
#    0.000    0.000    0.000    0.000    0.000    0.000 
#
# Total GULP energy -1387624.610810 kJ/mol
# GULP energy per Si atom -12389.505454 kJ/mol
# Density = 1.948743 g / cm^3
# Si number density = 19.531887 Si / 1000 Ang^3
#
#
#
# Elastic Constant Matrix: (Units=GPa)
#
#
# Indices 1 2 3 4 5 6 
#
# 1 72.0966 12.7035 41.0775 0.0000 0.0000 0.0000
# 2 12.7035 72.0966 41.0775 0.0000 0.0000 0.0000
# 3 41.0775 41.0775 195.4337 0.0000 0.0000 0.0000
# 4 0.0000 0.0000 0.0000 13.9554 0.0000 0.0000
# 5 0.0000 0.0000 0.0000 0.0000 13.9554 0.0000
# 6 0.0000 0.0000 0.0000 0.0000 0.0000 24.5364
#
#
#
# Elastic Compliance Matrix: (Units=1/GPa)
#
#
# Indices 1 2 3 4 5 6 
#
# 1 0.015822 -0.001015 -0.003112 0.000000 0.000000 0.000000
# 2 -0.001015 0.015822 -0.003112 0.000000 0.000000 0.000000
# 3 -0.003112 -0.003112 0.006425 0.000000 0.000000 0.000000
# 4 0.000000 0.000000 0.000000 0.071657 0.000000 0.000000
# 5 0.000000 0.000000 0.000000 0.000000 0.071657 0.000000
# 6 0.000000 0.000000 0.000000 0.000000 0.000000 0.040756
#
#
# Mechanical properties :
#
#
# Convention : Reuss Voigt Hill
#
# Bulk Modulus (GPa) = 42.38879 58.81596 50.60238
# Shear Modulus (GPa) = 20.45142 26.80734 23.62938
#
# Velocity S-wave (km/s) = 3.23937 3.70873 3.48197
# Velocity P-wave (km/s) = 5.97836 6.96547 6.49071
#
# Compressibility (1/GPa) = 0.02359114
#
# Stress axis : x y z
#
# Youngs Moduli (GPa) = 63.20171 63.20171 155.63755
#
# Poissons Ratio (x) = 0.06413 0.48440
# Poissons Ratio (y) = 0.06413 0.48440
# Poissons Ratio (z) = 0.19671 0.19671
#
# Static dielectric constant tensor:
#      x y z
#    x 3.334980 0.000000 0.000000 
#    y 0.000000 3.334980 0.000000 
#    z 0.000000 0.000000 3.975310 
# 
# 
# High freq. dielectric constant tensor:
#      x y z
#    x 1.740130 0.000000 0.000000 
#    y 0.000000 1.740130 0.000000 
#    z 0.000000 0.000000 1.776960 
# 
# From -- ./inp_files/6474.got.cif
#   From: 2010.03.12/outbox.cif.g09.slc.cpg/sg125_4_cif.got.tgz:6474.got - 2010.04.06 16:47:52.
