data_PCOD8313522
_publ_section_title
;
Structure prediction by ZEFSAII (Michael W. Deem and Ramdas Pophale) SiO2 
 PCOD8313522
Probable space group: P 4/N B M
;
_chemical_formula_sum "Si O2"
_cell_formula_units_Z 112
_cell_length_a 13.718135
_cell_length_b 13.718135
_cell_length_c 32.378837
_cell_angle_alpha 90.000000
_cell_angle_beta 90.000000
_cell_angle_gamma 90.000000
_cell_volume 6093.283577
_symmetry_space_group_name_H-M "P 4/N B M"
_symmetry_group_IT_number 125
_space_group.IT_coordinate_system_code '2'
_symmetry_cell_setting 'tetragonal'
loop_
_space_group_symop_operation_xyz
x,y,z
1/2-y,x,z
1/2-x,1/2-y,z
y,1/2-x,z
x,1/2-y,-z
1/2-x,y,-z
y,x,-z
1/2-y,1/2-x,-z
-x,-y,-z
1/2+y,-x,-z
1/2+x,1/2+y,-z
-y,1/2+x,-z
-x,1/2+y,z
1/2+x,-y,z
-y,-x,z
1/2+y,1/2+x,z
loop_
_atom_site_type_symbol
_atom_site_label
_atom_site_fract_x
_atom_site_fract_y
_atom_site_fract_z
Si Si1 0.982337 0.641581 0.167355
Si Si2 0.851162 0.989603 0.340160
Si Si3 0.349598 0.488351 0.383157
Si Si4 0.106749 0.324172 0.745005
Si Si5 0.410187 0.237251 0.045418
Si Si6 0.838748 0.998851 0.875858
Si Si7 0.849007 0.988741 0.521753
O O1 0.942326 0.638664 0.213376
O O2 0.902020 0.596884 0.135777
O O3 0.081026 0.581026 0.164352
O O4 0.008133 0.752707 0.157116
O O5 0.854216 0.964165 0.291940
O O6 0.890226 0.897054 0.365491
O O7 0.744844 0.014943 0.356758
O O8 0.915817 0.084184 0.348488
O O9 0.421264 0.578737 0.377590
O O10 0.325452 0.467462 0.430675
O O11 0.120532 0.208888 0.742468
O O12 0.352845 0.337308 0.051132
O O13 0.491967 0.214935 0.079543
O O14 0.458756 0.250000 0.000000
O O15 0.904748 0.095253 0.874654
O O16 0.750000 0.020245 0.500000
O O17 0.892514 0.892514 0.500000
O O18 0.922283 0.077718 0.516231
#
# Coordination Sequence:
#
# PCOD8313522 Si02
#       7
#    16  16  16  16  16  16  16
#     4  11  23  39  60  87 119 158 198 242 296 355
#     4  11  22  39  60  83 119 156 188 240 292 342
#     4  10  22  38  59  85 113 151 197 236 283 352
#     4  11  21  37  62  90 117 149 192 247 297 344
#     4   9  17  32  57  86 116 149 197 251 298 341
#     4  11  22  37  60  88 120 157 199 248 300 355
#     4  10  21  38  58  84 116 149 190 239 291 344
#
# _framework density 18.380893
#
# number of rings (size 3 to 8) (size 9 to 14) (size 15 to 20)
#    0.000    1.571    4.286    1.714    0.000    3.143 
#    0.000    5.714    0.000    1.714    0.000    0.000 
#    0.000    0.000    0.000    0.000    0.000    0.000 
#
# Total GULP energy -1388819.574305 kJ/mol
# GULP energy per Si atom -12400.174771 kJ/mol
# Density = 1.833906 g / cm^3
# Si number density = 18.380893 Si / 1000 Ang^3
#
#
#
# Elastic Constant Matrix: (Units=GPa)
#
#
# Indices 1 2 3 4 5 6 
#
# 1 82.6820 22.4464 30.6187 0.0000 0.0000 0.0000
# 2 22.4464 82.6820 30.6187 0.0000 0.0000 0.0000
# 3 30.6187 30.6187 123.9635 0.0000 0.0000 0.0000
# 4 0.0000 0.0000 0.0000 28.8263 0.0000 0.0000
# 5 0.0000 0.0000 0.0000 0.0000 28.8263 0.0000
# 6 0.0000 0.0000 0.0000 0.0000 0.0000 8.3433
#
#
#
# Elastic Compliance Matrix: (Units=1/GPa)
#
#
# Indices 1 2 3 4 5 6 
#
# 1 0.013856 -0.002745 -0.002744 0.000000 0.000000 0.000000
# 2 -0.002745 0.013856 -0.002744 0.000000 0.000000 0.000000
# 3 -0.002744 -0.002744 0.009423 0.000000 0.000000 0.000000
# 4 0.000000 0.000000 0.000000 0.034691 0.000000 0.000000
# 5 0.000000 0.000000 0.000000 0.000000 0.034691 0.000000
# 6 0.000000 0.000000 0.000000 0.000000 0.000000 0.119857
#
#
# Mechanical properties :
#
#
# Convention : Reuss Voigt Hill
#
# Bulk Modulus (GPa) = 48.38689 50.74392 49.56541
# Shear Modulus (GPa) = 20.02167 26.90877 23.46522
#
# Velocity S-wave (km/s) = 3.30398 3.83032 3.57684
# Velocity P-wave (km/s) = 6.39819 6.87230 6.63948
#
# Compressibility (1/GPa) = 0.02066675
#
# Stress axis : x y z
#
# Youngs Moduli (GPa) = 72.17032 72.17032 106.12801
#
# Poissons Ratio (x) = 0.19813 0.29125
# Poissons Ratio (y) = 0.19813 0.29125
# Poissons Ratio (z) = 0.19806 0.19806
#
# Static dielectric constant tensor:
#      x y z
#    x 3.246450 0.000000 0.000000 
#    y 0.000000 3.246450 0.000000 
#    z 0.000000 0.000000 3.572990 
# 
# 
# High freq. dielectric constant tensor:
#      x y z
#    x 1.703730 0.000000 0.000000 
#    y 0.000000 1.703730 0.000000 
#    z 0.000000 0.000000 1.731370 
# 
# From -- ./inp_files/6460.got.cif
#   From: 2010.03.12/outbox.cif.g09.slc.cpg/sg125_4_cif.got.tgz:6460.got - 2010.04.06 16:47:52.
