data_PCOD8313674
_publ_section_title
;
Structure prediction by ZEFSAII (Michael W. Deem and Ramdas Pophale) SiO2 
 PCOD8313674
Probable space group: P 4/N N C
;
_chemical_formula_sum "Si O2"
_cell_formula_units_Z 64
_cell_length_a 25.026799
_cell_length_b 25.026799
_cell_length_c 5.144466
_cell_angle_alpha 90.000000
_cell_angle_beta 90.000000
_cell_angle_gamma 90.000000
_cell_volume 3222.188272
_symmetry_space_group_name_H-M "P 4/N N C"
_symmetry_group_IT_number 126
_space_group.IT_coordinate_system_code '2'
_symmetry_cell_setting 'tetragonal'
loop_
_space_group_symop_operation_xyz
x,y,z
1/2-y,x,z
1/2-x,1/2-y,z
y,1/2-x,z
x,1/2-y,1/2-z
1/2-x,y,1/2-z
y,x,1/2-z
1/2-y,1/2-x,1/2-z
-x,-y,-z
1/2+y,-x,-z
1/2+x,1/2+y,-z
-y,1/2+x,-z
-x,1/2+y,1/2+z
1/2+x,-y,1/2+z
-y,-x,1/2+z
1/2+y,1/2+x,1/2+z
loop_
_atom_site_type_symbol
_atom_site_label
_atom_site_fract_x
_atom_site_fract_y
_atom_site_fract_z
Si Si1 0.437614 0.606260 0.287783
Si Si2 0.532347 0.689227 0.223767
Si Si3 0.690194 0.601746 0.777940
Si Si4 0.652914 0.306571 0.686722
O O1 0.434336 0.569181 0.544780
O O2 0.490669 0.641648 0.271341
O O3 0.390125 0.647706 0.298152
O O4 0.508244 0.750000 0.250000
O O5 0.555854 0.819721 0.563589
O O6 0.578259 0.681750 0.435939
O O7 0.750000 0.624512 0.750000
O O8 0.650702 0.650702 0.750000
O O9 0.625148 0.250000 0.750000
O O10 0.681088 0.302968 0.407498
#
# Coordination Sequence:
#
# PCOD8313674 Si02
#       4
#    16  16  16  16
#     4  10  20  34  53  76 103 137 182 235 278 314
#     4  10  20  36  59  83 111 149 190 230 274 329
#     4  10  21  37  60  89 117 147 179 216 268 328
#     4  10  20  31  44  64  91 125 166 214 269 326
#
# _framework density 19.862278
#
# number of rings (size 3 to 8) (size 9 to 14) (size 15 to 20)
#    0.000    2.000    0.000    3.750    0.000    1.750 
#    0.000    7.500    0.000   19.500    0.000    0.000 
#    0.000    0.000    0.000    0.000    0.000    0.000 
#
# Total GULP energy -793265.299990 kJ/mol
# GULP energy per Si atom -12394.770312 kJ/mol
# Density = 1.981707 g / cm^3
# Si number density = 19.862278 Si / 1000 Ang^3
#
#
#
# Elastic Constant Matrix: (Units=GPa)
#
#
# Indices 1 2 3 4 5 6 
#
# 1 68.9267 43.7613 14.9623 0.0000 0.0000 0.0000
# 2 43.7613 68.9267 14.9623 0.0000 0.0000 0.0000
# 3 14.9623 14.9623 94.7786 0.0000 0.0000 0.0000
# 4 0.0000 0.0000 0.0000 20.2459 0.0000 0.0000
# 5 0.0000 0.0000 0.0000 0.0000 20.2459 0.0000
# 6 0.0000 0.0000 0.0000 0.0000 0.0000 54.7320
#
#
#
# Elastic Compliance Matrix: (Units=1/GPa)
#
#
# Indices 1 2 3 4 5 6 
#
# 1 0.024500 -0.015237 -0.001462 0.000000 0.000000 0.000000
# 2 -0.015237 0.024500 -0.001462 0.000000 0.000000 0.000000
# 3 -0.001462 -0.001462 0.011013 0.000000 0.000000 0.000000
# 4 0.000000 0.000000 0.000000 0.049393 0.000000 0.000000
# 5 0.000000 0.000000 0.000000 0.000000 0.049393 0.000000
# 6 0.000000 0.000000 0.000000 0.000000 0.000000 0.018271
#
#
# Mechanical properties :
#
#
# Convention : Reuss Voigt Hill
#
# Bulk Modulus (GPa) = 42.21468 42.22264 42.21866
# Shear Modulus (GPa) = 22.59501 29.64117 26.11809
#
# Velocity S-wave (km/s) = 3.37647 3.86727 3.63017
# Velocity P-wave (km/s) = 6.04157 6.42222 6.23480
#
# Compressibility (1/GPa) = 0.02368844
#
# Stress axis : x y z
#
# Youngs Moduli (GPa) = 40.81683 40.81683 90.80527
#
# Poissons Ratio (x) = 0.62194 0.13278
# Poissons Ratio (y) = 0.62194 0.13278
# Poissons Ratio (z) = 0.05968 0.05968
#
# Static dielectric constant tensor:
#      x y z
#    x 3.410470 0.000000 0.000000 
#    y 0.000000 3.410470 0.000000 
#    z 0.000000 0.000000 4.068360 
# 
# 
# High freq. dielectric constant tensor:
#      x y z
#    x 1.756610 0.000000 0.000000 
#    y 0.000000 1.756610 0.000000 
#    z 0.000000 0.000000 1.801330 
# 
# From -- ./inp_files/445.got.cif
#   From: 2010.03.12/outbox.cif.g09.slc.cpg/sg126_1_cif.got.tgz:445.got - 2010.04.06 16:55:23.
