data_PCOD8313252
_publ_section_title
;
Structure prediction by ZEFSAII (Michael W. Deem and Ramdas Pophale) SiO2 
 PCOD8313252
Probable space group: P 4/M C C
;
_chemical_formula_sum "Si O2"
_cell_formula_units_Z 120
_cell_length_a 20.842248
_cell_length_b 20.842248
_cell_length_c 14.002388
_cell_angle_alpha 90.000000
_cell_angle_beta 90.000000
_cell_angle_gamma 90.000000
_cell_volume 6082.627569
_symmetry_space_group_name_H-M "P 4/M C C"
_symmetry_group_IT_number 124
_symmetry_cell_setting 'tetragonal'
loop_
_space_group_symop_operation_xyz
x,y,z
-y,x,z
-x,-y,z
y,-x,z
x,-y,1/2-z
-x,y,1/2-z
y,x,1/2-z
-y,-x,1/2-z
-x,-y,-z
y,-x,-z
x,y,-z
-y,x,-z
-x,y,1/2+z
x,-y,1/2+z
-y,-x,1/2+z
y,x,1/2+z
loop_
_atom_site_type_symbol
_atom_site_label
_atom_site_fract_x
_atom_site_fract_y
_atom_site_fract_z
Si Si1 0.986369 0.243120 0.387714
Si Si2 0.074242 0.568436 0.742977
Si Si3 0.674557 0.892577 0.886970
Si Si4 0.335123 0.431673 0.301323
Si Si5 0.873605 0.662443 0.110484
Si Si6 0.100581 0.989099 0.113327
Si Si7 0.330317 0.227138 0.227748
Si Si8 0.539640 0.599693 0.000000
O O1 0.994606 0.239716 0.500000
O O2 0.050472 0.278632 0.348216
O O3 0.982935 0.171798 0.343073
O O4 0.920173 0.278412 0.361240
O O5 0.109348 0.500000 0.750000
O O6 0.100597 0.607694 0.832597
O O7 0.087607 0.598647 0.638834
O O8 0.000000 0.559103 0.750000
O O9 0.695983 0.820913 0.855654
O O10 0.665215 0.896879 0.000000
O O11 0.326675 0.500000 0.250000
O O12 0.390102 0.390102 0.250000
O O13 0.266621 0.394435 0.300864
O O14 0.356968 0.443307 0.409336
O O15 0.809756 0.660166 0.172677
O O16 0.854781 0.662651 0.000000
O O17 0.069796 0.056213 0.149047
O O18 0.103223 0.987880 0.000000
O O19 0.274192 0.274192 0.250000
O O20 0.464561 0.582255 0.000000
#
# Coordination Sequence:
#
# PCOD8313252 Si02
#       8
#    16  16  16  16  16  16  16   8
#     4   9  17  31  56  84 111 151 204 259 313 361
#     4  10  20  35  58  86 117 146 182 244 315 371
#     4  10  21  38  60  86 116 156 209 262 303 367
#     4  11  23  44  66  96 138 173 209 262 309 370
#     4  10  21  40  62  85 116 158 211 264 310 372
#     4   8  14  25  43  75 117 150 179 231 305 377
#     4  10  25  42  59  86 124 168 211 250 307 372
#     4  11  22  38  74 114 134 168 213 257 323 374
#
# _framework density 19.728317000000001
#
# number of rings (size 3 to 8) (size 9 to 14) (size 15 to 20)
#    0.000    2.200    2.667    0.400    0.933    4.400 
#    4.800    4.000    0.000    0.000    0.000    0.000 
#    0.000   16.000    0.000    1.867    0.000    0.000 
#
# Total GULP energy -1487004.572917 kJ/mol
# GULP energy per Si atom -12391.704774 kJ/mol
# Density = 1.968341 g / cm^3
# Si number density = 19.728317 Si / 1000 Ang^3
#
#
#
# Elastic Constant Matrix: (Units=GPa)
#
#
# Indices 1 2 3 4 5 6 
#
# 1 140.0696 59.6010 36.4314 0.0000 0.0000 0.0000
# 2 59.6010 140.0696 36.4314 0.0000 0.0000 0.0000
# 3 36.4314 36.4314 115.1710 0.0000 0.0000 0.0000
# 4 0.0000 0.0000 0.0000 31.0968 0.0000 0.0000
# 5 0.0000 0.0000 0.0000 0.0000 31.0968 0.0000
# 6 0.0000 0.0000 0.0000 0.0000 0.0000 9.1181
#
#
#
# Elastic Compliance Matrix: (Units=1/GPa)
#
#
# Indices 1 2 3 4 5 6 
#
# 1 0.009045 -0.003383 -0.001791 0.000000 0.000000 0.000000
# 2 -0.003383 0.009045 -0.001791 0.000000 0.000000 0.000000
# 3 -0.001791 -0.001791 0.009816 0.000000 0.000000 0.000000
# 4 0.000000 0.000000 0.000000 0.032158 0.000000 0.000000
# 5 0.000000 0.000000 0.000000 0.000000 0.032158 0.000000
# 6 0.000000 0.000000 0.000000 0.000000 0.000000 0.109672
#
#
# Mechanical properties :
#
#
# Convention : Reuss Voigt Hill
#
# Bulk Modulus (GPa) = 71.55364 73.35976 72.45670
# Shear Modulus (GPa) = 22.67779 31.78543 27.23161
#
# Velocity S-wave (km/s) = 3.39411 4.01828 3.71931
# Velocity P-wave (km/s) = 7.19084 7.66776 7.43313
#
# Compressibility (1/GPa) = 0.01397553
#
# Stress axis : x y z
#
# Youngs Moduli (GPa) = 110.56436 110.56436 101.87668
#
# Poissons Ratio (x) = 0.37401 0.18246
# Poissons Ratio (y) = 0.37401 0.18246
# Poissons Ratio (z) = 0.19802 0.19802
#
# Static dielectric constant tensor:
#      x y z
#    x 4.834880 0.000000 0.000000 
#    y 0.000000 4.834880 0.000000 
#    z 0.000000 0.000000 3.505580 
# 
# 
# High freq. dielectric constant tensor:
#      x y z
#    x 1.771730 0.000000 0.000000 
#    y 0.000000 1.771730 0.000000 
#    z 0.000000 0.000000 1.771630 
# 
# From -- ./inp_files/3493.got.cif
#   From: 2010.03.12/outbox.cif.g09.slc.cpg/sg124_2_cif.got.tgz:3493.got - 2010.04.06 16:38:57.
