data_PCOD8313437
_publ_section_title
;
Structure prediction by ZEFSAII (Michael W. Deem and Ramdas Pophale) SiO2 
 PCOD8313437
Probable space group: P 4/N B M
;
_chemical_formula_sum "Si O2"
_cell_formula_units_Z 96
_cell_length_a 14.203698
_cell_length_b 14.203698
_cell_length_c 25.168550
_cell_angle_alpha 90.000000
_cell_angle_beta 90.000000
_cell_angle_gamma 90.000000
_cell_volume 5077.630048
_symmetry_space_group_name_H-M "P 4/N B M"
_symmetry_group_IT_number 125
_space_group.IT_coordinate_system_code '2'
_symmetry_cell_setting 'tetragonal'
loop_
_space_group_symop_operation_xyz
x,y,z
1/2-y,x,z
1/2-x,1/2-y,z
y,1/2-x,z
x,1/2-y,-z
1/2-x,y,-z
y,x,-z
1/2-y,1/2-x,-z
-x,-y,-z
1/2+y,-x,-z
1/2+x,1/2+y,-z
-y,1/2+x,-z
-x,1/2+y,z
1/2+x,-y,z
-y,-x,z
1/2+y,1/2+x,z
loop_
_atom_site_type_symbol
_atom_site_label
_atom_site_fract_x
_atom_site_fract_y
_atom_site_fract_z
Si Si1 0.147666 0.006988 0.974460
Si Si2 0.888964 0.815939 0.871902
Si Si3 0.747400 0.101593 0.698365
Si Si4 0.859157 0.859751 0.557820
Si Si5 0.388397 0.459599 0.337026
Si Si6 0.971018 0.877837 0.761952
O O1 0.153257 0.028000 0.911589
O O2 0.250000 0.991968 0.000000
O O3 0.097511 0.097511 0.000000
O O4 0.087743 0.912258 0.983799
O O5 0.794076 0.873500 0.882481
O O6 0.916935 0.838046 0.811976
O O7 0.830425 0.169576 0.719991
O O8 0.666263 0.166263 0.669447
O O9 0.792746 0.022281 0.659732
O O10 0.700846 0.048719 0.747713
O O11 0.749441 0.880409 0.562401
O O12 0.896247 0.896247 0.500000
O O13 0.908324 0.909534 0.607151
O O14 0.478143 0.521858 0.326813
O O15 0.393826 0.388923 0.286302
O O16 0.023517 0.976484 0.775203
#
# Coordination Sequence:
#
# PCOD8313437 Si02
#       6
#    16  16  16  16  16  16
#     4  11  23  42  67  92 120 158 200 244 293 347
#     4  11  22  36  58  86 116 151 193 239 288 350
#     4   9  18  33  51  72 104 148 187 220 273 341
#     4   9  18  32  49  69  96 132 173 218 272 333
#     4  10  19  31  51  77 105 138 178 229 280 332
#     4  10  20  34  52  79 112 143 184 234 284 339
#
# _framework density 18.906459000000002
#
# number of rings (size 3 to 8) (size 9 to 14) (size 15 to 20)
#    0.000    2.000    1.667    3.000    0.000    0.667 
#    0.000    3.333    0.000    3.000    0.000    0.000 
#    0.000    5.333    0.000    0.000    0.000    0.000 
#
# Total GULP energy -1189614.468130 kJ/mol
# GULP energy per Si atom -12391.817376 kJ/mol
# Density = 1.886343 g / cm^3
# Si number density = 18.906459 Si / 1000 Ang^3
#
#
#
# Elastic Constant Matrix: (Units=GPa)
#
#
# Indices 1 2 3 4 5 6 
#
# 1 71.1324 53.6553 40.6850 0.0000 0.0000 0.0000
# 2 53.6553 71.1324 40.6850 0.0000 0.0000 0.0000
# 3 40.6850 40.6850 134.4637 0.0000 0.0000 0.0000
# 4 0.0000 0.0000 0.0000 28.9715 0.0000 0.0000
# 5 0.0000 0.0000 0.0000 0.0000 28.9715 0.0000
# 6 0.0000 0.0000 0.0000 0.0000 0.0000 19.4034
#
#
#
# Elastic Compliance Matrix: (Units=1/GPa)
#
#
# Indices 1 2 3 4 5 6 
#
# 1 0.033600 -0.023617 -0.003021 0.000000 0.000000 0.000000
# 2 -0.023617 0.033600 -0.003021 0.000000 0.000000 0.000000
# 3 -0.003021 -0.003021 0.009265 0.000000 0.000000 0.000000
# 4 0.000000 0.000000 0.000000 0.034517 0.000000 0.000000
# 5 0.000000 0.000000 0.000000 0.000000 0.034517 0.000000
# 6 0.000000 0.000000 0.000000 0.000000 0.000000 0.051537
#
#
# Mechanical properties :
#
#
# Convention : Reuss Voigt Hill
#
# Bulk Modulus (GPa) = 58.31310 60.75322 59.53316
# Shear Modulus (GPa) = 19.07889 24.91617 21.99753
#
# Velocity S-wave (km/s) = 3.18011 3.63418 3.41470
# Velocity P-wave (km/s) = 6.66289 7.05783 6.86320
#
# Compressibility (1/GPa) = 0.01714881
#
# Stress axis : x y z
#
# Youngs Moduli (GPa) = 29.76150 29.76150 107.93434
#
# Poissons Ratio (x) = 0.70288 0.32603
# Poissons Ratio (y) = 0.70288 0.32603
# Poissons Ratio (z) = 0.08990 0.08990
#
# Static dielectric constant tensor:
#      x y z
#    x 3.545180 0.000000 0.000000 
#    y 0.000000 3.545180 0.000000 
#    z 0.000000 0.000000 3.404730 
# 
# 
# High freq. dielectric constant tensor:
#      x y z
#    x 1.734740 0.000000 0.000000 
#    y 0.000000 1.734740 0.000000 
#    z 0.000000 0.000000 1.722790 
# 
# From -- ./inp_files/5902.got.cif
#   From: 2010.03.12/outbox.cif.g09.slc.cpg/sg125_3_cif.got.tgz:5902.got - 2010.04.06 16:47:52.
