data_PCOD8313792
_publ_section_title
;
Structure prediction by ZEFSAII (Michael W. Deem and Ramdas Pophale) SiO2 
 PCOD8313792
Probable space group: P 4/N N C
;
_chemical_formula_sum "Si O2"
_cell_formula_units_Z 112
_cell_length_a 15.515820
_cell_length_b 15.515820
_cell_length_c 22.828879
_cell_angle_alpha 90.000000
_cell_angle_beta 90.000000
_cell_angle_gamma 90.000000
_cell_volume 5495.839632
_symmetry_space_group_name_H-M "P 4/N N C"
_symmetry_group_IT_number 126
_space_group.IT_coordinate_system_code '2'
_symmetry_cell_setting 'tetragonal'
loop_
_space_group_symop_operation_xyz
x,y,z
1/2-y,x,z
1/2-x,1/2-y,z
y,1/2-x,z
x,1/2-y,1/2-z
1/2-x,y,1/2-z
y,x,1/2-z
1/2-y,1/2-x,1/2-z
-x,-y,-z
1/2+y,-x,-z
1/2+x,1/2+y,-z
-y,1/2+x,-z
-x,1/2+y,1/2+z
1/2+x,-y,1/2+z
-y,-x,1/2+z
1/2+y,1/2+x,1/2+z
loop_
_atom_site_type_symbol
_atom_site_label
_atom_site_fract_x
_atom_site_fract_y
_atom_site_fract_z
Si Si1 0.815132 0.432882 0.964019
Si Si2 0.442621 0.709295 0.423864
Si Si3 0.885519 0.743877 0.819234
Si Si4 0.694575 0.881335 0.458607
Si Si5 0.777141 0.347521 0.185632
Si Si6 0.326234 0.949842 0.373897
Si Si7 0.565477 0.950314 0.543469
O O1 0.887226 0.360171 0.958744
O O2 0.731740 0.407576 0.925360
O O3 0.858826 0.521670 0.940929
O O4 0.792640 0.442821 0.033150
O O5 0.541949 0.678043 0.411517
O O6 0.405506 0.726687 0.360346
O O7 0.838918 0.830802 0.842068
O O8 0.887336 0.750000 0.750000
O O9 0.981752 0.735255 0.842193
O O10 0.638780 0.795689 0.452851
O O11 0.662266 0.929226 0.518076
O O12 0.750000 0.250000 0.176524
O O13 0.750000 0.380513 0.250000
O O14 0.879318 0.355205 0.174029
O O15 0.414314 0.991565 0.399675
O O16 0.500000 0.000000 0.500000
#
# Coordination Sequence:
#
# PCOD8313792 Si02
#       7
#    16  16  16  16  16  16  16
#     4  12  23  36  62  99 131 172 207 259 334 400
#     4  12  23  40  64  92 135 167 220 264 325 400
#     4   9  20  39  61  88 126 172 217 265 319 383
#     4  11  23  39  62  93 134 177 209 258 330 399
#     4  11  26  44  63  92 126 175 221 274 330 379
#     4  12  23  38  63  95 130 172 214 267 325 398
#     4  12  21  38  60  97 135 163 208 268 323 402
#
# _framework density 20.379049999999999
#
# number of rings (size 3 to 8) (size 9 to 14) (size 15 to 20)
#    0.000    0.714    5.714    3.000    2.000    0.000 
#    0.000    1.429    0.000    2.571    0.000    1.000 
#    0.000    0.000    0.000    0.000    0.000    0.000 
#
# Total GULP energy -1388011.453605 kJ/mol
# GULP energy per Si atom -12392.959407 kJ/mol
# Density = 2.033267 g / cm^3
# Si number density = 20.379050 Si / 1000 Ang^3
#
#
#
# Elastic Constant Matrix: (Units=GPa)
#
#
# Indices 1 2 3 4 5 6 
#
# 1 111.1215 27.2454 49.1700 0.0000 0.0000 0.0000
# 2 27.2454 111.1215 49.1700 0.0000 0.0000 0.0000
# 3 49.1700 49.1700 106.5630 0.0000 0.0000 0.0000
# 4 0.0000 0.0000 0.0000 20.2621 0.0000 0.0000
# 5 0.0000 0.0000 0.0000 0.0000 20.2621 0.0000
# 6 0.0000 0.0000 0.0000 0.0000 0.0000 36.0487
#
#
#
# Elastic Compliance Matrix: (Units=1/GPa)
#
#
# Indices 1 2 3 4 5 6 
#
# 1 0.011338 -0.000584 -0.004962 0.000000 0.000000 0.000000
# 2 -0.000584 0.011338 -0.004962 0.000000 0.000000 0.000000
# 3 -0.004962 -0.004962 0.013963 0.000000 0.000000 0.000000
# 4 0.000000 0.000000 0.000000 0.049353 0.000000 0.000000
# 5 0.000000 0.000000 0.000000 0.000000 0.049353 0.000000
# 6 0.000000 0.000000 0.000000 0.000000 0.000000 0.027740
#
#
# Mechanical properties :
#
#
# Convention : Reuss Voigt Hill
#
# Bulk Modulus (GPa) = 64.00898 64.44188 64.22543
# Shear Modulus (GPa) = 26.41171 28.86262 27.63716
#
# Velocity S-wave (km/s) = 3.60394 3.76744 3.68660
# Velocity P-wave (km/s) = 6.98536 7.11443 7.05019
#
# Compressibility (1/GPa) = 0.01562281
#
# Stress axis : x y z
#
# Youngs Moduli (GPa) = 88.19870 88.19870 71.61690
#
# Poissons Ratio (x) = 0.05154 0.35536
# Poissons Ratio (y) = 0.05154 0.35536
# Poissons Ratio (z) = 0.43764 0.43764
#
# Static dielectric constant tensor:
#      x y z
#    x 3.928510 0.000000 0.000000 
#    y 0.000000 3.928510 0.000000 
#    z 0.000000 0.000000 3.411650 
# 
# 
# High freq. dielectric constant tensor:
#      x y z
#    x 1.807740 0.000000 0.000000 
#    y 0.000000 1.807740 0.000000 
#    z 0.000000 0.000000 1.759370 
# 
# From -- ./inp_files/5853.got.cif
#   From: 2010.03.12/outbox.cif.g09.slc.cpg/sg126_3_cif.got.tgz:5853.got - 2010.04.06 16:55:23.
