data_PCOD8313410
_publ_section_title
;
Structure prediction by ZEFSAII (Michael W. Deem and Ramdas Pophale) SiO2 
 PCOD8313410
Probable space group: P 4/N B M
;
_chemical_formula_sum "Si O2"
_cell_formula_units_Z 104
_cell_length_a 21.193639
_cell_length_b 21.193639
_cell_length_c 13.730471
_cell_angle_alpha 90.000000
_cell_angle_beta 90.000000
_cell_angle_gamma 90.000000
_cell_volume 6167.320246
_symmetry_space_group_name_H-M "P 4/N B M"
_symmetry_group_IT_number 125
_space_group.IT_coordinate_system_code '2'
_symmetry_cell_setting 'tetragonal'
loop_
_space_group_symop_operation_xyz
x,y,z
1/2-y,x,z
1/2-x,1/2-y,z
y,1/2-x,z
x,1/2-y,-z
1/2-x,y,-z
y,x,-z
1/2-y,1/2-x,-z
-x,-y,-z
1/2+y,-x,-z
1/2+x,1/2+y,-z
-y,1/2+x,-z
-x,1/2+y,z
1/2+x,-y,z
-y,-x,z
1/2+y,1/2+x,z
loop_
_atom_site_type_symbol
_atom_site_label
_atom_site_fract_x
_atom_site_fract_y
_atom_site_fract_z
Si Si1 0.424749 0.029870 0.726525
Si Si2 0.470673 0.631656 0.450002
Si Si3 0.698842 0.198842 0.885017
Si Si4 0.750000 0.414503 0.000000
Si Si5 0.657904 0.053640 0.156672
Si Si6 0.624390 0.020686 0.674194
Si Si7 0.755192 0.430145 0.336798
Si Si8 0.200150 0.700150 0.344513
O O1 0.459952 0.097446 0.733932
O O2 0.477455 0.977455 0.734717
O O3 0.392621 0.026109 0.620654
O O4 0.373385 0.013707 0.811328
O O5 0.405751 0.594250 0.427849
O O6 0.493415 0.620281 0.559243
O O7 0.459727 0.705571 0.426301
O O8 0.750000 0.250000 0.922650
O O9 0.629217 0.215278 0.921548
O O10 0.697874 0.197874 0.770752
O O11 0.799462 0.457772 0.060348
O O12 0.605522 0.105522 0.129900
O O13 0.698235 0.082360 0.246277
O O14 0.584125 0.084125 0.699363
O O15 0.697856 0.026139 0.702411
O O16 0.721298 0.368279 0.381891
O O17 0.250000 0.750000 0.385227
#
# Coordination Sequence:
#
# PCOD8313410 Si02
#       8
#    16  16   8   8  16  16  16   8
#     4   8  16  30  46  61  77 109 150 198 233 260
#     4   9  17  29  45  60  81 110 154 197 230 263
#     4  11  18  24  38  61  84 113 154 191 228 271
#     4  12  17  26  42  64  88 112 150 199 236 278
#     4  10  19  30  45  65  87 113 150 195 238 274
#     4  10  18  29  43  59  83 114 155 188 226 268
#     4  11  19  28  39  62  88 119 149 187 232 284
#     4  11  20  28  38  55  89 131 155 183 231 284
#
# _framework density 16.863077000000001
#
# number of rings (size 3 to 8) (size 9 to 14) (size 15 to 20)
#    0.000    2.000    3.846    3.231    0.000    1.846 
#    0.000    0.000    0.000    0.923    0.000    4.308 
#    0.000    9.846    0.000   24.615    0.000    6.154 
#
# Total GULP energy -1288789.193582 kJ/mol
# GULP energy per Si atom -12392.203784 kJ/mol
# Density = 1.682470 g / cm^3
# Si number density = 16.863077 Si / 1000 Ang^3
#
#
#
# Elastic Constant Matrix: (Units=GPa)
#
#
# Indices 1 2 3 4 5 6 
#
# 1 68.3757 44.6551 14.6332 0.0000 0.0000 0.0000
# 2 44.6551 68.3757 14.6332 0.0000 0.0000 0.0000
# 3 14.6332 14.6332 41.6972 0.0000 0.0000 0.0000
# 4 0.0000 0.0000 0.0000 18.7098 0.0000 0.0000
# 5 0.0000 0.0000 0.0000 0.0000 18.7098 0.0000
# 6 0.0000 0.0000 0.0000 0.0000 0.0000 24.4283
#
#
#
# Elastic Compliance Matrix: (Units=1/GPa)
#
#
# Indices 1 2 3 4 5 6 
#
# 1 0.025944 -0.016213 -0.003415 0.000000 0.000000 0.000000
# 2 -0.016213 0.025944 -0.003415 0.000000 0.000000 0.000000
# 3 -0.003415 -0.003415 0.026379 0.000000 0.000000 0.000000
# 4 0.000000 0.000000 0.000000 0.053448 0.000000 0.000000
# 5 0.000000 0.000000 0.000000 0.000000 0.053448 0.000000
# 6 0.000000 0.000000 0.000000 0.000000 0.000000 0.040936
#
#
# Mechanical properties :
#
#
# Convention : Reuss Voigt Hill
#
# Bulk Modulus (GPa) = 31.07352 36.25460 33.66406
# Shear Modulus (GPa) = 17.67323 19.33807 18.50565
#
# Velocity S-wave (km/s) = 3.24086 3.39007 3.31631
# Velocity P-wave (km/s) = 5.69835 6.07203 5.88816
#
# Compressibility (1/GPa) = 0.03218174
#
# Stress axis : x y z
#
# Youngs Moduli (GPa) = 38.54398 38.54398 37.90828
#
# Poissons Ratio (x) = 0.62491 0.12946
# Poissons Ratio (y) = 0.62491 0.12946
# Poissons Ratio (z) = 0.13163 0.13163
#
# Static dielectric constant tensor:
#      x y z
#    x 3.284480 0.000000 0.000000 
#    y 0.000000 3.284480 0.000000 
#    z 0.000000 0.000000 3.080430 
# 
# 
# High freq. dielectric constant tensor:
#      x y z
#    x 1.618220 0.000000 0.000000 
#    y 0.000000 1.618220 0.000000 
#    z 0.000000 0.000000 1.642720 
# 
# From -- ./inp_files/5107.got.cif
#   From: 2010.03.12/outbox.cif.g09.slc.cpg/sg125_3_cif.got.tgz:5107.got - 2010.04.06 16:47:52.
