data_PCOD8313424
_publ_section_title
;
Structure prediction by ZEFSAII (Michael W. Deem and Ramdas Pophale) SiO2 
 PCOD8313424
Probable space group: P 4/N B M
;
_chemical_formula_sum "Si O2"
_cell_formula_units_Z 128
_cell_length_a 19.072638
_cell_length_b 19.072638
_cell_length_c 20.546484
_cell_angle_alpha 90.000000
_cell_angle_beta 90.000000
_cell_angle_gamma 90.000000
_cell_volume 7474.102442
_symmetry_space_group_name_H-M "P 4/N B M"
_symmetry_group_IT_number 125
_space_group.IT_coordinate_system_code '2'
_symmetry_cell_setting 'tetragonal'
loop_
_space_group_symop_operation_xyz
x,y,z
1/2-y,x,z
1/2-x,1/2-y,z
y,1/2-x,z
x,1/2-y,-z
1/2-x,y,-z
y,x,-z
1/2-y,1/2-x,-z
-x,-y,-z
1/2+y,-x,-z
1/2+x,1/2+y,-z
-y,1/2+x,-z
-x,1/2+y,z
1/2+x,-y,z
-y,-x,z
1/2+y,1/2+x,z
loop_
_atom_site_type_symbol
_atom_site_label
_atom_site_fract_x
_atom_site_fract_y
_atom_site_fract_z
Si Si1 0.172005 0.055569 1.000000
Si Si2 0.553503 0.169808 0.258807
Si Si3 0.830193 0.446498 0.741193
Si Si4 0.001519 0.114077 0.128112
Si Si5 0.052909 0.169465 0.370601
Si Si6 0.052908 0.169465 0.629400
Si Si7 0.614079 0.501518 0.871889
Si Si8 0.003242 0.614119 0.500000
O O1 0.161054 0.008265 0.936177
O O2 0.250000 0.085924 0.000000
O O3 0.120804 0.120804 0.000000
O O4 0.161055 0.008263 0.063822
O O5 0.622139 0.122139 0.265173
O O6 0.576357 0.250000 0.270513
O O7 0.496688 0.145091 0.311702
O O8 0.517824 0.163284 0.188411
O O9 0.877862 0.377862 0.734828
O O10 0.836718 0.482179 0.811588
O O11 0.854910 0.503311 0.688297
O O12 0.941058 0.058943 0.113574
O O13 0.073969 0.073967 0.144133
O O14 0.076532 0.250000 0.362553
O O15 0.122745 0.122744 0.371216
O O16 0.008221 0.161530 0.436535
O O17 0.008220 0.161530 0.563467
O O18 0.558945 0.441056 0.886427
O O19 0.948808 0.551193 0.500000
O O20 0.081823 0.581823 0.500000
#
# Coordination Sequence:
#
# PCOD8313424 Si02
#       8
#    16  16  16  16  16  16  16  16
#     4  10  19  30  45  65  92 124 155 189 228 273
#     4  10  20  33  50  72  97 126 160 198 241 289
#     4  10  20  33  50  72  97 126 160 198 241 289
#     4   9  17  30  49  71  92 116 151 195 240 283
#     4  10  20  33  50  73 100 130 165 203 244 290
#     4  10  20  33  50  73 100 130 165 203 244 290
#     4   9  17  30  49  71  92 116 151 195 240 283
#     4   9  17  30  49  71  95 125 161 199 236 275
#
# _framework density 17.125803000000001
#
# number of rings (size 3 to 8) (size 9 to 14) (size 15 to 20)
#    0.000    2.375    0.000    3.000    0.000    4.625 
#    0.000    0.000    0.000    2.250    0.000    3.500 
#    0.000   18.000    0.000    0.000    0.000    0.000 
#
# Total GULP energy -1587378.493890 kJ/mol
# GULP energy per Si atom -12401.394484 kJ/mol
# Density = 1.708682 g / cm^3
# Si number density = 17.125803 Si / 1000 Ang^3
#
#
#
# Elastic Constant Matrix: (Units=GPa)
#
#
# Indices 1 2 3 4 5 6 
#
# 1 77.8244 37.7478 44.7364 0.0000 0.0000 0.0000
# 2 37.7478 77.8245 44.7364 0.0000 0.0000 0.0000
# 3 44.7364 44.7364 133.4782 0.0000 0.0000 0.0000
# 4 0.0000 0.0000 0.0000 24.5146 0.0000 0.0000
# 5 0.0000 0.0000 0.0000 0.0000 24.5144 0.0000
# 6 0.0000 0.0000 0.0000 0.0000 0.0000 17.6289
#
#
#
# Elastic Compliance Matrix: (Units=1/GPa)
#
#
# Indices 1 2 3 4 5 6 
#
# 1 0.018318 -0.006634 -0.003916 0.000000 0.000000 0.000000
# 2 -0.006634 0.018318 -0.003916 0.000000 0.000000 0.000000
# 3 -0.003916 -0.003916 0.010117 0.000000 0.000000 0.000000
# 4 0.000000 0.000000 0.000000 0.040792 0.000000 0.000000
# 5 0.000000 0.000000 0.000000 0.000000 0.040792 0.000000
# 6 0.000000 0.000000 0.000000 0.000000 0.000000 0.056725
#
#
# Mechanical properties :
#
#
# Convention : Reuss Voigt Hill
#
# Bulk Modulus (GPa) = 56.11315 60.39647 58.25481
# Shear Modulus (GPa) = 22.73393 24.12534 23.42964
#
# Velocity S-wave (km/s) = 3.64739 3.75735 3.70278
# Velocity P-wave (km/s) = 7.11157 7.35979 7.23674
#
# Compressibility (1/GPa) = 0.01782113
#
# Stress axis : x y z
#
# Youngs Moduli (GPa) = 54.59029 54.59040 98.84460
#
# Poissons Ratio (x) = 0.36215 0.38709
# Poissons Ratio (y) = 0.36215 0.38709
# Poissons Ratio (z) = 0.21378 0.21378
#
# Static dielectric constant tensor:
#      x y z
#    x 3.029400 0.000000 0.000000 
#    y 0.000000 3.029400 0.000000 
#    z 0.000000 0.000000 3.419150 
# 
# 
# High freq. dielectric constant tensor:
#      x y z
#    x 1.649870 0.000000 0.000000 
#    y 0.000000 1.649870 0.000000 
#    z 0.000000 0.000000 1.680120 
# 
# From -- ./inp_files/5638.got.cif
#   From: 2010.03.12/outbox.cif.g09.slc.cpg/sg125_3_cif.got.tgz:5638.got - 2010.04.06 16:47:52.
