data_PCOD8313498
_publ_section_title
;
Structure prediction by ZEFSAII (Michael W. Deem and Ramdas Pophale) SiO2 
 PCOD8313498
Probable space group: P 4/N B M
;
_chemical_formula_sum "Si O2"
_cell_formula_units_Z 128
_cell_length_a 23.491040
_cell_length_b 23.491040
_cell_length_c 12.282088
_cell_angle_alpha 90.000000
_cell_angle_beta 90.000000
_cell_angle_gamma 90.000000
_cell_volume 6777.611851
_symmetry_space_group_name_H-M "P 4/N B M"
_symmetry_group_IT_number 125
_space_group.IT_coordinate_system_code '2'
_symmetry_cell_setting 'tetragonal'
loop_
_space_group_symop_operation_xyz
x,y,z
1/2-y,x,z
1/2-x,1/2-y,z
y,1/2-x,z
x,1/2-y,-z
1/2-x,y,-z
y,x,-z
1/2-y,1/2-x,-z
-x,-y,-z
1/2+y,-x,-z
1/2+x,1/2+y,-z
-y,1/2+x,-z
-x,1/2+y,z
1/2+x,-y,z
-y,-x,z
1/2+y,1/2+x,z
loop_
_atom_site_type_symbol
_atom_site_label
_atom_site_fract_x
_atom_site_fract_y
_atom_site_fract_z
Si Si1 0.395196 0.400594 0.198790
Si Si2 0.195627 0.894900 0.264302
Si Si3 0.812357 0.996733 0.876950
Si Si4 0.939313 0.348506 0.478526
Si Si5 0.314300 0.183547 0.875750
Si Si6 0.478365 0.069617 0.389835
Si Si7 0.179406 0.584840 0.289812
Si Si8 0.490260 0.182400 0.877950
O O1 0.363168 0.451610 0.137056
O O2 0.346366 0.353118 0.216832
O O3 0.423886 0.425279 0.307599
O O4 0.440636 0.364792 0.127437
O O5 0.160748 0.839253 0.225513
O O6 0.188303 0.903577 0.393401
O O7 0.262562 0.886268 0.246833
O O8 0.172997 0.949205 0.197659
O O9 0.748440 0.972246 0.849046
O O10 0.815964 0.016509 0.001725
O O11 0.907538 0.407538 0.507008
O O12 0.945942 0.313714 0.591568
O O13 0.998151 0.367280 0.419896
O O14 0.329201 0.248658 0.857456
O O15 0.332798 0.167203 0.000000
O O16 0.456373 0.043628 0.500000
O O17 0.527602 0.027602 0.340053
O O18 0.134128 0.634128 0.297177
O O19 0.159736 0.537800 0.204472
#
# Coordination Sequence:
#
# PCOD8313498 Si02
#       8
#    16  16  16  16  16  16  16  16
#     4  12  20  32  58  84 107 141 189 230 271 323
#     4  10  20  36  58  82 109 142 180 223 273 329
#     4  10  21  37  54  79 114 150 180 224 275 327
#     4   9  17  34  55  77 106 139 176 220 273 322
#     4   9  18  33  55  83 114 147 181 221 269 319
#     4  10  21  36  54  77 108 144 185 230 274 326
#     4  10  21  37  58  82 109 142 178 224 278 328
#     4  10  22  36  53  80 115 147 182 224 276 323
#
# _framework density 18.885708000000001
#
# number of rings (size 3 to 8) (size 9 to 14) (size 15 to 20)
#    0.000    2.000    1.250    3.375    0.000    4.250 
#    0.000    0.000    0.000    6.375    0.000    4.375 
#    0.000    0.000    0.000    0.000    0.000    0.000 
#
# Total GULP energy -1585988.325300 kJ/mol
# GULP energy per Si atom -12390.533791 kJ/mol
# Density = 1.884272 g / cm^3
# Si number density = 18.885708 Si / 1000 Ang^3
#
#
#
# Elastic Constant Matrix: (Units=GPa)
#
#
# Indices 1 2 3 4 5 6 
#
# 1 86.3222 49.8264 41.4361 0.0000 0.0000 0.0000
# 2 49.8264 86.3227 41.4361 0.0000 0.0000 0.0000
# 3 41.4361 41.4361 92.8897 0.0000 0.0000 0.0000
# 4 0.0000 0.0000 0.0000 26.5779 0.0000 0.0000
# 5 0.0000 0.0000 0.0000 0.0000 26.5783 0.0000
# 6 0.0000 0.0000 0.0000 0.0000 0.0000 35.9586
#
#
#
# Elastic Compliance Matrix: (Units=1/GPa)
#
#
# Indices 1 2 3 4 5 6 
#
# 1 0.018741 -0.008659 -0.004498 0.000000 0.000000 0.000000
# 2 -0.008659 0.018741 -0.004498 0.000000 0.000000 0.000000
# 3 -0.004498 -0.004498 0.014778 0.000000 0.000000 0.000000
# 4 0.000000 0.000000 0.000000 0.037625 0.000000 0.000000
# 5 0.000000 0.000000 0.000000 0.000000 0.037625 0.000000
# 6 0.000000 0.000000 0.000000 0.000000 0.000000 0.027810
#
#
# Mechanical properties :
#
#
# Convention : Reuss Voigt Hill
#
# Bulk Modulus (GPa) = 58.98769 58.99242 58.99005
# Shear Modulus (GPa) = 25.47387 26.67868 26.07628
#
# Velocity S-wave (km/s) = 3.67665 3.76259 3.71986
# Velocity P-wave (km/s) = 7.02321 7.08381 7.05358
#
# Compressibility (1/GPa) = 0.01695269
#
# Stress axis : x y z
#
# Youngs Moduli (GPa) = 53.35765 53.35797 67.66801
#
# Poissons Ratio (x) = 0.46202 0.30435
# Poissons Ratio (y) = 0.46202 0.30434
# Poissons Ratio (z) = 0.23998 0.23998
#
# Static dielectric constant tensor:
#      x y z
#    x 3.529690 0.000000 0.000000 
#    y 0.000000 3.529700 0.000000 
#    z 0.000000 0.000000 3.313080 
# 
# 
# High freq. dielectric constant tensor:
#      x y z
#    x 1.731400 0.000000 0.000000 
#    y 0.000000 1.731400 0.000000 
#    z 0.000000 0.000000 1.720160 
# 
# From -- ./inp_files/4366.got.cif
#   From: 2010.03.12/outbox.cif.g09.slc.cpg/sg125_3_cif.got.tgz:4366.got - 2010.04.06 16:47:52.
