data_PCOD8313621
_publ_section_title
;
Structure prediction by ZEFSAII (Michael W. Deem and Ramdas Pophale) SiO2 
 PCOD8313621
Probable space group: P 4/N B M
;
_chemical_formula_sum "Si O2"
_cell_formula_units_Z 96
_cell_length_a 15.127534
_cell_length_b 15.127534
_cell_length_c 22.039440
_cell_angle_alpha 90.000000
_cell_angle_beta 90.000000
_cell_angle_gamma 90.000000
_cell_volume 5043.555808
_symmetry_space_group_name_H-M "P 4/N B M"
_symmetry_group_IT_number 125
_space_group.IT_coordinate_system_code '2'
_symmetry_cell_setting 'tetragonal'
loop_
_space_group_symop_operation_xyz
x,y,z
1/2-y,x,z
1/2-x,1/2-y,z
y,1/2-x,z
x,1/2-y,-z
1/2-x,y,-z
y,x,-z
1/2-y,1/2-x,-z
-x,-y,-z
1/2+y,-x,-z
1/2+x,1/2+y,-z
-y,1/2+x,-z
-x,1/2+y,z
1/2+x,-y,z
-y,-x,z
1/2+y,1/2+x,z
loop_
_atom_site_type_symbol
_atom_site_label
_atom_site_fract_x
_atom_site_fract_y
_atom_site_fract_z
Si Si1 0.823205 0.176795 0.138947
Si Si2 0.895457 0.751700 0.432487
Si Si3 0.991589 0.761602 0.687796
Si Si4 0.823455 0.323455 0.725811
Si Si5 0.995417 0.268416 0.930455
Si Si6 0.439982 0.415786 0.886288
Si Si7 0.935454 0.920150 0.255620
O O1 0.750000 0.250000 0.145462
O O2 0.853401 0.146600 0.206383
O O3 0.904678 0.217632 0.104105
O O4 0.835634 0.837630 0.423402
O O5 0.937647 0.750000 0.500000
O O6 0.972192 0.755900 0.382844
O O7 0.974111 0.675478 0.728298
O O8 0.931423 0.841674 0.711739
O O9 0.093861 0.785242 0.690082
O O10 0.750000 0.250000 0.729537
O O11 0.055304 0.355374 0.925320
O O12 0.044270 0.186063 0.900497
O O13 0.973675 0.250000 0.000000
O O14 0.524485 0.475515 0.904997
O O15 0.419070 0.427030 0.815788
O O16 0.004214 0.995787 0.277161
#
# Coordination Sequence:
#
# PCOD8313621 Si02
#       7
#     8  16  16   8  16  16  16
#     4  11  24  42  65  93 118 155 220 274 307 356
#     4   9  18  35  59  92 128 159 196 250 304 356
#     4  12  21  37  66  94 126 161 213 258 313 367
#     4  11  24  42  62  86 128 171 205 255 323 380
#     4  12  26  41  65  89 122 164 206 254 319 386
#     4  11  24  44  63  89 126 162 203 258 321 376
#     4  11  23  38  62  93 126 161 207 261 314 377
#
# _framework density 19.034191
#
# number of rings (size 3 to 8) (size 9 to 14) (size 15 to 20)
#    0.000    1.000    3.333    5.000    2.333    4.000 
#    0.000    2.500    3.667    2.000    0.000    0.000 
#    0.000    0.000    0.000    0.000    0.000    0.000 
#
# Total GULP energy -1190888.224408 kJ/mol
# GULP energy per Si atom -12405.085671 kJ/mol
# Density = 1.899087 g / cm^3
# Si number density = 19.034191 Si / 1000 Ang^3
#
#
#
# Elastic Constant Matrix: (Units=GPa)
#
#
# Indices 1 2 3 4 5 6 
#
# 1 103.8425 21.5932 39.7977 0.0000 0.0000 0.0000
# 2 21.5932 103.8425 39.7977 0.0000 0.0000 0.0000
# 3 39.7977 39.7977 128.1560 0.0000 0.0000 0.0000
# 4 0.0000 0.0000 0.0000 26.4024 0.0000 0.0000
# 5 0.0000 0.0000 0.0000 0.0000 26.4024 0.0000
# 6 0.0000 0.0000 0.0000 0.0000 0.0000 36.3075
#
#
#
# Elastic Compliance Matrix: (Units=1/GPa)
#
#
# Indices 1 2 3 4 5 6 
#
# 1 0.011043 -0.001115 -0.003083 0.000000 0.000000 0.000000
# 2 -0.001115 0.011043 -0.003083 0.000000 0.000000 0.000000
# 3 -0.003083 -0.003083 0.009718 0.000000 0.000000 0.000000
# 4 0.000000 0.000000 0.000000 0.037875 0.000000 0.000000
# 5 0.000000 0.000000 0.000000 0.000000 0.037875 0.000000
# 6 0.000000 0.000000 0.000000 0.000000 0.000000 0.027543
#
#
# Mechanical properties :
#
#
# Convention : Reuss Voigt Hill
#
# Bulk Modulus (GPa) = 57.99697 59.80202 58.89949
# Shear Modulus (GPa) = 32.17338 33.46595 32.81966
#
# Velocity S-wave (km/s) = 4.11578 4.19764 4.15691
# Velocity P-wave (km/s) = 7.28850 7.41485 7.35195
#
# Compressibility (1/GPa) = 0.01724228
#
# Stress axis : x y z
#
# Youngs Moduli (GPa) = 90.55158 90.55158 102.90232
#
# Poissons Ratio (x) = 0.10094 0.31728
# Poissons Ratio (y) = 0.10094 0.31728
# Poissons Ratio (z) = 0.27919 0.27919
#
# Static dielectric constant tensor:
#      x y z
#    x 3.607450 0.000000 0.000000 
#    y 0.000000 3.607450 0.000000 
#    z 0.000000 0.000000 3.592730 
# 
# 
# High freq. dielectric constant tensor:
#      x y z
#    x 1.744740 0.000000 0.000000 
#    y 0.000000 1.744740 0.000000 
#    z 0.000000 0.000000 1.744340 
# 
# From -- ./inp_files/5953.got.cif
#   From: 2010.03.12/outbox.cif.g09.slc.cpg/sg125_3_cif.got.tgz:5953.got - 2010.04.06 16:47:52.
