data_PCOD8313619
_publ_section_title
;
Structure prediction by ZEFSAII (Michael W. Deem and Ramdas Pophale) SiO2 
 PCOD8313619
Probable space group: P 4/N B M
;
_chemical_formula_sum "Si O2"
_cell_formula_units_Z 72
_cell_length_a 21.123229
_cell_length_b 21.123229
_cell_length_c 7.681525
_cell_angle_alpha 90.000000
_cell_angle_beta 90.000000
_cell_angle_gamma 90.000000
_cell_volume 3427.425811
_symmetry_space_group_name_H-M "P 4/N B M"
_symmetry_group_IT_number 125
_space_group.IT_coordinate_system_code '2'
_symmetry_cell_setting 'tetragonal'
loop_
_space_group_symop_operation_xyz
x,y,z
1/2-y,x,z
1/2-x,1/2-y,z
y,1/2-x,z
x,1/2-y,-z
1/2-x,y,-z
y,x,-z
1/2-y,1/2-x,-z
-x,-y,-z
1/2+y,-x,-z
1/2+x,1/2+y,-z
-y,1/2+x,-z
-x,1/2+y,z
1/2+x,-y,z
-y,-x,z
1/2+y,1/2+x,z
loop_
_atom_site_type_symbol
_atom_site_label
_atom_site_fract_x
_atom_site_fract_y
_atom_site_fract_z
Si Si1 0.080538 0.080538 0.000000
Si Si2 0.930954 0.784398 0.833820
Si Si3 0.942442 0.057559 0.962805
Si Si4 0.627650 0.127650 0.318259
Si Si5 0.244390 0.577510 0.195711
Si Si6 0.853839 0.750000 0.500000
Si Si7 0.892412 0.107589 0.307997
O O1 0.139604 0.078729 0.864392
O O2 0.012827 0.078019 0.899655
O O3 0.896228 0.756203 0.668868
O O4 0.001519 0.758236 0.810470
O O5 0.899998 0.750000 0.000000
O O6 0.895880 0.104121 0.868418
O O7 0.934329 0.065672 0.173685
O O8 0.608752 0.201489 0.316652
O O9 0.594000 0.094000 0.486118
O O10 0.180879 0.598169 0.284389
O O11 0.250000 0.604233 0.000000
O O12 0.812645 0.812645 0.500000
#
# Coordination Sequence:
#
# PCOD8313619 Si02
#       7
#     8  16   8   8  16   8   8
#     4  11  22  42  72  99 134 186 226 287 350 419
#     4  11  23  42  69  96 130 177 227 277 343 414
#     4  11  22  44  64  98 144 171 229 289 349 410
#     4  12  25  40  66 101 132 187 234 277 342 413
#     4  11  22  43  67  94 137 181 226 283 335 396
#     4  11  26  44  64  94 132 167 218 288 346 419
#     4  12  23  42  66 100 138 179 225 291 337 407
#
# _framework density 21.007020000000001
#
# number of rings (size 3 to 8) (size 9 to 14) (size 15 to 20)
#    0.000    0.778    4.444    3.333    3.111    0.444 
#    0.000    5.556    0.000    0.000    0.000    0.000 
#    0.000    0.000    0.000    0.000    0.000    0.000 
#
# Total GULP energy -891943.232908 kJ/mol
# GULP energy per Si atom -12388.100457 kJ/mol
# Density = 2.095921 g / cm^3
# Si number density = 21.007020 Si / 1000 Ang^3
#
#
#
# Elastic Constant Matrix: (Units=GPa)
#
#
# Indices 1 2 3 4 5 6 
#
# 1 111.8320 45.0881 44.6983 0.0000 0.0000 0.0000
# 2 45.0881 111.8320 44.6983 0.0000 0.0000 0.0000
# 3 44.6983 44.6983 141.1414 0.0000 0.0000 0.0000
# 4 0.0000 0.0000 0.0000 29.7532 0.0000 0.0000
# 5 0.0000 0.0000 0.0000 0.0000 29.7532 0.0000
# 6 0.0000 0.0000 0.0000 0.0000 0.0000 35.9569
#
#
#
# Elastic Compliance Matrix: (Units=1/GPa)
#
#
# Indices 1 2 3 4 5 6 
#
# 1 0.011379 -0.003604 -0.002462 0.000000 0.000000 0.000000
# 2 -0.003604 0.011379 -0.002462 0.000000 0.000000 0.000000
# 3 -0.002462 -0.002462 0.008645 0.000000 0.000000 0.000000
# 4 0.000000 0.000000 0.000000 0.033610 0.000000 0.000000
# 5 0.000000 0.000000 0.000000 0.000000 0.033610 0.000000
# 6 0.000000 0.000000 0.000000 0.000000 0.000000 0.027811
#
#
# Mechanical properties :
#
#
# Convention : Reuss Voigt Hill
#
# Bulk Modulus (GPa) = 69.70572 70.41942 70.06257
# Shear Modulus (GPa) = 33.72167 34.44736 34.08452
#
# Velocity S-wave (km/s) = 4.01091 4.05384 4.03243
# Velocity P-wave (km/s) = 7.39622 7.45024 7.42328
#
# Compressibility (1/GPa) = 0.01434602
#
# Stress axis : x y z
#
# Youngs Moduli (GPa) = 87.88064 87.88064 115.67703
#
# Poissons Ratio (x) = 0.31668 0.28485
# Poissons Ratio (y) = 0.31668 0.28485
# Poissons Ratio (z) = 0.21640 0.21640
#
# Static dielectric constant tensor:
#      x y z
#    x 3.936450 0.000000 0.000000 
#    y 0.000000 3.936450 0.000000 
#    z 0.000000 0.000000 3.822350 
# 
# 
# High freq. dielectric constant tensor:
#      x y z
#    x 1.830510 0.000000 0.000000 
#    y 0.000000 1.830510 0.000000 
#    z 0.000000 0.000000 1.818150 
# 
# From -- ./inp_files/2643.got.cif
#   From: 2010.03.12/outbox.cif.g09.slc.cpg/sg125_2_cif.got.tgz:2643.got - 2010.04.06 16:47:52.
