data_PCOD8313279
_publ_section_title
;
Structure prediction by ZEFSAII (Michael W. Deem and Ramdas Pophale) SiO2 
 PCOD8313279
Probable space group: P 4/M C C
;
_chemical_formula_sum "Si O2"
_cell_formula_units_Z 96
_cell_length_a 15.798974
_cell_length_b 15.798974
_cell_length_c 20.189666
_cell_angle_alpha 90.000000
_cell_angle_beta 90.000000
_cell_angle_gamma 90.000000
_cell_volume 5039.493660
_symmetry_space_group_name_H-M "P 4/M C C"
_symmetry_group_IT_number 124
_symmetry_cell_setting 'tetragonal'
loop_
_space_group_symop_operation_xyz
x,y,z
-y,x,z
-x,-y,z
y,-x,z
x,-y,1/2-z
-x,y,1/2-z
y,x,1/2-z
-y,-x,1/2-z
-x,-y,-z
y,-x,-z
x,y,-z
-y,x,-z
-x,y,1/2+z
x,-y,1/2+z
-y,-x,1/2+z
y,x,1/2+z
loop_
_atom_site_type_symbol
_atom_site_label
_atom_site_fract_x
_atom_site_fract_y
_atom_site_fract_z
Si Si1 0.403444 0.729917 0.749542
Si Si2 0.980029 0.136848 0.428529
Si Si3 0.256945 0.594028 0.500000
Si Si4 0.277381 0.002595 0.329884
Si Si5 0.812672 0.687419 0.371134
Si Si6 0.737413 0.392353 0.000000
Si Si7 0.179381 0.669048 0.371493
O O1 0.500000 0.708581 0.750000
O O2 0.360846 0.639155 0.750000
O O3 0.372082 0.784531 0.688258
O O4 0.386383 0.779683 0.815571
O O5 0.972520 0.186899 0.500000
O O6 0.970147 0.188744 0.361464
O O7 0.070723 0.094722 0.426953
O O8 0.276960 0.493670 0.500000
O O9 0.346205 0.645392 0.500000
O O10 0.198672 0.620613 0.438860
O O11 0.336226 0.079073 0.355760
O O12 0.272790 0.000000 0.250000
O O13 0.302075 0.913291 0.362494
O O14 0.792712 0.636559 0.437591
O O15 0.763946 0.778588 0.370792
#
# Coordination Sequence:
#
# PCOD8313279 Si02
#       7
#    16  16   8  16  16   8  16
#     4  10  20  38  61  85 118 152 190 244 305 366
#     4   9  20  36  54  81 115 149 195 261 318 355
#     4  10  22  42  67  93 122 154 192 244 307 370
#     4  12  23  37  58  85 117 165 216 247 287 352
#     4  10  22  39  59  88 123 158 198 251 303 347
#     4  10  22  42  67  93 122 154 192 244 307 370
#     4  10  22  39  59  88 123 158 198 251 303 347
#
# _framework density 19.049533
#
# number of rings (size 3 to 8) (size 9 to 14) (size 15 to 20)
#    0.000    1.833    1.667    2.500    2.333    2.333 
#    0.000    5.833    0.000    6.000    0.000    0.000 
#    0.000    0.000    0.000    0.000    0.000    0.000 
#
# Total GULP energy -1189486.533230 kJ/mol
# GULP energy per Si atom -12390.484721 kJ/mol
# Density = 1.900618 g / cm^3
# Si number density = 19.049533 Si / 1000 Ang^3
#
#
#
# Elastic Constant Matrix: (Units=GPa)
#
#
# Indices 1 2 3 4 5 6 
#
# 1 110.4211 11.1939 35.6103 0.0000 0.0000 0.0000
# 2 11.1939 110.4216 35.6110 0.0000 0.0000 0.0000
# 3 35.6103 35.6110 153.2294 0.0000 0.0000 0.0000
# 4 0.0000 0.0000 0.0000 33.4299 0.0000 0.0000
# 5 0.0000 0.0000 0.0000 0.0000 33.4302 0.0000
# 6 0.0000 0.0000 0.0000 0.0000 0.0000 13.0883
#
#
#
# Elastic Compliance Matrix: (Units=1/GPa)
#
#
# Indices 1 2 3 4 5 6 
#
# 1 0.009798 -0.000280 -0.002212 0.000000 0.000000 0.000000
# 2 -0.000280 0.009798 -0.002212 0.000000 0.000000 0.000000
# 3 -0.002212 -0.002212 0.007554 0.000000 0.000000 0.000000
# 4 0.000000 0.000000 0.000000 0.029913 0.000000 0.000000
# 5 0.000000 0.000000 0.000000 0.000000 0.029913 0.000000
# 6 0.000000 0.000000 0.000000 0.000000 0.000000 0.076404
#
#
# Mechanical properties :
#
#
# Convention : Reuss Voigt Hill
#
# Bulk Modulus (GPa) = 56.36214 59.87807 58.12010
# Shear Modulus (GPa) = 27.97940 35.43346 31.70643
#
# Velocity S-wave (km/s) = 3.83661 4.31753 4.08416
# Velocity P-wave (km/s) = 7.01979 7.50705 7.26751
#
# Compressibility (1/GPa) = 0.01774241
#
# Stress axis : x y z
#
# Youngs Moduli (GPa) = 102.06195 102.06217 132.37480
#
# Poissons Ratio (x) = 0.02857 0.29281
# Poissons Ratio (y) = 0.02857 0.29282
# Poissons Ratio (z) = 0.22576 0.22576
#
# Static dielectric constant tensor:
#      x y z
#    x 3.457190 0.000000 0.000000 
#    y 0.000000 3.457190 0.000000 
#    z 0.000000 0.000000 3.851330 
# 
# 
# High freq. dielectric constant tensor:
#      x y z
#    x 1.733260 0.000000 0.000000 
#    y 0.000000 1.733260 0.000000 
#    z 0.000000 0.000000 1.765510 
# 
# From -- ./inp_files/5383.got.cif
#   From: 2010.03.12/outbox.cif.g09.slc.cpg/sg124_3_cif.got.tgz:5383.got - 2010.04.06 16:38:57.
