data_PCOD8313126
_publ_section_title
;
Structure prediction by ZEFSAII (Michael W. Deem and Ramdas Pophale) SiO2 
 PCOD8313126
Probable space group: P 4/M C C
;
_chemical_formula_sum "Si O2"
_cell_formula_units_Z 88
_cell_length_a 15.768990
_cell_length_b 15.768990
_cell_length_c 21.854836
_cell_angle_alpha 90.000000
_cell_angle_beta 90.000000
_cell_angle_gamma 90.000000
_cell_volume 5434.446372
_symmetry_space_group_name_H-M "P 4/M C C"
_symmetry_group_IT_number 124
_symmetry_cell_setting 'tetragonal'
loop_
_space_group_symop_operation_xyz
x,y,z
-y,x,z
-x,-y,z
y,-x,z
x,-y,1/2-z
-x,y,1/2-z
y,x,1/2-z
-y,-x,1/2-z
-x,-y,-z
y,-x,-z
x,y,-z
-y,x,-z
-x,y,1/2+z
x,-y,1/2+z
-y,-x,1/2+z
y,x,1/2+z
loop_
_atom_site_type_symbol
_atom_site_label
_atom_site_fract_x
_atom_site_fract_y
_atom_site_fract_z
Si Si1 0.285169 0.843703 0.928644
Si Si2 0.649159 0.673061 0.623460
Si Si3 0.116410 0.066142 0.572670
Si Si4 0.515710 0.263691 0.428894
Si Si5 0.600373 0.600373 0.750000
Si Si6 0.462073 0.915535 0.070556
O O1 0.305984 0.763529 0.885986
O O2 0.199488 0.886011 0.902399
O O3 0.360331 0.912521 0.921612
O O4 0.277016 0.815833 0.000000
O O5 0.551953 0.673066 0.601516
O O6 0.702875 0.609070 0.582219
O O7 0.648614 0.643058 0.693259
O O8 0.119485 0.065531 0.500000
O O9 0.031598 0.114420 0.595778
O O10 0.493387 0.260435 0.500000
O O11 0.504497 0.169075 0.400586
O O12 0.500000 0.618576 0.750000
O O13 0.500000 0.000000 0.103165
O O14 0.488815 0.918487 0.000000
#
# Coordination Sequence:
#
# PCOD8313126 Si02
#       6
#    16  16  16  16   8  16
#     4   9  17  28  44  70 100 125 159 200 236 286
#     4  11  20  33  47  67  92 123 159 199 236 275
#     4   8  14  25  42  68 104 138 160 187 236 295
#     4  10  19  30  46  70  98 122 149 190 240 286
#     4  11  22  38  52  66  86 123 170 208 232 287
#     4   8  15  27  41  61  93 129 156 181 223 281
#
# _framework density 16.193002
#
# number of rings (size 3 to 8) (size 9 to 14) (size 15 to 20)
#    0.000    2.636    1.818    3.273    0.000    1.818 
#    0.000    6.364    0.000    0.000    0.000   16.545 
#    0.000    1.455    0.000    0.000    0.000    0.000 
#
# Total GULP energy -1090769.044222 kJ/mol
# GULP energy per Si atom -12395.102775 kJ/mol
# Density = 1.615615 g / cm^3
# Si number density = 16.193002 Si / 1000 Ang^3
#
#
#
# Elastic Constant Matrix: (Units=GPa)
#
#
# Indices 1 2 3 4 5 6 
#
# 1 109.5951 66.2983 23.1824 0.0000 0.0000 0.0000
# 2 66.2983 109.5951 23.1824 0.0000 0.0000 0.0000
# 3 23.1824 23.1824 47.5954 0.0000 0.0000 0.0000
# 4 0.0000 0.0000 0.0000 10.0799 0.0000 0.0000
# 5 0.0000 0.0000 0.0000 0.0000 10.0799 0.0000
# 6 0.0000 0.0000 0.0000 0.0000 0.0000 31.8347
#
#
#
# Elastic Compliance Matrix: (Units=1/GPa)
#
#
# Indices 1 2 3 4 5 6 
#
# 1 0.014810 -0.008287 -0.003177 0.000000 0.000000 0.000000
# 2 -0.008287 0.014810 -0.003177 0.000000 0.000000 0.000000
# 3 -0.003177 -0.003177 0.024105 0.000000 0.000000 0.000000
# 4 0.000000 0.000000 0.000000 0.099208 0.000000 0.000000
# 5 0.000000 0.000000 0.000000 0.000000 0.099208 0.000000
# 6 0.000000 0.000000 0.000000 0.000000 0.000000 0.031412
#
#
# Mechanical properties :
#
#
# Convention : Reuss Voigt Hill
#
# Bulk Modulus (GPa) = 40.91211 54.67907 47.79559
# Shear Modulus (GPa) = 15.57723 20.67372 18.12547
#
# Velocity S-wave (km/s) = 3.10493 3.57698 3.34928
# Velocity P-wave (km/s) = 6.17854 7.13443 6.67362
#
# Compressibility (1/GPa) = 0.02444264
#
# Stress axis : x y z
#
# Youngs Moduli (GPa) = 67.52394 67.52394 41.48458
#
# Poissons Ratio (x) = 0.55956 0.13180
# Poissons Ratio (y) = 0.55956 0.13180
# Poissons Ratio (z) = 0.21453 0.21453
#
# Static dielectric constant tensor:
#      x y z
#    x 3.240590 0.000000 0.000000 
#    y 0.000000 3.240590 0.000000 
#    z 0.000000 0.000000 2.581030 
# 
# 
# High freq. dielectric constant tensor:
#      x y z
#    x 1.628870 0.000000 0.000000 
#    y 0.000000 1.628870 0.000000 
#    z 0.000000 0.000000 1.562890 
# 
# From -- ./inp_files/5991.got.cif
#   From: 2010.03.12/outbox.cif.g09.slc.cpg/sg124_3_cif.got.tgz:5991.got - 2010.04.06 16:38:57.
