data_PCOD8313564
_publ_section_title
;
Structure prediction by ZEFSAII (Michael W. Deem and Ramdas Pophale) SiO2 
 PCOD8313564
Probable space group: P 4/N B M
;
_chemical_formula_sum "Si O2"
_cell_formula_units_Z 58
_cell_length_a 18.824682
_cell_length_b 18.824682
_cell_length_c 9.315803
_cell_angle_alpha 90.000000
_cell_angle_beta 90.000000
_cell_angle_gamma 90.000000
_cell_volume 3301.228555
_symmetry_space_group_name_H-M "P 4/N B M"
_symmetry_group_IT_number 125
_space_group.IT_coordinate_system_code '2'
_symmetry_cell_setting 'tetragonal'
loop_
_space_group_symop_operation_xyz
x,y,z
1/2-y,x,z
1/2-x,1/2-y,z
y,1/2-x,z
x,1/2-y,-z
1/2-x,y,-z
y,x,-z
1/2-y,1/2-x,-z
-x,-y,-z
1/2+y,-x,-z
1/2+x,1/2+y,-z
-y,1/2+x,-z
-x,1/2+y,z
1/2+x,-y,z
-y,-x,z
1/2+y,1/2+x,z
loop_
_atom_site_type_symbol
_atom_site_label
_atom_site_fract_x
_atom_site_fract_y
_atom_site_fract_z
Si Si1 0.750000 0.250000 0.000000
Si Si2 0.762514 0.465086 0.336314
Si Si3 0.694489 0.305512 0.724872
Si Si4 0.007550 0.623738 0.151180
Si Si5 0.509444 0.607172 0.176177
O O1 0.700130 0.299871 0.899623
O O2 0.750000 0.485500 0.500000
O O3 0.783758 0.383151 0.324408
O O4 0.694902 0.484645 0.241077
O O5 0.827872 0.513320 0.285555
O O6 0.750000 0.250000 0.654024
O O7 0.076901 0.576901 0.182314
O O8 0.937123 0.581329 0.198250
O O9 0.999808 0.639545 0.982723
O O10 0.442037 0.557964 0.211050
#
# Coordination Sequence:
#
# PCOD8313564 Si02
#       5
#     2  16   8  16  16
#     4   8  24  36  50  72 100 164 186 236 260 312
#     4  12  24  33  53  81 117 154 176 225 280 344
#     4  10  24  33  50  76 114 148 191 219 273 327
#     4   9  20  36  60  81 105 143 194 241 279 320
#     4   9  19  38  58  81 105 142 196 242 273 324
#
# _framework density 17.569216000000001
#
# number of rings (size 3 to 8) (size 9 to 14) (size 15 to 20)
#    0.414    1.655    1.379    3.310    7.724    1.103 
#    0.000    2.759    0.000    0.828    0.000    5.793 
#    0.000    0.000    0.000    0.000    0.000    0.000 
#
# Total GULP energy -719090.893368 kJ/mol
# GULP energy per Si atom -12398.118851 kJ/mol
# Density = 1.752923 g / cm^3
# Si number density = 17.569216 Si / 1000 Ang^3
#
#
#
# Elastic Constant Matrix: (Units=GPa)
#
#
# Indices 1 2 3 4 5 6 
#
# 1 108.1592 50.3531 53.3732 0.0000 0.0000 0.0000
# 2 50.3531 108.1592 53.3732 0.0000 0.0000 0.0000
# 3 53.3732 53.3732 98.3026 0.0000 0.0000 0.0000
# 4 0.0000 0.0000 0.0000 19.8584 0.0000 0.0000
# 5 0.0000 0.0000 0.0000 0.0000 19.8584 0.0000
# 6 0.0000 0.0000 0.0000 0.0000 0.0000 23.6047
#
#
#
# Elastic Compliance Matrix: (Units=1/GPa)
#
#
# Indices 1 2 3 4 5 6 
#
# 1 0.013622 -0.003677 -0.005400 0.000000 0.000000 0.000000
# 2 -0.003677 0.013622 -0.005400 0.000000 0.000000 0.000000
# 3 -0.005400 -0.005400 0.016036 0.000000 0.000000 0.000000
# 4 0.000000 0.000000 0.000000 0.050357 0.000000 0.000000
# 5 0.000000 0.000000 0.000000 0.000000 0.050357 0.000000
# 6 0.000000 0.000000 0.000000 0.000000 0.000000 0.042364
#
#
# Mechanical properties :
#
#
# Convention : Reuss Voigt Hill
#
# Bulk Modulus (GPa) = 69.79553 69.86887 69.83220
# Shear Modulus (GPa) = 22.71841 23.16574 22.94208
#
# Velocity S-wave (km/s) = 3.59984 3.63511 3.61752
# Velocity P-wave (km/s) = 7.55584 7.58108 7.56847
#
# Compressibility (1/GPa) = 0.01432756
#
# Stress axis : x y z
#
# Youngs Moduli (GPa) = 73.41048 73.41048 62.35973
#
# Poissons Ratio (x) = 0.26994 0.33671
# Poissons Ratio (y) = 0.26994 0.33671
# Poissons Ratio (z) = 0.39638 0.39638
#
# Static dielectric constant tensor:
#      x y z
#    x 3.231890 0.000000 0.000000 
#    y 0.000000 3.231890 0.000000 
#    z 0.000000 0.000000 3.253530 
# 
# 
# High freq. dielectric constant tensor:
#      x y z
#    x 1.670660 0.000000 0.000000 
#    y 0.000000 1.670660 0.000000 
#    z 0.000000 0.000000 1.679630 
# 
# From -- ./inp_files/2116.got.cif
#   From: 2010.03.12/outbox.cif.g09.slc.cpg/sg125_2_cif.got.tgz:2116.got - 2010.04.06 16:47:52.
