data_PCOD8313923
_publ_section_title
;
Structure prediction by ZEFSAII (Michael W. Deem and Ramdas Pophale) SiO2 
 PCOD8313923
Probable space group: P 4/M B M
;
_chemical_formula_sum "Si O2"
_cell_formula_units_Z 96
_cell_length_a 25.818677
_cell_length_b 25.818677
_cell_length_c 7.767369
_cell_angle_alpha 90.000000
_cell_angle_beta 90.000000
_cell_angle_gamma 90.000000
_cell_volume 5177.759882
_symmetry_space_group_name_H-M "P 4/M B M"
_symmetry_group_IT_number 127
_symmetry_cell_setting 'tetragonal'
loop_
_space_group_symop_operation_xyz
x,y,z
-y,x,z
-x,-y,z
y,-x,z
1/2+x,1/2-y,-z
1/2-x,1/2+y,-z
1/2+y,1/2+x,-z
1/2-y,1/2-x,-z
-x,-y,-z
y,-x,-z
x,y,-z
-y,x,-z
1/2-x,1/2+y,z
1/2+x,1/2-y,z
1/2-y,1/2-x,z
1/2+y,1/2+x,z
loop_
_atom_site_type_symbol
_atom_site_label
_atom_site_fract_x
_atom_site_fract_y
_atom_site_fract_z
Si Si1 0.555238 0.348752 0.500000
Si Si2 0.065554 0.862968 0.500000
Si Si3 0.050944 0.227225 0.806276
Si Si4 0.709847 0.431949 0.194202
Si Si5 0.181886 0.601949 0.804037
Si Si6 0.076472 0.341116 0.702661
Si Si7 0.397275 0.022890 0.306567
O O1 0.496139 0.367810 0.500000
O O2 0.583395 0.404011 0.500000
O O3 0.571125 0.314849 0.332275
O O4 0.083154 0.834604 0.673834
O O5 0.076353 0.283856 0.783246
O O6 0.989602 0.231942 0.779316
O O7 0.064149 0.207772 0.000000
O O8 0.757625 0.394498 0.239847
O O9 0.688885 0.423813 0.000000
O O10 0.159448 0.659448 0.775518
O O11 0.151831 0.561169 0.686124
O O12 0.174173 0.582688 0.000000
O O13 0.067092 0.334876 0.500000
O O14 0.131486 0.368515 0.743795
O O15 0.030843 0.378343 0.781535
O O16 0.414314 0.009942 0.500000
O O17 0.446598 0.053403 0.216864
#
# Coordination Sequence:
#
# PCOD8313923 Si02
#       7
#     8   8  16  16  16  16  16
#     4  10  22  41  61  91 115 137 168 203 258 325
#     4  10  22  37  63  87 115 142 163 202 253 318
#     4  10  19  34  57  80 108 145 186 230 268 312
#     4   9  18  32  53  81 109 142 186 224 261 312
#     4   9  16  26  43  68 100 136 175 226 277 313
#     4  10  19  30  47  71 105 149 198 246 283 322
#     4   9  17  26  40  65 100 143 187 234 288 332
#
# _framework density 18.540838000000001
#
# number of rings (size 3 to 8) (size 9 to 14) (size 15 to 20)
#    0.000    2.500    2.500    0.000    1.167    1.500 
#    0.000    1.667    0.000    2.000    0.000   10.500 
#    0.000    0.000    0.000    0.000    0.000    0.000 
#
# Total GULP energy -1189552.165256 kJ/mol
# GULP energy per Si atom -12391.168388 kJ/mol
# Density = 1.849864 g / cm^3
# Si number density = 18.540838 Si / 1000 Ang^3
#
#
#
# Elastic Constant Matrix: (Units=GPa)
#
#
# Indices 1 2 3 4 5 6 
#
# 1 80.7815 50.5532 35.8343 0.0000 0.0000 0.0000
# 2 50.5532 80.7815 35.8343 0.0000 0.0000 0.0000
# 3 35.8343 35.8343 88.8120 0.0000 0.0000 0.0000
# 4 0.0000 0.0000 0.0000 12.5667 0.0000 0.0000
# 5 0.0000 0.0000 0.0000 0.0000 12.5667 0.0000
# 6 0.0000 0.0000 0.0000 0.0000 0.0000 26.7129
#
#
#
# Elastic Compliance Matrix: (Units=1/GPa)
#
#
# Indices 1 2 3 4 5 6 
#
# 1 0.021423 -0.011659 -0.003940 0.000000 0.000000 0.000000
# 2 -0.011659 0.021423 -0.003940 0.000000 0.000000 0.000000
# 3 -0.003940 -0.003940 0.014439 0.000000 0.000000 0.000000
# 4 0.000000 0.000000 0.000000 0.079576 0.000000 0.000000
# 5 0.000000 0.000000 0.000000 0.000000 0.079576 0.000000
# 6 0.000000 0.000000 0.000000 0.000000 0.000000 0.037435
#
#
# Mechanical properties :
#
#
# Convention : Reuss Voigt Hill
#
# Bulk Modulus (GPa) = 54.91983 54.97986 54.94985
# Shear Modulus (GPa) = 16.72150 18.91279 17.81715
#
# Velocity S-wave (km/s) = 3.00638 3.19730 3.10331
# Velocity P-wave (km/s) = 6.46037 6.58393 6.52244
#
# Compressibility (1/GPa) = 0.01820836
#
# Stress axis : x y z
#
# Youngs Moduli (GPa) = 46.67924 46.67924 69.25747
#
# Poissons Ratio (x) = 0.54423 0.27285
# Poissons Ratio (y) = 0.54423 0.27285
# Poissons Ratio (z) = 0.18390 0.18390
#
# Static dielectric constant tensor:
#      x y z
#    x 3.138400 0.000000 0.000000 
#    y 0.000000 3.138400 0.000000 
#    z 0.000000 0.000000 3.505550 
# 
# 
# High freq. dielectric constant tensor:
#      x y z
#    x 1.690000 0.000000 0.000000 
#    y 0.000000 1.690000 0.000000 
#    z 0.000000 0.000000 1.720000 
# 
# From -- ./inp_files/2048.got.cif
#   From: 2010.03.12/outbox.cif.g09.slc.cpg/sg127_2_cif.got.tgz:2048.got - 2010.04.06 17:03:15.
