data_PCOD8313076
_publ_section_title
;
Structure prediction by ZEFSAII (Michael W. Deem and Ramdas Pophale) SiO2 
 PCOD8313076
Probable space group: P 4/M C C
;
_chemical_formula_sum "Si O2"
_cell_formula_units_Z 96
_cell_length_a 25.180684
_cell_length_b 25.180684
_cell_length_c 8.647870
_cell_angle_alpha 90.000000
_cell_angle_beta 90.000000
_cell_angle_gamma 90.000000
_cell_volume 5483.327662
_symmetry_space_group_name_H-M "P 4/M C C"
_symmetry_group_IT_number 124
_symmetry_cell_setting 'tetragonal'
loop_
_space_group_symop_operation_xyz
x,y,z
-y,x,z
-x,-y,z
y,-x,z
x,-y,1/2-z
-x,y,1/2-z
y,x,1/2-z
-y,-x,1/2-z
-x,-y,-z
y,-x,-z
x,y,-z
-y,x,-z
-x,y,1/2+z
x,-y,1/2+z
-y,-x,1/2+z
y,x,1/2+z
loop_
_atom_site_type_symbol
_atom_site_label
_atom_site_fract_x
_atom_site_fract_y
_atom_site_fract_z
Si Si1 0.449572 0.141740 0.679095
Si Si2 0.860796 0.056795 0.816688
Si Si3 0.743356 0.553470 0.319509
Si Si4 0.337490 0.742903 0.819076
Si Si5 0.055291 0.252774 0.319013
Si Si6 0.133440 0.667139 0.676614
O O1 0.500000 0.108455 0.750000
O O2 0.458802 0.156644 0.500000
O O3 0.447326 0.194595 0.780737
O O4 0.393385 0.111598 0.697369
O O5 0.899163 0.100838 0.750000
O O6 0.801480 0.071588 0.764992
O O7 0.878210 0.000000 0.750000
O O8 0.864402 0.055534 0.000000
O O9 0.716137 0.500000 0.250000
O O10 0.733118 0.554180 0.500000
O O11 0.719167 0.607596 0.248715
O O12 0.287455 0.712545 0.750000
O O13 0.330306 0.804831 0.777154
O O14 0.339384 0.734324 0.000000
O O15 0.048498 0.241830 0.500000
O O16 0.101003 0.295704 0.291645
O O17 0.000000 0.274589 0.250000
O O18 0.125003 0.685970 0.500000
#
# Coordination Sequence:
#
# PCOD8313076 Si02
#       6
#    16  16  16  16  16  16
#     4   9  16  27  45  69  97 126 160 203 248 294
#     4  11  22  39  60  83 109 135 165 201 244 291
#     4  10  17  27  44  65  92 127 167 206 245 292
#     4  10  20  33  48  70 102 135 166 204 250 298
#     4  11  22  37  57  78 101 132 169 208 248 292
#     4   9  19  34  50  71 100 133 168 206 248 298
#
# _framework density 17.507618000000001
#
# number of rings (size 3 to 8) (size 9 to 14) (size 15 to 20)
#    0.000    2.000    0.000    8.500    0.000    4.833 
#    0.000    2.500    0.000    0.500    0.000    3.500 
#    0.000    0.333    0.000    3.333    0.000    2.167 
#
# Total GULP energy -1190080.302951 kJ/mol
# GULP energy per Si atom -12396.669822 kJ/mol
# Density = 1.746777 g / cm^3
# Si number density = 17.507618 Si / 1000 Ang^3
#
#
#
# Elastic Constant Matrix: (Units=GPa)
#
#
# Indices 1 2 3 4 5 6 
#
# 1 89.4962 53.3357 48.7679 0.0000 0.0000 0.0000
# 2 53.3357 89.4888 48.7598 0.0000 0.0000 0.0000
# 3 48.7679 48.7598 139.9801 0.0000 0.0000 0.0000
# 4 0.0000 0.0000 0.0000 29.8839 0.0000 0.0000
# 5 0.0000 0.0000 0.0000 0.0000 29.8845 0.0000
# 6 0.0000 0.0000 0.0000 0.0000 0.0000 23.3820
#
#
#
# Elastic Compliance Matrix: (Units=1/GPa)
#
#
# Indices 1 2 3 4 5 6 
#
# 1 0.018422 -0.009235 -0.003201 0.000000 0.000000 0.000000
# 2 -0.009235 0.018422 -0.003200 0.000000 0.000000 0.000000
# 3 -0.003201 -0.003200 0.009374 0.000000 0.000000 0.000000
# 4 0.000000 0.000000 0.000000 0.033463 0.000000 0.000000
# 5 0.000000 0.000000 0.000000 0.000000 0.033462 0.000000
# 6 0.000000 0.000000 0.000000 0.000000 0.000000 0.042768
#
#
# Mechanical properties :
#
#
# Convention : Reuss Voigt Hill
#
# Bulk Modulus (GPa) = 66.90853 68.96576 67.93715
# Shear Modulus (GPa) = 26.01940 27.83686 26.92813
#
# Velocity S-wave (km/s) = 3.85928 3.99179 3.92609
# Velocity P-wave (km/s) = 7.62617 7.79251 7.70979
#
# Compressibility (1/GPa) = 0.01494578
#
# Stress axis : x y z
#
# Youngs Moduli (GPa) = 54.28355 54.28222 106.68268
#
# Poissons Ratio (x) = 0.50131 0.34149
# Poissons Ratio (y) = 0.50133 0.34134
# Poissons Ratio (z) = 0.17376 0.17368
#
# Static dielectric constant tensor:
#      x y z
#    x 3.320940 0.000000 0.000000 
#    y 0.000000 3.320940 0.000000 
#    z 0.000000 0.000000 3.377190 
# 
# 
# High freq. dielectric constant tensor:
#      x y z
#    x 1.658470 0.000000 0.000000 
#    y 0.000000 1.658470 0.000000 
#    z 0.000000 0.000000 1.696290 
# 
# From -- ./inp_files/1396.got.cif
#   From: 2010.03.12/outbox.cif.g09.slc.cpg/sg124_1_cif.got.tgz:1396.got - 2010.04.06 16:38:57.
