data_PCOD8313391
_publ_section_title
;
Structure prediction by ZEFSAII (Michael W. Deem and Ramdas Pophale) SiO2 
 PCOD8313391
Probable space group: P 4/M C C
;
_chemical_formula_sum "Si O2"
_cell_formula_units_Z 56
_cell_length_a 11.306990
_cell_length_b 11.306990
_cell_length_c 20.272989
_cell_angle_alpha 90.000000
_cell_angle_beta 90.000000
_cell_angle_gamma 90.000000
_cell_volume 2591.861561
_symmetry_space_group_name_H-M "P 4/M C C"
_symmetry_group_IT_number 124
_symmetry_cell_setting 'tetragonal'
loop_
_space_group_symop_operation_xyz
x,y,z
-y,x,z
-x,-y,z
y,-x,z
x,-y,1/2-z
-x,y,1/2-z
y,x,1/2-z
-y,-x,1/2-z
-x,-y,-z
y,-x,-z
x,y,-z
-y,x,-z
-x,y,1/2+z
x,-y,1/2+z
-y,-x,1/2+z
y,x,1/2+z
loop_
_atom_site_type_symbol
_atom_site_label
_atom_site_fract_x
_atom_site_fract_y
_atom_site_fract_z
Si Si1 0.557497 0.311199 0.644467
Si Si2 0.443640 0.314680 0.000000
Si Si3 0.063766 0.615842 0.182177
Si Si4 0.808421 0.032413 0.572611
O O1 0.644766 0.422664 0.655414
O O2 0.576192 0.251231 0.570820
O O3 0.589353 0.204237 0.694082
O O4 0.576926 0.355718 0.000000
O O5 0.000000 0.500000 0.153688
O O6 0.000000 0.653538 0.250000
O O7 0.047000 0.717484 0.130385
O O8 0.748539 0.043486 0.500000
O O9 0.865874 0.904681 0.580100
#
# Coordination Sequence:
#
# PCOD8313391 Si02
#       4
#    16   8  16  16
#     4   9  19  39  67  96 134 178 215 260 331 407
#     4   7  12  28  57  96 128 157 206 258 308 391
#     4  11  26  43  59  98 137 172 219 281 324 383
#     4   9  21  45  73  99 127 169 225 274 326 395
#
# _framework density 21.606093999999999
#
# number of rings (size 3 to 8) (size 9 to 14) (size 15 to 20)
#    0.000    2.714    0.000    2.571    6.000    1.714 
#    5.143    1.429    0.000    6.857    0.000    0.000 
#    0.000    0.000    0.000    0.000    0.000    0.000 
#
# Total GULP energy -693730.648550 kJ/mol
# GULP energy per Si atom -12388.047296 kJ/mol
# Density = 2.155692 g / cm^3
# Si number density = 21.606094 Si / 1000 Ang^3
#
#
#
# Elastic Constant Matrix: (Units=GPa)
#
#
# Indices 1 2 3 4 5 6 
#
# 1 123.5756 41.4432 84.0210 0.0000 0.0000 0.0000
# 2 41.4432 123.5756 84.0210 0.0000 0.0000 0.0000
# 3 84.0210 84.0210 109.7262 0.0000 0.0000 0.0000
# 4 0.0000 0.0000 0.0000 39.5333 0.0000 0.0000
# 5 0.0000 0.0000 0.0000 0.0000 39.5333 0.0000
# 6 0.0000 0.0000 0.0000 0.0000 0.0000 11.9333
#
#
#
# Elastic Compliance Matrix: (Units=1/GPa)
#
#
# Indices 1 2 3 4 5 6 
#
# 1 0.019845 0.007670 -0.021070 0.000000 0.000000 0.000000
# 2 0.007670 0.019845 -0.021070 0.000000 0.000000 0.000000
# 3 -0.021070 -0.021070 0.041381 0.000000 0.000000 0.000000
# 4 0.000000 0.000000 0.000000 0.025295 0.000000 0.000000
# 5 0.000000 0.000000 0.000000 0.000000 0.025295 0.000000
# 6 0.000000 0.000000 0.000000 0.000000 0.000000 0.083799
#
#
# Mechanical properties :
#
#
# Convention : Reuss Voigt Hill
#
# Bulk Modulus (GPa) = 82.41493 86.20532 84.31013
# Shear Modulus (GPa) = 17.33439 28.02610 22.68024
#
# Velocity S-wave (km/s) = 2.83555 3.60549 3.24345
# Velocity P-wave (km/s) = 6.99625 7.57086 7.28922
#
# Compressibility (1/GPa) = 0.01213372
#
# Stress axis : x y z
#
# Youngs Moduli (GPa) = 50.38939 50.38939 24.16576
#
# Poissons Ratio (x) = -0.38649 0.50916
# Poissons Ratio (y) = -0.38649 0.50916
# Poissons Ratio (z) = 1.06168 1.06168
#
# Static dielectric constant tensor:
#      x y z
#    x 3.816320 0.000000 0.000000 
#    y 0.000000 3.816320 0.000000 
#    z 0.000000 0.000000 4.159890 
# 
# 
# High freq. dielectric constant tensor:
#      x y z
#    x 1.839800 0.000000 0.000000 
#    y 0.000000 1.839800 0.000000 
#    z 0.000000 0.000000 1.856670 
# 
# From -- ./inp_files/4851.got.cif
#   From: 2010.03.12/outbox.cif.g09.slc.cpg/sg124_3_cif.got.tgz:4851.got - 2010.04.06 16:38:57.
