data_PCOD8313994
_publ_section_title
;
Structure prediction by ZEFSAII (Michael W. Deem and Ramdas Pophale) SiO2 
 PCOD8313994
Probable space group: P 4/M B M
;
_chemical_formula_sum "Si O2"
_cell_formula_units_Z 96
_cell_length_a 24.462590
_cell_length_b 24.462590
_cell_length_c 8.613690
_cell_angle_alpha 90.000000
_cell_angle_beta 90.000000
_cell_angle_gamma 90.000000
_cell_volume 5154.589808
_symmetry_space_group_name_H-M "P 4/M B M"
_symmetry_group_IT_number 127
_symmetry_cell_setting 'tetragonal'
loop_
_space_group_symop_operation_xyz
x,y,z
-y,x,z
-x,-y,z
y,-x,z
1/2+x,1/2-y,-z
1/2-x,1/2+y,-z
1/2+y,1/2+x,-z
1/2-y,1/2-x,-z
-x,-y,-z
y,-x,-z
x,y,-z
-y,x,-z
1/2-x,1/2+y,z
1/2+x,1/2-y,z
1/2-y,1/2-x,z
1/2+y,1/2+x,z
loop_
_atom_site_type_symbol
_atom_site_label
_atom_site_fract_x
_atom_site_fract_y
_atom_site_fract_z
Si Si1 0.882274 0.382274 0.823967
Si Si2 0.687683 0.099658 0.677622
Si Si3 0.140703 0.810062 0.318477
Si Si4 0.798990 0.298990 0.681366
Si Si5 0.529641 0.719286 0.180271
Si Si6 0.019043 0.665103 0.324827
Si Si7 0.409557 0.698794 0.176685
O O1 0.844273 0.344273 0.718043
O O2 0.872181 0.445894 0.790272
O O3 0.868169 0.368169 0.000000
O O4 0.709401 0.103434 0.500000
O O5 0.651024 0.151024 0.721070
O O6 0.736842 0.098819 0.798280
O O7 0.651564 0.044822 0.697861
O O8 0.129312 0.801720 0.500000
O O9 0.180070 0.760411 0.254614
O O10 0.083556 0.814161 0.226090
O O11 0.167678 0.869030 0.291865
O O12 0.792335 0.292335 0.500000
O O13 0.529998 0.771741 0.289526
O O14 0.473641 0.684693 0.211004
O O15 0.532028 0.736693 0.000000
O O16 0.038205 0.653443 0.500000
O O17 0.394307 0.684137 0.000000
#
# Coordination Sequence:
#
# PCOD8313994 Si02
#       7
#     8  16  16   8  16  16  16
#     4  12  22  32  51  77 106 141 178 224 273 327
#     4   9  19  36  56  76 102 140 185 227 270 321
#     4  11  22  36  57  83 114 146 182 226 267 318
#     4  10  22  36  52  79 113 144 178 222 273 318
#     4  10  20  36  56  79 109 143 180 220 267 325
#     4  10  19  33  53  75 102 138 180 226 272 323
#     4  10  22  37  55  82 114 146 179 218 269 327
#
# _framework density 18.624179000000002
#
# number of rings (size 3 to 8) (size 9 to 14) (size 15 to 20)
#    0.000    1.833    1.667    2.750    1.167    3.667 
#    0.000    0.417    0.000    3.000    0.000    3.500 
#    0.000    0.000    0.000    0.000    0.000    0.000 
#
# Total GULP energy -1190203.185336 kJ/mol
# GULP energy per Si atom -12397.949847 kJ/mol
# Density = 1.858179 g / cm^3
# Si number density = 18.624179 Si / 1000 Ang^3
#
#
#
# Elastic Constant Matrix: (Units=GPa)
#
#
# Indices 1 2 3 4 5 6 
#
# 1 81.1502 42.2159 20.3531 0.0000 0.0000 0.0000
# 2 42.2159 81.1502 20.3531 0.0000 0.0000 0.0000
# 3 20.3531 20.3531 41.4754 0.0000 0.0000 0.0000
# 4 0.0000 0.0000 0.0000 25.0146 0.0000 0.0000
# 5 0.0000 0.0000 0.0000 0.0000 25.0146 0.0000
# 6 0.0000 0.0000 0.0000 0.0000 0.0000 23.0705
#
#
#
# Elastic Compliance Matrix: (Units=1/GPa)
#
#
# Indices 1 2 3 4 5 6 
#
# 1 0.017678 -0.008006 -0.004746 0.000000 0.000000 0.000000
# 2 -0.008006 0.017678 -0.004746 0.000000 0.000000 0.000000
# 3 -0.004746 -0.004746 0.028769 0.000000 0.000000 0.000000
# 4 0.000000 0.000000 0.000000 0.039977 0.000000 0.000000
# 5 0.000000 0.000000 0.000000 0.000000 0.039977 0.000000
# 6 0.000000 0.000000 0.000000 0.000000 0.000000 0.043345
#
#
# Mechanical properties :
#
#
# Convention : Reuss Voigt Hill
#
# Bulk Modulus (GPa) = 34.33153 41.06891 37.70022
# Shear Modulus (GPa) = 21.53958 22.67686 22.10822
#
# Velocity S-wave (km/s) = 3.40448 3.49320 3.44913
# Velocity P-wave (km/s) = 5.82476 6.19429 6.01237
#
# Compressibility (1/GPa) = 0.02912774
#
# Stress axis : x y z
#
# Youngs Moduli (GPa) = 56.56698 56.56698 34.75962
#
# Poissons Ratio (x) = 0.45288 0.16498
# Poissons Ratio (y) = 0.45288 0.16498
# Poissons Ratio (z) = 0.26849 0.26849
#
# Static dielectric constant tensor:
#      x y z
#    x 3.427010 0.000000 0.000000 
#    y 0.000000 3.427010 0.000000 
#    z 0.000000 0.000000 3.370750 
# 
# 
# High freq. dielectric constant tensor:
#      x y z
#    x 1.709390 0.000000 0.000000 
#    y 0.000000 1.709390 0.000000 
#    z 0.000000 0.000000 1.726990 
# 
# From -- ./inp_files/2088.got.cif
#   From: 2010.03.12/outbox.cif.g09.slc.cpg/sg127_2_cif.got.tgz:2088.got - 2010.04.06 17:03:15.
