data_PCOD8313657
_publ_section_title
;
Structure prediction by ZEFSAII (Michael W. Deem and Ramdas Pophale) SiO2 
 PCOD8313657
Probable space group: P 4/N N C
;
_chemical_formula_sum "Si O2"
_cell_formula_units_Z 64
_cell_length_a 17.412542
_cell_length_b 17.412542
_cell_length_c 11.727401
_cell_angle_alpha 90.000000
_cell_angle_beta 90.000000
_cell_angle_gamma 90.000000
_cell_volume 3555.708332
_symmetry_space_group_name_H-M "P 4/N N C"
_symmetry_group_IT_number 126
_space_group.IT_coordinate_system_code '2'
_symmetry_cell_setting 'tetragonal'
loop_
_space_group_symop_operation_xyz
x,y,z
1/2-y,x,z
1/2-x,1/2-y,z
y,1/2-x,z
x,1/2-y,1/2-z
1/2-x,y,1/2-z
y,x,1/2-z
1/2-y,1/2-x,1/2-z
-x,-y,-z
1/2+y,-x,-z
1/2+x,1/2+y,-z
-y,1/2+x,-z
-x,1/2+y,1/2+z
1/2+x,-y,1/2+z
-y,-x,1/2+z
1/2+y,1/2+x,1/2+z
loop_
_atom_site_type_symbol
_atom_site_label
_atom_site_fract_x
_atom_site_fract_y
_atom_site_fract_z
Si Si1 0.451678 0.573306 0.795558
Si Si2 0.559778 0.168981 0.509964
Si Si3 0.664451 0.958823 0.218700
Si Si4 0.198330 0.891743 0.148948
O O1 0.518080 0.518080 0.750000
O O2 0.369154 0.531451 0.787411
O O3 0.455628 0.647624 0.714082
O O4 0.455855 0.596768 0.927202
O O5 0.483372 0.165384 0.586232
O O6 0.564685 0.248318 0.441449
O O7 0.639844 0.164524 0.581836
O O8 0.750000 0.938728 0.250000
O O9 0.615963 0.884038 0.250000
O O10 0.250000 0.850281 0.250000
#
# Coordination Sequence:
#
# PCOD8313657 Si02
#       4
#    16  16  16  16
#     4   9  19  34  54  78  99 127 170 212 255 307
#     4  10  19  34  53  72 104 136 162 210 253 292
#     4  10  21  34  51  74  99 130 169 206 247 299
#     4   9  19  33  49  74 103 134 172 205 248 305
#
# _framework density 17.999227000000001
#
# number of rings (size 3 to 8) (size 9 to 14) (size 15 to 20)
#    0.000    2.500    0.000    1.500    0.000   11.750 
#    0.000    8.750    0.000    0.000    0.000    0.000 
#    0.000   24.500    0.000    0.000    0.000    0.000 
#
# Total GULP energy -792840.644032 kJ/mol
# GULP energy per Si atom -12388.135063 kJ/mol
# Density = 1.795826 g / cm^3
# Si number density = 17.999227 Si / 1000 Ang^3
#
#
#
# Elastic Constant Matrix: (Units=GPa)
#
#
# Indices 1 2 3 4 5 6 
#
# 1 109.1837 53.4956 64.8229 0.0000 0.0000 0.0000
# 2 53.4956 109.1816 64.8228 0.0000 0.0000 0.0000
# 3 64.8229 64.8228 130.8393 0.0000 0.0000 0.0000
# 4 0.0000 0.0000 0.0000 -26.5165 0.0000 0.0000
# 5 0.0000 0.0000 0.0000 0.0000 -26.2623 0.0000
# 6 0.0000 0.0000 0.0000 0.0000 0.0000 2.8802
#
#
#
# Elastic Compliance Matrix: (Units=1/GPa)
#
#
# Indices 1 2 3 4 5 6 
#
# 1 0.014057 -0.003900 -0.005032 0.000000 0.000000 0.000000
# 2 -0.003900 0.014058 -0.005033 0.000000 0.000000 0.000000
# 3 -0.005032 -0.005033 0.012630 0.000000 0.000000 0.000000
# 4 0.000000 0.000000 0.000000 -0.037712 0.000000 0.000000
# 5 0.000000 0.000000 0.000000 0.000000 -0.038077 0.000000
# 6 0.000000 0.000000 0.000000 0.000000 0.000000 0.347194
#
#
# Mechanical properties :
#
#
# Convention : Reuss Voigt Hill
#
# Bulk Modulus (GPa) = 78.03392 79.49857 78.76624
# Shear Modulus (GPa) = 14.52009 1.09118 7.80563
#
# Velocity S-wave (km/s) = 2.84334 0.77946 2.08472
# Velocity P-wave (km/s) = 7.36394 6.71370 7.04632
#
# Compressibility (1/GPa) = 0.01281494
#
# Stress axis : x y z
#
# Youngs Moduli (GPa) = 71.13666 71.13474 79.17897
#
# Poissons Ratio (x) = 0.27742 0.39847
# Poissons Ratio (y) = 0.27742 0.39848
# Poissons Ratio (z) = 0.35799 0.35800
#
# Static dielectric constant tensor:
#      x y z
#    x 3.227300 0.000000 0.000000 
#    y 0.000000 3.227300 0.000000 
#    z 0.000000 0.000000 3.660660 
# 
# 
# High freq. dielectric constant tensor:
#      x y z
#    x 1.680540 0.000000 0.000000 
#    y 0.000000 1.680530 0.000000 
#    z 0.000000 0.000000 1.718420 
# 
# From -- ./inp_files/2558.got.cif
#   From: 2010.03.12/outbox.cif.g09.slc.cpg/sg126_2_cif.got.tgz:2558.got - 2010.04.06 16:55:23.
