data_PCOD8313317
_publ_section_title
;
Structure prediction by ZEFSAII (Michael W. Deem and Ramdas Pophale) SiO2 
 PCOD8313317
Probable space group: P 4/M C C
;
_chemical_formula_sum "Si O2"
_cell_formula_units_Z 112
_cell_length_a 14.074348
_cell_length_b 14.074348
_cell_length_c 25.567146
_cell_angle_alpha 90.000000
_cell_angle_beta 90.000000
_cell_angle_gamma 90.000000
_cell_volume 5064.526194
_symmetry_space_group_name_H-M "P 4/M C C"
_symmetry_group_IT_number 124
_symmetry_cell_setting 'tetragonal'
loop_
_space_group_symop_operation_xyz
x,y,z
-y,x,z
-x,-y,z
y,-x,z
x,-y,1/2-z
-x,y,1/2-z
y,x,1/2-z
-y,-x,1/2-z
-x,-y,-z
y,-x,-z
x,y,-z
-y,x,-z
-x,y,1/2+z
x,-y,1/2+z
-y,-x,1/2+z
y,x,1/2+z
loop_
_atom_site_type_symbol
_atom_site_label
_atom_site_fract_x
_atom_site_fract_y
_atom_site_fract_z
Si Si1 0.346943 0.472620 0.656539
Si Si2 0.099144 0.312099 0.940462
Si Si3 0.511479 0.220933 0.939655
Si Si4 0.831308 0.588758 0.279793
Si Si5 0.141171 0.928061 0.881177
Si Si6 0.939316 0.411717 0.117686
Si Si7 0.235625 0.899212 0.774171
O O1 0.423993 0.391088 0.664530
O O2 0.305255 0.475179 0.597559
O O3 0.269907 0.451203 0.700994
O O4 0.189696 0.379117 0.926158
O O5 0.114072 0.198842 0.931356
O O6 0.007080 0.331472 0.904951
O O7 0.073078 0.333138 0.000000
O O8 0.444307 0.130704 0.928781
O O9 0.500982 0.253156 0.000000
O O10 0.881103 0.500000 0.250000
O O11 0.886636 0.627082 0.330884
O O12 0.827246 0.677305 0.239250
O O13 0.215103 0.901968 0.835360
O O14 0.041265 0.874515 0.880207
O O15 0.000000 0.500000 0.137807
O O16 0.137003 0.862998 0.750000
O O17 0.263258 0.000000 0.750000
#
# Coordination Sequence:
#
# PCOD8313317 Si02
#       7
#    16  16  16  16  16  16  16
#     4  10  24  46  67  92 132 176 218 272 338 411
#     4  10  21  40  67  96 131 174 220 275 340 409
#     4   9  19  38  66  98 129 167 219 279 338 405
#     4  11  27  40  67  98 133 173 229 283 340 407
#     4  11  25  44  66  94 133 180 228 283 341 414
#     4   9  19  37  61  93 132 169 214 274 342 402
#     4  12  26  43  68  99 137 181 232 284 347 410
#
# _framework density 22.114605000000001
#
# number of rings (size 3 to 8) (size 9 to 14) (size 15 to 20)
#    0.000    1.714    1.429    1.286   10.000    3.000 
#    2.571    2.143    0.000    0.000    0.000    0.000 
#    0.000    0.000    0.000    0.000    0.000    0.000 
#
# Total GULP energy -1388216.967942 kJ/mol
# GULP energy per Si atom -12394.794357 kJ/mol
# Density = 2.206427 g / cm^3
# Si number density = 22.114605 Si / 1000 Ang^3
#
#
#
# Elastic Constant Matrix: (Units=GPa)
#
#
# Indices 1 2 3 4 5 6 
#
# 1 100.0143 32.1482 35.8952 0.0000 0.0000 0.0000
# 2 32.1482 100.0125 35.8950 0.0000 0.0000 0.0000
# 3 35.8952 35.8950 78.7330 0.0000 0.0000 0.0000
# 4 0.0000 0.0000 0.0000 28.4688 0.0000 0.0000
# 5 0.0000 0.0000 0.0000 0.0000 28.4689 0.0000
# 6 0.0000 0.0000 0.0000 0.0000 0.0000 20.2864
#
#
#
# Elastic Compliance Matrix: (Units=1/GPa)
#
#
# Indices 1 2 3 4 5 6 
#
# 1 0.012396 -0.002339 -0.004585 0.000000 0.000000 0.000000
# 2 -0.002339 0.012396 -0.004585 0.000000 0.000000 0.000000
# 3 -0.004585 -0.004585 0.016882 0.000000 0.000000 0.000000
# 4 0.000000 0.000000 0.000000 0.035126 0.000000 0.000000
# 5 0.000000 0.000000 0.000000 0.000000 0.035126 0.000000
# 6 0.000000 0.000000 0.000000 0.000000 0.000000 0.049294
#
#
# Mechanical properties :
#
#
# Convention : Reuss Voigt Hill
#
# Bulk Modulus (GPa) = 53.60297 54.07074 53.83685
# Shear Modulus (GPa) = 26.25255 27.09957 26.67606
#
# Velocity S-wave (km/s) = 3.44919 3.50439 3.47690
# Velocity P-wave (km/s) = 6.33671 6.39356 6.36520
#
# Compressibility (1/GPa) = 0.01865568
#
# Stress axis : x y z
#
# Youngs Moduli (GPa) = 80.67116 80.66957 59.23468
#
# Poissons Ratio (x) = 0.18868 0.27160
# Poissons Ratio (y) = 0.18869 0.27160
# Poissons Ratio (z) = 0.36989 0.36989
#
# Static dielectric constant tensor:
#      x y z
#    x 3.960570 0.000000 0.000000 
#    y 0.000000 3.960570 0.000000 
#    z 0.000000 0.000000 3.916880 
# 
# 
# High freq. dielectric constant tensor:
#      x y z
#    x 1.866380 0.000000 0.000000 
#    y 0.000000 1.866380 0.000000 
#    z 0.000000 0.000000 1.873060 
# 
# From -- ./inp_files/6091.got.cif
#   From: 2010.03.12/outbox.cif.g09.slc.cpg/sg124_4_cif.got.tgz:6091.got - 2010.04.06 16:38:57.
