data_PCOD8313509
_publ_section_title
;
Structure prediction by ZEFSAII (Michael W. Deem and Ramdas Pophale) SiO2 
 PCOD8313509
Probable space group: P 4/N B M
;
_chemical_formula_sum "Si O2"
_cell_formula_units_Z 96
_cell_length_a 14.298811
_cell_length_b 14.298811
_cell_length_c 22.991564
_cell_angle_alpha 90.000000
_cell_angle_beta 90.000000
_cell_angle_gamma 90.000000
_cell_volume 4700.763118
_symmetry_space_group_name_H-M "P 4/N B M"
_symmetry_group_IT_number 125
_space_group.IT_coordinate_system_code '2'
_symmetry_cell_setting 'tetragonal'
loop_
_space_group_symop_operation_xyz
x,y,z
1/2-y,x,z
1/2-x,1/2-y,z
y,1/2-x,z
x,1/2-y,-z
1/2-x,y,-z
y,x,-z
1/2-y,1/2-x,-z
-x,-y,-z
1/2+y,-x,-z
1/2+x,1/2+y,-z
-y,1/2+x,-z
-x,1/2+y,z
1/2+x,-y,z
-y,-x,z
1/2+y,1/2+x,z
loop_
_atom_site_type_symbol
_atom_site_label
_atom_site_fract_x
_atom_site_fract_y
_atom_site_fract_z
Si Si1 0.149355 0.002364 0.162103
Si Si2 0.744061 0.098998 0.436472
Si Si3 0.489482 0.147036 0.784552
Si Si4 0.005351 0.146557 0.975076
Si Si5 0.352121 0.004920 0.345841
Si Si6 0.641753 0.858407 0.436865
O O1 0.090510 0.909491 0.179672
O O2 0.100100 0.093971 0.189090
O O3 0.255819 0.990664 0.182907
O O4 0.150892 0.016020 0.093600
O O5 0.750000 0.047859 0.500000
O O6 0.819231 0.180770 0.437957
O O7 0.641027 0.141027 0.426168
O O8 0.762541 0.028392 0.383583
O O9 0.461556 0.175467 0.718437
O O10 0.581788 0.081788 0.789826
O O11 0.992046 0.250000 0.000000
O O12 0.099479 0.099479 0.000000
O O13 0.915132 0.084869 0.993618
O O14 0.419794 0.919794 0.336164
O O15 0.405274 0.085295 0.383475
O O16 0.620915 0.749231 0.430338
O O17 0.605670 0.894330 0.500000
#
# Coordination Sequence:
#
# PCOD8313509 Si02
#       6
#    16  16  16  16  16  16
#     4  10  22  41  64  90 125 167 202 246 306 354
#     4   8  15  29  48  73 106 139 174 225 293 358
#     4  10  23  41  59  87 125 163 212 256 292 362
#     4  10  21  38  63  94 128 164 201 248 303 355
#     4  10  21  35  55  82 108 140 186 241 291 342
#     4   9  20  37  54  72 101 141 182 229 287 352
#
# _framework density 20.422217
#
# number of rings (size 3 to 8) (size 9 to 14) (size 15 to 20)
#    0.000    2.500    0.000    2.000    4.667    4.000 
#    0.000    5.833    0.000    0.000    0.000    0.000 
#    0.000    0.000    0.000    0.000    0.000    0.000 
#
# Total GULP energy -1189496.981448 kJ/mol
# GULP energy per Si atom -12390.593557 kJ/mol
# Density = 2.037574 g / cm^3
# Si number density = 20.422217 Si / 1000 Ang^3
#
#
#
# Elastic Constant Matrix: (Units=GPa)
#
#
# Indices 1 2 3 4 5 6 
#
# 1 112.0614 37.5062 49.6616 0.0000 0.0000 0.0000
# 2 37.5062 112.0612 49.6616 0.0000 0.0000 0.0000
# 3 49.6616 49.6616 138.6321 0.0000 0.0000 0.0000
# 4 0.0000 0.0000 0.0000 30.1143 0.0000 0.0000
# 5 0.0000 0.0000 0.0000 0.0000 30.1147 0.0000
# 6 0.0000 0.0000 0.0000 0.0000 0.0000 12.4769
#
#
#
# Elastic Compliance Matrix: (Units=1/GPa)
#
#
# Indices 1 2 3 4 5 6 
#
# 1 0.011093 -0.002320 -0.003143 0.000000 0.000000 0.000000
# 2 -0.002320 0.011093 -0.003143 0.000000 0.000000 0.000000
# 3 -0.003143 -0.003143 0.009465 0.000000 0.000000 0.000000
# 4 0.000000 0.000000 0.000000 0.033207 0.000000 0.000000
# 5 0.000000 0.000000 0.000000 0.000000 0.033206 0.000000
# 6 0.000000 0.000000 0.000000 0.000000 0.000000 0.080148
#
#
# Mechanical properties :
#
#
# Convention : Reuss Voigt Hill
#
# Bulk Modulus (GPa) = 69.25210 70.71263 69.98236
# Shear Modulus (GPa) = 24.97050 29.60287 27.28669
#
# Velocity S-wave (km/s) = 3.50052 3.81142 3.65927
# Velocity P-wave (km/s) = 7.09380 7.35321 7.22467
#
# Compressibility (1/GPa) = 0.01444000
#
# Stress axis : x y z
#
# Youngs Moduli (GPa) = 90.14784 90.14768 105.65332
#
# Poissons Ratio (x) = 0.20914 0.33203
# Poissons Ratio (y) = 0.20914 0.33204
# Poissons Ratio (z) = 0.28331 0.28331
#
# Static dielectric constant tensor:
#      x y z
#    x 3.852480 0.000000 0.000000 
#    y 0.000000 3.852460 0.000000 
#    z 0.000000 0.000000 4.023250 
# 
# 
# High freq. dielectric constant tensor:
#      x y z
#    x 1.795720 0.000000 0.000000 
#    y 0.000000 1.795720 0.000000 
#    z 0.000000 0.000000 1.805500 
# 
# From -- ./inp_files/5951.got.cif
#   From: 2010.03.12/outbox.cif.g09.slc.cpg/sg125_3_cif.got.tgz:5951.got - 2010.04.06 16:47:52.
