data_PCOD8313229
_publ_section_title
;
Structure prediction by ZEFSAII (Michael W. Deem and Ramdas Pophale) SiO2 
 PCOD8313229
Probable space group: P 4/M C C
;
_chemical_formula_sum "Si O2"
_cell_formula_units_Z 80
_cell_length_a 17.885325
_cell_length_b 17.885325
_cell_length_c 14.664755
_cell_angle_alpha 90.000000
_cell_angle_beta 90.000000
_cell_angle_gamma 90.000000
_cell_volume 4691.032959
_symmetry_space_group_name_H-M "P 4/M C C"
_symmetry_group_IT_number 124
_symmetry_cell_setting 'tetragonal'
loop_
_space_group_symop_operation_xyz
x,y,z
-y,x,z
-x,-y,z
y,-x,z
x,-y,1/2-z
-x,y,1/2-z
y,x,1/2-z
-y,-x,1/2-z
-x,-y,-z
y,-x,-z
x,y,-z
-y,x,-z
-x,y,1/2+z
x,-y,1/2+z
-y,-x,1/2+z
y,x,1/2+z
loop_
_atom_site_type_symbol
_atom_site_label
_atom_site_fract_x
_atom_site_fract_y
_atom_site_fract_z
Si Si1 0.734496 0.385183 0.230905
Si Si2 0.857232 0.610336 0.599629
Si Si3 0.617331 0.464593 0.893343
Si Si4 0.011863 0.418150 0.143773
Si Si5 0.437591 0.171787 0.397080
O O1 0.686065 0.313936 0.250000
O O2 0.804814 0.351424 0.174746
O O3 0.688472 0.445568 0.169628
O O4 0.762160 0.418114 0.327175
O O5 0.826172 0.630758 0.500000
O O6 0.850665 0.522464 0.622122
O O7 0.944795 0.634530 0.605452
O O8 0.591888 0.549205 0.870291
O O9 0.639239 0.458056 0.000000
O O10 0.095301 0.389034 0.118527
O O11 0.000000 0.500000 0.099134
O O12 0.000000 0.422164 0.250000
O O13 0.424502 0.201816 0.500000
#
# Coordination Sequence:
#
# PCOD8313229 Si02
#       5
#    16  16  16  16  16
#     4  12  25  34  50  70  98 128 165 206 257 307
#     4  10  20  34  53  75  96 120 154 200 252 306
#     4   9  21  41  59  70  82 112 168 233 282 313
#     4   9  15  30  55  77  97 117 148 191 246 303
#     4  10  21  35  52  74  99 126 156 198 252 307
#
# _framework density 17.053813999999999
#
# number of rings (size 3 to 8) (size 9 to 14) (size 15 to 20)
#    0.000    2.000    2.000    2.400    5.600    4.000 
#    0.000    1.000    0.000    0.000    0.000    1.400 
#    0.000    0.000    0.000    0.000    0.000    8.000 
#
# Total GULP energy -991408.536070 kJ/mol
# GULP energy per Si atom -12392.606701 kJ/mol
# Density = 1.701500 g / cm^3
# Si number density = 17.053814 Si / 1000 Ang^3
#
#
#
# Elastic Constant Matrix: (Units=GPa)
#
#
# Indices 1 2 3 4 5 6 
#
# 1 74.0491 21.8308 36.7940 0.0000 0.0000 0.0000
# 2 21.8308 74.0481 36.7938 0.0000 0.0000 0.0000
# 3 36.7940 36.7938 115.6584 0.0000 0.0000 0.0000
# 4 0.0000 0.0000 0.0000 21.7289 0.0000 0.0000
# 5 0.0000 0.0000 0.0000 0.0000 21.7275 0.0000
# 6 0.0000 0.0000 0.0000 0.0000 0.0000 8.6952
#
#
#
# Elastic Compliance Matrix: (Units=1/GPa)
#
#
# Indices 1 2 3 4 5 6 
#
# 1 0.016475 -0.002676 -0.004390 0.000000 0.000000 0.000000
# 2 -0.002676 0.016475 -0.004390 0.000000 0.000000 0.000000
# 3 -0.004390 -0.004390 0.011439 0.000000 0.000000 0.000000
# 4 0.000000 0.000000 0.000000 0.046022 0.000000 0.000000
# 5 0.000000 0.000000 0.000000 0.000000 0.046025 0.000000
# 6 0.000000 0.000000 0.000000 0.000000 0.000000 0.115005
#
#
# Mechanical properties :
#
#
# Convention : Reuss Voigt Hill
#
# Bulk Modulus (GPa) = 46.55952 50.51030 48.53491
# Shear Modulus (GPa) = 17.76132 21.65280 19.70706
#
# Velocity S-wave (km/s) = 3.23071 3.56712 3.40307
# Velocity P-wave (km/s) = 6.42475 6.82995 6.63045
#
# Compressibility (1/GPa) = 0.02147788
#
# Stress axis : x y z
#
# Youngs Moduli (GPa) = 60.69938 60.69849 87.41898
#
# Poissons Ratio (x) = 0.16242 0.38375
# Poissons Ratio (y) = 0.16242 0.38375
# Poissons Ratio (z) = 0.26646 0.26646
#
# Static dielectric constant tensor:
#      x y z
#    x 3.140810 0.000000 0.000000 
#    y 0.000000 3.140810 0.000000 
#    z 0.000000 0.000000 3.416210 
# 
# 
# High freq. dielectric constant tensor:
#      x y z
#    x 1.615480 0.000000 0.000000 
#    y 0.000000 1.615480 0.000000 
#    z 0.000000 0.000000 1.687920 
# 
# From -- ./inp_files/3081.got.cif
#   From: 2010.03.12/outbox.cif.g09.slc.cpg/sg124_2_cif.got.tgz:3081.got - 2010.04.06 16:38:57.
