data_PCOD8313036
_publ_section_title
;
Structure prediction by ZEFSAII (Michael W. Deem and Ramdas Pophale) SiO2 
 PCOD8313036
Probable space group: P 4/M M M
;
_chemical_formula_sum "Si O2"
_cell_formula_units_Z 128
_cell_length_a 22.281342
_cell_length_b 22.281342
_cell_length_c 18.132761
_cell_angle_alpha 90.000000
_cell_angle_beta 90.000000
_cell_angle_gamma 90.000000
_cell_volume 9002.157911
_symmetry_space_group_name_H-M "P 4/M M M"
_symmetry_group_IT_number 123
_symmetry_cell_setting 'tetragonal'
loop_
_space_group_symop_operation_xyz
x,y,z
-y,x,z
-x,-y,z
y,-x,z
x,-y,-z
-x,y,-z
y,x,-z
-y,-x,-z
-x,-y,-z
y,-x,-z
x,y,-z
-y,x,-z
-x,y,z
x,-y,z
-y,-x,z
y,x,z
loop_
_atom_site_type_symbol
_atom_site_label
_atom_site_fract_x
_atom_site_fract_y
_atom_site_fract_z
Si Si1 0.706182 0.930500 0.416482
Si Si2 0.184697 0.430609 0.085253
Si Si3 0.674831 0.776577 0.171144
Si Si4 0.163278 0.931268 0.638258
Si Si5 0.145531 0.758218 0.079481
Si Si6 0.569064 0.067938 0.826033
Si Si7 0.121092 0.663663 0.725195
Si Si8 0.781461 0.931971 0.210106
O O1 0.687020 0.916107 0.500000
O O2 0.776708 0.917170 0.407232
O O3 0.667616 0.886681 0.363372
O O4 0.693483 0.000000 0.396184
O O5 0.201781 0.500000 0.098789
O O6 0.232166 0.391461 0.135388
O O7 0.114838 0.419003 0.107349
O O8 0.192594 0.412917 0.000000
O O9 0.715969 0.715969 0.174006
O O10 0.698719 0.829590 0.118061
O O11 0.670824 0.807949 0.252241
O O12 0.110466 0.889535 0.606957
O O13 0.172345 0.915822 0.724828
O O14 0.143776 0.000000 0.627439
O O15 0.202738 0.797263 0.062390
O O16 0.102957 0.795067 0.134670
O O17 0.114374 0.743319 0.000000
O O18 0.500000 0.066422 0.804052
O O19 0.601634 0.093110 0.753261
O O20 0.590349 0.000000 0.847997
O O21 0.080725 0.715130 0.761103
O O22 0.787068 0.000000 0.187206
#
# Coordination Sequence:
#
# PCOD8313036 Si02
#       8
#    16  16  16  16  16  16  16  16
#     4   9  17  28  42  58  74  94 119 149 187 228
#     4   9  17  27  38  55  79 104 132 166 197 226
#     4   9  17  28  41  56  75 100 127 154 188 228
#     4   9  17  28  40  53  68  85 107 136 173 221
#     4   9  16  24  34  49  68  89 114 143 175 212
#     4   9  16  25  38  55  76 105 136 163 193 225
#     4   9  16  27  41  56  74  95 123 155 184 219
#     4   9  16  25  37  50  65  87 113 143 176 208
#
# _framework density 14.218813000000001
#
# number of rings (size 3 to 8) (size 9 to 14) (size 15 to 20)
#    0.000    3.000    0.000    2.625    0.000    4.625 
#    0.000    1.250    0.000    4.875    0.000    3.500 
#    0.000    0.250    0.000   13.000    0.000    0.500 
#
# Total GULP energy -1585752.496630 kJ/mol
# GULP energy per Si atom -12388.691380 kJ/mol
# Density = 1.418645 g / cm^3
# Si number density = 14.218813 Si / 1000 Ang^3
#
#
#
# Elastic Constant Matrix: (Units=GPa)
#
#
# Indices 1 2 3 4 5 6 
#
# 1 49.4048 30.3137 22.1952 0.0000 0.0000 0.0000
# 2 30.3137 49.4048 22.1952 0.0000 0.0000 0.0000
# 3 22.1952 22.1952 82.9846 0.0000 0.0000 0.0000
# 4 0.0000 0.0000 0.0000 11.6984 0.0000 0.0000
# 5 0.0000 0.0000 0.0000 0.0000 11.6984 0.0000
# 6 0.0000 0.0000 0.0000 0.0000 0.0000 16.8616
#
#
#
# Elastic Compliance Matrix: (Units=1/GPa)
#
#
# Indices 1 2 3 4 5 6 
#
# 1 0.033560 -0.018820 -0.003942 0.000000 0.000000 0.000000
# 2 -0.018820 0.033560 -0.003942 0.000000 0.000000 0.000000
# 3 -0.003942 -0.003942 0.014159 0.000000 0.000000 0.000000
# 4 0.000000 0.000000 0.000000 0.085482 0.000000 0.000000
# 5 0.000000 0.000000 0.000000 0.000000 0.085482 0.000000
# 6 0.000000 0.000000 0.000000 0.000000 0.000000 0.059306
#
#
# Mechanical properties :
#
#
# Convention : Reuss Voigt Hill
#
# Bulk Modulus (GPa) = 35.88215 36.80029 36.34122
# Shear Modulus (GPa) = 13.36012 15.19103 14.27557
#
# Velocity S-wave (km/s) = 3.06863 3.27215 3.17202
# Velocity P-wave (km/s) = 6.15189 6.34141 6.24737
#
# Compressibility (1/GPa) = 0.02786901
#
# Stress axis : x y z
#
# Youngs Moduli (GPa) = 29.79754 29.79754 70.62543
#
# Poissons Ratio (x) = 0.56080 0.27842
# Poissons Ratio (y) = 0.56080 0.27842
# Poissons Ratio (z) = 0.11747 0.11747
#
# Static dielectric constant tensor:
#      x y z
#    x 2.644040 0.000000 0.000000 
#    y 0.000000 2.644040 0.000000 
#    z 0.000000 0.000000 3.112490 
# 
# 
# High freq. dielectric constant tensor:
#      x y z
#    x 1.518810 0.000000 0.000000 
#    y 0.000000 1.518810 0.000000 
#    z 0.000000 0.000000 1.536800 
# 
# From -- ./inp_files/6051.got.cif
#   From: 2010.03.12/outbox.cif.g09.slc.cpg/sg123_4_cif.got.tgz:6051.got - 2010.04.06 16:26:55.
