data_PCOD8313409
_publ_section_title
;
Structure prediction by ZEFSAII (Michael W. Deem and Ramdas Pophale) SiO2 
 PCOD8313409
Probable space group: P 4/N B M
;
_chemical_formula_sum "Si O2"
_cell_formula_units_Z 112
_cell_length_a 15.236715
_cell_length_b 15.236715
_cell_length_c 25.965359
_cell_angle_alpha 90.000000
_cell_angle_beta 90.000000
_cell_angle_gamma 90.000000
_cell_volume 6028.052416
_symmetry_space_group_name_H-M "P 4/N B M"
_symmetry_group_IT_number 125
_space_group.IT_coordinate_system_code '2'
_symmetry_cell_setting 'tetragonal'
loop_
_space_group_symop_operation_xyz
x,y,z
1/2-y,x,z
1/2-x,1/2-y,z
y,1/2-x,z
x,1/2-y,-z
1/2-x,y,-z
y,x,-z
1/2-y,1/2-x,-z
-x,-y,-z
1/2+y,-x,-z
1/2+x,1/2+y,-z
-y,1/2+x,-z
-x,1/2+y,z
1/2+x,-y,z
-y,-x,z
1/2+y,1/2+x,z
loop_
_atom_site_type_symbol
_atom_site_label
_atom_site_fract_x
_atom_site_fract_y
_atom_site_fract_z
Si Si1 0.494317 0.769212 0.154984
Si Si2 0.607305 0.254461 0.442646
Si Si3 0.333238 0.130483 0.712717
Si Si4 0.412262 0.061927 0.815337
Si Si5 0.745933 0.390095 0.945084
Si Si6 0.522114 0.168109 0.351406
Si Si7 0.389140 0.750261 0.744166
O O1 0.567663 0.844180 0.159211
O O2 0.528952 0.670228 0.151921
O O3 0.445808 0.784677 0.101533
O O4 0.434681 0.786023 0.204966
O O5 0.566220 0.250000 0.500000
O O6 0.648826 0.351175 0.431721
O O7 0.685466 0.185466 0.437753
O O8 0.531587 0.229118 0.402001
O O9 0.370338 0.227761 0.716524
O O10 0.377835 0.072049 0.757072
O O11 0.357664 0.080187 0.658816
O O12 0.494003 0.994003 0.817250
O O13 0.648243 0.351758 0.932159
O O14 0.808957 0.308957 0.954257
O O15 0.750000 0.443207 0.000000
O O16 0.581563 0.081563 0.356235
O O17 0.545835 0.228191 0.302253
O O18 0.323144 0.676857 0.722588
O O19 0.337864 0.837864 0.760941
#
# Coordination Sequence:
#
# PCOD8313409 Si02
#       7
#    16  16  16  16  16  16  16
#     4  12  23  36  54  81 114 148 190 233 275 336
#     4   8  14  26  47  77 113 150 184 225 287 353
#     4  11  22  38  55  75 108 150 191 226 273 333
#     4  12  23  37  58  83 112 150 189 231 284 336
#     4   9  18  35  59  84 112 147 188 240 299 350
#     4  10  18  31  51  78 108 137 179 231 280 336
#     4  10  18  28  46  73 105 136 170 226 290 336
#
# _framework density 18.579799000000001
#
# number of rings (size 3 to 8) (size 9 to 14) (size 15 to 20)
#    0.000    1.714    2.857    4.286    0.000    3.143 
#    0.000    2.857    0.000    3.429    0.000    5.000 
#    0.000    0.000    0.000    0.000    0.000    0.000 
#
# Total GULP energy -1387992.025726 kJ/mol
# GULP energy per Si atom -12392.785944 kJ/mol
# Density = 1.853751 g / cm^3
# Si number density = 18.579799 Si / 1000 Ang^3
#
#
#
# Elastic Constant Matrix: (Units=GPa)
#
#
# Indices 1 2 3 4 5 6 
#
# 1 77.8874 25.4357 30.9278 0.0000 0.0000 0.0000
# 2 25.4357 77.8874 30.9278 0.0000 0.0000 0.0000
# 3 30.9278 30.9278 116.0419 0.0000 0.0000 0.0000
# 4 0.0000 0.0000 0.0000 15.4937 0.0000 0.0000
# 5 0.0000 0.0000 0.0000 0.0000 15.4937 0.0000
# 6 0.0000 0.0000 0.0000 0.0000 0.0000 19.8414
#
#
#
# Elastic Compliance Matrix: (Units=1/GPa)
#
#
# Indices 1 2 3 4 5 6 
#
# 1 0.015290 -0.003775 -0.003069 0.000000 0.000000 0.000000
# 2 -0.003775 0.015290 -0.003069 0.000000 0.000000 0.000000
# 3 -0.003069 -0.003069 0.010254 0.000000 0.000000 0.000000
# 4 0.000000 0.000000 0.000000 0.064542 0.000000 0.000000
# 5 0.000000 0.000000 0.000000 0.000000 0.064542 0.000000
# 6 0.000000 0.000000 0.000000 0.000000 0.000000 0.050400
#
#
# Mechanical properties :
#
#
# Convention : Reuss Voigt Hill
#
# Bulk Modulus (GPa) = 47.60018 49.59994 48.60006
# Shear Modulus (GPa) = 20.23082 22.46747 21.34915
#
# Velocity S-wave (km/s) = 3.30337 3.48119 3.39344
# Velocity P-wave (km/s) = 6.34229 6.55071 6.44734
#
# Compressibility (1/GPa) = 0.02100832
#
# Stress axis : x y z
#
# Youngs Moduli (GPa) = 65.40019 65.40019 97.52658
#
# Poissons Ratio (x) = 0.24686 0.29933
# Poissons Ratio (y) = 0.24686 0.29933
# Poissons Ratio (z) = 0.20073 0.20073
#
# Static dielectric constant tensor:
#      x y z
#    x 3.442920 0.000000 0.000000 
#    y 0.000000 3.442920 0.000000 
#    z 0.000000 0.000000 3.513260 
# 
# 
# High freq. dielectric constant tensor:
#      x y z
#    x 1.709220 0.000000 0.000000 
#    y 0.000000 1.709220 0.000000 
#    z 0.000000 0.000000 1.708990 
# 
# From -- ./inp_files/6447.got.cif
#   From: 2010.03.12/outbox.cif.g09.slc.cpg/sg125_4_cif.got.tgz:6447.got - 2010.04.06 16:47:52.
