data_PCOD8313065
_publ_section_title
;
Structure prediction by ZEFSAII (Michael W. Deem and Ramdas Pophale) SiO2 
 PCOD8313065
Probable space group: P 4/M C C
;
_chemical_formula_sum "Si O2"
_cell_formula_units_Z 96
_cell_length_a 24.859949
_cell_length_b 24.859949
_cell_length_c 8.925075
_cell_angle_alpha 90.000000
_cell_angle_beta 90.000000
_cell_angle_gamma 90.000000
_cell_volume 5515.848650
_symmetry_space_group_name_H-M "P 4/M C C"
_symmetry_group_IT_number 124
_symmetry_cell_setting 'tetragonal'
loop_
_space_group_symop_operation_xyz
x,y,z
-y,x,z
-x,-y,z
y,-x,z
x,-y,1/2-z
-x,y,1/2-z
y,x,1/2-z
-y,-x,1/2-z
-x,-y,-z
y,-x,-z
x,y,-z
-y,x,-z
-x,y,1/2+z
x,-y,1/2+z
-y,-x,1/2+z
y,x,1/2+z
loop_
_atom_site_type_symbol
_atom_site_label
_atom_site_fract_x
_atom_site_fract_y
_atom_site_fract_z
Si Si1 0.222511 0.855116 0.173164
Si Si2 0.261490 0.447737 0.177828
Si Si3 0.943562 0.134363 0.324480
Si Si4 0.551876 0.855405 0.821501
Si Si5 0.331088 0.142383 0.165604
Si Si6 0.657084 0.269194 0.332469
O O1 0.198761 0.801240 0.250000
O O2 0.184855 0.905530 0.210403
O O3 0.282420 0.872010 0.224048
O O4 0.224486 0.841351 0.000000
O O5 0.290529 0.500000 0.250000
O O6 0.200380 0.447322 0.233539
O O7 0.290545 0.394418 0.239807
O O8 0.264484 0.449735 0.000000
O O9 0.919194 0.080807 0.250000
O O10 0.950633 0.124083 0.500000
O O11 0.000000 0.148067 0.250000
O O12 0.500000 0.887675 0.750000
O O13 0.610393 0.883877 0.790136
O O14 0.544570 0.846758 0.000000
O O15 0.340592 0.205536 0.165051
O O16 0.314320 0.122404 0.000000
O O17 0.710353 0.289648 0.250000
O O18 0.654013 0.292395 0.500000
#
# Coordination Sequence:
#
# PCOD8313065 Si02
#       6
#    16  16  16  16  16  16
#     4  10  20  32  48  69  95 126 160 195 235 280
#     4  10  17  26  39  53  71  99 132 169 212 258
#     4  10  21  37  56  79 104 132 164 201 241 284
#     4   9  16  26  39  57  81 112 150 191 230 270
#     4   9  18  29  42  61  88 121 156 190 227 271
#     4  10  19  29  39  56  80 107 140 176 212 255
#
# _framework density 17.404394
#
# number of rings (size 3 to 8) (size 9 to 14) (size 15 to 20)
#    0.000    2.333    0.000    6.000    0.000    7.500 
#    0.000    0.833    0.000    0.000    0.000    0.000 
#    0.000    1.000    0.000   10.667    0.000    7.667 
#
# Total GULP energy -1189586.633851 kJ/mol
# GULP energy per Si atom -12391.527436 kJ/mol
# Density = 1.736478 g / cm^3
# Si number density = 17.404394 Si / 1000 Ang^3
#
#
#
# Elastic Constant Matrix: (Units=GPa)
#
#
# Indices 1 2 3 4 5 6 
#
# 1 73.2673 17.7058 40.4143 0.0000 0.0000 0.0000
# 2 17.7058 73.2717 40.4162 0.0000 0.0000 0.0000
# 3 40.4143 40.4162 131.9371 0.0000 0.0000 0.0000
# 4 0.0000 0.0000 0.0000 25.6440 0.0000 0.0000
# 5 0.0000 0.0000 0.0000 0.0000 25.6434 0.0000
# 6 0.0000 0.0000 0.0000 0.0000 0.0000 8.2988
#
#
#
# Elastic Compliance Matrix: (Units=1/GPa)
#
#
# Indices 1 2 3 4 5 6 
#
# 1 0.016550 -0.001448 -0.004626 0.000000 0.000000 0.000000
# 2 -0.001448 0.016549 -0.004626 0.000000 0.000000 0.000000
# 3 -0.004626 -0.004626 0.010414 0.000000 0.000000 0.000000
# 4 0.000000 0.000000 0.000000 0.038995 0.000000 0.000000
# 5 0.000000 0.000000 0.000000 0.000000 0.038996 0.000000
# 6 0.000000 0.000000 0.000000 0.000000 0.000000 0.120500
#
#
# Mechanical properties :
#
#
# Convention : Reuss Voigt Hill
#
# Bulk Modulus (GPa) = 45.22129 52.83876 49.03003
# Shear Modulus (GPa) = 18.46547 23.91322 21.18935
#
# Velocity S-wave (km/s) = 3.26078 3.71074 3.49301
# Velocity P-wave (km/s) = 6.34161 6.98461 6.67086
#
# Compressibility (1/GPa) = 0.02211348
#
# Stress axis : x y z
#
# Youngs Moduli (GPa) = 60.42196 60.42517 96.02864
#
# Poissons Ratio (x) = 0.08747 0.44425
# Poissons Ratio (y) = 0.08746 0.44424
# Poissons Ratio (z) = 0.27952 0.27954
#
# Static dielectric constant tensor:
#      x y z
#    x 3.345330 0.000000 0.000000 
#    y 0.000000 3.345320 0.000000 
#    z 0.000000 0.000000 3.431510 
# 
# 
# High freq. dielectric constant tensor:
#      x y z
#    x 1.643960 0.000000 0.000000 
#    y 0.000000 1.643960 0.000000 
#    z 0.000000 0.000000 1.690600 
# 
# From -- ./inp_files/1346.got.cif
#   From: 2010.03.12/outbox.cif.g09.slc.cpg/sg124_1_cif.got.tgz:1346.got - 2010.04.06 16:38:57.
