data_PCOD8313384
_publ_section_title
;
Structure prediction by ZEFSAII (Michael W. Deem and Ramdas Pophale) SiO2 
 PCOD8313384
Probable space group: P 4/M C C
;
_chemical_formula_sum "Si O2"
_cell_formula_units_Z 96
_cell_length_a 13.901959
_cell_length_b 13.901959
_cell_length_c 23.168902
_cell_angle_alpha 90.000000
_cell_angle_beta 90.000000
_cell_angle_gamma 90.000000
_cell_volume 4477.725427
_symmetry_space_group_name_H-M "P 4/M C C"
_symmetry_group_IT_number 124
_symmetry_cell_setting 'tetragonal'
loop_
_space_group_symop_operation_xyz
x,y,z
-y,x,z
-x,-y,z
y,-x,z
x,-y,1/2-z
-x,y,1/2-z
y,x,1/2-z
-y,-x,1/2-z
-x,-y,-z
y,-x,-z
x,y,-z
-y,x,-z
-x,y,1/2+z
x,-y,1/2+z
-y,-x,1/2+z
y,x,1/2+z
loop_
_atom_site_type_symbol
_atom_site_label
_atom_site_fract_x
_atom_site_fract_y
_atom_site_fract_z
Si Si1 0.328125 0.204121 0.133067
Si Si2 0.031920 0.846990 0.433080
Si Si3 0.386207 0.393977 0.314665
Si Si4 0.389971 0.113556 0.749509
Si Si5 0.144166 0.303231 0.873577
Si Si6 0.498730 0.890414 0.068038
O O1 0.342389 0.318841 0.140219
O O2 0.335631 0.149643 0.193762
O O3 0.218963 0.215680 0.110482
O O4 0.402810 0.160735 0.087665
O O5 0.038956 0.816912 0.500000
O O6 0.045495 0.749441 0.394558
O O7 0.927463 0.888458 0.418459
O O8 0.494733 0.366378 0.325549
O O9 0.360245 0.360245 0.250000
O O10 0.500000 0.154340 0.750000
O O11 0.329632 0.147702 0.694053
O O12 0.393687 0.000000 0.750000
O O13 0.160666 0.403412 0.907421
O O14 0.500000 0.000000 0.091293
O O15 0.495226 0.885775 0.000000
#
# Coordination Sequence:
#
# PCOD8313384 Si02
#       6
#    16  16  16  16  16  16
#     4  12  24  40  63  97 130 171 218 275 331 401
#     4   9  21  42  68  99 135 177 228 287 344 399
#     4   9  18  32  54  84 119 157 201 255 311 375
#     4  11  24  42  65  94 137 180 219 274 342 405
#     4  12  24  40  71 102 132 175 233 278 337 409
#     4  11  26  46  68  97 135 176 223 281 341 402
#
# _framework density 21.439457000000001
#
# number of rings (size 3 to 8) (size 9 to 14) (size 15 to 20)
#    0.000    1.333    1.667    5.000    7.000    1.333 
#    0.000    0.000    0.000    0.000    0.000    3.500 
#    0.000    0.000    0.000    0.000    0.000    0.000 
#
# Total GULP energy -1189826.946605 kJ/mol
# GULP energy per Si atom -12394.030694 kJ/mol
# Density = 2.139066 g / cm^3
# Si number density = 21.439457 Si / 1000 Ang^3
#
#
#
# Elastic Constant Matrix: (Units=GPa)
#
#
# Indices 1 2 3 4 5 6 
#
# 1 74.5344 30.4862 29.8662 0.0000 0.0000 0.0000
# 2 30.4862 74.5344 29.8662 0.0000 0.0000 0.0000
# 3 29.8662 29.8662 81.5502 0.0000 0.0000 0.0000
# 4 0.0000 0.0000 0.0000 37.2415 0.0000 0.0000
# 5 0.0000 0.0000 0.0000 0.0000 37.2415 0.0000
# 6 0.0000 0.0000 0.0000 0.0000 0.0000 43.4033
#
#
#
# Elastic Compliance Matrix: (Units=1/GPa)
#
#
# Indices 1 2 3 4 5 6 
#
# 1 0.017365 -0.005338 -0.004405 0.000000 0.000000 0.000000
# 2 -0.005338 0.017365 -0.004405 0.000000 0.000000 0.000000
# 3 -0.004405 -0.004405 0.015489 0.000000 0.000000 0.000000
# 4 0.000000 0.000000 0.000000 0.026852 0.000000 0.000000
# 5 0.000000 0.000000 0.000000 0.000000 0.026852 0.000000
# 6 0.000000 0.000000 0.000000 0.000000 0.000000 0.023040
#
#
# Mechanical properties :
#
#
# Convention : Reuss Voigt Hill
#
# Bulk Modulus (GPa) = 45.61175 45.67290 45.64232
# Shear Modulus (GPa) = 30.75717 32.93729 31.84723
#
# Velocity S-wave (km/s) = 3.79173 3.92381 3.85833
# Velocity P-wave (km/s) = 6.36321 6.47131 6.41749
#
# Compressibility (1/GPa) = 0.02192418
#
# Stress axis : x y z
#
# Youngs Moduli (GPa) = 57.58776 57.58776 64.56327
#
# Poissons Ratio (x) = 0.30738 0.28438
# Poissons Ratio (y) = 0.30738 0.28438
# Poissons Ratio (z) = 0.25366 0.25366
#
# Static dielectric constant tensor:
#      x y z
#    x 3.889410 0.000000 0.000000 
#    y 0.000000 3.889410 0.000000 
#    z 0.000000 0.000000 3.642850 
# 
# 
# High freq. dielectric constant tensor:
#      x y z
#    x 1.856310 0.000000 0.000000 
#    y 0.000000 1.856310 0.000000 
#    z 0.000000 0.000000 1.821060 
# 
# From -- ./inp_files/5329.got.cif
#   From: 2010.03.12/outbox.cif.g09.slc.cpg/sg124_3_cif.got.tgz:5329.got - 2010.04.06 16:38:57.
