data_PCOD8313141
_publ_section_title
;
Structure prediction by ZEFSAII (Michael W. Deem and Ramdas Pophale) SiO2 
 PCOD8313141
Probable space group: P 4/M C C
;
_chemical_formula_sum "Si O2"
_cell_formula_units_Z 96
_cell_length_a 17.921601
_cell_length_b 17.921601
_cell_length_c 17.169524
_cell_angle_alpha 90.000000
_cell_angle_beta 90.000000
_cell_angle_gamma 90.000000
_cell_volume 5514.572660
_symmetry_space_group_name_H-M "P 4/M C C"
_symmetry_group_IT_number 124
_symmetry_cell_setting 'tetragonal'
loop_
_space_group_symop_operation_xyz
x,y,z
-y,x,z
-x,-y,z
y,-x,z
x,-y,1/2-z
-x,y,1/2-z
y,x,1/2-z
-y,-x,1/2-z
-x,-y,-z
y,-x,-z
x,y,-z
-y,x,-z
-x,y,1/2+z
x,-y,1/2+z
-y,-x,1/2+z
y,x,1/2+z
loop_
_atom_site_type_symbol
_atom_site_label
_atom_site_fract_x
_atom_site_fract_y
_atom_site_fract_z
Si Si1 0.948257 0.631895 0.321857
Si Si2 0.333337 0.082418 0.412412
Si Si3 0.435512 0.397311 0.588208
Si Si4 0.177626 0.701475 0.728706
Si Si5 0.440320 0.734247 0.811388
Si Si6 0.865273 0.499690 0.589116
O O1 0.887519 0.691547 0.291943
O O2 0.909872 0.560600 0.361316
O O3 0.000000 0.603692 0.250000
O O4 0.998011 0.679547 0.382812
O O5 0.303017 0.093193 0.500000
O O6 0.290853 0.142808 0.358281
O O7 0.422732 0.089717 0.408167
O O8 0.523684 0.398898 0.605416
O O9 0.419933 0.373285 0.500000
O O10 0.401268 0.335045 0.644475
O O11 0.226033 0.773968 0.750000
O O12 0.224738 0.625753 0.733403
O O13 0.500000 0.704005 0.750000
O O14 0.484800 0.784841 0.873338
O O15 0.855214 0.527361 0.500000
#
# Coordination Sequence:
#
# PCOD8313141 Si02
#       6
#    16  16  16  16  16  16
#     4  10  19  32  52  76 102 137 171 211 252 306
#     4   9  19  34  54  76 104 136 172 214 257 307
#     4   9  20  37  51  63  82 117 174 241 295 329
#     4  10  22  36  50  73 110 142 173 207 264 316
#     4  11  21  31  49  70  98 132 173 219 268 313
#     4  10  19  31  48  76 103 129 167 210 257 310
#
# _framework density 17.408418999999999
#
# number of rings (size 3 to 8) (size 9 to 14) (size 15 to 20)
#    0.000    2.167    1.667    2.000    2.333    5.333 
#    0.000    2.500    0.000    0.000    0.000    0.000 
#    0.000   27.000    0.000   13.500    0.000    0.000 
#
# Total GULP energy -1190199.881940 kJ/mol
# GULP energy per Si atom -12397.915437 kJ/mol
# Density = 1.736880 g / cm^3
# Si number density = 17.408419 Si / 1000 Ang^3
#
#
#
# Elastic Constant Matrix: (Units=GPa)
#
#
# Indices 1 2 3 4 5 6 
#
# 1 62.4083 15.7628 36.3680 0.0000 0.0000 0.0000
# 2 15.7628 62.4077 36.3673 0.0000 0.0000 0.0000
# 3 36.3680 36.3673 110.0924 0.0000 0.0000 0.0000
# 4 0.0000 0.0000 0.0000 23.7666 0.0000 0.0000
# 5 0.0000 0.0000 0.0000 0.0000 23.7670 0.0000
# 6 0.0000 0.0000 0.0000 0.0000 0.0000 19.4700
#
#
#
# Elastic Compliance Matrix: (Units=1/GPa)
#
#
# Indices 1 2 3 4 5 6 
#
# 1 0.019954 -0.001485 -0.006101 0.000000 0.000000 0.000000
# 2 -0.001485 0.019954 -0.006101 0.000000 0.000000 0.000000
# 3 -0.006101 -0.006101 0.013114 0.000000 0.000000 0.000000
# 4 0.000000 0.000000 0.000000 0.042076 0.000000 0.000000
# 5 0.000000 0.000000 0.000000 0.000000 0.042075 0.000000
# 6 0.000000 0.000000 0.000000 0.000000 0.000000 0.051361
#
#
# Mechanical properties :
#
#
# Convention : Reuss Voigt Hill
#
# Bulk Modulus (GPa) = 38.98878 45.76718 42.37798
# Shear Modulus (GPa) = 22.27598 23.16141 22.71869
#
# Velocity S-wave (km/s) = 3.58104 3.65152 3.61645
# Velocity P-wave (km/s) = 6.28837 6.64270 6.46796
#
# Compressibility (1/GPa) = 0.02564840
#
# Stress axis : x y z
#
# Youngs Moduli (GPa) = 50.11556 50.11538 76.25353
#
# Poissons Ratio (x) = 0.07440 0.46524
# Poissons Ratio (y) = 0.07440 0.46523
# Poissons Ratio (z) = 0.30576 0.30576
#
# Static dielectric constant tensor:
#      x y z
#    x 3.060610 0.000000 0.000000 
#    y 0.000000 3.060610 0.000000 
#    z 0.000000 0.000000 3.506870 
# 
# 
# High freq. dielectric constant tensor:
#      x y z
#    x 1.644570 0.000000 0.000000 
#    y 0.000000 1.644570 0.000000 
#    z 0.000000 0.000000 1.688910 
# 
# From -- ./inp_files/4276.got.cif
#   From: 2010.03.12/outbox.cif.g09.slc.cpg/sg124_3_cif.got.tgz:4276.got - 2010.04.06 16:38:57.
