data_PCOD8313608
_publ_section_title
;
Structure prediction by ZEFSAII (Michael W. Deem and Ramdas Pophale) SiO2 
 PCOD8313608
Probable space group: P 4/N B M
;
_chemical_formula_sum "Si O2"
_cell_formula_units_Z 56
_cell_length_a 11.509527
_cell_length_b 11.509527
_cell_length_c 21.284140
_cell_angle_alpha 90.000000
_cell_angle_beta 90.000000
_cell_angle_gamma 90.000000
_cell_volume 2819.493249
_symmetry_space_group_name_H-M "P 4/N B M"
_symmetry_group_IT_number 125
_space_group.IT_coordinate_system_code '2'
_symmetry_cell_setting 'tetragonal'
loop_
_space_group_symop_operation_xyz
x,y,z
1/2-y,x,z
1/2-x,1/2-y,z
y,1/2-x,z
x,1/2-y,-z
1/2-x,y,-z
y,x,-z
1/2-y,1/2-x,-z
-x,-y,-z
1/2+y,-x,-z
1/2+x,1/2+y,-z
-y,1/2+x,-z
-x,1/2+y,z
1/2+x,-y,z
-y,-x,z
1/2+y,1/2+x,z
loop_
_atom_site_type_symbol
_atom_site_label
_atom_site_fract_x
_atom_site_fract_y
_atom_site_fract_z
Si Si1 0.344924 0.655077 0.850179
Si Si2 0.763676 0.562309 0.927280
Si Si3 0.652423 0.347578 0.289640
Si Si4 0.250000 0.936831 0.500000
Si Si5 0.280878 0.062419 0.372526
O O1 0.250000 0.750000 0.838058
O O2 0.447636 0.717121 0.887683
O O3 0.385178 0.614823 0.780953
O O4 0.872456 0.644480 0.910487
O O5 0.750000 0.528471 0.000000
O O6 0.750000 0.250000 0.291850
O O7 0.539789 0.296942 0.323277
O O8 0.356668 0.856668 0.523241
O O9 0.292556 0.016793 0.443315
O O10 0.382200 0.155233 0.361305
#
# Coordination Sequence:
#
# PCOD8313608 Si02
#       5
#     8  16   8   8  16
#     4  11  26  39  63  97 127 170 216 261 310 390
#     4   9  21  41  65  95 130 166 209 265 321 371
#     4  11  26  46  62  89 133 171 213 263 322 378
#     4  11  22  37  66 102 130 163 205 268 330 378
#     4  11  25  43  67  96 125 167 219 268 319 383
#
# _framework density 19.861723000000001
#
# number of rings (size 3 to 8) (size 9 to 14) (size 15 to 20)
#    0.000    1.571    1.429    2.571    8.000    5.714 
#    0.000    2.857    0.000    0.000    0.000    0.000 
#    0.000    0.000    0.000    0.000    0.000    0.000 
#
# Total GULP energy -694478.339092 kJ/mol
# GULP energy per Si atom -12401.398912 kJ/mol
# Density = 1.981652 g / cm^3
# Si number density = 19.861723 Si / 1000 Ang^3
#
#
#
# Elastic Constant Matrix: (Units=GPa)
#
#
# Indices 1 2 3 4 5 6 
#
# 1 119.6732 48.4997 61.6451 0.0000 0.0000 0.0000
# 2 48.4997 119.6732 61.6451 0.0000 0.0000 0.0000
# 3 61.6451 61.6451 133.8293 0.0000 0.0000 0.0000
# 4 0.0000 0.0000 0.0000 -21.8524 0.0000 0.0000
# 5 0.0000 0.0000 0.0000 0.0000 -21.8524 0.0000
# 6 0.0000 0.0000 0.0000 0.0000 0.0000 25.3227
#
#
#
# Elastic Compliance Matrix: (Units=1/GPa)
#
#
# Indices 1 2 3 4 5 6 
#
# 1 0.011514 -0.002536 -0.004136 0.000000 0.000000 0.000000
# 2 -0.002536 0.011514 -0.004136 0.000000 0.000000 0.000000
# 3 -0.004136 -0.004136 0.011282 0.000000 0.000000 0.000000
# 4 0.000000 0.000000 0.000000 -0.045761 0.000000 0.000000
# 5 0.000000 0.000000 0.000000 0.000000 -0.045761 0.000000
# 6 0.000000 0.000000 0.000000 0.000000 0.000000 0.039490
#
#
# Mechanical properties :
#
#
# Convention : Reuss Voigt Hill
#
# Bulk Modulus (GPa) = 78.76429 79.63952 79.20191
# Shear Modulus (GPa) = 615.47051 9.74928 312.60990
#
# Velocity S-wave (km/s) = 17.62244 2.21793 12.55925
# Velocity P-wave (km/s) = 21.30281 6.83689 15.82012
#
# Compressibility (1/GPa) = 0.01269611
#
# Stress axis : x y z
#
# Youngs Moduli (GPa) = 86.84986 86.84986 88.63635
#
# Poissons Ratio (x) = 0.22026 0.36656
# Poissons Ratio (y) = 0.22026 0.36656
# Poissons Ratio (z) = 0.35917 0.35917
#
# Static dielectric constant tensor:
#      x y z
#    x 3.778770 0.000000 0.000000 
#    y 0.000000 3.778770 0.000000 
#    z 0.000000 0.000000 3.628650 
# 
# 
# High freq. dielectric constant tensor:
#      x y z
#    x 1.786170 0.000000 0.000000 
#    y 0.000000 1.786170 0.000000 
#    z 0.000000 0.000000 1.772130 
# 
# From -- ./inp_files/5699.got.cif
#   From: 2010.03.12/outbox.cif.g09.slc.cpg/sg125_3_cif.got.tgz:5699.got - 2010.04.06 16:47:52.
