data_PCOD8313234
_publ_section_title
;
Structure prediction by ZEFSAII (Michael W. Deem and Ramdas Pophale) SiO2 
 PCOD8313234
Probable space group: P 4/M C C
;
_chemical_formula_sum "Si O2"
_cell_formula_units_Z 88
_cell_length_a 11.452280
_cell_length_b 11.452280
_cell_length_c 32.238200
_cell_angle_alpha 90.000000
_cell_angle_beta 90.000000
_cell_angle_gamma 90.000000
_cell_volume 4228.192004
_symmetry_space_group_name_H-M "P 4/M C C"
_symmetry_group_IT_number 124
_symmetry_cell_setting 'tetragonal'
loop_
_space_group_symop_operation_xyz
x,y,z
-y,x,z
-x,-y,z
y,-x,z
x,-y,1/2-z
-x,y,1/2-z
y,x,1/2-z
-y,-x,1/2-z
-x,-y,-z
y,-x,-z
x,y,-z
-y,x,-z
-x,y,1/2+z
x,-y,1/2+z
-y,-x,1/2+z
y,x,1/2+z
loop_
_atom_site_type_symbol
_atom_site_label
_atom_site_fract_x
_atom_site_fract_y
_atom_site_fract_z
Si Si1 0.250000 0.750000 0.111832
Si Si2 0.907150 0.329015 0.181244
Si Si3 0.829926 0.911725 0.454135
Si Si4 0.170986 0.407150 0.818756
Si Si5 0.750000 0.250000 0.250000
Si Si6 0.411726 0.329926 0.954135
O O1 0.134003 0.740110 0.140162
O O2 0.252301 0.863877 0.082246
O O3 0.365997 0.759890 0.140162
O O4 0.247699 0.636122 0.082246
O O5 0.841991 0.454353 0.182305
O O6 0.865420 0.253482 0.220942
O O7 0.045647 0.341991 0.182305
O O8 0.777933 0.884738 0.500000
O O9 0.951546 0.844600 0.448854
O O10 0.246518 0.365420 0.779058
O O11 0.548454 0.344601 0.948854
O O12 0.384739 0.277932 0.000000
#
# Coordination Sequence:
#
# PCOD8313234 Si02
#       6
#    16  16  16  16   8  16
#     4  11  19  31  53  78 102 132 173 211 249 295
#     4  10  21  36  54  77 104 131 161 202 252 303
#     4   9  18  32  49  71 102 139 176 213 252 293
#     4  10  21  36  54  77 104 131 161 202 252 303
#     4  10  20  34  58  74  90 126 166 194 232 300
#     4   9  18  32  49  71 102 139 176 213 252 293
#
# _framework density 20.812677999999998
#
# number of rings (size 3 to 8) (size 9 to 14) (size 15 to 20)
#    0.000    2.182    0.000    4.909    0.000    1.455 
#    0.000    0.000    0.000   41.455    0.000   15.273 
#    0.000    0.000    0.000    0.000    0.000    0.000 
#
# Total GULP energy -1090820.783958 kJ/mol
# GULP energy per Si atom -12395.690727 kJ/mol
# Density = 2.076531 g / cm^3
# Si number density = 20.812678 Si / 1000 Ang^3
#
#
#
# Elastic Constant Matrix: (Units=GPa)
#
#
# Indices 1 2 3 4 5 6 
#
# 1 42.8645 4.0907 23.2824 0.0000 0.0000 0.0000
# 2 4.0907 42.8645 23.2824 0.0000 0.0000 0.0000
# 3 23.2824 23.2824 153.2650 0.0000 0.0000 0.0000
# 4 0.0000 0.0000 0.0000 22.7574 0.0000 0.0000
# 5 0.0000 0.0000 0.0000 0.0000 22.7574 0.0000
# 6 0.0000 0.0000 0.0000 0.0000 0.0000 30.5077
#
#
#
# Elastic Compliance Matrix: (Units=1/GPa)
#
#
# Indices 1 2 3 4 5 6 
#
# 1 0.025432 -0.000358 -0.003809 0.000000 0.000000 0.000000
# 2 -0.000358 0.025432 -0.003809 0.000000 0.000000 0.000000
# 3 -0.003809 -0.003809 0.007682 0.000000 0.000000 0.000000
# 4 0.000000 0.000000 0.000000 0.043942 0.000000 0.000000
# 5 0.000000 0.000000 0.000000 0.000000 0.043942 0.000000
# 6 0.000000 0.000000 0.000000 0.000000 0.000000 0.032779
#
#
# Mechanical properties :
#
#
# Convention : Reuss Voigt Hill
#
# Bulk Modulus (GPa) = 23.47727 37.81166 30.64446
# Shear Modulus (GPa) = 23.88235 27.76038 25.82136
#
# Velocity S-wave (km/s) = 3.39114 3.65611 3.52612
# Velocity P-wave (km/s) = 5.16119 6.00249 5.59767
#
# Compressibility (1/GPa) = 0.04259440
#
# Stress axis : x y z
#
# Youngs Moduli (GPa) = 39.31984 39.31984 130.17615
#
# Poissons Ratio (x) = 0.01408 0.49584
# Poissons Ratio (y) = 0.01408 0.49584
# Poissons Ratio (z) = 0.14977 0.14977
#
# Static dielectric constant tensor:
#      x y z
#    x 3.509270 0.000000 0.000000 
#    y 0.000000 3.509270 0.000000 
#    z 0.000000 0.000000 4.069130 
# 
# 
# High freq. dielectric constant tensor:
#      x y z
#    x 1.790200 0.000000 0.000000 
#    y 0.000000 1.790200 0.000000 
#    z 0.000000 0.000000 1.842910 
# 
# From -- ./inp_files/7100.got.cif
#   From: 2010.03.12/outbox.cif.g09.slc.cpg/sg124_4_cif.got.tgz:7100.got - 2010.04.06 16:38:57.
