data_PCOD8313984
_publ_section_title
;
Structure prediction by ZEFSAII (Michael W. Deem and Ramdas Pophale) SiO2 
 PCOD8313984
Probable space group: P 4/M B M
;
_chemical_formula_sum "Si O2"
_cell_formula_units_Z 52
_cell_length_a 14.655480
_cell_length_b 14.655480
_cell_length_c 13.143561
_cell_angle_alpha 90.000000
_cell_angle_beta 90.000000
_cell_angle_gamma 90.000000
_cell_volume 2823.014698
_symmetry_space_group_name_H-M "P 4/M B M"
_symmetry_group_IT_number 127
_symmetry_cell_setting 'tetragonal'
loop_
_space_group_symop_operation_xyz
x,y,z
-y,x,z
-x,-y,z
y,-x,z
1/2+x,1/2-y,-z
1/2-x,1/2+y,-z
1/2+y,1/2+x,-z
1/2-y,1/2-x,-z
-x,-y,-z
y,-x,-z
x,y,-z
-y,x,-z
1/2-x,1/2+y,z
1/2+x,1/2-y,z
1/2-y,1/2-x,z
1/2+y,1/2+x,z
loop_
_atom_site_type_symbol
_atom_site_label
_atom_site_fract_x
_atom_site_fract_y
_atom_site_fract_z
Si Si1 0.317501 0.182500 0.000000
Si Si2 0.737528 0.620552 0.000000
Si Si3 0.571989 0.928012 0.163133
Si Si4 0.215169 0.431256 0.788660
Si Si5 0.357431 0.455907 0.614475
O O1 0.333362 0.293138 0.000000
O O2 0.365562 0.134438 0.906568
O O3 0.729440 0.559268 0.896937
O O4 0.841818 0.658183 0.000000
O O5 0.512674 0.857361 0.229354
O O6 0.500000 0.000000 0.109742
O O7 0.166938 0.333063 0.789186
O O8 0.281207 0.429928 0.693998
O O9 0.440924 0.387973 0.632558
O O10 0.319291 0.444125 0.500000
#
# Coordination Sequence:
#
# PCOD8313984 Si02
#       5
#     4   8   8  16  16
#     4  10  19  32  54  77 116 150 192 224 262 331
#     4   8  19  31  48  82 110 141 182 228 265 320
#     4  10  21  34  55  82 114 162 189 222 283 344
#     4  10  20  36  56  83 117 146 190 230 279 335
#     4   9  20  39  60  80 107 147 188 233 291 345
#
# _framework density 18.420026
#
# number of rings (size 3 to 8) (size 9 to 14) (size 15 to 20)
#    0.462    2.154    0.000    2.077    4.308    3.077 
#    0.000    0.769    0.000    4.615    0.000    0.000 
#    0.000    0.000    0.000    0.000    0.000    0.000 
#
# Total GULP energy -644190.982883 kJ/mol
# GULP energy per Si atom -12388.288132 kJ/mol
# Density = 1.837810 g / cm^3
# Si number density = 18.420026 Si / 1000 Ang^3
#
#
#
# Elastic Constant Matrix: (Units=GPa)
#
#
# Indices 1 2 3 4 5 6 
#
# 1 64.3734 40.3813 56.9338 0.0000 0.0000 0.0000
# 2 40.3813 64.3741 56.9338 0.0000 0.0000 0.0000
# 3 56.9338 56.9338 147.9073 0.0000 0.0000 0.0000
# 4 0.0000 0.0000 0.0000 30.9780 0.0000 0.0000
# 5 0.0000 0.0000 0.0000 0.0000 30.9776 0.0000
# 6 0.0000 0.0000 0.0000 0.0000 0.0000 33.9178
#
#
#
# Elastic Compliance Matrix: (Units=1/GPa)
#
#
# Indices 1 2 3 4 5 6 
#
# 1 0.029047 -0.012633 -0.006318 0.000000 0.000000 0.000000
# 2 -0.012633 0.029047 -0.006318 0.000000 0.000000 0.000000
# 3 -0.006318 -0.006318 0.011625 0.000000 0.000000 0.000000
# 4 0.000000 0.000000 0.000000 0.032281 0.000000 0.000000
# 5 0.000000 0.000000 0.000000 0.000000 0.032281 0.000000
# 6 0.000000 0.000000 0.000000 0.000000 0.000000 0.029483
#
#
# Mechanical properties :
#
#
# Convention : Reuss Voigt Hill
#
# Bulk Modulus (GPa) = 52.13730 65.01697 58.57713
# Shear Modulus (GPa) = 22.65561 27.33508 24.99535
#
# Velocity S-wave (km/s) = 3.51086 3.85643 3.68770
# Velocity P-wave (km/s) = 6.69335 7.42987 7.07121
#
# Compressibility (1/GPa) = 0.01918013
#
# Stress axis : x y z
#
# Youngs Moduli (GPa) = 34.42696 34.42750 86.02087
#
# Poissons Ratio (x) = 0.43492 0.54350
# Poissons Ratio (y) = 0.43491 0.54349
# Poissons Ratio (z) = 0.21752 0.21752
#
# Static dielectric constant tensor:
#      x y z
#    x 3.311770 0.000000 0.000000 
#    y 0.000000 3.311770 0.000000 
#    z 0.000000 0.000000 3.343360 
# 
# 
# High freq. dielectric constant tensor:
#      x y z
#    x 1.704250 0.000000 0.000000 
#    y 0.000000 1.704250 0.000000 
#    z 0.000000 0.000000 1.702350 
# 
# From -- ./inp_files/2897.got.cif
#   From: 2010.03.12/outbox.cif.g09.slc.cpg/sg127_2_cif.got.tgz:2897.got - 2010.04.06 17:03:15.
