data_PCOD8313670
_publ_section_title
;
Structure prediction by ZEFSAII (Michael W. Deem and Ramdas Pophale) SiO2 
 PCOD8313670
Probable space group: P 4/N N C
;
_chemical_formula_sum "Si O2"
_cell_formula_units_Z 104
_cell_length_a 25.051207
_cell_length_b 25.051207
_cell_length_c 8.796574
_cell_angle_alpha 90.000000
_cell_angle_beta 90.000000
_cell_angle_gamma 90.000000
_cell_volume 5520.404124
_symmetry_space_group_name_H-M "P 4/N N C"
_symmetry_group_IT_number 126
_space_group.IT_coordinate_system_code '2'
_symmetry_cell_setting 'tetragonal'
loop_
_space_group_symop_operation_xyz
x,y,z
1/2-y,x,z
1/2-x,1/2-y,z
y,1/2-x,z
x,1/2-y,1/2-z
1/2-x,y,1/2-z
y,x,1/2-z
1/2-y,1/2-x,1/2-z
-x,-y,-z
1/2+y,-x,-z
1/2+x,1/2+y,-z
-y,1/2+x,-z
-x,1/2+y,1/2+z
1/2+x,-y,1/2+z
-y,-x,1/2+z
1/2+y,1/2+x,1/2+z
loop_
_atom_site_type_symbol
_atom_site_label
_atom_site_fract_x
_atom_site_fract_y
_atom_site_fract_z
Si Si1 0.794701 0.325343 0.014046
Si Si2 0.285661 0.545381 0.034794
Si Si3 0.550420 0.550420 0.750000
Si Si4 0.979417 0.879193 0.507188
Si Si5 0.608824 0.250000 0.750000
Si Si6 0.947457 0.947457 0.250000
Si Si7 0.433249 0.966891 0.001601
Si Si8 0.426650 0.825427 0.651303
O O1 0.822182 0.364250 0.892701
O O2 0.821920 0.268332 0.029157
O O3 0.796054 0.353815 0.177782
O O4 0.315578 0.489619 0.995517
O O5 0.324519 0.572468 0.164013
O O6 0.225840 0.538968 0.095582
O O7 0.282806 0.576391 0.875737
O O8 0.546766 0.608640 0.672254
O O9 0.507373 0.537671 0.881823
O O10 0.035565 0.911338 0.500234
O O11 0.941159 0.899456 0.371562
O O12 0.936131 0.004761 0.335454
O O13 0.374391 0.955438 0.067747
#
# Coordination Sequence:
#
# PCOD8313670 Si02
#       8
#    16  16   8  16   8   8  16  16
#     4  10  24  43  59  73  98 133 186 253 303 341
#     4  10  23  41  53  77 106 140 182 228 280 343
#     4  10  19  38  54  82 106 140 176 219 278 341
#     4  11  20  35  57  80 108 139 175 230 279 329
#     4  10  24  39  56  76  96 132 190 242 291 348
#     4  10  23  32  56  86 110 130 180 223 286 329
#     4  11  20  35  57  81 110 140 177 229 275 341
#     4  10  23  40  56  79 108 146 189 225 290 348
#
# _framework density 18.839200999999999
#
# number of rings (size 3 to 8) (size 9 to 14) (size 15 to 20)
#    0.000    1.692    1.538    3.692    8.615    6.154 
#    2.769    0.000    0.000    1.846    0.000    0.000 
#    0.000    0.000    0.000    0.000    0.000   53.846 
#
# Total GULP energy -1288450.271988 kJ/mol
# GULP energy per Si atom -12388.944923 kJ/mol
# Density = 1.879632 g / cm^3
# Si number density = 18.839201 Si / 1000 Ang^3
#
#
#
# Elastic Constant Matrix: (Units=GPa)
#
#
# Indices 1 2 3 4 5 6 
#
# 1 65.6119 31.8934 27.2363 0.0000 0.0000 0.0000
# 2 31.8934 65.6119 27.2363 0.0000 0.0000 0.0000
# 3 27.2363 27.2363 126.6463 0.0000 0.0000 0.0000
# 4 0.0000 0.0000 0.0000 24.7805 0.0000 0.0000
# 5 0.0000 0.0000 0.0000 0.0000 24.7805 0.0000
# 6 0.0000 0.0000 0.0000 0.0000 0.0000 19.9133
#
#
#
# Elastic Compliance Matrix: (Units=1/GPa)
#
#
# Indices 1 2 3 4 5 6 
#
# 1 0.020657 -0.009000 -0.002507 0.000000 0.000000 0.000000
# 2 -0.009000 0.020657 -0.002507 0.000000 0.000000 0.000000
# 3 -0.002507 -0.002507 0.008974 0.000000 0.000000 0.000000
# 4 0.000000 0.000000 0.000000 0.040354 0.000000 0.000000
# 5 0.000000 0.000000 0.000000 0.000000 0.040354 0.000000
# 6 0.000000 0.000000 0.000000 0.000000 0.000000 0.050218
#
#
# Mechanical properties :
#
#
# Convention : Reuss Voigt Hill
#
# Bulk Modulus (GPa) = 44.92424 47.84465 46.38444
# Shear Modulus (GPa) = 23.07741 25.32847 24.20294
#
# Velocity S-wave (km/s) = 3.50375 3.67066 3.58818
# Velocity P-wave (km/s) = 6.34557 6.58912 6.46849
#
# Compressibility (1/GPa) = 0.02225970
#
# Stress axis : x y z
#
# Youngs Moduli (GPa) = 48.41022 48.41022 111.43040
#
# Poissons Ratio (x) = 0.43572 0.27933
# Poissons Ratio (y) = 0.43572 0.27933
# Poissons Ratio (z) = 0.12135 0.12135
#
# Static dielectric constant tensor:
#      x y z
#    x 3.295380 0.000000 0.000000 
#    y 0.000000 3.295380 0.000000 
#    z 0.000000 0.000000 4.059180 
# 
# 
# High freq. dielectric constant tensor:
#      x y z
#    x 1.693100 0.000000 0.000000 
#    y 0.000000 1.693100 0.000000 
#    z 0.000000 0.000000 1.769130 
# 
# From -- ./inp_files/1921.got.cif
#   From: 2010.03.12/outbox.cif.g09.slc.cpg/sg126_1_cif.got.tgz:1921.got - 2010.04.06 16:55:23.
