data_PCOD8313954
_publ_section_title
;
Structure prediction by ZEFSAII (Michael W. Deem and Ramdas Pophale) SiO2 
 PCOD8313954
Probable space group: P 4/M B M
;
_chemical_formula_sum "Si O2"
_cell_formula_units_Z 112
_cell_length_a 15.753915
_cell_length_b 15.753915
_cell_length_c 22.891090
_cell_angle_alpha 90.000000
_cell_angle_beta 90.000000
_cell_angle_gamma 90.000000
_cell_volume 5681.244350
_symmetry_space_group_name_H-M "P 4/M B M"
_symmetry_group_IT_number 127
_symmetry_cell_setting 'tetragonal'
loop_
_space_group_symop_operation_xyz
x,y,z
-y,x,z
-x,-y,z
y,-x,z
1/2+x,1/2-y,-z
1/2-x,1/2+y,-z
1/2+y,1/2+x,-z
1/2-y,1/2-x,-z
-x,-y,-z
y,-x,-z
x,y,-z
-y,x,-z
1/2-x,1/2+y,z
1/2+x,1/2-y,z
1/2-y,1/2-x,z
1/2+y,1/2+x,z
loop_
_atom_site_type_symbol
_atom_site_label
_atom_site_fract_x
_atom_site_fract_y
_atom_site_fract_z
Si Si1 0.693410 0.051752 0.243302
Si Si2 0.953717 0.129449 0.931678
Si Si3 0.423999 0.790229 0.568885
Si Si4 0.071924 0.109629 0.430953
Si Si5 0.908720 0.267689 0.158971
Si Si6 0.708221 0.930070 0.344190
Si Si7 0.685336 0.324654 0.732294
O O1 0.624390 0.124390 0.232693
O O2 0.784590 0.091175 0.264401
O O3 0.700787 0.999841 0.182996
O O4 0.664799 0.988274 0.294428
O O5 0.923221 0.214525 0.899691
O O6 0.050500 0.106725 0.914506
O O7 0.946916 0.148105 0.000000
O O8 0.434854 0.802556 0.500000
O O9 0.363030 0.863030 0.595295
O O10 0.381473 0.698442 0.585225
O O11 0.517401 0.789254 0.595959
O O12 0.066999 0.102343 0.500000
O O13 0.974539 0.116515 0.406064
O O14 0.848006 0.348006 0.145776
O O15 0.867548 0.204666 0.205859
O O16 0.648321 0.851680 0.357572
O O17 0.799644 0.894442 0.319718
O O18 0.749559 0.249559 0.719567
#
# Coordination Sequence:
#
# PCOD8313954 Si02
#       7
#    16  16  16  16  16  16  16
#     4  10  19  33  55  78 102 135 172 216 272 328
#     4   9  18  33  53  77 107 147 196 245 285 318
#     4  10  21  35  51  74 105 139 173 212 262 324
#     4   8  15  31  54  75  95 122 159 204 250 295
#     4  10  19  31  51  80 113 146 178 217 269 332
#     4  10  21  36  53  73  98 131 173 218 264 320
#     4   8  17  33  51  74 101 129 168 217 265 313
#
# _framework density 19.713989999999999
#
# number of rings (size 3 to 8) (size 9 to 14) (size 15 to 20)
#    0.000    2.714    0.000    3.429    0.000    3.714 
#    0.000    2.857    0.000    7.714    0.000    1.000 
#    0.000    0.000    0.000    0.000    0.000    0.000 
#
# Total GULP energy -1387680.985374 kJ/mol
# GULP energy per Si atom -12390.008798 kJ/mol
# Density = 1.966912 g / cm^3
# Si number density = 19.713990 Si / 1000 Ang^3
#
#
#
# Elastic Constant Matrix: (Units=GPa)
#
#
# Indices 1 2 3 4 5 6 
#
# 1 84.7491 31.5591 29.1814 0.0000 0.0000 0.0000
# 2 31.5591 84.7491 29.1814 0.0000 0.0000 0.0000
# 3 29.1814 29.1814 54.9030 0.0000 0.0000 0.0000
# 4 0.0000 0.0000 0.0000 30.0446 0.0000 0.0000
# 5 0.0000 0.0000 0.0000 0.0000 30.0446 0.0000
# 6 0.0000 0.0000 0.0000 0.0000 0.0000 25.4055
#
#
#
# Elastic Compliance Matrix: (Units=1/GPa)
#
#
# Indices 1 2 3 4 5 6 
#
# 1 0.015263 -0.003538 -0.006232 0.000000 0.000000 0.000000
# 2 -0.003538 0.015263 -0.006232 0.000000 0.000000 0.000000
# 3 -0.006232 -0.006232 0.024839 0.000000 0.000000 0.000000
# 4 0.000000 0.000000 0.000000 0.033284 0.000000 0.000000
# 5 0.000000 0.000000 0.000000 0.000000 0.033284 0.000000
# 6 0.000000 0.000000 0.000000 0.000000 0.000000 0.039362
#
#
# Mechanical properties :
#
#
# Convention : Reuss Voigt Hill
#
# Bulk Modulus (GPa) = 42.80668 44.91612 43.86140
# Shear Modulus (GPa) = 24.86529 26.06423 25.46476
#
# Velocity S-wave (km/s) = 3.55533 3.64004 3.59794
# Velocity P-wave (km/s) = 6.21409 6.36395 6.28946
#
# Compressibility (1/GPa) = 0.02336084
#
# Stress axis : x y z
#
# Youngs Moduli (GPa) = 65.51893 65.51893 40.25998
#
# Poissons Ratio (x) = 0.23179 0.25090
# Poissons Ratio (y) = 0.23179 0.25090
# Poissons Ratio (z) = 0.40831 0.40831
#
# Static dielectric constant tensor:
#      x y z
#    x 3.751000 0.000000 0.000000 
#    y 0.000000 3.751000 0.000000 
#    z 0.000000 0.000000 3.340000 
# 
# 
# High freq. dielectric constant tensor:
#      x y z
#    x 1.767480 0.000000 0.000000 
#    y 0.000000 1.767480 0.000000 
#    z 0.000000 0.000000 1.748290 
# 
# From -- ./inp_files/6171.got.cif
#   From: 2010.03.12/outbox.cif.g09.slc.cpg/sg127_4_cif.got.tgz:6171.got - 2010.04.06 17:03:15.
