data_PCOD8313235
_publ_section_title
;
Structure prediction by ZEFSAII (Michael W. Deem and Ramdas Pophale) SiO2 
 PCOD8313235
Probable space group: P 4/M C C
;
_chemical_formula_sum "Si O2"
_cell_formula_units_Z 88
_cell_length_a 11.304942
_cell_length_b 11.304942
_cell_length_c 32.241885
_cell_angle_alpha 90.000000
_cell_angle_beta 90.000000
_cell_angle_gamma 90.000000
_cell_volume 4120.568153
_symmetry_space_group_name_H-M "P 4/M C C"
_symmetry_group_IT_number 124
_symmetry_cell_setting 'tetragonal'
loop_
_space_group_symop_operation_xyz
x,y,z
-y,x,z
-x,-y,z
y,-x,z
x,-y,1/2-z
-x,y,1/2-z
y,x,1/2-z
-y,-x,1/2-z
-x,-y,-z
y,-x,-z
x,y,-z
-y,x,-z
-x,y,1/2+z
x,-y,1/2+z
-y,-x,1/2+z
y,x,1/2+z
loop_
_atom_site_type_symbol
_atom_site_label
_atom_site_fract_x
_atom_site_fract_y
_atom_site_fract_z
Si Si1 0.826551 0.592337 0.319290
Si Si2 0.750000 0.250000 0.889558
Si Si3 0.418043 0.823574 0.953518
Si Si4 0.250000 0.750001 0.750000
Si Si5 0.907663 0.326551 0.680710
Si Si6 0.323574 0.918043 0.453518
O O1 0.759674 0.632900 0.361006
O O2 0.751370 0.633555 0.279246
O O3 0.840605 0.452610 0.318371
O O4 0.952610 0.659395 0.318371
O O5 0.634764 0.266003 0.919353
O O6 0.740326 0.132900 0.861006
O O7 0.865235 0.233996 0.919353
O O8 0.555392 0.845393 0.946426
O O9 0.345393 0.944608 0.946426
O O10 0.395387 0.775135 0.000000
O O11 0.133555 0.748630 0.720754
O O12 0.275134 0.895387 0.500000
#
# Coordination Sequence:
#
# PCOD8313235 Si02
#       6
#    16  16  16   8  16  16
#     4  10  21  37  57  80 105 134 171 212 252 303
#     4  11  19  29  53  82 106 134 173 217 259 301
#     4   9  18  33  53  76 102 136 180 223 258 299
#     4  10  20  34  62  86  98 126 170 214 256 300
#     4  10  21  37  57  80 105 134 171 212 252 303
#     4   9  18  33  53  76 102 136 180 223 258 299
#
# _framework density 21.356276999999999
#
# number of rings (size 3 to 8) (size 9 to 14) (size 15 to 20)
#    0.000    2.182    0.000    4.909    0.000    4.364 
#    0.000    0.000    0.000   82.909    0.000   20.364 
#    0.000    0.000    0.000    0.000    0.000    0.000 
#
# Total GULP energy -1090791.842213 kJ/mol
# GULP energy per Si atom -12395.361843 kJ/mol
# Density = 2.130767 g / cm^3
# Si number density = 21.356277 Si / 1000 Ang^3
#
#
#
# Elastic Constant Matrix: (Units=GPa)
#
#
# Indices 1 2 3 4 5 6 
#
# 1 63.4761 40.5962 45.1782 0.0000 0.0000 0.0000
# 2 40.5962 63.4761 45.1782 0.0000 0.0000 0.0000
# 3 45.1782 45.1782 172.3548 0.0000 0.0000 0.0000
# 4 0.0000 0.0000 0.0000 29.4509 0.0000 0.0000
# 5 0.0000 0.0000 0.0000 0.0000 29.4509 0.0000
# 6 0.0000 0.0000 0.0000 0.0000 0.0000 38.6274
#
#
#
# Elastic Compliance Matrix: (Units=1/GPa)
#
#
# Indices 1 2 3 4 5 6 
#
# 1 0.028073 -0.015633 -0.003261 0.000000 0.000000 0.000000
# 2 -0.015633 0.028073 -0.003261 0.000000 0.000000 0.000000
# 3 -0.003261 -0.003261 0.007511 0.000000 0.000000 0.000000
# 4 0.000000 0.000000 0.000000 0.033955 0.000000 0.000000
# 5 0.000000 0.000000 0.000000 0.000000 0.033955 0.000000
# 6 0.000000 0.000000 0.000000 0.000000 0.000000 0.025888
#
#
# Mechanical properties :
#
#
# Convention : Reuss Voigt Hill
#
# Bulk Modulus (GPa) = 51.68522 62.35690 57.02106
# Shear Modulus (GPa) = 24.01367 30.72945 27.37156
#
# Velocity S-wave (km/s) = 3.35689 3.79739 3.58392
# Velocity P-wave (km/s) = 6.26729 6.96338 6.62449
#
# Compressibility (1/GPa) = 0.01934789
#
# Stress axis : x y z
#
# Youngs Moduli (GPa) = 35.62128 35.62128 133.13069
#
# Poissons Ratio (x) = 0.55688 0.43410
# Poissons Ratio (y) = 0.55688 0.43410
# Poissons Ratio (z) = 0.11615 0.11615
#
# Static dielectric constant tensor:
#      x y z
#    x 3.618460 0.000000 0.000000 
#    y 0.000000 3.618460 0.000000 
#    z 0.000000 0.000000 4.290020 
# 
# 
# High freq. dielectric constant tensor:
#      x y z
#    x 1.805510 0.000000 0.000000 
#    y 0.000000 1.805510 0.000000 
#    z 0.000000 0.000000 1.873030 
# 
# From -- ./inp_files/7070.got.cif
#   From: 2010.03.12/outbox.cif.g09.slc.cpg/sg124_4_cif.got.tgz:7070.got - 2010.04.06 16:38:57.
