data_PCOD8313159
_publ_section_title
;
Structure prediction by ZEFSAII (Michael W. Deem and Ramdas Pophale) SiO2 
 PCOD8313159
Probable space group: P 4/M C C
;
_chemical_formula_sum "Si O2"
_cell_formula_units_Z 96
_cell_length_a 23.564264
_cell_length_b 23.564264
_cell_length_c 9.246614
_cell_angle_alpha 90.000000
_cell_angle_beta 90.000000
_cell_angle_gamma 90.000000
_cell_volume 5134.409316
_symmetry_space_group_name_H-M "P 4/M C C"
_symmetry_group_IT_number 124
_symmetry_cell_setting 'tetragonal'
loop_
_space_group_symop_operation_xyz
x,y,z
-y,x,z
-x,-y,z
y,-x,z
x,-y,1/2-z
-x,y,1/2-z
y,x,1/2-z
-y,-x,1/2-z
-x,-y,-z
y,-x,-z
x,y,-z
-y,x,-z
-x,y,1/2+z
x,-y,1/2+z
-y,-x,1/2+z
y,x,1/2+z
loop_
_atom_site_type_symbol
_atom_site_label
_atom_site_fract_x
_atom_site_fract_y
_atom_site_fract_z
Si Si1 0.751635 0.322124 0.670252
Si Si2 0.444967 0.202774 0.327605
Si Si3 0.449077 0.084718 0.166101
Si Si4 0.255913 0.846112 0.331979
Si Si5 0.129391 0.129391 0.250000
Si Si6 0.057484 0.922569 0.500000
Si Si7 0.325721 0.049851 0.159641
O O1 0.692063 0.307938 0.750000
O O2 0.746861 0.313703 0.500000
O O3 0.764763 0.387019 0.711166
O O4 0.794926 0.273661 0.728267
O O5 0.500000 0.232251 0.250000
O O6 0.454192 0.199575 0.500000
O O7 0.438061 0.141070 0.258640
O O8 0.500000 0.051926 0.250000
O O9 0.393615 0.046160 0.169130
O O10 0.465687 0.099288 0.000000
O O11 0.260491 0.827899 0.500000
O O12 0.194730 0.874957 0.302268
O O13 0.303909 0.890437 0.284757
O O14 0.113844 0.082475 0.368652
O O15 0.988489 0.921386 0.500000
O O16 0.297648 0.000000 0.250000
O O17 0.302775 0.040035 0.000000
#
# Coordination Sequence:
#
# PCOD8313159 Si02
#       7
#    16  16  16  16   8   8  16
#     4  11  23  36  59  88 120 159 199 241 288 343
#     4  10  20  34  55  84 113 152 199 241 288 341
#     4  10  19  33  53  76 104 144 191 238 285 332
#     4  11  23  41  59  85 117 149 187 227 284 354
#     4  12  24  43  68  94 116 146 184 224 287 362
#     4  11  26  48  72  94 116 142 182 238 300 370
#     4  10  23  39  54  76 108 144 184 235 287 337
#
# _framework density 18.697379999999999
#
# number of rings (size 3 to 8) (size 9 to 14) (size 15 to 20)
#    0.000    1.417    3.333    3.000    1.167    6.333 
#    0.000    1.667    0.000    0.000    0.000    0.000 
#    0.000    0.333    0.000    3.667    0.000    2.667 
#
# Total GULP energy -1189259.313632 kJ/mol
# GULP energy per Si atom -12388.117850 kJ/mol
# Density = 1.865482 g / cm^3
# Si number density = 18.697380 Si / 1000 Ang^3
#
#
#
# Elastic Constant Matrix: (Units=GPa)
#
#
# Indices 1 2 3 4 5 6 
#
# 1 79.3980 26.7627 38.6386 0.0000 0.0000 0.0000
# 2 26.7627 79.3959 38.6389 0.0000 0.0000 0.0000
# 3 38.6386 38.6389 108.6274 0.0000 0.0000 0.0000
# 4 0.0000 0.0000 0.0000 29.1197 0.0000 0.0000
# 5 0.0000 0.0000 0.0000 0.0000 29.1197 0.0000
# 6 0.0000 0.0000 0.0000 0.0000 0.0000 109.8452
#
#
#
# Elastic Compliance Matrix: (Units=1/GPa)
#
#
# Indices 1 2 3 4 5 6 
#
# 1 0.015855 -0.003144 -0.004521 0.000000 0.000000 0.000000
# 2 -0.003144 0.015855 -0.004521 0.000000 0.000000 0.000000
# 3 -0.004521 -0.004521 0.012422 0.000000 0.000000 0.000000
# 4 0.000000 0.000000 0.000000 0.034341 0.000000 0.000000
# 5 0.000000 0.000000 0.000000 0.000000 0.034341 0.000000
# 6 0.000000 0.000000 0.000000 0.000000 0.000000 0.009104
#
#
# Mechanical properties :
#
#
# Convention : Reuss Voigt Hill
#
# Bulk Modulus (GPa) = 50.60977 52.83351 51.72164
# Shear Modulus (GPa) = 32.70592 44.50901 38.60746
#
# Velocity S-wave (km/s) = 4.18691 4.88432 4.54900
# Velocity P-wave (km/s) = 7.10635 7.75418 7.43732
#
# Compressibility (1/GPa) = 0.01975903
#
# Stress axis : x y z
#
# Youngs Moduli (GPa) = 63.07268 63.07040 80.50081
#
# Poissons Ratio (x) = 0.19829 0.36396
# Poissons Ratio (y) = 0.19830 0.36398
# Poissons Ratio (z) = 0.28516 0.28517
#
# Static dielectric constant tensor:
#      x y z
#    x 3.520860 0.000000 0.000000 
#    y 0.000000 3.520860 0.000000 
#    z 0.000000 0.000000 3.019710 
# 
# 
# High freq. dielectric constant tensor:
#      x y z
#    x 1.716050 0.000000 0.000000 
#    y 0.000000 1.716050 0.000000 
#    z 0.000000 0.000000 1.742770 
# 
# From -- ./inp_files/1434.got.cif
#   From: 2010.03.12/outbox.cif.g09.slc.cpg/sg124_1_cif.got.tgz:1434.got - 2010.04.06 16:38:57.
