data_PCOD8313620
_publ_section_title
;
Structure prediction by ZEFSAII (Michael W. Deem and Ramdas Pophale) SiO2 
 PCOD8313620
Probable space group: P 4/N B M
;
_chemical_formula_sum "Si O2"
_cell_formula_units_Z 56
_cell_length_a 13.021181
_cell_length_b 13.021181
_cell_length_c 17.363036
_cell_angle_alpha 90.000000
_cell_angle_beta 90.000000
_cell_angle_gamma 90.000000
_cell_volume 2943.922802
_symmetry_space_group_name_H-M "P 4/N B M"
_symmetry_group_IT_number 125
_space_group.IT_coordinate_system_code '2'
_symmetry_cell_setting 'tetragonal'
loop_
_space_group_symop_operation_xyz
x,y,z
1/2-y,x,z
1/2-x,1/2-y,z
y,1/2-x,z
x,1/2-y,-z
1/2-x,y,-z
y,x,-z
1/2-y,1/2-x,-z
-x,-y,-z
1/2+y,-x,-z
1/2+x,1/2+y,-z
-y,1/2+x,-z
-x,1/2+y,z
1/2+x,-y,z
-y,-x,z
1/2+y,1/2+x,z
loop_
_atom_site_type_symbol
_atom_site_label
_atom_site_fract_x
_atom_site_fract_y
_atom_site_fract_z
Si Si1 0.221828 0.414104 0.213367
Si Si2 0.250000 0.918472 0.500000
Si Si3 0.083164 0.754128 0.335526
Si Si4 0.512708 0.656568 0.951400
O O1 0.132804 0.333104 0.231215
O O2 0.212857 0.512159 0.267602
O O3 0.209026 0.445397 0.125252
O O4 0.351088 0.851088 0.506514
O O5 0.251140 0.980016 0.582039
O O6 0.132985 0.867016 0.317527
O O7 0.176477 0.676477 0.344657
O O8 0.425266 0.574735 0.930930
O O9 0.464274 0.750000 0.000000
O O10 0.604474 0.604474 0.000000
#
# Coordination Sequence:
#
# PCOD8313620 Si02
#       4
#    16   8  16  16
#     4  11  23  38  58  81 112 153 192 229 279 341
#     4   7  12  28  54  81 110 148 188 227 282 341
#     4   9  18  34  58  86 115 147 188 239 287 335
#     4  11  23  40  63  86 111 148 190 233 282 335
#
# _framework density 19.022238999999999
#
# number of rings (size 3 to 8) (size 9 to 14) (size 15 to 20)
#    0.000    2.143    2.857    2.571    0.000    4.000 
#    0.000    1.429    0.000    6.857    0.000    0.000 
#    0.000    0.000    0.000    0.000    0.000    0.000 
#
# Total GULP energy -693761.005370 kJ/mol
# GULP energy per Si atom -12388.589382 kJ/mol
# Density = 1.897894 g / cm^3
# Si number density = 19.022239 Si / 1000 Ang^3
#
#
#
# Elastic Constant Matrix: (Units=GPa)
#
#
# Indices 1 2 3 4 5 6 
#
# 1 66.1680 19.5565 37.5759 0.0000 0.0000 0.0000
# 2 19.5565 66.1680 37.5759 0.0000 0.0000 0.0000
# 3 37.5759 37.5759 134.1994 0.0000 0.0000 0.0000
# 4 0.0000 0.0000 0.0000 18.3277 0.0000 0.0000
# 5 0.0000 0.0000 0.0000 0.0000 18.3277 0.0000
# 6 0.0000 0.0000 0.0000 0.0000 0.0000 0.1088
#
#
#
# Elastic Compliance Matrix: (Units=1/GPa)
#
#
# Indices 1 2 3 4 5 6 
#
# 1 0.018457 -0.002997 -0.004329 0.000000 0.000000 0.000000
# 2 -0.002997 0.018457 -0.004329 0.000000 0.000000 0.000000
# 3 -0.004329 -0.004329 0.009876 0.000000 0.000000 0.000000
# 4 0.000000 0.000000 0.000000 0.054562 0.000000 0.000000
# 5 0.000000 0.000000 0.000000 0.000000 0.054562 0.000000
# 6 0.000000 0.000000 0.000000 0.000000 0.000000 9.191850
#
#
# Mechanical properties :
#
#
# Convention : Reuss Voigt Hill
#
# Bulk Modulus (GPa) = 42.58800 50.66133 46.62467
# Shear Modulus (GPa) = 0.53311 18.80797 9.67054
#
# Velocity S-wave (km/s) = 0.52997 3.14783 2.25718
# Velocity P-wave (km/s) = 4.77615 6.31682 5.59973
#
# Compressibility (1/GPa) = 0.02348079
#
# Stress axis : x y z
#
# Youngs Moduli (GPa) = 54.17966 54.17966 101.25777
#
# Poissons Ratio (x) = 0.16237 0.43833
# Poissons Ratio (y) = 0.16237 0.43833
# Poissons Ratio (z) = 0.23454 0.23454
#
# Static dielectric constant tensor:
#      x y z
#    x 3.273030 0.000000 0.000000 
#    y 0.000000 3.273030 0.000000 
#    z 0.000000 0.000000 3.785150 
# 
# 
# High freq. dielectric constant tensor:
#      x y z
#    x 1.717770 0.000000 0.000000 
#    y 0.000000 1.717770 0.000000 
#    z 0.000000 0.000000 1.762350 
# 
# From -- ./inp_files/4566.got.cif
#   From: 2010.03.12/outbox.cif.g09.slc.cpg/sg125_3_cif.got.tgz:4566.got - 2010.04.06 16:47:52.
