data_PCOD8313045
_publ_section_title
;
Structure prediction by ZEFSAII (Michael W. Deem and Ramdas Pophale) SiO2 
 PCOD8313045
Probable space group: P 4/M M M
;
_chemical_formula_sum "Si O2"
_cell_formula_units_Z 72
_cell_length_a 22.847768
_cell_length_b 22.847768
_cell_length_c 9.482489
_cell_angle_alpha 90.000000
_cell_angle_beta 90.000000
_cell_angle_gamma 90.000000
_cell_volume 4950.053674
_symmetry_space_group_name_H-M "P 4/M M M"
_symmetry_group_IT_number 123
_symmetry_cell_setting 'tetragonal'
loop_
_space_group_symop_operation_xyz
x,y,z
-y,x,z
-x,-y,z
y,-x,z
x,-y,-z
-x,y,-z
y,x,-z
-y,-x,-z
-x,-y,-z
y,-x,-z
x,y,-z
-y,x,-z
-x,y,z
x,-y,z
-y,-x,z
y,x,z
loop_
_atom_site_type_symbol
_atom_site_label
_atom_site_fract_x
_atom_site_fract_y
_atom_site_fract_z
Si Si1 0.354976 0.354976 0.339447
Si Si2 0.934141 0.392223 0.160070
Si Si3 0.567359 0.274292 0.836603
Si Si4 0.182446 0.666224 0.840450
Si Si5 0.500000 0.069213 0.344020
Si Si6 0.256660 0.256660 0.342080
O O1 0.372159 0.372159 0.500000
O O2 0.411271 0.329262 0.257622
O O3 0.305777 0.305777 0.339398
O O4 0.887539 0.340236 0.177946
O O5 0.910462 0.442963 0.260902
O O6 0.000000 0.370847 0.199940
O O7 0.933348 0.416143 0.000000
O O8 0.500000 0.260027 0.798294
O O9 0.605818 0.216446 0.803213
O O10 0.573757 0.292352 0.000000
O O11 0.199840 0.718881 0.737541
O O12 0.198253 0.684415 0.000000
O O13 0.500000 0.097471 0.500000
O O14 0.500000 0.000000 0.353447
O O15 0.238819 0.238819 0.500000
#
# Coordination Sequence:
#
# PCOD8313045 Si02
#       6
#     8  16  16  16   8   8
#     4   9  17  29  43  58  78  99 119 151 195 237
#     4   9  17  28  42  59  80 108 139 170 202 237
#     4   9  17  28  43  61  78  98 125 155 189 233
#     4   9  17  28  44  61  81 105 134 167 199 237
#     4   9  17  27  37  51  75 107 139 169 200 235
#     4   9  17  29  43  59  80 102 131 166 204 240
#
# _framework density 14.545297
#
# number of rings (size 3 to 8) (size 9 to 14) (size 15 to 20)
#    0.000    3.000    0.000    1.000    1.556    5.333 
#    0.000    0.000    0.000    0.333    0.000    2.333 
#    0.000    0.000    0.000    0.000    0.000    0.556 
#
# Total GULP energy -892452.957795 kJ/mol
# GULP energy per Si atom -12395.179969 kJ/mol
# Density = 1.451219 g / cm^3
# Si number density = 14.545297 Si / 1000 Ang^3
#
#
#
# Elastic Constant Matrix: (Units=GPa)
#
#
# Indices 1 2 3 4 5 6 
#
# 1 62.9124 33.8850 39.1409 0.0000 0.0000 0.0000
# 2 33.8850 62.9124 39.1409 0.0000 0.0000 0.0000
# 3 39.1409 39.1409 90.0805 0.0000 0.0000 0.0000
# 4 0.0000 0.0000 0.0000 10.0494 0.0000 0.0000
# 5 0.0000 0.0000 0.0000 0.0000 10.0494 0.0000
# 6 0.0000 0.0000 0.0000 0.0000 0.0000 13.3877
#
#
#
# Elastic Compliance Matrix: (Units=1/GPa)
#
#
# Indices 1 2 3 4 5 6 
#
# 1 0.025189 -0.009261 -0.006921 0.000000 0.000000 0.000000
# 2 -0.009261 0.025189 -0.006921 0.000000 0.000000 0.000000
# 3 -0.006921 -0.006921 0.017116 0.000000 0.000000 0.000000
# 4 0.000000 0.000000 0.000000 0.099508 0.000000 0.000000
# 5 0.000000 0.000000 0.000000 0.000000 0.099508 0.000000
# 6 0.000000 0.000000 0.000000 0.000000 0.000000 0.074695
#
#
# Mechanical properties :
#
#
# Convention : Reuss Voigt Hill
#
# Bulk Modulus (GPa) = 46.97494 48.91543 47.94518
# Shear Modulus (GPa) = 12.67407 13.61323 13.14365
#
# Velocity S-wave (km/s) = 2.95507 3.06260 3.00931
# Velocity P-wave (km/s) = 6.63393 6.79770 6.71631
#
# Compressibility (1/GPa) = 0.02128795
#
# Stress axis : x y z
#
# Youngs Moduli (GPa) = 39.69986 39.69986 58.42657
#
# Poissons Ratio (x) = 0.36767 0.40436
# Poissons Ratio (y) = 0.36767 0.40436
# Poissons Ratio (z) = 0.27475 0.27475
#
# Static dielectric constant tensor:
#      x y z
#    x 2.628150 0.000000 0.000000 
#    y 0.000000 2.628150 0.000000 
#    z 0.000000 0.000000 3.095510 
# 
# 
# High freq. dielectric constant tensor:
#      x y z
#    x 1.523330 0.000000 0.000000 
#    y 0.000000 1.523330 0.000000 
#    z 0.000000 0.000000 1.566350 
# 
# From -- ./inp_files/1410.got.cif
#   From: 2010.03.12/outbox.cif.g09.slc.cpg/sg123_1_cif.got.tgz:1410.got - 2010.04.06 16:26:55.
