data_PCOD8313641
_publ_section_title
;
Structure prediction by ZEFSAII (Michael W. Deem and Ramdas Pophale) SiO2 
 PCOD8313641
Probable space group: P 4/N N C
;
_chemical_formula_sum "Si O2"
_cell_formula_units_Z 80
_cell_length_a 31.395600
_cell_length_b 31.395600
_cell_length_c 5.265602
_cell_angle_alpha 90.000000
_cell_angle_beta 90.000000
_cell_angle_gamma 90.000000
_cell_volume 5190.218059
_symmetry_space_group_name_H-M "P 4/N N C"
_symmetry_group_IT_number 126
_space_group.IT_coordinate_system_code '2'
_symmetry_cell_setting 'tetragonal'
loop_
_space_group_symop_operation_xyz
x,y,z
1/2-y,x,z
1/2-x,1/2-y,z
y,1/2-x,z
x,1/2-y,1/2-z
1/2-x,y,1/2-z
y,x,1/2-z
1/2-y,1/2-x,1/2-z
-x,-y,-z
1/2+y,-x,-z
1/2+x,1/2+y,-z
-y,1/2+x,-z
-x,1/2+y,1/2+z
1/2+x,-y,1/2+z
-y,-x,1/2+z
1/2+y,1/2+x,1/2+z
loop_
_atom_site_type_symbol
_atom_site_label
_atom_site_fract_x
_atom_site_fract_y
_atom_site_fract_z
Si Si1 0.663927 0.906352 0.746414
Si Si2 0.000479 0.564509 0.205556
Si Si3 0.130978 0.200973 0.754387
Si Si4 0.898848 0.420522 0.782606
Si Si5 0.988067 0.613643 0.711288
O O1 0.619907 0.880094 0.750000
O O2 0.689766 0.897883 0.488700
O O3 0.653394 0.956409 0.762151
O O4 0.692443 0.894902 0.988530
O O5 0.983691 0.516310 0.250000
O O6 0.982290 0.593160 0.434588
O O7 0.051631 0.563573 0.190533
O O8 0.979718 0.581754 0.945351
O O9 0.144224 0.250000 0.750000
O O10 0.174580 0.174580 0.750000
O O11 0.893210 0.389856 0.538046
O O12 0.869601 0.462588 0.766285
#
# Coordination Sequence:
#
# PCOD8313641 Si02
#       5
#    16  16  16  16  16
#     4  10  19  30  45  63  79  93 108 129 160 199
#     4  10  17  23  32  47  69  98 127 147 158 169
#     4  10  21  36  51  65  77  87 102 127 165 219
#     4   8  16  24  31  45  67  96 126 148 160 170
#     4  10  18  26  36  51  72  95 117 139 160 181
#
# _framework density 15.413612000000001
#
# number of rings (size 3 to 8) (size 9 to 14) (size 15 to 20)
#    0.000    2.400    0.000    3.600    0.000    9.800 
#    0.000    0.000    0.000    3.600    0.000    0.000 
#    0.000    0.000    0.000    0.000    0.000    0.000 
#
# Total GULP energy -991398.704423 kJ/mol
# GULP energy per Si atom -12392.483805 kJ/mol
# Density = 1.537853 g / cm^3
# Si number density = 15.413612 Si / 1000 Ang^3
#
#
#
# Elastic Constant Matrix: (Units=GPa)
#
#
# Indices 1 2 3 4 5 6 
#
# 1 39.1500 38.1819 20.9343 0.0000 0.0000 0.0000
# 2 38.1819 39.1500 20.9343 0.0000 0.0000 0.0000
# 3 20.9343 20.9343 126.0035 0.0000 0.0000 0.0000
# 4 0.0000 0.0000 0.0000 12.8571 0.0000 0.0000
# 5 0.0000 0.0000 0.0000 0.0000 12.8560 0.0000
# 6 0.0000 0.0000 0.0000 0.0000 0.0000 11.1453
#
#
#
# Elastic Compliance Matrix: (Units=1/GPa)
#
#
# Indices 1 2 3 4 5 6 
#
# 1 0.523583 -0.509374 -0.002361 0.000000 0.000000 0.000000
# 2 -0.509374 0.523583 -0.002361 0.000000 0.000000 0.000000
# 3 -0.002361 -0.002361 0.008721 0.000000 0.000000 0.000000
# 4 0.000000 0.000000 0.000000 0.077778 0.000000 0.000000
# 5 0.000000 0.000000 0.000000 0.000000 0.077785 0.000000
# 6 0.000000 0.000000 0.000000 0.000000 0.000000 0.089724
#
#
# Mechanical properties :
#
#
# Convention : Reuss Voigt Hill
#
# Bulk Modulus (GPa) = 36.10560 40.48938 38.29749
# Shear Modulus (GPa) = 2.13803 15.65522 8.89662
#
# Velocity S-wave (km/s) = 1.17903 3.19042 2.40509
# Velocity P-wave (km/s) = 5.03278 6.31643 5.71079
#
# Compressibility (1/GPa) = 0.02769654
#
# Stress axis : x y z
#
# Youngs Moduli (GPa) = 1.90992 1.90992 114.66939
#
# Poissons Ratio (x) = 0.97286 0.27073
# Poissons Ratio (y) = 0.97286 0.27068
# Poissons Ratio (z) = 0.00451 0.00451
#
# Static dielectric constant tensor:
#      x y z
#    x 2.513720 0.000000 0.000000 
#    y 0.000000 2.513720 0.000000 
#    z 0.000000 0.000000 4.083190 
# 
# 
# High freq. dielectric constant tensor:
#      x y z
#    x 1.533270 0.000000 0.000000 
#    y 0.000000 1.533270 0.000000 
#    z 0.000000 0.000000 1.636720 
# 
# From -- ./inp_files/594.got.cif
#   From: 2010.03.12/outbox.cif.g09.slc.cpg/sg126_1_cif.got.tgz:594.got - 2010.04.06 16:55:23.
