data_PCOD8313552
_publ_section_title
;
Structure prediction by ZEFSAII (Michael W. Deem and Ramdas Pophale) SiO2 
 PCOD8313552
Probable space group: P 4/N B M
;
_chemical_formula_sum "Si O2"
_cell_formula_units_Z 72
_cell_length_a 14.299389
_cell_length_b 14.299389
_cell_length_c 16.870174
_cell_angle_alpha 90.000000
_cell_angle_beta 90.000000
_cell_angle_gamma 90.000000
_cell_volume 3449.487088
_symmetry_space_group_name_H-M "P 4/N B M"
_symmetry_group_IT_number 125
_space_group.IT_coordinate_system_code '2'
_symmetry_cell_setting 'tetragonal'
loop_
_space_group_symop_operation_xyz
x,y,z
1/2-y,x,z
1/2-x,1/2-y,z
y,1/2-x,z
x,1/2-y,-z
1/2-x,y,-z
y,x,-z
1/2-y,1/2-x,-z
-x,-y,-z
1/2+y,-x,-z
1/2+x,1/2+y,-z
-y,1/2+x,-z
-x,1/2+y,z
1/2+x,-y,z
-y,-x,z
1/2+y,1/2+x,z
loop_
_atom_site_type_symbol
_atom_site_label
_atom_site_fract_x
_atom_site_fract_y
_atom_site_fract_z
Si Si1 0.750000 0.005118 0.500000
Si Si2 0.701806 0.896027 0.644326
Si Si3 0.506303 0.852809 0.034781
Si Si4 0.826511 0.173490 0.590240
Si Si5 0.824178 0.324178 0.223192
Si Si6 0.815665 0.469505 0.791345
O O1 0.807498 0.069698 0.559799
O O2 0.684680 0.942955 0.558064
O O3 0.632813 0.809431 0.650196
O O4 0.678230 0.962057 0.717574
O O5 0.522541 0.846739 0.129241
O O6 0.414266 0.914266 0.014561
O O7 0.491631 0.750000 0.000000
O O8 0.599250 0.900751 0.000000
O O9 0.750000 0.250000 0.560242
O O10 0.826812 0.173189 0.683123
O O11 0.750000 0.250000 0.189272
O O12 0.789752 0.426929 0.194499
O O13 0.883714 0.383714 0.770023
#
# Coordination Sequence:
#
# PCOD8313552 Si02
#       6
#     8  16  16   8   8  16
#     4  12  21  39  62  88 122 172 214 259 317 380
#     4  11  26  45  62  85 126 175 215 262 323 384
#     4  10  24  44  67 100 138 173 217 273 330 400
#     4  11  20  34  62  94 133 164 202 274 336 368
#     4   9  18  36  63  95 129 161 206 267 324 377
#     4  10  22  42  68  99 128 164 213 265 325 387
#
# _framework density 20.872668000000001
#
# number of rings (size 3 to 8) (size 9 to 14) (size 15 to 20)
#    0.000    1.556    3.333    0.667    6.222    1.333 
#    4.000    1.111    0.000    0.000    0.000    0.000 
#    0.000    0.000    0.000    0.000    0.000    0.000 
#
# Total GULP energy -892512.127373 kJ/mol
# GULP energy per Si atom -12396.001769 kJ/mol
# Density = 2.082516 g / cm^3
# Si number density = 20.872668 Si / 1000 Ang^3
#
#
#
# Elastic Constant Matrix: (Units=GPa)
#
#
# Indices 1 2 3 4 5 6 
#
# 1 100.9185 31.2697 45.1344 0.0000 0.0000 0.0000
# 2 31.2697 100.9205 45.1355 0.0000 0.0000 0.0000
# 3 45.1344 45.1355 119.6441 0.0000 0.0000 0.0000
# 4 0.0000 0.0000 0.0000 37.1567 0.0000 0.0000
# 5 0.0000 0.0000 0.0000 0.0000 37.1568 0.0000
# 6 0.0000 0.0000 0.0000 0.0000 0.0000 16.4392
#
#
#
# Elastic Compliance Matrix: (Units=1/GPa)
#
#
# Indices 1 2 3 4 5 6 
#
# 1 0.012274 -0.002084 -0.003844 0.000000 0.000000 0.000000
# 2 -0.002084 0.012274 -0.003844 0.000000 0.000000 0.000000
# 3 -0.003844 -0.003844 0.011258 0.000000 0.000000 0.000000
# 4 0.000000 0.000000 0.000000 0.026913 0.000000 0.000000
# 5 0.000000 0.000000 0.000000 0.000000 0.026913 0.000000
# 6 0.000000 0.000000 0.000000 0.000000 0.000000 0.060830
#
#
# Mechanical properties :
#
#
# Convention : Reuss Voigt Hill
#
# Bulk Modulus (GPa) = 61.49303 62.72914 62.11108
# Shear Modulus (GPa) = 28.50190 31.48010 29.99100
#
# Velocity S-wave (km/s) = 3.69929 3.88776 3.79470
# Velocity P-wave (km/s) = 6.91168 7.09024 7.00153
#
# Compressibility (1/GPa) = 0.01626201
#
# Stress axis : x y z
#
# Youngs Moduli (GPa) = 81.47403 81.47510 88.82217
#
# Poissons Ratio (x) = 0.16978 0.34144
# Poissons Ratio (y) = 0.16977 0.34144
# Poissons Ratio (z) = 0.31319 0.31320
#
# Static dielectric constant tensor:
#      x y z
#    x 3.668180 0.000000 0.000000 
#    y 0.000000 3.668200 0.000000 
#    z 0.000000 0.000000 3.818050 
# 
# 
# High freq. dielectric constant tensor:
#      x y z
#    x 1.809160 0.000000 0.000000 
#    y 0.000000 1.809160 0.000000 
#    z 0.000000 0.000000 1.833010 
# 
# From -- ./inp_files/5366.got.cif
#   From: 2010.03.12/outbox.cif.g09.slc.cpg/sg125_3_cif.got.tgz:5366.got - 2010.04.06 16:47:52.
