data_PCOD8313485
_publ_section_title
;
Structure prediction by ZEFSAII (Michael W. Deem and Ramdas Pophale) SiO2 
 PCOD8313485
Probable space group: P 4/N B M
;
_chemical_formula_sum "Si O2"
_cell_formula_units_Z 48
_cell_length_a 13.201507
_cell_length_b 13.201507
_cell_length_c 13.507110
_cell_angle_alpha 90.000000
_cell_angle_beta 90.000000
_cell_angle_gamma 90.000000
_cell_volume 2354.016255
_symmetry_space_group_name_H-M "P 4/N B M"
_symmetry_group_IT_number 125
_space_group.IT_coordinate_system_code '2'
_symmetry_cell_setting 'tetragonal'
loop_
_space_group_symop_operation_xyz
x,y,z
1/2-y,x,z
1/2-x,1/2-y,z
y,1/2-x,z
x,1/2-y,-z
1/2-x,y,-z
y,x,-z
1/2-y,1/2-x,-z
-x,-y,-z
1/2+y,-x,-z
1/2+x,1/2+y,-z
-y,1/2+x,-z
-x,1/2+y,z
1/2+x,-y,z
-y,-x,z
1/2+y,1/2+x,z
loop_
_atom_site_type_symbol
_atom_site_label
_atom_site_fract_x
_atom_site_fract_y
_atom_site_fract_z
Si Si1 0.989504 0.174344 0.301980
Si Si2 0.755164 0.085218 0.892487
Si Si3 0.373173 0.463977 0.407573
O O1 0.881449 0.118552 0.319517
O O2 0.993546 0.226818 0.194091
O O3 0.005077 0.257722 0.387815
O O4 0.080232 0.093012 0.310935
O O5 0.866183 0.133818 0.870844
O O6 0.674919 0.174919 0.896999
O O7 0.750000 0.029626 0.000000
O O8 0.386878 0.386878 0.500000
O O9 0.433057 0.566944 0.431553
#
# Coordination Sequence:
#
# PCOD8313485 Si02
#       3
#    16  16  16
#     4  10  20  35  55  78 108 146 182 221 274 325
#     4   8  14  27  50  79 108 140 182 227 266 313
#     4  10  21  36  54  80 111 141 183 231 267 318
#
# _framework density 20.390682999999999
#
# number of rings (size 3 to 8) (size 9 to 14) (size 15 to 20)
#    0.000    2.667    0.000    3.000    0.000    2.667 
#    0.000    5.000    0.000   20.000    0.000    2.333 
#    0.000    0.000    0.000    0.000    0.000    0.000 
#
# Total GULP energy -594829.605044 kJ/mol
# GULP energy per Si atom -12392.283438 kJ/mol
# Density = 2.034427 g / cm^3
# Si number density = 20.390683 Si / 1000 Ang^3
#
#
#
# Elastic Constant Matrix: (Units=GPa)
#
#
# Indices 1 2 3 4 5 6 
#
# 1 67.3212 31.3818 31.0861 0.0000 0.0000 0.0000
# 2 31.3818 67.3212 31.0861 0.0000 0.0000 0.0000
# 3 31.0861 31.0861 107.9434 0.0000 0.0000 0.0000
# 4 0.0000 0.0000 0.0000 27.1514 0.0000 0.0000
# 5 0.0000 0.0000 0.0000 0.0000 27.1514 0.0000
# 6 0.0000 0.0000 0.0000 0.0000 0.0000 23.6190
#
#
#
# Elastic Compliance Matrix: (Units=1/GPa)
#
#
# Indices 1 2 3 4 5 6 
#
# 1 0.020101 -0.007724 -0.003564 0.000000 0.000000 0.000000
# 2 -0.007724 0.020101 -0.003564 0.000000 0.000000 0.000000
# 3 -0.003564 -0.003564 0.011317 0.000000 0.000000 0.000000
# 4 0.000000 0.000000 0.000000 0.036831 0.000000 0.000000
# 5 0.000000 0.000000 0.000000 0.000000 0.036831 0.000000
# 6 0.000000 0.000000 0.000000 0.000000 0.000000 0.042339
#
#
# Mechanical properties :
#
#
# Convention : Reuss Voigt Hill
#
# Bulk Modulus (GPa) = 45.84418 47.74375 46.79397
# Shear Modulus (GPa) = 24.45060 25.51982 24.98521
#
# Velocity S-wave (km/s) = 3.46657 3.54155 3.50426
# Velocity P-wave (km/s) = 6.20923 6.33946 6.27468
#
# Compressibility (1/GPa) = 0.02181302
#
# Stress axis : x y z
#
# Youngs Moduli (GPa) = 49.74997 49.74997 88.36253
#
# Poissons Ratio (x) = 0.38427 0.31495
# Poissons Ratio (y) = 0.38427 0.31495
# Poissons Ratio (z) = 0.17732 0.17732
#
# Static dielectric constant tensor:
#      x y z
#    x 3.471000 0.000000 0.000000 
#    y 0.000000 3.471000 0.000000 
#    z 0.000000 0.000000 4.153460 
# 
# 
# High freq. dielectric constant tensor:
#      x y z
#    x 1.768550 0.000000 0.000000 
#    y 0.000000 1.768550 0.000000 
#    z 0.000000 0.000000 1.804440 
# 
# From -- ./inp_files/3348.got.cif
#   From: 2010.03.12/outbox.cif.g09.slc.cpg/sg125_2_cif.got.tgz:3348.got - 2010.04.06 16:47:52.
