data_PCOD8313668
_publ_section_title
;
Structure prediction by ZEFSAII (Michael W. Deem and Ramdas Pophale) SiO2 
 PCOD8313668
Probable space group: P 4/N N C
;
_chemical_formula_sum "Si O2"
_cell_formula_units_Z 80
_cell_length_a 15.942482
_cell_length_b 15.942482
_cell_length_c 15.205676
_cell_angle_alpha 90.000000
_cell_angle_beta 90.000000
_cell_angle_gamma 90.000000
_cell_volume 3864.716159
_symmetry_space_group_name_H-M "P 4/N N C"
_symmetry_group_IT_number 126
_space_group.IT_coordinate_system_code '2'
_symmetry_cell_setting 'tetragonal'
loop_
_space_group_symop_operation_xyz
x,y,z
1/2-y,x,z
1/2-x,1/2-y,z
y,1/2-x,z
x,1/2-y,1/2-z
1/2-x,y,1/2-z
y,x,1/2-z
1/2-y,1/2-x,1/2-z
-x,-y,-z
1/2+y,-x,-z
1/2+x,1/2+y,-z
-y,1/2+x,-z
-x,1/2+y,1/2+z
1/2+x,-y,1/2+z
-y,-x,1/2+z
1/2+y,1/2+x,1/2+z
loop_
_atom_site_type_symbol
_atom_site_label
_atom_site_fract_x
_atom_site_fract_y
_atom_site_fract_z
Si Si1 0.736693 0.379416 0.523102
Si Si2 0.986984 0.760547 0.386999
Si Si3 0.615916 0.478828 0.259254
Si Si4 0.190519 0.529345 0.326734
Si Si5 0.794673 0.620499 0.542184
O O1 0.818064 0.340895 0.476481
O O2 0.718227 0.460513 0.465592
O O3 0.754772 0.400461 0.623976
O O4 0.972850 0.681610 0.322765
O O5 0.032385 0.836398 0.334262
O O6 0.905390 0.797950 0.438064
O O7 0.536207 0.536207 0.250000
O O8 0.578893 0.391123 0.293333
O O9 0.250000 0.493601 0.250000
O O10 0.170723 0.453022 0.393613
O O11 0.855436 0.698326 0.561915
#
# Coordination Sequence:
#
# PCOD8313668 Si02
#       5
#    16  16  16  16  16
#     4  10  19  37  58  84 119 159 203 244 301 370
#     4  10  21  41  62  92 122 162 207 260 316 375
#     4  11  23  39  62  93 128 160 206 266 321 380
#     4  11  24  39  60  91 126 167 207 259 314 382
#     4  10  23  43  66  90 123 169 217 261 308 374
#
# _framework density 20.700098000000001
#
# number of rings (size 3 to 8) (size 9 to 14) (size 15 to 20)
#    0.000    1.600    2.000    2.400    2.800    0.000 
#    0.000    4.000    0.000    4.800    0.000    0.000 
#    0.000    0.000    0.000    0.000    0.000    0.000 
#
# Total GULP energy -991384.926252 kJ/mol
# GULP energy per Si atom -12392.311578 kJ/mol
# Density = 2.065298 g / cm^3
# Si number density = 20.700098 Si / 1000 Ang^3
#
#
#
# Elastic Constant Matrix: (Units=GPa)
#
#
# Indices 1 2 3 4 5 6 
#
# 1 61.9888 4.5572 30.4333 0.0000 0.0000 0.0000
# 2 4.5572 61.9888 30.4333 0.0000 0.0000 0.0000
# 3 30.4333 30.4333 107.0271 0.0000 0.0000 0.0000
# 4 0.0000 0.0000 0.0000 30.2595 0.0000 0.0000
# 5 0.0000 0.0000 0.0000 0.0000 30.2595 0.0000
# 6 0.0000 0.0000 0.0000 0.0000 0.0000 53.4524
#
#
#
# Elastic Compliance Matrix: (Units=1/GPa)
#
#
# Indices 1 2 3 4 5 6 
#
# 1 0.018861 0.001449 -0.005775 0.000000 0.000000 0.000000
# 2 0.001449 0.018861 -0.005775 0.000000 0.000000 0.000000
# 3 -0.005775 -0.005775 0.012628 0.000000 0.000000 0.000000
# 4 0.000000 0.000000 0.000000 0.033047 0.000000 0.000000
# 5 0.000000 0.000000 0.000000 0.000000 0.033047 0.000000
# 6 0.000000 0.000000 0.000000 0.000000 0.000000 0.018708
#
#
# Mechanical properties :
#
#
# Convention : Reuss Voigt Hill
#
# Bulk Modulus (GPa) = 33.17148 40.20580 36.68864
# Shear Modulus (GPa) = 30.22909 33.83301 32.03105
#
# Velocity S-wave (km/s) = 3.82558 4.04720 3.93795
# Velocity P-wave (km/s) = 5.96431 6.42689 6.19992
#
# Compressibility (1/GPa) = 0.03014638
#
# Stress axis : x y z
#
# Youngs Moduli (GPa) = 53.02039 53.02039 79.19111
#
# Poissons Ratio (x) = -0.07681 0.45733
# Poissons Ratio (y) = -0.07681 0.45733
# Poissons Ratio (z) = 0.30619 0.30619
#
# Static dielectric constant tensor:
#      x y z
#    x 3.686980 0.000000 0.000000 
#    y 0.000000 3.686980 0.000000 
#    z 0.000000 0.000000 3.754310 
# 
# 
# High freq. dielectric constant tensor:
#      x y z
#    x 1.805840 0.000000 0.000000 
#    y 0.000000 1.805840 0.000000 
#    z 0.000000 0.000000 1.821260 
# 
# From -- ./inp_files/3609.got.cif
#   From: 2010.03.12/outbox.cif.g09.slc.cpg/sg126_2_cif.got.tgz:3609.got - 2010.04.06 16:55:23.
