data_PCOD8313867
_publ_section_title
;
Structure prediction by ZEFSAII (Michael W. Deem and Ramdas Pophale) SiO2 
 PCOD8313867
Probable space group: P 4/M B M
;
_chemical_formula_sum "Si O2"
_cell_formula_units_Z 112
_cell_length_a 16.995918
_cell_length_b 16.995918
_cell_length_c 22.943560
_cell_angle_alpha 90.000000
_cell_angle_beta 90.000000
_cell_angle_gamma 90.000000
_cell_volume 6627.504931
_symmetry_space_group_name_H-M "P 4/M B M"
_symmetry_group_IT_number 127
_symmetry_cell_setting 'tetragonal'
loop_
_space_group_symop_operation_xyz
x,y,z
-y,x,z
-x,-y,z
y,-x,z
1/2+x,1/2-y,-z
1/2-x,1/2+y,-z
1/2+y,1/2+x,-z
1/2-y,1/2-x,-z
-x,-y,-z
y,-x,-z
x,y,-z
-y,x,-z
1/2-x,1/2+y,z
1/2+x,1/2-y,z
1/2-y,1/2-x,z
1/2+y,1/2+x,z
loop_
_atom_site_type_symbol
_atom_site_label
_atom_site_fract_x
_atom_site_fract_y
_atom_site_fract_z
Si Si1 0.793663 0.834608 0.156467
Si Si2 0.711212 0.664200 0.651957
Si Si3 0.892766 0.265250 0.729179
Si Si4 0.697352 0.928714 0.932253
Si Si5 0.788051 0.586611 0.863391
Si Si6 0.390214 0.434826 0.567837
Si Si7 0.937129 0.685073 0.268659
O O1 0.741298 0.758703 0.173114
O O2 0.789200 0.894464 0.212058
O O3 0.764567 0.878012 0.098798
O O4 0.881419 0.802085 0.142376
O O5 0.778873 0.721128 0.625246
O O6 0.638717 0.715780 0.674713
O O7 0.681126 0.604826 0.602704
O O8 0.744889 0.617927 0.707829
O O9 0.839862 0.339862 0.743934
O O10 0.975824 0.299963 0.707775
O O11 0.611805 0.888196 0.920622
O O12 0.701015 0.016964 0.909122
O O13 0.717708 0.929230 0.000000
O O14 0.843824 0.656177 0.886652
O O15 0.814930 0.556767 0.800627
O O16 0.473054 0.394054 0.583973
O O17 0.372114 0.423827 0.500000
O O18 0.898945 0.601055 0.288778
#
# Coordination Sequence:
#
# PCOD8313867 Si02
#       7
#    16  16  16  16  16  16  16
#     4   9  17  32  50  69  93 122 160 200 239 293
#     4  10  19  31  49  75 104 133 167 207 248 294
#     4  10  18  30  49  71  98 131 162 200 247 292
#     4  10  21  35  51  72  96 125 163 205 249 300
#     4  10  19  32  51  72  96 124 157 200 249 298
#     4   9  18  33  52  74 102 136 172 209 249 295
#     4  10  19  30  47  74 101 126 162 205 249 299
#
# _framework density 16.899270999999999
#
# number of rings (size 3 to 8) (size 9 to 14) (size 15 to 20)
#    0.000    2.286    2.857    1.286    0.000    1.714 
#    0.000    3.571    0.000    0.429    0.000    1.000 
#    0.000    0.000    0.000   26.571    0.000    0.143 
#
# Total GULP energy -1388297.657208 kJ/mol
# GULP energy per Si atom -12395.514796 kJ/mol
# Density = 1.686081 g / cm^3
# Si number density = 16.899271 Si / 1000 Ang^3
#
#
#
# Elastic Constant Matrix: (Units=GPa)
#
#
# Indices 1 2 3 4 5 6 
#
# 1 67.9700 29.7768 18.1479 0.0000 0.0000 0.0000
# 2 29.7768 67.9700 18.1479 0.0000 0.0000 0.0000
# 3 18.1479 18.1479 55.3024 0.0000 0.0000 0.0000
# 4 0.0000 0.0000 0.0000 24.1229 0.0000 0.0000
# 5 0.0000 0.0000 0.0000 0.0000 24.1229 0.0000
# 6 0.0000 0.0000 0.0000 0.0000 0.0000 24.7540
#
#
#
# Elastic Compliance Matrix: (Units=1/GPa)
#
#
# Indices 1 2 3 4 5 6 
#
# 1 0.018916 -0.007266 -0.003823 0.000000 0.000000 0.000000
# 2 -0.007266 0.018916 -0.003823 0.000000 0.000000 0.000000
# 3 -0.003823 -0.003823 0.020592 0.000000 0.000000 0.000000
# 4 0.000000 0.000000 0.000000 0.041454 0.000000 0.000000
# 5 0.000000 0.000000 0.000000 0.000000 0.041454 0.000000
# 6 0.000000 0.000000 0.000000 0.000000 0.000000 0.040398
#
#
# Mechanical properties :
#
#
# Convention : Reuss Voigt Hill
#
# Bulk Modulus (GPa) = 34.96567 35.93195 35.44881
# Shear Modulus (GPa) = 22.61538 22.94463 22.78000
#
# Velocity S-wave (km/s) = 3.66217 3.68873 3.67548
# Velocity P-wave (km/s) = 6.21430 6.28100 6.24774
#
# Compressibility (1/GPa) = 0.02859948
#
# Stress axis : x y z
#
# Youngs Moduli (GPa) = 52.86424 52.86424 48.56367
#
# Poissons Ratio (x) = 0.38413 0.18566
# Poissons Ratio (y) = 0.38413 0.18566
# Poissons Ratio (z) = 0.20210 0.20210
#
# Static dielectric constant tensor:
#      x y z
#    x 3.153040 0.000000 0.000000 
#    y 0.000000 3.153040 0.000000 
#    z 0.000000 0.000000 2.937620 
# 
# 
# High freq. dielectric constant tensor:
#      x y z
#    x 1.643320 0.000000 0.000000 
#    y 0.000000 1.643320 0.000000 
#    z 0.000000 0.000000 1.636920 
# 
# From -- ./inp_files/5926.got.cif
#   From: 2010.03.12/outbox.cif.g09.slc.cpg/sg127_3_cif.got.tgz:5926.got - 2010.04.06 17:03:15.
