data_PCOD8313341
_publ_section_title
;
Structure prediction by ZEFSAII (Michael W. Deem and Ramdas Pophale) SiO2 
 PCOD8313341
Probable space group: P 4/M C C
;
_chemical_formula_sum "Si O2"
_cell_formula_units_Z 40
_cell_length_a 14.504830
_cell_length_b 14.504830
_cell_length_c 8.701045
_cell_angle_alpha 90.000000
_cell_angle_beta 90.000000
_cell_angle_gamma 90.000000
_cell_volume 1830.613670
_symmetry_space_group_name_H-M "P 4/M C C"
_symmetry_group_IT_number 124
_symmetry_cell_setting 'tetragonal'
loop_
_space_group_symop_operation_xyz
x,y,z
-y,x,z
-x,-y,z
y,-x,z
x,-y,1/2-z
-x,y,1/2-z
y,x,1/2-z
-y,-x,1/2-z
-x,-y,-z
y,-x,-z
x,y,-z
-y,x,-z
-x,y,1/2+z
x,-y,1/2+z
-y,-x,1/2+z
y,x,1/2+z
loop_
_atom_site_type_symbol
_atom_site_label
_atom_site_fract_x
_atom_site_fract_y
_atom_site_fract_z
Si Si1 0.812830 0.407976 0.329680
Si Si2 0.639869 0.439096 0.500000
Si Si3 0.099820 0.235730 0.318897
O O1 0.852569 0.500000 0.250000
O O2 0.858937 0.397145 0.500000
O O3 0.701574 0.415735 0.349483
O O4 0.834984 0.321240 0.223453
O O5 0.619902 0.547883 0.500000
O O6 0.142145 0.142145 0.250000
O O7 0.094261 0.225329 0.500000
O O8 0.000000 0.253274 0.250000
#
# Coordination Sequence:
#
# PCOD8313341 Si02
#       3
#    16   8  16
#     4  10  23  39  68 100 143 193 240 295 359 424
#     4   9  22  40  64 103 151 198 250 297 357 418
#     4  12  27  49  77 107 142 182 236 298 368 440
#
# _framework density 21.850595999999999
#
# number of rings (size 3 to 8) (size 9 to 14) (size 15 to 20)
#    1.200    0.200    0.000    4.800    5.600    1.200 
#    0.000    8.000    0.000    0.000    0.000    0.000 
#    0.000    0.000    0.000    0.000    0.000    0.000 
#
# Total GULP energy -495912.422968 kJ/mol
# GULP energy per Si atom -12397.810574 kJ/mol
# Density = 2.180086 g / cm^3
# Si number density = 21.850596 Si / 1000 Ang^3
#
#
#
# Elastic Constant Matrix: (Units=GPa)
#
#
# Indices 1 2 3 4 5 6 
#
# 1 123.2520 53.2009 47.0566 0.0000 0.0000 0.0000
# 2 53.2009 123.2520 47.0566 0.0000 0.0000 0.0000
# 3 47.0566 47.0566 173.1420 0.0000 0.0000 0.0000
# 4 0.0000 0.0000 0.0000 38.9726 0.0000 0.0000
# 5 0.0000 0.0000 0.0000 0.0000 38.9726 0.0000
# 6 0.0000 0.0000 0.0000 0.0000 0.0000 20.5199
#
#
#
# Elastic Compliance Matrix: (Units=1/GPa)
#
#
# Indices 1 2 3 4 5 6 
#
# 1 0.010452 -0.003824 -0.001801 0.000000 0.000000 0.000000
# 2 -0.003824 0.010452 -0.001801 0.000000 0.000000 0.000000
# 3 -0.001801 -0.001801 0.006755 0.000000 0.000000 0.000000
# 4 0.000000 0.000000 0.000000 0.025659 0.000000 0.000000
# 5 0.000000 0.000000 0.000000 0.000000 0.025659 0.000000
# 6 0.000000 0.000000 0.000000 0.000000 0.000000 0.048733
#
#
# Mechanical properties :
#
#
# Convention : Reuss Voigt Hill
#
# Bulk Modulus (GPa) = 78.09252 79.36382 78.72817
# Shear Modulus (GPa) = 34.05283 37.84846 35.95064
#
# Velocity S-wave (km/s) = 3.95199 4.16642 4.06062
# Velocity P-wave (km/s) = 7.52603 7.71657 7.62190
#
# Compressibility (1/GPa) = 0.01280532
#
# Stress axis : x y z
#
# Youngs Moduli (GPa) = 95.67867 95.67867 148.04378
#
# Poissons Ratio (x) = 0.36584 0.26668
# Poissons Ratio (y) = 0.36584 0.26668
# Poissons Ratio (z) = 0.17235 0.17235
#
# Static dielectric constant tensor:
#      x y z
#    x 3.796980 0.000000 0.000000 
#    y 0.000000 3.796980 0.000000 
#    z 0.000000 0.000000 4.014250 
# 
# 
# High freq. dielectric constant tensor:
#      x y z
#    x 1.853080 0.000000 0.000000 
#    y 0.000000 1.853080 0.000000 
#    z 0.000000 0.000000 1.871550 
# 
# From -- ./inp_files/308.got.cif
#   From: 2010.03.12/outbox.cif.g09.slc.cpg/sg124_1_cif.got.tgz:308.got - 2010.04.06 16:38:57.
