data_PCOD8313725
_publ_section_title
;
Structure prediction by ZEFSAII (Michael W. Deem and Ramdas Pophale) SiO2 
 PCOD8313725
Probable space group: P 4/N N C
;
_chemical_formula_sum "Si O2"
_cell_formula_units_Z 80
_cell_length_a 13.540262
_cell_length_b 13.540262
_cell_length_c 21.970170
_cell_angle_alpha 90.000000
_cell_angle_beta 90.000000
_cell_angle_gamma 90.000000
_cell_volume 4027.982297
_symmetry_space_group_name_H-M "P 4/N N C"
_symmetry_group_IT_number 126
_space_group.IT_coordinate_system_code '2'
_symmetry_cell_setting 'tetragonal'
loop_
_space_group_symop_operation_xyz
x,y,z
1/2-y,x,z
1/2-x,1/2-y,z
y,1/2-x,z
x,1/2-y,1/2-z
1/2-x,y,1/2-z
y,x,1/2-z
1/2-y,1/2-x,1/2-z
-x,-y,-z
1/2+y,-x,-z
1/2+x,1/2+y,-z
-y,1/2+x,-z
-x,1/2+y,1/2+z
1/2+x,-y,1/2+z
-y,-x,1/2+z
1/2+y,1/2+x,1/2+z
loop_
_atom_site_type_symbol
_atom_site_label
_atom_site_fract_x
_atom_site_fract_y
_atom_site_fract_z
Si Si1 0.875007 0.152073 0.368351
Si Si2 0.059700 0.462600 0.818804
Si Si3 0.596490 0.435241 0.492864
Si Si4 0.627998 0.144666 0.875842
Si Si5 0.690007 0.601068 0.424802
O O1 0.914169 0.141743 0.437466
O O2 0.889157 0.265926 0.348694
O O3 0.760856 0.116688 0.364419
O O4 0.941783 0.082704 0.323908
O O5 0.073366 0.426635 0.750000
O O6 0.157353 0.433778 0.857324
O O7 0.958890 0.416632 0.844399
O O8 0.500000 0.500000 0.500000
O O9 0.626408 0.374710 0.552146
O O10 0.677735 0.517083 0.475175
O O11 0.803987 0.622391 0.433844
#
# Coordination Sequence:
#
# PCOD8313725 Si02
#       5
#    16  16  16  16  16
#     4  10  23  38  61  91 118 150 196 244 293 352
#     4  11  23  39  59  82 114 156 198 244 296 347
#     4  11  20  33  58  86 116 151 185 229 286 352
#     4  11  22  39  61  89 120 152 193 245 294 347
#     4  10  22  37  55  84 118 151 190 237 290 351
#
# _framework density 19.861059000000001
#
# number of rings (size 3 to 8) (size 9 to 14) (size 15 to 20)
#    0.000    1.400    4.000    3.600    2.800    5.600 
#    0.000    3.000    0.000    0.600    0.000    1.400 
#    0.000    0.000    0.000    0.000    0.000    0.000 
#
# Total GULP energy -991358.207298 kJ/mol
# GULP energy per Si atom -12391.977591 kJ/mol
# Density = 1.981585 g / cm^3
# Si number density = 19.861059 Si / 1000 Ang^3
#
#
#
# Elastic Constant Matrix: (Units=GPa)
#
#
# Indices 1 2 3 4 5 6 
#
# 1 -949.8146 1058.0277 12.9140 0.0000 0.0000 0.0000
# 2 1058.0277 -949.8248 12.9127 0.0000 0.0000 0.0000
# 3 12.9140 12.9127 69.3010 0.0000 0.0000 0.0000
# 4 0.0000 0.0000 0.0000 13.2956 0.0000 0.0000
# 5 0.0000 0.0000 0.0000 0.0000 13.2955 0.0000
# 6 0.0000 0.0000 0.0000 0.0000 0.0000 -50.5253
#
#
#
# Elastic Compliance Matrix: (Units=1/GPa)
#
#
# Indices 1 2 3 4 5 6 
#
# 1 0.004587 0.005085 -0.001802 0.000000 0.000000 0.000000
# 2 0.005085 0.004587 -0.001802 0.000000 0.000000 0.000000
# 3 -0.001802 -0.001802 0.015101 0.000000 0.000000 0.000000
# 4 0.000000 0.000000 0.000000 0.075213 0.000000 0.000000
# 5 0.000000 0.000000 0.000000 0.000000 0.075213 0.000000
# 6 0.000000 0.000000 0.000000 0.000000 0.000000 -0.019792
#
#
# Mechanical properties :
#
#
# Convention : Reuss Voigt Hill
#
# Bulk Modulus (GPa) = 36.71622 37.48560 37.10091
# Shear Modulus (GPa) = 31.05072 -199.06635 -84.00782
#
# Velocity S-wave (km/s) = 3.95827 -10.02233 -6.51073
# Velocity P-wave (km/s) = 6.27831 10.72448 6.14806
#
# Compressibility (1/GPa) = 0.02723592
#
# Stress axis : x y z
#
# Youngs Moduli (GPa) = 218.01691 218.01913 66.21891
#
# Poissons Ratio (x) = -1.10859 0.11934
# Poissons Ratio (y) = -1.10858 0.11934
# Poissons Ratio (z) = 0.39290 0.39291
#
# Static dielectric constant tensor:
#      x y z
#    x 4.065450 0.000000 0.000000 
#    y 0.000000 4.065450 0.000000 
#    z 0.000000 0.000000 -5.105900 
# 
# 
# High freq. dielectric constant tensor:
#      x y z
#    x 1.785100 0.000000 0.000000 
#    y 0.000000 1.785100 0.000000 
#    z 0.000000 0.000000 1.749200 
# 
# From -- ./inp_files/5085.got.cif
#   From: 2010.03.12/outbox.cif.g09.slc.cpg/sg126_3_cif.got.tgz:5085.got - 2010.04.06 16:55:23.
