data_PCOD8313689
_publ_section_title
;
Structure prediction by ZEFSAII (Michael W. Deem and Ramdas Pophale) SiO2 
 PCOD8313689
Probable space group: P 4/N N C
;
_chemical_formula_sum "Si O2"
_cell_formula_units_Z 48
_cell_length_a 13.383817
_cell_length_b 13.383817
_cell_length_c 13.522933
_cell_angle_alpha 90.000000
_cell_angle_beta 90.000000
_cell_angle_gamma 90.000000
_cell_volume 2422.316435
_symmetry_space_group_name_H-M "P 4/N N C"
_symmetry_group_IT_number 126
_space_group.IT_coordinate_system_code '2'
_symmetry_cell_setting 'tetragonal'
loop_
_space_group_symop_operation_xyz
x,y,z
1/2-y,x,z
1/2-x,1/2-y,z
y,1/2-x,z
x,1/2-y,1/2-z
1/2-x,y,1/2-z
y,x,1/2-z
1/2-y,1/2-x,1/2-z
-x,-y,-z
1/2+y,-x,-z
1/2+x,1/2+y,-z
-y,1/2+x,-z
-x,1/2+y,1/2+z
1/2+x,-y,1/2+z
-y,-x,1/2+z
1/2+y,1/2+x,1/2+z
loop_
_atom_site_type_symbol
_atom_site_label
_atom_site_fract_x
_atom_site_fract_y
_atom_site_fract_z
Si Si1 0.868028 0.021745 0.913464
Si Si2 0.652039 0.509305 0.307164
Si Si3 0.848499 0.506693 0.973432
O O1 0.906885 0.907439 0.914571
O O2 0.748500 0.024398 0.910797
O O3 0.912806 0.078206 0.816802
O O4 0.909888 0.078347 0.012846
O O5 0.750000 0.473703 0.250000
O O6 0.599638 0.599638 0.250000
O O7 0.682298 0.547002 0.417373
#
# Coordination Sequence:
#
# PCOD8313689 Si02
#       3
#    16  16  16
#     4   9  20  35  62  79 128 155 211 230 310 364
#     4  10  20  35  60  89 124 152 195 259 306 342
#     4   9  19  37  59  86 117 162 199 247 294 377
#
# _framework density 19.815745
#
# number of rings (size 3 to 8) (size 9 to 14) (size 15 to 20)
#    2.000    0.667    0.000    2.000    0.000    1.667 
#    0.000    5.000    7.333    0.000    0.000    2.333 
#    0.000    0.000    0.000    0.000    0.000    0.000 
#
# Total GULP energy -594728.297529 kJ/mol
# GULP energy per Si atom -12390.172865 kJ/mol
# Density = 1.977064 g / cm^3
# Si number density = 19.815745 Si / 1000 Ang^3
#
#
#
# Elastic Constant Matrix: (Units=GPa)
#
#
# Indices 1 2 3 4 5 6 
#
# 1 121.5580 59.6321 30.5253 0.0000 0.0000 0.0000
# 2 59.6321 121.5580 30.5253 0.0000 0.0000 0.0000
# 3 30.5253 30.5253 60.7458 0.0000 0.0000 0.0000
# 4 0.0000 0.0000 0.0000 32.2782 0.0000 0.0000
# 5 0.0000 0.0000 0.0000 0.0000 32.2782 0.0000
# 6 0.0000 0.0000 0.0000 0.0000 0.0000 11.8985
#
#
#
# Elastic Compliance Matrix: (Units=1/GPa)
#
#
# Indices 1 2 3 4 5 6 
#
# 1 0.011396 -0.004752 -0.003339 0.000000 0.000000 0.000000
# 2 -0.004752 0.011396 -0.003339 0.000000 0.000000 0.000000
# 3 -0.003339 -0.003339 0.019817 0.000000 0.000000 0.000000
# 4 0.000000 0.000000 0.000000 0.030981 0.000000 0.000000
# 5 0.000000 0.000000 0.000000 0.000000 0.030981 0.000000
# 6 0.000000 0.000000 0.000000 0.000000 0.000000 0.084044
#
#
# Mechanical properties :
#
#
# Convention : Reuss Voigt Hill
#
# Bulk Modulus (GPa) = 50.63088 60.58079 55.60584
# Shear Modulus (GPa) = 22.92973 27.50294 25.21633
#
# Velocity S-wave (km/s) = 3.40538 3.72954 3.57114
# Velocity P-wave (km/s) = 6.40846 7.01316 6.71762
#
# Compressibility (1/GPa) = 0.01975079
#
# Stress axis : x y z
#
# Youngs Moduli (GPa) = 87.74880 87.74880 50.46052
#
# Poissons Ratio (x) = 0.41700 0.16847
# Poissons Ratio (y) = 0.41700 0.16847
# Poissons Ratio (z) = 0.29296 0.29296
#
# Static dielectric constant tensor:
#      x y z
#    x 3.312240 0.000000 0.000000 
#    y 0.000000 3.312240 0.000000 
#    z 0.000000 0.000000 3.269430 
# 
# 
# High freq. dielectric constant tensor:
#      x y z
#    x 1.757220 0.000000 0.000000 
#    y 0.000000 1.757220 0.000000 
#    z 0.000000 0.000000 1.744680 
# 
# From -- ./inp_files/2291.got.cif
#   From: 2010.03.12/outbox.cif.g09.slc.cpg/sg126_2_cif.got.tgz:2291.got - 2010.04.06 16:55:23.
