data_PCOD8313030
_publ_section_title
;
Structure prediction by ZEFSAII (Michael W. Deem and Ramdas Pophale) SiO2 
 PCOD8313030
Probable space group: P 4/M M M
;
_chemical_formula_sum "Si O2"
_cell_formula_units_Z 40
_cell_length_a 11.832698
_cell_length_b 11.832698
_cell_length_c 18.954680
_cell_angle_alpha 90.000000
_cell_angle_beta 90.000000
_cell_angle_gamma 90.000000
_cell_volume 2653.896720
_symmetry_space_group_name_H-M "P 4/M M M"
_symmetry_group_IT_number 123
_symmetry_cell_setting 'tetragonal'
loop_
_space_group_symop_operation_xyz
x,y,z
-y,x,z
-x,-y,z
y,-x,z
x,-y,-z
-x,y,-z
y,x,-z
-y,-x,-z
-x,-y,-z
y,-x,-z
x,y,-z
-y,x,-z
-x,y,z
x,-y,z
-y,-x,z
y,x,z
loop_
_atom_site_type_symbol
_atom_site_label
_atom_site_fract_x
_atom_site_fract_y
_atom_site_fract_z
Si Si1 0.871231 0.500000 0.196594
Si Si2 0.315726 0.131341 0.687608
Si Si3 0.683820 0.500000 0.081255
Si Si4 0.865640 0.500000 0.578836
O O1 0.846514 0.611261 0.242464
O O2 0.795334 0.500000 0.127639
O O3 0.000000 0.500000 0.170586
O O4 0.200155 0.200155 0.691942
O O5 0.387725 0.173981 0.620058
O O6 0.283868 0.000000 0.680365
O O7 0.610779 0.610779 0.098603
O O8 0.721310 0.500000 0.000000
O O9 0.814181 0.500000 0.500000
O O10 0.000000 0.500000 0.577543
#
# Coordination Sequence:
#
# PCOD8313030 Si02
#       4
#     8  16   8   8
#     4   9  17  29  44  61  83 112 144 171 196 240
#     4   9  17  28  43  63  84 108 138 170 206 245
#     4   9  17  28  43  64  87 109 134 169 214 253
#     4   8  15  28  43  58  78 106 138 167 197 239
#
# _framework density 15.072176000000001
#
# number of rings (size 3 to 8) (size 9 to 14) (size 15 to 20)
#    0.000    3.200    0.000    4.200    0.000    1.600 
#    0.000    0.000    0.000    5.400    0.000   11.200 
#    0.000    0.000    0.000   37.200    0.000    0.000 
#
# Total GULP energy -495867.650968 kJ/mol
# GULP energy per Si atom -12396.691274 kJ/mol
# Density = 1.503787 g / cm^3
# Si number density = 15.072176 Si / 1000 Ang^3
#
#
#
# Elastic Constant Matrix: (Units=GPa)
#
#
# Indices 1 2 3 4 5 6 
#
# 1 92.4093 56.7399 54.0295 0.0000 0.0000 0.0000
# 2 56.7399 92.4093 54.0295 0.0000 0.0000 0.0000
# 3 54.0295 54.0295 110.9268 0.0000 0.0000 0.0000
# 4 0.0000 0.0000 0.0000 17.4655 0.0000 0.0000
# 5 0.0000 0.0000 0.0000 0.0000 17.4655 0.0000
# 6 0.0000 0.0000 0.0000 0.0000 0.0000 23.9557
#
#
#
# Elastic Compliance Matrix: (Units=1/GPa)
#
#
# Indices 1 2 3 4 5 6 
#
# 1 0.019198 -0.008837 -0.005047 0.000000 0.000000 0.000000
# 2 -0.008837 0.019198 -0.005047 0.000000 0.000000 0.000000
# 3 -0.005047 -0.005047 0.013931 0.000000 0.000000 0.000000
# 4 0.000000 0.000000 0.000000 0.057256 0.000000 0.000000
# 5 0.000000 0.000000 0.000000 0.000000 0.057256 0.000000
# 6 0.000000 0.000000 0.000000 0.000000 0.000000 0.041744
#
#
# Mechanical properties :
#
#
# Convention : Reuss Voigt Hill
#
# Bulk Modulus (GPa) = 69.12412 69.48261 69.30336
# Shear Modulus (GPa) = 19.89928 20.50708 20.20318
#
# Velocity S-wave (km/s) = 3.63749 3.69262 3.66516
# Velocity P-wave (km/s) = 7.97517 8.02375 7.99950
#
# Compressibility (1/GPa) = 0.01446673
#
# Stress axis : x y z
#
# Youngs Moduli (GPa) = 52.08853 52.08853 71.78219
#
# Poissons Ratio (x) = 0.46031 0.36225
# Poissons Ratio (y) = 0.46031 0.36225
# Poissons Ratio (z) = 0.26287 0.26287
#
# Static dielectric constant tensor:
#      x y z
#    x 2.704300 0.000000 0.000000 
#    y 0.000000 2.704300 0.000000 
#    z 0.000000 0.000000 2.962300 
# 
# 
# High freq. dielectric constant tensor:
#      x y z
#    x 1.565440 0.000000 0.000000 
#    y 0.000000 1.565440 0.000000 
#    z 0.000000 0.000000 1.578060 
# 
# From -- ./inp_files/4790.got.cif
#   From: 2010.03.12/outbox.cif.g09.slc.cpg/sg123_3_cif.got.tgz:4790.got - 2010.04.06 16:26:55.
