data_PCOD8313041
_publ_section_title
;
Structure prediction by ZEFSAII (Michael W. Deem and Ramdas Pophale) SiO2 
 PCOD8313041
Probable space group: P 4/M M M
;
_chemical_formula_sum "Si O2"
_cell_formula_units_Z 104
_cell_length_a 25.900692
_cell_length_b 25.900692
_cell_length_c 9.860802
_cell_angle_alpha 90.000000
_cell_angle_beta 90.000000
_cell_angle_gamma 90.000000
_cell_volume 6615.078061
_symmetry_space_group_name_H-M "P 4/M M M"
_symmetry_group_IT_number 123
_symmetry_cell_setting 'tetragonal'
loop_
_space_group_symop_operation_xyz
x,y,z
-y,x,z
-x,-y,z
y,-x,z
x,-y,-z
-x,y,-z
y,x,-z
-y,-x,-z
-x,-y,-z
y,-x,-z
x,y,-z
-y,x,-z
-x,y,z
x,-y,z
-y,-x,z
y,x,z
loop_
_atom_site_type_symbol
_atom_site_label
_atom_site_fract_x
_atom_site_fract_y
_atom_site_fract_z
Si Si1 0.941572 0.235824 0.654672
Si Si2 0.056486 0.500000 0.838442
Si Si3 0.321598 0.856607 0.654084
Si Si4 0.244872 0.441353 0.844310
Si Si5 0.587813 0.871148 0.845680
Si Si6 0.941752 0.859123 0.845683
Si Si7 0.655589 0.259692 0.342292
O O1 0.939920 0.216897 0.500000
O O2 0.893061 0.272986 0.682379
O O3 0.929163 0.188529 0.750670
O O4 0.000000 0.258404 0.685196
O O5 0.085678 0.550201 0.786842
O O6 0.000000 0.500000 0.773996
O O7 0.055936 0.500000 0.000000
O O8 0.340418 0.863211 0.500000
O O9 0.363024 0.878921 0.754670
O O10 0.315193 0.795102 0.685524
O O11 0.262981 0.500000 0.804012
O O12 0.183454 0.440297 0.830770
O O13 0.267738 0.396873 0.745752
O O14 0.261542 0.429554 0.000000
O O15 0.604398 0.881210 0.000000
O O16 0.906362 0.906362 0.800667
O O17 0.000000 0.878404 0.826931
O O18 0.930980 0.841816 0.000000
O O19 0.639851 0.264020 0.500000
O O20 0.695449 0.304552 0.300524
#
# Coordination Sequence:
#
# PCOD8313041 Si02
#       7
#    16   8  16  16  16  16  16
#     4   9  18  32  48  65  87 117 153 190 227 271
#     4   9  16  26  41  61  85 113 147 189 234 275
#     4   9  18  31  46  64  87 119 154 188 232 276
#     4   9  16  28  47  67  88 118 153 187 226 270
#     4   9  16  28  44  62  85 113 149 190 228 269
#     4   9  18  32  49  69  91 112 136 171 216 267
#     4   9  18  31  45  65  94 123 153 191 231 273
#
# _framework density 15.721659000000001
#
# number of rings (size 3 to 8) (size 9 to 14) (size 15 to 20)
#    0.000    3.000    0.769    0.000    0.000    2.923 
#    0.000    2.692    0.000    0.462    0.000    2.154 
#    0.000    0.308    0.000    3.385    0.000    2.462 
#
# Total GULP energy -1288613.212526 kJ/mol
# GULP energy per Si atom -12390.511659 kJ/mol
# Density = 1.568588 g / cm^3
# Si number density = 15.721659 Si / 1000 Ang^3
#
#
#
# Elastic Constant Matrix: (Units=GPa)
#
#
# Indices 1 2 3 4 5 6 
#
# 1 103.4528 71.2605 60.5968 0.0000 0.0000 0.0000
# 2 71.2605 103.4528 60.5968 0.0000 0.0000 0.0000
# 3 60.5968 60.5968 70.7209 0.0000 0.0000 0.0000
# 4 0.0000 0.0000 0.0000 108.6827 0.0000 0.0000
# 5 0.0000 0.0000 0.0000 0.0000 108.6827 0.0000
# 6 0.0000 0.0000 0.0000 0.0000 0.0000 21.2443
#
#
#
# Elastic Compliance Matrix: (Units=1/GPa)
#
#
# Indices 1 2 3 4 5 6 
#
# 1 0.022587 -0.008476 -0.012091 0.000000 0.000000 0.000000
# 2 -0.008476 0.022587 -0.012091 0.000000 0.000000 0.000000
# 3 -0.012091 -0.012091 0.034860 0.000000 0.000000 0.000000
# 4 0.000000 0.000000 0.000000 0.009201 0.000000 0.000000
# 5 0.000000 0.000000 0.000000 0.000000 0.009201 0.000000
# 6 0.000000 0.000000 0.000000 0.000000 0.000000 0.047071
#
#
# Mechanical properties :
#
#
# Convention : Reuss Voigt Hill
#
# Bulk Modulus (GPa) = 67.94199 73.61499 70.77849
# Shear Modulus (GPa) = 23.17732 53.40010 38.28871
#
# Velocity S-wave (km/s) = 3.84373 5.83435 4.94034
# Velocity P-wave (km/s) = 7.93778 9.60790 8.81250
#
# Compressibility (1/GPa) = 0.01471844
#
# Stress axis : x y z
#
# Youngs Moduli (GPa) = 44.27337 44.27337 28.68656
#
# Poissons Ratio (x) = 0.37528 0.34684
# Poissons Ratio (y) = 0.37528 0.34684
# Poissons Ratio (z) = 0.53529 0.53529
#
# Static dielectric constant tensor:
#      x y z
#    x 2.991940 0.000000 0.000000 
#    y 0.000000 2.991940 0.000000 
#    z 0.000000 0.000000 3.041490 
# 
# 
# High freq. dielectric constant tensor:
#      x y z
#    x 1.591470 0.000000 0.000000 
#    y 0.000000 1.591470 0.000000 
#    z 0.000000 0.000000 1.602830 
# 
# From -- ./inp_files/1963.got.cif
#   From: 2010.03.12/outbox.cif.g09.slc.cpg/sg123_1_cif.got.tgz:1963.got - 2010.04.06 16:26:55.
