data_PCOD8313381
_publ_section_title
;
Structure prediction by ZEFSAII (Michael W. Deem and Ramdas Pophale) SiO2 
 PCOD8313381
Probable space group: P 4/M C C
;
_chemical_formula_sum "Si O2"
_cell_formula_units_Z 88
_cell_length_a 15.054289
_cell_length_b 15.054289
_cell_length_c 19.456335
_cell_angle_alpha 90.000000
_cell_angle_beta 90.000000
_cell_angle_gamma 90.000000
_cell_volume 4409.420668
_symmetry_space_group_name_H-M "P 4/M C C"
_symmetry_group_IT_number 124
_symmetry_cell_setting 'tetragonal'
loop_
_space_group_symop_operation_xyz
x,y,z
-y,x,z
-x,-y,z
y,-x,z
x,-y,1/2-z
-x,y,1/2-z
y,x,1/2-z
-y,-x,1/2-z
-x,-y,-z
y,-x,-z
x,y,-z
-y,x,-z
-x,y,1/2+z
x,-y,1/2+z
-y,-x,1/2+z
y,x,1/2+z
loop_
_atom_site_type_symbol
_atom_site_label
_atom_site_fract_x
_atom_site_fract_y
_atom_site_fract_z
Si Si1 0.153285 0.284668 0.500000
Si Si2 0.830036 0.328211 0.500000
Si Si3 0.023595 0.189901 0.000000
Si Si4 0.044909 0.133823 0.848086
Si Si5 0.880430 0.420246 0.369282
Si Si6 0.618858 0.915194 0.130476
Si Si7 0.280595 0.861948 0.237811
O O1 0.252201 0.245022 0.500000
O O2 0.139616 0.344449 0.433417
O O3 0.082555 0.204270 0.500000
O O4 0.927614 0.284510 0.500000
O O5 0.820242 0.391888 0.434051
O O6 0.051654 0.138151 0.930886
O O7 0.072237 0.223155 0.810077
O O8 0.944573 0.111511 0.824302
O O9 0.871930 0.524072 0.351658
O O10 0.841711 0.370598 0.303036
O O11 0.981686 0.393351 0.386347
O O12 0.690994 0.907782 0.191209
O O13 0.230165 0.769836 0.250000
#
# Coordination Sequence:
#
# PCOD8313381 Si02
#       7
#     8   8   8  16  16  16  16
#     4  12  23  40  63  90 122 159 210 258 310 364
#     4  12  21  36  63  92 120 159 206 252 302 364
#     4  12  22  37  63  84 122 162 214 260 289 351
#     4  11  25  41  57  82 121 174 221 258 294 341
#     4  11  23  41  63  88 119 163 211 257 319 373
#     4  11  24  42  63  86 120 163 210 263 317 375
#     4  12  26  38  61  88 124 161 210 260 312 366
#
# _framework density 19.957270000000001
#
# number of rings (size 3 to 8) (size 9 to 14) (size 15 to 20)
#    0.000    0.545    3.636    4.364    7.636    3.636 
#    0.000    0.909    0.000    0.000    0.000    0.000 
#    0.000   50.909    0.000    0.000    0.000    0.000 
#
# Total GULP energy -1091498.069933 kJ/mol
# GULP energy per Si atom -12403.387158 kJ/mol
# Density = 1.991185 g / cm^3
# Si number density = 19.957270 Si / 1000 Ang^3
#
#
#
# Elastic Constant Matrix: (Units=GPa)
#
#
# Indices 1 2 3 4 5 6 
#
# 1 103.8387 42.8101 43.6918 0.0000 0.0000 0.0000
# 2 42.8101 103.8394 43.6922 0.0000 0.0000 0.0000
# 3 43.6918 43.6922 133.0175 0.0000 0.0000 0.0000
# 4 0.0000 0.0000 0.0000 29.2601 0.0000 0.0000
# 5 0.0000 0.0000 0.0000 0.0000 29.2601 0.0000
# 6 0.0000 0.0000 0.0000 0.0000 0.0000 26.8017
#
#
#
# Elastic Compliance Matrix: (Units=1/GPa)
#
#
# Indices 1 2 3 4 5 6 
#
# 1 0.012432 -0.003954 -0.002785 0.000000 0.000000 0.000000
# 2 -0.003954 0.012432 -0.002785 0.000000 0.000000 0.000000
# 3 -0.002785 -0.002785 0.009347 0.000000 0.000000 0.000000
# 4 0.000000 0.000000 0.000000 0.034176 0.000000 0.000000
# 5 0.000000 0.000000 0.000000 0.000000 0.034176 0.000000
# 6 0.000000 0.000000 0.000000 0.000000 0.000000 0.037311
#
#
# Mechanical properties :
#
#
# Convention : Reuss Voigt Hill
#
# Bulk Modulus (GPa) = 65.94307 66.78709 66.36508
# Shear Modulus (GPa) = 30.49217 31.09783 30.79500
#
# Velocity S-wave (km/s) = 3.91304 3.95171 3.93242
# Velocity P-wave (km/s) = 7.31640 7.37286 7.34468
#
# Compressibility (1/GPa) = 0.01516460
#
# Stress axis : x y z
#
# Youngs Moduli (GPa) = 80.43711 80.43748 106.98272
#
# Poissons Ratio (x) = 0.31802 0.29793
# Poissons Ratio (y) = 0.31802 0.29794
# Poissons Ratio (z) = 0.22401 0.22401
#
# Static dielectric constant tensor:
#      x y z
#    x 3.526140 0.000000 0.000000 
#    y 0.000000 3.526140 0.000000 
#    z 0.000000 0.000000 3.947010 
# 
# 
# High freq. dielectric constant tensor:
#      x y z
#    x 1.755310 0.000000 0.000000 
#    y 0.000000 1.755310 0.000000 
#    z 0.000000 0.000000 1.805690 
# 
# From -- ./inp_files/5231.got.cif
#   From: 2010.03.12/outbox.cif.g09.slc.cpg/sg124_3_cif.got.tgz:5231.got - 2010.04.06 16:38:57.
