data_PCOD8313912
_publ_section_title
;
Structure prediction by ZEFSAII (Michael W. Deem and Ramdas Pophale) SiO2 
 PCOD8313912
Probable space group: P 4/M B M
;
_chemical_formula_sum "Si O2"
_cell_formula_units_Z 112
_cell_length_a 19.125062
_cell_length_b 19.125062
_cell_length_c 19.264896
_cell_angle_alpha 90.000000
_cell_angle_beta 90.000000
_cell_angle_gamma 90.000000
_cell_volume 7046.482413
_symmetry_space_group_name_H-M "P 4/M B M"
_symmetry_group_IT_number 127
_symmetry_cell_setting 'tetragonal'
loop_
_space_group_symop_operation_xyz
x,y,z
-y,x,z
-x,-y,z
y,-x,z
1/2+x,1/2-y,-z
1/2-x,1/2+y,-z
1/2+y,1/2+x,-z
1/2-y,1/2-x,-z
-x,-y,-z
y,-x,-z
x,y,-z
-y,x,-z
1/2-x,1/2+y,z
1/2+x,1/2-y,z
1/2-y,1/2-x,z
1/2+y,1/2+x,z
loop_
_atom_site_type_symbol
_atom_site_label
_atom_site_fract_x
_atom_site_fract_y
_atom_site_fract_z
Si Si1 0.744705 0.359645 0.787103
Si Si2 0.004887 0.705980 0.716943
Si Si3 0.111809 0.495980 0.156850
Si Si4 0.200554 0.182376 0.575410
Si Si5 0.812857 0.429183 0.422294
Si Si6 0.354279 0.738435 0.709923
Si Si7 0.705571 0.911254 0.923783
O O1 0.816292 0.316292 0.773928
O O2 0.747496 0.428086 0.738564
O O3 0.678174 0.312624 0.768171
O O4 0.738227 0.381828 0.868228
O O5 0.001307 0.636920 0.763831
O O6 0.010438 0.683186 0.636093
O O7 0.934194 0.749234 0.729838
O O8 0.050636 0.550636 0.145858
O O9 0.175159 0.514552 0.104301
O O10 0.081863 0.418138 0.141340
O O11 0.162774 0.186095 0.500000
O O12 0.261641 0.238360 0.579807
O O13 0.237067 0.107270 0.584658
O O14 0.145658 0.198260 0.636042
O O15 0.820943 0.461401 0.500000
O O16 0.874148 0.374148 0.407921
O O17 0.311082 0.811082 0.706730
O O18 0.642417 0.857583 0.930190
O O19 0.740225 0.922164 0.000000
#
# Coordination Sequence:
#
# PCOD8313912 Si02
#       7
#    16  16  16  16  16  16  16
#     4   9  17  31  48  65  89 119 152 188 227 275
#     4  11  18  27  45  66  89 118 158 193 228 275
#     4   9  17  27  40  62  94 127 151 179 224 275
#     4   8  14  26  43  61  83 111 143 183 230 271
#     4   9  16  27  45  66  86 114 157 202 237 276
#     4  10  19  29  44  67  92 117 147 190 234 271
#     4   8  14  25  44  67  86 112 152 188 213 252
#
# _framework density 15.894455000000001
#
# number of rings (size 3 to 8) (size 9 to 14) (size 15 to 20)
#    0.000    2.857    1.429    3.429    0.000    0.857 
#    0.000    1.429    0.000    5.143    0.000    9.000 
#    0.000    2.286    0.000    5.143    0.000    0.571 
#
# Total GULP energy -1387848.656453 kJ/mol
# GULP energy per Si atom -12391.505861 kJ/mol
# Density = 1.585828 g / cm^3
# Si number density = 15.894455 Si / 1000 Ang^3
#
#
#
# Elastic Constant Matrix: (Units=GPa)
#
#
# Indices 1 2 3 4 5 6 
#
# 1 54.9933 23.5158 31.5706 0.0000 0.0000 0.0000
# 2 23.5158 54.9933 31.5706 0.0000 0.0000 0.0000
# 3 31.5706 31.5706 132.1135 0.0000 0.0000 0.0000
# 4 0.0000 0.0000 0.0000 11.9887 0.0000 0.0000
# 5 0.0000 0.0000 0.0000 0.0000 11.9887 0.0000
# 6 0.0000 0.0000 0.0000 0.0000 0.0000 16.2468
#
#
#
# Elastic Compliance Matrix: (Units=1/GPa)
#
#
# Indices 1 2 3 4 5 6 
#
# 1 0.023768 -0.008001 -0.003768 0.000000 0.000000 0.000000
# 2 -0.008001 0.023768 -0.003768 0.000000 0.000000 0.000000
# 3 -0.003768 -0.003768 0.009370 0.000000 0.000000 0.000000
# 4 0.000000 0.000000 0.000000 0.083412 0.000000 0.000000
# 5 0.000000 0.000000 0.000000 0.000000 0.083412 0.000000
# 6 0.000000 0.000000 0.000000 0.000000 0.000000 0.061550
#
#
# Mechanical properties :
#
#
# Convention : Reuss Voigt Hill
#
# Bulk Modulus (GPa) = 38.70900 46.15711 42.43305
# Shear Modulus (GPa) = 15.38624 18.40769 16.89697
#
# Velocity S-wave (km/s) = 3.11469 3.40681 3.26402
# Velocity P-wave (km/s) = 6.11078 6.67667 6.39998
#
# Compressibility (1/GPa) = 0.02583379
#
# Stress axis : x y z
#
# Youngs Moduli (GPa) = 42.07289 42.07289 106.72274
#
# Poissons Ratio (x) = 0.33660 0.40213
# Poissons Ratio (y) = 0.33660 0.40213
# Poissons Ratio (z) = 0.15853 0.15853
#
# Static dielectric constant tensor:
#      x y z
#    x 2.752420 0.000000 0.000000 
#    y 0.000000 2.752420 0.000000 
#    z 0.000000 0.000000 3.464560 
# 
# 
# High freq. dielectric constant tensor:
#      x y z
#    x 1.571020 0.000000 0.000000 
#    y 0.000000 1.571020 0.000000 
#    z 0.000000 0.000000 1.623880 
# 
# From -- ./inp_files/5934.got.cif
#   From: 2010.03.12/outbox.cif.g09.slc.cpg/sg127_3_cif.got.tgz:5934.got - 2010.04.06 17:03:15.
