data_PCOD8313729
_publ_section_title
;
Structure prediction by ZEFSAII (Michael W. Deem and Ramdas Pophale) SiO2 
 PCOD8313729
Probable space group: P 4/N N C
;
_chemical_formula_sum "Si O2"
_cell_formula_units_Z 52
_cell_length_a 11.745986
_cell_length_b 11.745986
_cell_length_c 20.083053
_cell_angle_alpha 90.000000
_cell_angle_beta 90.000000
_cell_angle_gamma 90.000000
_cell_volume 2770.822414
_symmetry_space_group_name_H-M "P 4/N N C"
_symmetry_group_IT_number 126
_space_group.IT_coordinate_system_code '2'
_symmetry_cell_setting 'tetragonal'
loop_
_space_group_symop_operation_xyz
x,y,z
1/2-y,x,z
1/2-x,1/2-y,z
y,1/2-x,z
x,1/2-y,1/2-z
1/2-x,y,1/2-z
y,x,1/2-z
1/2-y,1/2-x,1/2-z
-x,-y,-z
1/2+y,-x,-z
1/2+x,1/2+y,-z
-y,1/2+x,-z
-x,1/2+y,1/2+z
1/2+x,-y,1/2+z
-y,-x,1/2+z
1/2+y,1/2+x,1/2+z
loop_
_atom_site_type_symbol
_atom_site_label
_atom_site_fract_x
_atom_site_fract_y
_atom_site_fract_z
Si Si1 0.921927 0.523141 0.899927
Si Si2 0.250000 0.750000 0.750000
Si Si3 0.862464 0.895703 0.038046
Si Si4 0.206697 0.534233 0.317768
O O1 0.801558 0.471557 0.876414
O O2 0.006620 0.421883 0.919220
O O3 0.975598 0.590482 0.838535
O O4 0.910570 0.612835 0.959850
O O5 0.166623 0.822501 0.701134
O O6 0.729770 0.908066 0.055775
O O7 0.250000 0.472245 0.250000
#
# Coordination Sequence:
#
# PCOD8313729 Si02
#       4
#    16   4  16  16
#     4  11  21  38  60  84 118 158 192 245 303 353
#     4   8  24  36  56  84 114 156 192 248 272 354
#     4  10  22  38  57  85 118 156 198 245 293 362
#     4  10  22  39  59  88 116 156 199 244 297 355
#
# _framework density 18.76699
#
# number of rings (size 3 to 8) (size 9 to 14) (size 15 to 20)
#    0.923    0.923    3.077    0.923    4.308    0.615 
#    0.000    1.538    0.000    0.000    0.000    6.462 
#    0.000    0.000    0.000    0.000    0.000    0.000 
#
# Total GULP energy -644262.215820 kJ/mol
# GULP energy per Si atom -12389.657997 kJ/mol
# Density = 1.872428 g / cm^3
# Si number density = 18.766990 Si / 1000 Ang^3
#
#
#
# Elastic Constant Matrix: (Units=GPa)
#
#
# Indices 1 2 3 4 5 6 
#
# 1 67.5042 24.7110 15.4818 0.0000 0.0000 0.0000
# 2 24.7110 67.5042 15.4818 0.0000 0.0000 0.0000
# 3 15.4818 15.4818 72.7415 0.0000 0.0000 0.0000
# 4 0.0000 0.0000 0.0000 25.8005 0.0000 0.0000
# 5 0.0000 0.0000 0.0000 0.0000 25.8005 0.0000
# 6 0.0000 0.0000 0.0000 0.0000 0.0000 11.4018
#
#
#
# Elastic Compliance Matrix: (Units=1/GPa)
#
#
# Indices 1 2 3 4 5 6 
#
# 1 0.017524 -0.005845 -0.002486 0.000000 0.000000 0.000000
# 2 -0.005845 0.017524 -0.002486 0.000000 0.000000 0.000000
# 3 -0.002486 -0.002486 0.014805 0.000000 0.000000 0.000000
# 4 0.000000 0.000000 0.000000 0.038759 0.000000 0.000000
# 5 0.000000 0.000000 0.000000 0.000000 0.038759 0.000000
# 6 0.000000 0.000000 0.000000 0.000000 0.000000 0.087705
#
#
# Mechanical properties :
#
#
# Convention : Reuss Voigt Hill
#
# Bulk Modulus (GPa) = 35.43532 35.45547 35.44539
# Shear Modulus (GPa) = 20.31575 22.73891 21.52733
#
# Velocity S-wave (km/s) = 3.29375 3.48464 3.39054
# Velocity P-wave (km/s) = 5.77821 5.92653 5.85284
#
# Compressibility (1/GPa) = 0.02822043
#
# Stress axis : x y z
#
# Youngs Moduli (GPa) = 57.06615 57.06615 67.54312
#
# Poissons Ratio (x) = 0.33353 0.16789
# Poissons Ratio (y) = 0.33353 0.16789
# Poissons Ratio (z) = 0.14185 0.14185
#
# Static dielectric constant tensor:
#      x y z
#    x 3.300070 0.000000 0.000000 
#    y 0.000000 3.300070 0.000000 
#    z 0.000000 0.000000 3.413970 
# 
# 
# High freq. dielectric constant tensor:
#      x y z
#    x 1.721900 0.000000 0.000000 
#    y 0.000000 1.721900 0.000000 
#    z 0.000000 0.000000 1.727200 
# 
# From -- ./inp_files/4895.got.cif
#   From: 2010.03.12/outbox.cif.g09.slc.cpg/sg126_3_cif.got.tgz:4895.got - 2010.04.06 16:55:23.
