data_PCOD8313628
_publ_section_title
;
Structure prediction by ZEFSAII (Michael W. Deem and Ramdas Pophale) SiO2 
 PCOD8313628
Probable space group: P 4/N B M
;
_chemical_formula_sum "Si O2"
_cell_formula_units_Z 40
_cell_length_a 12.858419
_cell_length_b 12.858419
_cell_length_c 11.713052
_cell_angle_alpha 90.000000
_cell_angle_beta 90.000000
_cell_angle_gamma 90.000000
_cell_volume 1936.623592
_symmetry_space_group_name_H-M "P 4/N B M"
_symmetry_group_IT_number 125
_space_group.IT_coordinate_system_code '2'
_symmetry_cell_setting 'tetragonal'
loop_
_space_group_symop_operation_xyz
x,y,z
1/2-y,x,z
1/2-x,1/2-y,z
y,1/2-x,z
x,1/2-y,-z
1/2-x,y,-z
y,x,-z
1/2-y,1/2-x,-z
-x,-y,-z
1/2+y,-x,-z
1/2+x,1/2+y,-z
-y,1/2+x,-z
-x,1/2+y,z
1/2+x,-y,z
-y,-x,z
1/2+y,1/2+x,z
loop_
_atom_site_type_symbol
_atom_site_label
_atom_site_fract_x
_atom_site_fract_y
_atom_site_fract_z
Si Si1 0.282147 0.084659 0.319626
Si Si2 0.750000 0.084414 0.500000
Si Si3 0.486319 0.342990 0.073538
O O1 0.370260 0.168608 0.349277
O O2 0.291444 0.057610 0.187365
O O3 0.296281 0.983245 0.396677
O O4 0.656307 0.156307 0.453034
O O5 0.573228 0.426773 0.105446
O O6 0.536866 0.250000 0.000000
O O7 0.393676 0.393676 0.000000
#
# Coordination Sequence:
#
# PCOD8313628 Si02
#       3
#    16   8  16
#     4  11  23  41  69  97 126 167 220 273 323 386
#     4  11  26  45  64  92 134 177 216 267 330 392
#     4  11  23  40  65  96 131 172 215 264 325 387
#
# _framework density 20.654506000000001
#
# number of rings (size 3 to 8) (size 9 to 14) (size 15 to 20)
#    0.000    1.000    4.000    2.400    0.000    8.800 
#    0.000    0.000    0.000    0.000    0.000    0.000 
#    0.000    0.000    0.000    0.000    0.000    0.000 
#
# Total GULP energy -496164.208063 kJ/mol
# GULP energy per Si atom -12404.105202 kJ/mol
# Density = 2.060750 g / cm^3
# Si number density = 20.654506 Si / 1000 Ang^3
#
#
#
# Elastic Constant Matrix: (Units=GPa)
#
#
# Indices 1 2 3 4 5 6 
#
# 1 108.3285 48.5408 42.5126 0.0000 0.0000 0.0000
# 2 48.5408 108.3285 42.5126 0.0000 0.0000 0.0000
# 3 42.5126 42.5126 99.5905 0.0000 0.0000 0.0000
# 4 0.0000 0.0000 0.0000 31.3374 0.0000 0.0000
# 5 0.0000 0.0000 0.0000 0.0000 31.3374 0.0000
# 6 0.0000 0.0000 0.0000 0.0000 0.0000 12.0320
#
#
#
# Elastic Compliance Matrix: (Units=1/GPa)
#
#
# Indices 1 2 3 4 5 6 
#
# 1 0.012510 -0.004216 -0.003540 0.000000 0.000000 0.000000
# 2 -0.004216 0.012510 -0.003540 0.000000 0.000000 0.000000
# 3 -0.003540 -0.003540 0.013064 0.000000 0.000000 0.000000
# 4 0.000000 0.000000 0.000000 0.031911 0.000000 0.000000
# 5 0.000000 0.000000 0.000000 0.000000 0.031911 0.000000
# 6 0.000000 0.000000 0.000000 0.000000 0.000000 0.083112
#
#
# Mechanical properties :
#
#
# Convention : Reuss Voigt Hill
#
# Bulk Modulus (GPa) = 64.55942 64.81992 64.68967
# Shear Modulus (GPa) = 23.49918 27.12012 25.30965
#
# Velocity S-wave (km/s) = 3.37668 3.62752 3.50434
# Velocity P-wave (km/s) = 6.82109 6.99973 6.91099
#
# Compressibility (1/GPa) = 0.01548961
#
# Stress axis : x y z
#
# Youngs Moduli (GPa) = 79.93766 79.93766 76.54811
#
# Poissons Ratio (x) = 0.33703 0.27101
# Poissons Ratio (y) = 0.33703 0.27101
# Poissons Ratio (z) = 0.28301 0.28301
#
# Static dielectric constant tensor:
#      x y z
#    x 3.726410 0.000000 0.000000 
#    y 0.000000 3.726410 0.000000 
#    z 0.000000 0.000000 3.673340 
# 
# 
# High freq. dielectric constant tensor:
#      x y z
#    x 1.810940 0.000000 0.000000 
#    y 0.000000 1.810940 0.000000 
#    z 0.000000 0.000000 1.816450 
# 
# From -- ./inp_files/1638.got.cif
#   From: 2010.03.12/outbox.cif.g09.slc.cpg/sg125_1_cif.got.tgz:1638.got - 2010.04.06 16:47:52.
