data_PCOD8313973
_publ_section_title
;
Structure prediction by ZEFSAII (Michael W. Deem and Ramdas Pophale) SiO2 
 PCOD8313973
Probable space group: P 4/M B M
;
_chemical_formula_sum "Si O2"
_cell_formula_units_Z 72
_cell_length_a 20.561855
_cell_length_b 20.561855
_cell_length_c 9.020894
_cell_angle_alpha 90.000000
_cell_angle_beta 90.000000
_cell_angle_gamma 90.000000
_cell_volume 3813.942701
_symmetry_space_group_name_H-M "P 4/M B M"
_symmetry_group_IT_number 127
_symmetry_cell_setting 'tetragonal'
loop_
_space_group_symop_operation_xyz
x,y,z
-y,x,z
-x,-y,z
y,-x,z
1/2+x,1/2-y,-z
1/2-x,1/2+y,-z
1/2+y,1/2+x,-z
1/2-y,1/2-x,-z
-x,-y,-z
y,-x,-z
x,y,-z
-y,x,-z
1/2-x,1/2+y,z
1/2+x,1/2-y,z
1/2-y,1/2-x,z
1/2+y,1/2+x,z
loop_
_atom_site_type_symbol
_atom_site_label
_atom_site_fract_x
_atom_site_fract_y
_atom_site_fract_z
Si Si1 0.764994 0.735007 0.322948
Si Si2 0.487904 0.172238 0.675641
Si Si3 0.910735 0.048844 0.676545
Si Si4 0.275011 0.406211 0.323776
Si Si5 0.159940 0.659940 0.675915
Si Si6 0.946685 0.553316 0.162766
O O1 0.763726 0.736275 0.500000
O O2 0.749781 0.662833 0.261150
O O3 0.712324 0.787677 0.261670
O O4 0.488893 0.163801 0.500000
O O5 0.531490 0.233209 0.727984
O O6 0.412994 0.178958 0.731140
O O7 0.522033 0.110492 0.744379
O O8 0.908588 0.048754 0.500000
O O9 0.847209 0.083685 0.741400
O O10 0.974240 0.087166 0.732971
O O11 0.275140 0.402946 0.500000
O O12 0.161889 0.661889 0.500000
O O13 0.000000 0.500000 0.136265
O O14 0.922520 0.577481 0.000000
#
# Coordination Sequence:
#
# PCOD8313973 Si02
#       6
#     8  16  16  16   8   8
#     4   9  17  27  36  58  94 127 157 197 243 290
#     4  10  19  32  50  74  97 128 165 202 240 287
#     4   8  14  23  35  55  87 127 163 194 234 285
#     4   9  17  26  42  63  93 129 161 196 240 290
#     4   9  18  28  43  66  96 128 162 200 245 289
#     4  11  22  35  51  71  97 128 161 200 243 285
#
# _framework density 18.878101999999998
#
# number of rings (size 3 to 8) (size 9 to 14) (size 15 to 20)
#    0.000    2.778    1.111    1.667    3.111    2.222 
#    0.000    0.000    0.000    0.000    0.000    6.222 
#    0.000    0.000    0.000    2.444    0.000    2.222 
#
# Total GULP energy -892226.243132 kJ/mol
# GULP energy per Si atom -12392.031155 kJ/mol
# Density = 1.883513 g / cm^3
# Si number density = 18.878102 Si / 1000 Ang^3
#
#
#
# Elastic Constant Matrix: (Units=GPa)
#
#
# Indices 1 2 3 4 5 6 
#
# 1 150.0305 110.3771 6.7635 0.0000 0.0000 0.0000
# 2 110.3771 150.0296 6.7634 0.0000 0.0000 0.0000
# 3 6.7635 6.7634 8.6476 0.0000 0.0000 0.0000
# 4 0.0000 0.0000 0.0000 1.3988 0.0000 0.0000
# 5 0.0000 0.0000 0.0000 0.0000 1.3988 0.0000
# 6 0.0000 0.0000 0.0000 0.0000 0.0000 41.4180
#
#
#
# Elastic Compliance Matrix: (Units=1/GPa)
#
#
# Indices 1 2 3 4 5 6 
#
# 1 0.014611 -0.010608 -0.003131 0.000000 0.000000 0.000000
# 2 -0.010608 0.014611 -0.003130 0.000000 0.000000 0.000000
# 3 -0.003131 -0.003130 0.120536 0.000000 0.000000 0.000000
# 4 0.000000 0.000000 0.000000 0.714895 0.000000 0.000000
# 5 0.000000 0.000000 0.000000 0.000000 0.714896 0.000000
# 6 0.000000 0.000000 0.000000 0.000000 0.000000 0.024144
#
#
# Mechanical properties :
#
#
# Convention : Reuss Voigt Hill
#
# Bulk Modulus (GPa) = 8.61929 61.83506 35.22718
# Shear Modulus (GPa) = 2.98311 21.16337 12.07324
#
# Velocity S-wave (km/s) = 1.25842 3.35185 2.53165
# Velocity P-wave (km/s) = 2.58596 6.91418 5.21982
#
# Compressibility (1/GPa) = 0.11601879
#
# Stress axis : x y z
#
# Youngs Moduli (GPa) = 68.44270 68.44239 8.29629
#
# Poissons Ratio (x) = 0.72604 0.02597
# Poissons Ratio (y) = 0.72604 0.02597
# Poissons Ratio (z) = 0.21428 0.21425
#
# Static dielectric constant tensor:
#      x y z
#    x 3.861940 0.000000 0.000000 
#    y 0.000000 3.861940 0.000000 
#    z 0.000000 0.000000 2.786390 
# 
# 
# High freq. dielectric constant tensor:
#      x y z
#    x 1.747900 0.000000 0.000000 
#    y 0.000000 1.747900 0.000000 
#    z 0.000000 0.000000 1.647320 
# 
# From -- ./inp_files/1607.got.cif
#   From: 2010.03.12/outbox.cif.g09.slc.cpg/sg127_1_cif.got.tgz:1607.got - 2010.04.06 17:03:15.
