data_PCOD8313219
_publ_section_title
;
Structure prediction by ZEFSAII (Michael W. Deem and Ramdas Pophale) SiO2 
 PCOD8313219
Probable space group: P 4/M C C
;
_chemical_formula_sum "Si O2"
_cell_formula_units_Z 128
_cell_length_a 17.837571
_cell_length_b 17.837571
_cell_length_c 25.053286
_cell_angle_alpha 90.000000
_cell_angle_beta 90.000000
_cell_angle_gamma 90.000000
_cell_volume 7971.427962
_symmetry_space_group_name_H-M "P 4/M C C"
_symmetry_group_IT_number 124
_symmetry_cell_setting 'tetragonal'
loop_
_space_group_symop_operation_xyz
x,y,z
-y,x,z
-x,-y,z
y,-x,z
x,-y,1/2-z
-x,y,1/2-z
y,x,1/2-z
-y,-x,1/2-z
-x,-y,-z
y,-x,-z
x,y,-z
-y,x,-z
-x,y,1/2+z
x,-y,1/2+z
-y,-x,1/2+z
y,x,1/2+z
loop_
_atom_site_type_symbol
_atom_site_label
_atom_site_fract_x
_atom_site_fract_y
_atom_site_fract_z
Si Si1 0.796580 0.203421 0.186127
Si Si2 0.370499 0.191489 0.654384
Si Si3 0.415104 0.703915 0.750000
Si Si4 0.629500 0.808511 0.845616
Si Si5 0.916507 0.916506 0.313357
Si Si6 0.414158 0.707145 0.938596
Si Si7 0.500000 0.088336 0.688113
Si Si8 0.414158 0.707145 0.438597
O O1 0.790848 0.209153 0.250000
O O2 0.717261 0.174468 0.163070
O O3 0.825533 0.282740 0.163070
O O4 0.856788 0.143213 0.165100
O O5 0.394955 0.252352 0.696909
O O6 0.381817 0.223827 0.595287
O O7 0.423694 0.118844 0.661021
O O8 0.500000 0.681880 0.750000
O O9 0.374000 0.626001 0.750000
O O10 0.394955 0.747648 0.696909
O O11 0.576305 0.881156 0.838980
O O12 0.618182 0.776173 0.904713
O O13 0.915492 0.915492 0.250000
O O14 0.000000 0.895067 0.333721
O O15 0.500000 0.690625 0.923186
O O16 0.368382 0.631618 0.926172
O O17 0.405974 0.731360 0.000000
O O18 0.500000 0.113229 0.750000
O O19 0.500000 0.000000 0.681094
O O20 0.405975 0.731360 0.500000
#
# Coordination Sequence:
#
# PCOD8313219 Si02
#       8
#    16  16  16  16  16  16  16  16
#     4  11  19  28  52  77  97 133 180 215 252 309
#     4  12  18  34  50  71 103 135 170 213 256 305
#     4  12  20  31  50  70  96 136 170 208 254 302
#     4  12  18  34  50  71 103 135 170 213 256 305
#     4   8  16  31  48  71 107 140 161 196 256 316
#     4  10  20  33  52  75  99 134 176 217 263 306
#     4  11  22  34  51  75 105 140 174 211 257 310
#     4  10  20  33  52  75  99 134 176 217 263 306
#
# _framework density 16.057348999999999
#
# number of rings (size 3 to 8) (size 9 to 14) (size 15 to 20)
#    0.000    1.250    7.500    0.375    0.000    1.375 
#    0.000    3.750    0.000    4.500    0.000    0.000 
#    0.000    1.000    0.000    5.500    0.000    0.500 
#
# Total GULP energy -1587154.950819 kJ/mol
# GULP energy per Si atom -12399.648053 kJ/mol
# Density = 1.602080 g / cm^3
# Si number density = 16.057349 Si / 1000 Ang^3
#
#
#
# Elastic Constant Matrix: (Units=GPa)
#
#
# Indices 1 2 3 4 5 6 
#
# 1 123.2386 72.3747 33.5576 0.0000 0.0000 0.0000
# 2 72.3747 123.2395 33.5576 0.0000 0.0000 0.0000
# 3 33.5576 33.5576 65.1906 0.0000 0.0000 0.0000
# 4 0.0000 0.0000 0.0000 19.5409 0.0000 0.0000
# 5 0.0000 0.0000 0.0000 0.0000 19.5406 0.0000
# 6 0.0000 0.0000 0.0000 0.0000 0.0000 35.3634
#
#
#
# Elastic Compliance Matrix: (Units=1/GPa)
#
#
# Indices 1 2 3 4 5 6 
#
# 1 0.012934 -0.006726 -0.003196 0.000000 0.000000 0.000000
# 2 -0.006726 0.012934 -0.003196 0.000000 0.000000 0.000000
# 3 -0.003196 -0.003196 0.018630 0.000000 0.000000 0.000000
# 4 0.000000 0.000000 0.000000 0.051175 0.000000 0.000000
# 5 0.000000 0.000000 0.000000 0.000000 0.051175 0.000000
# 6 0.000000 0.000000 0.000000 0.000000 0.000000 0.028278
#
#
# Mechanical properties :
#
#
# Convention : Reuss Voigt Hill
#
# Bulk Modulus (GPa) = 54.75438 65.62760 60.19099
# Shear Modulus (GPa) = 24.10219 26.36756 25.23488
#
# Velocity S-wave (km/s) = 3.87849 4.05666 3.96857
# Velocity P-wave (km/s) = 7.36411 7.93105 7.65283
#
# Compressibility (1/GPa) = 0.01826338
#
# Stress axis : x y z
#
# Youngs Moduli (GPa) = 77.31296 77.31361 53.67694
#
# Poissons Ratio (x) = 0.51999 0.17155
# Poissons Ratio (y) = 0.51999 0.17155
# Poissons Ratio (z) = 0.24709 0.24709
#
# Static dielectric constant tensor:
#      x y z
#    x 3.190680 0.000000 0.000000 
#    y 0.000000 3.190680 0.000000 
#    z 0.000000 0.000000 2.966100 
# 
# 
# High freq. dielectric constant tensor:
#      x y z
#    x 1.617140 0.000000 0.000000 
#    y 0.000000 1.617140 0.000000 
#    z 0.000000 0.000000 1.594470 
# 
# From -- ./inp_files/6275.got.cif
#   From: 2010.03.12/outbox.cif.g09.slc.cpg/sg124_4_cif.got.tgz:6275.got - 2010.04.06 16:38:57.
