data_PCOD8313545
_publ_section_title
;
Structure prediction by ZEFSAII (Michael W. Deem and Ramdas Pophale) SiO2 
 PCOD8313545
Probable space group: P 4/N B M
;
_chemical_formula_sum "Si O2"
_cell_formula_units_Z 48
_cell_length_a 13.087709
_cell_length_b 13.087709
_cell_length_c 13.597018
_cell_angle_alpha 90.000000
_cell_angle_beta 90.000000
_cell_angle_gamma 90.000000
_cell_volume 2329.007744
_symmetry_space_group_name_H-M "P 4/N B M"
_symmetry_group_IT_number 125
_space_group.IT_coordinate_system_code '2'
_symmetry_cell_setting 'tetragonal'
loop_
_space_group_symop_operation_xyz
x,y,z
1/2-y,x,z
1/2-x,1/2-y,z
y,1/2-x,z
x,1/2-y,-z
1/2-x,y,-z
y,x,-z
1/2-y,1/2-x,-z
-x,-y,-z
1/2+y,-x,-z
1/2+x,1/2+y,-z
-y,1/2+x,-z
-x,1/2+y,z
1/2+x,-y,z
-y,-x,z
1/2+y,1/2+x,z
loop_
_atom_site_type_symbol
_atom_site_label
_atom_site_fract_x
_atom_site_fract_y
_atom_site_fract_z
Si Si1 0.081545 0.244368 0.891493
Si Si2 0.538196 0.874829 0.408056
Si Si3 0.513398 0.322112 0.701867
O O1 0.153581 0.146440 0.878826
O O2 0.994766 0.232633 0.808303
O O3 0.030179 0.250000 0.000000
O O4 0.617271 0.882729 0.500000
O O5 0.501775 0.760463 0.384753
O O6 0.436669 0.936669 0.437006
O O7 0.594117 0.923720 0.312609
O O8 0.624245 0.375756 0.692718
#
# Coordination Sequence:
#
# PCOD8313545 Si02
#       3
#    16  16  16
#     4   9  17  33  57  84 118 155 208 266 309 361
#     4  10  22  39  58  86 121 157 204 255 308 378
#     4  11  21  36  60  89 122 161 203 256 319 374
#
# _framework density 20.609635000000001
#
# number of rings (size 3 to 8) (size 9 to 14) (size 15 to 20)
#    0.000    2.000    3.333    2.000    0.000    1.333 
#    0.000    6.667    0.000    6.000    0.000    0.000 
#    0.000    0.000    0.000    0.000    0.000    0.000 
#
# Total GULP energy -594864.163051 kJ/mol
# GULP energy per Si atom -12393.003397 kJ/mol
# Density = 2.056273 g / cm^3
# Si number density = 20.609635 Si / 1000 Ang^3
#
#
#
# Elastic Constant Matrix: (Units=GPa)
#
#
# Indices 1 2 3 4 5 6 
#
# 1 88.8678 53.4998 48.3562 0.0000 0.0000 0.0000
# 2 53.4998 88.8675 48.3562 0.0000 0.0000 0.0000
# 3 48.3562 48.3562 144.5112 0.0000 0.0000 0.0000
# 4 0.0000 0.0000 0.0000 29.0147 0.0000 0.0000
# 5 0.0000 0.0000 0.0000 0.0000 29.0146 0.0000
# 6 0.0000 0.0000 0.0000 0.0000 0.0000 32.9313
#
#
#
# Elastic Compliance Matrix: (Units=1/GPa)
#
#
# Indices 1 2 3 4 5 6 
#
# 1 0.018682 -0.009592 -0.003042 0.000000 0.000000 0.000000
# 2 -0.009592 0.018682 -0.003042 0.000000 0.000000 0.000000
# 3 -0.003042 -0.003042 0.008956 0.000000 0.000000 0.000000
# 4 0.000000 0.000000 0.000000 0.034465 0.000000 0.000000
# 5 0.000000 0.000000 0.000000 0.000000 0.034465 0.000000
# 6 0.000000 0.000000 0.000000 0.000000 0.000000 0.030366
#
#
# Mechanical properties :
#
#
# Convention : Reuss Voigt Hill
#
# Bulk Modulus (GPa) = 66.80415 69.18568 67.99491
# Shear Modulus (GPa) = 27.47885 29.66107 28.56996
#
# Velocity S-wave (km/s) = 3.65540 3.79777 3.72727
# Velocity P-wave (km/s) = 7.09227 7.27140 7.18239
#
# Compressibility (1/GPa) = 0.01496913
#
# Stress axis : x y z
#
# Youngs Moduli (GPa) = 53.52653 53.52634 111.66210
#
# Poissons Ratio (x) = 0.51342 0.33966
# Poissons Ratio (y) = 0.51342 0.33966
# Poissons Ratio (z) = 0.16282 0.16282
#
# Static dielectric constant tensor:
#      x y z
#    x 3.417640 0.000000 0.000000 
#    y 0.000000 3.417640 0.000000 
#    z 0.000000 0.000000 3.867060 
# 
# 
# High freq. dielectric constant tensor:
#      x y z
#    x 1.775530 0.000000 0.000000 
#    y 0.000000 1.775530 0.000000 
#    z 0.000000 0.000000 1.822400 
# 
# From -- ./inp_files/3347.got.cif
#   From: 2010.03.12/outbox.cif.g09.slc.cpg/sg125_2_cif.got.tgz:3347.got - 2010.04.06 16:47:52.
