data_PCOD8313311
_publ_section_title
;
Structure prediction by ZEFSAII (Michael W. Deem and Ramdas Pophale) SiO2 
 PCOD8313311
Probable space group: P 4/M C C
;
_chemical_formula_sum "Si O2"
_cell_formula_units_Z 64
_cell_length_a 14.687133
_cell_length_b 14.687133
_cell_length_c 15.598537
_cell_angle_alpha 90.000000
_cell_angle_beta 90.000000
_cell_angle_gamma 90.000000
_cell_volume 3364.789675
_symmetry_space_group_name_H-M "P 4/M C C"
_symmetry_group_IT_number 124
_symmetry_cell_setting 'tetragonal'
loop_
_space_group_symop_operation_xyz
x,y,z
-y,x,z
-x,-y,z
y,-x,z
x,-y,1/2-z
-x,y,1/2-z
y,x,1/2-z
-y,-x,1/2-z
-x,-y,-z
y,-x,-z
x,y,-z
-y,x,-z
-x,y,1/2+z
x,-y,1/2+z
-y,-x,1/2+z
y,x,1/2+z
loop_
_atom_site_type_symbol
_atom_site_label
_atom_site_fract_x
_atom_site_fract_y
_atom_site_fract_z
Si Si1 0.223975 0.510262 0.000000
Si Si2 0.315019 0.301534 0.500000
Si Si3 0.083784 0.878113 0.402811
Si Si4 0.105234 0.467645 0.159689
Si Si5 0.804874 0.274221 0.332741
O O1 0.159424 0.514756 0.917106
O O2 0.294221 0.592242 0.000000
O O3 0.288136 0.422800 0.000000
O O4 0.271782 0.259300 0.415158
O O5 0.104216 0.846496 0.500000
O O6 0.129677 0.812229 0.334816
O O7 0.976965 0.875655 0.386036
O O8 0.145468 0.500000 0.250000
O O9 0.125562 0.359723 0.162388
O O10 0.000000 0.500000 0.150352
O O11 0.738210 0.261791 0.250000
#
# Coordination Sequence:
#
# PCOD8313311 Si02
#       5
#     8   8  16  16  16
#     4  10  21  39  60  82 114 148 190 239 298 350
#     4  10  22  39  58  85 110 146 188 240 297 356
#     4   9  19  36  54  78 115 153 190 237 280 329
#     4  10  22  39  57  85 120 152 189 240 295 351
#     4  11  22  37  60  87 114 151 199 237 288 356
#
# _framework density 19.020506000000001
#
# number of rings (size 3 to 8) (size 9 to 14) (size 15 to 20)
#    0.000    2.000    1.250    2.625    0.000    7.250 
#    0.000    1.250    0.000    0.000    0.000    3.500 
#    0.000    0.000    0.000    0.000    0.000    0.000 
#
# Total GULP energy -793260.796750 kJ/mol
# GULP energy per Si atom -12394.699949 kJ/mol
# Density = 1.897721 g / cm^3
# Si number density = 19.020506 Si / 1000 Ang^3
#
#
#
# Elastic Constant Matrix: (Units=GPa)
#
#
# Indices 1 2 3 4 5 6 
#
# 1 100.1887 69.1946 54.4120 0.0000 0.0000 0.0000
# 2 69.1946 100.1880 54.4118 0.0000 0.0000 0.0000
# 3 54.4120 54.4118 145.7128 0.0000 0.0000 0.0000
# 4 0.0000 0.0000 0.0000 18.5955 0.0000 0.0000
# 5 0.0000 0.0000 0.0000 0.0000 18.5956 0.0000
# 6 0.0000 0.0000 0.0000 0.0000 0.0000 33.8161
#
#
#
# Elastic Compliance Matrix: (Units=1/GPa)
#
#
# Indices 1 2 3 4 5 6 
#
# 1 0.020016 -0.012249 -0.002900 0.000000 0.000000 0.000000
# 2 -0.012249 0.020016 -0.002900 0.000000 0.000000 0.000000
# 3 -0.002900 -0.002900 0.009029 0.000000 0.000000 0.000000
# 4 0.000000 0.000000 0.000000 0.053777 0.000000 0.000000
# 5 0.000000 0.000000 0.000000 0.000000 0.053776 0.000000
# 6 0.000000 0.000000 0.000000 0.000000 0.000000 0.029572
#
#
# Mechanical properties :
#
#
# Convention : Reuss Voigt Hill
#
# Bulk Modulus (GPa) = 77.15035 78.01403 77.58219
# Shear Modulus (GPa) = 22.06483 25.40615 23.73549
#
# Velocity S-wave (km/s) = 3.40965 3.65872 3.53638
# Velocity P-wave (km/s) = 7.49338 7.67809 7.58630
#
# Compressibility (1/GPa) = 0.01296170
#
# Stress axis : x y z
#
# Youngs Moduli (GPa) = 49.96045 49.96011 110.75470
#
# Poissons Ratio (x) = 0.61194 0.32124
# Poissons Ratio (y) = 0.61195 0.32124
# Poissons Ratio (z) = 0.14491 0.14491
#
# Static dielectric constant tensor:
#      x y z
#    x 3.370620 0.000000 0.000000 
#    y 0.000000 3.370620 0.000000 
#    z 0.000000 0.000000 3.735440 
# 
# 
# High freq. dielectric constant tensor:
#      x y z
#    x 1.734400 0.000000 0.000000 
#    y 0.000000 1.734400 0.000000 
#    z 0.000000 0.000000 1.757860 
# 
# From -- ./inp_files/3983.got.cif
#   From: 2010.03.12/outbox.cif.g09.slc.cpg/sg124_2_cif.got.tgz:3983.got - 2010.04.06 16:38:57.
