data_PCOD8313283
_publ_section_title
;
Structure prediction by ZEFSAII (Michael W. Deem and Ramdas Pophale) SiO2 
 PCOD8313283
Probable space group: P 4/M C C
;
_chemical_formula_sum "Si O2"
_cell_formula_units_Z 88
_cell_length_a 14.993750
_cell_length_b 14.993750
_cell_length_c 20.092031
_cell_angle_alpha 90.000000
_cell_angle_beta 90.000000
_cell_angle_gamma 90.000000
_cell_volume 4516.940504
_symmetry_space_group_name_H-M "P 4/M C C"
_symmetry_group_IT_number 124
_symmetry_cell_setting 'tetragonal'
loop_
_space_group_symop_operation_xyz
x,y,z
-y,x,z
-x,-y,z
y,-x,z
x,-y,1/2-z
-x,y,1/2-z
y,x,1/2-z
-y,-x,1/2-z
-x,-y,-z
y,-x,-z
x,y,-z
-y,x,-z
-x,y,1/2+z
x,-y,1/2+z
-y,-x,1/2+z
y,x,1/2+z
loop_
_atom_site_type_symbol
_atom_site_label
_atom_site_fract_x
_atom_site_fract_y
_atom_site_fract_z
Si Si1 0.660469 0.304474 0.825114
Si Si2 0.734651 0.008766 0.670855
Si Si3 0.520415 0.742908 0.125184
Si Si4 0.809914 0.823065 0.671916
Si Si5 0.644628 0.477138 0.500000
Si Si6 0.934259 0.581715 0.576117
O O1 0.689066 0.310935 0.750000
O O2 0.559953 0.264222 0.821464
O O3 0.672085 0.401535 0.858719
O O4 0.730222 0.236308 0.859993
O O5 0.791884 0.093684 0.647629
O O6 0.648065 0.012421 0.624441
O O7 0.709681 0.000000 0.750000
O O8 0.794236 0.924514 0.650193
O O9 0.557403 0.842101 0.113967
O O10 0.465804 0.709478 0.061684
O O11 0.810788 0.810788 0.750000
O O12 0.601070 0.573996 0.500000
O O13 0.915210 0.617100 0.500000
O O14 0.000000 0.500000 0.569757
#
# Coordination Sequence:
#
# PCOD8313283 Si02
#       6
#    16  16  16  16   8  16
#     4  11  23  38  56  88 124 159 200 252 305 365
#     4  10  20  39  63  91 121 158 198 247 306 365
#     4  12  22  39  62  82 118 164 201 247 309 360
#     4   9  19  36  60  88 122 152 196 248 298 363
#     4  11  22  38  57  80 110 152 206 251 293 360
#     4  11  24  41  60  88 124 158 204 257 304 364
#
# _framework density 19.482213000000002
#
# number of rings (size 3 to 8) (size 9 to 14) (size 15 to 20)
#    0.000    1.364    4.545    1.636    0.000    1.091 
#    3.273    3.636    0.000    0.000    0.000    1.273 
#    0.000    0.000    0.000    0.000    0.000    0.000 
#
# Total GULP energy -1090528.985907 kJ/mol
# GULP energy per Si atom -12392.374840 kJ/mol
# Density = 1.943787 g / cm^3
# Si number density = 19.482213 Si / 1000 Ang^3
#
#
#
# Elastic Constant Matrix: (Units=GPa)
#
#
# Indices 1 2 3 4 5 6 
#
# 1 113.0546 42.3197 23.8902 0.0000 0.0000 0.0000
# 2 42.3197 113.0547 23.8900 0.0000 0.0000 0.0000
# 3 23.8902 23.8900 53.6991 0.0000 0.0000 0.0000
# 4 0.0000 0.0000 0.0000 21.7940 0.0000 0.0000
# 5 0.0000 0.0000 0.0000 0.0000 21.7962 0.0000
# 6 0.0000 0.0000 0.0000 0.0000 0.0000 35.5598
#
#
#
# Elastic Compliance Matrix: (Units=1/GPa)
#
#
# Indices 1 2 3 4 5 6 
#
# 1 0.010797 -0.003341 -0.003317 0.000000 0.000000 0.000000
# 2 -0.003341 0.010797 -0.003317 0.000000 0.000000 0.000000
# 3 -0.003317 -0.003317 0.021574 0.000000 0.000000 0.000000
# 4 0.000000 0.000000 0.000000 0.045884 0.000000 0.000000
# 5 0.000000 0.000000 0.000000 0.000000 0.045880 0.000000
# 6 0.000000 0.000000 0.000000 0.000000 0.000000 0.028122
#
#
# Mechanical properties :
#
#
# Convention : Reuss Voigt Hill
#
# Bulk Modulus (GPa) = 43.07095 51.11201 47.09148
# Shear Modulus (GPa) = 26.21348 28.47723 27.34536
#
# Velocity S-wave (km/s) = 3.67210 3.82737 3.75054
# Velocity P-wave (km/s) = 6.33521 6.76933 6.55587
#
# Compressibility (1/GPa) = 0.02321751
#
# Stress axis : x y z
#
# Youngs Moduli (GPa) = 92.62062 92.62083 46.35247
#
# Poissons Ratio (x) = 0.30941 0.15376
# Poissons Ratio (y) = 0.30941 0.15376
# Poissons Ratio (z) = 0.30724 0.30723
#
# Static dielectric constant tensor:
#      x y z
#    x 3.737960 0.000000 0.000000 
#    y 0.000000 3.737970 0.000000 
#    z 0.000000 0.000000 3.536340 
# 
# 
# High freq. dielectric constant tensor:
#      x y z
#    x 1.763980 0.000000 0.000000 
#    y 0.000000 1.763980 0.000000 
#    z 0.000000 0.000000 1.741750 
# 
# From -- ./inp_files/5162.got.cif
#   From: 2010.03.12/outbox.cif.g09.slc.cpg/sg124_3_cif.got.tgz:5162.got - 2010.04.06 16:38:57.
