data_PCOD8313547
_publ_section_title
;
Structure prediction by ZEFSAII (Michael W. Deem and Ramdas Pophale) SiO2 
 PCOD8313547
Probable space group: P 4/N B M
;
_chemical_formula_sum "Si O2"
_cell_formula_units_Z 64
_cell_length_a 13.030374
_cell_length_b 13.030374
_cell_length_c 18.380472
_cell_angle_alpha 90.000000
_cell_angle_beta 90.000000
_cell_angle_gamma 90.000000
_cell_volume 3120.832225
_symmetry_space_group_name_H-M "P 4/N B M"
_symmetry_group_IT_number 125
_space_group.IT_coordinate_system_code '2'
_symmetry_cell_setting 'tetragonal'
loop_
_space_group_symop_operation_xyz
x,y,z
1/2-y,x,z
1/2-x,1/2-y,z
y,1/2-x,z
x,1/2-y,-z
1/2-x,y,-z
y,x,-z
1/2-y,1/2-x,-z
-x,-y,-z
1/2+y,-x,-z
1/2+x,1/2+y,-z
-y,1/2+x,-z
-x,1/2+y,z
1/2+x,-y,z
-y,-x,z
1/2+y,1/2+x,z
loop_
_atom_site_type_symbol
_atom_site_label
_atom_site_fract_x
_atom_site_fract_y
_atom_site_fract_z
Si Si1 0.740467 0.919242 0.294610
Si Si2 0.036186 0.127925 0.066715
Si Si3 0.916740 0.247944 0.416296
Si Si4 0.675165 0.009698 0.149561
O O1 0.642931 0.845425 0.291749
O O2 0.731787 0.996840 0.226642
O O3 0.740218 0.982090 0.368882
O O4 0.090749 0.079751 0.138259
O O5 0.001348 0.243533 0.083613
O O6 0.117462 0.117462 0.000000
O O7 0.933987 0.066014 0.045028
O O8 0.951379 0.250000 0.500000
O O9 0.858715 0.141286 0.398541
O O10 0.841895 0.341895 0.399087
O O11 0.621382 0.121382 0.146038
#
# Coordination Sequence:
#
# PCOD8313547 Si02
#       4
#    16  16  16  16
#     4  11  23  39  60  89 128 167 210 257 315 373
#     4  10  22  40  62  91 124 161 205 256 312 369
#     4   9  20  40  64  90 122 163 210 258 313 377
#     4  11  22  39  63  90 124 165 210 256 307 372
#
# _framework density 20.507351
#
# number of rings (size 3 to 8) (size 9 to 14) (size 15 to 20)
#    0.000    1.750    2.500    2.250    0.000    5.000 
#    0.000    5.000    0.000    4.500    0.000    0.000 
#    0.000    0.000    0.000    0.000    0.000    0.000 
#
# Total GULP energy -793595.728926 kJ/mol
# GULP energy per Si atom -12399.933264 kJ/mol
# Density = 2.046068 g / cm^3
# Si number density = 20.507351 Si / 1000 Ang^3
#
#
#
# Elastic Constant Matrix: (Units=GPa)
#
#
# Indices 1 2 3 4 5 6 
#
# 1 119.4060 56.2287 59.5063 0.0000 0.0000 0.0000
# 2 56.2287 119.4060 59.5063 0.0000 0.0000 0.0000
# 3 59.5063 59.5063 116.6792 0.0000 0.0000 0.0000
# 4 0.0000 0.0000 0.0000 37.8131 0.0000 0.0000
# 5 0.0000 0.0000 0.0000 0.0000 37.8131 0.0000
# 6 0.0000 0.0000 0.0000 0.0000 0.0000 16.8035
#
#
#
# Elastic Compliance Matrix: (Units=1/GPa)
#
#
# Indices 1 2 3 4 5 6 
#
# 1 0.012264 -0.003564 -0.004437 0.000000 0.000000 0.000000
# 2 -0.003564 0.012264 -0.004437 0.000000 0.000000 0.000000
# 3 -0.004437 -0.004437 0.013096 0.000000 0.000000 0.000000
# 4 0.000000 0.000000 0.000000 0.026446 0.000000 0.000000
# 5 0.000000 0.000000 0.000000 0.000000 0.026446 0.000000
# 6 0.000000 0.000000 0.000000 0.000000 0.000000 0.059512
#
#
# Mechanical properties :
#
#
# Convention : Reuss Voigt Hill
#
# Bulk Modulus (GPa) = 78.44117 78.44156 78.44136
# Shear Modulus (GPa) = 27.90885 30.50259 29.20572
#
# Velocity S-wave (km/s) = 3.69307 3.86086 3.77790
# Velocity P-wave (km/s) = 7.51786 7.62945 7.57386
#
# Compressibility (1/GPa) = 0.01274841
#
# Stress axis : x y z
#
# Youngs Moduli (GPa) = 81.53682 81.53682 76.35683
#
# Poissons Ratio (x) = 0.29060 0.33881
# Poissons Ratio (y) = 0.29060 0.33881
# Poissons Ratio (z) = 0.36179 0.36179
#
# Static dielectric constant tensor:
#      x y z
#    x 3.583530 0.000000 0.000000 
#    y 0.000000 3.583530 0.000000 
#    z 0.000000 0.000000 3.652260 
# 
# 
# High freq. dielectric constant tensor:
#      x y z
#    x 1.795040 0.000000 0.000000 
#    y 0.000000 1.795040 0.000000 
#    z 0.000000 0.000000 1.809350 
# 
# From -- ./inp_files/5733.got.cif
#   From: 2010.03.12/outbox.cif.g09.slc.cpg/sg125_3_cif.got.tgz:5733.got - 2010.04.06 16:47:52.
