data_PCOD8313691
_publ_section_title
;
Structure prediction by ZEFSAII (Michael W. Deem and Ramdas Pophale) SiO2 
 PCOD8313691
Probable space group: P 4/N N C
;
_chemical_formula_sum "Si O2"
_cell_formula_units_Z 120
_cell_length_a 21.134368
_cell_length_b 21.134368
_cell_length_c 14.493840
_cell_angle_alpha 90.000000
_cell_angle_beta 90.000000
_cell_angle_gamma 90.000000
_cell_volume 6473.840471
_symmetry_space_group_name_H-M "P 4/N N C"
_symmetry_group_IT_number 126
_space_group.IT_coordinate_system_code '2'
_symmetry_cell_setting 'tetragonal'
loop_
_space_group_symop_operation_xyz
x,y,z
1/2-y,x,z
1/2-x,1/2-y,z
y,1/2-x,z
x,1/2-y,1/2-z
1/2-x,y,1/2-z
y,x,1/2-z
1/2-y,1/2-x,1/2-z
-x,-y,-z
1/2+y,-x,-z
1/2+x,1/2+y,-z
-y,1/2+x,-z
-x,1/2+y,1/2+z
1/2+x,-y,1/2+z
-y,-x,1/2+z
1/2+y,1/2+x,1/2+z
loop_
_atom_site_type_symbol
_atom_site_label
_atom_site_fract_x
_atom_site_fract_y
_atom_site_fract_z
Si Si1 0.223360 0.577520 0.347816
Si Si2 0.257609 0.447563 0.429873
Si Si3 0.926089 0.821485 0.246112
Si Si4 0.965091 0.626195 0.442351
Si Si5 0.852107 0.968304 0.060280
Si Si6 0.167845 0.708523 0.530969
Si Si7 0.250000 0.143286 0.250000
Si Si8 0.894188 0.090503 0.955212
O O1 0.250000 0.559254 0.250000
O O2 0.245908 0.520480 0.410247
O O3 0.256463 0.643091 0.377577
O O4 0.146642 0.583935 0.359322
O O5 0.327459 0.447032 0.473396
O O6 0.203166 0.430771 0.504513
O O7 0.252124 0.400870 0.341439
O O8 0.901974 0.750000 0.250000
O O9 0.863611 0.863611 0.250000
O O10 0.964425 0.834859 0.152747
O O11 0.972889 0.834128 0.331960
O O12 0.915121 0.571245 0.450028
O O13 0.030994 0.587510 0.443041
O O14 0.867519 0.038518 0.025715
O O15 0.263901 0.824269 0.547385
O O16 0.116008 0.659382 0.497961
O O17 0.312739 0.187262 0.250000
#
# Coordination Sequence:
#
# PCOD8313691 Si02
#       8
#    16  16  16  16  16  16   8  16
#     4  10  20  36  57  83 114 147 196 239 286 354
#     4  11  20  38  63  83 115 159 197 244 302 363
#     4  10  21  38  60  87 119 153 199 250 299 361
#     4  11  21  38  60  87 120 155 198 246 305 358
#     4  10  22  38  60  87 119 157 197 247 300 368
#     4   9  18  34  54  78 109 145 184 230 287 338
#     4  11  24  40  58  88 124 157 206 258 300 363
#     4  10  21  36  59  83 117 155 192 242 297 355
#
# _framework density 18.536138000000001
#
# number of rings (size 3 to 8) (size 9 to 14) (size 15 to 20)
#    0.000    1.800    3.333    1.200    0.000    1.200 
#    0.000    5.333    0.000    0.000    0.000    0.000 
#    0.000    0.000    0.000    0.000    0.000    0.000 
#
# Total GULP energy -1486861.812644 kJ/mol
# GULP energy per Si atom -12390.515105 kJ/mol
# Density = 1.849395 g / cm^3
# Si number density = 18.536138 Si / 1000 Ang^3
#
#
#
# Elastic Constant Matrix: (Units=GPa)
#
#
# Indices 1 2 3 4 5 6 
#
# 1 82.4446 28.7569 29.4892 0.0000 0.0000 0.0000
# 2 28.7569 82.4450 29.4892 0.0000 0.0000 0.0000
# 3 29.4892 29.4892 95.5474 0.0000 0.0000 0.0000
# 4 0.0000 0.0000 0.0000 25.1957 0.0000 0.0000
# 5 0.0000 0.0000 0.0000 0.0000 25.1957 0.0000
# 6 0.0000 0.0000 0.0000 0.0000 0.0000 24.7891
#
#
#
# Elastic Compliance Matrix: (Units=1/GPa)
#
#
# Indices 1 2 3 4 5 6 
#
# 1 0.014690 -0.003937 -0.003319 0.000000 0.000000 0.000000
# 2 -0.003937 0.014689 -0.003319 0.000000 0.000000 0.000000
# 3 -0.003319 -0.003319 0.012515 0.000000 0.000000 0.000000
# 4 0.000000 0.000000 0.000000 0.039689 0.000000 0.000000
# 5 0.000000 0.000000 0.000000 0.000000 0.039689 0.000000
# 6 0.000000 0.000000 0.000000 0.000000 0.000000 0.040340
#
#
# Mechanical properties :
#
#
# Convention : Reuss Voigt Hill
#
# Bulk Modulus (GPa) = 48.20343 48.43417 48.31880
# Shear Modulus (GPa) = 26.36079 26.54955 26.45517
#
# Velocity S-wave (km/s) = 3.77520 3.78870 3.78196
# Velocity P-wave (km/s) = 6.71301 6.73241 6.72271
#
# Compressibility (1/GPa) = 0.02074541
#
# Stress axis : x y z
#
# Youngs Moduli (GPa) = 68.07568 68.07603 79.90710
#
# Poissons Ratio (x) = 0.26799 0.26519
# Poissons Ratio (y) = 0.26799 0.26519
# Poissons Ratio (z) = 0.22592 0.22592
#
# Static dielectric constant tensor:
#      x y z
#    x 3.486600 0.000000 0.000000 
#    y 0.000000 3.486600 0.000000 
#    z 0.000000 0.000000 3.477640 
# 
# 
# High freq. dielectric constant tensor:
#      x y z
#    x 1.730020 0.000000 0.000000 
#    y 0.000000 1.730020 0.000000 
#    z 0.000000 0.000000 1.704410 
# 
# From -- ./inp_files/3941.got.cif
#   From: 2010.03.12/outbox.cif.g09.slc.cpg/sg126_2_cif.got.tgz:3941.got - 2010.04.06 16:55:23.
