data_PCOD8313805
_publ_section_title
;
Structure prediction by ZEFSAII (Michael W. Deem and Ramdas Pophale) SiO2 
 PCOD8313805
Probable space group: P 4/N N C
;
_chemical_formula_sum "Si O2"
_cell_formula_units_Z 88
_cell_length_a 15.926312
_cell_length_b 15.926312
_cell_length_c 15.542593
_cell_angle_alpha 90.000000
_cell_angle_beta 90.000000
_cell_angle_gamma 90.000000
_cell_volume 3942.338520
_symmetry_space_group_name_H-M "P 4/N N C"
_symmetry_group_IT_number 126
_space_group.IT_coordinate_system_code '2'
_symmetry_cell_setting 'tetragonal'
loop_
_space_group_symop_operation_xyz
x,y,z
1/2-y,x,z
1/2-x,1/2-y,z
y,1/2-x,z
x,1/2-y,1/2-z
1/2-x,y,1/2-z
y,x,1/2-z
1/2-y,1/2-x,1/2-z
-x,-y,-z
1/2+y,-x,-z
1/2+x,1/2+y,-z
-y,1/2+x,-z
-x,1/2+y,1/2+z
1/2+x,-y,1/2+z
-y,-x,1/2+z
1/2+y,1/2+x,1/2+z
loop_
_atom_site_type_symbol
_atom_site_label
_atom_site_fract_x
_atom_site_fract_y
_atom_site_fract_z
Si Si1 0.612980 0.271486 0.001243
Si Si2 0.630171 0.686487 0.610140
Si Si3 0.038122 0.793324 0.337240
Si Si4 0.572417 0.173433 0.317835
Si Si5 0.074719 0.074719 0.250000
Si Si6 0.812580 0.872836 0.086140
O O1 0.556096 0.289199 0.086306
O O2 0.681107 0.343943 0.986100
O O3 0.552845 0.270635 0.917462
O O4 0.716135 0.637994 0.630175
O O5 0.567553 0.649575 0.680194
O O6 0.602516 0.672262 0.512849
O O7 0.011787 0.750000 0.250000
O O8 0.126656 0.838639 0.320389
O O9 0.953599 0.846860 0.361042
O O10 0.573050 0.250000 0.250000
O O11 0.511290 0.093429 0.300199
O O12 0.713190 0.860786 0.107420
#
# Coordination Sequence:
#
# PCOD8313805 Si02
#       6
#    16  16  16  16   8  16
#     4   9  20  41  66  91 123 171 227 273 325 391
#     4   9  18  35  59  90 124 170 212 252 309 392
#     4  11  24  42  67  93 126 175 224 277 332 395
#     4  11  25  42  65  99 135 168 217 277 345 407
#     4  12  24  35  62  98 136 167 202 272 348 408
#     4   9  21  40  65  93 128 170 222 271 321 389
#
# _framework density 22.321777000000001
#
# number of rings (size 3 to 8) (size 9 to 14) (size 15 to 20)
#    0.000    2.000    0.000    3.818    7.636    4.727 
#    0.000    1.818    0.000    0.000    0.000    0.000 
#    0.000    0.000    0.000    0.000    0.000    0.000 
#
# Total GULP energy -1090364.692944 kJ/mol
# GULP energy per Si atom -12390.507874 kJ/mol
# Density = 2.227097 g / cm^3
# Si number density = 22.321777 Si / 1000 Ang^3
#
#
#
# Elastic Constant Matrix: (Units=GPa)
#
#
# Indices 1 2 3 4 5 6 
#
# 1 69.5021 13.0223 43.2288 0.0000 0.0000 0.0000
# 2 13.0223 69.5021 43.2288 0.0000 0.0000 0.0000
# 3 43.2288 43.2288 142.6339 0.0000 0.0000 0.0000
# 4 0.0000 0.0000 0.0000 33.0190 0.0000 0.0000
# 5 0.0000 0.0000 0.0000 0.0000 33.0190 0.0000
# 6 0.0000 0.0000 0.0000 0.0000 0.0000 25.5857
#
#
#
# Elastic Compliance Matrix: (Units=1/GPa)
#
#
# Indices 1 2 3 4 5 6 
#
# 1 0.017730 0.000025 -0.005381 0.000000 0.000000 0.000000
# 2 0.000025 0.017730 -0.005381 0.000000 0.000000 0.000000
# 3 -0.005381 -0.005381 0.010273 0.000000 0.000000 0.000000
# 4 0.000000 0.000000 0.000000 0.030286 0.000000 0.000000
# 5 0.000000 0.000000 0.000000 0.000000 0.030286 0.000000
# 6 0.000000 0.000000 0.000000 0.000000 0.000000 0.039084
#
#
# Mechanical properties :
#
#
# Convention : Reuss Voigt Hill
#
# Bulk Modulus (GPa) = 41.22250 53.39977 47.31114
# Shear Modulus (GPa) = 28.57956 30.46861 29.52408
#
# Velocity S-wave (km/s) = 3.58207 3.69856 3.64078
# Velocity P-wave (km/s) = 5.96790 6.49721 6.23817
#
# Compressibility (1/GPa) = 0.02425860
#
# Stress axis : x y z
#
# Youngs Moduli (GPa) = 56.40039 56.40039 97.34468
#
# Poissons Ratio (x) = -0.00141 0.52383
# Poissons Ratio (y) = -0.00141 0.52383
# Poissons Ratio (z) = 0.30350 0.30350
#
# Static dielectric constant tensor:
#      x y z
#    x 3.814310 0.000000 0.000000 
#    y 0.000000 3.814310 0.000000 
#    z 0.000000 0.000000 4.228740 
# 
# 
# High freq. dielectric constant tensor:
#      x y z
#    x 1.864160 0.000000 0.000000 
#    y 0.000000 1.864160 0.000000 
#    z 0.000000 0.000000 1.895320 
# 
# From -- ./inp_files/3735.got.cif
#   From: 2010.03.12/outbox.cif.g09.slc.cpg/sg126_2_cif.got.tgz:3735.got - 2010.04.06 16:55:23.
