data_PCOD8313486
_publ_section_title
;
Structure prediction by ZEFSAII (Michael W. Deem and Ramdas Pophale) SiO2 
 PCOD8313486
Probable space group: P 4/N B M
;
_chemical_formula_sum "Si O2"
_cell_formula_units_Z 112
_cell_length_a 15.414143
_cell_length_b 15.414143
_cell_length_c 22.948934
_cell_angle_alpha 90.000000
_cell_angle_beta 90.000000
_cell_angle_gamma 90.000000
_cell_volume 5452.570434
_symmetry_space_group_name_H-M "P 4/N B M"
_symmetry_group_IT_number 125
_space_group.IT_coordinate_system_code '2'
_symmetry_cell_setting 'tetragonal'
loop_
_space_group_symop_operation_xyz
x,y,z
1/2-y,x,z
1/2-x,1/2-y,z
y,1/2-x,z
x,1/2-y,-z
1/2-x,y,-z
y,x,-z
1/2-y,1/2-x,-z
-x,-y,-z
1/2+y,-x,-z
1/2+x,1/2+y,-z
-y,1/2+x,-z
-x,1/2+y,z
1/2+x,-y,z
-y,-x,z
1/2+y,1/2+x,z
loop_
_atom_site_type_symbol
_atom_site_label
_atom_site_fract_x
_atom_site_fract_y
_atom_site_fract_z
Si Si1 0.129062 0.171167 0.743232
Si Si2 0.563204 0.295039 0.357160
Si Si3 0.933820 0.924559 0.368599
Si Si4 0.036287 0.673481 0.544005
Si Si5 0.228758 0.113016 0.067474
Si Si6 0.613778 0.251699 0.238812
Si Si7 0.355196 0.503129 0.157013
O O1 0.225042 0.131337 0.747335
O O2 0.083976 0.144887 0.682154
O O3 0.075033 0.130050 0.797055
O O4 0.651176 0.348825 0.355599
O O5 0.482106 0.349496 0.381063
O O6 0.580367 0.214112 0.398765
O O7 0.543902 0.264369 0.290863
O O8 0.952472 0.877899 0.430954
O O9 0.014964 0.985037 0.349693
O O10 0.009651 0.750000 0.500000
O O11 0.106266 0.606266 0.515457
O O12 0.319847 0.153393 0.087297
O O13 0.194294 0.026145 0.098028
O O14 0.250000 0.095647 0.000000
O O15 0.656987 0.343014 0.220783
O O16 0.685676 0.185676 0.263163
O O17 0.569190 0.214668 0.182119
O O18 0.446649 0.553352 0.144343
#
# Coordination Sequence:
#
# PCOD8313486 Si02
#       7
#    16  16  16  16  16  16  16
#     4  11  22  36  57  84 115 151 189 227 274 338
#     4  10  20  35  56  79 104 136 176 223 273 326
#     4  10  21  37  56  79 108 141 178 225 284 341
#     4  11  23  37  54  76 103 136 176 224 275 332
#     4   9  19  39  63  82 107 149 198 240 280 330
#     4   9  18  33  54  80 112 151 187 219 266 331
#     4  11  21  34  55  86 121 149 183 233 283 328
#
# _framework density 20.540769999999998
#
# number of rings (size 3 to 8) (size 9 to 14) (size 15 to 20)
#    0.000    1.857    0.000    5.143    0.000    5.571 
#    0.000    8.571    0.000    0.000    0.000    1.000 
#    0.000    0.000    0.000    0.000    0.000    0.000 
#
# Total GULP energy -1388002.777185 kJ/mol
# GULP energy per Si atom -12392.881939 kJ/mol
# Density = 2.049402 g / cm^3
# Si number density = 20.540770 Si / 1000 Ang^3
#
#
#
# Elastic Constant Matrix: (Units=GPa)
#
#
# Indices 1 2 3 4 5 6 
#
# 1 96.8494 41.2883 42.8278 0.0000 0.0000 0.0000
# 2 41.2883 96.8494 42.8278 0.0000 0.0000 0.0000
# 3 42.8278 42.8278 78.4700 0.0000 0.0000 0.0000
# 4 0.0000 0.0000 0.0000 36.7806 0.0000 0.0000
# 5 0.0000 0.0000 0.0000 0.0000 36.7806 0.0000
# 6 0.0000 0.0000 0.0000 0.0000 0.0000 32.2777
#
#
#
# Elastic Compliance Matrix: (Units=1/GPa)
#
#
# Indices 1 2 3 4 5 6 
#
# 1 0.014470 -0.003528 -0.005972 0.000000 0.000000 0.000000
# 2 -0.003528 0.014470 -0.005972 0.000000 0.000000 0.000000
# 3 -0.005972 -0.005972 0.019263 0.000000 0.000000 0.000000
# 4 0.000000 0.000000 0.000000 0.027188 0.000000 0.000000
# 5 0.000000 0.000000 0.000000 0.000000 0.027188 0.000000
# 6 0.000000 0.000000 0.000000 0.000000 0.000000 0.030981
#
#
# Mechanical properties :
#
#
# Convention : Reuss Voigt Hill
#
# Bulk Modulus (GPa) = 57.94156 58.45073 58.19614
# Shear Modulus (GPa) = 29.36712 30.84943 30.10827
#
# Velocity S-wave (km/s) = 3.78524 3.87959 3.83271
# Velocity P-wave (km/s) = 6.88283 6.97037 6.92674
#
# Compressibility (1/GPa) = 0.01725877
#
# Stress axis : x y z
#
# Youngs Moduli (GPa) = 69.10715 69.10715 51.91367
#
# Poissons Ratio (x) = 0.24381 0.31004
# Poissons Ratio (y) = 0.24381 0.31004
# Poissons Ratio (z) = 0.41272 0.41272
#
# Static dielectric constant tensor:
#      x y z
#    x 3.828230 0.000000 0.000000 
#    y 0.000000 3.828230 0.000000 
#    z 0.000000 0.000000 3.493380 
# 
# 
# High freq. dielectric constant tensor:
#      x y z
#    x 1.806380 0.000000 0.000000 
#    y 0.000000 1.806380 0.000000 
#    z 0.000000 0.000000 1.785160 
# 
# From -- ./inp_files/6239.got.cif
#   From: 2010.03.12/outbox.cif.g09.slc.cpg/sg125_4_cif.got.tgz:6239.got - 2010.04.06 16:47:52.
