data_PCOD8313298
_publ_section_title
;
Structure prediction by ZEFSAII (Michael W. Deem and Ramdas Pophale) SiO2 
 PCOD8313298
Probable space group: P 4/M C C
;
_chemical_formula_sum "Si O2"
_cell_formula_units_Z 96
_cell_length_a 24.943969
_cell_length_b 24.943969
_cell_length_c 9.313173
_cell_angle_alpha 90.000000
_cell_angle_beta 90.000000
_cell_angle_gamma 90.000000
_cell_volume 5794.671044
_symmetry_space_group_name_H-M "P 4/M C C"
_symmetry_group_IT_number 124
_symmetry_cell_setting 'tetragonal'
loop_
_space_group_symop_operation_xyz
x,y,z
-y,x,z
-x,-y,z
y,-x,z
x,-y,1/2-z
-x,y,1/2-z
y,x,1/2-z
-y,-x,1/2-z
-x,-y,-z
y,-x,-z
x,y,-z
-y,x,-z
-x,y,1/2+z
x,-y,1/2+z
-y,-x,1/2+z
y,x,1/2+z
loop_
_atom_site_type_symbol
_atom_site_label
_atom_site_fract_x
_atom_site_fract_y
_atom_site_fract_z
Si Si1 0.166432 0.756185 0.667723
Si Si2 0.831861 0.368133 0.331805
Si Si3 0.445743 0.368488 0.168264
Si Si4 0.553245 0.756999 0.833909
Si Si5 0.242691 0.048477 0.341117
Si Si6 0.370146 0.951299 0.841551
O O1 0.210195 0.789806 0.750000
O O2 0.170864 0.768321 0.500000
O O3 0.177493 0.694199 0.698891
O O4 0.106804 0.772484 0.722960
O O5 0.823217 0.381063 0.500000
O O6 0.789043 0.397864 0.234113
O O7 0.892097 0.385467 0.283089
O O8 0.500000 0.385239 0.250000
O O9 0.397440 0.397440 0.250000
O O10 0.434656 0.305638 0.184312
O O11 0.449045 0.385087 0.000000
O O12 0.500000 0.773919 0.750000
O O13 0.546293 0.772598 0.000000
O O14 0.218768 0.042698 0.500000
O O15 0.306451 0.043891 0.346600
O O16 0.217328 0.000000 0.250000
O O17 0.395337 0.000000 0.750000
O O18 0.394144 0.958032 0.000000
#
# Coordination Sequence:
#
# PCOD8313298 Si02
#       6
#    16  16  16  16  16  16
#     4   9  18  30  43  64  96 128 156 190 231 274
#     4   9  18  32  48  67  94 126 157 191 233 278
#     4  10  21  37  56  78 102 126 154 189 229 273
#     4  10  21  36  54  74  95 123 159 195 230 271
#     4   8  14  25  40  59  84 116 154 191 227 269
#     4   8  14  25  42  64  89 117 149 188 232 274
#
# _framework density 16.566945
#
# number of rings (size 3 to 8) (size 9 to 14) (size 15 to 20)
#    0.000    3.000    0.000    3.000    0.000    4.833 
#    0.000    7.500    0.000    0.500    0.000    3.500 
#    0.000    0.333    0.000    3.667    0.000    3.000 
#
# Total GULP energy -1189882.855386 kJ/mol
# GULP energy per Si atom -12394.613077 kJ/mol
# Density = 1.652924 g / cm^3
# Si number density = 16.566945 Si / 1000 Ang^3
#
#
#
# Elastic Constant Matrix: (Units=GPa)
#
#
# Indices 1 2 3 4 5 6 
#
# 1 74.8370 53.6910 58.3948 0.0000 0.0000 0.0000
# 2 53.6910 74.8443 58.3929 0.0000 0.0000 0.0000
# 3 58.3948 58.3929 103.5132 0.0000 0.0000 0.0000
# 4 0.0000 0.0000 0.0000 31.2067 0.0000 0.0000
# 5 0.0000 0.0000 0.0000 0.0000 31.2066 0.0000
# 6 0.0000 0.0000 0.0000 0.0000 0.0000 -1.0375
#
#
#
# Elastic Compliance Matrix: (Units=1/GPa)
#
#
# Indices 1 2 3 4 5 6 
#
# 1 0.031626 -0.015660 -0.009007 0.000000 0.000000 0.000000
# 2 -0.015660 0.031618 -0.009002 0.000000 0.000000 0.000000
# 3 -0.009007 -0.009002 0.019820 0.000000 0.000000 0.000000
# 4 0.000000 0.000000 0.000000 0.032044 0.000000 0.000000
# 5 0.000000 0.000000 0.000000 0.000000 0.032045 0.000000
# 6 0.000000 0.000000 0.000000 0.000000 0.000000 -0.963856
#
#
# Mechanical properties :
#
#
# Convention : Reuss Voigt Hill
#
# Bulk Modulus (GPa) = 63.58963 66.01687 64.80325
# Shear Modulus (GPa) = -6.71932 17.78953 5.53511
#
# Velocity S-wave (km/s) = -2.01610 3.28044 1.82984
# Velocity P-wave (km/s) = 5.74867 7.36773 6.60797
#
# Compressibility (1/GPa) = 0.01572584
#
# Stress axis : x y z
#
# Youngs Moduli (GPa) = 31.61992 31.62710 50.45478
#
# Poissons Ratio (x) = 0.49529 0.45444
# Poissons Ratio (y) = 0.49517 0.45419
# Poissons Ratio (z) = 0.28480 0.28470
#
# Static dielectric constant tensor:
#      x y z
#    x 3.022390 0.000000 0.000000 
#    y 0.000000 3.022390 0.000000 
#    z 0.000000 0.000000 3.305880 
# 
# 
# High freq. dielectric constant tensor:
#      x y z
#    x 1.621090 0.000000 0.000000 
#    y 0.000000 1.621090 0.000000 
#    z 0.000000 0.000000 1.642840 
# 
# From -- ./inp_files/1334.got.cif
#   From: 2010.03.12/outbox.cif.g09.slc.cpg/sg124_1_cif.got.tgz:1334.got - 2010.04.06 16:38:57.
