data_PCOD8313347
_publ_section_title
;
Structure prediction by ZEFSAII (Michael W. Deem and Ramdas Pophale) SiO2 
 PCOD8313347
Probable space group: P 4/M C C
;
_chemical_formula_sum "Si O2"
_cell_formula_units_Z 96
_cell_length_a 14.086740
_cell_length_b 14.086740
_cell_length_c 22.635954
_cell_angle_alpha 90.000000
_cell_angle_beta 90.000000
_cell_angle_gamma 90.000000
_cell_volume 4491.793687
_symmetry_space_group_name_H-M "P 4/M C C"
_symmetry_group_IT_number 124
_symmetry_cell_setting 'tetragonal'
loop_
_space_group_symop_operation_xyz
x,y,z
-y,x,z
-x,-y,z
y,-x,z
x,-y,1/2-z
-x,y,1/2-z
y,x,1/2-z
-y,-x,1/2-z
-x,-y,-z
y,-x,-z
x,y,-z
-y,x,-z
-x,y,1/2+z
x,-y,1/2+z
-y,-x,1/2+z
y,x,1/2+z
loop_
_atom_site_type_symbol
_atom_site_label
_atom_site_fract_x
_atom_site_fract_y
_atom_site_fract_z
Si Si1 0.496880 0.111098 0.934619
Si Si2 0.632332 0.419344 0.066100
Si Si3 0.305872 0.855680 0.123515
Si Si4 0.033268 0.148876 0.930601
Si Si5 0.886710 0.736617 0.748237
Si Si6 0.331301 0.205262 0.870552
O O1 0.588500 0.154485 0.901800
O O2 0.393390 0.132139 0.908131
O O3 0.500000 0.000000 0.934314
O O4 0.501614 0.153954 0.000000
O O5 0.628627 0.531520 0.072664
O O6 0.695584 0.387709 0.122179
O O7 0.673173 0.394551 0.000000
O O8 0.249257 0.950378 0.102491
O O9 0.320297 0.854392 0.193748
O O10 0.233955 0.771637 0.102909
O O11 0.929593 0.111591 0.911744
O O12 0.038254 0.166850 0.000000
O O13 0.843175 0.843175 0.750000
O O14 0.840855 0.677214 0.694431
O O15 0.000000 0.744545 0.750000
#
# Coordination Sequence:
#
# PCOD8313347 Si02
#       6
#    16  16  16  16  16  16
#     4  11  25  41  62  95 129 165 213 266 331 400
#     4   9  18  35  64 101 136 168 210 270 338 404
#     4  11  24  41  65  91 126 171 219 272 326 390
#     4   9  20  37  61  95 129 163 204 257 334 412
#     4  10  24  43  64  91 122 166 222 274 329 388
#     4  11  23  40  60  88 128 171 216 265 318 392
#
# _framework density 21.372306999999999
#
# number of rings (size 3 to 8) (size 9 to 14) (size 15 to 20)
#    0.000    1.833    0.000    4.000    7.000    4.833 
#    0.000    3.333    0.000    0.000    0.000   10.500 
#    0.000    0.000    0.000    0.000    0.000    0.000 
#
# Total GULP energy -1189301.179094 kJ/mol
# GULP energy per Si atom -12388.553949 kJ/mol
# Density = 2.132366 g / cm^3
# Si number density = 21.372307 Si / 1000 Ang^3
#
#
#
# Elastic Constant Matrix: (Units=GPa)
#
#
# Indices 1 2 3 4 5 6 
#
# 1 112.3792 35.8047 65.6746 0.0000 0.0000 0.0000
# 2 35.8047 112.3792 65.6746 0.0000 0.0000 0.0000
# 3 65.6746 65.6746 135.4183 0.0000 0.0000 0.0000
# 4 0.0000 0.0000 0.0000 28.7927 0.0000 0.0000
# 5 0.0000 0.0000 0.0000 0.0000 28.7927 0.0000
# 6 0.0000 0.0000 0.0000 0.0000 0.0000 37.9878
#
#
#
# Elastic Compliance Matrix: (Units=1/GPa)
#
#
# Indices 1 2 3 4 5 6 
#
# 1 0.012448 -0.000611 -0.005741 0.000000 0.000000 0.000000
# 2 -0.000611 0.012448 -0.005741 0.000000 0.000000 0.000000
# 3 -0.005741 -0.005741 0.012953 0.000000 0.000000 0.000000
# 4 0.000000 0.000000 0.000000 0.034731 0.000000 0.000000
# 5 0.000000 0.000000 0.000000 0.000000 0.034731 0.000000
# 6 0.000000 0.000000 0.000000 0.000000 0.000000 0.026324
#
#
# Mechanical properties :
#
#
# Convention : Reuss Voigt Hill
#
# Bulk Modulus (GPa) = 73.18549 77.16496 75.17522
# Shear Modulus (GPa) = 30.79312 31.98283 31.38798
#
# Velocity S-wave (km/s) = 3.79990 3.87261 3.83643
# Velocity P-wave (km/s) = 7.31914 7.49531 7.40775
#
# Compressibility (1/GPa) = 0.01366391
#
# Stress axis : x y z
#
# Youngs Moduli (GPa) = 80.33449 80.33449 77.20483
#
# Poissons Ratio (x) = 0.04910 0.44320
# Poissons Ratio (y) = 0.04910 0.44320
# Poissons Ratio (z) = 0.46116 0.46116
#
# Static dielectric constant tensor:
#      x y z
#    x 4.012690 0.000000 0.000000 
#    y 0.000000 4.012690 0.000000 
#    z 0.000000 0.000000 3.883390 
# 
# 
# High freq. dielectric constant tensor:
#      x y z
#    x 1.847990 0.000000 0.000000 
#    y 0.000000 1.847990 0.000000 
#    z 0.000000 0.000000 1.822790 
# 
# From -- ./inp_files/5316.got.cif
#   From: 2010.03.12/outbox.cif.g09.slc.cpg/sg124_3_cif.got.tgz:5316.got - 2010.04.06 16:38:57.
