data_PCOD8313010
_publ_section_title
;
Structure prediction by ZEFSAII (Michael W. Deem and Ramdas Pophale) SiO2 
 PCOD8313010
Probable space group: P 4/M M M
;
_chemical_formula_sum "Si O2"
_cell_formula_units_Z 112
_cell_length_a 14.400826
_cell_length_b 14.400826
_cell_length_c 34.691371
_cell_angle_alpha 90.000000
_cell_angle_beta 90.000000
_cell_angle_gamma 90.000000
_cell_volume 7194.427980
_symmetry_space_group_name_H-M "P 4/M M M"
_symmetry_group_IT_number 123
_symmetry_cell_setting 'tetragonal'
loop_
_space_group_symop_operation_xyz
x,y,z
-y,x,z
-x,-y,z
y,-x,z
x,-y,-z
-x,y,-z
y,x,-z
-y,-x,-z
-x,-y,-z
y,-x,-z
x,y,-z
-y,x,-z
-x,y,z
x,-y,z
-y,-x,z
y,x,z
loop_
_atom_site_type_symbol
_atom_site_label
_atom_site_fract_x
_atom_site_fract_y
_atom_site_fract_z
Si Si1 0.108405 0.259860 0.412777
Si Si2 0.393072 0.244434 0.894525
Si Si3 0.896814 0.389823 0.957241
Si Si4 0.393363 0.893214 0.741264
Si Si5 0.243285 0.393326 0.545460
Si Si6 0.894456 0.745413 0.675835
Si Si7 0.756735 0.606444 0.192349
O O1 0.163881 0.163881 0.421856
O O2 0.152419 0.345537 0.436158
O O3 0.119062 0.286966 0.368065
O O4 0.000000 0.246524 0.424250
O O5 0.500000 0.264192 0.903875
O O6 0.341930 0.341930 0.899852
O O7 0.349300 0.170536 0.924381
O O8 0.379246 0.205617 0.851173
O O9 0.900458 0.500000 0.953732
O O10 0.000000 0.349379 0.950358
O O11 0.861403 0.361060 0.000000
O O12 0.500000 0.873495 0.731569
O O13 0.337812 0.861435 0.703381
O O14 0.359876 0.836614 0.778622
O O15 0.375330 0.000000 0.751365
O O16 0.228994 0.390417 0.500000
O O17 0.253051 0.500000 0.559856
O O18 0.336258 0.336258 0.557406
O O19 0.836121 0.836121 0.685709
O O20 0.000000 0.773291 0.684046
O O21 0.729655 0.500000 0.199637
O O22 0.664221 0.664221 0.200281
#
# Coordination Sequence:
#
# PCOD8313010 Si02
#       7
#    16  16  16  16  16  16  16
#     4   9  18  31  46  66  91 118 149 182 215 255
#     4   9  17  27  39  57  80 106 135 164 195 234
#     4   8  14  25  40  56  74  98 128 161 196 231
#     4   9  17  28  42  61  83 106 134 169 209 250
#     4   9  18  32  49  69  92 117 146 181 220 261
#     4   9  17  29  45  64  86 112 140 171 208 249
#     4   9  17  28  41  57  78 105 136 168 200 235
#
# _framework density 15.567602000000001
#
# number of rings (size 3 to 8) (size 9 to 14) (size 15 to 20)
#    0.000    3.143    0.000    0.857    0.000    2.714 
#    0.000    8.571    0.000    0.000    0.000    4.000 
#    0.000    3.714    0.000    4.714    0.000    3.857 
#
# Total GULP energy -1388387.122600 kJ/mol
# GULP energy per Si atom -12396.313595 kJ/mol
# Density = 1.553217 g / cm^3
# Si number density = 15.567602 Si / 1000 Ang^3
#
#
#
# Elastic Constant Matrix: (Units=GPa)
#
#
# Indices 1 2 3 4 5 6 
#
# 1 84.1538 47.2793 46.7772 0.0000 0.0000 0.0000
# 2 47.2793 84.1538 46.7772 0.0000 0.0000 0.0000
# 3 46.7772 46.7772 67.4345 0.0000 0.0000 0.0000
# 4 0.0000 0.0000 0.0000 25.6189 0.0000 0.0000
# 5 0.0000 0.0000 0.0000 0.0000 25.6189 0.0000
# 6 0.0000 0.0000 0.0000 0.0000 0.0000 17.0158
#
#
#
# Elastic Compliance Matrix: (Units=1/GPa)
#
#
# Indices 1 2 3 4 5 6 
#
# 1 0.021074 -0.006045 -0.010425 0.000000 0.000000 0.000000
# 2 -0.006045 0.021074 -0.010425 0.000000 0.000000 0.000000
# 3 -0.010425 -0.010425 0.029292 0.000000 0.000000 0.000000
# 4 0.000000 0.000000 0.000000 0.039034 0.000000 0.000000
# 5 0.000000 0.000000 0.000000 0.000000 0.039034 0.000000
# 6 0.000000 0.000000 0.000000 0.000000 0.000000 0.058769
#
#
# Mechanical properties :
#
#
# Convention : Reuss Voigt Hill
#
# Bulk Modulus (GPa) = 56.65773 57.48995 57.07384
# Shear Modulus (GPa) = 18.66015 19.97798 19.31907
#
# Velocity S-wave (km/s) = 3.46591 3.58621 3.52657
# Velocity P-wave (km/s) = 7.24503 7.35916 7.30232
#
# Compressibility (1/GPa) = 0.01764984
#
# Stress axis : x y z
#
# Youngs Moduli (GPa) = 47.45172 47.45172 34.13848
#
# Poissons Ratio (x) = 0.28684 0.35590
# Poissons Ratio (y) = 0.28684 0.35590
# Poissons Ratio (z) = 0.49469 0.49469
#
# Static dielectric constant tensor:
#      x y z
#    x 2.950330 0.000000 0.000000 
#    y 0.000000 2.950330 0.000000 
#    z 0.000000 0.000000 3.138480 
# 
# 
# High freq. dielectric constant tensor:
#      x y z
#    x 1.584550 0.000000 0.000000 
#    y 0.000000 1.584550 0.000000 
#    z 0.000000 0.000000 1.602540 
# 
# From -- ./inp_files/8727.got.cif
#   From: 2010.03.12/outbox.cif.g09.slc.cpg/sg123_5_cif.got.tgz:8727.got - 2010.04.06 16:26:55.
