data_PCOD8313778
_publ_section_title
;
Structure prediction by ZEFSAII (Michael W. Deem and Ramdas Pophale) SiO2 
 PCOD8313778
Probable space group: P 4/N N C
;
_chemical_formula_sum "Si O2"
_cell_formula_units_Z 80
_cell_length_a 11.650174
_cell_length_b 11.650174
_cell_length_c 28.378015
_cell_angle_alpha 90.000000
_cell_angle_beta 90.000000
_cell_angle_gamma 90.000000
_cell_volume 3851.650192
_symmetry_space_group_name_H-M "P 4/N N C"
_symmetry_group_IT_number 126
_space_group.IT_coordinate_system_code '2'
_symmetry_cell_setting 'tetragonal'
loop_
_space_group_symop_operation_xyz
x,y,z
1/2-y,x,z
1/2-x,1/2-y,z
y,1/2-x,z
x,1/2-y,1/2-z
1/2-x,y,1/2-z
y,x,1/2-z
1/2-y,1/2-x,1/2-z
-x,-y,-z
1/2+y,-x,-z
1/2+x,1/2+y,-z
-y,1/2+x,-z
-x,1/2+y,1/2+z
1/2+x,-y,1/2+z
-y,-x,1/2+z
1/2+y,1/2+x,1/2+z
loop_
_atom_site_type_symbol
_atom_site_label
_atom_site_fract_x
_atom_site_fract_y
_atom_site_fract_z
Si Si1 0.115863 0.759030 0.801485
Si Si2 0.553975 0.091281 0.869268
Si Si3 0.927642 0.138679 0.878872
Si Si4 0.166100 0.597246 0.984155
Si Si5 0.420088 0.166897 0.441923
O O1 0.250000 0.750000 0.793747
O O2 0.055258 0.750000 0.750000
O O3 0.075722 0.883602 0.819098
O O4 0.087240 0.663345 0.841356
O O5 0.555062 0.225797 0.879916
O O6 0.423028 0.047999 0.866714
O O7 0.627125 0.015828 0.905346
O O8 0.890881 0.108417 0.932553
O O9 0.113133 0.695910 0.017712
O O10 0.139342 0.471786 0.006121
O O11 0.401042 0.302485 0.435189
#
# Coordination Sequence:
#
# PCOD8313778 Si02
#       5
#    16  16  16  16  16
#     4   9  20  40  64  88 116 156 206 256 311 381
#     4  11  22  41  62  91 129 166 212 267 325 389
#     4  11  24  38  63  93 125 166 213 266 326 384
#     4  11  22  36  60  87 121 170 217 260 315 385
#     4  11  24  40  59  88 127 171 219 271 322 373
#
# _framework density 20.770316999999999
#
# number of rings (size 3 to 8) (size 9 to 14) (size 15 to 20)
#    0.000    1.400    2.000    3.600    8.400    2.800 
#    0.000    0.000    0.000    0.000    0.000    7.000 
#    0.000    0.000    0.000    0.000    0.000    0.000 
#
# Total GULP energy -991322.111818 kJ/mol
# GULP energy per Si atom -12391.526398 kJ/mol
# Density = 2.072304 g / cm^3
# Si number density = 20.770317 Si / 1000 Ang^3
#
#
#
# Elastic Constant Matrix: (Units=GPa)
#
#
# Indices 1 2 3 4 5 6 
#
# 1 110.8414 44.2849 51.1156 0.0000 0.0000 0.0000
# 2 44.2849 110.8414 51.1156 0.0000 0.0000 0.0000
# 3 51.1156 51.1156 158.5678 0.0000 0.0000 0.0000
# 4 0.0000 0.0000 0.0000 -412.8587 0.0000 0.0000
# 5 0.0000 0.0000 0.0000 0.0000 -412.8587 0.0000
# 6 0.0000 0.0000 0.0000 0.0000 0.0000 31.4840
#
#
#
# Elastic Compliance Matrix: (Units=1/GPa)
#
#
# Indices 1 2 3 4 5 6 
#
# 1 0.011605 -0.003420 -0.002639 0.000000 0.000000 0.000000
# 2 -0.003420 0.011605 -0.002639 0.000000 0.000000 0.000000
# 3 -0.002639 -0.002639 0.008008 0.000000 0.000000 0.000000
# 4 0.000000 0.000000 0.000000 -0.002422 0.000000 0.000000
# 5 0.000000 0.000000 0.000000 0.000000 -0.002422 0.000000
# 6 0.000000 0.000000 0.000000 0.000000 0.000000 0.031762
#
#
# Mechanical properties :
#
#
# Convention : Reuss Voigt Hill
#
# Bulk Modulus (GPa) = 72.33932 74.80923 73.57428
# Shear Modulus (GPa) = 62.39287 -143.26439 -40.43576
#
# Velocity S-wave (km/s) = 5.48677 -8.31416 -4.41705
# Velocity P-wave (km/s) = 8.66276 7.48809 3.07993
#
# Compressibility (1/GPa) = 0.01382374
#
# Stress axis : x y z
#
# Youngs Moduli (GPa) = 86.16949 86.16949 124.88159
#
# Poissons Ratio (x) = 0.29468 0.32951
# Poissons Ratio (y) = 0.29468 0.32951
# Poissons Ratio (z) = 0.22736 0.22736
#
# Static dielectric constant tensor:
#      x y z
#    x 3.767220 0.000000 0.000000 
#    y 0.000000 3.767220 0.000000 
#    z 0.000000 0.000000 4.123070 
# 
# 
# High freq. dielectric constant tensor:
#      x y z
#    x 1.810860 0.000000 0.000000 
#    y 0.000000 1.810860 0.000000 
#    z 0.000000 0.000000 1.806560 
# 
# From -- ./inp_files/6422.got.cif
#   From: 2010.03.12/outbox.cif.g09.slc.cpg/sg126_4_cif.got.tgz:6422.got - 2010.04.06 16:55:23.
