data_PCOD8313447
_publ_section_title
;
Structure prediction by ZEFSAII (Michael W. Deem and Ramdas Pophale) SiO2 
 PCOD8313447
Probable space group: P 4/N B M
;
_chemical_formula_sum "Si O2"
_cell_formula_units_Z 96
_cell_length_a 21.342815
_cell_length_b 21.342815
_cell_length_c 11.243531
_cell_angle_alpha 90.000000
_cell_angle_beta 90.000000
_cell_angle_gamma 90.000000
_cell_volume 5121.605480
_symmetry_space_group_name_H-M "P 4/N B M"
_symmetry_group_IT_number 125
_space_group.IT_coordinate_system_code '2'
_symmetry_cell_setting 'tetragonal'
loop_
_space_group_symop_operation_xyz
x,y,z
1/2-y,x,z
1/2-x,1/2-y,z
y,1/2-x,z
x,1/2-y,-z
1/2-x,y,-z
y,x,-z
1/2-y,1/2-x,-z
-x,-y,-z
1/2+y,-x,-z
1/2+x,1/2+y,-z
-y,1/2+x,-z
-x,1/2+y,z
1/2+x,-y,z
-y,-x,z
1/2+y,1/2+x,z
loop_
_atom_site_type_symbol
_atom_site_label
_atom_site_fract_x
_atom_site_fract_y
_atom_site_fract_z
Si Si1 0.678843 0.078065 0.992669
Si Si2 0.537055 0.136017 0.750248
Si Si3 0.370948 0.729023 0.635962
Si Si4 0.827593 0.914153 0.358068
Si Si5 0.813036 0.925144 0.638125
Si Si6 0.342790 0.941009 0.744896
O O1 0.641639 0.141639 0.966872
O O2 0.657207 0.044778 0.114152
O O3 0.750000 0.098401 0.000000
O O4 0.667789 0.032340 0.880613
O O5 0.566884 0.066884 0.759926
O O6 0.575728 0.177581 0.656421
O O7 0.468007 0.130113 0.699390
O O8 0.371096 0.750000 0.500000
O O9 0.303021 0.696980 0.667781
O O10 0.389545 0.788550 0.716359
O O11 0.820203 0.924852 0.497384
O O12 0.756487 0.913828 0.309508
O O13 0.865067 0.852345 0.317582
O O14 0.836967 0.993077 0.679033
O O15 0.408705 0.908705 0.708616
#
# Coordination Sequence:
#
# PCOD8313447 Si02
#       6
#    16  16  16  16  16  16
#     4  10  19  33  52  74 104 146 191 235 275 313
#     4  10  20  35  56  79 107 148 188 225 272 325
#     4  11  21  33  50  75 111 150 187 224 268 320
#     4  10  20  37  60  82 113 141 177 226 273 338
#     4  10  21  37  58  85 110 143 178 221 281 331
#     4  11  22  35  54  80 113 146 188 234 269 320
#
# _framework density 18.744122000000001
#
# number of rings (size 3 to 8) (size 9 to 14) (size 15 to 20)
#    0.000    1.667    3.333    1.500    0.000    4.333 
#    0.000    5.833    0.000    3.000    0.000    0.000 
#    0.000    4.000    0.000    0.000    0.000    0.000 
#
# Total GULP energy -1189810.203118 kJ/mol
# GULP energy per Si atom -12393.856282 kJ/mol
# Density = 1.870146 g / cm^3
# Si number density = 18.744122 Si / 1000 Ang^3
#
#
#
# Elastic Constant Matrix: (Units=GPa)
#
#
# Indices 1 2 3 4 5 6 
#
# 1 95.2783 77.2030 23.8008 0.0000 0.0000 0.0000
# 2 77.2030 95.2783 23.8008 0.0000 0.0000 0.0000
# 3 23.8008 23.8008 43.2734 0.0000 0.0000 0.0000
# 4 0.0000 0.0000 0.0000 17.5616 0.0000 0.0000
# 5 0.0000 0.0000 0.0000 0.0000 17.5616 0.0000
# 6 0.0000 0.0000 0.0000 0.0000 0.0000 25.5103
#
#
#
# Elastic Compliance Matrix: (Units=1/GPa)
#
#
# Indices 1 2 3 4 5 6 
#
# 1 0.031080 -0.024244 -0.003759 0.000000 0.000000 0.000000
# 2 -0.024244 0.031080 -0.003759 0.000000 0.000000 0.000000
# 3 -0.003759 -0.003759 0.027244 0.000000 0.000000 0.000000
# 4 0.000000 0.000000 0.000000 0.056942 0.000000 0.000000
# 5 0.000000 0.000000 0.000000 0.000000 0.056942 0.000000
# 6 0.000000 0.000000 0.000000 0.000000 0.000000 0.039200
#
#
# Mechanical properties :
#
#
# Convention : Reuss Voigt Hill
#
# Bulk Modulus (GPa) = 38.64428 53.71548 46.17988
# Shear Modulus (GPa) = 15.89116 19.39508 17.64312
#
# Velocity S-wave (km/s) = 2.91485 3.22021 3.07133
# Velocity P-wave (km/s) = 5.65597 6.52271 6.10474
#
# Compressibility (1/GPa) = 0.02587705
#
# Stress axis : x y z
#
# Youngs Moduli (GPa) = 32.17541 32.17541 36.70478
#
# Poissons Ratio (x) = 0.78007 0.13799
# Poissons Ratio (y) = 0.78007 0.13799
# Poissons Ratio (z) = 0.12096 0.12096
#
# Static dielectric constant tensor:
#      x y z
#    x 3.491470 0.000000 0.000000 
#    y 0.000000 3.491470 0.000000 
#    z 0.000000 0.000000 3.611450 
# 
# 
# High freq. dielectric constant tensor:
#      x y z
#    x 1.718370 0.000000 0.000000 
#    y 0.000000 1.718370 0.000000 
#    z 0.000000 0.000000 1.722900 
# 
# From -- ./inp_files/4136.got.cif
#   From: 2010.03.12/outbox.cif.g09.slc.cpg/sg125_3_cif.got.tgz:4136.got - 2010.04.06 16:47:52.
