data_PCOD8313902
_publ_section_title
;
Structure prediction by ZEFSAII (Michael W. Deem and Ramdas Pophale) SiO2 
 PCOD8313902
Probable space group: P 4/M B M
;
_chemical_formula_sum "Si O2"
_cell_formula_units_Z 96
_cell_length_a 24.157463
_cell_length_b 24.157463
_cell_length_c 9.086673
_cell_angle_alpha 90.000000
_cell_angle_beta 90.000000
_cell_angle_gamma 90.000000
_cell_volume 5302.828058
_symmetry_space_group_name_H-M "P 4/M B M"
_symmetry_group_IT_number 127
_symmetry_cell_setting 'tetragonal'
loop_
_space_group_symop_operation_xyz
x,y,z
-y,x,z
-x,-y,z
y,-x,z
1/2+x,1/2-y,-z
1/2-x,1/2+y,-z
1/2+y,1/2+x,-z
1/2-y,1/2-x,-z
-x,-y,-z
y,-x,-z
x,y,-z
-y,x,-z
1/2-x,1/2+y,z
1/2+x,1/2-y,z
1/2-y,1/2-x,z
1/2+y,1/2+x,z
loop_
_atom_site_type_symbol
_atom_site_label
_atom_site_fract_x
_atom_site_fract_y
_atom_site_fract_z
Si Si1 0.298974 0.569907 0.324329
Si Si2 0.133475 0.279699 0.325274
Si Si3 0.470904 0.417099 0.674973
Si Si4 0.589804 0.001137 0.170086
Si Si5 0.692377 0.720405 0.324766
Si Si6 0.796424 0.511438 0.324971
O O1 0.301180 0.570564 0.500000
O O2 0.358316 0.549740 0.260636
O O3 0.283932 0.630548 0.260942
O O4 0.250953 0.529582 0.266704
O O5 0.131446 0.277758 0.500000
O O6 0.164870 0.335131 0.272321
O O7 0.166705 0.226049 0.267506
O O8 0.071743 0.280587 0.260965
O O9 0.533637 0.430006 0.728892
O O10 0.470271 0.414833 0.500000
O O11 0.556068 0.056068 0.218903
O O12 0.644227 0.992961 0.266417
O O13 0.552389 0.947612 0.198080
O O14 0.606387 0.005856 0.000000
O O15 0.691017 0.720334 0.500000
O O16 0.723418 0.776583 0.270463
O O17 0.799274 0.511302 0.500000
#
# Coordination Sequence:
#
# PCOD8313902 Si02
#       6
#    16  16  16  16  16  16
#     4   9  17  24  35  58  88 122 152 187 233 277
#     4   8  14  24  38  56  81 115 149 182 223 270
#     4   8  14  23  34  50  78 121 164 194 226 273
#     4   9  19  36  54  69  89 122 159 188 222 278
#     4   8  14  24  35  48  75 117 154 179 214 271
#     4  10  19  28  43  72 100 118 146 194 242 275
#
# _framework density 18.103548
#
# number of rings (size 3 to 8) (size 9 to 14) (size 15 to 20)
#    0.000    3.333    0.000    2.500    2.333    2.000 
#    0.000    2.500    0.000    0.000    0.000    1.167 
#    0.000    4.000    0.000    1.833    0.000    1.667 
#
# Total GULP energy -1189780.966798 kJ/mol
# GULP energy per Si atom -12393.551737 kJ/mol
# Density = 1.806234 g / cm^3
# Si number density = 18.103548 Si / 1000 Ang^3
#
#
#
# Elastic Constant Matrix: (Units=GPa)
#
#
# Indices 1 2 3 4 5 6 
#
# 1 167.5510 96.3255 15.0960 0.0000 0.0000 0.0000
# 2 96.3255 167.5510 15.0960 0.0000 0.0000 0.0000
# 3 15.0960 15.0960 7.4808 0.0000 0.0000 0.0000
# 4 0.0000 0.0000 0.0000 6.4198 0.0000 0.0000
# 5 0.0000 0.0000 0.0000 0.0000 6.4198 0.0000
# 6 0.0000 0.0000 0.0000 0.0000 0.0000 25.8083
#
#
#
# Elastic Compliance Matrix: (Units=1/GPa)
#
#
# Indices 1 2 3 4 5 6 
#
# 1 0.009484 -0.004556 -0.009943 0.000000 0.000000 0.000000
# 2 -0.004556 0.009484 -0.009943 0.000000 0.000000 0.000000
# 3 -0.009943 -0.009943 0.173805 0.000000 0.000000 0.000000
# 4 0.000000 0.000000 0.000000 0.155768 0.000000 0.000000
# 5 0.000000 0.000000 0.000000 0.000000 0.155768 0.000000
# 6 0.000000 0.000000 0.000000 0.000000 0.000000 0.038747
#
#
# Mechanical properties :
#
#
# Convention : Reuss Voigt Hill
#
# Bulk Modulus (GPa) = 6.94988 66.17975 36.56482
# Shear Modulus (GPa) = 7.81368 22.13395 14.97382
#
# Velocity S-wave (km/s) = 2.07978 3.50041 2.87909
# Velocity P-wave (km/s) = 3.10074 7.27824 5.59407
#
# Compressibility (1/GPa) = 0.14388741
#
# Stress axis : x y z
#
# Youngs Moduli (GPa) = 105.44505 105.44505 5.75357
#
# Poissons Ratio (x) = 0.48044 0.05721
# Poissons Ratio (y) = 0.48044 0.05721
# Poissons Ratio (z) = 1.04845 1.04845
#
# Static dielectric constant tensor:
#      x y z
#    x 3.616530 0.000000 0.000000 
#    y 0.000000 3.616530 0.000000 
#    z 0.000000 0.000000 2.540060 
# 
# 
# High freq. dielectric constant tensor:
#      x y z
#    x 1.712270 0.000000 0.000000 
#    y 0.000000 1.712270 0.000000 
#    z 0.000000 0.000000 1.615860 
# 
# From -- ./inp_files/1970.got.cif
#   From: 2010.03.12/outbox.cif.g09.slc.cpg/sg127_1_cif.got.tgz:1970.got - 2010.04.06 17:03:15.
