data_PCOD8313399
_publ_section_title
;
Structure prediction by ZEFSAII (Michael W. Deem and Ramdas Pophale) SiO2 
 PCOD8313399
Probable space group: P 4/M C C
;
_chemical_formula_sum "Si O2"
_cell_formula_units_Z 64
_cell_length_a 14.260507
_cell_length_b 14.260507
_cell_length_c 18.658030
_cell_angle_alpha 90.000000
_cell_angle_beta 90.000000
_cell_angle_gamma 90.000000
_cell_volume 3794.335414
_symmetry_space_group_name_H-M "P 4/M C C"
_symmetry_group_IT_number 124
_symmetry_cell_setting 'tetragonal'
loop_
_space_group_symop_operation_xyz
x,y,z
-y,x,z
-x,-y,z
y,-x,z
x,-y,1/2-z
-x,y,1/2-z
y,x,1/2-z
-y,-x,1/2-z
-x,-y,-z
y,-x,-z
x,y,-z
-y,x,-z
-x,y,1/2+z
x,-y,1/2+z
-y,-x,1/2+z
y,x,1/2+z
loop_
_atom_site_type_symbol
_atom_site_label
_atom_site_fract_x
_atom_site_fract_y
_atom_site_fract_z
Si Si1 0.144350 0.500000 0.914930
Si Si2 0.500000 0.647780 0.414669
Si Si3 0.000000 0.346319 0.415219
Si Si4 0.000000 0.152092 0.666618
O O1 0.248302 0.500000 0.880948
O O2 0.090904 0.594238 0.890187
O O3 0.090904 0.405762 0.890186
O O4 0.148059 0.500000 0.000000
O O5 0.407354 0.592646 0.388223
O O6 0.500000 0.652837 0.500000
O O7 1.000000 0.330440 0.500000
O O8 0.000000 0.246374 0.378332
O O9 0.092237 0.092237 0.646941
O O10 0.000000 0.177639 0.750000
#
# Coordination Sequence:
#
# PCOD8313399 Si02
#       4
#    16  16  16  16
#     4   8  15  27  40  61  95 122 140 176 228 266
#     4   8  13  21  34  53  79 114 150 174 200 252
#     4   9  17  29  46  68  92 117 147 183 222 268
#     4   9  19  35  50  64  88 121 153 189 234 278
#
# _framework density 16.867249000000001
#
# number of rings (size 3 to 8) (size 9 to 14) (size 15 to 20)
#    0.000    3.500    0.000    3.000    0.000    3.000 
#    0.000    8.750    0.000    0.000    0.000    0.000 
#    0.000    0.000    0.000   11.000    0.000    9.000 
#
# Total GULP energy -793152.957715 kJ/mol
# GULP energy per Si atom -12393.014964 kJ/mol
# Density = 1.682886 g / cm^3
# Si number density = 16.867249 Si / 1000 Ang^3
#
#
#
# Elastic Constant Matrix: (Units=GPa)
#
#
# Indices 1 2 3 4 5 6 
#
# 1 179.5641 89.8357 38.0573 0.0000 0.0000 0.0000
# 2 89.8357 179.5641 38.0573 0.0000 0.0000 0.0000
# 3 38.0573 38.0573 28.9511 0.0000 0.0000 0.0000
# 4 0.0000 0.0000 0.0000 16.1396 0.0000 0.0000
# 5 0.0000 0.0000 0.0000 0.0000 16.1396 0.0000
# 6 0.0000 0.0000 0.0000 0.0000 0.0000 14.1122
#
#
#
# Elastic Compliance Matrix: (Units=1/GPa)
#
#
# Indices 1 2 3 4 5 6 
#
# 1 0.008525 -0.002620 -0.007762 0.000000 0.000000 0.000000
# 2 -0.002620 0.008525 -0.007762 0.000000 0.000000 0.000000
# 3 -0.007762 -0.007762 0.054949 0.000000 0.000000 0.000000
# 4 0.000000 0.000000 0.000000 0.061959 0.000000 0.000000
# 5 0.000000 0.000000 0.000000 0.000000 0.061959 0.000000
# 6 0.000000 0.000000 0.000000 0.000000 0.000000 0.070860
#
#
# Mechanical properties :
#
#
# Convention : Reuss Voigt Hill
#
# Bulk Modulus (GPa) = 28.00384 79.99777 54.00080
# Shear Modulus (GPa) = 15.87449 24.08691 19.98070
#
# Velocity S-wave (km/s) = 3.07113 3.78303 3.44551
# Velocity P-wave (km/s) = 5.40503 8.16165 6.92195
#
# Compressibility (1/GPa) = 0.03570939
#
# Stress axis : x y z
#
# Youngs Moduli (GPa) = 117.30298 117.30298 18.19866
#
# Poissons Ratio (x) = 0.30731 0.14127
# Poissons Ratio (y) = 0.30731 0.14127
# Poissons Ratio (z) = 0.91056 0.91056
#
# Static dielectric constant tensor:
#      x y z
#    x 3.441430 0.000000 0.000000 
#    y 0.000000 3.441430 0.000000 
#    z 0.000000 0.000000 2.584930 
# 
# 
# High freq. dielectric constant tensor:
#      x y z
#    x 1.658710 0.000000 0.000000 
#    y 0.000000 1.658710 0.000000 
#    z 0.000000 0.000000 1.591310 
# 
# From -- ./inp_files/2960.got.cif
#   From: 2010.03.12/outbox.cif.g09.slc.cpg/sg124_2_cif.got.tgz:2960.got - 2010.04.06 16:38:57.
