data_PCOD8313709
_publ_section_title
;
Structure prediction by ZEFSAII (Michael W. Deem and Ramdas Pophale) SiO2 
 PCOD8313709
Probable space group: P 4/N N C
;
_chemical_formula_sum "Si O2"
_cell_formula_units_Z 88
_cell_length_a 12.036160
_cell_length_b 12.036160
_cell_length_c 30.986672
_cell_angle_alpha 90.000000
_cell_angle_beta 90.000000
_cell_angle_gamma 90.000000
_cell_volume 4489.012758
_symmetry_space_group_name_H-M "P 4/N N C"
_symmetry_group_IT_number 126
_space_group.IT_coordinate_system_code '2'
_symmetry_cell_setting 'tetragonal'
loop_
_space_group_symop_operation_xyz
x,y,z
1/2-y,x,z
1/2-x,1/2-y,z
y,1/2-x,z
x,1/2-y,1/2-z
1/2-x,y,1/2-z
y,x,1/2-z
1/2-y,1/2-x,1/2-z
-x,-y,-z
1/2+y,-x,-z
1/2+x,1/2+y,-z
-y,1/2+x,-z
-x,1/2+y,1/2+z
1/2+x,-y,1/2+z
-y,-x,1/2+z
1/2+y,1/2+x,1/2+z
loop_
_atom_site_type_symbol
_atom_site_label
_atom_site_fract_x
_atom_site_fract_y
_atom_site_fract_z
Si Si1 0.516084 0.381795 0.374223
Si Si2 0.407152 0.684673 0.481509
Si Si3 0.529646 0.343270 0.165716
Si Si4 0.262813 0.622538 0.885524
Si Si5 0.595198 0.651587 0.539382
Si Si6 0.063392 0.250000 0.250000
O O1 0.503808 0.249119 0.370177
O O2 0.443214 0.441408 0.337026
O O3 0.643214 0.424804 0.370319
O O4 0.467620 0.407139 0.420918
O O5 0.301680 0.608082 0.493206
O O6 0.430745 0.696715 0.430346
O O7 0.519118 0.623764 0.497938
O O8 0.651717 0.393933 0.154674
O O9 0.520800 0.274410 0.210471
O O10 0.250000 0.750000 0.897693
O O11 0.715493 0.599565 0.539530
O O12 0.141393 0.141393 0.250000
#
# Coordination Sequence:
#
# PCOD8313709 Si02
#       6
#    16  16  16  16  16   8
#     4  11  20  36  57  86 120 160 196 240 299 356
#     4  11  19  34  53  75 109 154 203 241 277 332
#     4  11  22  37  62  87 117 157 191 236 301 367
#     4  10  21  37  55  84 119 158 205 242 286 350
#     4  11  23  34  50  82 118 153 200 253 300 348
#     4  11  22  38  63  92 124 147 176 233 310 380
#
# _framework density 19.603418999999999
#
# number of rings (size 3 to 8) (size 9 to 14) (size 15 to 20)
#    0.000    1.182    7.273    1.091    0.000    2.545 
#    0.000    4.091    0.000    0.545    0.000    0.000 
#    0.000    0.000    3.273    0.000    0.000    0.000 
#
# Total GULP energy -1090340.228853 kJ/mol
# GULP energy per Si atom -12390.229873 kJ/mol
# Density = 1.955880 g / cm^3
# Si number density = 19.603419 Si / 1000 Ang^3
#
#
#
# Elastic Constant Matrix: (Units=GPa)
#
#
# Indices 1 2 3 4 5 6 
#
# 1 81.5640 28.0760 31.4253 0.0000 0.0000 0.0000
# 2 28.0760 81.5640 31.4253 0.0000 0.0000 0.0000
# 3 31.4253 31.4253 110.6094 0.0000 0.0000 0.0000
# 4 0.0000 0.0000 0.0000 24.7412 0.0000 0.0000
# 5 0.0000 0.0000 0.0000 0.0000 24.7412 0.0000
# 6 0.0000 0.0000 0.0000 0.0000 0.0000 -2.9561
#
#
#
# Elastic Compliance Matrix: (Units=1/GPa)
#
#
# Indices 1 2 3 4 5 6 
#
# 1 0.014795 -0.003900 -0.003095 0.000000 0.000000 0.000000
# 2 -0.003900 0.014795 -0.003095 0.000000 0.000000 0.000000
# 3 -0.003095 -0.003095 0.010800 0.000000 0.000000 0.000000
# 4 0.000000 0.000000 0.000000 0.040418 0.000000 0.000000
# 5 0.000000 0.000000 0.000000 0.000000 0.040418 0.000000
# 6 0.000000 0.000000 0.000000 0.000000 0.000000 -0.338284
#
#
# Mechanical properties :
#
#
# Convention : Reuss Voigt Hill
#
# Bulk Modulus (GPa) = 49.48448 50.62118 50.05283
# Shear Modulus (GPa) = -26.29671 21.49265 -2.40203
#
# Velocity S-wave (km/s) = -3.66653 3.31474 -1.10814
# Velocity P-wave (km/s) = 2.71532 6.36622 4.89396
#
# Compressibility (1/GPa) = 0.02020836
#
# Stress axis : x y z
#
# Youngs Moduli (GPa) = 67.58817 67.58817 92.59501
#
# Poissons Ratio (x) = 0.26361 0.28662
# Poissons Ratio (y) = 0.26361 0.28662
# Poissons Ratio (z) = 0.20922 0.20922
#
# Static dielectric constant tensor:
#      x y z
#    x 3.593860 0.000000 0.000000 
#    y 0.000000 3.593860 0.000000 
#    z 0.000000 0.000000 3.373620 
# 
# 
# High freq. dielectric constant tensor:
#      x y z
#    x 1.753240 0.000000 0.000000 
#    y 0.000000 1.753240 0.000000 
#    z 0.000000 0.000000 1.744070 
# 
# From -- ./inp_files/6510.got.cif
#   From: 2010.03.12/outbox.cif.g09.slc.cpg/sg126_4_cif.got.tgz:6510.got - 2010.04.06 16:55:23.
