data_PCOD8313148
_publ_section_title
;
Structure prediction by ZEFSAII (Michael W. Deem and Ramdas Pophale) SiO2 
 PCOD8313148
Probable space group: P 4/M C C
;
_chemical_formula_sum "Si O2"
_cell_formula_units_Z 96
_cell_length_a 23.187858
_cell_length_b 23.187858
_cell_length_c 9.156359
_cell_angle_alpha 90.000000
_cell_angle_beta 90.000000
_cell_angle_gamma 90.000000
_cell_volume 4923.161428
_symmetry_space_group_name_H-M "P 4/M C C"
_symmetry_group_IT_number 124
_symmetry_cell_setting 'tetragonal'
loop_
_space_group_symop_operation_xyz
x,y,z
-y,x,z
-x,-y,z
y,-x,z
x,-y,1/2-z
-x,y,1/2-z
y,x,1/2-z
-y,-x,1/2-z
-x,-y,-z
y,-x,-z
x,y,-z
-y,x,-z
-x,y,1/2+z
x,-y,1/2+z
-y,-x,1/2+z
y,x,1/2+z
loop_
_atom_site_type_symbol
_atom_site_label
_atom_site_fract_x
_atom_site_fract_y
_atom_site_fract_z
Si Si1 0.560616 0.818525 0.828280
Si Si2 0.946584 0.126989 0.661165
Si Si3 0.834459 0.243947 0.835833
Si Si4 0.054766 0.262632 0.163604
Si Si5 0.262507 0.660441 0.837998
Si Si6 0.946535 0.438732 0.828515
O O1 0.500000 0.809298 0.750000
O O2 0.604946 0.769978 0.768178
O O3 0.588083 0.882749 0.800610
O O4 0.550480 0.810842 0.000000
O O5 0.888731 0.111270 0.750000
O O6 0.944342 0.099734 0.500000
O O7 0.953088 0.194844 0.650771
O O8 0.000000 0.099953 0.750000
O O9 0.813054 0.186946 0.750000
O O10 0.887116 0.275451 0.753646
O O11 0.782661 0.288239 0.845080
O O12 0.853622 0.225628 0.000000
O O13 0.000000 0.289369 0.250000
O O14 0.058351 0.289611 0.000000
O O15 0.319392 0.680609 0.750000
O O16 0.283959 0.644878 0.000000
O O17 0.944587 0.500000 0.750000
O O18 0.000000 0.403898 0.750000
O O19 0.959562 0.444603 0.000000
#
# Coordination Sequence:
#
# PCOD8313148 Si02
#       6
#    16  16  16  16  16  16
#     4   9  18  32  50  74 105 139 176 218 263 310
#     4  10  20  32  45  60  78 100 128 165 212 268
#     4  10  19  32  51  71  93 123 159 199 243 292
#     4  10  20  33  49  68  90 115 146 188 237 289
#     4   9  19  35  53  75 104 136 171 213 256 299
#     4   9  15  24  40  62  91 127 167 211 256 302
#
# _framework density 19.499666000000001
#
# number of rings (size 3 to 8) (size 9 to 14) (size 15 to 20)
#    0.000    2.500    0.000    3.000    0.000    5.500 
#    0.000    1.667    0.000    2.000    0.000    0.000 
#    0.000    0.333    0.000    3.667    0.000    2.667 
#
# Total GULP energy -1189567.034655 kJ/mol
# GULP energy per Si atom -12391.323278 kJ/mol
# Density = 1.945528 g / cm^3
# Si number density = 19.499666 Si / 1000 Ang^3
#
#
#
# Elastic Constant Matrix: (Units=GPa)
#
#
# Indices 1 2 3 4 5 6 
#
# 1 68.8164 31.7946 32.3604 0.0000 0.0000 0.0000
# 2 31.7946 68.8187 32.3630 0.0000 0.0000 0.0000
# 3 32.3604 32.3630 131.7342 0.0000 0.0000 0.0000
# 4 0.0000 0.0000 0.0000 20.6167 0.0000 0.0000
# 5 0.0000 0.0000 0.0000 0.0000 20.6165 0.0000
# 6 0.0000 0.0000 0.0000 0.0000 0.0000 10.7586
#
#
#
# Elastic Compliance Matrix: (Units=1/GPa)
#
#
# Indices 1 2 3 4 5 6 
#
# 1 0.019408 -0.007603 -0.002900 0.000000 0.000000 0.000000
# 2 -0.007603 0.019407 -0.002900 0.000000 0.000000 0.000000
# 3 -0.002900 -0.002900 0.009016 0.000000 0.000000 0.000000
# 4 0.000000 0.000000 0.000000 0.048504 0.000000 0.000000
# 5 0.000000 0.000000 0.000000 0.000000 0.048505 0.000000
# 6 0.000000 0.000000 0.000000 0.000000 0.000000 0.092949
#
#
# Mechanical properties :
#
#
# Convention : Reuss Voigt Hill
#
# Bulk Modulus (GPa) = 47.56135 51.37835 49.46985
# Shear Modulus (GPa) = 18.40925 21.92179 20.16552
#
# Velocity S-wave (km/s) = 3.07592 3.35657 3.21930
# Velocity P-wave (km/s) = 6.08760 6.43643 6.26444
#
# Compressibility (1/GPa) = 0.02102548
#
# Stress axis : x y z
#
# Youngs Moduli (GPa) = 51.52616 51.52699 110.91603
#
# Poissons Ratio (x) = 0.39175 0.32162
# Poissons Ratio (y) = 0.39174 0.32167
# Poissons Ratio (z) = 0.14941 0.14944
#
# Static dielectric constant tensor:
#      x y z
#    x 3.457980 0.000000 0.000000 
#    y 0.000000 3.457980 0.000000 
#    z 0.000000 0.000000 2.525820 
# 
# 
# High freq. dielectric constant tensor:
#      x y z
#    x 1.729840 0.000000 0.000000 
#    y 0.000000 1.729840 0.000000 
#    z 0.000000 0.000000 1.771400 
# 
# From -- ./inp_files/1400.got.cif
#   From: 2010.03.12/outbox.cif.g09.slc.cpg/sg124_1_cif.got.tgz:1400.got - 2010.04.06 16:38:57.
