data_PCOD8313244
_publ_section_title
;
Structure prediction by ZEFSAII (Michael W. Deem and Ramdas Pophale) SiO2 
 PCOD8313244
Probable space group: P 4/M C C
;
_chemical_formula_sum "Si O2"
_cell_formula_units_Z 96
_cell_length_a 24.060790
_cell_length_b 24.060790
_cell_length_c 8.714803
_cell_angle_alpha 90.000000
_cell_angle_beta 90.000000
_cell_angle_gamma 90.000000
_cell_volume 5045.187831
_symmetry_space_group_name_H-M "P 4/M C C"
_symmetry_group_IT_number 124
_symmetry_cell_setting 'tetragonal'
loop_
_space_group_symop_operation_xyz
x,y,z
-y,x,z
-x,-y,z
y,-x,z
x,-y,1/2-z
-x,y,1/2-z
y,x,1/2-z
-y,-x,1/2-z
-x,-y,-z
y,-x,-z
x,y,-z
-y,x,-z
-x,y,1/2+z
x,-y,1/2+z
-y,-x,1/2+z
y,x,1/2+z
loop_
_atom_site_type_symbol
_atom_site_label
_atom_site_fract_x
_atom_site_fract_y
_atom_site_fract_z
Si Si1 0.556974 0.940397 0.318959
Si Si2 0.848421 0.766505 0.679490
Si Si3 0.851436 0.353352 0.322373
Si Si4 0.557133 0.641021 0.181348
Si Si5 0.144670 0.060999 0.181880
Si Si6 0.239047 0.556081 0.680811
O O1 0.500000 0.915436 0.250000
O O2 0.549371 0.943640 0.500000
O O3 0.609150 0.903236 0.272046
O O4 0.569691 0.000000 0.250000
O O5 0.792773 0.792773 0.750000
O O6 0.841494 0.770114 0.500000
O O7 0.853506 0.702699 0.726303
O O8 0.902751 0.801444 0.731849
O O9 0.854342 0.337079 0.500000
O O10 0.796969 0.389365 0.285972
O O11 0.500000 0.616713 0.250000
O O12 0.608135 0.608135 0.250000
O O13 0.565791 0.704086 0.230774
O O14 0.555917 0.635597 0.000000
O O15 0.089195 0.089195 0.250000
O O16 0.152482 0.000000 0.250000
O O17 0.138505 0.057211 0.000000
O O18 0.210673 0.500000 0.750000
O O19 0.248901 0.547477 0.500000
#
# Coordination Sequence:
#
# PCOD8313244 Si02
#       6
#    16  16  16  16  16  16
#     4  10  20  35  54  79 111 147 183 227 276 325
#     4  10  22  39  59  81 110 146 184 226 275 323
#     4  10  22  37  56  81 110 144 186 229 273 327
#     4  11  22  38  58  82 110 142 178 220 269 325
#     4  10  21  38  60  87 116 149 185 226 272 322
#     4  10  20  36  56  80 108 141 179 225 277 327
#
# _framework density 19.028033000000001
#
# number of rings (size 3 to 8) (size 9 to 14) (size 15 to 20)
#    0.000    1.833    0.000    5.500    0.000    6.333 
#    0.000    5.000    0.000    0.000    0.000    0.000 
#    0.000    0.000    0.000    0.000    0.000    0.000 
#
# Total GULP energy -1190510.348174 kJ/mol
# GULP energy per Si atom -12401.149460 kJ/mol
# Density = 1.898472 g / cm^3
# Si number density = 19.028033 Si / 1000 Ang^3
#
#
#
# Elastic Constant Matrix: (Units=GPa)
#
#
# Indices 1 2 3 4 5 6 
#
# 1 118.9916 64.1487 52.2514 0.0000 0.0000 0.0000
# 2 64.1487 118.9916 52.2514 0.0000 0.0000 0.0000
# 3 52.2514 52.2514 115.7475 0.0000 0.0000 0.0000
# 4 0.0000 0.0000 0.0000 32.8391 0.0000 0.0000
# 5 0.0000 0.0000 0.0000 0.0000 32.8391 0.0000
# 6 0.0000 0.0000 0.0000 0.0000 0.0000 18.8442
#
#
#
# Elastic Compliance Matrix: (Units=1/GPa)
#
#
# Indices 1 2 3 4 5 6 
#
# 1 0.012794 -0.005440 -0.003320 0.000000 0.000000 0.000000
# 2 -0.005440 0.012794 -0.003320 0.000000 0.000000 0.000000
# 3 -0.003320 -0.003320 0.011637 0.000000 0.000000 0.000000
# 4 0.000000 0.000000 0.000000 0.030452 0.000000 0.000000
# 5 0.000000 0.000000 0.000000 0.000000 0.030452 0.000000
# 6 0.000000 0.000000 0.000000 0.000000 0.000000 0.053067
#
#
# Mechanical properties :
#
#
# Convention : Reuss Voigt Hill
#
# Bulk Modulus (GPa) = 76.53374 76.78150 76.65762
# Shear Modulus (GPa) = 27.82249 29.24308 28.53279
#
# Velocity S-wave (km/s) = 3.82800 3.92451 3.87656
# Velocity P-wave (km/s) = 7.73608 7.80865 7.77245
#
# Compressibility (1/GPa) = 0.01306613
#
# Stress axis : x y z
#
# Youngs Moduli (GPa) = 78.15935 78.15935 85.93202
#
# Poissons Ratio (x) = 0.42515 0.28531
# Poissons Ratio (y) = 0.42515 0.28531
# Poissons Ratio (z) = 0.25950 0.25950
#
# Static dielectric constant tensor:
#      x y z
#    x 4.656900 0.000000 0.000000 
#    y 0.000000 4.656900 0.000000 
#    z 0.000000 0.000000 3.590170 
# 
# 
# High freq. dielectric constant tensor:
#      x y z
#    x 1.743920 0.000000 0.000000 
#    y 0.000000 1.743920 0.000000 
#    z 0.000000 0.000000 1.754310 
# 
# From -- ./inp_files/1392.got.cif
#   From: 2010.03.12/outbox.cif.g09.slc.cpg/sg124_1_cif.got.tgz:1392.got - 2010.04.06 16:38:57.
