data_PCOD8313882
_publ_section_title
;
Structure prediction by ZEFSAII (Michael W. Deem and Ramdas Pophale) SiO2 
 PCOD8313882
Probable space group: P 4/M B M
;
_chemical_formula_sum "Si O2"
_cell_formula_units_Z 96
_cell_length_a 25.800596
_cell_length_b 25.800596
_cell_length_c 7.771322
_cell_angle_alpha 90.000000
_cell_angle_beta 90.000000
_cell_angle_gamma 90.000000
_cell_volume 5173.141775
_symmetry_space_group_name_H-M "P 4/M B M"
_symmetry_group_IT_number 127
_symmetry_cell_setting 'tetragonal'
loop_
_space_group_symop_operation_xyz
x,y,z
-y,x,z
-x,-y,z
y,-x,z
1/2+x,1/2-y,-z
1/2-x,1/2+y,-z
1/2+y,1/2+x,-z
1/2-y,1/2-x,-z
-x,-y,-z
y,-x,-z
x,y,-z
-y,x,-z
1/2-x,1/2+y,z
1/2+x,1/2-y,z
1/2-y,1/2-x,z
1/2+y,1/2+x,z
loop_
_atom_site_type_symbol
_atom_site_label
_atom_site_fract_x
_atom_site_fract_y
_atom_site_fract_z
Si Si1 0.552444 0.348336 0.500000
Si Si2 0.068432 0.863395 0.500000
Si Si3 0.046882 0.229755 0.798691
Si Si4 0.707050 0.428879 0.188179
Si Si5 0.192064 0.610297 0.697969
Si Si6 0.076969 0.343178 0.801849
Si Si7 0.391375 0.027932 0.296516
O O1 0.493345 0.367585 0.500000
O O2 0.581862 0.402936 0.500000
O O3 0.567552 0.315381 0.328549
O O4 0.087505 0.834602 0.671275
O O5 0.067978 0.285305 0.726753
O O6 0.985249 0.231223 0.775866
O O7 0.062077 0.219048 0.000000
O O8 0.755117 0.389352 0.194212
O O9 0.680652 0.426049 0.000000
O O10 0.205410 0.598517 0.500000
O O11 0.166647 0.666647 0.719660
O O12 0.153284 0.566562 0.769616
O O13 0.127127 0.372874 0.718946
O O14 0.028127 0.381644 0.783236
O O15 0.087953 0.334748 0.000000
O O16 0.388929 0.023106 0.500000
O O17 0.447282 0.052719 0.242047
#
# Coordination Sequence:
#
# PCOD8313882 Si02
#       7
#     8   8  16  16  16  16  16
#     4  10  22  39  65  87 115 141 162 199 260 317
#     4  10  22  39  59  91 115 138 167 202 249 320
#     4   9  19  35  55  80 108 142 186 228 263 308
#     4  10  18  31  55  81 108 143 186 225 260 311
#     4   9  16  27  46  72 105 142 181 232 281 316
#     4  10  20  32  47  69 100 141 190 240 279 314
#     4   9  18  29  43  66 100 142 184 233 287 328
#
# _framework density 18.557386999999999
#
# number of rings (size 3 to 8) (size 9 to 14) (size 15 to 20)
#    0.000    2.500    2.500    1.000    1.167    2.167 
#    0.000    3.333    0.000    2.000    0.000    7.000 
#    0.000    0.000    0.000    0.000    0.000    0.000 
#
# Total GULP energy -1189633.498697 kJ/mol
# GULP energy per Si atom -12392.015611 kJ/mol
# Density = 1.851515 g / cm^3
# Si number density = 18.557387 Si / 1000 Ang^3
#
#
#
# Elastic Constant Matrix: (Units=GPa)
#
#
# Indices 1 2 3 4 5 6 
#
# 1 80.4101 52.4743 33.4586 0.0000 0.0000 0.0000
# 2 52.4743 80.4101 33.4586 0.0000 0.0000 0.0000
# 3 33.4586 33.4586 81.9489 0.0000 0.0000 0.0000
# 4 0.0000 0.0000 0.0000 14.7259 0.0000 0.0000
# 5 0.0000 0.0000 0.0000 0.0000 14.7259 0.0000
# 6 0.0000 0.0000 0.0000 0.0000 0.0000 25.3909
#
#
#
# Elastic Compliance Matrix: (Units=1/GPa)
#
#
# Indices 1 2 3 4 5 6 
#
# 1 0.022635 -0.013162 -0.003868 0.000000 0.000000 0.000000
# 2 -0.013162 0.022635 -0.003868 0.000000 0.000000 0.000000
# 3 -0.003868 -0.003868 0.015361 0.000000 0.000000 0.000000
# 4 0.000000 0.000000 0.000000 0.067908 0.000000 0.000000
# 5 0.000000 0.000000 0.000000 0.000000 0.067908 0.000000
# 6 0.000000 0.000000 0.000000 0.000000 0.000000 0.039384
#
#
# Mechanical properties :
#
#
# Convention : Reuss Voigt Hill
#
# Bulk Modulus (GPa) = 53.08923 53.50578 53.29750
# Shear Modulus (GPa) = 17.61169 19.19372 18.40270
#
# Velocity S-wave (km/s) = 3.08399 3.21953 3.15249
# Velocity P-wave (km/s) = 6.43052 6.53572 6.48333
#
# Compressibility (1/GPa) = 0.01883621
#
# Stress axis : x y z
#
# Youngs Moduli (GPa) = 44.18007 44.18007 65.09997
#
# Poissons Ratio (x) = 0.58148 0.25179
# Poissons Ratio (y) = 0.58148 0.25179
# Poissons Ratio (z) = 0.17088 0.17088
#
# Static dielectric constant tensor:
#      x y z
#    x 3.221730 0.000000 0.000000 
#    y 0.000000 3.221730 0.000000 
#    z 0.000000 0.000000 3.431310 
# 
# 
# High freq. dielectric constant tensor:
#      x y z
#    x 1.691390 0.000000 0.000000 
#    y 0.000000 1.691390 0.000000 
#    z 0.000000 0.000000 1.721900 
# 
# From -- ./inp_files/2047.got.cif
#   From: 2010.03.12/outbox.cif.g09.slc.cpg/sg127_2_cif.got.tgz:2047.got - 2010.04.06 17:03:15.
