data_PCOD8313926
_publ_section_title
;
Structure prediction by ZEFSAII (Michael W. Deem and Ramdas Pophale) SiO2 
 PCOD8313926
Probable space group: P 4/M B M
;
_chemical_formula_sum "Si O2"
_cell_formula_units_Z 80
_cell_length_a 17.614056
_cell_length_b 17.614056
_cell_length_c 14.409077
_cell_angle_alpha 90.000000
_cell_angle_beta 90.000000
_cell_angle_gamma 90.000000
_cell_volume 4470.487735
_symmetry_space_group_name_H-M "P 4/M B M"
_symmetry_group_IT_number 127
_symmetry_cell_setting 'tetragonal'
loop_
_space_group_symop_operation_xyz
x,y,z
-y,x,z
-x,-y,z
y,-x,z
1/2+x,1/2-y,-z
1/2-x,1/2+y,-z
1/2+y,1/2+x,-z
1/2-y,1/2-x,-z
-x,-y,-z
y,-x,-z
x,y,-z
-y,x,-z
1/2-x,1/2+y,z
1/2+x,1/2-y,z
1/2-y,1/2-x,z
1/2+y,1/2+x,z
loop_
_atom_site_type_symbol
_atom_site_label
_atom_site_fract_x
_atom_site_fract_y
_atom_site_fract_z
Si Si1 0.922251 0.911123 0.109309
Si Si2 0.922622 0.700161 0.287174
Si Si3 0.677946 0.305127 0.397525
Si Si4 0.923652 0.297974 0.392743
Si Si5 0.746830 0.633500 0.105652
O O1 0.865367 0.842119 0.134636
O O2 0.007708 0.893294 0.148756
O O3 0.927723 0.917962 0.000000
O O4 0.871591 0.628410 0.318653
O O5 0.887210 0.778840 0.326835
O O6 0.922955 0.708045 0.174990
O O7 0.006287 0.688087 0.324793
O O8 0.641287 0.312831 0.500000
O O9 0.744600 0.244600 0.400930
O O10 0.716767 0.384918 0.368079
O O11 0.950311 0.298219 0.500000
O O12 0.866240 0.366240 0.373903
O O13 0.781226 0.718775 0.116839
O O14 0.757972 0.603786 0.000000
#
# Coordination Sequence:
#
# PCOD8313926 Si02
#       5
#    16  16  16  16  16
#     4   8  14  26  45  67  89 114 147 192 244 287
#     4  10  19  30  48  71  93 123 161 197 234 279
#     4   8  15  29  47  67  93 123 151 180 224 284
#     4   9  18  32  50  73  99 123 150 192 241 285
#     4   9  18  31  45  64  93 127 162 199 237 280
#
# _framework density 17.895140000000001
#
# number of rings (size 3 to 8) (size 9 to 14) (size 15 to 20)
#    0.000    3.200    0.000    2.400    0.000    3.200 
#    0.000    1.000    0.000    1.200    0.000    5.600 
#    0.000    0.000    0.000    0.000    0.000    0.000 
#
# Total GULP energy -991077.564032 kJ/mol
# GULP energy per Si atom -12388.469550 kJ/mol
# Density = 1.785441 g / cm^3
# Si number density = 17.895140 Si / 1000 Ang^3
#
#
#
# Elastic Constant Matrix: (Units=GPa)
#
#
# Indices 1 2 3 4 5 6 
#
# 1 86.0080 45.1052 33.2919 0.0000 0.0000 0.0000
# 2 45.1052 86.0080 33.2919 0.0000 0.0000 0.0000
# 3 33.2919 33.2919 74.5051 0.0000 0.0000 0.0000
# 4 0.0000 0.0000 0.0000 18.8405 0.0000 0.0000
# 5 0.0000 0.0000 0.0000 0.0000 18.8405 0.0000
# 6 0.0000 0.0000 0.0000 0.0000 0.0000 22.8451
#
#
#
# Elastic Compliance Matrix: (Units=1/GPa)
#
#
# Indices 1 2 3 4 5 6 
#
# 1 0.017157 -0.007291 -0.004408 0.000000 0.000000 0.000000
# 2 -0.007291 0.017157 -0.004408 0.000000 0.000000 0.000000
# 3 -0.004408 -0.004408 0.017362 0.000000 0.000000 0.000000
# 4 0.000000 0.000000 0.000000 0.053077 0.000000 0.000000
# 5 0.000000 0.000000 0.000000 0.000000 0.053077 0.000000
# 6 0.000000 0.000000 0.000000 0.000000 0.000000 0.043773
#
#
# Mechanical properties :
#
#
# Convention : Reuss Voigt Hill
#
# Bulk Modulus (GPa) = 51.38894 52.21102 51.79998
# Shear Modulus (GPa) = 20.80686 21.09404 20.95045
#
# Velocity S-wave (km/s) = 3.41355 3.43703 3.42531
# Velocity P-wave (km/s) = 6.65699 6.70748 6.68228
#
# Compressibility (1/GPa) = 0.01945944
#
# Stress axis : x y z
#
# Youngs Moduli (GPa) = 58.28528 58.28528 57.59836
#
# Poissons Ratio (x) = 0.42497 0.25392
# Poissons Ratio (y) = 0.42497 0.25392
# Poissons Ratio (z) = 0.25695 0.25695
#
# Static dielectric constant tensor:
#      x y z
#    x 3.295800 0.000000 0.000000 
#    y 0.000000 3.295800 0.000000 
#    z 0.000000 0.000000 3.295750 
# 
# 
# High freq. dielectric constant tensor:
#      x y z
#    x 1.673290 0.000000 0.000000 
#    y 0.000000 1.673290 0.000000 
#    z 0.000000 0.000000 1.684930 
# 
# From -- ./inp_files/4223.got.cif
#   From: 2010.03.12/outbox.cif.g09.slc.cpg/sg127_3_cif.got.tgz:4223.got - 2010.04.06 17:03:15.
