data_PCOD8313588
_publ_section_title
;
Structure prediction by ZEFSAII (Michael W. Deem and Ramdas Pophale) SiO2 
 PCOD8313588
Probable space group: P 4/N B M
;
_chemical_formula_sum "Si O2"
_cell_formula_units_Z 56
_cell_length_a 13.454098
_cell_length_b 13.454098
_cell_length_c 16.051067
_cell_angle_alpha 90.000000
_cell_angle_beta 90.000000
_cell_angle_gamma 90.000000
_cell_volume 2905.447826
_symmetry_space_group_name_H-M "P 4/N B M"
_symmetry_group_IT_number 125
_space_group.IT_coordinate_system_code '2'
_symmetry_cell_setting 'tetragonal'
loop_
_space_group_symop_operation_xyz
x,y,z
1/2-y,x,z
1/2-x,1/2-y,z
y,1/2-x,z
x,1/2-y,-z
1/2-x,y,-z
y,x,-z
1/2-y,1/2-x,-z
-x,-y,-z
1/2+y,-x,-z
1/2+x,1/2+y,-z
-y,1/2+x,-z
-x,1/2+y,z
1/2+x,-y,z
-y,-x,z
1/2+y,1/2+x,z
loop_
_atom_site_type_symbol
_atom_site_label
_atom_site_fract_x
_atom_site_fract_y
_atom_site_fract_z
Si Si1 0.631008 0.975475 0.833490
Si Si2 0.493717 0.668928 0.250008
Si Si3 0.365822 0.134179 0.000000
Si Si4 0.241696 0.086176 0.407929
O O1 0.584581 0.908655 0.759256
O O2 0.584956 0.084956 0.832165
O O3 0.748541 0.991152 0.822151
O O4 0.595582 0.921483 0.918156
O O5 0.387853 0.612148 0.241641
O O6 0.500027 0.725620 0.339167
O O7 0.388554 0.250000 0.000000
O O8 0.341964 0.147753 0.396339
O O9 0.250000 0.037272 0.500000
#
# Coordination Sequence:
#
# PCOD8313588 Si02
#       4
#    16  16   8  16
#     4  11  23  39  60  86 120 159 199 248 303 367
#     4  11  22  37  60  89 120 160 203 249 307 368
#     4  11  21  36  62  92 117 149 194 254 306 346
#     4   9  17  32  57  86 116 149 199 258 309 353
#
# _framework density 19.274138000000001
#
# number of rings (size 3 to 8) (size 9 to 14) (size 15 to 20)
#    0.000    1.571    5.714    1.286    0.000    1.143 
#    0.000    4.286    0.000    0.000    0.000    0.000 
#    0.000    0.000    0.000    0.000    0.000    0.000 
#
# Total GULP energy -693962.643561 kJ/mol
# GULP energy per Si atom -12392.190064 kJ/mol
# Density = 1.923027 g / cm^3
# Si number density = 19.274138 Si / 1000 Ang^3
#
#
#
# Elastic Constant Matrix: (Units=GPa)
#
#
# Indices 1 2 3 4 5 6 
#
# 1 82.7686 46.5853 29.9678 0.0000 0.0000 0.0000
# 2 46.5853 82.7695 29.9678 0.0000 0.0000 0.0000
# 3 29.9678 29.9678 120.2086 0.0000 0.0000 0.0000
# 4 0.0000 0.0000 0.0000 22.0232 0.0000 0.0000
# 5 0.0000 0.0000 0.0000 0.0000 22.0228 0.0000
# 6 0.0000 0.0000 0.0000 0.0000 0.0000 29.4738
#
#
#
# Elastic Compliance Matrix: (Units=1/GPa)
#
#
# Indices 1 2 3 4 5 6 
#
# 1 0.018189 -0.009448 -0.002179 0.000000 0.000000 0.000000
# 2 -0.009448 0.018188 -0.002179 0.000000 0.000000 0.000000
# 3 -0.002179 -0.002179 0.009405 0.000000 0.000000 0.000000
# 4 0.000000 0.000000 0.000000 0.045407 0.000000 0.000000
# 5 0.000000 0.000000 0.000000 0.000000 0.045407 0.000000
# 6 0.000000 0.000000 0.000000 0.000000 0.000000 0.033928
#
#
# Mechanical properties :
#
#
# Convention : Reuss Voigt Hill
#
# Bulk Modulus (GPa) = 55.03538 55.42092 55.22815
# Shear Modulus (GPa) = 24.48655 26.65236 25.56945
#
# Velocity S-wave (km/s) = 3.56818 3.72264 3.64623
# Velocity P-wave (km/s) = 6.75218 6.87705 6.81490
#
# Compressibility (1/GPa) = 0.01817013
#
# Stress axis : x y z
#
# Youngs Moduli (GPa) = 54.97945 54.98008 106.32323
#
# Poissons Ratio (x) = 0.51946 0.23167
# Poissons Ratio (y) = 0.51946 0.23167
# Poissons Ratio (z) = 0.11980 0.11980
#
# Static dielectric constant tensor:
#      x y z
#    x 3.229950 0.000000 0.000000 
#    y 0.000000 3.229930 0.000000 
#    z 0.000000 0.000000 3.693580 
# 
# 
# High freq. dielectric constant tensor:
#      x y z
#    x 1.725630 0.000000 0.000000 
#    y 0.000000 1.725630 0.000000 
#    z 0.000000 0.000000 1.761130 
# 
# From -- ./inp_files/4537.got.cif
#   From: 2010.03.12/outbox.cif.g09.slc.cpg/sg125_3_cif.got.tgz:4537.got - 2010.04.06 16:47:52.
