data_PCOD8313614
_publ_section_title
;
Structure prediction by ZEFSAII (Michael W. Deem and Ramdas Pophale) SiO2 
 PCOD8313614
Probable space group: P 4/N B M
;
_chemical_formula_sum "Si O2"
_cell_formula_units_Z 88
_cell_length_a 14.455969
_cell_length_b 14.455969
_cell_length_c 21.244270
_cell_angle_alpha 90.000000
_cell_angle_beta 90.000000
_cell_angle_gamma 90.000000
_cell_volume 4439.522167
_symmetry_space_group_name_H-M "P 4/N B M"
_symmetry_group_IT_number 125
_space_group.IT_coordinate_system_code '2'
_symmetry_cell_setting 'tetragonal'
loop_
_space_group_symop_operation_xyz
x,y,z
1/2-y,x,z
1/2-x,1/2-y,z
y,1/2-x,z
x,1/2-y,-z
1/2-x,y,-z
y,x,-z
1/2-y,1/2-x,-z
-x,-y,-z
1/2+y,-x,-z
1/2+x,1/2+y,-z
-y,1/2+x,-z
-x,1/2+y,z
1/2+x,-y,z
-y,-x,z
1/2+y,1/2+x,z
loop_
_atom_site_type_symbol
_atom_site_label
_atom_site_fract_x
_atom_site_fract_y
_atom_site_fract_z
Si Si1 0.358789 0.141212 0.000000
Si Si2 0.173666 0.826335 0.639095
Si Si3 0.428190 0.079555 0.868137
Si Si4 0.826402 0.173599 0.224469
Si Si5 0.898378 0.711192 0.668200
Si Si6 0.798270 0.455722 0.435382
Si Si7 0.484925 0.243763 0.198906
O O1 0.378752 0.250000 0.000000
O O2 0.399247 0.086337 0.059026
O O3 0.250000 0.750000 0.649613
O O4 0.138660 0.861341 0.706777
O O5 0.089666 0.785893 0.600990
O O6 0.419679 0.173161 0.825928
O O7 0.343311 0.016504 0.846862
O O8 0.524754 0.024754 0.857805
O O9 0.750000 0.250000 0.232057
O O10 0.912695 0.217086 0.189264
O O11 0.861451 0.815345 0.666906
O O12 0.960640 0.706746 0.731139
O O13 0.955931 0.676737 0.607084
O O14 0.750000 0.487771 0.500000
O O15 0.886488 0.386488 0.444908
#
# Coordination Sequence:
#
# PCOD8313614 Si02
#       7
#     8   8  16   8  16  16  16
#     4  11  23  42  70  96 127 177 228 272 324 392
#     4   9  18  32  60  88 121 159 195 259 318 372
#     4  12  25  42  67  99 137 174 220 275 331 392
#     4  11  22  40  62  98 136 169 212 266 336 406
#     4  11  25  44  64  90 130 173 213 266 327 389
#     4  11  22  40  65  95 123 163 216 265 326 389
#     4  12  23  40  68  98 129 175 218 266 333 395
#
# _framework density 19.821952
#
# number of rings (size 3 to 8) (size 9 to 14) (size 15 to 20)
#    0.000    0.818    7.273    0.818    0.000    1.818 
#    3.273    1.818    0.000    0.000    0.000    1.273 
#    0.000    0.000    0.000    0.000    0.000    0.000 
#
# Total GULP energy -1090868.716280 kJ/mol
# GULP energy per Si atom -12396.235412 kJ/mol
# Density = 1.977684 g / cm^3
# Si number density = 19.821952 Si / 1000 Ang^3
#
#
#
# Elastic Constant Matrix: (Units=GPa)
#
#
# Indices 1 2 3 4 5 6 
#
# 1 76.6753 19.8323 34.0431 0.0000 0.0000 0.0000
# 2 19.8323 76.6757 34.0431 0.0000 0.0000 0.0000
# 3 34.0431 34.0431 123.2410 0.0000 0.0000 0.0000
# 4 0.0000 0.0000 0.0000 18.6845 0.0000 0.0000
# 5 0.0000 0.0000 0.0000 0.0000 18.6500 0.0000
# 6 0.0000 0.0000 0.0000 0.0000 0.0000 22.9828
#
#
#
# Elastic Compliance Matrix: (Units=1/GPa)
#
#
# Indices 1 2 3 4 5 6 
#
# 1 0.015231 -0.002361 -0.003555 0.000000 0.000000 0.000000
# 2 -0.002361 0.015231 -0.003555 0.000000 0.000000 0.000000
# 3 -0.003555 -0.003555 0.010078 0.000000 0.000000 0.000000
# 4 0.000000 0.000000 0.000000 0.053520 0.000000 0.000000
# 5 0.000000 0.000000 0.000000 0.000000 0.053619 0.000000
# 6 0.000000 0.000000 0.000000 0.000000 0.000000 0.043511
#
#
# Mechanical properties :
#
#
# Convention : Reuss Voigt Hill
#
# Bulk Modulus (GPa) = 46.30101 50.26989 48.28545
# Shear Modulus (GPa) = 23.00619 24.64169 23.82394
#
# Velocity S-wave (km/s) = 3.41052 3.52966 3.47060
# Velocity P-wave (km/s) = 6.23843 6.48283 6.36180
#
# Compressibility (1/GPa) = 0.02159780
#
# Stress axis : x y z
#
# Youngs Moduli (GPa) = 65.65486 65.65531 99.22360
#
# Poissons Ratio (x) = 0.15502 0.35275
# Poissons Ratio (y) = 0.15502 0.35275
# Poissons Ratio (z) = 0.23341 0.23341
#
# Static dielectric constant tensor:
#      x y z
#    x 3.231190 0.000000 0.000000 
#    y 0.000000 3.231280 0.000000 
#    z 0.000000 0.000000 3.731760 
# 
# 
# High freq. dielectric constant tensor:
#      x y z
#    x 1.771520 0.000000 0.000000 
#    y 0.000000 1.771520 0.000000 
#    z 0.000000 0.000000 1.779000 
# 
# From -- ./inp_files/5877.got.cif
#   From: 2010.03.12/outbox.cif.g09.slc.cpg/sg125_3_cif.got.tgz:5877.got - 2010.04.06 16:47:52.
