data_PCOD8313846
_publ_section_title
;
Structure prediction by ZEFSAII (Michael W. Deem and Ramdas Pophale) SiO2 
 PCOD8313846
Probable space group: P 4/M B M
;
_chemical_formula_sum "Si O2"
_cell_formula_units_Z 120
_cell_length_a 24.030809
_cell_length_b 24.030809
_cell_length_c 14.272321
_cell_angle_alpha 90.000000
_cell_angle_beta 90.000000
_cell_angle_gamma 90.000000
_cell_volume 8241.976808
_symmetry_space_group_name_H-M "P 4/M B M"
_symmetry_group_IT_number 127
_symmetry_cell_setting 'tetragonal'
loop_
_space_group_symop_operation_xyz
x,y,z
-y,x,z
-x,-y,z
y,-x,z
1/2+x,1/2-y,-z
1/2-x,1/2+y,-z
1/2+y,1/2+x,-z
1/2-y,1/2-x,-z
-x,-y,-z
y,-x,-z
x,y,-z
-y,x,-z
1/2-x,1/2+y,z
1/2+x,1/2-y,z
1/2-y,1/2-x,z
1/2+y,1/2+x,z
loop_
_atom_site_type_symbol
_atom_site_label
_atom_site_fract_x
_atom_site_fract_y
_atom_site_fract_z
Si Si1 0.435308 0.745133 0.110324
Si Si2 0.169676 0.526639 0.110373
Si Si3 0.638140 0.542724 0.793953
Si Si4 0.545016 0.954985 0.111805
Si Si5 0.621202 0.437957 0.105060
Si Si6 0.310803 0.721703 0.889671
Si Si7 0.913146 0.029511 0.396059
Si Si8 0.608688 0.738176 0.894980
O O1 0.465275 0.804336 0.131616
O O2 0.467544 0.701198 0.175333
O O3 0.371454 0.741730 0.145199
O O4 0.441017 0.730228 0.000000
O O5 0.106792 0.529480 0.150416
O O6 0.208870 0.576747 0.152688
O O7 0.167926 0.535859 0.000000
O O8 0.601684 0.491502 0.835240
O O9 0.617248 0.598922 0.843780
O O10 0.632719 0.545494 0.681464
O O11 0.500000 0.000000 0.150092
O O12 0.544136 0.955865 0.000000
O O13 0.687858 0.435141 0.102495
O O14 0.596895 0.441385 0.000000
O O15 0.271673 0.771673 0.860148
O O16 0.283979 0.665327 0.843909
O O17 0.314795 0.711466 0.000000
O O18 0.887489 0.038172 0.500000
O O19 0.965837 0.069281 0.382828
O O20 0.625226 0.756315 0.000000
#
# Coordination Sequence:
#
# PCOD8313846 Si02
#       8
#    16  16  16   8  16  16  16  16
#     4  10  18  28  40  58  85 112 137 170 216 266
#     4   9  17  27  40  54  73 104 138 174 218 252
#     4  12  19  28  41  58  79 112 144 180 220 257
#     4   9  18  30  42  58  76 102 151 201 219 238
#     4  11  20  27  37  55  85 114 141 174 210 257
#     4   9  17  26  37  53  74 103 138 168 195 236
#     4   9  18  32  43  52  70 102 149 194 224 250
#     4   9  16  26  37  52  74 105 136 168 203 244
#
# _framework density 14.559614
#
# number of rings (size 3 to 8) (size 9 to 14) (size 15 to 20)
#    0.000    2.200    4.000    1.600    0.933    0.800 
#    0.000    3.333    0.000    0.000    0.000    0.000 
#    0.000    0.533    0.000    0.600    3.467    0.733 
#
# Total GULP energy -1486642.200972 kJ/mol
# GULP energy per Si atom -12388.685008 kJ/mol
# Density = 1.452648 g / cm^3
# Si number density = 14.559614 Si / 1000 Ang^3
#
#
#
# Elastic Constant Matrix: (Units=GPa)
#
#
# Indices 1 2 3 4 5 6 
#
# 1 94.3259 44.2248 17.7574 0.0000 0.0000 0.0000
# 2 44.2248 94.3260 17.7574 0.0000 0.0000 0.0000
# 3 17.7574 17.7574 61.1042 0.0000 0.0000 0.0000
# 4 0.0000 0.0000 0.0000 5.4411 0.0000 0.0000
# 5 0.0000 0.0000 0.0000 0.0000 5.4411 0.0000
# 6 0.0000 0.0000 0.0000 0.0000 0.0000 20.8128
#
#
#
# Elastic Compliance Matrix: (Units=1/GPa)
#
#
# Indices 1 2 3 4 5 6 
#
# 1 0.013879 -0.006081 -0.002266 0.000000 0.000000 0.000000
# 2 -0.006081 0.013879 -0.002266 0.000000 0.000000 0.000000
# 3 -0.002266 -0.002266 0.017683 0.000000 0.000000 0.000000
# 4 0.000000 0.000000 0.000000 0.183786 0.000000 0.000000
# 5 0.000000 0.000000 0.000000 0.000000 0.183787 0.000000
# 6 0.000000 0.000000 0.000000 0.000000 0.000000 0.048047
#
#
# Mechanical properties :
#
#
# Convention : Reuss Voigt Hill
#
# Bulk Modulus (GPa) = 41.29765 45.47059 43.38412
# Shear Modulus (GPa) = 10.19661 17.67345 13.93503
#
# Velocity S-wave (km/s) = 2.64926 3.48784 3.09706
# Velocity P-wave (km/s) = 6.14688 6.89336 6.53080
#
# Compressibility (1/GPa) = 0.02421446
#
# Stress axis : x y z
#
# Youngs Moduli (GPa) = 72.05103 72.05106 56.55247
#
# Poissons Ratio (x) = 0.43811 0.12817
# Poissons Ratio (y) = 0.43811 0.12817
# Poissons Ratio (z) = 0.16329 0.16329
#
# Static dielectric constant tensor:
#      x y z
#    x 2.903470 0.000000 0.000000 
#    y 0.000000 2.903470 0.000000 
#    z 0.000000 0.000000 2.329490 
# 
# 
# High freq. dielectric constant tensor:
#      x y z
#    x 1.557270 0.000000 0.000000 
#    y 0.000000 1.557270 0.000000 
#    z 0.000000 0.000000 1.474970 
# 
# From -- ./inp_files/4719.got.cif
#   From: 2010.03.12/outbox.cif.g09.slc.cpg/sg127_3_cif.got.tgz:4719.got - 2010.04.06 17:03:15.
