data_PCOD8313460
_publ_section_title
;
Structure prediction by ZEFSAII (Michael W. Deem and Ramdas Pophale) SiO2 
 PCOD8313460
Probable space group: P 4/N B M
;
_chemical_formula_sum "Si O2"
_cell_formula_units_Z 96
_cell_length_a 18.746453
_cell_length_b 18.746453
_cell_length_c 16.158807
_cell_angle_alpha 90.000000
_cell_angle_beta 90.000000
_cell_angle_gamma 90.000000
_cell_volume 5678.681466
_symmetry_space_group_name_H-M "P 4/N B M"
_symmetry_group_IT_number 125
_space_group.IT_coordinate_system_code '2'
_symmetry_cell_setting 'tetragonal'
loop_
_space_group_symop_operation_xyz
x,y,z
1/2-y,x,z
1/2-x,1/2-y,z
y,1/2-x,z
x,1/2-y,-z
1/2-x,y,-z
y,x,-z
1/2-y,1/2-x,-z
-x,-y,-z
1/2+y,-x,-z
1/2+x,1/2+y,-z
-y,1/2+x,-z
-x,1/2+y,z
1/2+x,-y,z
-y,-x,z
1/2+y,1/2+x,z
loop_
_atom_site_type_symbol
_atom_site_label
_atom_site_fract_x
_atom_site_fract_y
_atom_site_fract_z
Si Si1 0.866672 0.747215 0.906016
Si Si2 0.000118 0.252449 0.788257
Si Si3 0.378808 0.994523 0.665907
Si Si4 0.504801 0.611829 0.676721
Si Si5 0.051393 0.332954 0.504407
Si Si6 0.251110 0.633648 0.905817
O O1 0.821730 0.818342 0.889715
O O2 0.930745 0.740795 0.843063
O O3 0.895515 0.750000 0.000000
O O4 0.995735 0.192634 0.718582
O O5 0.931822 0.246090 0.845118
O O6 0.003820 0.330081 0.748429
O O7 0.420278 0.920278 0.679403
O O8 0.428230 0.060419 0.693113
O O9 0.358287 0.000490 0.569731
O O10 0.431381 0.568620 0.679755
O O11 0.509604 0.649559 0.588077
O O12 0.069378 0.250000 0.500000
O O13 0.126949 0.373052 0.500000
O O14 0.323857 0.676144 0.888396
O O15 0.183969 0.683969 0.888967
O O16 0.250000 0.605880 0.000000
#
# Coordination Sequence:
#
# PCOD8313460 Si02
#       6
#    16  16  16  16  16  16
#     4   9  19  35  52  72 102 139 172 202 247 311
#     4  12  19  31  54  80 102 126 170 217 259 288
#     4  10  21  35  52  75 104 136 170 208 250 302
#     4  10  21  35  52  75 104 136 170 208 250 302
#     4  10  19  36  55  76 102 138 173 202 246 302
#     4   9  19  35  52  72 100 133 168 206 253 307
#
# _framework density 16.905332999999999
#
# number of rings (size 3 to 8) (size 9 to 14) (size 15 to 20)
#    0.000    2.000    1.667    4.000    0.000    2.167 
#    0.000    0.000    0.000    0.000    0.000   15.167 
#    0.000    0.000    0.000    0.000    0.000    0.000 
#
# Total GULP energy -1190580.479404 kJ/mol
# GULP energy per Si atom -12401.879994 kJ/mol
# Density = 1.686686 g / cm^3
# Si number density = 16.905333 Si / 1000 Ang^3
#
#
#
# Elastic Constant Matrix: (Units=GPa)
#
#
# Indices 1 2 3 4 5 6 
#
# 1 81.1392 15.2094 25.0842 0.0000 0.0000 0.0000
# 2 15.2094 81.1388 25.0841 0.0000 0.0000 0.0000
# 3 25.0842 25.0841 65.7270 0.0000 0.0000 0.0000
# 4 0.0000 0.0000 0.0000 33.6939 0.0000 0.0000
# 5 0.0000 0.0000 0.0000 0.0000 33.6936 0.0000
# 6 0.0000 0.0000 0.0000 0.0000 0.0000 17.6658
#
#
#
# Elastic Compliance Matrix: (Units=1/GPa)
#
#
# Indices 1 2 3 4 5 6 
#
# 1 0.014060 -0.001107 -0.004943 0.000000 0.000000 0.000000
# 2 -0.001107 0.014060 -0.004943 0.000000 0.000000 0.000000
# 3 -0.004943 -0.004943 0.018988 0.000000 0.000000 0.000000
# 4 0.000000 0.000000 0.000000 0.029679 0.000000 0.000000
# 5 0.000000 0.000000 0.000000 0.000000 0.029679 0.000000
# 6 0.000000 0.000000 0.000000 0.000000 0.000000 0.056607
#
#
# Mechanical properties :
#
#
# Convention : Reuss Voigt Hill
#
# Bulk Modulus (GPa) = 39.80880 39.86226 39.83553
# Shear Modulus (GPa) = 25.84849 27.85247 26.85048
#
# Velocity S-wave (km/s) = 3.91450 4.06341 3.98965
# Velocity P-wave (km/s) = 6.63553 6.75618 6.69613
#
# Compressibility (1/GPa) = 0.02512007
#
# Stress axis : x y z
#
# Youngs Moduli (GPa) = 71.12212 71.12178 52.66579
#
# Poissons Ratio (x) = 0.07876 0.26035
# Poissons Ratio (y) = 0.07876 0.26035
# Poissons Ratio (z) = 0.35159 0.35158
#
# Static dielectric constant tensor:
#      x y z
#    x 3.153400 0.000000 0.000000 
#    y 0.000000 3.153400 0.000000 
#    z 0.000000 0.000000 3.219090 
# 
# 
# High freq. dielectric constant tensor:
#      x y z
#    x 1.654320 0.000000 0.000000 
#    y 0.000000 1.654320 0.000000 
#    z 0.000000 0.000000 1.662200 
# 
# From -- ./inp_files/5449.got.cif
#   From: 2010.03.12/outbox.cif.g09.slc.cpg/sg125_3_cif.got.tgz:5449.got - 2010.04.06 16:47:52.
