data_PCOD8313471
_publ_section_title
;
Structure prediction by ZEFSAII (Michael W. Deem and Ramdas Pophale) SiO2 
 PCOD8313471
Probable space group: P 4/N B M
;
_chemical_formula_sum "Si O2"
_cell_formula_units_Z 128
_cell_length_a 23.827746
_cell_length_b 23.827746
_cell_length_c 12.538499
_cell_angle_alpha 90.000000
_cell_angle_beta 90.000000
_cell_angle_gamma 90.000000
_cell_volume 7118.876742
_symmetry_space_group_name_H-M "P 4/N B M"
_symmetry_group_IT_number 125
_space_group.IT_coordinate_system_code '2'
_symmetry_cell_setting 'tetragonal'
loop_
_space_group_symop_operation_xyz
x,y,z
1/2-y,x,z
1/2-x,1/2-y,z
y,1/2-x,z
x,1/2-y,-z
1/2-x,y,-z
y,x,-z
1/2-y,1/2-x,-z
-x,-y,-z
1/2+y,-x,-z
1/2+x,1/2+y,-z
-y,1/2+x,-z
-x,1/2+y,z
1/2+x,-y,z
-y,-x,z
1/2+y,1/2+x,z
loop_
_atom_site_type_symbol
_atom_site_label
_atom_site_fract_x
_atom_site_fract_y
_atom_site_fract_z
Si Si1 0.464256 0.872525 0.102524
Si Si2 0.903384 0.187225 0.276298
Si Si3 0.356638 0.422253 0.583699
Si Si4 0.526893 0.121312 0.133063
Si Si5 0.405582 0.816066 0.705730
Si Si6 0.037445 0.816122 0.509595
Si Si7 0.333013 0.272461 0.378812
Si Si8 0.447202 0.040056 0.244534
O O1 0.408020 0.908020 0.090273
O O2 0.447760 0.820202 0.178956
O O3 0.512773 0.908941 0.154630
O O4 0.485753 0.854237 0.985254
O O5 0.845938 0.154063 0.254581
O O6 0.888264 0.251582 0.293358
O O7 0.931411 0.163121 0.383706
O O8 0.375077 0.375077 0.500000
O O9 0.339466 0.474998 0.512537
O O10 0.301463 0.394528 0.641866
O O11 0.408049 0.440132 0.658855
O O12 0.572532 0.072532 0.125926
O O13 0.548398 0.173210 0.203203
O O14 0.472497 0.095400 0.189724
O O15 0.348919 0.848919 0.731466
O O16 0.430129 0.838834 0.593879
O O17 0.035017 0.750000 0.500000
O O18 0.288362 0.317997 0.327529
O O19 0.326883 0.250000 0.500000
O O20 0.495601 0.995601 0.283220
#
# Coordination Sequence:
#
# PCOD8313471 Si02
#       8
#    16  16  16  16  16  16  16  16
#     4   9  17  33  56  75  97 136 181 220 262 318
#     4  10  20  36  56  77 101 139 183 222 269 325
#     4  12  21  29  50  80 107 142 178 216 256 314
#     4   9  18  34  54  75 102 135 176 220 267 320
#     4  10  21  36  53  76 105 139 177 225 279 324
#     4  10  21  34  49  71 108 144 175 213 263 321
#     4   9  17  33  52  71 100 139 178 216 257 301
#     4  10  20  33  48  75 108 141 180 215 258 317
#
# _framework density 17.980366
#
# number of rings (size 3 to 8) (size 9 to 14) (size 15 to 20)
#    0.000    2.125    2.500    2.250    0.000    3.000 
#    0.000    0.000    0.000    2.250    0.000    3.500 
#    0.000    0.000    0.000    5.500    1.000    0.000 
#
# Total GULP energy -1585676.202721 kJ/mol
# GULP energy per Si atom -12388.095334 kJ/mol
# Density = 1.793944 g / cm^3
# Si number density = 17.980366 Si / 1000 Ang^3
#
#
#
# Elastic Constant Matrix: (Units=GPa)
#
#
# Indices 1 2 3 4 5 6 
#
# 1 66.2072 50.6227 24.4046 0.0000 0.0000 0.0000
# 2 50.6227 66.2072 24.4046 0.0000 0.0000 0.0000
# 3 24.4046 24.4046 83.0333 0.0000 0.0000 0.0000
# 4 0.0000 0.0000 0.0000 17.1375 0.0000 0.0000
# 5 0.0000 0.0000 0.0000 0.0000 17.1375 0.0000
# 6 0.0000 0.0000 0.0000 0.0000 0.0000 28.5157
#
#
#
# Elastic Compliance Matrix: (Units=1/GPa)
#
#
# Indices 1 2 3 4 5 6 
#
# 1 0.036962 -0.027205 -0.002868 0.000000 0.000000 0.000000
# 2 -0.027205 0.036962 -0.002868 0.000000 0.000000 0.000000
# 3 -0.002868 -0.002868 0.013729 0.000000 0.000000 0.000000
# 4 0.000000 0.000000 0.000000 0.058352 0.000000 0.000000
# 5 0.000000 0.000000 0.000000 0.000000 0.058352 0.000000
# 6 0.000000 0.000000 0.000000 0.000000 0.000000 0.035068
#
#
# Mechanical properties :
#
#
# Convention : Reuss Voigt Hill
#
# Bulk Modulus (GPa) = 45.92880 46.03460 45.98170
# Shear Modulus (GPa) = 15.99677 20.29252 18.14465
#
# Velocity S-wave (km/s) = 2.98599 3.36310 3.18014
# Velocity P-wave (km/s) = 6.12270 6.38270 6.25405
#
# Compressibility (1/GPa) = 0.02177283
#
# Stress axis : x y z
#
# Youngs Moduli (GPa) = 27.05474 27.05474 72.83762
#
# Poissons Ratio (x) = 0.73601 0.20889
# Poissons Ratio (y) = 0.73601 0.20889
# Poissons Ratio (z) = 0.07759 0.07759
#
# Static dielectric constant tensor:
#      x y z
#    x 3.286060 0.000000 0.000000 
#    y 0.000000 3.286060 0.000000 
#    z 0.000000 0.000000 3.436870 
# 
# 
# High freq. dielectric constant tensor:
#      x y z
#    x 1.689050 0.000000 0.000000 
#    y 0.000000 1.689050 0.000000 
#    z 0.000000 0.000000 1.676380 
# 
# From -- ./inp_files/4377.got.cif
#   From: 2010.03.12/outbox.cif.g09.slc.cpg/sg125_3_cif.got.tgz:4377.got - 2010.04.06 16:47:52.
