data_PCOD8313087
_publ_section_title
;
Structure prediction by ZEFSAII (Michael W. Deem and Ramdas Pophale) SiO2 
 PCOD8313087
Probable space group: P 4/M C C
;
_chemical_formula_sum "Si O2"
_cell_formula_units_Z 96
_cell_length_a 23.202658
_cell_length_b 23.202658
_cell_length_c 9.337415
_cell_angle_alpha 90.000000
_cell_angle_beta 90.000000
_cell_angle_gamma 90.000000
_cell_volume 5026.921910
_symmetry_space_group_name_H-M "P 4/M C C"
_symmetry_group_IT_number 124
_symmetry_cell_setting 'tetragonal'
loop_
_space_group_symop_operation_xyz
x,y,z
-y,x,z
-x,-y,z
y,-x,z
x,-y,1/2-z
-x,y,1/2-z
y,x,1/2-z
-y,-x,1/2-z
-x,-y,-z
y,-x,-z
x,y,-z
-y,x,-z
-x,y,1/2+z
x,-y,1/2+z
-y,-x,1/2+z
y,x,1/2+z
loop_
_atom_site_type_symbol
_atom_site_label
_atom_site_fract_x
_atom_site_fract_y
_atom_site_fract_z
Si Si1 0.556066 0.132439 0.337637
Si Si2 0.269894 0.445474 0.338171
Si Si3 0.000000 0.165988 0.250000
Si Si4 0.909166 0.025163 0.500000
Si Si5 0.879182 0.793453 0.834294
Si Si6 0.269091 0.339853 0.841259
Si Si7 0.664180 0.135771 0.159074
O O1 0.500000 0.110335 0.250000
O O2 0.553556 0.107975 0.500000
O O3 0.556732 0.201018 0.342074
O O4 0.614976 0.108591 0.262082
O O5 0.292083 0.500000 0.250000
O O6 0.294059 0.447319 0.500000
O O7 0.296170 0.391131 0.253559
O O8 0.051164 0.200955 0.175022
O O9 0.036421 0.127591 0.360040
O O10 0.929384 0.959617 0.500000
O O11 0.840763 0.840763 0.750000
O O12 0.868891 0.728670 0.775173
O O13 0.860543 0.798600 0.000000
O O14 0.281811 0.281811 0.750000
O O15 0.202175 0.350593 0.858322
O O16 0.297060 0.336766 0.000000
O O17 0.661540 0.106918 0.000000
#
# Coordination Sequence:
#
# PCOD8313087 Si02
#       7
#    16  16   8   8  16  16  16
#     4   9  16  27  46  73 103 137 173 213 255 302
#     4   9  16  26  40  59  86 119 157 197 242 291
#     4  12  24  39  58  82 109 140 180 222 278 332
#     4  11  22  38  60  84 108 134 169 218 274 336
#     4  11  24  40  59  80 108 144 182 227 278 332
#     4  10  18  28  43  63  91 124 160 199 241 291
#     4   9  19  34  50  73 103 138 176 214 259 313
#
# _framework density 19.097173000000002
#
# number of rings (size 3 to 8) (size 9 to 14) (size 15 to 20)
#    0.000    2.083    0.833    3.500    1.167    6.000 
#    0.000    0.000    0.000    0.000    0.000    0.583 
#    0.000    4.333    0.000    3.333    0.000    2.333 
#
# Total GULP energy -1189699.366206 kJ/mol
# GULP energy per Si atom -12392.701731 kJ/mol
# Density = 1.905371 g / cm^3
# Si number density = 19.097173 Si / 1000 Ang^3
#
#
#
# Elastic Constant Matrix: (Units=GPa)
#
#
# Indices 1 2 3 4 5 6 
#
# 1 80.8225 9.0001 33.0558 0.0000 0.0000 0.0000
# 2 9.0001 80.8225 33.0558 0.0000 0.0000 0.0000
# 3 33.0558 33.0558 137.3979 0.0000 0.0000 0.0000
# 4 0.0000 0.0000 0.0000 25.8985 0.0000 0.0000
# 5 0.0000 0.0000 0.0000 0.0000 25.8985 0.0000
# 6 0.0000 0.0000 0.0000 0.0000 0.0000 10.0716
#
#
#
# Elastic Compliance Matrix: (Units=1/GPa)
#
#
# Indices 1 2 3 4 5 6 
#
# 1 0.013726 -0.000197 -0.003255 0.000000 0.000000 0.000000
# 2 -0.000197 0.013726 -0.003255 0.000000 0.000000 0.000000
# 3 -0.003255 -0.003255 0.008844 0.000000 0.000000 0.000000
# 4 0.000000 0.000000 0.000000 0.038612 0.000000 0.000000
# 5 0.000000 0.000000 0.000000 0.000000 0.038612 0.000000
# 6 0.000000 0.000000 0.000000 0.000000 0.000000 0.099289
#
#
# Mechanical properties :
#
#
# Convention : Reuss Voigt Hill
#
# Bulk Modulus (GPa) = 43.70170 49.91848 46.81009
# Shear Modulus (GPa) = 21.38117 27.30247 24.34182
#
# Velocity S-wave (km/s) = 3.34967 3.78519 3.57407
# Velocity P-wave (km/s) = 6.15580 6.73049 6.44955
#
# Compressibility (1/GPa) = 0.02288241
#
# Stress axis : x y z
#
# Youngs Moduli (GPa) = 72.85469 72.85469 113.06803
#
# Poissons Ratio (x) = 0.01437 0.36801
# Poissons Ratio (y) = 0.01437 0.36801
# Poissons Ratio (z) = 0.23713 0.23713
#
# Static dielectric constant tensor:
#      x y z
#    x 3.259080 0.000000 0.000000 
#    y 0.000000 3.259080 0.000000 
#    z 0.000000 0.000000 3.878730 
# 
# 
# High freq. dielectric constant tensor:
#      x y z
#    x 1.711110 0.000000 0.000000 
#    y 0.000000 1.711110 0.000000 
#    z 0.000000 0.000000 1.762020 
# 
# From -- ./inp_files/1422.got.cif
#   From: 2010.03.12/outbox.cif.g09.slc.cpg/sg124_1_cif.got.tgz:1422.got - 2010.04.06 16:38:57.
