data_PCOD8313840
_publ_section_title
;
Structure prediction by ZEFSAII (Michael W. Deem and Ramdas Pophale) SiO2 
 PCOD8313840
Probable space group: P 4/M B M
;
_chemical_formula_sum "Si O2"
_cell_formula_units_Z 120
_cell_length_a 17.440936
_cell_length_b 17.440936
_cell_length_c 26.281375
_cell_angle_alpha 90.000000
_cell_angle_beta 90.000000
_cell_angle_gamma 90.000000
_cell_volume 7994.432868
_symmetry_space_group_name_H-M "P 4/M B M"
_symmetry_group_IT_number 127
_symmetry_cell_setting 'tetragonal'
loop_
_space_group_symop_operation_xyz
x,y,z
-y,x,z
-x,-y,z
y,-x,z
1/2+x,1/2-y,-z
1/2-x,1/2+y,-z
1/2+y,1/2+x,-z
1/2-y,1/2-x,-z
-x,-y,-z
y,-x,-z
x,y,-z
-y,x,-z
1/2-x,1/2+y,z
1/2+x,1/2-y,z
1/2-y,1/2-x,z
1/2+y,1/2+x,z
loop_
_atom_site_type_symbol
_atom_site_label
_atom_site_fract_x
_atom_site_fract_y
_atom_site_fract_z
Si Si1 0.211742 0.412996 0.621870
Si Si2 0.312802 0.687197 0.191189
Si Si3 0.911439 0.911447 0.000000
Si Si4 0.288282 0.086984 0.378142
Si Si5 0.814541 0.814553 0.557424
Si Si6 0.790168 0.587500 0.261750
Si Si7 0.709843 0.912490 0.738242
Si Si8 0.408950 0.591041 0.889112
O O1 0.136977 0.363024 0.609282
O O2 0.189315 0.499986 0.609689
O O3 0.283024 0.389100 0.586509
O O4 0.237987 0.402668 0.680233
O O5 0.249982 0.749982 0.171411
O O6 0.376503 0.726979 0.225522
O O7 0.273069 0.623502 0.225555
O O8 0.356475 0.643507 0.146398
O O9 0.880631 0.880642 0.054337
O O10 0.999995 0.893919 0.000000
O O11 0.363061 0.136940 0.390733
O O12 0.217007 0.110884 0.413506
O O13 0.262037 0.097337 0.319781
O O14 0.837066 0.837062 0.500000
O O15 0.749998 0.750003 0.558743
O O16 0.871820 0.628181 0.254093
O O17 0.801967 0.499993 0.246214
O O18 0.628206 0.871795 0.745926
O O19 0.393318 0.499995 0.880774
#
# Coordination Sequence:
#
# PCOD8313840 Si02
#       8
#    16  16   8  16  16  16  16  16
#     4   9  17  29  45  64  84 106 133 166 203 240
#     4  10  18  27  40  60  87 115 140 167 202 241
#     4   7  12  24  41  60  80 104 135 171 212 252
#     4   9  17  29  45  64  84 106 133 166 203 240
#     4   9  17  29  44  60  79 105 134 159 188 237
#     4   9  17  28  42  60  83 110 137 166 200 239
#     4   9  17  28  42  60  83 110 137 166 200 239
#     4   9  16  27  44  63  82 106 139 177 212 247
#
# _framework density 15.010446
#
# number of rings (size 3 to 8) (size 9 to 14) (size 15 to 20)
#    0.000    3.000    0.000    2.400    0.000    4.267 
#    0.000    3.000    0.000    0.400    0.000    8.400 
#    0.000    0.000    0.000    0.000    0.000   80.000 
#
# Total GULP energy -1487123.942075 kJ/mol
# GULP energy per Si atom -12392.699517 kJ/mol
# Density = 1.497628 g / cm^3
# Si number density = 15.010446 Si / 1000 Ang^3
#
#
#
# Elastic Constant Matrix: (Units=GPa)
#
#
# Indices 1 2 3 4 5 6 
#
# 1 89.3413 55.3765 63.7886 0.0000 0.0000 0.0000
# 2 55.3765 89.3413 63.7886 0.0000 0.0000 0.0000
# 3 63.7886 63.7886 109.9748 0.0000 0.0000 0.0000
# 4 0.0000 0.0000 0.0000 20.8407 0.0000 0.0000
# 5 0.0000 0.0000 0.0000 0.0000 20.8407 0.0000
# 6 0.0000 0.0000 0.0000 0.0000 0.0000 17.9615
#
#
#
# Elastic Compliance Matrix: (Units=1/GPa)
#
#
# Indices 1 2 3 4 5 6 
#
# 1 0.021791 -0.007651 -0.008202 0.000000 0.000000 0.000000
# 2 -0.007651 0.021791 -0.008202 0.000000 0.000000 0.000000
# 3 -0.008202 -0.008202 0.018608 0.000000 0.000000 0.000000
# 4 0.000000 0.000000 0.000000 0.047983 0.000000 0.000000
# 5 0.000000 0.000000 0.000000 0.000000 0.047983 0.000000
# 6 0.000000 0.000000 0.000000 0.000000 0.000000 0.055675
#
#
# Mechanical properties :
#
#
# Convention : Reuss Voigt Hill
#
# Bulk Modulus (GPa) = 71.01754 72.72946 71.87350
# Shear Modulus (GPa) = 18.75230 18.97549 18.86390
#
# Velocity S-wave (km/s) = 3.53835 3.55935 3.54887
# Velocity P-wave (km/s) = 8.00675 8.09010 8.04853
#
# Compressibility (1/GPa) = 0.01408103
#
# Stress axis : x y z
#
# Youngs Moduli (GPa) = 45.88978 45.88978 53.74139
#
# Poissons Ratio (x) = 0.35110 0.44078
# Poissons Ratio (y) = 0.35110 0.44078
# Poissons Ratio (z) = 0.37638 0.37638
#
# Static dielectric constant tensor:
#      x y z
#    x 2.816910 0.000000 0.000000 
#    y 0.000000 2.816910 0.000000 
#    z 0.000000 0.000000 3.051970 
# 
# 
# High freq. dielectric constant tensor:
#      x y z
#    x 1.562590 0.000000 0.000000 
#    y 0.000000 1.562590 0.000000 
#    z 0.000000 0.000000 1.573100 
# 
# From -- ./inp_files/5970.got.cif
#   From: 2010.03.12/outbox.cif.g09.slc.cpg/sg127_3_cif.got.tgz:5970.got - 2010.04.06 17:03:15.
