data_PCOD8313069
_publ_section_title
;
Structure prediction by ZEFSAII (Michael W. Deem and Ramdas Pophale) SiO2 
 PCOD8313069
Probable space group: P 4/M C C
;
_chemical_formula_sum "Si O2"
_cell_formula_units_Z 96
_cell_length_a 25.407517
_cell_length_b 25.407517
_cell_length_c 8.714213
_cell_angle_alpha 90.000000
_cell_angle_beta 90.000000
_cell_angle_gamma 90.000000
_cell_volume 5625.389792
_symmetry_space_group_name_H-M "P 4/M C C"
_symmetry_group_IT_number 124
_symmetry_cell_setting 'tetragonal'
loop_
_space_group_symop_operation_xyz
x,y,z
-y,x,z
-x,-y,z
y,-x,z
x,-y,1/2-z
-x,y,1/2-z
y,x,1/2-z
-y,-x,1/2-z
-x,-y,-z
y,-x,-z
x,y,-z
-y,x,-z
-x,y,1/2+z
x,-y,1/2+z
-y,-x,1/2+z
y,x,1/2+z
loop_
_atom_site_type_symbol
_atom_site_label
_atom_site_fract_x
_atom_site_fract_y
_atom_site_fract_z
Si Si1 0.254206 0.665746 0.176981
Si Si2 0.056311 0.862075 0.682876
Si Si3 0.658728 0.135628 0.680125
Si Si4 0.449824 0.750201 0.678880
Si Si5 0.944996 0.749727 0.681508
Si Si6 0.447655 0.135129 0.680041
O O1 0.291750 0.708251 0.250000
O O2 0.194753 0.669724 0.243500
O O3 0.277946 0.606686 0.204655
O O4 0.252048 0.679579 0.000000
O O5 0.099157 0.900844 0.750000
O O6 0.055086 0.864845 0.500000
O O7 0.071552 0.803763 0.737485
O O8 0.000000 0.878866 0.750000
O O9 0.647920 0.137898 0.500000
O O10 0.707988 0.099721 0.723278
O O11 0.606635 0.110169 0.756826
O O12 0.500000 0.717738 0.750000
O O13 0.459141 0.761508 0.500000
O O14 0.447788 0.804302 0.770929
O O15 0.950697 0.758775 0.500000
O O16 0.000000 0.729024 0.750000
O O17 0.500000 0.107165 0.750000
O O18 0.449431 0.128455 0.500000
#
# Coordination Sequence:
#
# PCOD8313069 Si02
#       6
#    16  16  16  16  16  16
#     4   9  18  30  43  64  95 126 155 190 232 277
#     4  11  22  38  58  81 107 133 164 200 242 290
#     4   9  19  34  49  68  96 128 162 199 240 285
#     4   9  16  27  42  61  87 120 158 196 234 278
#     4  10  20  36  56  76 100 130 164 204 244 284
#     4  10  17  26  44  68  93 121 156 197 241 287
#
# _framework density 17.065484000000001
#
# number of rings (size 3 to 8) (size 9 to 14) (size 15 to 20)
#    0.000    2.333    0.000    7.000    0.000    5.500 
#    0.000    2.500    0.000    0.500    0.000    3.500 
#    0.000    0.333    0.000    3.667    0.000    2.833 
#
# Total GULP energy -1189764.896290 kJ/mol
# GULP energy per Si atom -12393.384336 kJ/mol
# Density = 1.702664 g / cm^3
# Si number density = 17.065484 Si / 1000 Ang^3
#
#
#
# Elastic Constant Matrix: (Units=GPa)
#
#
# Indices 1 2 3 4 5 6 
#
# 1 103.7272 76.7005 54.2699 0.0000 0.0000 0.0000
# 2 76.7005 103.7384 54.2714 0.0000 0.0000 0.0000
# 3 54.2699 54.2714 107.6871 0.0000 0.0000 0.0000
# 4 0.0000 0.0000 0.0000 28.4746 0.0000 0.0000
# 5 0.0000 0.0000 0.0000 0.0000 28.4748 0.0000
# 6 0.0000 0.0000 0.0000 0.0000 0.0000 -6.0383
#
#
#
# Elastic Compliance Matrix: (Units=1/GPa)
#
#
# Indices 1 2 3 4 5 6 
#
# 1 0.022475 -0.014520 -0.004009 0.000000 0.000000 0.000000
# 2 -0.014520 0.022472 -0.004008 0.000000 0.000000 0.000000
# 3 -0.004009 -0.004008 0.013326 0.000000 0.000000 0.000000
# 4 0.000000 0.000000 0.000000 0.035119 0.000000 0.000000
# 5 0.000000 0.000000 0.000000 0.000000 0.035119 0.000000
# 6 0.000000 0.000000 0.000000 0.000000 0.000000 -0.165609
#
#
# Mechanical properties :
#
#
# Convention : Reuss Voigt Hill
#
# Bulk Modulus (GPa) = 75.75737 76.18179 75.96958
# Shear Modulus (GPa) = 404.09899 18.84293 211.47096
#
# Velocity S-wave (km/s) = 15.40478 3.32649 11.14389
# Velocity P-wave (km/s) = 18.99732 7.71309 14.49810
#
# Compressibility (1/GPa) = 0.01320004
#
# Stress axis : x y z
#
# Youngs Moduli (GPa) = 44.49478 44.50045 75.04010
#
# Poissons Ratio (x) = 0.64613 0.30082
# Poissons Ratio (y) = 0.64605 0.30074
# Poissons Ratio (z) = 0.17837 0.17835
#
# Static dielectric constant tensor:
#      x y z
#    x 3.430280 0.000000 0.000000 
#    y 0.000000 3.430330 0.000000 
#    z 0.000000 0.000000 3.311300 
# 
# 
# High freq. dielectric constant tensor:
#      x y z
#    x 1.642830 0.000000 0.000000 
#    y 0.000000 1.642830 0.000000 
#    z 0.000000 0.000000 1.671280 
# 
# From -- ./inp_files/1389.got.cif
#   From: 2010.03.12/outbox.cif.g09.slc.cpg/sg124_1_cif.got.tgz:1389.got - 2010.04.06 16:38:57.
