data_PCOD8313638
_publ_section_title
;
Structure prediction by ZEFSAII (Michael W. Deem and Ramdas Pophale) SiO2 
 PCOD8313638
Probable space group: P 4/N N C
;
_chemical_formula_sum "Si O2"
_cell_formula_units_Z 88
_cell_length_a 15.562595
_cell_length_b 15.562595
_cell_length_c 20.704481
_cell_angle_alpha 90.000000
_cell_angle_beta 90.000000
_cell_angle_gamma 90.000000
_cell_volume 5014.508590
_symmetry_space_group_name_H-M "P 4/N N C"
_symmetry_group_IT_number 126
_space_group.IT_coordinate_system_code '2'
_symmetry_cell_setting 'tetragonal'
loop_
_space_group_symop_operation_xyz
x,y,z
1/2-y,x,z
1/2-x,1/2-y,z
y,1/2-x,z
x,1/2-y,1/2-z
1/2-x,y,1/2-z
y,x,1/2-z
1/2-y,1/2-x,1/2-z
-x,-y,-z
1/2+y,-x,-z
1/2+x,1/2+y,-z
-y,1/2+x,-z
-x,1/2+y,1/2+z
1/2+x,-y,1/2+z
-y,-x,1/2+z
1/2+y,1/2+x,1/2+z
loop_
_atom_site_type_symbol
_atom_site_label
_atom_site_fract_x
_atom_site_fract_y
_atom_site_fract_z
Si Si1 0.602354 0.158575 0.773176
Si Si2 0.970488 0.677242 0.125611
Si Si3 0.388285 0.221911 0.999235
Si Si4 0.610838 0.773842 0.854397
Si Si5 0.972624 0.250000 0.250000
Si Si6 0.348734 0.067350 0.805895
O O1 0.641328 0.250000 0.750000
O O2 0.567042 0.165425 0.847269
O O3 0.673866 0.086229 0.775815
O O4 0.526695 0.131388 0.723828
O O5 0.916109 0.589592 0.136782
O O6 0.926406 0.752515 0.167979
O O7 0.967259 0.702788 0.049848
O O8 0.349132 0.315505 0.986431
O O9 0.422852 0.217521 0.072261
O O10 0.652734 0.681047 0.840938
O O11 0.530450 0.786840 0.807821
O O12 0.362040 0.137961 0.750000
#
# Coordination Sequence:
#
# PCOD8313638 Si02
#       6
#    16  16  16  16   8  16
#     4   9  21  35  50  75 100 133 179 231 257 300
#     4  10  16  28  48  74 112 145 164 199 249 309
#     4   9  16  29  50  79 112 147 167 186 246 329
#     4   9  20  35  55  84 110 128 168 221 268 322
#     4  12  21  37  62  70  92 138 188 227 281 306
#     4   9  17  27  42  76 112 136 166 202 244 302
#
# _framework density 17.549077
#
# number of rings (size 3 to 8) (size 9 to 14) (size 15 to 20)
#    0.000    2.545    1.818    3.545    0.000    5.455 
#    0.000    4.545    8.000    3.273    0.000    0.000 
#    0.000    0.000    0.000    0.000    0.000    0.000 
#
# Total GULP energy -1090531.415963 kJ/mol
# GULP energy per Si atom -12392.402454 kJ/mol
# Density = 1.750913 g / cm^3
# Si number density = 17.549077 Si / 1000 Ang^3
#
#
#
# Elastic Constant Matrix: (Units=GPa)
#
#
# Indices 1 2 3 4 5 6 
#
# 1 64.3092 32.7978 40.3505 0.0000 0.0000 0.0000
# 2 32.7978 64.3090 40.3506 0.0000 0.0000 0.0000
# 3 40.3505 40.3506 114.8333 0.0000 0.0000 0.0000
# 4 0.0000 0.0000 0.0000 18.2211 0.0000 0.0000
# 5 0.0000 0.0000 0.0000 0.0000 18.2211 0.0000
# 6 0.0000 0.0000 0.0000 0.0000 0.0000 20.0290
#
#
#
# Elastic Compliance Matrix: (Units=1/GPa)
#
#
# Indices 1 2 3 4 5 6 
#
# 1 0.023140 -0.008595 -0.005111 0.000000 0.000000 0.000000
# 2 -0.008595 0.023140 -0.005111 0.000000 0.000000 0.000000
# 3 -0.005111 -0.005111 0.012300 0.000000 0.000000 0.000000
# 4 0.000000 0.000000 0.000000 0.054881 0.000000 0.000000
# 5 0.000000 0.000000 0.000000 0.000000 0.054881 0.000000
# 6 0.000000 0.000000 0.000000 0.000000 0.000000 0.049928
#
#
# Mechanical properties :
#
#
# Convention : Reuss Voigt Hill
#
# Bulk Modulus (GPa) = 47.73964 52.27212 50.00588
# Shear Modulus (GPa) = 19.01965 19.95777 19.48871
#
# Velocity S-wave (km/s) = 3.29568 3.37598 3.33607
# Velocity P-wave (km/s) = 6.46100 6.71172 6.58756
#
# Compressibility (1/GPa) = 0.02094695
#
# Stress axis : x y z
#
# Youngs Moduli (GPa) = 43.21520 43.21503 81.29985
#
# Poissons Ratio (x) = 0.37141 0.41552
# Poissons Ratio (y) = 0.37142 0.41553
# Poissons Ratio (z) = 0.22087 0.22088
#
# Static dielectric constant tensor:
#      x y z
#    x 3.037640 0.000000 0.000000 
#    y 0.000000 3.037640 0.000000 
#    z 0.000000 0.000000 3.343820 
# 
# 
# High freq. dielectric constant tensor:
#      x y z
#    x 1.654090 0.000000 0.000000 
#    y 0.000000 1.654090 0.000000 
#    z 0.000000 0.000000 1.674930 
# 
# From -- ./inp_files/5186.got.cif
#   From: 2010.03.12/outbox.cif.g09.slc.cpg/sg126_3_cif.got.tgz:5186.got - 2010.04.06 16:55:23.
