data_PCOD8313966
_publ_section_title
;
Structure prediction by ZEFSAII (Michael W. Deem and Ramdas Pophale) SiO2 
 PCOD8313966
Probable space group: P 4/M B M
;
_chemical_formula_sum "Si O2"
_cell_formula_units_Z 104
_cell_length_a 25.730176
_cell_length_b 25.730176
_cell_length_c 9.517482
_cell_angle_alpha 90.000000
_cell_angle_beta 90.000000
_cell_angle_gamma 90.000000
_cell_volume 6300.972409
_symmetry_space_group_name_H-M "P 4/M B M"
_symmetry_group_IT_number 127
_symmetry_cell_setting 'tetragonal'
loop_
_space_group_symop_operation_xyz
x,y,z
-y,x,z
-x,-y,z
y,-x,z
1/2+x,1/2-y,-z
1/2-x,1/2+y,-z
1/2+y,1/2+x,-z
1/2-y,1/2-x,-z
-x,-y,-z
y,-x,-z
x,y,-z
-y,x,-z
1/2-x,1/2+y,z
1/2+x,1/2-y,z
1/2-y,1/2-x,z
1/2+y,1/2+x,z
loop_
_atom_site_type_symbol
_atom_site_label
_atom_site_fract_x
_atom_site_fract_y
_atom_site_fract_z
Si Si1 0.906779 0.678666 0.338131
Si Si2 0.586816 0.500921 0.000000
Si Si3 0.708173 0.996909 0.834777
Si Si4 0.303917 0.628021 0.660345
Si Si5 0.759425 0.178797 0.665975
Si Si6 0.179105 0.034232 0.846150
Si Si7 0.186401 0.601240 0.660110
O O1 0.925031 0.681204 0.500000
O O2 0.872899 0.627102 0.312225
O O3 0.955477 0.678073 0.235511
O O4 0.874136 0.729814 0.298064
O O5 0.551434 0.551757 0.000000
O O6 0.625504 0.499626 0.862715
O O7 0.770291 0.999144 0.798154
O O8 0.682095 0.945856 0.768837
O O9 0.697415 0.998275 0.000000
O O10 0.321549 0.622070 0.500000
O O11 0.323712 0.682328 0.727242
O O12 0.331736 0.581047 0.740538
O O13 0.242070 0.628232 0.676465
O O14 0.762586 0.187168 0.500000
O O15 0.727410 0.227410 0.730910
O O16 0.192908 0.058128 0.000000
O O17 0.178988 0.581233 0.500000
O O18 0.142939 0.642939 0.701007
#
# Coordination Sequence:
#
# PCOD8313966 Si02
#       7
#    16   8  16  16  16  16  16
#     4   9  18  32  49  69  94 128 164 194 232 288
#     4   9  18  34  54  68  84 124 176 213 240 276
#     4  10  19  32  48  69  99 125 157 199 246 283
#     4   9  15  26  46  72 100 125 151 191 241 290
#     4   8  14  25  42  66  95 124 155 188 229 289
#     4   8  18  32  45  69  94 121 160 199 239 283
#     4   9  17  29  48  72  96 127 163 194 233 291
#
# _framework density 16.505389000000001
#
# number of rings (size 3 to 8) (size 9 to 14) (size 15 to 20)
#    0.462    2.692    0.000    1.846    0.000    4.308 
#    0.000    0.000    0.000    3.692    0.000    4.308 
#    0.000    0.000    0.000    0.000    0.000    0.000 
#
# Total GULP energy -1288700.000121 kJ/mol
# GULP energy per Si atom -12391.346155 kJ/mol
# Density = 1.646782 g / cm^3
# Si number density = 16.505389 Si / 1000 Ang^3
#
#
#
# Elastic Constant Matrix: (Units=GPa)
#
#
# Indices 1 2 3 4 5 6 
#
# 1 72.6963 27.4447 28.4926 0.0000 0.0000 0.0000
# 2 27.4447 72.6963 28.4926 0.0000 0.0000 0.0000
# 3 28.4926 28.4926 54.8561 0.0000 0.0000 0.0000
# 4 0.0000 0.0000 0.0000 21.2902 0.0000 0.0000
# 5 0.0000 0.0000 0.0000 0.0000 21.2902 0.0000
# 6 0.0000 0.0000 0.0000 0.0000 0.0000 19.7584
#
#
#
# Elastic Compliance Matrix: (Units=1/GPa)
#
#
# Indices 1 2 3 4 5 6 
#
# 1 0.018137 -0.003961 -0.007363 0.000000 0.000000 0.000000
# 2 -0.003961 0.018137 -0.007363 0.000000 0.000000 0.000000
# 3 -0.007363 -0.007363 0.025878 0.000000 0.000000 0.000000
# 4 0.000000 0.000000 0.000000 0.046970 0.000000 0.000000
# 5 0.000000 0.000000 0.000000 0.000000 0.046970 0.000000
# 6 0.000000 0.000000 0.000000 0.000000 0.000000 0.050612
#
#
# Mechanical properties :
#
#
# Convention : Reuss Voigt Hill
#
# Bulk Modulus (GPa) = 40.35850 41.01203 40.68527
# Shear Modulus (GPa) = 19.81467 20.18902 20.00185
#
# Velocity S-wave (km/s) = 3.46858 3.50119 3.48492
# Velocity P-wave (km/s) = 6.36759 6.42231 6.39501
#
# Compressibility (1/GPa) = 0.02477792
#
# Stress axis : x y z
#
# Youngs Moduli (GPa) = 55.13513 55.13513 38.64248
#
# Poissons Ratio (x) = 0.21841 0.28452
# Poissons Ratio (y) = 0.21841 0.28452
# Poissons Ratio (z) = 0.40596 0.40596
#
# Static dielectric constant tensor:
#      x y z
#    x 3.031030 0.000000 0.000000 
#    y 0.000000 3.031030 0.000000 
#    z 0.000000 0.000000 2.925220 
# 
# 
# High freq. dielectric constant tensor:
#      x y z
#    x 1.625560 0.000000 0.000000 
#    y 0.000000 1.625560 0.000000 
#    z 0.000000 0.000000 1.613760 
# 
# From -- ./inp_files/2274.got.cif
#   From: 2010.03.12/outbox.cif.g09.slc.cpg/sg127_2_cif.got.tgz:2274.got - 2010.04.06 17:03:15.
