data_PCOD8313256
_publ_section_title
;
Structure prediction by ZEFSAII (Michael W. Deem and Ramdas Pophale) SiO2 
 PCOD8313256
Probable space group: P 4/M C C
;
_chemical_formula_sum "Si O2"
_cell_formula_units_Z 96
_cell_length_a 23.985606
_cell_length_b 23.985606
_cell_length_c 8.732716
_cell_angle_alpha 90.000000
_cell_angle_beta 90.000000
_cell_angle_gamma 90.000000
_cell_volume 5024.012687
_symmetry_space_group_name_H-M "P 4/M C C"
_symmetry_group_IT_number 124
_symmetry_cell_setting 'tetragonal'
loop_
_space_group_symop_operation_xyz
x,y,z
-y,x,z
-x,-y,z
y,-x,z
x,-y,1/2-z
-x,y,1/2-z
y,x,1/2-z
-y,-x,1/2-z
-x,-y,-z
y,-x,-z
x,y,-z
-y,x,-z
-x,y,1/2+z
x,-y,1/2+z
-y,-x,1/2+z
y,x,1/2+z
loop_
_atom_site_type_symbol
_atom_site_label
_atom_site_fract_x
_atom_site_fract_y
_atom_site_fract_z
Si Si1 0.151616 0.235196 0.680018
Si Si2 0.060921 0.443604 0.318247
Si Si3 0.556250 0.767105 0.321471
Si Si4 0.640911 0.442883 0.680959
Si Si5 0.356779 0.858232 0.819143
Si Si6 0.060407 0.143732 0.679268
O O1 0.206137 0.206137 0.750000
O O2 0.160413 0.243135 0.500000
O O3 0.144205 0.294174 0.760282
O O4 0.097210 0.198192 0.716847
O O5 0.089331 0.500000 0.250000
O O6 0.059177 0.447751 0.500000
O O7 0.092253 0.388172 0.266413
O O8 0.000000 0.438385 0.250000
O O9 0.500000 0.793112 0.250000
O O10 0.546509 0.768709 0.500000
O O11 0.565206 0.704314 0.263102
O O12 0.611004 0.801519 0.274253
O O13 0.616312 0.500000 0.750000
O O14 0.608746 0.391255 0.750000
O O15 0.634602 0.444022 0.500000
O O16 0.357143 0.869053 0.000000
O O17 0.088852 0.088852 0.750000
O O18 0.054548 0.133810 0.500000
O O19 0.000000 0.153598 0.750000
#
# Coordination Sequence:
#
# PCOD8313256 Si02
#       6
#    16  16  16  16  16  16
#     4  10  22  40  59  82 113 151 191 235 284 334
#     4  11  22  38  58  83 115 151 189 234 286 338
#     4   9  20  36  55  79 108 141 179 224 276 328
#     4  10  20  36  55  78 106 138 175 218 268 324
#     4  11  22  37  58  85 114 148 190 234 278 336
#     4  10  21  38  61  87 117 150 187 228 275 325
#
# _framework density 19.108232000000001
#
# number of rings (size 3 to 8) (size 9 to 14) (size 15 to 20)
#    0.000    1.833    0.000    4.500    0.000    7.000 
#    0.000    5.000    0.000    0.000    0.000    0.000 
#    0.000    0.000    0.000    0.000    0.000    0.000 
#
# Total GULP energy -1190655.574259 kJ/mol
# GULP energy per Si atom -12402.662232 kJ/mol
# Density = 1.906474 g / cm^3
# Si number density = 19.108232 Si / 1000 Ang^3
#
#
#
# Elastic Constant Matrix: (Units=GPa)
#
#
# Indices 1 2 3 4 5 6 
#
# 1 120.2452 72.6747 60.8454 0.0000 0.0000 0.0000
# 2 72.6747 120.2477 60.8449 0.0000 0.0000 0.0000
# 3 60.8454 60.8449 119.0278 0.0000 0.0000 0.0000
# 4 0.0000 0.0000 0.0000 35.2420 0.0000 0.0000
# 5 0.0000 0.0000 0.0000 0.0000 35.2420 0.0000
# 6 0.0000 0.0000 0.0000 0.0000 0.0000 27.7249
#
#
#
# Elastic Compliance Matrix: (Units=1/GPa)
#
#
# Indices 1 2 3 4 5 6 
#
# 1 0.014336 -0.006685 -0.003911 0.000000 0.000000 0.000000
# 2 -0.006685 0.014335 -0.003911 0.000000 0.000000 0.000000
# 3 -0.003911 -0.003911 0.012400 0.000000 0.000000 0.000000
# 4 0.000000 0.000000 0.000000 0.028375 0.000000 0.000000
# 5 0.000000 0.000000 0.000000 0.000000 0.028375 0.000000
# 6 0.000000 0.000000 0.000000 0.000000 0.000000 0.036069
#
#
# Mechanical properties :
#
#
# Convention : Reuss Voigt Hill
#
# Bulk Modulus (GPa) = 82.93729 83.13897 83.03813
# Shear Modulus (GPa) = 29.95408 30.65219 30.30314
#
# Velocity S-wave (km/s) = 3.96359 4.00951 3.98662
# Velocity P-wave (km/s) = 8.02776 8.06467 8.04623
#
# Compressibility (1/GPa) = 0.01205730
#
# Stress axis : x y z
#
# Youngs Moduli (GPa) = 69.75540 69.75784 80.64807
#
# Poissons Ratio (x) = 0.46635 0.31540
# Poissons Ratio (y) = 0.46634 0.31537
# Poissons Ratio (z) = 0.27280 0.27279
#
# Static dielectric constant tensor:
#      x y z
#    x 3.634720 0.000000 0.000000 
#    y 0.000000 3.634740 0.000000 
#    z 0.000000 0.000000 3.663480 
# 
# 
# High freq. dielectric constant tensor:
#      x y z
#    x 1.747110 0.000000 0.000000 
#    y 0.000000 1.747110 0.000000 
#    z 0.000000 0.000000 1.757760 
# 
# From -- ./inp_files/1329.got.cif
#   From: 2010.03.12/outbox.cif.g09.slc.cpg/sg124_1_cif.got.tgz:1329.got - 2010.04.06 16:38:57.
