data_PCOD8313487
_publ_section_title
;
Structure prediction by ZEFSAII (Michael W. Deem and Ramdas Pophale) SiO2 
 PCOD8313487
Probable space group: P 4/N B M
;
_chemical_formula_sum "Si O2"
_cell_formula_units_Z 96
_cell_length_a 14.269107
_cell_length_b 14.269107
_cell_length_c 23.110272
_cell_angle_alpha 90.000000
_cell_angle_beta 90.000000
_cell_angle_gamma 90.000000
_cell_volume 4705.422732
_symmetry_space_group_name_H-M "P 4/N B M"
_symmetry_group_IT_number 125
_space_group.IT_coordinate_system_code '2'
_symmetry_cell_setting 'tetragonal'
loop_
_space_group_symop_operation_xyz
x,y,z
1/2-y,x,z
1/2-x,1/2-y,z
y,1/2-x,z
x,1/2-y,-z
1/2-x,y,-z
y,x,-z
1/2-y,1/2-x,-z
-x,-y,-z
1/2+y,-x,-z
1/2+x,1/2+y,-z
-y,1/2+x,-z
-x,1/2+y,z
1/2+x,-y,z
-y,-x,z
1/2+y,1/2+x,z
loop_
_atom_site_type_symbol
_atom_site_label
_atom_site_fract_x
_atom_site_fract_y
_atom_site_fract_z
Si Si1 0.635471 0.520016 0.239866
Si Si2 0.243819 0.601571 0.832846
Si Si3 0.870287 0.847101 0.871785
Si Si4 0.685859 0.889797 0.640099
Si Si5 0.678858 0.474660 0.050980
Si Si6 0.852231 0.993120 0.472193
O O1 0.548756 0.451245 0.252587
O O2 0.729381 0.465335 0.220481
O O3 0.608323 0.589200 0.187246
O O4 0.663012 0.578318 0.295561
O O5 0.310430 0.689571 0.830056
O O6 0.136322 0.636322 0.825959
O O7 0.257164 0.553477 0.894581
O O8 0.765121 0.880120 0.874556
O O9 0.932660 0.879499 0.927656
O O10 0.627692 0.795419 0.629695
O O11 0.655608 0.971248 0.595943
O O12 0.607019 0.392982 0.032328
O O13 0.750000 0.498680 0.000000
O O14 0.750000 0.007685 0.500000
O O15 0.903704 0.903704 0.500000
O O16 0.912047 0.087954 0.481299
#
# Coordination Sequence:
#
# PCOD8313487 Si02
#       6
#    16  16  16  16  16  16
#     4  10  20  36  57  85 119 150 192 249 305 366
#     4   8  15  30  51  74 105 147 188 229 289 362
#     4  10  21  39  59  78 108 150 195 242 299 361
#     4  11  22  38  63  91 122 165 215 261 308 368
#     4  10  20  35  56  82 111 143 186 240 297 362
#     4  11  23  42  68  98 133 173 220 271 325 384
#
# _framework density 20.401992
#
# number of rings (size 3 to 8) (size 9 to 14) (size 15 to 20)
#    0.000    2.000    1.667    3.500    0.000    3.167 
#    0.000   15.833    0.000    2.000    0.000    0.000 
#    0.000    0.000    0.000    0.000    0.000    0.000 
#
# Total GULP energy -1189876.036818 kJ/mol
# GULP energy per Si atom -12394.542050 kJ/mol
# Density = 2.035556 g / cm^3
# Si number density = 20.401992 Si / 1000 Ang^3
#
#
#
# Elastic Constant Matrix: (Units=GPa)
#
#
# Indices 1 2 3 4 5 6 
#
# 1 80.2896 33.8530 24.6783 0.0000 0.0000 0.0000
# 2 33.8530 80.2896 24.6783 0.0000 0.0000 0.0000
# 3 24.6783 24.6783 109.7595 0.0000 0.0000 0.0000
# 4 0.0000 0.0000 0.0000 27.9745 0.0000 0.0000
# 5 0.0000 0.0000 0.0000 0.0000 27.9745 0.0000
# 6 0.0000 0.0000 0.0000 0.0000 0.0000 28.0950
#
#
#
# Elastic Compliance Matrix: (Units=1/GPa)
#
#
# Indices 1 2 3 4 5 6 
#
# 1 0.015620 -0.005915 -0.002182 0.000000 0.000000 0.000000
# 2 -0.005915 0.015620 -0.002182 0.000000 0.000000 0.000000
# 3 -0.002182 -0.002182 0.010092 0.000000 0.000000 0.000000
# 4 0.000000 0.000000 0.000000 0.035747 0.000000 0.000000
# 5 0.000000 0.000000 0.000000 0.000000 0.035747 0.000000
# 6 0.000000 0.000000 0.000000 0.000000 0.000000 0.035594
#
#
# Mechanical properties :
#
#
# Convention : Reuss Voigt Hill
#
# Bulk Modulus (GPa) = 48.13905 48.52864 48.33384
# Shear Modulus (GPa) = 28.42510 29.28407 28.85458
#
# Velocity S-wave (km/s) = 3.73668 3.79272 3.76480
# Velocity P-wave (km/s) = 6.50104 6.55877 6.52997
#
# Compressibility (1/GPa) = 0.02077315
#
# Stress axis : x y z
#
# Youngs Moduli (GPa) = 64.02210 64.02210 99.08830
#
# Poissons Ratio (x) = 0.37870 0.21621
# Poissons Ratio (y) = 0.37870 0.21621
# Poissons Ratio (z) = 0.13969 0.13969
#
# Static dielectric constant tensor:
#      x y z
#    x 3.966090 0.000000 0.000000 
#    y 0.000000 3.966090 0.000000 
#    z 0.000000 0.000000 3.597550 
# 
# 
# High freq. dielectric constant tensor:
#      x y z
#    x 1.800710 0.000000 0.000000 
#    y 0.000000 1.800710 0.000000 
#    z 0.000000 0.000000 1.791450 
# 
# From -- ./inp_files/5918.got.cif
#   From: 2010.03.12/outbox.cif.g09.slc.cpg/sg125_3_cif.got.tgz:5918.got - 2010.04.06 16:47:52.
