data_PCOD8313562
_publ_section_title
;
Structure prediction by ZEFSAII (Michael W. Deem and Ramdas Pophale) SiO2 
 PCOD8313562
Probable space group: P 4/N B M
;
_chemical_formula_sum "Si O2"
_cell_formula_units_Z 112
_cell_length_a 15.557319
_cell_length_b 15.557319
_cell_length_c 24.813935
_cell_angle_alpha 90.000000
_cell_angle_beta 90.000000
_cell_angle_gamma 90.000000
_cell_volume 6005.721017
_symmetry_space_group_name_H-M "P 4/N B M"
_symmetry_group_IT_number 125
_space_group.IT_coordinate_system_code '2'
_symmetry_cell_setting 'tetragonal'
loop_
_space_group_symop_operation_xyz
x,y,z
1/2-y,x,z
1/2-x,1/2-y,z
y,1/2-x,z
x,1/2-y,-z
1/2-x,y,-z
y,x,-z
1/2-y,1/2-x,-z
-x,-y,-z
1/2+y,-x,-z
1/2+x,1/2+y,-z
-y,1/2+x,-z
-x,1/2+y,z
1/2+x,-y,z
-y,-x,z
1/2+y,1/2+x,z
loop_
_atom_site_type_symbol
_atom_site_label
_atom_site_fract_x
_atom_site_fract_y
_atom_site_fract_z
Si Si1 0.843222 0.022767 0.010563
Si Si2 0.937013 0.925326 0.091369
Si Si3 0.372866 0.487388 0.290337
Si Si4 0.565291 0.577006 0.406173
Si Si5 0.745542 0.387790 0.337110
Si Si6 0.329778 0.367693 0.192667
Si Si7 0.006243 0.755717 0.560902
O O1 0.897314 0.102687 0.030824
O O2 0.875922 0.989303 0.953807
O O3 0.750000 0.057065 0.000000
O O4 0.849844 0.955290 0.060277
O O5 0.915582 0.861572 0.139452
O O6 0.994493 0.005508 0.112736
O O7 0.437785 0.562216 0.271582
O O8 0.412162 0.437732 0.341638
O O9 0.278229 0.529441 0.303001
O O10 0.364384 0.417486 0.244251
O O11 0.492231 0.507770 0.424315
O O12 0.550279 0.670191 0.431727
O O13 0.658908 0.548585 0.426227
O O14 0.651313 0.348688 0.319883
O O15 0.814548 0.314548 0.328737
O O16 0.743435 0.411639 0.400083
O O17 0.227335 0.368214 0.193469
O O18 0.040460 0.750000 0.500000
#
# Coordination Sequence:
#
# PCOD8313562 Si02
#       7
#    16  16  16  16  16  16  16
#     4   9  17  30  52  79 109 146 185 223 274 331
#     4   9  18  34  54  76 105 147 190 226 268 329
#     4   9  20  39  58  77 105 144 184 228 278 335
#     4  10  23  40  58  81 112 148 187 227 277 341
#     4   9  19  36  57  81 107 138 182 232 282 335
#     4  11  23  35  52  80 111 139 179 234 287 327
#     4  11  22  36  57  83 113 147 182 225 275 333
#
# _framework density 18.648883999999999
#
# number of rings (size 3 to 8) (size 9 to 14) (size 15 to 20)
#    0.000    2.286    0.000    4.286    4.000    3.286 
#    0.000    2.143    0.000    4.286    0.000    2.000 
#    0.000    0.000    0.000    0.000    0.000    0.000 
#
# Total GULP energy -1387848.754960 kJ/mol
# GULP energy per Si atom -12391.506741 kJ/mol
# Density = 1.860644 g / cm^3
# Si number density = 18.648884 Si / 1000 Ang^3
#
#
#
# Elastic Constant Matrix: (Units=GPa)
#
#
# Indices 1 2 3 4 5 6 
#
# 1 100.0067 37.5864 44.9529 0.0000 0.0000 0.0000
# 2 37.5864 100.0067 44.9529 0.0000 0.0000 0.0000
# 3 44.9529 44.9529 109.3187 0.0000 0.0000 0.0000
# 4 0.0000 0.0000 0.0000 18.8161 0.0000 0.0000
# 5 0.0000 0.0000 0.0000 0.0000 18.8161 0.0000
# 6 0.0000 0.0000 0.0000 0.0000 0.0000 15.2061
#
#
#
# Elastic Compliance Matrix: (Units=1/GPa)
#
#
# Indices 1 2 3 4 5 6 
#
# 1 0.012979 -0.003041 -0.004087 0.000000 0.000000 0.000000
# 2 -0.003041 0.012979 -0.004087 0.000000 0.000000 0.000000
# 3 -0.004087 -0.004087 0.012509 0.000000 0.000000 0.000000
# 4 0.000000 0.000000 0.000000 0.053146 0.000000 0.000000
# 5 0.000000 0.000000 0.000000 0.000000 0.053146 0.000000
# 6 0.000000 0.000000 0.000000 0.000000 0.000000 0.065763
#
#
# Mechanical properties :
#
#
# Convention : Reuss Voigt Hill
#
# Bulk Modulus (GPa) = 62.35144 62.70183 62.52663
# Shear Modulus (GPa) = 20.98221 22.69030 21.83625
#
# Velocity S-wave (km/s) = 3.35792 3.49192 3.42558
# Velocity P-wave (km/s) = 6.96715 7.06777 7.01764
#
# Compressibility (1/GPa) = 0.01603812
#
# Stress axis : x y z
#
# Youngs Moduli (GPa) = 77.04593 77.04593 79.94560
#
# Poissons Ratio (x) = 0.23431 0.32671
# Poissons Ratio (y) = 0.23431 0.32671
# Poissons Ratio (z) = 0.31486 0.31486
#
# Static dielectric constant tensor:
#      x y z
#    x 4.789780 0.000000 0.000000 
#    y 0.000000 4.789780 0.000000 
#    z 0.000000 0.000000 3.312750 
# 
# 
# High freq. dielectric constant tensor:
#      x y z
#    x 1.724880 0.000000 0.000000 
#    y 0.000000 1.724880 0.000000 
#    z 0.000000 0.000000 1.717520 
# 
# From -- ./inp_files/6261.got.cif
#   From: 2010.03.12/outbox.cif.g09.slc.cpg/sg125_4_cif.got.tgz:6261.got - 2010.04.06 16:47:52.
