data_PCOD8313650
_publ_section_title
;
Structure prediction by ZEFSAII (Michael W. Deem and Ramdas Pophale) SiO2 
 PCOD8313650
Probable space group: P 4/N N C
;
_chemical_formula_sum "Si O2"
_cell_formula_units_Z 64
_cell_length_a 16.376728
_cell_length_b 16.376728
_cell_length_c 11.815177
_cell_angle_alpha 90.000000
_cell_angle_beta 90.000000
_cell_angle_gamma 90.000000
_cell_volume 3168.797625
_symmetry_space_group_name_H-M "P 4/N N C"
_symmetry_group_IT_number 126
_space_group.IT_coordinate_system_code '2'
_symmetry_cell_setting 'tetragonal'
loop_
_space_group_symop_operation_xyz
x,y,z
1/2-y,x,z
1/2-x,1/2-y,z
y,1/2-x,z
x,1/2-y,1/2-z
1/2-x,y,1/2-z
y,x,1/2-z
1/2-y,1/2-x,1/2-z
-x,-y,-z
1/2+y,-x,-z
1/2+x,1/2+y,-z
-y,1/2+x,-z
-x,1/2+y,1/2+z
1/2+x,-y,1/2+z
-y,-x,1/2+z
1/2+y,1/2+x,1/2+z
loop_
_atom_site_type_symbol
_atom_site_label
_atom_site_fract_x
_atom_site_fract_y
_atom_site_fract_z
Si Si1 0.190850 0.018215 0.959516
Si Si2 0.422740 0.750000 0.250000
Si Si3 0.400792 0.602977 0.613623
Si Si4 0.363109 0.053963 0.022206
Si Si5 0.050928 0.449073 0.250000
O O1 0.202049 0.981119 0.835846
O O2 0.268306 0.072495 0.998275
O O3 0.113744 0.078146 0.951739
O O4 0.178805 0.945234 0.052300
O O5 0.369520 0.817809 0.319217
O O6 0.379505 0.538816 0.515321
O O7 0.460339 0.559536 0.702095
O O8 0.380666 0.065160 0.154679
#
# Coordination Sequence:
#
# PCOD8313650 Si02
#       5
#    16   8  16  16   8
#     4  10  21  36  56  86 115 148 194 235 285 352
#     4  10  20  36  62  84 112 148 188 250 294 331
#     4  10  19  34  57  83 107 143 192 234 284 342
#     4  10  21  34  55  83 114 149 192 237 283 349
#     4  10  18  34  58  79 108 151 188 232 278 332
#
# _framework density 20.196935
#
# number of rings (size 3 to 8) (size 9 to 14) (size 15 to 20)
#    0.000    2.000    0.000    6.000    0.000    7.500 
#    0.000    0.000    0.000   57.000    0.000    0.000 
#    0.000    0.000    0.000    0.000    0.000    0.000 
#
# Total GULP energy -793445.138870 kJ/mol
# GULP energy per Si atom -12397.580295 kJ/mol
# Density = 2.015097 g / cm^3
# Si number density = 20.196935 Si / 1000 Ang^3
#
#
#
# Elastic Constant Matrix: (Units=GPa)
#
#
# Indices 1 2 3 4 5 6 
#
# 1 90.1684 18.6187 32.7038 0.0000 0.0000 0.0000
# 2 18.6187 90.1689 32.7041 0.0000 0.0000 0.0000
# 3 32.7038 32.7041 108.0025 0.0000 0.0000 0.0000
# 4 0.0000 0.0000 0.0000 36.6052 0.0000 0.0000
# 5 0.0000 0.0000 0.0000 0.0000 36.6052 0.0000
# 6 0.0000 0.0000 0.0000 0.0000 0.0000 18.4828
#
#
#
# Elastic Compliance Matrix: (Units=1/GPa)
#
#
# Indices 1 2 3 4 5 6 
#
# 1 0.012607 -0.001369 -0.003403 0.000000 0.000000 0.000000
# 2 -0.001369 0.012607 -0.003403 0.000000 0.000000 0.000000
# 3 -0.003403 -0.003403 0.011320 0.000000 0.000000 0.000000
# 4 0.000000 0.000000 0.000000 0.027319 0.000000 0.000000
# 5 0.000000 0.000000 0.000000 0.000000 0.027319 0.000000
# 6 0.000000 0.000000 0.000000 0.000000 0.000000 0.054104
#
#
# Mechanical properties :
#
#
# Convention : Reuss Voigt Hill
#
# Bulk Modulus (GPa) = 49.54316 50.71034 50.12675
# Shear Modulus (GPa) = 29.69930 31.95952 30.82941
#
# Velocity S-wave (km/s) = 3.83885 3.98225 3.91121
# Velocity P-wave (km/s) = 6.65074 6.80491 6.72827
#
# Compressibility (1/GPa) = 0.02018442
#
# Stress axis : x y z
#
# Youngs Moduli (GPa) = 79.31911 79.31938 88.33936
#
# Poissons Ratio (x) = 0.10859 0.30062
# Poissons Ratio (y) = 0.10859 0.30062
# Poissons Ratio (z) = 0.26993 0.26993
#
# Static dielectric constant tensor:
#      x y z
#    x 3.631990 0.000000 0.000000 
#    y 0.000000 3.631980 0.000000 
#    z 0.000000 0.000000 3.763580 
# 
# 
# High freq. dielectric constant tensor:
#      x y z
#    x 1.773580 0.000000 0.000000 
#    y 0.000000 1.773580 0.000000 
#    z 0.000000 0.000000 1.803310 
# 
# From -- ./inp_files/2598.got.cif
#   From: 2010.03.12/outbox.cif.g09.slc.cpg/sg126_2_cif.got.tgz:2598.got - 2010.04.06 16:55:23.
