data_PCOD8313274
_publ_section_title
;
Structure prediction by ZEFSAII (Michael W. Deem and Ramdas Pophale) SiO2 
 PCOD8313274
Probable space group: P 4/M C C
;
_chemical_formula_sum "Si O2"
_cell_formula_units_Z 88
_cell_length_a 16.133570
_cell_length_b 16.133570
_cell_length_c 17.688023
_cell_angle_alpha 90.000000
_cell_angle_beta 90.000000
_cell_angle_gamma 90.000000
_cell_volume 4604.052314
_symmetry_space_group_name_H-M "P 4/M C C"
_symmetry_group_IT_number 124
_symmetry_cell_setting 'tetragonal'
loop_
_space_group_symop_operation_xyz
x,y,z
-y,x,z
-x,-y,z
y,-x,z
x,-y,1/2-z
-x,y,1/2-z
y,x,1/2-z
-y,-x,1/2-z
-x,-y,-z
y,-x,-z
x,y,-z
-y,x,-z
-x,y,1/2+z
x,-y,1/2+z
-y,-x,1/2+z
y,x,1/2+z
loop_
_atom_site_type_symbol
_atom_site_label
_atom_site_fract_x
_atom_site_fract_y
_atom_site_fract_z
Si Si1 0.270661 0.002018 0.871925
Si Si2 0.995665 0.863081 0.500000
Si Si3 0.068747 0.439483 0.084665
Si Si4 0.777184 0.573216 0.191632
Si Si5 0.444861 0.375828 0.587102
Si Si6 0.730198 0.135800 0.746644
O O1 0.285077 0.092711 0.834749
O O2 0.349217 0.972275 0.919753
O O3 0.257354 0.934685 0.807902
O O4 0.191376 0.006969 0.924945
O O5 0.915234 0.920464 0.500000
O O6 0.148572 0.450041 0.136093
O O7 0.000000 0.500000 0.120031
O O8 0.093615 0.466673 0.000000
O O9 0.759977 0.500000 0.250000
O O10 0.695120 0.589732 0.142094
O O11 0.801032 0.655403 0.237235
O O12 0.541587 0.392225 0.603632
O O13 0.432703 0.348574 0.500000
O O14 0.815313 0.184688 0.750000
#
# Coordination Sequence:
#
# PCOD8313274 Si02
#       6
#    16   8  16  16  16  16
#     4  10  20  39  59  81 116 152 190 240 293 348
#     4  11  22  36  61  90 114 148 201 250 288 343
#     4  10  20  37  60  82 112 153 196 237 293 345
#     4  11  23  35  58  87 122 149 196 245 286 349
#     4   9  20  40  63  84 115 160 199 242 294 341
#     4  10  22  37  57  83 118 155 187 231 298 357
#
# _framework density 19.113596000000001
#
# number of rings (size 3 to 8) (size 9 to 14) (size 15 to 20)
#    0.000    1.909    0.909    3.273    2.545    1.818 
#    0.000    0.909    0.000    4.364    0.000    0.000 
#    0.000    0.000    0.000    0.000    0.000    0.000 
#
# Total GULP energy -1091292.857908 kJ/mol
# GULP energy per Si atom -12401.055203 kJ/mol
# Density = 1.907009 g / cm^3
# Si number density = 19.113596 Si / 1000 Ang^3
#
#
#
# Elastic Constant Matrix: (Units=GPa)
#
#
# Indices 1 2 3 4 5 6 
#
# 1 67.7576 55.0775 30.9576 0.0000 0.0000 0.0000
# 2 55.0775 67.7683 30.9668 0.0000 0.0000 0.0000
# 3 30.9576 30.9668 73.0137 0.0000 0.0000 0.0000
# 4 0.0000 0.0000 0.0000 42.2602 0.0000 0.0000
# 5 0.0000 0.0000 0.0000 0.0000 42.2554 0.0000
# 6 0.0000 0.0000 0.0000 0.0000 0.0000 27.6112
#
#
#
# Elastic Compliance Matrix: (Units=1/GPa)
#
#
# Indices 1 2 3 4 5 6 
#
# 1 0.044594 -0.034238 -0.004386 0.000000 0.000000 0.000000
# 2 -0.034238 0.044591 -0.004395 0.000000 0.000000 0.000000
# 3 -0.004386 -0.004395 0.017420 0.000000 0.000000 0.000000
# 4 0.000000 0.000000 0.000000 0.023663 0.000000 0.000000
# 5 0.000000 0.000000 0.000000 0.000000 0.023666 0.000000
# 6 0.000000 0.000000 0.000000 0.000000 0.000000 0.036217
#
#
# Mechanical properties :
#
#
# Convention : Reuss Voigt Hill
#
# Bulk Modulus (GPa) = 48.62616 49.17148 48.89882
# Shear Modulus (GPa) = 17.66503 28.52788 23.09646
#
# Velocity S-wave (km/s) = 3.04338 3.86754 3.47994
# Velocity P-wave (km/s) = 6.15186 6.76207 6.46417
#
# Compressibility (1/GPa) = 0.02056506
#
# Stress axis : x y z
#
# Youngs Moduli (GPa) = 22.42475 22.42594 57.40553
#
# Poissons Ratio (x) = 0.76783 0.25180
# Poissons Ratio (y) = 0.76779 0.25231
# Poissons Ratio (z) = 0.09836 0.09857
#
# Static dielectric constant tensor:
#      x y z
#    x 3.586030 0.000000 0.000000 
#    y 0.000000 3.586120 0.000000 
#    z 0.000000 0.000000 3.453110 
# 
# 
# High freq. dielectric constant tensor:
#      x y z
#    x 1.746530 0.000000 0.000000 
#    y 0.000000 1.746530 0.000000 
#    z 0.000000 0.000000 1.750630 
# 
# From -- ./inp_files/5176.got.cif
#   From: 2010.03.12/outbox.cif.g09.slc.cpg/sg124_3_cif.got.tgz:5176.got - 2010.04.06 16:38:57.
