data_PCOD8313171
_publ_section_title
;
Structure prediction by ZEFSAII (Michael W. Deem and Ramdas Pophale) SiO2 
 PCOD8313171
Probable space group: P 4/M C C
;
_chemical_formula_sum "Si O2"
_cell_formula_units_Z 96
_cell_length_a 23.459857
_cell_length_b 23.459857
_cell_length_c 8.926312
_cell_angle_alpha 90.000000
_cell_angle_beta 90.000000
_cell_angle_gamma 90.000000
_cell_volume 4912.728726
_symmetry_space_group_name_H-M "P 4/M C C"
_symmetry_group_IT_number 124
_symmetry_cell_setting 'tetragonal'
loop_
_space_group_symop_operation_xyz
x,y,z
-y,x,z
-x,-y,z
y,-x,z
x,-y,1/2-z
-x,y,1/2-z
y,x,1/2-z
-y,-x,1/2-z
-x,-y,-z
y,-x,-z
x,y,-z
-y,x,-z
-x,y,1/2+z
x,-y,1/2+z
-y,-x,1/2+z
y,x,1/2+z
loop_
_atom_site_type_symbol
_atom_site_label
_atom_site_fract_x
_atom_site_fract_y
_atom_site_fract_z
Si Si1 0.141383 0.755833 0.668076
Si Si2 0.786030 0.555797 0.666030
Si Si3 0.936536 0.147557 0.817848
Si Si4 0.238043 0.682904 0.179495
Si Si5 0.446365 0.920710 0.664929
Si Si6 0.951565 0.334796 0.338617
O O1 0.157846 0.778941 0.500000
O O2 0.107678 0.803556 0.762800
O O3 0.194380 0.731286 0.760394
O O4 0.104198 0.700804 0.643794
O O5 0.760083 0.500000 0.750000
O O6 0.759669 0.554120 0.500000
O O7 0.772407 0.618073 0.738359
O O8 0.853164 0.549878 0.661332
O O9 0.911989 0.088012 0.750000
O O10 0.000000 0.157561 0.750000
O O11 0.939268 0.146398 0.000000
O O12 0.298988 0.701013 0.250000
O O13 0.236949 0.684893 0.000000
O O14 0.500000 0.946979 0.750000
O O15 0.446100 0.946345 0.500000
O O16 0.390546 0.940681 0.745570
O O17 0.975472 0.352178 0.500000
O O18 0.000000 0.298767 0.250000
#
# Coordination Sequence:
#
# PCOD8313171 Si02
#       6
#    16  16  16  16  16  16
#     4  11  23  40  61  87 117 154 192 233 286 343
#     4   9  19  34  55  80 111 150 192 236 286 337
#     4  12  26  46  70  95 122 151 187 231 285 349
#     4  11  22  37  57  87 121 157 196 241 287 338
#     4  10  19  34  53  74 102 137 182 233 284 335
#     4  11  23  36  53  76 104 141 187 235 285 337
#
# _framework density 19.541073000000001
#
# number of rings (size 3 to 8) (size 9 to 14) (size 15 to 20)
#    0.000    1.333    1.667    4.500    0.000    5.833 
#    0.000    2.500    0.000    0.000    0.000    0.000 
#    0.000    0.333    0.000    3.667    0.000    2.667 
#
# Total GULP energy -1189281.286698 kJ/mol
# GULP energy per Si atom -12388.346736 kJ/mol
# Density = 1.949660 g / cm^3
# Si number density = 19.541073 Si / 1000 Ang^3
#
#
#
# Elastic Constant Matrix: (Units=GPa)
#
#
# Indices 1 2 3 4 5 6 
#
# 1 69.4864 58.7187 47.8889 0.0000 0.0000 0.0000
# 2 58.7187 69.4949 47.8909 0.0000 0.0000 0.0000
# 3 47.8889 47.8909 164.3892 0.0000 0.0000 0.0000
# 4 0.0000 0.0000 0.0000 30.7463 0.0000 0.0000
# 5 0.0000 0.0000 0.0000 0.0000 30.7460 0.0000
# 6 0.0000 0.0000 0.0000 0.0000 0.0000 19.8352
#
#
#
# Elastic Compliance Matrix: (Units=1/GPa)
#
#
# Indices 1 2 3 4 5 6 
#
# 1 0.051405 -0.041432 -0.002905 0.000000 0.000000 0.000000
# 2 -0.041432 0.051398 -0.002904 0.000000 0.000000 0.000000
# 3 -0.002905 -0.002904 0.007775 0.000000 0.000000 0.000000
# 4 0.000000 0.000000 0.000000 0.032524 0.000000 0.000000
# 5 0.000000 0.000000 0.000000 0.000000 0.032525 0.000000
# 6 0.000000 0.000000 0.000000 0.000000 0.000000 0.050415
#
#
# Mechanical properties :
#
#
# Convention : Reuss Voigt Hill
#
# Bulk Modulus (GPa) = 62.12357 68.04082 65.08220
# Shear Modulus (GPa) = 15.34264 26.19029 20.76647
#
# Velocity S-wave (km/s) = 2.80509 3.66494 3.26346
# Velocity P-wave (km/s) = 6.50782 7.26664 6.89767
#
# Compressibility (1/GPa) = 0.01609695
#
# Stress axis : x y z
#
# Youngs Moduli (GPa) = 19.45345 19.45601 128.61271
#
# Poissons Ratio (x) = 0.80610 0.37358
# Poissons Ratio (y) = 0.80599 0.37348
# Poissons Ratio (z) = 0.05651 0.05650
#
# Static dielectric constant tensor:
#      x y z
#    x 3.525290 0.000000 0.000000 
#    y 0.000000 3.525290 0.000000 
#    z 0.000000 0.000000 3.133190 
# 
# 
# High freq. dielectric constant tensor:
#      x y z
#    x 1.750110 0.000000 0.000000 
#    y 0.000000 1.750100 0.000000 
#    z 0.000000 0.000000 1.780540 
# 
# From -- ./inp_files/1356.got.cif
#   From: 2010.03.12/outbox.cif.g09.slc.cpg/sg124_1_cif.got.tgz:1356.got - 2010.04.06 16:38:57.
