data_PCOD8313306
_publ_section_title
;
Structure prediction by ZEFSAII (Michael W. Deem and Ramdas Pophale) SiO2 
 PCOD8313306
Probable space group: P 4/M C C
;
_chemical_formula_sum "Si O2"
_cell_formula_units_Z 96
_cell_length_a 15.647088
_cell_length_b 15.647088
_cell_length_c 20.617874
_cell_angle_alpha 90.000000
_cell_angle_beta 90.000000
_cell_angle_gamma 90.000000
_cell_volume 5047.902191
_symmetry_space_group_name_H-M "P 4/M C C"
_symmetry_group_IT_number 124
_symmetry_cell_setting 'tetragonal'
loop_
_space_group_symop_operation_xyz
x,y,z
-y,x,z
-x,-y,z
y,-x,z
x,-y,1/2-z
-x,y,1/2-z
y,x,1/2-z
-y,-x,1/2-z
-x,-y,-z
y,-x,-z
x,y,-z
-y,x,-z
-x,y,1/2+z
x,-y,1/2+z
-y,-x,1/2+z
y,x,1/2+z
loop_
_atom_site_type_symbol
_atom_site_label
_atom_site_fract_x
_atom_site_fract_y
_atom_site_fract_z
Si Si1 0.556745 0.375243 0.424574
Si Si2 0.726859 0.677243 0.654599
Si Si3 0.408136 0.220978 0.725082
Si Si4 0.173487 0.815004 0.074302
Si Si5 0.406094 0.966166 0.179535
Si Si6 0.991464 0.740732 0.924548
O O1 0.611621 0.458634 0.405125
O O2 0.565005 0.357534 0.500000
O O3 0.594134 0.291855 0.389156
O O4 0.634831 0.705723 0.682173
O O5 0.793189 0.650769 0.710938
O O6 0.767155 0.753880 0.615424
O O7 0.500000 0.252921 0.750000
O O8 0.413259 0.135625 0.683002
O O9 0.197763 0.912060 0.092112
O O10 0.074287 0.798575 0.089584
O O11 0.194337 0.795376 0.000000
O O12 0.341548 0.993292 0.122430
O O13 0.500000 0.000000 0.161528
O O14 0.375590 0.000000 0.250000
O O15 0.989089 0.710150 0.000000
#
# Coordination Sequence:
#
# PCOD8313306 Si02
#       6
#    16  16  16  16  16  16
#     4   9  18  34  55  79 110 152 196 239 294 353
#     4  11  21  35  58  81 120 150 194 248 289 347
#     4  11  22  36  54  86 113 152 199 236 290 352
#     4  10  21  38  61  86 116 151 192 244 298 353
#     4  11  21  38  61  83 118 160 194 237 293 354
#     4  10  22  41  62  89 120 153 198 246 298 357
#
# _framework density 19.017803000000001
#
# number of rings (size 3 to 8) (size 9 to 14) (size 15 to 20)
#    0.000    1.667    3.333    3.000    0.000    0.667 
#    0.000    1.667    0.000    4.000    0.000    1.167 
#    0.000    0.000    0.000    0.000    0.000    0.000 
#
# Total GULP energy -1190243.765101 kJ/mol
# GULP energy per Si atom -12398.372553 kJ/mol
# Density = 1.897452 g / cm^3
# Si number density = 19.017803 Si / 1000 Ang^3
#
#
#
# Elastic Constant Matrix: (Units=GPa)
#
#
# Indices 1 2 3 4 5 6 
#
# 1 97.1908 36.2348 51.8551 0.0000 0.0000 0.0000
# 2 36.2348 97.1908 51.8551 0.0000 0.0000 0.0000
# 3 51.8551 51.8551 89.3858 0.0000 0.0000 0.0000
# 4 0.0000 0.0000 0.0000 25.9488 0.0000 0.0000
# 5 0.0000 0.0000 0.0000 0.0000 25.9488 0.0000
# 6 0.0000 0.0000 0.0000 0.0000 0.0000 29.3213
#
#
#
# Elastic Compliance Matrix: (Units=1/GPa)
#
#
# Indices 1 2 3 4 5 6 
#
# 1 0.015028 -0.001378 -0.007919 0.000000 0.000000 0.000000
# 2 -0.001378 0.015028 -0.007919 0.000000 0.000000 0.000000
# 3 -0.007919 -0.007919 0.020375 0.000000 0.000000 0.000000
# 4 0.000000 0.000000 0.000000 0.038537 0.000000 0.000000
# 5 0.000000 0.000000 0.000000 0.000000 0.038537 0.000000
# 6 0.000000 0.000000 0.000000 0.000000 0.000000 0.034105
#
#
# Mechanical properties :
#
#
# Convention : Reuss Voigt Hill
#
# Bulk Modulus (GPa) = 62.49903 62.62857 62.56380
# Shear Modulus (GPa) = 24.82947 25.83194 25.33071
#
# Velocity S-wave (km/s) = 3.61722 3.68951 3.65354
# Velocity P-wave (km/s) = 7.09792 7.15214 7.12508
#
# Compressibility (1/GPa) = 0.01600025
#
# Stress axis : x y z
#
# Youngs Moduli (GPa) = 66.54420 66.54420 49.07936
#
# Poissons Ratio (x) = 0.09168 0.38864
# Poissons Ratio (y) = 0.09168 0.38864
# Poissons Ratio (z) = 0.52694 0.52694
#
# Static dielectric constant tensor:
#      x y z
#    x 3.452270 0.000000 0.000000 
#    y 0.000000 3.452270 0.000000 
#    z 0.000000 0.000000 3.560740 
# 
# 
# High freq. dielectric constant tensor:
#      x y z
#    x 1.738080 0.000000 0.000000 
#    y 0.000000 1.738080 0.000000 
#    z 0.000000 0.000000 1.743700 
# 
# From -- ./inp_files/5282.got.cif
#   From: 2010.03.12/outbox.cif.g09.slc.cpg/sg124_3_cif.got.tgz:5282.got - 2010.04.06 16:38:57.
