data_PCOD8313502
_publ_section_title
;
Structure prediction by ZEFSAII (Michael W. Deem and Ramdas Pophale) SiO2 
 PCOD8313502
Probable space group: P 4/N B M
;
_chemical_formula_sum "Si O2"
_cell_formula_units_Z 128
_cell_length_a 23.308399
_cell_length_b 23.308399
_cell_length_c 12.165325
_cell_angle_alpha 90.000000
_cell_angle_beta 90.000000
_cell_angle_gamma 90.000000
_cell_volume 6609.195575
_symmetry_space_group_name_H-M "P 4/N B M"
_symmetry_group_IT_number 125
_space_group.IT_coordinate_system_code '2'
_symmetry_cell_setting 'tetragonal'
loop_
_space_group_symop_operation_xyz
x,y,z
1/2-y,x,z
1/2-x,1/2-y,z
y,1/2-x,z
x,1/2-y,-z
1/2-x,y,-z
y,x,-z
1/2-y,1/2-x,-z
-x,-y,-z
1/2+y,-x,-z
1/2+x,1/2+y,-z
-y,1/2+x,-z
-x,1/2+y,z
1/2+x,-y,z
-y,-x,z
1/2+y,1/2+x,z
loop_
_atom_site_type_symbol
_atom_site_label
_atom_site_fract_x
_atom_site_fract_y
_atom_site_fract_z
Si Si1 0.813251 0.682885 0.371405
Si Si2 0.513561 0.576969 0.595177
Si Si3 0.312174 0.904572 0.269423
Si Si4 0.959349 0.313642 0.507334
Si Si5 0.603434 0.892141 0.230193
Si Si6 0.015061 0.189247 0.132611
Si Si7 0.910052 0.181700 0.731934
Si Si8 0.486484 0.321366 0.880554
O O1 0.829705 0.747599 0.337710
O O2 0.823991 0.676010 0.500000
O O3 0.851549 0.636268 0.311801
O O4 0.539646 0.539646 0.500000
O O5 0.451443 0.548558 0.626816
O O6 0.507274 0.641323 0.546809
O O7 0.554872 0.574764 0.700415
O O8 0.352217 0.852217 0.229569
O O9 0.314292 0.909266 0.401449
O O10 0.246599 0.893364 0.236258
O O11 0.332783 0.964093 0.212814
O O12 0.987893 0.250000 0.500000
O O13 0.932031 0.329504 0.391270
O O14 0.573779 0.843551 0.157109
O O15 0.636439 0.934458 0.148156
O O16 0.028541 0.256136 0.152963
O O17 0.997240 0.175435 0.008292
O O18 0.852501 0.147500 0.752976
O O19 0.958573 0.157736 0.812790
#
# Coordination Sequence:
#
# PCOD8313502 Si02
#       8
#    16  16  16  16  16  16  16  16
#     4   9  19  36  54  80 120 156 187 234 290 343
#     4  11  23  37  53  81 120 154 187 235 288 338
#     4  10  20  37  61  86 114 150 189 234 289 348
#     4  10  20  37  59  84 115 155 194 233 284 350
#     4  12  21  35  59  86 107 149 200 243 283 347
#     4  10  22  40  59  81 112 154 193 248 292 341
#     4  10  21  37  59  86 117 151 186 233 289 348
#     4  10  23  40  57  81 116 150 196 242 296 342
#
# _framework density 19.366955999999998
#
# number of rings (size 3 to 8) (size 9 to 14) (size 15 to 20)
#    0.000    1.750    1.250    3.750    0.000    2.250 
#    4.500    0.000    0.000    4.500    0.000    8.750 
#    0.000    0.000    0.000    0.000    0.000    0.000 
#
# Total GULP energy -1587322.485813 kJ/mol
# GULP energy per Si atom -12400.956920 kJ/mol
# Density = 1.932288 g / cm^3
# Si number density = 19.366956 Si / 1000 Ang^3
#
#
#
# Elastic Constant Matrix: (Units=GPa)
#
#
# Indices 1 2 3 4 5 6 
#
# 1 85.6916 49.8999 34.0659 0.0000 0.0000 0.0000
# 2 49.8999 85.6915 34.0661 0.0000 0.0000 0.0000
# 3 34.0659 34.0661 82.6989 0.0000 0.0000 0.0000
# 4 0.0000 0.0000 0.0000 13.4430 0.0000 0.0000
# 5 0.0000 0.0000 0.0000 0.0000 13.4436 0.0000
# 6 0.0000 0.0000 0.0000 0.0000 0.0000 38.2900
#
#
#
# Elastic Compliance Matrix: (Units=1/GPa)
#
#
# Indices 1 2 3 4 5 6 
#
# 1 0.018620 -0.009320 -0.003831 0.000000 0.000000 0.000000
# 2 -0.009320 0.018620 -0.003831 0.000000 0.000000 0.000000
# 3 -0.003831 -0.003831 0.015248 0.000000 0.000000 0.000000
# 4 0.000000 0.000000 0.000000 0.074388 0.000000 0.000000
# 5 0.000000 0.000000 0.000000 0.000000 0.074385 0.000000
# 6 0.000000 0.000000 0.000000 0.000000 0.000000 0.026116
#
#
# Mechanical properties :
#
#
# Convention : Reuss Voigt Hill
#
# Bulk Modulus (GPa) = 53.98249 54.46065 54.22157
# Shear Modulus (GPa) = 18.69050 22.10533 20.39791
#
# Velocity S-wave (km/s) = 3.10993 3.38212 3.24888
# Velocity P-wave (km/s) = 6.38980 6.59038 6.49086
#
# Compressibility (1/GPa) = 0.01852453
#
# Stress axis : x y z
#
# Youngs Moduli (GPa) = 53.70645 53.70626 65.58140
#
# Poissons Ratio (x) = 0.50053 0.25124
# Poissons Ratio (y) = 0.50053 0.25124
# Poissons Ratio (z) = 0.20575 0.20575
#
# Static dielectric constant tensor:
#      x y z
#    x 3.569020 0.000000 0.000000 
#    y 0.000000 3.569020 0.000000 
#    z 0.000000 0.000000 3.505910 
# 
# 
# High freq. dielectric constant tensor:
#      x y z
#    x 1.752900 0.000000 0.000000 
#    y 0.000000 1.752900 0.000000 
#    z 0.000000 0.000000 1.751950 
# 
# From -- ./inp_files/4384.got.cif
#   From: 2010.03.12/outbox.cif.g09.slc.cpg/sg125_3_cif.got.tgz:4384.got - 2010.04.06 16:47:52.
