data_PCOD8313981
_publ_section_title
;
Structure prediction by ZEFSAII (Michael W. Deem and Ramdas Pophale) SiO2 
 PCOD8313981
Probable space group: P 4/M B M
;
_chemical_formula_sum "Si O2"
_cell_formula_units_Z 80
_cell_length_a 15.176188
_cell_length_b 15.176188
_cell_length_c 19.175324
_cell_angle_alpha 90.000000
_cell_angle_beta 90.000000
_cell_angle_gamma 90.000000
_cell_volume 4416.397004
_symmetry_space_group_name_H-M "P 4/M B M"
_symmetry_group_IT_number 127
_symmetry_cell_setting 'tetragonal'
loop_
_space_group_symop_operation_xyz
x,y,z
-y,x,z
-x,-y,z
y,-x,z
1/2+x,1/2-y,-z
1/2-x,1/2+y,-z
1/2+y,1/2+x,-z
1/2-y,1/2-x,-z
-x,-y,-z
y,-x,-z
x,y,-z
-y,x,-z
1/2-x,1/2+y,z
1/2+x,1/2-y,z
1/2-y,1/2-x,z
1/2+y,1/2+x,z
loop_
_atom_site_type_symbol
_atom_site_label
_atom_site_fract_x
_atom_site_fract_y
_atom_site_fract_z
Si Si1 0.140967 0.504552 0.808701
Si Si2 0.906118 0.740697 0.079746
Si Si3 0.381824 0.414961 0.184903
Si Si4 0.745225 0.098778 0.701360
Si Si5 0.041867 0.137557 0.419789
O O1 0.058481 0.441520 0.815811
O O2 0.201688 0.488665 0.876681
O O3 0.193240 0.481849 0.737888
O O4 0.105534 0.605534 0.806627
O O5 0.820582 0.679419 0.087445
O O6 0.883385 0.836098 0.112737
O O7 0.935431 0.751472 0.000000
O O8 0.479351 0.378323 0.188779
O O9 0.328263 0.375206 0.250243
O O10 0.683919 0.183919 0.692173
O O11 0.777980 0.066842 0.626077
O O12 0.050462 0.165982 0.500000
O O13 0.942627 0.107720 0.402750
#
# Coordination Sequence:
#
# PCOD8313981 Si02
#       5
#    16  16  16  16  16
#     4   8  15  29  48  69  94 128 167 198 231 285
#     4   9  18  33  51  71  98 128 159 204 257 299
#     4  10  20  34  52  71  94 128 168 205 242 293
#     4  10  19  32  52  76 103 131 160 203 252 292
#     4   9  18  34  55  76 100 132 168 203 240 288
#
# _framework density 18.114312999999999
#
# number of rings (size 3 to 8) (size 9 to 14) (size 15 to 20)
#    0.000    2.800    0.000    3.600    0.000    3.200 
#    0.000   16.000    0.000    1.800    0.000    2.800 
#    0.000    0.000    0.000    0.000    0.000    0.000 
#
# Total GULP energy -991675.227102 kJ/mol
# GULP energy per Si atom -12395.940339 kJ/mol
# Density = 1.807308 g / cm^3
# Si number density = 18.114313 Si / 1000 Ang^3
#
#
#
# Elastic Constant Matrix: (Units=GPa)
#
#
# Indices 1 2 3 4 5 6 
#
# 1 62.9491 24.0864 44.2789 0.0000 0.0000 0.0000
# 2 24.0864 62.9491 44.2789 0.0000 0.0000 0.0000
# 3 44.2789 44.2789 134.0050 0.0000 0.0000 0.0000
# 4 0.0000 0.0000 0.0000 24.5290 0.0000 0.0000
# 5 0.0000 0.0000 0.0000 0.0000 24.5290 0.0000
# 6 0.0000 0.0000 0.0000 0.0000 0.0000 20.4736
#
#
#
# Elastic Compliance Matrix: (Units=1/GPa)
#
#
# Indices 1 2 3 4 5 6 
#
# 1 0.021520 -0.004211 -0.005719 0.000000 0.000000 0.000000
# 2 -0.004211 0.021520 -0.005719 0.000000 0.000000 0.000000
# 3 -0.005719 -0.005719 0.011242 0.000000 0.000000 0.000000
# 4 0.000000 0.000000 0.000000 0.040768 0.000000 0.000000
# 5 0.000000 0.000000 0.000000 0.000000 0.040768 0.000000
# 6 0.000000 0.000000 0.000000 0.000000 0.000000 0.048843
#
#
# Mechanical properties :
#
#
# Convention : Reuss Voigt Hill
#
# Bulk Modulus (GPa) = 43.51126 53.91021 48.71074
# Shear Modulus (GPa) = 22.35903 23.72357 23.04130
#
# Velocity S-wave (km/s) = 3.51711 3.62285 3.57037
# Velocity P-wave (km/s) = 6.36914 6.87937 6.62917
#
# Compressibility (1/GPa) = 0.02298256
#
# Stress axis : x y z
#
# Youngs Moduli (GPa) = 46.46779 46.46779 88.95159
#
# Poissons Ratio (x) = 0.19569 0.50875
# Poissons Ratio (y) = 0.19569 0.50875
# Poissons Ratio (z) = 0.26577 0.26577
#
# Static dielectric constant tensor:
#      x y z
#    x 3.364410 0.000000 0.000000 
#    y 0.000000 3.364410 0.000000 
#    z 0.000000 0.000000 3.353670 
# 
# 
# High freq. dielectric constant tensor:
#      x y z
#    x 1.691960 0.000000 0.000000 
#    y 0.000000 1.691960 0.000000 
#    z 0.000000 0.000000 1.699090 
# 
# From -- ./inp_files/5611.got.cif
#   From: 2010.03.12/outbox.cif.g09.slc.cpg/sg127_3_cif.got.tgz:5611.got - 2010.04.06 17:03:15.
