data_PCOD8313369
_publ_section_title
;
Structure prediction by ZEFSAII (Michael W. Deem and Ramdas Pophale) SiO2 
 PCOD8313369
Probable space group: P 4/M C C
;
_chemical_formula_sum "Si O2"
_cell_formula_units_Z 80
_cell_length_a 17.544960
_cell_length_b 17.544960
_cell_length_c 13.925398
_cell_angle_alpha 90.000000
_cell_angle_beta 90.000000
_cell_angle_gamma 90.000000
_cell_volume 4286.594293
_symmetry_space_group_name_H-M "P 4/M C C"
_symmetry_group_IT_number 124
_symmetry_cell_setting 'tetragonal'
loop_
_space_group_symop_operation_xyz
x,y,z
-y,x,z
-x,-y,z
y,-x,z
x,-y,1/2-z
-x,y,1/2-z
y,x,1/2-z
-y,-x,1/2-z
-x,-y,-z
y,-x,-z
x,y,-z
-y,x,-z
-x,y,1/2+z
x,-y,1/2+z
-y,-x,1/2+z
y,x,1/2+z
loop_
_atom_site_type_symbol
_atom_site_label
_atom_site_fract_x
_atom_site_fract_y
_atom_site_fract_z
Si Si1 0.712883 0.587435 0.746095
Si Si2 0.694236 0.200499 0.608576
Si Si3 0.110038 0.059771 0.611571
Si Si4 0.744413 0.086368 0.231774
Si Si5 0.191416 0.339987 0.105253
O O1 0.688433 0.500000 0.750000
O O2 0.635338 0.635338 0.750000
O O3 0.765724 0.617181 0.657518
O O4 0.762614 0.594001 0.842154
O O5 0.675131 0.172660 0.500000
O O6 0.734565 0.133229 0.669215
O O7 0.757225 0.265071 0.606434
O O8 0.132857 0.071791 0.500000
O O9 0.172587 0.095887 0.681907
O O10 0.030425 0.102144 0.633650
O O11 0.679546 0.113032 0.157949
O O12 0.724595 0.000000 0.250000
O O13 0.172027 0.369804 0.000000
#
# Coordination Sequence:
#
# PCOD8313369 Si02
#       5
#    16  16  16  16  16
#     4   9  18  34  59  91 122 148 174 205 252 317
#     4   9  20  37  54  74 107 148 191 230 272 325
#     4   9  20  35  48  68 102 143 182 226 292 363
#     4  11  22  31  52  76 101 134 188 244 291 330
#     4   9  19  36  54  75 105 144 188 228 268 323
#
# _framework density 18.662835000000001
#
# number of rings (size 3 to 8) (size 9 to 14) (size 15 to 20)
#    0.000    2.600    0.000    3.000    5.600    2.600 
#    0.000    1.000    0.000    9.600    0.000   18.200 
#    0.000    0.000    0.000    0.000    0.000    0.000 
#
# Total GULP energy -991513.406663 kJ/mol
# GULP energy per Si atom -12393.917583 kJ/mol
# Density = 1.862036 g / cm^3
# Si number density = 18.662835 Si / 1000 Ang^3
#
#
#
# Elastic Constant Matrix: (Units=GPa)
#
#
# Indices 1 2 3 4 5 6 
#
# 1 91.8322 36.9399 49.6961 0.0000 0.0000 0.0000
# 2 36.9399 91.8322 49.6961 0.0000 0.0000 0.0000
# 3 49.6961 49.6961 157.7842 0.0000 0.0000 0.0000
# 4 0.0000 0.0000 0.0000 16.2246 0.0000 0.0000
# 5 0.0000 0.0000 0.0000 0.0000 16.2246 0.0000
# 6 0.0000 0.0000 0.0000 0.0000 0.0000 11.7403
#
#
#
# Elastic Compliance Matrix: (Units=1/GPa)
#
#
# Indices 1 2 3 4 5 6 
#
# 1 0.014239 -0.003979 -0.003231 0.000000 0.000000 0.000000
# 2 -0.003979 0.014239 -0.003231 0.000000 0.000000 0.000000
# 3 -0.003231 -0.003231 0.008373 0.000000 0.000000 0.000000
# 4 0.000000 0.000000 0.000000 0.061635 0.000000 0.000000
# 5 0.000000 0.000000 0.000000 0.000000 0.061635 0.000000
# 6 0.000000 0.000000 0.000000 0.000000 0.000000 0.085177
#
#
# Mechanical properties :
#
#
# Convention : Reuss Voigt Hill
#
# Bulk Modulus (GPa) = 62.62846 68.23476 65.43161
# Shear Modulus (GPa) = 18.41600 22.51233 20.46416
#
# Velocity S-wave (km/s) = 3.14470 3.47690 3.31497
# Velocity P-wave (km/s) = 6.84224 7.26358 7.05606
#
# Compressibility (1/GPa) = 0.01596718
#
# Stress axis : x y z
#
# Youngs Moduli (GPa) = 70.23125 70.23125 119.42647
#
# Poissons Ratio (x) = 0.27944 0.38592
# Poissons Ratio (y) = 0.27944 0.38592
# Poissons Ratio (z) = 0.22695 0.22695
#
# Static dielectric constant tensor:
#      x y z
#    x 3.170450 0.000000 0.000000 
#    y 0.000000 3.170450 0.000000 
#    z 0.000000 0.000000 4.172390 
# 
# 
# High freq. dielectric constant tensor:
#      x y z
#    x 1.699100 0.000000 0.000000 
#    y 0.000000 1.699100 0.000000 
#    z 0.000000 0.000000 1.744190 
# 
# From -- ./inp_files/3079.got.cif
#   From: 2010.03.12/outbox.cif.g09.slc.cpg/sg124_2_cif.got.tgz:3079.got - 2010.04.06 16:38:57.
