data_PCOD8313585
_publ_section_title
;
Structure prediction by ZEFSAII (Michael W. Deem and Ramdas Pophale) SiO2 
 PCOD8313585
Probable space group: P 4/N B M
;
_chemical_formula_sum "Si O2"
_cell_formula_units_Z 112
_cell_length_a 13.990225
_cell_length_b 13.990225
_cell_length_c 27.864342
_cell_angle_alpha 90.000000
_cell_angle_beta 90.000000
_cell_angle_gamma 90.000000
_cell_volume 5453.787224
_symmetry_space_group_name_H-M "P 4/N B M"
_symmetry_group_IT_number 125
_space_group.IT_coordinate_system_code '2'
_symmetry_cell_setting 'tetragonal'
loop_
_space_group_symop_operation_xyz
x,y,z
1/2-y,x,z
1/2-x,1/2-y,z
y,1/2-x,z
x,1/2-y,-z
1/2-x,y,-z
y,x,-z
1/2-y,1/2-x,-z
-x,-y,-z
1/2+y,-x,-z
1/2+x,1/2+y,-z
-y,1/2+x,-z
-x,1/2+y,z
1/2+x,-y,z
-y,-x,z
1/2+y,1/2+x,z
loop_
_atom_site_type_symbol
_atom_site_label
_atom_site_fract_x
_atom_site_fract_y
_atom_site_fract_z
Si Si1 0.289570 0.556867 0.949396
Si Si2 0.324336 0.114476 0.103762
Si Si3 0.330191 0.830191 0.878746
Si Si4 0.095778 0.287473 0.624836
Si Si5 0.651553 0.509462 0.474322
Si Si6 0.675473 0.614069 0.213685
Si Si7 0.669743 0.169743 0.230678
Si Si8 0.538280 0.192293 0.715517
O O1 0.347741 0.652260 0.960108
O O2 0.359180 0.473360 0.929054
O O3 0.209445 0.578813 0.908620
O O4 0.250000 0.520905 0.000000
O O5 0.377023 0.211728 0.091255
O O6 0.340182 0.087157 0.158739
O O7 0.250000 0.750000 0.874538
O O8 0.360487 0.860487 0.824160
O O9 0.136230 0.180705 0.625554
O O10 0.034215 0.315732 0.579002
O O11 0.025493 0.287935 0.669614
O O12 0.750000 0.481437 0.500000
O O13 0.600030 0.600030 0.500000
O O14 0.581534 0.418467 0.474385
O O15 0.787728 0.623388 0.226352
O O16 0.636263 0.527611 0.245787
O O17 0.750000 0.250000 0.226492
O O18 0.579024 0.210622 0.260065
O O19 0.624928 0.124928 0.699853
#
# Coordination Sequence:
#
# PCOD8313585 Si02
#       8
#    16  16   8  16  16  16   8  16
#     4  11  21  36  58  85 115 147 192 243 294 356
#     4   9  20  39  60  81 112 154 192 235 297 364
#     4   9  18  34  60  81 111 157 200 242 298 380
#     4  11  23  42  68  93 126 175 225 273 331 387
#     4  11  23  43  71 104 139 180 233 289 336 402
#     4   9  18  37  61  83 111 149 197 246 298 363
#     4   9  20  38  56  80 117 166 200 239 316 389
#     4  11  22  38  58  87 127 159 202 257 317 384
#
# _framework density 20.536189
#
# number of rings (size 3 to 8) (size 9 to 14) (size 15 to 20)
#    0.000    1.857    2.143    3.000    0.000    3.714 
#    9.000    1.429    0.000    0.000    0.000    0.000 
#    0.000    0.000    0.000    0.000    0.000    0.000 
#
# Total GULP energy -1388315.410271 kJ/mol
# GULP energy per Si atom -12395.673306 kJ/mol
# Density = 2.048945 g / cm^3
# Si number density = 20.536189 Si / 1000 Ang^3
#
#
#
# Elastic Constant Matrix: (Units=GPa)
#
#
# Indices 1 2 3 4 5 6 
#
# 1 82.5109 10.1790 48.7468 0.0000 0.0000 0.0000
# 2 10.1790 82.5109 48.7468 0.0000 0.0000 0.0000
# 3 48.7468 48.7468 131.2077 0.0000 0.0000 0.0000
# 4 0.0000 0.0000 0.0000 22.6362 0.0000 0.0000
# 5 0.0000 0.0000 0.0000 0.0000 22.6362 0.0000
# 6 0.0000 0.0000 0.0000 0.0000 0.0000 23.6360
#
#
#
# Elastic Compliance Matrix: (Units=1/GPa)
#
#
# Indices 1 2 3 4 5 6 
#
# 1 0.015767 0.001942 -0.006579 0.000000 0.000000 0.000000
# 2 0.001942 0.015767 -0.006579 0.000000 0.000000 0.000000
# 3 -0.006579 -0.006579 0.012510 0.000000 0.000000 0.000000
# 4 0.000000 0.000000 0.000000 0.044177 0.000000 0.000000
# 5 0.000000 0.000000 0.000000 0.000000 0.044177 0.000000
# 6 0.000000 0.000000 0.000000 0.000000 0.000000 0.042308
#
#
# Mechanical properties :
#
#
# Convention : Reuss Voigt Hill
#
# Bulk Modulus (GPa) = 46.27289 56.84165 51.55727
# Shear Modulus (GPa) = 24.46855 26.35211 25.41033
#
# Velocity S-wave (km/s) = 3.45553 3.58607 3.52141
# Velocity P-wave (km/s) = 6.20502 6.69966 6.45707
#
# Compressibility (1/GPa) = 0.02161093
#
# Stress axis : x y z
#
# Youngs Moduli (GPa) = 63.42335 63.42335 79.93444
#
# Poissons Ratio (x) = -0.12316 0.52591
# Poissons Ratio (y) = -0.12316 0.52591
# Poissons Ratio (z) = 0.41728 0.41728
#
# Static dielectric constant tensor:
#      x y z
#    x 3.639480 0.000000 0.000000 
#    y 0.000000 3.639480 0.000000 
#    z 0.000000 0.000000 3.973490 
# 
# 
# High freq. dielectric constant tensor:
#      x y z
#    x 1.795760 0.000000 0.000000 
#    y 0.000000 1.795760 0.000000 
#    z 0.000000 0.000000 1.811910 
# 
# From -- ./inp_files/6470.got.cif
#   From: 2010.03.12/outbox.cif.g09.slc.cpg/sg125_4_cif.got.tgz:6470.got - 2010.04.06 16:47:52.
