data_PCOD8313855
_publ_section_title
;
Structure prediction by ZEFSAII (Michael W. Deem and Ramdas Pophale) SiO2 
 PCOD8313855
Probable space group: P 4/M B M
;
_chemical_formula_sum "Si O2"
_cell_formula_units_Z 64
_cell_length_a 23.830567
_cell_length_b 23.830567
_cell_length_c 7.741725
_cell_angle_alpha 90.000000
_cell_angle_beta 90.000000
_cell_angle_gamma 90.000000
_cell_volume 4396.494069
_symmetry_space_group_name_H-M "P 4/M B M"
_symmetry_group_IT_number 127
_symmetry_cell_setting 'tetragonal'
loop_
_space_group_symop_operation_xyz
x,y,z
-y,x,z
-x,-y,z
y,-x,z
1/2+x,1/2-y,-z
1/2-x,1/2+y,-z
1/2+y,1/2+x,-z
1/2-y,1/2-x,-z
-x,-y,-z
y,-x,-z
x,y,-z
-y,x,-z
1/2-x,1/2+y,z
1/2+x,1/2-y,z
1/2-y,1/2-x,z
1/2+y,1/2+x,z
loop_
_atom_site_type_symbol
_atom_site_label
_atom_site_fract_x
_atom_site_fract_y
_atom_site_fract_z
Si Si1 0.262311 0.143459 0.807402
Si Si2 0.380716 0.786649 0.500000
Si Si3 0.843503 0.565412 0.193423
Si Si4 0.350588 0.058838 0.296422
Si Si5 0.292313 0.697402 0.500000
O O1 0.309971 0.190030 0.794645
O O2 0.290579 0.084040 0.760608
O O3 0.213696 0.158594 0.670490
O O4 0.236166 0.141095 0.000000
O O5 0.330499 0.830499 0.500000
O O6 0.418508 0.794544 0.328659
O O7 0.354359 0.724368 0.500000
O O8 0.899498 0.600503 0.236859
O O9 0.859562 0.500490 0.205747
O O10 0.821925 0.579017 0.000000
O O11 0.351600 0.051070 0.500000
O O12 0.400785 0.099216 0.233742
O O13 0.245077 0.745077 0.500000
#
# Coordination Sequence:
#
# PCOD8313855 Si02
#       5
#    16   8  16  16   8
#     4   9  16  26  41  61  81  99 124 162 208 252
#     4   9  18  31  43  56  77 102 135 175 207 243
#     4  10  20  32  44  58  79 110 145 177 210 245
#     4  10  18  29  45  61  81 108 138 176 217 250
#     4   9  16  27  42  59  77  98 126 164 209 251
#
# _framework density 14.557054000000001
#
# number of rings (size 3 to 8) (size 9 to 14) (size 15 to 20)
#    0.000    2.500    2.500    0.750    0.000    3.000 
#    0.000    7.500    0.000    0.000    0.000    0.000 
#    0.000    0.000    0.000    0.000    0.000   10.000 
#
# Total GULP energy -793456.459143 kJ/mol
# GULP energy per Si atom -12397.757174 kJ/mol
# Density = 1.452392 g / cm^3
# Si number density = 14.557054 Si / 1000 Ang^3
#
#
#
# Elastic Constant Matrix: (Units=GPa)
#
#
# Indices 1 2 3 4 5 6 
#
# 1 50.6274 49.0487 38.2324 0.0000 0.0000 0.0000
# 2 49.0487 50.6274 38.2324 0.0000 0.0000 0.0000
# 3 38.2324 38.2324 115.6609 0.0000 0.0000 0.0000
# 4 0.0000 0.0000 0.0000 14.1013 0.0000 0.0000
# 5 0.0000 0.0000 0.0000 0.0000 14.1013 0.0000
# 6 0.0000 0.0000 0.0000 0.0000 0.0000 18.1418
#
#
#
# Elastic Compliance Matrix: (Units=1/GPa)
#
#
# Indices 1 2 3 4 5 6 
#
# 1 0.323430 -0.309989 -0.004443 0.000000 0.000000 0.000000
# 2 -0.309989 0.323430 -0.004443 0.000000 0.000000 0.000000
# 3 -0.004443 -0.004443 0.011583 0.000000 0.000000 0.000000
# 4 0.000000 0.000000 0.000000 0.070915 0.000000 0.000000
# 5 0.000000 0.000000 0.000000 0.000000 0.070915 0.000000
# 6 0.000000 0.000000 0.000000 0.000000 0.000000 0.055121
#
#
# Mechanical properties :
#
#
# Convention : Reuss Voigt Hill
#
# Bulk Modulus (GPa) = 48.32525 51.99364 50.15944
# Shear Modulus (GPa) = 3.33323 15.36236 9.34779
#
# Velocity S-wave (km/s) = 1.51484 3.25209 2.53681
# Velocity P-wave (km/s) = 6.02734 7.06372 6.56601
#
# Compressibility (1/GPa) = 0.02069312
#
# Stress axis : x y z
#
# Youngs Moduli (GPa) = 3.09186 3.09186 86.33150
#
# Poissons Ratio (x) = 0.95844 0.38357
# Poissons Ratio (y) = 0.95844 0.38357
# Poissons Ratio (z) = 0.01374 0.01374
#
# Static dielectric constant tensor:
#      x y z
#    x 2.645140 0.000000 0.000000 
#    y 0.000000 2.645140 0.000000 
#    z 0.000000 0.000000 3.105170 
# 
# 
# High freq. dielectric constant tensor:
#      x y z
#    x 1.516100 0.000000 0.000000 
#    y 0.000000 1.516100 0.000000 
#    z 0.000000 0.000000 1.581500 
# 
# From -- ./inp_files/1398.got.cif
#   From: 2010.03.12/outbox.cif.g09.slc.cpg/sg127_1_cif.got.tgz:1398.got - 2010.04.06 17:03:15.
