data_PCOD8313060
_publ_section_title
;
Structure prediction by ZEFSAII (Michael W. Deem and Ramdas Pophale) SiO2 
 PCOD8313060
Probable space group: P 4/M C C
;
_chemical_formula_sum "Si O2"
_cell_formula_units_Z 48
_cell_length_a 20.698283
_cell_length_b 20.698283
_cell_length_c 8.516342
_cell_angle_alpha 90.000000
_cell_angle_beta 90.000000
_cell_angle_gamma 90.000000
_cell_volume 3648.562035
_symmetry_space_group_name_H-M "P 4/M C C"
_symmetry_group_IT_number 124
_symmetry_cell_setting 'tetragonal'
loop_
_space_group_symop_operation_xyz
x,y,z
-y,x,z
-x,-y,z
y,-x,z
x,-y,1/2-z
-x,y,1/2-z
y,x,1/2-z
-y,-x,1/2-z
-x,-y,-z
y,-x,-z
x,y,-z
-y,x,-z
-x,y,1/2+z
x,-y,1/2+z
-y,-x,1/2+z
y,x,1/2+z
loop_
_atom_site_type_symbol
_atom_site_label
_atom_site_fract_x
_atom_site_fract_y
_atom_site_fract_z
Si Si1 0.672095 0.572058 0.813952
Si Si2 0.065203 0.427507 0.185777
Si Si3 0.195525 0.427692 0.313934
O O1 0.664268 0.500000 0.750000
O O2 0.612629 0.612629 0.750000
O O3 0.739037 0.604791 0.752463
O O4 0.671928 0.571030 0.000000
O O5 0.065226 0.500000 0.250000
O O6 0.130324 0.392316 0.250252
O O7 0.000000 0.392442 0.250000
O O8 0.065233 0.427209 0.000000
O O9 0.194932 0.500000 0.250000
O O10 0.196240 0.426629 0.500000
#
# Coordination Sequence:
#
# PCOD8313060 Si02
#       3
#    16  16  16
#     4  11  21  34  47  60  73  90 114 146 185 227
#     4  10  16  23  34  51  72  94 115 137 162 197
#     4  10  17  27  40  55  72  92 113 138 170 209
#
# _framework density 13.155868
#
# number of rings (size 3 to 8) (size 9 to 14) (size 15 to 20)
#    0.000    1.667    0.000   14.000    0.000    0.333 
#    0.000    1.667    0.000    0.000    0.000    0.000 
#    0.000    0.000    0.000    0.000    0.000    0.000 
#
# Total GULP energy -594816.251784 kJ/mol
# GULP energy per Si atom -12392.005245 kJ/mol
# Density = 1.312592 g / cm^3
# Si number density = 13.155868 Si / 1000 Ang^3
#
#
#
# Elastic Constant Matrix: (Units=GPa)
#
#
# Indices 1 2 3 4 5 6 
#
# 1 70.7195 35.7225 39.1198 0.0000 0.0000 0.0000
# 2 35.7225 70.7195 39.1198 0.0000 0.0000 0.0000
# 3 39.1198 39.1198 164.3909 0.0000 0.0000 0.0000
# 4 0.0000 0.0000 0.0000 19.6144 0.0000 0.0000
# 5 0.0000 0.0000 0.0000 0.0000 19.6144 0.0000
# 6 0.0000 0.0000 0.0000 0.0000 0.0000 0.1061
#
#
#
# Elastic Compliance Matrix: (Units=1/GPa)
#
#
# Indices 1 2 3 4 5 6 
#
# 1 0.019980 -0.008594 -0.002710 0.000000 0.000000 0.000000
# 2 -0.008594 0.019980 -0.002710 0.000000 0.000000 0.000000
# 3 -0.002710 -0.002710 0.007373 0.000000 0.000000 0.000000
# 4 0.000000 0.000000 0.000000 0.050983 0.000000 0.000000
# 5 0.000000 0.000000 0.000000 0.000000 0.050983 0.000000
# 6 0.000000 0.000000 0.000000 0.000000 0.000000 9.425516
#
#
# Mechanical properties :
#
#
# Convention : Reuss Voigt Hill
#
# Bulk Modulus (GPa) = 51.79426 59.30599 55.55013
# Shear Modulus (GPa) = 0.52033 20.65815 10.58924
#
# Velocity S-wave (km/s) = 0.62958 3.96695 2.84016
# Velocity P-wave (km/s) = 6.32326 8.13386 7.28503
#
# Compressibility (1/GPa) = 0.01930716
#
# Stress axis : x y z
#
# Youngs Moduli (GPa) = 50.04959 50.04959 135.63610
#
# Poissons Ratio (x) = 0.43011 0.36752
# Poissons Ratio (y) = 0.43011 0.36752
# Poissons Ratio (z) = 0.13562 0.13562
#
# Static dielectric constant tensor:
#      x y z
#    x 3.148490 0.000000 0.000000 
#    y 0.000000 3.148490 0.000000 
#    z 0.000000 0.000000 2.828670 
# 
# 
# High freq. dielectric constant tensor:
#      x y z
#    x 1.464920 0.000000 0.000000 
#    y 0.000000 1.464920 0.000000 
#    z 0.000000 0.000000 1.531740 
# 
# From -- ./inp_files/722.got.cif
#   From: 2010.03.12/outbox.cif.g09.slc.cpg/sg124_1_cif.got.tgz:722.got - 2010.04.06 16:38:57.
