data_PCOD8313482
_publ_section_title
;
Structure prediction by ZEFSAII (Michael W. Deem and Ramdas Pophale) SiO2 
 PCOD8313482
Probable space group: P 4/N B M
;
_chemical_formula_sum "Si O2"
_cell_formula_units_Z 104
_cell_length_a 16.755632
_cell_length_b 16.755632
_cell_length_c 19.353254
_cell_angle_alpha 90.000000
_cell_angle_beta 90.000000
_cell_angle_gamma 90.000000
_cell_volume 5433.449356
_symmetry_space_group_name_H-M "P 4/N B M"
_symmetry_group_IT_number 125
_space_group.IT_coordinate_system_code '2'
_symmetry_cell_setting 'tetragonal'
loop_
_space_group_symop_operation_xyz
x,y,z
1/2-y,x,z
1/2-x,1/2-y,z
y,1/2-x,z
x,1/2-y,-z
1/2-x,y,-z
y,x,-z
1/2-y,1/2-x,-z
-x,-y,-z
1/2+y,-x,-z
1/2+x,1/2+y,-z
-y,1/2+x,-z
-x,1/2+y,z
1/2+x,-y,z
-y,-x,z
1/2+y,1/2+x,z
loop_
_atom_site_type_symbol
_atom_site_label
_atom_site_fract_x
_atom_site_fract_y
_atom_site_fract_z
Si Si1 0.626330 0.626330 0.500000
Si Si2 0.982937 0.143338 0.280394
Si Si3 0.826593 0.457778 0.451479
Si Si4 0.363887 0.195356 0.640633
Si Si5 0.916829 0.958511 0.814257
Si Si6 0.167854 0.349123 0.920160
Si Si7 0.684915 0.055866 0.289444
O O1 0.541016 0.630086 0.463681
O O2 0.696379 0.633734 0.442891
O O3 0.919265 0.080736 0.312800
O O4 0.938131 0.225277 0.259936
O O5 0.054086 0.157442 0.334305
O O6 0.020488 0.107471 0.211229
O O7 0.750000 0.445530 0.500000
O O8 0.885769 0.385769 0.468920
O O9 0.804814 0.460550 0.370702
O O10 0.355174 0.286831 0.666522
O O11 0.872306 0.920300 0.878567
O O12 0.860096 0.983831 0.750175
O O13 0.963539 0.036462 0.841642
O O14 0.140405 0.260478 0.900345
O O15 0.143658 0.356343 0.000000
O O16 0.639026 0.139026 0.276574
#
# Coordination Sequence:
#
# PCOD8313482 Si02
#       7
#     8  16  16  16  16  16  16
#     4  12  21  35  54  74  98 127 165 210 268 332
#     4  11  22  36  55  78 103 136 179 222 269 323
#     4  11  24  39  56  77 102 136 179 230 287 346
#     4  11  23  37  53  75 102 131 167 214 271 334
#     4  10  20  34  55  81 111 145 181 227 273 320
#     4   9  18  33  55  84 117 151 183 215 257 315
#     4  10  22  39  55  76 107 141 182 231 284 339
#
# _framework density 19.140694
#
# number of rings (size 3 to 8) (size 9 to 14) (size 15 to 20)
#    0.000    1.538    0.000    6.692    0.000    5.692 
#    0.000    3.077    0.000    0.000    0.000    0.000 
#    0.000    0.000    0.000   28.615    0.000    0.154 
#
# Total GULP energy -1289295.102925 kJ/mol
# GULP energy per Si atom -12397.068297 kJ/mol
# Density = 1.909713 g / cm^3
# Si number density = 19.140694 Si / 1000 Ang^3
#
#
#
# Elastic Constant Matrix: (Units=GPa)
#
#
# Indices 1 2 3 4 5 6 
#
# 1 124.6118 71.2751 44.3791 0.0000 0.0000 0.0000
# 2 71.2751 124.6117 44.3791 0.0000 0.0000 0.0000
# 3 44.3791 44.3791 70.0192 0.0000 0.0000 0.0000
# 4 0.0000 0.0000 0.0000 29.5474 0.0000 0.0000
# 5 0.0000 0.0000 0.0000 0.0000 29.5474 0.0000
# 6 0.0000 0.0000 0.0000 0.0000 0.0000 33.3912
#
#
#
# Elastic Compliance Matrix: (Units=1/GPa)
#
#
# Indices 1 2 3 4 5 6 
#
# 1 0.012955 -0.005794 -0.004539 0.000000 0.000000 0.000000
# 2 -0.005794 0.012955 -0.004539 0.000000 0.000000 0.000000
# 3 -0.004539 -0.004539 0.020036 0.000000 0.000000 0.000000
# 4 0.000000 0.000000 0.000000 0.033844 0.000000 0.000000
# 5 0.000000 0.000000 0.000000 0.000000 0.033844 0.000000
# 6 0.000000 0.000000 0.000000 0.000000 0.000000 0.029948
#
#
# Mechanical properties :
#
#
# Convention : Reuss Voigt Hill
#
# Bulk Modulus (GPa) = 61.71894 71.03435 66.37664
# Shear Modulus (GPa) = 27.97563 29.11116 28.54339
#
# Velocity S-wave (km/s) = 3.82721 3.90411 3.86585
# Velocity P-wave (km/s) = 7.20034 7.58386 7.39459
#
# Compressibility (1/GPa) = 0.01620248
#
# Stress axis : x y z
#
# Youngs Moduli (GPa) = 77.18859 77.18848 49.91058
#
# Poissons Ratio (x) = 0.44719 0.22655
# Poissons Ratio (y) = 0.44720 0.22656
# Poissons Ratio (z) = 0.35037 0.35038
#
# Static dielectric constant tensor:
#      x y z
#    x 3.668690 0.000000 0.000000 
#    y 0.000000 3.668690 0.000000 
#    z 0.000000 0.000000 3.174810 
# 
# 
# High freq. dielectric constant tensor:
#      x y z
#    x 1.753550 0.000000 0.000000 
#    y 0.000000 1.753550 0.000000 
#    z 0.000000 0.000000 1.714390 
# 
# From -- ./inp_files/5510.got.cif
#   From: 2010.03.12/outbox.cif.g09.slc.cpg/sg125_3_cif.got.tgz:5510.got - 2010.04.06 16:47:52.
