data_PCOD8313379
_publ_section_title
;
Structure prediction by ZEFSAII (Michael W. Deem and Ramdas Pophale) SiO2 
 PCOD8313379
Probable space group: P 4/M C C
;
_chemical_formula_sum "Si O2"
_cell_formula_units_Z 112
_cell_length_a 13.992154
_cell_length_b 13.992154
_cell_length_c 29.182275
_cell_angle_alpha 90.000000
_cell_angle_beta 90.000000
_cell_angle_gamma 90.000000
_cell_volume 5713.316701
_symmetry_space_group_name_H-M "P 4/M C C"
_symmetry_group_IT_number 124
_symmetry_cell_setting 'tetragonal'
loop_
_space_group_symop_operation_xyz
x,y,z
-y,x,z
-x,-y,z
y,-x,z
x,-y,1/2-z
-x,y,1/2-z
y,x,1/2-z
-y,-x,1/2-z
-x,-y,-z
y,-x,-z
x,y,-z
-y,x,-z
-x,y,1/2+z
x,-y,1/2+z
-y,-x,1/2+z
y,x,1/2+z
loop_
_atom_site_type_symbol
_atom_site_label
_atom_site_fract_x
_atom_site_fract_y
_atom_site_fract_z
Si Si1 0.773364 0.434882 0.552024
Si Si2 0.438731 0.355414 0.635446
Si Si3 0.061269 0.855414 0.364554
Si Si4 0.934882 0.273364 0.552024
Si Si5 0.741302 0.601259 0.772890
Si Si6 0.073273 0.426727 0.445980
Si Si7 0.898741 0.241303 0.727110
O O1 0.734219 0.438698 0.500000
O O2 0.685207 0.414719 0.585215
O O3 0.852976 0.352976 0.556395
O O4 0.819475 0.538761 0.566864
O O5 0.550147 0.376572 0.641599
O O6 0.409413 0.277367 0.673069
O O7 0.085280 0.814793 0.414785
O O8 0.090587 0.777366 0.326931
O O9 0.949853 0.876573 0.358401
O O10 0.938699 0.234219 0.500000
O O11 0.038762 0.319475 0.566863
O O12 0.762443 0.500000 0.750000
O O13 0.647602 0.647602 0.750000
O O14 0.833836 0.666163 0.764810
O O15 0.062154 0.437847 0.500000
O O16 0.000000 0.500000 0.421760
O O17 0.852398 0.147603 0.750000
O O18 0.000000 0.262445 0.750000
#
# Coordination Sequence:
#
# PCOD8313379 Si02
#       7
#    16  16  16  16  16  16  16
#     4   9  18  36  59  84 118 156 199 251 302 358
#     4  11  23  39  61  86 119 163 202 242 298 368
#     4  11  23  39  61  86 119 163 202 242 298 368
#     4   9  18  36  59  84 118 156 199 251 302 358
#     4  11  23  43  70  95 124 162 204 254 307 368
#     4   7  12  28  54  78 106 149 190 233 297 354
#     4  11  23  43  70  95 124 162 204 254 307 368
#
# _framework density 19.603323
#
# number of rings (size 3 to 8) (size 9 to 14) (size 15 to 20)
#    0.000    2.143    2.857    2.571    0.000    1.714 
#    7.714    1.429    0.000    0.000    0.000    0.000 
#    0.000    0.000    0.000    0.000    0.000    0.000 
#
# Total GULP energy -1388311.066316 kJ/mol
# GULP energy per Si atom -12395.634521 kJ/mol
# Density = 1.955870 g / cm^3
# Si number density = 19.603323 Si / 1000 Ang^3
#
#
#
# Elastic Constant Matrix: (Units=GPa)
#
#
# Indices 1 2 3 4 5 6 
#
# 1 76.9117 41.4373 37.5957 0.0000 0.0000 0.0000
# 2 41.4373 76.9119 37.5960 0.0000 0.0000 0.0000
# 3 37.5957 37.5960 114.9633 0.0000 0.0000 0.0000
# 4 0.0000 0.0000 0.0000 33.6026 0.0000 0.0000
# 5 0.0000 0.0000 0.0000 0.0000 33.6025 0.0000
# 6 0.0000 0.0000 0.0000 0.0000 0.0000 9.9055
#
#
#
# Elastic Compliance Matrix: (Units=1/GPa)
#
#
# Indices 1 2 3 4 5 6 
#
# 1 0.019427 -0.008762 -0.003488 0.000000 0.000000 0.000000
# 2 -0.008762 0.019427 -0.003488 0.000000 0.000000 0.000000
# 3 -0.003488 -0.003488 0.010980 0.000000 0.000000 0.000000
# 4 0.000000 0.000000 0.000000 0.029760 0.000000 0.000000
# 5 0.000000 0.000000 0.000000 0.000000 0.029760 0.000000
# 6 0.000000 0.000000 0.000000 0.000000 0.000000 0.100954
#
#
# Mechanical properties :
#
#
# Convention : Reuss Voigt Hill
#
# Bulk Modulus (GPa) = 54.46855 55.78276 55.12565
# Shear Modulus (GPa) = 20.16922 25.56599 22.86761
#
# Velocity S-wave (km/s) = 3.21108 3.61524 3.41914
# Velocity P-wave (km/s) = 6.44932 6.77821 6.61581
#
# Compressibility (1/GPa) = 0.01835922
#
# Stress axis : x y z
#
# Youngs Moduli (GPa) = 51.47367 51.47366 91.07726
#
# Poissons Ratio (x) = 0.45100 0.31767
# Poissons Ratio (y) = 0.45100 0.31767
# Poissons Ratio (z) = 0.17953 0.17954
#
# Static dielectric constant tensor:
#      x y z
#    x 3.545460 0.000000 0.000000 
#    y 0.000000 3.545460 0.000000 
#    z 0.000000 0.000000 3.494500 
# 
# 
# High freq. dielectric constant tensor:
#      x y z
#    x 1.756710 0.000000 0.000000 
#    y 0.000000 1.756710 0.000000 
#    z 0.000000 0.000000 1.758370 
# 
# From -- ./inp_files/6120.got.cif
#   From: 2010.03.12/outbox.cif.g09.slc.cpg/sg124_4_cif.got.tgz:6120.got - 2010.04.06 16:38:57.
