data_PCOD8313698
_publ_section_title
;
Structure prediction by ZEFSAII (Michael W. Deem and Ramdas Pophale) SiO2 
 PCOD8313698
Probable space group: P 4/N N C
;
_chemical_formula_sum "Si O2"
_cell_formula_units_Z 96
_cell_length_a 21.173220
_cell_length_b 21.173220
_cell_length_c 10.733545
_cell_angle_alpha 90.000000
_cell_angle_beta 90.000000
_cell_angle_gamma 90.000000
_cell_volume 4811.904523
_symmetry_space_group_name_H-M "P 4/N N C"
_symmetry_group_IT_number 126
_space_group.IT_coordinate_system_code '2'
_symmetry_cell_setting 'tetragonal'
loop_
_space_group_symop_operation_xyz
x,y,z
1/2-y,x,z
1/2-x,1/2-y,z
y,1/2-x,z
x,1/2-y,1/2-z
1/2-x,y,1/2-z
y,x,1/2-z
1/2-y,1/2-x,1/2-z
-x,-y,-z
1/2+y,-x,-z
1/2+x,1/2+y,-z
-y,1/2+x,-z
-x,1/2+y,1/2+z
1/2+x,-y,1/2+z
-y,-x,1/2+z
1/2+y,1/2+x,1/2+z
loop_
_atom_site_type_symbol
_atom_site_label
_atom_site_fract_x
_atom_site_fract_y
_atom_site_fract_z
Si Si1 0.571417 0.761902 0.107462
Si Si2 0.174883 0.174883 0.250000
Si Si3 0.328162 0.705116 0.561410
Si Si4 0.053854 0.826756 0.437623
Si Si5 0.449791 0.483576 0.893361
Si Si6 0.635718 0.874237 0.011864
Si Si7 0.361497 0.750000 0.250000
O O1 0.553672 0.750000 0.250000
O O2 0.512091 0.791788 0.033790
O O3 0.630146 0.810370 0.094557
O O4 0.588142 0.698140 0.040924
O O5 0.250000 0.161966 0.250000
O O6 0.144369 0.138302 0.133170
O O7 0.281467 0.674467 0.454476
O O8 0.398955 0.674960 0.555985
O O9 0.302244 0.684564 0.693489
O O10 0.092819 0.785954 0.341185
O O11 0.039436 0.897609 0.390023
O O12 0.475752 0.475752 0.750000
O O13 0.500000 0.500000 0.000000
O O14 0.419988 0.420068 0.947018
#
# Coordination Sequence:
#
# PCOD8313698 Si02
#       7
#    16   8  16  16  16  16   8
#     4  11  21  39  62  99 128 177 224 280 340 401
#     4  11  22  42  68 102 134 174 212 284 370 421
#     4   9  20  36  61  95 123 159 208 268 342 400
#     4  10  22  38  64  92 127 170 222 266 341 395
#     4  11  27  45  67  97 134 188 236 282 337 407
#     4  11  23  41  68  94 139 172 230 286 341 418
#     4  10  20  39  68  90 134 159 214 282 336 407
#
# _framework density 19.950519
#
# number of rings (size 3 to 8) (size 9 to 14) (size 15 to 20)
#    0.000    1.583    2.500    2.500    3.500    7.000 
#    0.000    0.833    0.000    6.000    0.000    0.000 
#    0.000    0.000    0.000    0.000    0.000    0.000 
#
# Total GULP energy -1189387.741698 kJ/mol
# GULP energy per Si atom -12389.455643 kJ/mol
# Density = 1.990511 g / cm^3
# Si number density = 19.950519 Si / 1000 Ang^3
#
#
#
# Elastic Constant Matrix: (Units=GPa)
#
#
# Indices 1 2 3 4 5 6 
#
# 1 101.9980 44.3535 41.4313 0.0000 0.0000 0.0000
# 2 44.3535 101.9980 41.4313 0.0000 0.0000 0.0000
# 3 41.4313 41.4313 112.3846 0.0000 0.0000 0.0000
# 4 0.0000 0.0000 0.0000 15.0914 0.0000 0.0000
# 5 0.0000 0.0000 0.0000 0.0000 15.0914 0.0000
# 6 0.0000 0.0000 0.0000 0.0000 0.0000 25.8977
#
#
#
# Elastic Compliance Matrix: (Units=1/GPa)
#
#
# Indices 1 2 3 4 5 6 
#
# 1 0.012992 -0.004356 -0.003183 0.000000 0.000000 0.000000
# 2 -0.004356 0.012992 -0.003183 0.000000 0.000000 0.000000
# 3 -0.003183 -0.003183 0.011245 0.000000 0.000000 0.000000
# 4 0.000000 0.000000 0.000000 0.066263 0.000000 0.000000
# 5 0.000000 0.000000 0.000000 0.000000 0.066263 0.000000
# 6 0.000000 0.000000 0.000000 0.000000 0.000000 0.038613
#
#
# Mechanical properties :
#
#
# Convention : Reuss Voigt Hill
#
# Bulk Modulus (GPa) = 63.36335 63.42363 63.39349
# Shear Modulus (GPa) = 21.26985 23.82706 22.54845
#
# Velocity S-wave (km/s) = 3.26871 3.45962 3.36552
# Velocity P-wave (km/s) = 6.78787 6.91507 6.85176
#
# Compressibility (1/GPa) = 0.01578199
#
# Stress axis : x y z
#
# Youngs Moduli (GPa) = 76.97334 76.97334 88.92668
#
# Poissons Ratio (x) = 0.33531 0.28309
# Poissons Ratio (y) = 0.33531 0.28309
# Poissons Ratio (z) = 0.24504 0.24504
#
# Static dielectric constant tensor:
#      x y z
#    x 2.991920 0.000000 0.000000 
#    y 0.000000 2.991920 0.000000 
#    z 0.000000 0.000000 -0.207200 
# 
# 
# High freq. dielectric constant tensor:
#      x y z
#    x 1.784670 0.000000 0.000000 
#    y 0.000000 1.784670 0.000000 
#    z 0.000000 0.000000 1.772580 
# 
# From -- ./inp_files/2936.got.cif
#   From: 2010.03.12/outbox.cif.g09.slc.cpg/sg126_2_cif.got.tgz:2936.got - 2010.04.06 16:55:23.
