data_PCOD8313337
_publ_section_title
;
Structure prediction by ZEFSAII (Michael W. Deem and Ramdas Pophale) SiO2 
 PCOD8313337
Probable space group: P 4/M C C
;
_chemical_formula_sum "Si O2"
_cell_formula_units_Z 64
_cell_length_a 13.897362
_cell_length_b 13.897362
_cell_length_c 15.170858
_cell_angle_alpha 90.000000
_cell_angle_beta 90.000000
_cell_angle_gamma 90.000000
_cell_volume 2930.049004
_symmetry_space_group_name_H-M "P 4/M C C"
_symmetry_group_IT_number 124
_symmetry_cell_setting 'tetragonal'
loop_
_space_group_symop_operation_xyz
x,y,z
-y,x,z
-x,-y,z
y,-x,z
x,-y,1/2-z
-x,y,1/2-z
y,x,1/2-z
-y,-x,1/2-z
-x,-y,-z
y,-x,-z
x,y,-z
-y,x,-z
-x,y,1/2+z
x,-y,1/2+z
-y,-x,1/2+z
y,x,1/2+z
loop_
_atom_site_type_symbol
_atom_site_label
_atom_site_fract_x
_atom_site_fract_y
_atom_site_fract_z
Si Si1 0.685681 0.879068 0.902831
Si Si2 0.886973 0.098632 0.645933
Si Si3 0.394285 0.768332 0.753815
Si Si4 0.932477 0.409238 0.600797
O O1 0.795770 0.841798 0.890024
O O2 0.613899 0.829784 0.834994
O O3 0.681555 0.995062 0.890109
O O4 0.649605 0.849598 0.000000
O O5 0.890698 0.109303 0.750000
O O6 0.989798 0.132514 0.611115
O O7 0.500000 0.720039 0.750000
O O8 0.314179 0.685822 0.750000
O O9 0.387583 0.840706 0.837108
O O10 0.895480 0.421674 0.500000
O O11 0.000000 0.500000 0.628423
#
# Coordination Sequence:
#
# PCOD8313337 Si02
#       4
#    16  16  16  16
#     4  11  24  39  64 100 133 175 230 288 350 419
#     4   9  20  37  56  84 132 187 227 264 328 413
#     4  12  27  45  70  99 137 184 235 299 364 431
#     4  10  22  44  73 102 134 171 221 289 362 429
#
# _framework density 21.842638000000001
#
# number of rings (size 3 to 8) (size 9 to 14) (size 15 to 20)
#    0.000    1.500    2.500    2.250   10.500    2.250 
#    0.000    1.250    0.000    0.000    0.000    3.500 
#    0.000    0.000    0.000    0.000    0.000    0.000 
#
# Total GULP energy -792845.675214 kJ/mol
# GULP energy per Si atom -12388.213675 kJ/mol
# Density = 2.179292 g / cm^3
# Si number density = 21.842638 Si / 1000 Ang^3
#
#
#
# Elastic Constant Matrix: (Units=GPa)
#
#
# Indices 1 2 3 4 5 6 
#
# 1 120.5374 35.6344 60.0739 0.0000 0.0000 0.0000
# 2 35.6344 120.5359 60.0742 0.0000 0.0000 0.0000
# 3 60.0739 60.0742 133.2310 0.0000 0.0000 0.0000
# 4 0.0000 0.0000 0.0000 14.3986 0.0000 0.0000
# 5 0.0000 0.0000 0.0000 0.0000 14.4003 0.0000
# 6 0.0000 0.0000 0.0000 0.0000 0.0000 34.8071
#
#
#
# Elastic Compliance Matrix: (Units=1/GPa)
#
#
# Indices 1 2 3 4 5 6 
#
# 1 0.010791 -0.000987 -0.004421 0.000000 0.000000 0.000000
# 2 -0.000987 0.010791 -0.004421 0.000000 0.000000 0.000000
# 3 -0.004421 -0.004421 0.011492 0.000000 0.000000 0.000000
# 4 0.000000 0.000000 0.000000 0.069451 0.000000 0.000000
# 5 0.000000 0.000000 0.000000 0.000000 0.069443 0.000000
# 6 0.000000 0.000000 0.000000 0.000000 0.000000 0.028730
#
#
# Mechanical properties :
#
#
# Convention : Reuss Voigt Hill
#
# Bulk Modulus (GPa) = 74.52714 76.20771 75.36743
# Shear Modulus (GPa) = 22.23916 27.28931 24.76423
#
# Velocity S-wave (km/s) = 3.19431 3.53846 3.37078
# Velocity P-wave (km/s) = 6.91368 7.18745 7.05189
#
# Compressibility (1/GPa) = 0.01341793
#
# Stress axis : x y z
#
# Youngs Moduli (GPa) = 92.66834 92.66658 87.01386
#
# Poissons Ratio (x) = 0.09146 0.38466
# Poissons Ratio (y) = 0.09146 0.38467
# Poissons Ratio (z) = 0.40966 0.40966
#
# Static dielectric constant tensor:
#      x y z
#    x 4.028580 0.000000 0.000000 
#    y 0.000000 4.028570 0.000000 
#    z 0.000000 0.000000 3.874110 
# 
# 
# High freq. dielectric constant tensor:
#      x y z
#    x 1.846090 0.000000 0.000000 
#    y 0.000000 1.846090 0.000000 
#    z 0.000000 0.000000 1.859890 
# 
# From -- ./inp_files/2954.got.cif
#   From: 2010.03.12/outbox.cif.g09.slc.cpg/sg124_2_cif.got.tgz:2954.got - 2010.04.06 16:38:57.
