data_PCOD8313533
_publ_section_title
;
Structure prediction by ZEFSAII (Michael W. Deem and Ramdas Pophale) SiO2 
 PCOD8313533
Probable space group: P 4/N B M
;
_chemical_formula_sum "Si O2"
_cell_formula_units_Z 76
_cell_length_a 12.007852
_cell_length_b 12.007852
_cell_length_c 29.088863
_cell_angle_alpha 90.000000
_cell_angle_beta 90.000000
_cell_angle_gamma 90.000000
_cell_volume 4194.279803
_symmetry_space_group_name_H-M "P 4/N B M"
_symmetry_group_IT_number 125
_space_group.IT_coordinate_system_code '2'
_symmetry_cell_setting 'tetragonal'
loop_
_space_group_symop_operation_xyz
x,y,z
1/2-y,x,z
1/2-x,1/2-y,z
y,1/2-x,z
x,1/2-y,-z
1/2-x,y,-z
y,x,-z
1/2-y,1/2-x,-z
-x,-y,-z
1/2+y,-x,-z
1/2+x,1/2+y,-z
-y,1/2+x,-z
-x,1/2+y,z
1/2+x,-y,z
-y,-x,z
1/2+y,1/2+x,z
loop_
_atom_site_type_symbol
_atom_site_label
_atom_site_fract_x
_atom_site_fract_y
_atom_site_fract_z
Si Si1 0.230810 0.072254 0.446281
Si Si2 0.750000 0.079079 0.000000
Si Si3 0.750000 0.250000 0.681581
Si Si4 0.572609 0.712885 0.918404
Si Si5 0.338356 0.661645 0.769356
Si Si6 0.163631 0.836370 0.406701
Si Si7 0.430643 0.287032 0.185227
O O1 0.346889 0.129244 0.431613
O O2 0.250000 0.050796 0.500000
O O3 0.201791 0.958417 0.421278
O O4 0.691939 0.014662 0.958372
O O5 0.654137 0.154137 0.022966
O O6 0.827960 0.327960 0.713881
O O7 0.827676 0.172325 0.648977
O O8 0.665053 0.620426 0.925697
O O9 0.523865 0.702599 0.866981
O O10 0.250000 0.750000 0.792092
O O11 0.307998 0.535197 0.782057
O O12 0.250000 0.750000 0.430092
O O13 0.335355 0.379476 0.194235
#
# Coordination Sequence:
#
# PCOD8313533 Si02
#       7
#    16   8   4  16   8   8  16
#     4   9  20  36  56  88 126 162 208 259 296 334
#     4  11  24  35  44  72 116 147 178 209 246 310
#     4   8  24  42  51  92 118 153 190 246 296 364
#     4   9  19  37  57  77 103 137 176 217 263 318
#     4  10  22  39  62  85 113 151 184 235 311 344
#     4  10  22  35  59  80 117 163 208 237 295 355
#     4   9  20  39  63  90 114 141 187 238 288 353
#
# _framework density 18.119916
#
# number of rings (size 3 to 8) (size 9 to 14) (size 15 to 20)
#    0.632    2.000    0.000    2.526    5.895    4.211 
#    3.789    4.211    0.000    2.526    0.000    0.000 
#    0.000    0.000    0.000    0.000    0.000    0.000 
#
# Total GULP energy -941581.154823 kJ/mol
# GULP energy per Si atom -12389.225721 kJ/mol
# Density = 1.807867 g / cm^3
# Si number density = 18.119916 Si / 1000 Ang^3
#
#
#
# Elastic Constant Matrix: (Units=GPa)
#
#
# Indices 1 2 3 4 5 6 
#
# 1 124.6618 56.0170 62.6948 0.0000 0.0000 0.0000
# 2 56.0170 124.6618 62.6948 0.0000 0.0000 0.0000
# 3 62.6948 62.6948 99.9133 0.0000 0.0000 0.0000
# 4 0.0000 0.0000 0.0000 11.1965 0.0000 0.0000
# 5 0.0000 0.0000 0.0000 0.0000 11.1965 0.0000
# 6 0.0000 0.0000 0.0000 0.0000 0.0000 16.3453
#
#
#
# Elastic Compliance Matrix: (Units=1/GPa)
#
#
# Indices 1 2 3 4 5 6 
#
# 1 0.012186 -0.002382 -0.006152 0.000000 0.000000 0.000000
# 2 -0.002382 0.012186 -0.006152 0.000000 0.000000 0.000000
# 3 -0.006152 -0.006152 0.017729 0.000000 0.000000 0.000000
# 4 0.000000 0.000000 0.000000 0.089313 0.000000 0.000000
# 5 0.000000 0.000000 0.000000 0.000000 0.089313 0.000000
# 6 0.000000 0.000000 0.000000 0.000000 0.000000 0.061180
#
#
# Mechanical properties :
#
#
# Convention : Reuss Voigt Hill
#
# Bulk Modulus (GPa) = 78.55730 79.11668 78.83699
# Shear Modulus (GPa) = 15.84674 18.93636 17.39155
#
# Velocity S-wave (km/s) = 2.96048 3.23624 3.10143
# Velocity P-wave (km/s) = 7.42524 7.59750 7.51186
#
# Compressibility (1/GPa) = 0.01272956
#
# Stress axis : x y z
#
# Youngs Moduli (GPa) = 82.06175 82.06175 56.40367
#
# Poissons Ratio (x) = 0.19546 0.34700
# Poissons Ratio (y) = 0.19546 0.34700
# Poissons Ratio (z) = 0.50484 0.50484
#
# Static dielectric constant tensor:
#      x y z
#    x 3.318750 0.000000 0.000000 
#    y 0.000000 3.318750 0.000000 
#    z 0.000000 0.000000 3.116700 
# 
# 
# High freq. dielectric constant tensor:
#      x y z
#    x 1.705860 0.000000 0.000000 
#    y 0.000000 1.705860 0.000000 
#    z 0.000000 0.000000 1.677700 
# 
# From -- ./inp_files/6499.got.cif
#   From: 2010.03.12/outbox.cif.g09.slc.cpg/sg125_4_cif.got.tgz:6499.got - 2010.04.06 16:47:52.
