data_PCOD8313492
_publ_section_title
;
Structure prediction by ZEFSAII (Michael W. Deem and Ramdas Pophale) SiO2 
 PCOD8313492
Probable space group: P 4/N B M
;
_chemical_formula_sum "Si O2"
_cell_formula_units_Z 96
_cell_length_a 22.823116
_cell_length_b 22.823116
_cell_length_c 9.792084
_cell_angle_alpha 90.000000
_cell_angle_beta 90.000000
_cell_angle_gamma 90.000000
_cell_volume 5100.643913
_symmetry_space_group_name_H-M "P 4/N B M"
_symmetry_group_IT_number 125
_space_group.IT_coordinate_system_code '2'
_symmetry_cell_setting 'tetragonal'
loop_
_space_group_symop_operation_xyz
x,y,z
1/2-y,x,z
1/2-x,1/2-y,z
y,1/2-x,z
x,1/2-y,-z
1/2-x,y,-z
y,x,-z
1/2-y,1/2-x,-z
-x,-y,-z
1/2+y,-x,-z
1/2+x,1/2+y,-z
-y,1/2+x,-z
-x,1/2+y,z
1/2+x,-y,z
-y,-x,z
1/2+y,1/2+x,z
loop_
_atom_site_type_symbol
_atom_site_label
_atom_site_fract_x
_atom_site_fract_y
_atom_site_fract_z
Si Si1 0.515134 0.186325 0.431040
Si Si2 0.009759 0.894230 0.685176
Si Si3 0.078502 0.826743 0.887080
Si Si4 0.376701 0.402606 0.352882
Si Si5 0.183810 0.183319 0.841700
Si Si6 0.696551 0.398873 0.815590
O O1 0.507580 0.250000 0.500000
O O2 0.527617 0.138308 0.546094
O O3 0.457246 0.167581 0.347365
O O4 0.567960 0.182837 0.324178
O O5 0.048809 0.951192 0.706620
O O6 0.019168 0.847124 0.808987
O O7 0.944008 0.919141 0.678379
O O8 0.127401 0.872600 0.844284
O O9 0.105590 0.766137 0.831806
O O10 0.066141 0.826459 0.049889
O O11 0.371750 0.371750 0.500000
O O12 0.360458 0.356533 0.238987
O O13 0.250301 0.168710 0.802123
O O14 0.172649 0.172649 0.000000
O O15 0.665176 0.334825 0.810798
#
# Coordination Sequence:
#
# PCOD8313492 Si02
#       6
#    16  16  16  16  16  16
#     4  11  22  37  56  84 116 149 195 236 284 341
#     4  10  21  40  60  81 116 155 192 234 282 337
#     4   9  19  36  58  84 114 148 189 236 284 342
#     4  10  24  36  58  84 112 148 193 237 278 339
#     4   9  20  38  58  82 113 148 185 230 289 346
#     4  10  20  35  58  85 113 149 189 234 291 343
#
# _framework density 18.821152000000001
#
# number of rings (size 3 to 8) (size 9 to 14) (size 15 to 20)
#    0.000    2.167    1.667    1.000    4.667    5.333 
#    0.000    5.833    0.000    3.500    0.000    0.000 
#    0.000    0.000    0.000    0.000    0.000    0.000 
#
# Total GULP energy -1190050.094072 kJ/mol
# GULP energy per Si atom -12396.355147 kJ/mol
# Density = 1.877831 g / cm^3
# Si number density = 18.821152 Si / 1000 Ang^3
#
#
#
# Elastic Constant Matrix: (Units=GPa)
#
#
# Indices 1 2 3 4 5 6 
#
# 1 82.7999 45.1279 43.3036 0.0000 0.0000 0.0000
# 2 45.1279 82.7999 43.3036 0.0000 0.0000 0.0000
# 3 43.3036 43.3036 80.9633 0.0000 0.0000 0.0000
# 4 0.0000 0.0000 0.0000 30.1920 0.0000 0.0000
# 5 0.0000 0.0000 0.0000 0.0000 30.1920 0.0000
# 6 0.0000 0.0000 0.0000 0.0000 0.0000 25.6681
#
#
#
# Elastic Compliance Matrix: (Units=1/GPa)
#
#
# Indices 1 2 3 4 5 6 
#
# 1 0.019399 -0.007145 -0.006554 0.000000 0.000000 0.000000
# 2 -0.007145 0.019399 -0.006554 0.000000 0.000000 0.000000
# 3 -0.006554 -0.006554 0.019362 0.000000 0.000000 0.000000
# 4 0.000000 0.000000 0.000000 0.033121 0.000000 0.000000
# 5 0.000000 0.000000 0.000000 0.000000 0.033121 0.000000
# 6 0.000000 0.000000 0.000000 0.000000 0.000000 0.038959
#
#
# Mechanical properties :
#
#
# Convention : Reuss Voigt Hill
#
# Bulk Modulus (GPa) = 56.64484 56.67038 56.65761
# Shear Modulus (GPa) = 23.83734 24.86561 24.35148
#
# Velocity S-wave (km/s) = 3.56268 3.63871 3.60089
# Velocity P-wave (km/s) = 6.86187 6.91585 6.88891
#
# Compressibility (1/GPa) = 0.01765386
#
# Stress axis : x y z
#
# Youngs Moduli (GPa) = 51.54777 51.54777 51.64675
#
# Poissons Ratio (x) = 0.36833 0.33850
# Poissons Ratio (y) = 0.36833 0.33850
# Poissons Ratio (z) = 0.33785 0.33785
#
# Static dielectric constant tensor:
#      x y z
#    x 3.426420 0.000000 0.000000 
#    y 0.000000 3.426420 0.000000 
#    z 0.000000 0.000000 3.628480 
# 
# 
# High freq. dielectric constant tensor:
#      x y z
#    x 1.726680 0.000000 0.000000 
#    y 0.000000 1.726680 0.000000 
#    z 0.000000 0.000000 1.741420 
# 
# From -- ./inp_files/2844.got.cif
#   From: 2010.03.12/outbox.cif.g09.slc.cpg/sg125_2_cif.got.tgz:2844.got - 2010.04.06 16:47:52.
