data_PCOD8313553
_publ_section_title
;
Structure prediction by ZEFSAII (Michael W. Deem and Ramdas Pophale) SiO2 
 PCOD8313553
Probable space group: P 4/N B M
;
_chemical_formula_sum "Si O2"
_cell_formula_units_Z 96
_cell_length_a 14.222590
_cell_length_b 14.222590
_cell_length_c 21.932865
_cell_angle_alpha 90.000000
_cell_angle_beta 90.000000
_cell_angle_gamma 90.000000
_cell_volume 4436.625252
_symmetry_space_group_name_H-M "P 4/N B M"
_symmetry_group_IT_number 125
_space_group.IT_coordinate_system_code '2'
_symmetry_cell_setting 'tetragonal'
loop_
_space_group_symop_operation_xyz
x,y,z
1/2-y,x,z
1/2-x,1/2-y,z
y,1/2-x,z
x,1/2-y,-z
1/2-x,y,-z
y,x,-z
1/2-y,1/2-x,-z
-x,-y,-z
1/2+y,-x,-z
1/2+x,1/2+y,-z
-y,1/2+x,-z
-x,1/2+y,z
1/2+x,-y,z
-y,-x,z
1/2+y,1/2+x,z
loop_
_atom_site_type_symbol
_atom_site_label
_atom_site_fract_x
_atom_site_fract_y
_atom_site_fract_z
Si Si1 0.674934 0.325067 0.841796
Si Si2 0.148457 0.005972 0.527705
Si Si3 0.472135 0.681762 0.665678
Si Si4 0.170600 0.670600 0.706458
Si Si5 0.903707 0.947979 0.105059
Si Si6 0.118289 0.167434 0.230815
Si Si7 0.722732 0.479381 0.935188
O O1 0.750000 0.250000 0.822625
O O2 0.639431 0.360570 0.775561
O O3 0.725817 0.405011 0.880775
O O4 0.250000 0.988817 0.500000
O O5 0.099649 0.099649 0.500000
O O6 0.166398 0.016230 0.599371
O O7 0.084373 0.915628 0.512427
O O8 0.389395 0.610606 0.680304
O O9 0.425210 0.786878 0.674892
O O10 0.558658 0.651552 0.708419
O O11 0.250000 0.750000 0.703700
O O12 0.887301 0.931733 0.176148
O O13 0.802198 0.942093 0.073992
O O14 0.970577 0.877332 0.068089
O O15 0.949194 0.050806 0.097872
O O16 0.220591 0.122494 0.227767
O O17 0.750000 0.430948 0.000000
#
# Coordination Sequence:
#
# PCOD8313553 Si02
#       7
#     8  16  16   8  16  16  16
#     4  11  24  42  67 101 143 175 224 296 354 418
#     4  10  24  44  68 103 145 190 240 292 351 424
#     4  10  22  42  69 101 138 178 229 284 345 422
#     4   9  20  40  66 101 136 172 223 280 349 405
#     4  12  25  46  69  96 134 175 226 284 350 416
#     4  11  24  43  66  95 131 171 225 283 345 415
#     4  12  27  43  68  98 132 180 228 280 350 431
#
# _framework density 21.638068000000001
#
# number of rings (size 3 to 8) (size 9 to 14) (size 15 to 20)
#    0.000    1.167    2.500    2.500    5.833    2.667 
#    1.500    0.833    0.000    0.000    0.000    0.000 
#    0.000    0.000    0.000    0.000    0.000    0.000 
#
# Total GULP energy -1189539.630428 kJ/mol
# GULP energy per Si atom -12391.037817 kJ/mol
# Density = 2.158882 g / cm^3
# Si number density = 21.638068 Si / 1000 Ang^3
#
#
#
# Elastic Constant Matrix: (Units=GPa)
#
#
# Indices 1 2 3 4 5 6 
#
# 1 84.1326 23.2463 42.8012 0.0000 0.0000 0.0000
# 2 23.2463 84.1326 42.8012 0.0000 0.0000 0.0000
# 3 42.8012 42.8012 117.3837 0.0000 0.0000 0.0000
# 4 0.0000 0.0000 0.0000 27.3415 0.0000 0.0000
# 5 0.0000 0.0000 0.0000 0.0000 27.3415 0.0000
# 6 0.0000 0.0000 0.0000 0.0000 0.0000 28.8991
#
#
#
# Elastic Compliance Matrix: (Units=1/GPa)
#
#
# Indices 1 2 3 4 5 6 
#
# 1 0.014777 -0.001647 -0.004787 0.000000 0.000000 0.000000
# 2 -0.001647 0.014777 -0.004787 0.000000 0.000000 0.000000
# 3 -0.004787 -0.004787 0.012010 0.000000 0.000000 0.000000
# 4 0.000000 0.000000 0.000000 0.036574 0.000000 0.000000
# 5 0.000000 0.000000 0.000000 0.000000 0.036574 0.000000
# 6 0.000000 0.000000 0.000000 0.000000 0.000000 0.034603
#
#
# Mechanical properties :
#
#
# Convention : Reuss Voigt Hill
#
# Bulk Modulus (GPa) = 52.30237 55.92735 54.11486
# Shear Modulus (GPa) = 28.06898 28.50310 28.28604
#
# Velocity S-wave (km/s) = 3.60558 3.63335 3.61949
# Velocity P-wave (km/s) = 6.44651 6.59580 6.52158
#
# Compressibility (1/GPa) = 0.01911959
#
# Stress axis : x y z
#
# Youngs Moduli (GPa) = 67.67442 67.67442 83.26262
#
# Poissons Ratio (x) = 0.11149 0.39860
# Poissons Ratio (y) = 0.11149 0.39860
# Poissons Ratio (z) = 0.32397 0.32397
#
# Static dielectric constant tensor:
#      x y z
#    x 4.056130 0.000000 0.000000 
#    y 0.000000 4.056130 0.000000 
#    z 0.000000 0.000000 4.714830 
# 
# 
# High freq. dielectric constant tensor:
#      x y z
#    x 1.850820 0.000000 0.000000 
#    y 0.000000 1.850820 0.000000 
#    z 0.000000 0.000000 1.856720 
# 
# From -- ./inp_files/5969.got.cif
#   From: 2010.03.12/outbox.cif.g09.slc.cpg/sg125_3_cif.got.tgz:5969.got - 2010.04.06 16:47:52.
