data_PCOD8313448
_publ_section_title
;
Structure prediction by ZEFSAII (Michael W. Deem and Ramdas Pophale) SiO2 
 PCOD8313448
Probable space group: P 4/N B M
;
_chemical_formula_sum "Si O2"
_cell_formula_units_Z 72
_cell_length_a 20.600615
_cell_length_b 20.600615
_cell_length_c 9.414601
_cell_angle_alpha 90.000000
_cell_angle_beta 90.000000
_cell_angle_gamma 90.000000
_cell_volume 3995.418631
_symmetry_space_group_name_H-M "P 4/N B M"
_symmetry_group_IT_number 125
_space_group.IT_coordinate_system_code '2'
_symmetry_cell_setting 'tetragonal'
loop_
_space_group_symop_operation_xyz
x,y,z
1/2-y,x,z
1/2-x,1/2-y,z
y,1/2-x,z
x,1/2-y,-z
1/2-x,y,-z
y,x,-z
1/2-y,1/2-x,-z
-x,-y,-z
1/2+y,-x,-z
1/2+x,1/2+y,-z
-y,1/2+x,-z
-x,1/2+y,z
1/2+x,-y,z
-y,-x,z
1/2+y,1/2+x,z
loop_
_atom_site_type_symbol
_atom_site_label
_atom_site_fract_x
_atom_site_fract_y
_atom_site_fract_z
Si Si1 0.008315 0.404830 0.088879
Si Si2 0.423691 0.169019 0.330017
Si Si3 0.250000 0.645078 0.000000
Si Si4 0.432957 0.315789 0.343798
Si Si5 0.059533 0.661536 0.162318
O O1 0.022788 0.362607 0.228370
O O2 0.969098 0.469098 0.137676
O O3 0.072095 0.427906 0.000000
O O4 0.965008 0.358714 0.992586
O O5 0.410381 0.244260 0.296817
O O6 0.359029 0.128130 0.299293
O O7 0.448133 0.169232 0.491939
O O8 0.272633 0.600794 0.865620
O O9 0.189765 0.689765 0.948231
O O10 0.500111 0.331020 0.267719
O O11 0.105717 0.605717 0.227579
#
# Coordination Sequence:
#
# PCOD8313448 Si02
#       5
#    16  16   8  16  16
#     4  10  19  33  53  80 109 138 171 215 276 330
#     4  10  21  36  53  74 105 139 179 222 265 322
#     4   9  18  32  52  80 110 141 180 226 274 327
#     4  10  21  36  53  75 102 141 181 220 269 317
#     4  10  19  33  55  81 107 137 176 218 266 327
#
# _framework density 18.02064
#
# number of rings (size 3 to 8) (size 9 to 14) (size 15 to 20)
#    0.000    2.111    2.222    1.333    0.000    1.333 
#    0.000    4.444    0.000    1.333    0.000    0.000 
#    0.000    7.111    0.000    0.000    0.000    0.000 
#
# Total GULP energy -892325.207467 kJ/mol
# GULP energy per Si atom -12393.405659 kJ/mol
# Density = 1.797962 g / cm^3
# Si number density = 18.020640 Si / 1000 Ang^3
#
#
#
# Elastic Constant Matrix: (Units=GPa)
#
#
# Indices 1 2 3 4 5 6 
#
# 1 127.4940 71.9190 55.8875 0.0000 0.0000 0.0000
# 2 71.9190 127.4926 55.8868 0.0000 0.0000 0.0000
# 3 55.8875 55.8868 71.4426 0.0000 0.0000 0.0000
# 4 0.0000 0.0000 0.0000 31.6996 0.0000 0.0000
# 5 0.0000 0.0000 0.0000 0.0000 31.6994 0.0000
# 6 0.0000 0.0000 0.0000 0.0000 0.0000 27.2964
#
#
#
# Elastic Compliance Matrix: (Units=1/GPa)
#
#
# Indices 1 2 3 4 5 6 
#
# 1 0.013462 -0.004532 -0.006986 0.000000 0.000000 0.000000
# 2 -0.004532 0.013462 -0.006986 0.000000 0.000000 0.000000
# 3 -0.006986 -0.006986 0.024927 0.000000 0.000000 0.000000
# 4 0.000000 0.000000 0.000000 0.031546 0.000000 0.000000
# 5 0.000000 0.000000 0.000000 0.000000 0.031546 0.000000
# 6 0.000000 0.000000 0.000000 0.000000 0.000000 0.036635
#
#
# Mechanical properties :
#
#
# Convention : Reuss Voigt Hill
#
# Bulk Modulus (GPa) = 67.36726 77.09066 72.22896
# Shear Modulus (GPa) = 25.83518 27.65482 26.74500
#
# Velocity S-wave (km/s) = 3.79046 3.92167 3.85662
# Velocity P-wave (km/s) = 7.52471 7.96103 7.74594
#
# Compressibility (1/GPa) = 0.01484401
#
# Stress axis : x y z
#
# Youngs Moduli (GPa) = 74.28198 74.28167 40.11686
#
# Poissons Ratio (x) = 0.33662 0.28026
# Poissons Ratio (y) = 0.33662 0.28026
# Poissons Ratio (z) = 0.51894 0.51893
#
# Static dielectric constant tensor:
#      x y z
#    x 3.508390 0.000000 0.000000 
#    y 0.000000 3.508380 0.000000 
#    z 0.000000 0.000000 3.135380 
# 
# 
# High freq. dielectric constant tensor:
#      x y z
#    x 1.707550 0.000000 0.000000 
#    y 0.000000 1.707550 0.000000 
#    z 0.000000 0.000000 1.674180 
# 
# From -- ./inp_files/2585.got.cif
#   From: 2010.03.12/outbox.cif.g09.slc.cpg/sg125_2_cif.got.tgz:2585.got - 2010.04.06 16:47:52.
