data_PCOD8313803
_publ_section_title
;
Structure prediction by ZEFSAII (Michael W. Deem and Ramdas Pophale) SiO2 
 PCOD8313803
Probable space group: P 4/N N C
;
_chemical_formula_sum "Si O2"
_cell_formula_units_Z 112
_cell_length_a 14.395579
_cell_length_b 14.395579
_cell_length_c 23.839792
_cell_angle_alpha 90.000000
_cell_angle_beta 90.000000
_cell_angle_gamma 90.000000
_cell_volume 4940.384338
_symmetry_space_group_name_H-M "P 4/N N C"
_symmetry_group_IT_number 126
_space_group.IT_coordinate_system_code '2'
_symmetry_cell_setting 'tetragonal'
loop_
_space_group_symop_operation_xyz
x,y,z
1/2-y,x,z
1/2-x,1/2-y,z
y,1/2-x,z
x,1/2-y,1/2-z
1/2-x,y,1/2-z
y,x,1/2-z
1/2-y,1/2-x,1/2-z
-x,-y,-z
1/2+y,-x,-z
1/2+x,1/2+y,-z
-y,1/2+x,-z
-x,1/2+y,1/2+z
1/2+x,-y,1/2+z
-y,-x,1/2+z
1/2+y,1/2+x,1/2+z
loop_
_atom_site_type_symbol
_atom_site_label
_atom_site_fract_x
_atom_site_fract_y
_atom_site_fract_z
Si Si1 0.494318 0.149338 0.222562
Si Si2 0.168844 0.379274 0.019787
Si Si3 0.140953 0.511719 0.738057
Si Si4 0.016944 0.114632 0.402308
Si Si5 0.508766 0.318142 0.616629
Si Si6 0.040913 0.122291 0.908665
Si Si7 0.890251 0.188178 0.502465
O O1 0.498325 0.250000 0.250000
O O2 0.477191 0.168190 0.156519
O O3 0.412201 0.087800 0.250000
O O4 0.593145 0.096048 0.228076
O O5 0.123506 0.277934 0.013230
O O6 0.123334 0.409229 0.078920
O O7 0.138680 0.457378 0.975326
O O8 0.250000 0.496382 0.750000
O O9 0.084104 0.415897 0.750000
O O10 0.134860 0.546527 0.673279
O O11 0.960495 0.171949 0.450378
O O12 0.968453 0.016530 0.392563
O O13 0.501410 0.207644 0.625607
O O14 0.402128 0.353571 0.608799
O O15 0.568430 0.345931 0.561934
O O16 0.797247 0.130438 0.490977
#
# Coordination Sequence:
#
# PCOD8313803 Si02
#       7
#    16  16  16  16  16  16  16
#     4  11  28  52  75 107 144 196 257 316 369 440
#     4  11  24  41  63 103 142 176 224 282 351 423
#     4  11  25  49  71 106 146 195 253 302 366 440
#     4  12  25  44  74 100 141 183 241 283 374 419
#     4  12  24  41  71  94 144 176 233 292 352 422
#     4  12  22  41  64 105 133 188 219 285 354 426
#     4  11  25  43  67 105 141 179 228 293 355 428
#
# _framework density 22.670300999999998
#
# number of rings (size 3 to 8) (size 9 to 14) (size 15 to 20)
#    0.000    0.571    4.286    3.857    4.000    0.857 
#    0.000    1.429    0.000    0.000    0.000    0.000 
#    0.000    0.000    0.000    0.000    0.000    0.000 
#
# Total GULP energy -1387882.028066 kJ/mol
# GULP energy per Si atom -12391.803822 kJ/mol
# Density = 2.261870 g / cm^3
# Si number density = 22.670301 Si / 1000 Ang^3
#
#
#
# Elastic Constant Matrix: (Units=GPa)
#
#
# Indices 1 2 3 4 5 6 
#
# 1 94.3484 27.3137 25.4038 0.0000 0.0000 0.0000
# 2 27.3137 94.3494 25.4036 0.0000 0.0000 0.0000
# 3 25.4038 25.4036 159.8776 0.0000 0.0000 0.0000
# 4 0.0000 0.0000 0.0000 31.5036 0.0000 0.0000
# 5 0.0000 0.0000 0.0000 0.0000 31.5036 0.0000
# 6 0.0000 0.0000 0.0000 0.0000 0.0000 33.3200
#
#
#
# Elastic Compliance Matrix: (Units=1/GPa)
#
#
# Indices 1 2 3 4 5 6 
#
# 1 0.011861 -0.003057 -0.001399 0.000000 0.000000 0.000000
# 2 -0.003057 0.011861 -0.001399 0.000000 0.000000 0.000000
# 3 -0.001399 -0.001399 0.006699 0.000000 0.000000 0.000000
# 4 0.000000 0.000000 0.000000 0.031742 0.000000 0.000000
# 5 0.000000 0.000000 0.000000 0.000000 0.031742 0.000000
# 6 0.000000 0.000000 0.000000 0.000000 0.000000 0.030012
#
#
# Mechanical properties :
#
#
# Convention : Reuss Voigt Hill
#
# Bulk Modulus (GPa) = 53.44399 56.09084 54.76741
# Shear Modulus (GPa) = 35.24513 37.29574 36.27044
#
# Velocity S-wave (km/s) = 3.94722 4.06043 4.00423
# Velocity P-wave (km/s) = 6.66331 6.83948 6.75197
#
# Compressibility (1/GPa) = 0.01871118
#
# Stress axis : x y z
#
# Youngs Moduli (GPa) = 84.31244 84.31341 149.26873
#
# Poissons Ratio (x) = 0.25774 0.20881
# Poissons Ratio (y) = 0.25774 0.20880
# Poissons Ratio (z) = 0.11794 0.11794
#
# Static dielectric constant tensor:
#      x y z
#    x 4.216060 0.000000 0.000000 
#    y 0.000000 4.216060 0.000000 
#    z 0.000000 0.000000 4.391940 
# 
# 
# High freq. dielectric constant tensor:
#      x y z
#    x 1.896960 0.000000 0.000000 
#    y 0.000000 1.896960 0.000000 
#    z 0.000000 0.000000 1.902040 
# 
# From -- ./inp_files/5811.got.cif
#   From: 2010.03.12/outbox.cif.g09.slc.cpg/sg126_3_cif.got.tgz:5811.got - 2010.04.06 16:55:23.
