data_PCOD8313780
_publ_section_title
;
Structure prediction by ZEFSAII (Michael W. Deem and Ramdas Pophale) SiO2 
 PCOD8313780
Probable space group: P 4/N N C
;
_chemical_formula_sum "Si O2"
_cell_formula_units_Z 80
_cell_length_a 10.969356
_cell_length_b 10.969356
_cell_length_c 30.570517
_cell_angle_alpha 90.000000
_cell_angle_beta 90.000000
_cell_angle_gamma 90.000000
_cell_volume 3678.451600
_symmetry_space_group_name_H-M "P 4/N N C"
_symmetry_group_IT_number 126
_space_group.IT_coordinate_system_code '2'
_symmetry_cell_setting 'tetragonal'
loop_
_space_group_symop_operation_xyz
x,y,z
1/2-y,x,z
1/2-x,1/2-y,z
y,1/2-x,z
x,1/2-y,1/2-z
1/2-x,y,1/2-z
y,x,1/2-z
1/2-y,1/2-x,1/2-z
-x,-y,-z
1/2+y,-x,-z
1/2+x,1/2+y,-z
-y,1/2+x,-z
-x,1/2+y,1/2+z
1/2+x,-y,1/2+z
-y,-x,1/2+z
1/2+y,1/2+x,1/2+z
loop_
_atom_site_type_symbol
_atom_site_label
_atom_site_fract_x
_atom_site_fract_y
_atom_site_fract_z
Si Si1 0.718138 0.943712 0.905341
Si Si2 0.089639 0.354254 0.800614
Si Si3 0.769218 0.448669 0.998856
Si Si4 0.667767 0.142450 0.349648
Si Si5 0.554843 0.759449 0.408604
O O1 0.611590 0.849261 0.894254
O O2 0.701532 0.974008 0.956132
O O3 0.707736 0.060174 0.874941
O O4 0.085235 0.213383 0.819237
O O5 0.116367 0.383634 0.750000
O O6 0.954074 0.395422 0.815210
O O7 0.879189 0.356980 0.008418
O O8 0.760649 0.540382 0.039318
O O9 0.750000 0.250000 0.327040
O O10 0.755542 0.075820 0.384913
O O11 0.622988 0.633884 0.394522
#
# Coordination Sequence:
#
# PCOD8313780 Si02
#       5
#    16  16  16  16  16
#     4  11  26  43  60  85 130 189 237 279 343 416
#     4   9  20  43  75 105 137 167 205 272 353 414
#     4  11  22  37  59  88 123 174 238 304 355 402
#     4  12  25  39  67 102 137 176 225 280 342 408
#     4  11  24  39  61  92 126 173 238 297 353 399
#
# _framework density 21.748280999999999
#
# number of rings (size 3 to 8) (size 9 to 14) (size 15 to 20)
#    0.000    1.200    2.000    4.200    8.400    4.800 
#    0.000    2.000    0.000    0.000    0.000    1.400 
#    0.000    0.000    0.000    0.000    0.000    0.000 
#
# Total GULP energy -991422.443400 kJ/mol
# GULP energy per Si atom -12392.780543 kJ/mol
# Density = 2.169878 g / cm^3
# Si number density = 21.748281 Si / 1000 Ang^3
#
#
#
# Elastic Constant Matrix: (Units=GPa)
#
#
# Indices 1 2 3 4 5 6 
#
# 1 97.3955 35.9248 19.6047 0.0000 0.0000 0.0000
# 2 35.9248 97.3955 19.6048 0.0000 0.0000 0.0000
# 3 19.6047 19.6048 54.3003 0.0000 0.0000 0.0000
# 4 0.0000 0.0000 0.0000 6.7713 0.0000 0.0000
# 5 0.0000 0.0000 0.0000 0.0000 6.7684 0.0000
# 6 0.0000 0.0000 0.0000 0.0000 0.0000 15.5076
#
#
#
# Elastic Compliance Matrix: (Units=1/GPa)
#
#
# Indices 1 2 3 4 5 6 
#
# 1 0.012330 -0.003938 -0.003030 0.000000 0.000000 0.000000
# 2 -0.003938 0.012330 -0.003030 0.000000 0.000000 0.000000
# 3 -0.003030 -0.003030 0.020604 0.000000 0.000000 0.000000
# 4 0.000000 0.000000 0.000000 0.147682 0.000000 0.000000
# 5 0.000000 0.000000 0.000000 0.000000 0.147746 0.000000
# 6 0.000000 0.000000 0.000000 0.000000 0.000000 0.064485
#
#
# Mechanical properties :
#
#
# Convention : Reuss Voigt Hill
#
# Bulk Modulus (GPa) = 39.57532 44.37332 41.97432
# Shear Modulus (GPa) = 11.53151 17.40658 14.46905
#
# Velocity S-wave (km/s) = 2.30516 2.83214 2.58213
# Velocity P-wave (km/s) = 5.03205 5.58051 5.31336
#
# Compressibility (1/GPa) = 0.02526827
#
# Stress axis : x y z
#
# Youngs Moduli (GPa) = 81.10400 81.10401 48.53451
#
# Poissons Ratio (x) = 0.31939 0.14705
# Poissons Ratio (y) = 0.31939 0.14705
# Poissons Ratio (z) = 0.24573 0.24573
#
# Static dielectric constant tensor:
#      x y z
#    x 4.005270 0.000000 0.000000 
#    y 0.000000 4.005260 0.000000 
#    z 0.000000 0.000000 3.832420 
# 
# 
# High freq. dielectric constant tensor:
#      x y z
#    x 1.854440 0.000000 0.000000 
#    y 0.000000 1.854440 0.000000 
#    z 0.000000 0.000000 1.849880 
# 
# From -- ./inp_files/6427.got.cif
#   From: 2010.03.12/outbox.cif.g09.slc.cpg/sg126_4_cif.got.tgz:6427.got - 2010.04.06 16:55:23.
