data_PCOD8313272
_publ_section_title
;
Structure prediction by ZEFSAII (Michael W. Deem and Ramdas Pophale) SiO2 
 PCOD8313272
Probable space group: P 4/M C C
;
_chemical_formula_sum "Si O2"
_cell_formula_units_Z 96
_cell_length_a 18.231976
_cell_length_b 18.231976
_cell_length_c 15.041702
_cell_angle_alpha 90.000000
_cell_angle_beta 90.000000
_cell_angle_gamma 90.000000
_cell_volume 4999.936184
_symmetry_space_group_name_H-M "P 4/M C C"
_symmetry_group_IT_number 124
_symmetry_cell_setting 'tetragonal'
loop_
_space_group_symop_operation_xyz
x,y,z
-y,x,z
-x,-y,z
y,-x,z
x,-y,1/2-z
-x,y,1/2-z
y,x,1/2-z
-y,-x,1/2-z
-x,-y,-z
y,-x,-z
x,y,-z
-y,x,-z
-x,y,1/2+z
x,-y,1/2+z
-y,-x,1/2+z
y,x,1/2+z
loop_
_atom_site_type_symbol
_atom_site_label
_atom_site_fract_x
_atom_site_fract_y
_atom_site_fract_z
Si Si1 0.414698 0.121023 0.246110
Si Si2 0.460219 0.606972 0.395352
Si Si3 0.064891 0.693692 0.896920
Si Si4 0.633379 0.725092 0.183635
Si Si5 0.771882 0.794477 0.101766
Si Si6 0.304823 0.099274 0.603055
O O1 0.500000 0.099927 0.250000
O O2 0.377401 0.075005 0.165852
O O3 0.403441 0.207152 0.232922
O O4 0.379731 0.101835 0.341445
O O5 0.406376 0.542593 0.358239
O O6 0.462191 0.602074 0.500000
O O7 0.432417 0.686871 0.368906
O O8 0.122102 0.757248 0.864818
O O9 0.983262 0.726880 0.887652
O O10 0.081117 0.671187 0.000000
O O11 0.666634 0.666634 0.250000
O O12 0.697856 0.748957 0.116906
O O13 0.842588 0.753972 0.146074
O O14 0.792634 0.796768 0.000000
O O15 0.323249 0.117477 0.500000
#
# Coordination Sequence:
#
# PCOD8313272 Si02
#       6
#    16  16  16  16  16  16
#     4  11  24  38  53  81 114 143 184 234 278 323
#     4   9  20  37  54  73 100 138 181 227 284 344
#     4   9  20  37  59  83 112 148 184 223 274 330
#     4  11  21  33  53  75 105 134 181 226 277 324
#     4   9  18  35  56  80 107 138 180 226 264 319
#     4  10  20  37  59  83 110 149 187 220 274 333
#
# _framework density 19.200244999999999
#
# number of rings (size 3 to 8) (size 9 to 14) (size 15 to 20)
#    0.000    2.167    1.667    1.500    2.333    2.667 
#    0.000    2.500    0.000    0.500    0.000    3.500 
#    0.000    3.000    0.000    0.333    0.000    0.000 
#
# Total GULP energy -1189817.254777 kJ/mol
# GULP energy per Si atom -12393.929737 kJ/mol
# Density = 1.915654 g / cm^3
# Si number density = 19.200245 Si / 1000 Ang^3
#
#
#
# Elastic Constant Matrix: (Units=GPa)
#
#
# Indices 1 2 3 4 5 6 
#
# 1 103.9292 54.4269 35.2759 0.0000 0.0000 0.0000
# 2 54.4269 103.9292 35.2759 0.0000 0.0000 0.0000
# 3 35.2759 35.2759 51.0162 0.0000 0.0000 0.0000
# 4 0.0000 0.0000 0.0000 24.6055 0.0000 0.0000
# 5 0.0000 0.0000 0.0000 0.0000 24.6055 0.0000
# 6 0.0000 0.0000 0.0000 0.0000 0.0000 14.2921
#
#
#
# Elastic Compliance Matrix: (Units=1/GPa)
#
#
# Indices 1 2 3 4 5 6 
#
# 1 0.014664 -0.005537 -0.006311 0.000000 0.000000 0.000000
# 2 -0.005537 0.014664 -0.006311 0.000000 0.000000 0.000000
# 3 -0.006311 -0.006311 0.028329 0.000000 0.000000 0.000000
# 4 0.000000 0.000000 0.000000 0.040641 0.000000 0.000000
# 5 0.000000 0.000000 0.000000 0.000000 0.040641 0.000000
# 6 0.000000 0.000000 0.000000 0.000000 0.000000 0.069969
#
#
# Mechanical properties :
#
#
# Convention : Reuss Voigt Hill
#
# Bulk Modulus (GPa) = 46.86216 56.53688 51.69952
# Shear Modulus (GPa) = 19.81471 21.62701 20.72086
#
# Velocity S-wave (km/s) = 3.21597 3.35982 3.28868
# Velocity P-wave (km/s) = 6.18466 6.67540 6.43471
#
# Compressibility (1/GPa) = 0.02133918
#
# Stress axis : x y z
#
# Youngs Moduli (GPa) = 68.19537 68.19537 35.29992
#
# Poissons Ratio (x) = 0.37762 0.22276
# Poissons Ratio (y) = 0.37762 0.22276
# Poissons Ratio (z) = 0.43035 0.43035
#
# Static dielectric constant tensor:
#      x y z
#    x 3.689530 0.000000 0.000000 
#    y 0.000000 3.689530 0.000000 
#    z 0.000000 0.000000 3.531110 
# 
# 
# High freq. dielectric constant tensor:
#      x y z
#    x 1.739260 0.000000 0.000000 
#    y 0.000000 1.739260 0.000000 
#    z 0.000000 0.000000 1.751220 
# 
# From -- ./inp_files/4285.got.cif
#   From: 2010.03.12/outbox.cif.g09.slc.cpg/sg124_3_cif.got.tgz:4285.got - 2010.04.06 16:38:57.
