data_PCOD8313435
_publ_section_title
;
Structure prediction by ZEFSAII (Michael W. Deem and Ramdas Pophale) SiO2 
 PCOD8313435
Probable space group: P 4/N B M
;
_chemical_formula_sum "Si O2"
_cell_formula_units_Z 88
_cell_length_a 15.147404
_cell_length_b 15.147404
_cell_length_c 20.867993
_cell_angle_alpha 90.000000
_cell_angle_beta 90.000000
_cell_angle_gamma 90.000000
_cell_volume 4788.032613
_symmetry_space_group_name_H-M "P 4/N B M"
_symmetry_group_IT_number 125
_space_group.IT_coordinate_system_code '2'
_symmetry_cell_setting 'tetragonal'
loop_
_space_group_symop_operation_xyz
x,y,z
1/2-y,x,z
1/2-x,1/2-y,z
y,1/2-x,z
x,1/2-y,-z
1/2-x,y,-z
y,x,-z
1/2-y,1/2-x,-z
-x,-y,-z
1/2+y,-x,-z
1/2+x,1/2+y,-z
-y,1/2+x,-z
-x,1/2+y,z
1/2+x,-y,z
-y,-x,z
1/2+y,1/2+x,z
loop_
_atom_site_type_symbol
_atom_site_label
_atom_site_fract_x
_atom_site_fract_y
_atom_site_fract_z
Si Si1 0.860076 0.842689 0.926868
Si Si2 0.462322 0.814843 0.371862
Si Si3 0.872362 0.672153 0.303616
Si Si4 0.754452 0.108476 0.755374
Si Si5 0.250000 0.895323 0.500000
Si Si6 0.983688 0.629053 0.183835
O O1 0.760774 0.871351 0.910948
O O2 0.936315 0.887417 0.884365
O O3 0.873127 0.873127 0.000000
O O4 0.394230 0.894230 0.372553
O O5 0.559980 0.856091 0.360351
O O6 0.442637 0.748193 0.312631
O O7 0.457826 0.762076 0.438408
O O8 0.870087 0.777616 0.310500
O O9 0.906737 0.636910 0.235691
O O10 0.853694 0.146307 0.769675
O O11 0.691301 0.191301 0.749233
O O12 0.718735 0.043744 0.812011
O O13 0.335129 0.835129 0.512509
O O14 0.044818 0.544818 0.198912
#
# Coordination Sequence:
#
# PCOD8313435 Si02
#       6
#    16  16  16  16   8  16
#     4   9  18  34  54  72  95 132 173 205 237 287
#     4   9  17  31  50  73 101 129 167 218 259 300
#     4  10  20  35  53  70  94 131 170 206 252 309
#     4   8  14  26  44  67  98 133 162 194 245 303
#     4   9  16  28  50  77 104 138 174 207 254 314
#     4  10  19  31  50  77 105 127 157 208 257 298
#
# _framework density 18.379155999999998
#
# number of rings (size 3 to 8) (size 9 to 14) (size 15 to 20)
#    0.000    2.818    0.000    3.818    0.000    4.000 
#    0.000   14.545    0.000    4.364    0.000    0.000 
#    0.000    0.000    0.000    0.000    0.000    0.000 
#
# Total GULP energy -1090262.704878 kJ/mol
# GULP energy per Si atom -12389.348919 kJ/mol
# Density = 1.833732 g / cm^3
# Si number density = 18.379156 Si / 1000 Ang^3
#
#
#
# Elastic Constant Matrix: (Units=GPa)
#
#
# Indices 1 2 3 4 5 6 
#
# 1 65.4279 8.3167 37.8055 0.0000 0.0000 0.0000
# 2 8.3167 65.4279 37.8055 0.0000 0.0000 0.0000
# 3 37.8055 37.8055 111.2545 0.0000 0.0000 0.0000
# 4 0.0000 0.0000 0.0000 30.7129 0.0000 0.0000
# 5 0.0000 0.0000 0.0000 0.0000 30.7129 0.0000
# 6 0.0000 0.0000 0.0000 0.0000 0.0000 10.9046
#
#
#
# Elastic Compliance Matrix: (Units=1/GPa)
#
#
# Indices 1 2 3 4 5 6 
#
# 1 0.019160 0.001651 -0.007072 0.000000 0.000000 0.000000
# 2 0.001651 0.019160 -0.007072 0.000000 0.000000 0.000000
# 3 -0.007072 -0.007072 0.013795 0.000000 0.000000 0.000000
# 4 0.000000 0.000000 0.000000 0.032560 0.000000 0.000000
# 5 0.000000 0.000000 0.000000 0.000000 0.032560 0.000000
# 6 0.000000 0.000000 0.000000 0.000000 0.000000 0.091704
#
#
# Mechanical properties :
#
#
# Convention : Reuss Voigt Hill
#
# Bulk Modulus (GPa) = 36.86031 45.55176 41.20603
# Shear Modulus (GPa) = 20.57884 25.01158 22.79521
#
# Velocity S-wave (km/s) = 3.34980 3.69299 3.52557
# Velocity P-wave (km/s) = 5.92120 6.55916 6.24832
#
# Compressibility (1/GPa) = 0.02712945
#
# Stress axis : x y z
#
# Youngs Moduli (GPa) = 52.19091 52.19091 72.49220
#
# Poissons Ratio (x) = -0.08615 0.51265
# Poissons Ratio (y) = -0.08615 0.51265
# Poissons Ratio (z) = 0.36909 0.36909
#
# Static dielectric constant tensor:
#      x y z
#    x 3.414300 0.000000 0.000000 
#    y 0.000000 3.414300 0.000000 
#    z 0.000000 0.000000 3.308280 
# 
# 
# High freq. dielectric constant tensor:
#      x y z
#    x 1.704810 0.000000 0.000000 
#    y 0.000000 1.704810 0.000000 
#    z 0.000000 0.000000 1.693420 
# 
# From -- ./inp_files/5850.got.cif
#   From: 2010.03.12/outbox.cif.g09.slc.cpg/sg125_3_cif.got.tgz:5850.got - 2010.04.06 16:47:52.
