data_PCOD8313059
_publ_section_title
;
Structure prediction by ZEFSAII (Michael W. Deem and Ramdas Pophale) SiO2 
 PCOD8313059
Probable space group: P 4/M C C
;
_chemical_formula_sum "Si O2"
_cell_formula_units_Z 96
_cell_length_a 14.189763
_cell_length_b 14.189763
_cell_length_c 23.035019
_cell_angle_alpha 90.000000
_cell_angle_beta 90.000000
_cell_angle_gamma 90.000000
_cell_volume 4638.086656
_symmetry_space_group_name_H-M "P 4/M C C"
_symmetry_group_IT_number 124
_symmetry_cell_setting 'tetragonal'
loop_
_space_group_symop_operation_xyz
x,y,z
-y,x,z
-x,-y,z
y,-x,z
x,-y,1/2-z
-x,y,1/2-z
y,x,1/2-z
-y,-x,1/2-z
-x,-y,-z
y,-x,-z
x,y,-z
-y,x,-z
-x,y,1/2+z
x,-y,1/2+z
-y,-x,1/2+z
y,x,1/2+z
loop_
_atom_site_type_symbol
_atom_site_label
_atom_site_fract_x
_atom_site_fract_y
_atom_site_fract_z
Si Si1 0.313981 0.083895 0.000000
Si Si2 0.376881 0.777904 0.401993
Si Si3 0.063579 0.869611 0.375182
Si Si4 0.124917 0.111839 0.500000
Si Si5 0.457573 0.349705 0.000000
Si Si6 0.891139 0.509105 0.818296
Si Si7 0.662675 0.125972 0.000000
Si Si8 0.184743 0.683667 0.378094
O O1 0.337164 0.138765 0.058430
O O2 0.203855 0.057234 0.000000
O O3 0.366439 0.983634 0.000000
O O4 0.442004 0.710882 0.441623
O O5 0.432350 0.825214 0.349272
O O6 0.291997 0.718114 0.373385
O O7 0.048040 0.888772 0.443631
O O8 0.113786 0.770524 0.366214
O O9 0.956939 0.873856 0.348836
O O10 0.228667 0.157541 0.500000
O O11 0.564468 0.384254 0.000000
O O12 0.886076 0.500000 0.750000
O O13 0.844577 0.610623 0.829203
O O14 0.000000 0.500000 0.839890
O O15 0.626734 0.170681 0.939620
#
# Coordination Sequence:
#
# PCOD8313059 Si02
#       8
#     8  16  16   8   8  16   8  16
#     4  11  18  31  53  95 128 174 200 246 298 379
#     4  11  22  39  64  93 128 164 214 258 317 388
#     4  10  19  29  50  88 131 173 210 243 295 370
#     4  10  15  24  42  75 126 168 202 226 274 351
#     4  10  21  39  64  96 132 162 196 253 330 402
#     4  11  27  47  66  89 120 164 224 280 333 382
#     4  10  18  29  54  87 132 164 204 235 304 369
#     4  11  22  38  63  92 132 172 211 262 315 382
#
# _framework density 20.69819
#
# number of rings (size 3 to 8) (size 9 to 14) (size 15 to 20)
#    0.000    1.417    3.333    5.000    2.333    2.667 
#    0.000    2.917    0.000    0.000    0.000    1.167 
#    0.000    0.000    0.000    0.000    0.000    0.000 
#
# Total GULP energy -1189687.614333 kJ/mol
# GULP energy per Si atom -12392.579316 kJ/mol
# Density = 2.065108 g / cm^3
# Si number density = 20.698190 Si / 1000 Ang^3
#
#
#
# Elastic Constant Matrix: (Units=GPa)
#
#
# Indices 1 2 3 4 5 6 
#
# 1 119.2526 49.2626 46.7637 0.0000 0.0000 0.0000
# 2 49.2626 119.2526 46.7637 0.0000 0.0000 0.0000
# 3 46.7637 46.7637 77.1833 0.0000 0.0000 0.0000
# 4 0.0000 0.0000 0.0000 21.1307 0.0000 0.0000
# 5 0.0000 0.0000 0.0000 0.0000 21.1307 0.0000
# 6 0.0000 0.0000 0.0000 0.0000 0.0000 27.8014
#
#
#
# Elastic Compliance Matrix: (Units=1/GPa)
#
#
# Indices 1 2 3 4 5 6 
#
# 1 0.011614 -0.002674 -0.005417 0.000000 0.000000 0.000000
# 2 -0.002674 0.011614 -0.005417 0.000000 0.000000 0.000000
# 3 -0.005417 -0.005417 0.019520 0.000000 0.000000 0.000000
# 4 0.000000 0.000000 0.000000 0.047324 0.000000 0.000000
# 5 0.000000 0.000000 0.000000 0.000000 0.047324 0.000000
# 6 0.000000 0.000000 0.000000 0.000000 0.000000 0.035969
#
#
# Mechanical properties :
#
#
# Convention : Reuss Voigt Hill
#
# Bulk Modulus (GPa) = 63.55786 66.80762 65.18274
# Shear Modulus (GPa) = 24.31596 25.53915 24.92755
#
# Velocity S-wave (km/s) = 3.43124 3.51648 3.47412
# Velocity P-wave (km/s) = 6.81700 6.98818 6.90312
#
# Compressibility (1/GPa) = 0.01573370
#
# Stress axis : x y z
#
# Youngs Moduli (GPa) = 86.10159 86.10159 51.22913
#
# Poissons Ratio (x) = 0.23020 0.27750
# Poissons Ratio (y) = 0.23020 0.27750
# Poissons Ratio (z) = 0.46641 0.46641
#
# Static dielectric constant tensor:
#      x y z
#    x 3.823600 0.000000 0.000000 
#    y 0.000000 3.823600 0.000000 
#    z 0.000000 0.000000 3.462640 
# 
# 
# High freq. dielectric constant tensor:
#      x y z
#    x 1.821720 0.000000 0.000000 
#    y 0.000000 1.821720 0.000000 
#    z 0.000000 0.000000 1.763590 
# 
# From -- ./inp_files/5417.got.cif
#   From: 2010.03.12/outbox.cif.g09.slc.cpg/sg124_3_cif.got.tgz:5417.got - 2010.04.06 16:38:57.
