data_PCOD8313420
_publ_section_title
;
Structure prediction by ZEFSAII (Michael W. Deem and Ramdas Pophale) SiO2 
 PCOD8313420
Probable space group: P 4/N B M
;
_chemical_formula_sum "Si O2"
_cell_formula_units_Z 112
_cell_length_a 14.711646
_cell_length_b 14.711646
_cell_length_c 29.041540
_cell_angle_alpha 90.000000
_cell_angle_beta 90.000000
_cell_angle_gamma 90.000000
_cell_volume 6285.533920
_symmetry_space_group_name_H-M "P 4/N B M"
_symmetry_group_IT_number 125
_space_group.IT_coordinate_system_code '2'
_symmetry_cell_setting 'tetragonal'
loop_
_space_group_symop_operation_xyz
x,y,z
1/2-y,x,z
1/2-x,1/2-y,z
y,1/2-x,z
x,1/2-y,-z
1/2-x,y,-z
y,x,-z
1/2-y,1/2-x,-z
-x,-y,-z
1/2+y,-x,-z
1/2+x,1/2+y,-z
-y,1/2+x,-z
-x,1/2+y,z
1/2+x,-y,z
-y,-x,z
1/2+y,1/2+x,z
loop_
_atom_site_type_symbol
_atom_site_label
_atom_site_fract_x
_atom_site_fract_y
_atom_site_fract_z
Si Si1 0.602138 0.254537 0.550325
Si Si2 0.955317 0.196497 0.356603
Si Si3 0.852685 0.641186 0.051558
Si Si4 0.674483 0.174483 0.207270
Si Si5 0.986375 0.748330 0.188337
Si Si6 0.325404 0.674597 0.308179
Si Si7 0.073199 0.424616 0.142139
Si Si8 0.603257 0.716701 0.716283
O O1 0.553964 0.250000 0.500000
O O2 0.644796 0.355205 0.559795
O O3 0.685675 0.185675 0.550822
O O4 0.530559 0.222269 0.589432
O O5 0.894734 0.105267 0.350233
O O6 0.909312 0.285535 0.335601
O O7 0.050424 0.187961 0.330284
O O8 0.875699 0.746346 0.059517
O O9 0.905104 0.577239 0.087607
O O10 0.884689 0.615312 0.000000
O O11 0.750000 0.250000 0.210401
O O12 0.588300 0.215928 0.181693
O O13 0.642069 0.142069 0.258013
O O14 0.922442 0.831425 0.171931
O O15 0.979999 0.663160 0.154623
O O16 0.963125 0.711911 0.239605
O O17 0.250000 0.750000 0.302238
O O18 0.983273 0.483273 0.153391
O O19 0.682273 0.642676 0.717215
#
# Coordination Sequence:
#
# PCOD8313420 Si02
#       8
#    16  16  16   8  16   8  16  16
#     4   8  13  23  45  78 111 140 170 213 276 337
#     4  10  18  32  52  80 108 137 178 224 271 322
#     4   9  18  35  61  87 110 144 190 238 288 338
#     4  11  22  38  54  80 119 155 183 227 278 333
#     4  12  23  38  58  84 113 150 192 233 277 335
#     4   9  16  26  50  74 102 139 168 208 268 316
#     4  12  24  37  59  88 116 152 195 233 285 344
#     4  11  24  40  55  74 106 148 187 225 273 326
#
# _framework density 17.818694000000001
#
# number of rings (size 3 to 8) (size 9 to 14) (size 15 to 20)
#    0.000    1.714    5.714    1.286    0.000    1.143 
#    2.571    0.000    0.000    0.857    0.000    4.000 
#    0.000    2.286    0.000    0.000    0.000    0.000 
#
# Total GULP energy -1388257.673513 kJ/mol
# GULP energy per Si atom -12395.157799 kJ/mol
# Density = 1.777814 g / cm^3
# Si number density = 17.818694 Si / 1000 Ang^3
#
#
#
# Elastic Constant Matrix: (Units=GPa)
#
#
# Indices 1 2 3 4 5 6 
#
# 1 60.7319 19.7028 30.7544 0.0000 0.0000 0.0000
# 2 19.7028 60.7317 30.7544 0.0000 0.0000 0.0000
# 3 30.7544 30.7544 119.2241 0.0000 0.0000 0.0000
# 4 0.0000 0.0000 0.0000 29.2993 0.0000 0.0000
# 5 0.0000 0.0000 0.0000 0.0000 29.2992 0.0000
# 6 0.0000 0.0000 0.0000 0.0000 0.0000 18.8203
#
#
#
# Elastic Compliance Matrix: (Units=1/GPa)
#
#
# Indices 1 2 3 4 5 6 
#
# 1 0.019930 -0.004443 -0.003995 0.000000 0.000000 0.000000
# 2 -0.004443 0.019930 -0.003995 0.000000 0.000000 0.000000
# 3 -0.003995 -0.003995 0.010449 0.000000 0.000000 0.000000
# 4 0.000000 0.000000 0.000000 0.034131 0.000000 0.000000
# 5 0.000000 0.000000 0.000000 0.000000 0.034131 0.000000
# 6 0.000000 0.000000 0.000000 0.000000 0.000000 0.053134
#
#
# Mechanical properties :
#
#
# Convention : Reuss Voigt Hill
#
# Bulk Modulus (GPa) = 39.30296 44.79012 42.04654
# Shear Modulus (GPa) = 24.38415 26.11551 25.24983
#
# Velocity S-wave (km/s) = 3.70328 3.83250 3.76845
# Velocity P-wave (km/s) = 6.35537 6.69143 6.52557
#
# Compressibility (1/GPa) = 0.02544338
#
# Stress axis : x y z
#
# Youngs Moduli (GPa) = 50.17505 50.17489 95.70604
#
# Poissons Ratio (x) = 0.22291 0.38235
# Poissons Ratio (y) = 0.22292 0.38235
# Poissons Ratio (z) = 0.20045 0.20045
#
# Static dielectric constant tensor:
#      x y z
#    x 3.007430 0.000000 0.000000 
#    y 0.000000 3.007430 0.000000 
#    z 0.000000 0.000000 3.598600 
# 
# 
# High freq. dielectric constant tensor:
#      x y z
#    x 1.666760 0.000000 0.000000 
#    y 0.000000 1.666760 0.000000 
#    z 0.000000 0.000000 1.696470 
# 
# From -- ./inp_files/6477.got.cif
#   From: 2010.03.12/outbox.cif.g09.slc.cpg/sg125_4_cif.got.tgz:6477.got - 2010.04.06 16:47:52.
