data_PCOD8313433
_publ_section_title
;
Structure prediction by ZEFSAII (Michael W. Deem and Ramdas Pophale) SiO2 
 PCOD8313433
Probable space group: P 4/N B M
;
_chemical_formula_sum "Si O2"
_cell_formula_units_Z 112
_cell_length_a 14.506167
_cell_length_b 14.506167
_cell_length_c 27.677544
_cell_angle_alpha 90.000000
_cell_angle_beta 90.000000
_cell_angle_gamma 90.000000
_cell_volume 5824.154614
_symmetry_space_group_name_H-M "P 4/N B M"
_symmetry_group_IT_number 125
_space_group.IT_coordinate_system_code '2'
_symmetry_cell_setting 'tetragonal'
loop_
_space_group_symop_operation_xyz
x,y,z
1/2-y,x,z
1/2-x,1/2-y,z
y,1/2-x,z
x,1/2-y,-z
1/2-x,y,-z
y,x,-z
1/2-y,1/2-x,-z
-x,-y,-z
1/2+y,-x,-z
1/2+x,1/2+y,-z
-y,1/2+x,-z
-x,1/2+y,z
1/2+x,-y,z
-y,-x,z
1/2+y,1/2+x,z
loop_
_atom_site_type_symbol
_atom_site_label
_atom_site_fract_x
_atom_site_fract_y
_atom_site_fract_z
Si Si1 0.777151 0.427531 0.620515
Si Si2 0.401761 0.256893 0.893703
Si Si3 0.425203 0.420519 0.386413
Si Si4 0.522444 0.334069 0.534964
Si Si5 0.397713 0.269236 0.782237
Si Si6 0.101298 0.749780 0.057143
Si Si7 0.015471 0.838975 0.300454
O O1 0.851852 0.351852 0.611780
O O2 0.820290 0.530249 0.616055
O O3 0.702019 0.415078 0.579026
O O4 0.730811 0.414297 0.672864
O O5 0.336640 0.344910 0.906294
O O6 0.428704 0.266113 0.837708
O O7 0.498129 0.255613 0.921912
O O8 0.500429 0.499572 0.381583
O O9 0.376548 0.430754 0.439466
O O10 0.358001 0.434156 0.339967
O O11 0.495767 0.250000 0.500000
O O12 0.585693 0.414308 0.509240
O O13 0.328112 0.351903 0.770615
O O14 0.483646 0.286494 0.747606
O O15 0.161027 0.838974 0.073750
O O16 0.156323 0.656323 0.073284
O O17 0.091310 0.750000 0.000000
O O18 0.068018 0.931983 0.284479
#
# Coordination Sequence:
#
# PCOD8313433 Si02
#       7
#    16  16  16  16  16  16  16
#     4  10  19  32  50  68  91 123 157 195 237 288
#     4   9  19  35  54  80 113 146 186 235 281 330
#     4   8  17  32  47  67  92 120 157 194 230 280
#     4  10  20  32  47  68  93 119 148 187 236 290
#     4   9  18  34  54  74 100 137 177 214 255 304
#     4   9  19  36  56  79 110 148 189 233 282 337
#     4  10  19  31  49  74 101 126 159 203 251 303
#
# _framework density 19.230257999999999
#
# number of rings (size 3 to 8) (size 9 to 14) (size 15 to 20)
#    0.000    2.714    0.000    3.857    0.000    4.143 
#    0.000    7.143    0.000    3.857    0.000    4.000 
#    0.000    0.000    0.000    0.000    0.000    0.000 
#
# Total GULP energy -1387674.186944 kJ/mol
# GULP energy per Si atom -12389.948098 kJ/mol
# Density = 1.918649 g / cm^3
# Si number density = 19.230258 Si / 1000 Ang^3
#
#
#
# Elastic Constant Matrix: (Units=GPa)
#
#
# Indices 1 2 3 4 5 6 
#
# 1 85.2881 32.5902 32.1381 0.0000 0.0000 0.0000
# 2 32.5902 85.2881 32.1381 0.0000 0.0000 0.0000
# 3 32.1381 32.1381 70.5228 0.0000 0.0000 0.0000
# 4 0.0000 0.0000 0.0000 26.5518 0.0000 0.0000
# 5 0.0000 0.0000 0.0000 0.0000 26.5518 0.0000
# 6 0.0000 0.0000 0.0000 0.0000 0.0000 22.0036
#
#
#
# Elastic Compliance Matrix: (Units=1/GPa)
#
#
# Indices 1 2 3 4 5 6 
#
# 1 0.015132 -0.003844 -0.005144 0.000000 0.000000 0.000000
# 2 -0.003844 0.015132 -0.005144 0.000000 0.000000 0.000000
# 3 -0.005144 -0.005144 0.018868 0.000000 0.000000 0.000000
# 4 0.000000 0.000000 0.000000 0.037662 0.000000 0.000000
# 5 0.000000 0.000000 0.000000 0.000000 0.037662 0.000000
# 6 0.000000 0.000000 0.000000 0.000000 0.000000 0.045447
#
#
# Mechanical properties :
#
#
# Convention : Reuss Voigt Hill
#
# Bulk Modulus (GPa) = 47.91995 48.31466 48.11731
# Shear Modulus (GPa) = 24.37534 24.63693 24.50614
#
# Velocity S-wave (km/s) = 3.56413 3.58320 3.57368
# Velocity P-wave (km/s) = 6.47383 6.50369 6.48878
#
# Compressibility (1/GPa) = 0.02086814
#
# Stress axis : x y z
#
# Youngs Moduli (GPa) = 66.08409 66.08409 52.99862
#
# Poissons Ratio (x) = 0.25402 0.27264
# Poissons Ratio (y) = 0.25402 0.27264
# Poissons Ratio (z) = 0.33995 0.33995
#
# Static dielectric constant tensor:
#      x y z
#    x 3.587820 0.000000 0.000000 
#    y 0.000000 3.587820 0.000000 
#    z 0.000000 0.000000 3.365010 
# 
# 
# High freq. dielectric constant tensor:
#      x y z
#    x 1.742280 0.000000 0.000000 
#    y 0.000000 1.742280 0.000000 
#    z 0.000000 0.000000 1.735070 
# 
# From -- ./inp_files/6422.got.cif
#   From: 2010.03.12/outbox.cif.g09.slc.cpg/sg125_4_cif.got.tgz:6422.got - 2010.04.06 16:47:52.
