data_PCOD8313067
_publ_section_title
;
Structure prediction by ZEFSAII (Michael W. Deem and Ramdas Pophale) SiO2 
 PCOD8313067
Probable space group: P 4/M C C
;
_chemical_formula_sum "Si O2"
_cell_formula_units_Z 96
_cell_length_a 27.066638
_cell_length_b 27.066638
_cell_length_c 8.794650
_cell_angle_alpha 90.000000
_cell_angle_beta 90.000000
_cell_angle_gamma 90.000000
_cell_volume 6442.986030
_symmetry_space_group_name_H-M "P 4/M C C"
_symmetry_group_IT_number 124
_symmetry_cell_setting 'tetragonal'
loop_
_space_group_symop_operation_xyz
x,y,z
-y,x,z
-x,-y,z
y,-x,z
x,-y,1/2-z
-x,y,1/2-z
y,x,1/2-z
-y,-x,1/2-z
-x,-y,-z
y,-x,-z
x,y,-z
-y,x,-z
-x,y,1/2+z
x,-y,1/2+z
-y,-x,1/2+z
y,x,1/2+z
loop_
_atom_site_type_symbol
_atom_site_label
_atom_site_fract_x
_atom_site_fract_y
_atom_site_fract_z
Si Si1 0.871148 0.946863 0.176221
Si Si2 0.611179 0.453371 0.664675
Si Si3 0.731759 0.345450 0.181102
Si Si4 0.794368 0.869456 0.176263
Si Si5 0.273879 0.196943 0.681018
Si Si6 0.273541 0.549035 0.330200
O O1 0.912697 0.912697 0.250000
O O2 0.815273 0.924969 0.197855
O O3 0.872115 0.000000 0.250000
O O4 0.884286 0.951243 0.000000
O O5 0.587321 0.500000 0.750000
O O6 0.597427 0.402574 0.750000
O O7 0.586732 0.450489 0.500000
O O8 0.668988 0.459995 0.651759
O O9 0.685062 0.314939 0.250000
O O10 0.783904 0.324753 0.245387
O O11 0.733239 0.402609 0.227373
O O12 0.728890 0.340497 0.000000
O O13 0.836082 0.836082 0.250000
O O14 0.741948 0.858508 0.263365
O O15 0.787548 0.855794 0.000000
O O16 0.231835 0.231835 0.750000
O O17 0.277196 0.200101 0.500000
O O18 0.250127 0.500000 0.250000
O O19 0.250384 0.555758 0.500000
#
# Coordination Sequence:
#
# PCOD8313067 Si02
#       6
#    16  16  16  16  16  16
#     4  10  20  32  46  62  83 111 148 190 231 269
#     4  10  20  32  45  57  70  86 109 141 179 221
#     4  11  20  30  44  62  83 105 130 163 199 238
#     4   9  16  27  42  60  81 106 134 169 211 256
#     4  10  17  26  41  61  83 105 129 161 200 245
#     4  10  20  33  46  60  77  99 125 153 187 230
#
# _framework density 14.899925
#
# number of rings (size 3 to 8) (size 9 to 14) (size 15 to 20)
#    0.000    2.000    0.000    7.500    0.000    5.667 
#    0.000    1.667    0.000    0.000    0.000    0.000 
#    0.000    0.000    0.000    0.000    0.000    0.833 
#
# Total GULP energy -1189334.604225 kJ/mol
# GULP energy per Si atom -12388.902127 kJ/mol
# Density = 1.486601 g / cm^3
# Si number density = 14.899925 Si / 1000 Ang^3
#
#
#
# Elastic Constant Matrix: (Units=GPa)
#
#
# Indices 1 2 3 4 5 6 
#
# 1 52.1195 50.3190 43.2359 0.0000 0.0000 0.0000
# 2 50.3190 52.1185 43.2362 0.0000 0.0000 0.0000
# 3 43.2359 43.2362 150.7008 0.0000 0.0000 0.0000
# 4 0.0000 0.0000 0.0000 17.1934 0.0000 0.0000
# 5 0.0000 0.0000 0.0000 0.0000 17.1937 0.0000
# 6 0.0000 0.0000 0.0000 0.0000 0.0000 19.2076
#
#
#
# Elastic Compliance Matrix: (Units=1/GPa)
#
#
# Indices 1 2 3 4 5 6 
#
# 1 0.284216 -0.271339 -0.003694 0.000000 0.000000 0.000000
# 2 -0.271339 0.284225 -0.003698 0.000000 0.000000 0.000000
# 3 -0.003694 -0.003698 0.008756 0.000000 0.000000 0.000000
# 4 0.000000 0.000000 0.000000 0.058162 0.000000 0.000000
# 5 0.000000 0.000000 0.000000 0.000000 0.058161 0.000000
# 6 0.000000 0.000000 0.000000 0.000000 0.000000 0.052063
#
#
# Mechanical properties :
#
#
# Convention : Reuss Voigt Hill
#
# Bulk Modulus (GPa) = 50.66702 58.72456 54.69579
# Shear Modulus (GPa) = 3.81790 18.59546 11.20668
#
# Velocity S-wave (km/s) = 1.60247 3.53657 2.74547
# Velocity P-wave (km/s) = 6.12394 7.49498 6.84388
#
# Compressibility (1/GPa) = 0.01973671
#
# Stress axis : x y z
#
# Youngs Moduli (GPa) = 3.51845 3.51834 114.20359
#
# Poissons Ratio (x) = 0.95466 0.42186
# Poissons Ratio (y) = 0.95469 0.42228
# Poissons Ratio (z) = 0.01300 0.01301
#
# Static dielectric constant tensor:
#      x y z
#    x 3.045540 0.000000 0.000000 
#    y 0.000000 3.045540 0.000000 
#    z 0.000000 0.000000 3.260870 
# 
# 
# High freq. dielectric constant tensor:
#      x y z
#    x 1.535720 0.000000 0.000000 
#    y 0.000000 1.535720 0.000000 
#    z 0.000000 0.000000 1.600000 
# 
# From -- ./inp_files/1508.got.cif
#   From: 2010.03.12/outbox.cif.g09.slc.cpg/sg124_1_cif.got.tgz:1508.got - 2010.04.06 16:38:57.
