data_PCOD8313599
_publ_section_title
;
Structure prediction by ZEFSAII (Michael W. Deem and Ramdas Pophale) SiO2 
 PCOD8313599
Probable space group: P 4/N B M
;
_chemical_formula_sum "Si O2"
_cell_formula_units_Z 128
_cell_length_a 19.387987
_cell_length_b 19.387987
_cell_length_c 20.481643
_cell_angle_alpha 90.000000
_cell_angle_beta 90.000000
_cell_angle_gamma 90.000000
_cell_volume 7698.927531
_symmetry_space_group_name_H-M "P 4/N B M"
_symmetry_group_IT_number 125
_space_group.IT_coordinate_system_code '2'
_symmetry_cell_setting 'tetragonal'
loop_
_space_group_symop_operation_xyz
x,y,z
1/2-y,x,z
1/2-x,1/2-y,z
y,1/2-x,z
x,1/2-y,-z
1/2-x,y,-z
y,x,-z
1/2-y,1/2-x,-z
-x,-y,-z
1/2+y,-x,-z
1/2+x,1/2+y,-z
-y,1/2+x,-z
-x,1/2+y,z
1/2+x,-y,z
-y,-x,z
1/2+y,1/2+x,z
loop_
_atom_site_type_symbol
_atom_site_label
_atom_site_fract_x
_atom_site_fract_y
_atom_site_fract_z
Si Si1 0.596010 0.519890 0.821827
Si Si2 0.019889 0.096010 0.678171
Si Si3 0.586167 0.529961 0.063154
Si Si4 0.081756 0.804348 0.558032
Si Si5 0.029961 0.086167 0.436846
Si Si6 0.918244 0.304348 0.941967
Si Si7 0.294559 0.591400 0.324976
Si Si8 0.205441 0.591400 0.824974
O O1 0.535459 0.464542 0.820145
O O2 0.603680 0.553697 0.749999
O O3 0.579278 0.580047 0.873432
O O4 0.665981 0.479901 0.841331
O O5 0.080047 0.079279 0.626567
O O6 0.979900 0.165981 0.658667
O O7 0.964541 0.035460 0.679854
O O8 0.526302 0.473699 0.064886
O O9 0.660059 0.493111 0.062303
O O10 0.578240 0.578240 0.000000
O O11 0.080852 0.750000 0.500000
O O12 0.140099 0.859902 0.541252
O O13 0.098306 0.770494 0.627710
O O14 0.006889 0.839942 0.562302
O O15 0.078240 0.078240 0.500000
O O16 0.973700 0.026301 0.435115
O O17 0.859901 0.359901 0.958745
O O18 0.901695 0.270493 0.872289
O O19 0.919147 0.250000 0.000000
O O20 0.344109 0.655891 0.337956
O O21 0.268823 0.591613 0.250001
O O22 0.155890 0.655890 0.837954
#
# Coordination Sequence:
#
# PCOD8313599 Si02
#       8
#    16  16  16  16  16  16  16  16
#     4   8  14  27  47  66  84 110 144 183 229 273
#     4   8  14  27  47  66  84 110 144 183 229 273
#     4   9  17  29  45  63  83 110 146 190 236 271
#     4  11  22  32  44  64  92 126 160 191 220 256
#     4   9  17  29  45  63  83 110 146 190 236 271
#     4  11  22  32  44  64  92 126 160 191 220 256
#     4   9  18  32  48  66  92 126 157 183 215 260
#     4   9  18  32  48  66  92 126 157 183 215 260
#
# _framework density 16.625692000000001
#
# number of rings (size 3 to 8) (size 9 to 14) (size 15 to 20)
#    0.000    2.750    0.000    3.750    0.000    7.250 
#    0.000    3.750    0.000    0.000    0.000    0.000 
#    0.000   23.500    0.000   22.000    0.000    2.000 
#
# Total GULP energy -1586883.018704 kJ/mol
# GULP energy per Si atom -12397.523584 kJ/mol
# Density = 1.658785 g / cm^3
# Si number density = 16.625692 Si / 1000 Ang^3
#
#
#
# Elastic Constant Matrix: (Units=GPa)
#
#
# Indices 1 2 3 4 5 6 
#
# 1 36.5419 36.6740 32.6421 0.0000 0.0000 0.0000
# 2 36.6740 36.5419 32.6421 0.0000 0.0000 0.0000
# 3 32.6421 32.6421 105.4067 0.0000 0.0000 0.0000
# 4 0.0000 0.0000 0.0000 26.7904 0.0000 0.0000
# 5 0.0000 0.0000 0.0000 0.0000 26.7904 0.0000
# 6 0.0000 0.0000 0.0000 0.0000 0.0000 19.0854
#
#
#
# Elastic Compliance Matrix: (Units=1/GPa)
#
#
# Indices 1 2 3 4 5 6 
#
# 1 -3.777178 3.796046 -0.005843 0.000000 0.000000 0.000000
# 2 3.796046 -3.777178 -0.005843 0.000000 0.000000 0.000000
# 3 -0.005843 -0.005843 0.013106 0.000000 0.000000 0.000000
# 4 0.000000 0.000000 0.000000 0.037327 0.000000 0.000000
# 5 0.000000 0.000000 0.000000 0.000000 0.037327 0.000000
# 6 0.000000 0.000000 0.000000 0.000000 0.000000 0.052396
#
#
# Mechanical properties :
#
#
# Convention : Reuss Voigt Hill
#
# Bulk Modulus (GPa) = 36.40298 42.48964 39.44631
# Shear Modulus (GPa) = -0.33392 19.63541 9.65075
#
# Velocity S-wave (km/s) = -0.44864 3.44034 2.41191
# Velocity P-wave (km/s) = 4.65562 6.43376 5.61552
#
# Compressibility (1/GPa) = 0.02747028
#
# Stress axis : x y z
#
# Youngs Moduli (GPa) = -0.26475 -0.26475 76.30090
#
# Poissons Ratio (x) = 1.00500 0.44583
# Poissons Ratio (y) = 1.00500 0.44583
# Poissons Ratio (z) = -0.00155 -0.00155
#
# Static dielectric constant tensor:
#      x y z
#    x 2.929900 0.000000 0.000000 
#    y 0.000000 2.929900 0.000000 
#    z 0.000000 0.000000 3.451120 
# 
# 
# High freq. dielectric constant tensor:
#      x y z
#    x 1.607270 0.000000 0.000000 
#    y 0.000000 1.607270 0.000000 
#    z 0.000000 0.000000 1.662330 
# 
# From -- ./inp_files/5620.got.cif
#   From: 2010.03.12/outbox.cif.g09.slc.cpg/sg125_3_cif.got.tgz:5620.got - 2010.04.06 16:47:52.
