data_PCOD8313261
_publ_section_title
;
Structure prediction by ZEFSAII (Michael W. Deem and Ramdas Pophale) SiO2 
 PCOD8313261
Probable space group: P 4/M C C
;
_chemical_formula_sum "Si O2"
_cell_formula_units_Z 96
_cell_length_a 23.284191
_cell_length_b 23.284191
_cell_length_c 9.313407
_cell_angle_alpha 90.000000
_cell_angle_beta 90.000000
_cell_angle_gamma 90.000000
_cell_volume 5049.296673
_symmetry_space_group_name_H-M "P 4/M C C"
_symmetry_group_IT_number 124
_symmetry_cell_setting 'tetragonal'
loop_
_space_group_symop_operation_xyz
x,y,z
-y,x,z
-x,-y,z
y,-x,z
x,-y,1/2-z
-x,y,1/2-z
y,x,1/2-z
-y,-x,1/2-z
-x,-y,-z
y,-x,-z
x,y,-z
-y,x,-z
-x,y,1/2+z
x,-y,1/2+z
-y,-x,1/2+z
y,x,1/2+z
loop_
_atom_site_type_symbol
_atom_site_label
_atom_site_fract_x
_atom_site_fract_y
_atom_site_fract_z
Si Si1 0.229913 0.846559 0.662456
Si Si2 0.432954 0.336839 0.500000
Si Si3 0.719019 0.625748 0.744451
Si Si4 0.058973 0.438934 0.823373
Si Si5 0.942991 0.863065 0.668432
Si Si6 0.148994 0.640450 0.831047
Si Si7 0.566251 0.344796 0.500000
O O1 0.208908 0.791093 0.750000
O O2 0.227341 0.825370 0.500000
O O3 0.189723 0.900586 0.691726
O O4 0.293692 0.866896 0.701967
O O5 0.412862 0.293830 0.621015
O O6 0.498796 0.354522 0.500000
O O7 0.404792 0.399848 0.500000
O O8 0.688385 0.688385 0.750000
O O9 0.785732 0.632926 0.715916
O O10 0.692859 0.583829 0.630983
O O11 0.072668 0.500000 0.750000
O O12 0.109678 0.396921 0.774542
O O13 0.000000 0.416086 0.750000
O O14 0.054833 0.442416 0.000000
O O15 0.919181 0.919181 0.750000
O O16 0.953324 0.876474 0.500000
O O17 0.000000 0.844021 0.750000
O O18 0.140031 0.624902 0.000000
#
# Coordination Sequence:
#
# PCOD8313261 Si02
#       7
#    16   8  16  16  16  16   8
#     4   9  20  37  58  84 118 155 193 242 295 349
#     4  10  22  35  60  80 119 151 209 245 314 364
#     4  10  21  38  58  83 122 159 198 251 311 364
#     4  11  24  44  66  89 119 155 193 240 295 349
#     4  10  20  36  57  83 116 154 197 242 293 344
#     4  11  22  39  61  90 120 156 200 243 297 359
#     4  10  20  39  54  86 111 163 193 259 304 364
#
# _framework density 19.012549
#
# number of rings (size 3 to 8) (size 9 to 14) (size 15 to 20)
#    0.000    1.833    0.833    3.500    1.167    3.667 
#    0.000    2.500    0.000    3.000    0.000    0.000 
#    0.000    0.000    0.000    0.000    0.000    0.000 
#
# Total GULP energy -1189536.801792 kJ/mol
# GULP energy per Si atom -12391.008352 kJ/mol
# Density = 1.896928 g / cm^3
# Si number density = 19.012549 Si / 1000 Ang^3
#
#
#
# Elastic Constant Matrix: (Units=GPa)
#
#
# Indices 1 2 3 4 5 6 
#
# 1 89.7376 73.8452 57.9411 0.0000 0.0000 0.0000
# 2 73.8452 89.7159 57.9391 0.0000 0.0000 0.0000
# 3 57.9411 57.9391 157.5621 0.0000 0.0000 0.0000
# 4 0.0000 0.0000 0.0000 33.9840 0.0000 0.0000
# 5 0.0000 0.0000 0.0000 0.0000 33.9837 0.0000
# 6 0.0000 0.0000 0.0000 0.0000 0.0000 21.2033
#
#
#
# Elastic Compliance Matrix: (Units=1/GPa)
#
#
# Indices 1 2 3 4 5 6 
#
# 1 0.035611 -0.027349 -0.003039 0.000000 0.000000 0.000000
# 2 -0.027349 0.035622 -0.003042 0.000000 0.000000 0.000000
# 3 -0.003039 -0.003042 0.008583 0.000000 0.000000 0.000000
# 4 0.000000 0.000000 0.000000 0.029426 0.000000 0.000000
# 5 0.000000 0.000000 0.000000 0.000000 0.029426 0.000000
# 6 0.000000 0.000000 0.000000 0.000000 0.000000 0.047162
#
#
# Mechanical properties :
#
#
# Convention : Reuss Voigt Hill
#
# Bulk Modulus (GPa) = 77.18053 79.60739 78.39396
# Shear Modulus (GPa) = 19.45465 27.65356 23.55410
#
# Velocity S-wave (km/s) = 3.20230 3.81791 3.52358
# Velocity P-wave (km/s) = 7.37263 7.83563 7.60765
#
# Compressibility (1/GPa) = 0.01295664
#
# Stress axis : x y z
#
# Youngs Moduli (GPa) = 28.08088 28.07255 116.51525
#
# Poissons Ratio (x) = 0.76777 0.35404
# Poissons Ratio (y) = 0.76800 0.35440
# Poissons Ratio (z) = 0.08533 0.08539
#
# Static dielectric constant tensor:
#      x y z
#    x 3.555700 0.000000 0.000000 
#    y 0.000000 3.555700 0.000000 
#    z 0.000000 0.000000 3.835630 
# 
# 
# High freq. dielectric constant tensor:
#      x y z
#    x 1.740760 0.000000 0.000000 
#    y 0.000000 1.740760 0.000000 
#    z 0.000000 0.000000 1.759110 
# 
# From -- ./inp_files/1424.got.cif
#   From: 2010.03.12/outbox.cif.g09.slc.cpg/sg124_1_cif.got.tgz:1424.got - 2010.04.06 16:38:57.
