data_PCOD8313108
_publ_section_title
;
Structure prediction by ZEFSAII (Michael W. Deem and Ramdas Pophale) SiO2 
 PCOD8313108
Probable space group: P 4/M C C
;
_chemical_formula_sum "Si O2"
_cell_formula_units_Z 112
_cell_length_a 14.904638
_cell_length_b 14.904638
_cell_length_c 26.552871
_cell_angle_alpha 90.000000
_cell_angle_beta 90.000000
_cell_angle_gamma 90.000000
_cell_volume 5898.673398
_symmetry_space_group_name_H-M "P 4/M C C"
_symmetry_group_IT_number 124
_symmetry_cell_setting 'tetragonal'
loop_
_space_group_symop_operation_xyz
x,y,z
-y,x,z
-x,-y,z
y,-x,z
x,-y,1/2-z
-x,y,1/2-z
y,x,1/2-z
-y,-x,1/2-z
-x,-y,-z
y,-x,-z
x,y,-z
-y,x,-z
-x,y,1/2+z
x,-y,1/2+z
-y,-x,1/2+z
y,x,1/2+z
loop_
_atom_site_type_symbol
_atom_site_label
_atom_site_fract_x
_atom_site_fract_y
_atom_site_fract_z
Si Si1 0.379647 0.739882 0.440621
Si Si2 0.415894 0.754057 0.058178
Si Si3 0.898020 0.243626 0.763780
Si Si4 0.417361 0.943740 0.108602
Si Si5 0.125120 0.925403 0.442692
Si Si6 0.708677 0.104609 0.379944
Si Si7 0.904917 0.580041 0.221673
O O1 0.364343 0.763104 0.500000
O O2 0.484195 0.717820 0.430455
O O3 0.320164 0.655157 0.422397
O O4 0.358581 0.823390 0.404229
O O5 0.395772 0.852024 0.080372
O O6 0.400093 0.767402 0.000000
O O7 0.845380 0.154621 0.750000
O O8 0.883606 0.276627 0.820789
O O9 0.857691 0.323502 0.728408
O O10 0.000000 0.220676 0.750000
O O11 0.448029 0.916873 0.164458
O O12 0.500000 0.000000 0.083967
O O13 0.328715 0.005109 0.108661
O O14 0.154687 0.908350 0.500000
O O15 0.196111 0.880064 0.406246
O O16 0.030737 0.879436 0.431476
O O17 0.850792 0.500000 0.250000
O O18 0.000000 0.591380 0.250000
#
# Coordination Sequence:
#
# PCOD8313108 Si02
#       7
#    16  16  16  16  16  16  16
#     4  10  23  42  61  91 121 152 200 242 299 364
#     4  10  24  41  62  89 121 156 195 246 297 364
#     4  11  25  40  55  85 119 155 202 239 287 346
#     4  12  21  37  61  89 120 152 188 240 307 353
#     4   9  21  39  55  75 106 152 203 237 279 345
#     4  12  23  36  61  86 119 155 190 250 298 347
#     4  10  18  37  59  83 110 147 191 235 285 349
#
# _framework density 18.98732
#
# number of rings (size 3 to 8) (size 9 to 14) (size 15 to 20)
#    0.000    1.429    5.714    0.857    6.000    1.857 
#    0.000    1.429    0.000    0.000    0.000    0.000 
#    0.000    0.286    0.000    0.000    0.000    0.000 
#
# Total GULP energy -1388445.708566 kJ/mol
# GULP energy per Si atom -12396.836684 kJ/mol
# Density = 1.894410 g / cm^3
# Si number density = 18.987320 Si / 1000 Ang^3
#
#
#
# Elastic Constant Matrix: (Units=GPa)
#
#
# Indices 1 2 3 4 5 6 
#
# 1 99.2670 45.0029 28.0796 0.0000 0.0000 0.0000
# 2 45.0029 99.2686 28.0791 0.0000 0.0000 0.0000
# 3 28.0796 28.0791 53.5473 0.0000 0.0000 0.0000
# 4 0.0000 0.0000 0.0000 13.9134 0.0000 0.0000
# 5 0.0000 0.0000 0.0000 0.0000 13.9127 0.0000
# 6 0.0000 0.0000 0.0000 0.0000 0.0000 27.3868
#
#
#
# Elastic Compliance Matrix: (Units=1/GPa)
#
#
# Indices 1 2 3 4 5 6 
#
# 1 0.013569 -0.004859 -0.004567 0.000000 0.000000 0.000000
# 2 -0.004859 0.013568 -0.004567 0.000000 0.000000 0.000000
# 3 -0.004567 -0.004567 0.023465 0.000000 0.000000 0.000000
# 4 0.000000 0.000000 0.000000 0.071873 0.000000 0.000000
# 5 0.000000 0.000000 0.000000 0.000000 0.071877 0.000000
# 6 0.000000 0.000000 0.000000 0.000000 0.000000 0.036514
#
#
# Mechanical properties :
#
#
# Convention : Reuss Voigt Hill
#
# Bulk Modulus (GPa) = 44.21790 50.48956 47.35373
# Shear Modulus (GPa) = 18.76941 21.10400 19.93671
#
# Velocity S-wave (km/s) = 3.14749 3.33750 3.24389
# Velocity P-wave (km/s) = 6.04546 6.44211 6.24694
#
# Compressibility (1/GPa) = 0.02261528
#
# Stress axis : x y z
#
# Youngs Moduli (GPa) = 73.69851 73.70043 42.61714
#
# Poissons Ratio (x) = 0.35815 0.19464
# Poissons Ratio (y) = 0.35814 0.19462
# Poissons Ratio (z) = 0.33659 0.33657
#
# Static dielectric constant tensor:
#      x y z
#    x 3.719170 0.000000 0.000000 
#    y 0.000000 3.719160 0.000000 
#    z 0.000000 0.000000 3.472380 
# 
# 
# High freq. dielectric constant tensor:
#      x y z
#    x 1.733570 0.000000 0.000000 
#    y 0.000000 1.733570 0.000000 
#    z 0.000000 0.000000 1.734720 
# 
# From -- ./inp_files/6658.got.cif
#   From: 2010.03.12/outbox.cif.g09.slc.cpg/sg124_4_cif.got.tgz:6658.got - 2010.04.06 16:38:57.
