data_PCOD8313554
_publ_section_title
;
Structure prediction by ZEFSAII (Michael W. Deem and Ramdas Pophale) SiO2 
 PCOD8313554
Probable space group: P 4/N B M
;
_chemical_formula_sum "Si O2"
_cell_formula_units_Z 72
_cell_length_a 13.393674
_cell_length_b 13.393674
_cell_length_c 18.650068
_cell_angle_alpha 90.000000
_cell_angle_beta 90.000000
_cell_angle_gamma 90.000000
_cell_volume 3345.645084
_symmetry_space_group_name_H-M "P 4/N B M"
_symmetry_group_IT_number 125
_space_group.IT_coordinate_system_code '2'
_symmetry_cell_setting 'tetragonal'
loop_
_space_group_symop_operation_xyz
x,y,z
1/2-y,x,z
1/2-x,1/2-y,z
y,1/2-x,z
x,1/2-y,-z
1/2-x,y,-z
y,x,-z
1/2-y,1/2-x,-z
-x,-y,-z
1/2+y,-x,-z
1/2+x,1/2+y,-z
-y,1/2+x,-z
-x,1/2+y,z
1/2+x,-y,z
-y,-x,z
1/2+y,1/2+x,z
loop_
_atom_site_type_symbol
_atom_site_label
_atom_site_fract_x
_atom_site_fract_y
_atom_site_fract_z
Si Si1 0.499861 0.500140 0.890758
Si Si2 0.138416 0.136169 0.795864
Si Si3 0.629096 0.370905 0.999686
Si Si4 0.134897 0.365104 0.500000
Si Si5 0.589777 0.256800 0.419567
Si Si6 0.546937 0.614131 0.351908
O O1 0.432360 0.433695 0.840512
O O2 0.574583 0.425418 0.933007
O O3 0.425949 0.574052 0.934209
O O4 0.251108 0.110958 0.817193
O O5 0.128155 0.123054 0.710209
O O6 0.609604 0.250000 0.000000
O O7 0.112425 0.250000 0.500000
O O8 0.080487 0.405100 0.572090
O O9 0.544135 0.250000 0.500000
O O10 0.632683 0.367318 0.400272
O O11 0.680093 0.180093 0.417468
O O12 0.506240 0.222725 0.362573
O O13 0.466400 0.533601 0.327232
#
# Coordination Sequence:
#
# PCOD8313554 Si02
#       6
#     8  16   8   8  16  16
#     4  11  22  44  72 105 140 180 222 251 304 394
#     4  11  24  43  64  91 135 183 222 268 323 383
#     4  10  22  42  76 114 146 172 206 264 318 362
#     4  11  23  38  54  76 107 155 222 286 338 386
#     4   8  15  29  50  76 109 148 199 276 349 396
#     4  11  21  37  58  84 117 163 222 279 336 395
#
# _framework density 21.520513000000001
#
# number of rings (size 3 to 8) (size 9 to 14) (size 15 to 20)
#    0.000    1.778    1.111    4.333    0.000    1.778 
#    2.000    3.333    0.000    5.333    0.000    0.000 
#    0.000    0.000    0.000    0.000    0.000    0.000 
#
# Total GULP energy -892269.532764 kJ/mol
# GULP energy per Si atom -12392.632399 kJ/mol
# Density = 2.147153 g / cm^3
# Si number density = 21.520513 Si / 1000 Ang^3
#
#
#
# Elastic Constant Matrix: (Units=GPa)
#
#
# Indices 1 2 3 4 5 6 
#
# 1 116.2101 75.4417 58.4519 0.0000 0.0000 0.0000
# 2 75.4417 116.2100 58.4519 0.0000 0.0000 0.0000
# 3 58.4519 58.4519 125.5197 0.0000 0.0000 0.0000
# 4 0.0000 0.0000 0.0000 44.8217 0.0000 0.0000
# 5 0.0000 0.0000 0.0000 0.0000 44.8283 0.0000
# 6 0.0000 0.0000 0.0000 0.0000 0.0000 7.8918
#
#
#
# Elastic Compliance Matrix: (Units=1/GPa)
#
#
# Indices 1 2 3 4 5 6 
#
# 1 0.015908 -0.008620 -0.003394 0.000000 0.000000 0.000000
# 2 -0.008620 0.015908 -0.003394 0.000000 0.000000 0.000000
# 3 -0.003394 -0.003394 0.011128 0.000000 0.000000 0.000000
# 4 0.000000 0.000000 0.000000 0.022311 0.000000 0.000000
# 5 0.000000 0.000000 0.000000 0.000000 0.022307 0.000000
# 6 0.000000 0.000000 0.000000 0.000000 0.000000 0.126713
#
#
# Mechanical properties :
#
#
# Convention : Reuss Voigt Hill
#
# Bulk Modulus (GPa) = 82.45179 82.51454 82.48316
# Shear Modulus (GPa) = 20.06947 30.54799 25.30873
#
# Velocity S-wave (km/s) = 3.05712 3.77169 3.43305
# Velocity P-wave (km/s) = 7.13145 7.57582 7.35699
#
# Compressibility (1/GPa) = 0.01212830
#
# Stress axis : x y z
#
# Youngs Moduli (GPa) = 62.85992 62.85983 89.86513
#
# Poissons Ratio (x) = 0.54188 0.30499
# Poissons Ratio (y) = 0.54188 0.30499
# Poissons Ratio (z) = 0.21334 0.21334
#
# Static dielectric constant tensor:
#      x y z
#    x 4.248040 0.000000 0.000000 
#    y 0.000000 4.248050 0.000000 
#    z 0.000000 0.000000 3.663340 
# 
# 
# High freq. dielectric constant tensor:
#      x y z
#    x 1.868530 0.000000 0.000000 
#    y 0.000000 1.868530 0.000000 
#    z 0.000000 0.000000 1.811280 
# 
# From -- ./inp_files/5362.got.cif
#   From: 2010.03.12/outbox.cif.g09.slc.cpg/sg125_3_cif.got.tgz:5362.got - 2010.04.06 16:47:52.
