data_PCOD8313906
_publ_section_title
;
Structure prediction by ZEFSAII (Michael W. Deem and Ramdas Pophale) SiO2 
 PCOD8313906
Probable space group: P 4/M B M
;
_chemical_formula_sum "Si O2"
_cell_formula_units_Z 104
_cell_length_a 18.988203
_cell_length_b 18.988203
_cell_length_c 16.265489
_cell_angle_alpha 90.000000
_cell_angle_beta 90.000000
_cell_angle_gamma 90.000000
_cell_volume 5864.552202
_symmetry_space_group_name_H-M "P 4/M B M"
_symmetry_group_IT_number 127
_symmetry_cell_setting 'tetragonal'
loop_
_space_group_symop_operation_xyz
x,y,z
-y,x,z
-x,-y,z
y,-x,z
1/2+x,1/2-y,-z
1/2-x,1/2+y,-z
1/2+y,1/2+x,-z
1/2-y,1/2-x,-z
-x,-y,-z
y,-x,-z
x,y,-z
-y,x,-z
1/2-x,1/2+y,z
1/2+x,1/2-y,z
1/2-y,1/2-x,z
1/2+y,1/2+x,z
loop_
_atom_site_type_symbol
_atom_site_label
_atom_site_fract_x
_atom_site_fract_y
_atom_site_fract_z
Si Si1 0.002001 0.116766 0.000000
Si Si2 0.734858 0.348090 0.235651
Si Si3 0.886261 0.004402 0.671966
Si Si4 0.269771 0.423468 0.589318
Si Si5 0.117350 0.271286 0.759561
Si Si6 0.276851 0.662592 0.412682
Si Si7 0.007204 0.802105 0.167340
O O1 0.931579 0.070856 0.000000
O O2 0.004305 0.167178 0.077900
O O3 0.804583 0.304583 0.210859
O O4 0.666476 0.297867 0.233203
O O5 0.740711 0.380702 0.329068
O O6 0.727881 0.413338 0.173880
O O7 0.818166 0.008628 0.612565
O O8 0.933554 0.072546 0.653475
O O9 0.863903 0.006445 0.767174
O O10 0.232305 0.436608 0.500000
O O11 0.216595 0.408040 0.664722
O O12 0.322991 0.358942 0.580969
O O13 0.159336 0.340665 0.788515
O O14 0.049485 0.260531 0.817715
O O15 0.252318 0.626469 0.500000
O O16 0.238077 0.738077 0.402092
#
# Coordination Sequence:
#
# PCOD8313906 Si02
#       7
#     8  16  16  16  16  16  16
#     4  11  22  34  52  78 106 135 168 202 240 303
#     4   9  17  31  51  74  99 129 167 210 253 296
#     4  10  19  29  41  59  90 132 169 200 240 295
#     4   9  16  25  39  60  88 125 166 201 234 280
#     4   9  18  32  50  71  97 130 168 211 255 300
#     4   8  13  23  41  63  87 119 162 208 246 280
#     4  11  20  34  52  71  96 128 166 208 257 308
#
# _framework density 17.733663
#
# number of rings (size 3 to 8) (size 9 to 14) (size 15 to 20)
#    0.000    2.538    0.000    6.000    0.000    2.769 
#    0.000    6.154    0.000    3.231    0.000    0.000 
#    0.000    1.231    0.000    9.385    0.000    0.462 
#
# Total GULP energy -1288489.511037 kJ/mol
# GULP energy per Si atom -12389.322222 kJ/mol
# Density = 1.769330 g / cm^3
# Si number density = 17.733663 Si / 1000 Ang^3
#
#
#
# Elastic Constant Matrix: (Units=GPa)
#
#
# Indices 1 2 3 4 5 6 
#
# 1 46.5428 18.3142 20.6393 0.0000 0.0000 0.0000
# 2 18.3142 46.5428 20.6393 0.0000 0.0000 0.0000
# 3 20.6393 20.6393 109.7431 0.0000 0.0000 0.0000
# 4 0.0000 0.0000 0.0000 12.9828 0.0000 0.0000
# 5 0.0000 0.0000 0.0000 0.0000 12.9828 0.0000
# 6 0.0000 0.0000 0.0000 0.0000 0.0000 10.0413
#
#
#
# Elastic Compliance Matrix: (Units=1/GPa)
#
#
# Indices 1 2 3 4 5 6 
#
# 1 0.026470 -0.008955 -0.003294 0.000000 0.000000 0.000000
# 2 -0.008955 0.026470 -0.003294 0.000000 0.000000 0.000000
# 3 -0.003294 -0.003294 0.010351 0.000000 0.000000 0.000000
# 4 0.000000 0.000000 0.000000 0.077025 0.000000 0.000000
# 5 0.000000 0.000000 0.000000 0.000000 0.077025 0.000000
# 6 0.000000 0.000000 0.000000 0.000000 0.000000 0.099589
#
#
# Mechanical properties :
#
#
# Convention : Reuss Voigt Hill
#
# Bulk Modulus (GPa) = 31.05094 35.77936 33.41515
# Shear Modulus (GPa) = 13.93722 16.75044 15.34383
#
# Velocity S-wave (km/s) = 2.80647 3.07670 2.94468
# Velocity P-wave (km/s) = 5.29616 5.73072 5.51772
#
# Compressibility (1/GPa) = 0.03220514
#
# Stress axis : x y z
#
# Youngs Moduli (GPa) = 37.77858 37.77858 96.60711
#
# Poissons Ratio (x) = 0.33831 0.31823
# Poissons Ratio (y) = 0.33831 0.31823
# Poissons Ratio (z) = 0.12444 0.12444
#
# Static dielectric constant tensor:
#      x y z
#    x 3.129120 0.000000 0.000000 
#    y 0.000000 3.129120 0.000000 
#    z 0.000000 0.000000 3.315850 
# 
# 
# High freq. dielectric constant tensor:
#      x y z
#    x 1.658130 0.000000 0.000000 
#    y 0.000000 1.658130 0.000000 
#    z 0.000000 0.000000 1.677840 
# 
# From -- ./inp_files/4601.got.cif
#   From: 2010.03.12/outbox.cif.g09.slc.cpg/sg127_3_cif.got.tgz:4601.got - 2010.04.06 17:03:15.
