data_PCOD8313714
_publ_section_title
;
Structure prediction by ZEFSAII (Michael W. Deem and Ramdas Pophale) SiO2 
 PCOD8313714
Probable space group: P 4/N N C
;
_chemical_formula_sum "Si O2"
_cell_formula_units_Z 48
_cell_length_a 14.680249
_cell_length_b 14.680249
_cell_length_c 8.479358
_cell_angle_alpha 90.000000
_cell_angle_beta 90.000000
_cell_angle_gamma 90.000000
_cell_volume 1827.383990
_symmetry_space_group_name_H-M "P 4/N N C"
_symmetry_group_IT_number 126
_space_group.IT_coordinate_system_code '2'
_symmetry_cell_setting 'tetragonal'
loop_
_space_group_symop_operation_xyz
x,y,z
1/2-y,x,z
1/2-x,1/2-y,z
y,1/2-x,z
x,1/2-y,1/2-z
1/2-x,y,1/2-z
y,x,1/2-z
1/2-y,1/2-x,1/2-z
-x,-y,-z
1/2+y,-x,-z
1/2+x,1/2+y,-z
-y,1/2+x,-z
-x,1/2+y,1/2+z
1/2+x,-y,1/2+z
-y,-x,1/2+z
1/2+y,1/2+x,1/2+z
loop_
_atom_site_type_symbol
_atom_site_label
_atom_site_fract_x
_atom_site_fract_y
_atom_site_fract_z
Si Si1 0.196456 0.979757 0.075368
Si Si2 0.108444 0.463479 0.041392
Si Si3 0.556262 0.123459 0.764936
O O1 0.135702 0.072016 0.086799
O O2 0.297140 0.009527 0.135130
O O3 0.151367 0.895066 0.172463
O O4 0.207917 0.944176 0.890193
O O5 0.036057 0.538904 0.108994
O O6 0.130300 0.472304 0.855927
#
# Coordination Sequence:
#
# PCOD8313714 Si02
#       3
#    16  16  16
#     4  11  21  36  60  86 113 145 184 232 280 329
#     4  11  21  36  60  86 113 145 184 232 280 329
#     4  10  21  38  58  81 110 153 196 220 261 336
#
# _framework density 26.267057000000001
#
# number of rings (size 3 to 8) (size 9 to 14) (size 15 to 20)
#    0.000    1.333    0.000   10.000    0.000    0.667 
#    0.000    0.000    0.000   78.000    0.000    0.000 
#    0.000    0.000    0.000    0.000    0.000    0.000 
#
# Total GULP energy -594961.193688 kJ/mol
# GULP energy per Si atom -12395.024869 kJ/mol
# Density = 2.620727 g / cm^3
# Si number density = 26.267057 Si / 1000 Ang^3
#
#
#
# Elastic Constant Matrix: (Units=GPa)
#
#
# Indices 1 2 3 4 5 6 
#
# 1 103.6046 29.7063 1.7709 0.0000 0.0000 0.0000
# 2 29.7063 103.6046 1.7709 0.0000 0.0000 0.0000
# 3 1.7709 1.7709 89.2114 0.0000 0.0000 0.0000
# 4 0.0000 0.0000 0.0000 41.4982 0.0000 0.0000
# 5 0.0000 0.0000 0.0000 0.0000 41.4982 0.0000
# 6 0.0000 0.0000 0.0000 0.0000 0.0000 25.1642
#
#
#
# Elastic Compliance Matrix: (Units=1/GPa)
#
#
# Indices 1 2 3 4 5 6 
#
# 1 0.010519 -0.003013 -0.000149 0.000000 0.000000 0.000000
# 2 -0.003013 0.010519 -0.000149 0.000000 0.000000 0.000000
# 3 -0.000149 -0.000149 0.011215 0.000000 0.000000 0.000000
# 4 0.000000 0.000000 0.000000 0.024097 0.000000 0.000000
# 5 0.000000 0.000000 0.000000 0.000000 0.024097 0.000000
# 6 0.000000 0.000000 0.000000 0.000000 0.000000 0.039739
#
#
# Mechanical properties :
#
#
# Convention : Reuss Voigt Hill
#
# Bulk Modulus (GPa) = 39.01716 40.32409 39.67062
# Shear Modulus (GPa) = 36.94058 39.17694 38.05876
#
# Velocity S-wave (km/s) = 3.75420 3.86617 3.81059
# Velocity P-wave (km/s) = 5.80330 5.94261 5.87336
#
# Compressibility (1/GPa) = 0.02562975
#
# Stress axis : x y z
#
# Youngs Moduli (GPa) = 95.06907 95.06907 89.16433
#
# Poissons Ratio (x) = 0.28649 0.01328
# Poissons Ratio (y) = 0.28649 0.01328
# Poissons Ratio (z) = 0.01416 0.01416
#
# Static dielectric constant tensor:
#      x y z
#    x 4.541520 0.000000 0.000000 
#    y 0.000000 4.541520 0.000000 
#    z 0.000000 0.000000 5.823140 
# 
# 
# High freq. dielectric constant tensor:
#      x y z
#    x 2.022280 0.000000 0.000000 
#    y 0.000000 2.022280 0.000000 
#    z 0.000000 0.000000 2.135900 
# 
# From -- ./inp_files/1074.got.cif
#   From: 2010.03.12/outbox.cif.g09.slc.cpg/sg126_1_cif.got.tgz:1074.got - 2010.04.06 16:55:23.
