data_PCOD8313974
_publ_section_title
;
Structure prediction by ZEFSAII (Michael W. Deem and Ramdas Pophale) SiO2 
 PCOD8313974
Probable space group: P 4/M B M
;
_chemical_formula_sum "Si O2"
_cell_formula_units_Z 104
_cell_length_a 15.207078
_cell_length_b 15.207078
_cell_length_c 24.281363
_cell_angle_alpha 90.000000
_cell_angle_beta 90.000000
_cell_angle_gamma 90.000000
_cell_volume 5615.191974
_symmetry_space_group_name_H-M "P 4/M B M"
_symmetry_group_IT_number 127
_symmetry_cell_setting 'tetragonal'
loop_
_space_group_symop_operation_xyz
x,y,z
-y,x,z
-x,-y,z
y,-x,z
1/2+x,1/2-y,-z
1/2-x,1/2+y,-z
1/2+y,1/2+x,-z
1/2-y,1/2-x,-z
-x,-y,-z
y,-x,-z
x,y,-z
-y,x,-z
1/2-x,1/2+y,z
1/2+x,1/2-y,z
1/2-y,1/2-x,z
1/2+y,1/2+x,z
loop_
_atom_site_type_symbol
_atom_site_label
_atom_site_fract_x
_atom_site_fract_y
_atom_site_fract_z
Si Si1 0.273612 0.911195 0.647830
Si Si2 0.425955 0.074046 0.937904
Si Si3 0.462339 0.182677 0.255120
Si Si4 0.552861 0.365362 0.168579
Si Si5 0.858072 0.020454 0.563367
Si Si6 0.182069 0.823793 0.260208
Si Si7 0.041703 0.315855 0.134920
O O1 0.349216 0.849216 0.621502
O O2 0.228880 0.968680 0.600154
O O3 0.199547 0.849537 0.676499
O O4 0.318724 0.969769 0.694761
O O5 0.462681 0.159832 0.906627
O O6 0.500000 0.000000 0.936440
O O7 0.399975 0.100026 0.000000
O O8 0.396245 0.103756 0.266963
O O9 0.410406 0.275002 0.254185
O O10 0.509488 0.167219 0.197008
O O11 0.612260 0.450624 0.161325
O O12 0.583229 0.322810 0.227058
O O13 0.567923 0.286751 0.124715
O O14 0.828879 0.024754 0.500000
O O15 0.926937 0.097954 0.576581
O O16 0.262039 0.762039 0.237583
O O17 0.127251 0.372750 0.121744
#
# Coordination Sequence:
#
# PCOD8313974 Si02
#       7
#    16   8  16  16  16  16  16
#     4  11  21  32  50  77 113 147 180 223 282 345
#     4   9  20  38  62  90 114 144 193 248 290 326
#     4  11  21  33  51  80 115 149 185 224 283 342
#     4  11  21  33  50  79 116 154 191 227 282 350
#     4   9  19  37  59  78  98 134 187 242 290 336
#     4  10  19  32  50  76 115 153 189 233 277 337
#     4  11  20  34  57  83 112 150 189 238 289 336
#
# _framework density 18.521184000000002
#
# number of rings (size 3 to 8) (size 9 to 14) (size 15 to 20)
#    0.000    1.615    3.846    2.308    0.000    1.231 
#    1.385    1.538    0.000    2.308    0.000    2.154 
#    0.000    0.000    0.000    0.000    0.000    0.000 
#
# Total GULP energy -1289056.459351 kJ/mol
# GULP energy per Si atom -12394.773648 kJ/mol
# Density = 1.847903 g / cm^3
# Si number density = 18.521184 Si / 1000 Ang^3
#
#
#
# Elastic Constant Matrix: (Units=GPa)
#
#
# Indices 1 2 3 4 5 6 
#
# 1 91.1064 26.0606 33.2913 0.0000 0.0000 0.0000
# 2 26.0606 91.1064 33.2913 0.0000 0.0000 0.0000
# 3 33.2913 33.2913 83.3481 0.0000 0.0000 0.0000
# 4 0.0000 0.0000 0.0000 21.1565 0.0000 0.0000
# 5 0.0000 0.0000 0.0000 0.0000 21.1564 0.0000
# 6 0.0000 0.0000 0.0000 0.0000 0.0000 27.5814
#
#
#
# Elastic Compliance Matrix: (Units=1/GPa)
#
#
# Indices 1 2 3 4 5 6 
#
# 1 0.013207 -0.002166 -0.004410 0.000000 0.000000 0.000000
# 2 -0.002166 0.013207 -0.004410 0.000000 0.000000 0.000000
# 3 -0.004410 -0.004410 0.015521 0.000000 0.000000 0.000000
# 4 0.000000 0.000000 0.000000 0.047267 0.000000 0.000000
# 5 0.000000 0.000000 0.000000 0.000000 0.047267 0.000000
# 6 0.000000 0.000000 0.000000 0.000000 0.000000 0.036256
#
#
# Mechanical properties :
#
#
# Convention : Reuss Voigt Hill
#
# Bulk Modulus (GPa) = 50.09372 50.09413 50.09392
# Shear Modulus (GPa) = 24.83204 25.50671 25.16938
#
# Velocity S-wave (km/s) = 3.66558 3.71504 3.69039
# Velocity P-wave (km/s) = 6.70975 6.74594 6.72787
#
# Compressibility (1/GPa) = 0.01996258
#
# Stress axis : x y z
#
# Youngs Moduli (GPa) = 75.71549 75.71546 64.42960
#
# Poissons Ratio (x) = 0.16403 0.28414
# Poissons Ratio (y) = 0.16403 0.28414
# Poissons Ratio (z) = 0.33391 0.33391
#
# Static dielectric constant tensor:
#      x y z
#    x 3.527100 0.000000 0.000000 
#    y 0.000000 3.527100 0.000000 
#    z 0.000000 0.000000 3.121490 
# 
# 
# High freq. dielectric constant tensor:
#      x y z
#    x 1.725430 0.000000 0.000000 
#    y 0.000000 1.725430 0.000000 
#    z 0.000000 0.000000 1.676860 
# 
# From -- ./inp_files/6203.got.cif
#   From: 2010.03.12/outbox.cif.g09.slc.cpg/sg127_4_cif.got.tgz:6203.got - 2010.04.06 17:03:15.
