data_PCOD8313967
_publ_section_title
;
Structure prediction by ZEFSAII (Michael W. Deem and Ramdas Pophale) SiO2 
 PCOD8313967
Probable space group: P 4/M B M
;
_chemical_formula_sum "Si O2"
_cell_formula_units_Z 56
_cell_length_a 21.537310
_cell_length_b 21.537310
_cell_length_c 7.492710
_cell_angle_alpha 90.000000
_cell_angle_beta 90.000000
_cell_angle_gamma 90.000000
_cell_volume 3475.536407
_symmetry_space_group_name_H-M "P 4/M B M"
_symmetry_group_IT_number 127
_symmetry_cell_setting 'tetragonal'
loop_
_space_group_symop_operation_xyz
x,y,z
-y,x,z
-x,-y,z
y,-x,z
1/2+x,1/2-y,-z
1/2-x,1/2+y,-z
1/2+y,1/2+x,-z
1/2-y,1/2-x,-z
-x,-y,-z
y,-x,-z
x,y,-z
-y,x,-z
1/2-x,1/2+y,z
1/2+x,1/2-y,z
1/2-y,1/2-x,z
1/2+y,1/2+x,z
loop_
_atom_site_type_symbol
_atom_site_label
_atom_site_fract_x
_atom_site_fract_y
_atom_site_fract_z
Si Si1 0.798592 0.804806 0.500000
Si Si2 0.681661 0.006067 0.792028
Si Si3 0.737844 0.136443 0.797450
Si Si4 0.951015 0.548986 0.211830
Si Si5 0.405252 0.200473 0.500000
O O1 0.743754 0.756247 0.500000
O O2 0.840739 0.794528 0.675048
O O3 0.767658 0.872257 0.500000
O O4 0.700856 0.946372 0.678595
O O5 0.728420 0.063348 0.762472
O O6 0.615752 0.029006 0.716436
O O7 0.678761 0.986506 0.000000
O O8 0.673920 0.173920 0.755626
O O9 0.758248 0.148500 0.000000
O O10 0.000000 0.500000 0.286874
O O11 0.948873 0.551128 0.000000
O O12 0.357177 0.142824 0.500000
#
# Coordination Sequence:
#
# PCOD8313967 Si02
#       5
#     8  16  16   8   8
#     4   9  19  32  45  64  91 122 159 199 234 281
#     4  10  19  32  49  68  93 124 163 204 235 270
#     4   9  16  30  52  71  85 112 159 210 247 269
#     4   9  16  27  43  65  94 127 159 192 225 259
#     4  11  23  33  42  65 100 138 165 181 228 292
#
# _framework density 16.112621000000001
#
# number of rings (size 3 to 8) (size 9 to 14) (size 15 to 20)
#    0.000    2.429    1.429    1.714    0.000    3.429 
#    0.000    4.286    0.000    0.000    0.000    0.000 
#    0.000    9.143    0.000   25.143    0.000    0.000 
#
# Total GULP energy -694260.189386 kJ/mol
# GULP energy per Si atom -12397.503382 kJ/mol
# Density = 1.607595 g / cm^3
# Si number density = 16.112621 Si / 1000 Ang^3
#
#
#
# Elastic Constant Matrix: (Units=GPa)
#
#
# Indices 1 2 3 4 5 6 
#
# 1 78.2757 63.5392 54.2343 0.0000 0.0000 0.0000
# 2 63.5392 78.2759 54.2347 0.0000 0.0000 0.0000
# 3 54.2343 54.2347 104.5756 0.0000 0.0000 0.0000
# 4 0.0000 0.0000 0.0000 23.1826 0.0000 0.0000
# 5 0.0000 0.0000 0.0000 0.0000 23.1834 0.0000
# 6 0.0000 0.0000 0.0000 0.0000 0.0000 31.5041
#
#
#
# Elastic Compliance Matrix: (Units=1/GPa)
#
#
# Indices 1 2 3 4 5 6 
#
# 1 0.039773 -0.028085 -0.006061 0.000000 0.000000 0.000000
# 2 -0.028085 0.039773 -0.006061 0.000000 0.000000 0.000000
# 3 -0.006061 -0.006061 0.015849 0.000000 0.000000 0.000000
# 4 0.000000 0.000000 0.000000 0.043136 0.000000 0.000000
# 5 0.000000 0.000000 0.000000 0.000000 0.043134 0.000000
# 6 0.000000 0.000000 0.000000 0.000000 0.000000 0.031742
#
#
# Mechanical properties :
#
#
# Convention : Reuss Voigt Hill
#
# Bulk Modulus (GPa) = 66.75927 67.23817 66.99872
# Shear Modulus (GPa) = 16.73270 21.51530 19.12400
#
# Velocity S-wave (km/s) = 3.22605 3.65815 3.44887
# Velocity P-wave (km/s) = 7.44308 7.72421 7.58495
#
# Compressibility (1/GPa) = 0.01497919
#
# Stress axis : x y z
#
# Youngs Moduli (GPa) = 25.14282 25.14275 63.09374
#
# Poissons Ratio (x) = 0.70614 0.38242
# Poissons Ratio (y) = 0.70614 0.38244
# Poissons Ratio (z) = 0.15239 0.15240
#
# Static dielectric constant tensor:
#      x y z
#    x 2.961120 0.000000 0.000000 
#    y 0.000000 2.961130 0.000000 
#    z 0.000000 0.000000 3.104600 
# 
# 
# High freq. dielectric constant tensor:
#      x y z
#    x 1.592030 0.000000 0.000000 
#    y 0.000000 1.592030 0.000000 
#    z 0.000000 0.000000 1.632530 
# 
# From -- ./inp_files/1131.got.cif
#   From: 2010.03.12/outbox.cif.g09.slc.cpg/sg127_1_cif.got.tgz:1131.got - 2010.04.06 17:03:15.
