data_PCOD8313722
_publ_section_title
;
Structure prediction by ZEFSAII (Michael W. Deem and Ramdas Pophale) SiO2 
 PCOD8313722
Probable space group: P 4/N N C
;
_chemical_formula_sum "Si O2"
_cell_formula_units_Z 72
_cell_length_a 15.379935
_cell_length_b 15.379935
_cell_length_c 15.266943
_cell_angle_alpha 90.000000
_cell_angle_beta 90.000000
_cell_angle_gamma 90.000000
_cell_volume 3611.279347
_symmetry_space_group_name_H-M "P 4/N N C"
_symmetry_group_IT_number 126
_space_group.IT_coordinate_system_code '2'
_symmetry_cell_setting 'tetragonal'
loop_
_space_group_symop_operation_xyz
x,y,z
1/2-y,x,z
1/2-x,1/2-y,z
y,1/2-x,z
x,1/2-y,1/2-z
1/2-x,y,1/2-z
y,x,1/2-z
1/2-y,1/2-x,1/2-z
-x,-y,-z
1/2+y,-x,-z
1/2+x,1/2+y,-z
-y,1/2+x,-z
-x,1/2+y,1/2+z
1/2+x,-y,1/2+z
-y,-x,1/2+z
1/2+y,1/2+x,1/2+z
loop_
_atom_site_type_symbol
_atom_site_label
_atom_site_fract_x
_atom_site_fract_y
_atom_site_fract_z
Si Si1 0.202005 0.884971 0.995469
Si Si2 0.905919 0.938295 0.405450
Si Si3 0.352207 0.147794 0.250000
Si Si4 0.478126 0.097499 0.094166
Si Si5 0.723253 0.993573 0.346726
O O1 0.175960 0.953865 0.071808
O O2 0.302442 0.860855 0.003710
O O3 0.185703 0.923890 0.898991
O O4 0.925584 0.924632 0.507022
O O5 0.804263 0.956597 0.400124
O O6 0.922618 0.853545 0.345219
O O7 0.964505 0.017458 0.369968
O O8 0.371265 0.250000 0.250000
O O9 0.404603 0.116418 0.165218
O O10 0.750000 0.022515 0.250000
#
# Coordination Sequence:
#
# PCOD8313722 Si02
#       5
#    16  16   8  16  16
#     4  10  21  41  67  95 134 169 214 266 328 397
#     4  10  23  41  65  93 126 172 213 261 328 388
#     4  11  28  44  66  98 132 169 226 272 310 389
#     4  10  23  43  67  89 128 175 213 259 329 381
#     4  11  23  39  64  96 130 164 219 270 316 389
#
# _framework density 19.937532999999998
#
# number of rings (size 3 to 8) (size 9 to 14) (size 15 to 20)
#    0.000    1.667    2.222    0.667    9.333    0.444 
#    0.000    3.333    0.000    0.000    0.000    0.000 
#    0.000    0.000    0.000    0.000    0.000    0.000 
#
# Total GULP energy -892633.002802 kJ/mol
# GULP energy per Si atom -12397.680594 kJ/mol
# Density = 1.989215 g / cm^3
# Si number density = 19.937533 Si / 1000 Ang^3
#
#
#
# Elastic Constant Matrix: (Units=GPa)
#
#
# Indices 1 2 3 4 5 6 
#
# 1 118.9138 44.6495 44.5675 0.0000 0.0000 0.0000
# 2 44.6495 118.9155 44.5677 0.0000 0.0000 0.0000
# 3 44.5675 44.5677 99.2661 0.0000 0.0000 0.0000
# 4 0.0000 0.0000 0.0000 28.0829 0.0000 0.0000
# 5 0.0000 0.0000 0.0000 0.0000 28.0825 0.0000
# 6 0.0000 0.0000 0.0000 0.0000 0.0000 30.1335
#
#
#
# Elastic Compliance Matrix: (Units=1/GPa)
#
#
# Indices 1 2 3 4 5 6 
#
# 1 0.010780 -0.002686 -0.003634 0.000000 0.000000 0.000000
# 2 -0.002686 0.010780 -0.003634 0.000000 0.000000 0.000000
# 3 -0.003634 -0.003634 0.013337 0.000000 0.000000 0.000000
# 4 0.000000 0.000000 0.000000 0.035609 0.000000 0.000000
# 5 0.000000 0.000000 0.000000 0.000000 0.035609 0.000000
# 6 0.000000 0.000000 0.000000 0.000000 0.000000 0.033186
#
#
# Mechanical properties :
#
#
# Convention : Reuss Voigt Hill
#
# Bulk Modulus (GPa) = 66.71439 67.18499 66.94969
# Shear Modulus (GPa) = 30.44989 30.81383 30.63186
#
# Velocity S-wave (km/s) = 3.91226 3.93557 3.92394
# Velocity P-wave (km/s) = 7.34453 7.37716 7.36086
#
# Compressibility (1/GPa) = 0.01498927
#
# Stress axis : x y z
#
# Youngs Moduli (GPa) = 92.76588 92.76735 74.97876
#
# Poissons Ratio (x) = 0.24913 0.27248
# Poissons Ratio (y) = 0.24912 0.27248
# Poissons Ratio (z) = 0.33712 0.33712
#
# Static dielectric constant tensor:
#      x y z
#    x 3.843730 0.000000 0.000000 
#    y 0.000000 3.843710 0.000000 
#    z 0.000000 0.000000 3.466980 
# 
# 
# High freq. dielectric constant tensor:
#      x y z
#    x 1.789240 0.000000 0.000000 
#    y 0.000000 1.789240 0.000000 
#    z 0.000000 0.000000 1.768430 
# 
# From -- ./inp_files/4382.got.cif
#   From: 2010.03.12/outbox.cif.g09.slc.cpg/sg126_3_cif.got.tgz:4382.got - 2010.04.06 16:55:23.
