data_PCOD8313788
_publ_section_title
;
Structure prediction by ZEFSAII (Michael W. Deem and Ramdas Pophale) SiO2 
 PCOD8313788
Probable space group: P 4/N N C
;
_chemical_formula_sum "Si O2"
_cell_formula_units_Z 48
_cell_length_a 9.707097
_cell_length_b 9.707097
_cell_length_c 26.468767
_cell_angle_alpha 90.000000
_cell_angle_beta 90.000000
_cell_angle_gamma 90.000000
_cell_volume 2494.091888
_symmetry_space_group_name_H-M "P 4/N N C"
_symmetry_group_IT_number 126
_space_group.IT_coordinate_system_code '2'
_symmetry_cell_setting 'tetragonal'
loop_
_space_group_symop_operation_xyz
x,y,z
1/2-y,x,z
1/2-x,1/2-y,z
y,1/2-x,z
x,1/2-y,1/2-z
1/2-x,y,1/2-z
y,x,1/2-z
1/2-y,1/2-x,1/2-z
-x,-y,-z
1/2+y,-x,-z
1/2+x,1/2+y,-z
-y,1/2+x,-z
-x,1/2+y,1/2+z
1/2+x,-y,1/2+z
-y,-x,1/2+z
1/2+y,1/2+x,1/2+z
loop_
_atom_site_type_symbol
_atom_site_label
_atom_site_fract_x
_atom_site_fract_y
_atom_site_fract_z
Si Si1 0.966965 0.675130 0.627730
Si Si2 0.091531 0.621382 0.519631
Si Si3 0.888063 0.095607 0.729078
O O1 0.922949 0.834216 0.633271
O O2 0.044453 0.662628 0.575054
O O3 0.080394 0.624777 0.668596
O O4 0.073573 0.749434 0.480980
O O5 0.000000 0.500000 0.500000
O O6 0.894972 0.250000 0.750000
O O7 0.750000 0.022016 0.750000
O O8 0.022716 0.022716 0.750000
#
# Coordination Sequence:
#
# PCOD8313788 Si02
#       3
#    16  16  16
#     4  11  22  40  71  97 129 180 225 270 333 401
#     4  11  24  41  65  98 134 173 220 276 332 391
#     4  11  24  41  66  99 132 167 218 277 328 391
#
# _framework density 19.245483
#
# number of rings (size 3 to 8) (size 9 to 14) (size 15 to 20)
#    0.000    1.000    6.667    0.000    0.000    9.333 
#    0.000    0.000    0.000    4.000    0.000    0.000 
#    0.000    0.000    0.000    0.000    0.000    0.000 
#
# Total GULP energy -595047.180927 kJ/mol
# GULP energy per Si atom -12396.816269 kJ/mol
# Density = 1.920168 g / cm^3
# Si number density = 19.245483 Si / 1000 Ang^3
#
#
#
# Elastic Constant Matrix: (Units=GPa)
#
#
# Indices 1 2 3 4 5 6 
#
# 1 124.1715 72.8994 59.3649 0.0000 0.0000 0.0000
# 2 72.8994 124.1715 59.3649 0.0000 0.0000 0.0000
# 3 59.3649 59.3649 150.6276 0.0000 0.0000 0.0000
# 4 0.0000 0.0000 0.0000 38.6517 0.0000 0.0000
# 5 0.0000 0.0000 0.0000 0.0000 38.6517 0.0000
# 6 0.0000 0.0000 0.0000 0.0000 0.0000 33.4701
#
#
#
# Elastic Compliance Matrix: (Units=1/GPa)
#
#
# Indices 1 2 3 4 5 6 
#
# 1 0.013079 -0.006425 -0.002623 0.000000 0.000000 0.000000
# 2 -0.006425 0.013079 -0.002623 0.000000 0.000000 0.000000
# 3 -0.002623 -0.002623 0.008706 0.000000 0.000000 0.000000
# 4 0.000000 0.000000 0.000000 0.025872 0.000000 0.000000
# 5 0.000000 0.000000 0.000000 0.000000 0.025872 0.000000
# 6 0.000000 0.000000 0.000000 0.000000 0.000000 0.029877
#
#
# Mechanical properties :
#
#
# Convention : Reuss Voigt Hill
#
# Bulk Modulus (GPa) = 86.77208 86.91432 86.84320
# Shear Modulus (GPa) = 34.80268 35.97746 35.39007
#
# Velocity S-wave (km/s) = 4.25709 4.32834 4.29286
# Velocity P-wave (km/s) = 8.32758 8.38083 8.35425
#
# Compressibility (1/GPa) = 0.01152444
#
# Stress axis : x y z
#
# Youngs Moduli (GPa) = 76.45803 76.45803 114.86184
#
# Poissons Ratio (x) = 0.49122 0.30124
# Poissons Ratio (y) = 0.49122 0.30124
# Poissons Ratio (z) = 0.20052 0.20052
#
# Static dielectric constant tensor:
#      x y z
#    x 3.609520 0.000000 0.000000 
#    y 0.000000 3.609520 0.000000 
#    z 0.000000 0.000000 3.804330 
# 
# 
# High freq. dielectric constant tensor:
#      x y z
#    x 1.752310 0.000000 0.000000 
#    y 0.000000 1.752310 0.000000 
#    z 0.000000 0.000000 1.757860 
# 
# From -- ./inp_files/6315.got.cif
#   From: 2010.03.12/outbox.cif.g09.slc.cpg/sg126_4_cif.got.tgz:6315.got - 2010.04.06 16:55:23.
