data_PCOD8313741
_publ_section_title
;
Structure prediction by ZEFSAII (Michael W. Deem and Ramdas Pophale) SiO2 
 PCOD8313741
Probable space group: P 4/N N C
;
_chemical_formula_sum "Si O2"
_cell_formula_units_Z 84
_cell_length_a 13.651221
_cell_length_b 13.651221
_cell_length_c 20.981660
_cell_angle_alpha 90.000000
_cell_angle_beta 90.000000
_cell_angle_gamma 90.000000
_cell_volume 3910.054765
_symmetry_space_group_name_H-M "P 4/N N C"
_symmetry_group_IT_number 126
_space_group.IT_coordinate_system_code '2'
_symmetry_cell_setting 'tetragonal'
loop_
_space_group_symop_operation_xyz
x,y,z
1/2-y,x,z
1/2-x,1/2-y,z
y,1/2-x,z
x,1/2-y,1/2-z
1/2-x,y,1/2-z
y,x,1/2-z
1/2-y,1/2-x,1/2-z
-x,-y,-z
1/2+y,-x,-z
1/2+x,1/2+y,-z
-y,1/2+x,-z
-x,1/2+y,1/2+z
1/2+x,-y,1/2+z
-y,-x,1/2+z
1/2+y,1/2+x,1/2+z
loop_
_atom_site_type_symbol
_atom_site_label
_atom_site_fract_x
_atom_site_fract_y
_atom_site_fract_z
Si Si1 0.133027 0.815775 0.138462
Si Si2 0.529407 0.491655 0.319474
Si Si3 0.090260 0.884330 0.421106
Si Si4 0.826478 0.610179 0.651713
Si Si5 0.250000 0.750000 0.250000
Si Si6 0.974212 0.285904 0.044923
O O1 0.139882 0.702727 0.118633
O O2 0.187995 0.823834 0.205935
O O3 0.178688 0.878452 0.081952
O O4 0.025416 0.860895 0.153251
O O5 0.539760 0.539760 0.250000
O O6 0.474487 0.557065 0.370967
O O7 0.474756 0.385401 0.311297
O O8 0.167521 0.959772 0.453711
O O9 0.023558 0.832265 0.474711
O O10 0.880905 0.711490 0.669205
O O11 0.821695 0.575926 0.577325
#
# Coordination Sequence:
#
# PCOD8313741 Si02
#       6
#    16  16  16  16   4  16
#     4  11  24  37  64  97 129 174 212 275 333 382
#     4  11  26  42  63  96 133 174 225 266 328 405
#     4  12  22  43  66  97 134 166 223 276 334 404
#     4  10  22  41  61  90 130 172 212 259 322 394
#     4  12  20  36  62  92 140 172 220 266 336 396
#     4  11  22  38  67  95 125 165 215 271 334 386
#
# _framework density 21.483076000000001
#
# number of rings (size 3 to 8) (size 9 to 14) (size 15 to 20)
#    0.000    0.952    5.714    1.143    0.000    5.333 
#    0.000    0.952    0.000    0.571    0.000    1.333 
#    0.000    0.000    0.000    0.000    0.000    0.000 
#
# Total GULP energy -1040657.968781 kJ/mol
# GULP energy per Si atom -12388.785343 kJ/mol
# Density = 2.143418 g / cm^3
# Si number density = 21.483076 Si / 1000 Ang^3
#
#
#
# Elastic Constant Matrix: (Units=GPa)
#
#
# Indices 1 2 3 4 5 6 
#
# 1 54.4565 12.8407 10.0684 0.0000 0.0000 0.0000
# 2 12.8407 54.4565 10.0684 0.0000 0.0000 0.0000
# 3 10.0684 10.0684 103.5420 0.0000 0.0000 0.0000
# 4 0.0000 0.0000 0.0000 31.8172 0.0000 0.0000
# 5 0.0000 0.0000 0.0000 0.0000 31.8172 0.0000
# 6 0.0000 0.0000 0.0000 0.0000 0.0000 35.8530
#
#
#
# Elastic Compliance Matrix: (Units=1/GPa)
#
#
# Indices 1 2 3 4 5 6 
#
# 1 0.019667 -0.004362 -0.001488 0.000000 0.000000 0.000000
# 2 -0.004362 0.019667 -0.001488 0.000000 0.000000 0.000000
# 3 -0.001488 -0.001488 0.009947 0.000000 0.000000 0.000000
# 4 0.000000 0.000000 0.000000 0.031430 0.000000 0.000000
# 5 0.000000 0.000000 0.000000 0.000000 0.031430 0.000000
# 6 0.000000 0.000000 0.000000 0.000000 0.000000 0.027892
#
#
# Mechanical properties :
#
#
# Convention : Reuss Voigt Hill
#
# Bulk Modulus (GPa) = 28.89842 30.93444 29.91643
# Shear Modulus (GPa) = 30.07623 31.86267 30.96945
#
# Velocity S-wave (km/s) = 3.74571 3.85535 3.80093
# Velocity P-wave (km/s) = 5.67345 5.85226 5.76355
#
# Compressibility (1/GPa) = 0.03460397
#
# Stress axis : x y z
#
# Youngs Moduli (GPa) = 50.84648 50.84648 100.52930
#
# Poissons Ratio (x) = 0.22181 0.14961
# Poissons Ratio (y) = 0.22181 0.14961
# Poissons Ratio (z) = 0.07567 0.07567
#
# Static dielectric constant tensor:
#      x y z
#    x 3.909500 0.000000 0.000000 
#    y 0.000000 3.909500 0.000000 
#    z 0.000000 0.000000 3.893180 
# 
# 
# High freq. dielectric constant tensor:
#      x y z
#    x 1.830240 0.000000 0.000000 
#    y 0.000000 1.830240 0.000000 
#    z 0.000000 0.000000 1.845680 
# 
# From -- ./inp_files/5167.got.cif
#   From: 2010.03.12/outbox.cif.g09.slc.cpg/sg126_3_cif.got.tgz:5167.got - 2010.04.06 16:55:23.
