data_PCOD8313801
_publ_section_title
;
Structure prediction by ZEFSAII (Michael W. Deem and Ramdas Pophale) SiO2 
 PCOD8313801
Probable space group: P 4/N N C
;
_chemical_formula_sum "Si O2"
_cell_formula_units_Z 112
_cell_length_a 14.320432
_cell_length_b 14.320432
_cell_length_c 25.063078
_cell_angle_alpha 90.000000
_cell_angle_beta 90.000000
_cell_angle_gamma 90.000000
_cell_volume 5139.805023
_symmetry_space_group_name_H-M "P 4/N N C"
_symmetry_group_IT_number 126
_space_group.IT_coordinate_system_code '2'
_symmetry_cell_setting 'tetragonal'
loop_
_space_group_symop_operation_xyz
x,y,z
1/2-y,x,z
1/2-x,1/2-y,z
y,1/2-x,z
x,1/2-y,1/2-z
1/2-x,y,1/2-z
y,x,1/2-z
1/2-y,1/2-x,1/2-z
-x,-y,-z
1/2+y,-x,-z
1/2+x,1/2+y,-z
-y,1/2+x,-z
-x,1/2+y,1/2+z
1/2+x,-y,1/2+z
-y,-x,1/2+z
1/2+y,1/2+x,1/2+z
loop_
_atom_site_type_symbol
_atom_site_label
_atom_site_fract_x
_atom_site_fract_y
_atom_site_fract_z
Si Si1 0.489414 0.584463 0.456555
Si Si2 0.822851 0.173901 0.103564
Si Si3 0.923125 0.915159 0.808960
Si Si4 0.710091 0.601705 0.975074
Si Si5 0.749676 0.026929 0.188443
Si Si6 0.066300 0.056393 0.840503
Si Si7 0.740362 0.992211 0.633891
O O1 0.500000 0.500000 0.500000
O O2 0.383652 0.618118 0.441770
O O3 0.534345 0.681197 0.476824
O O4 0.543088 0.551138 0.403831
O O5 0.750000 0.250000 0.078608
O O6 0.769081 0.109954 0.146433
O O7 0.900652 0.230956 0.135300
O O8 0.890008 0.890008 0.750000
O O9 0.847216 0.989543 0.827540
O O10 0.924214 0.822844 0.845638
O O11 0.022731 0.966566 0.810409
O O12 0.815018 0.636020 0.979168
O O13 0.699696 0.543275 0.921733
O O14 0.750000 0.062098 0.250000
O O15 0.825817 0.945436 0.177640
O O16 0.650798 0.981212 0.176986
#
# Coordination Sequence:
#
# PCOD8313801 Si02
#       7
#    16  16  16  16  16  16  16
#     4  11  24  47  72  99 140 189 241 295 375 432
#     4  11  26  48  69 108 146 186 245 304 359 442
#     4  12  24  43  70 104 145 191 238 295 363 437
#     4  11  24  43  72  96 130 181 234 291 359 423
#     4  11  23  45  74 105 144 193 239 296 374 433
#     4  11  25  44  70 104 146 184 245 304 358 442
#     4  12  23  47  69 102 144 188 239 298 361 435
#
# _framework density 21.790709
#
# number of rings (size 3 to 8) (size 9 to 14) (size 15 to 20)
#    0.000    0.714    4.286    4.286    4.000    0.857 
#    5.143    1.429    0.000    0.000    0.000    0.000 
#    0.000    0.000    0.000    0.000    0.000    0.000 
#
# Total GULP energy -1388469.793987 kJ/mol
# GULP energy per Si atom -12397.051732 kJ/mol
# Density = 2.174111 g / cm^3
# Si number density = 21.790709 Si / 1000 Ang^3
#
#
#
# Elastic Constant Matrix: (Units=GPa)
#
#
# Indices 1 2 3 4 5 6 
#
# 1 80.7415 39.8215 32.8522 0.0000 0.0000 0.0000
# 2 39.8215 80.7415 32.8522 0.0000 0.0000 0.0000
# 3 32.8522 32.8522 105.9721 0.0000 0.0000 0.0000
# 4 0.0000 0.0000 0.0000 11.7922 0.0000 0.0000
# 5 0.0000 0.0000 0.0000 0.0000 11.7922 0.0000
# 6 0.0000 0.0000 0.0000 0.0000 0.0000 65.7441
#
#
#
# Elastic Compliance Matrix: (Units=1/GPa)
#
#
# Indices 1 2 3 4 5 6 
#
# 1 0.017209 -0.007229 -0.003094 0.000000 0.000000 0.000000
# 2 -0.007229 0.017209 -0.003094 0.000000 0.000000 0.000000
# 3 -0.003094 -0.003094 0.011355 0.000000 0.000000 0.000000
# 4 0.000000 0.000000 0.000000 0.084802 0.000000 0.000000
# 5 0.000000 0.000000 0.000000 0.000000 0.084802 0.000000
# 6 0.000000 0.000000 0.000000 0.000000 0.000000 0.015210
#
#
# Mechanical properties :
#
#
# Convention : Reuss Voigt Hill
#
# Bulk Modulus (GPa) = 52.79893 53.16743 52.98318
# Shear Modulus (GPa) = 18.95844 28.66097 23.80970
#
# Velocity S-wave (km/s) = 2.95282 3.63062 3.30912
# Velocity P-wave (km/s) = 5.99234 6.48285 6.24241
#
# Compressibility (1/GPa) = 0.01893978
#
# Stress axis : x y z
#
# Youngs Moduli (GPa) = 58.10820 58.10820 88.06826
#
# Poissons Ratio (x) = 0.42004 0.27249
# Poissons Ratio (y) = 0.42004 0.27249
# Poissons Ratio (z) = 0.17979 0.17979
#
# Static dielectric constant tensor:
#      x y z
#    x 4.070010 0.000000 0.000000 
#    y 0.000000 4.070010 0.000000 
#    z 0.000000 0.000000 4.057740 
# 
# 
# High freq. dielectric constant tensor:
#      x y z
#    x 1.863060 0.000000 0.000000 
#    y 0.000000 1.863060 0.000000 
#    z 0.000000 0.000000 1.858020 
# 
# From -- ./inp_files/5813.got.cif
#   From: 2010.03.12/outbox.cif.g09.slc.cpg/sg126_3_cif.got.tgz:5813.got - 2010.04.06 16:55:23.
