data_PCOD8313031
_publ_section_title
;
Structure prediction by ZEFSAII (Michael W. Deem and Ramdas Pophale) SiO2 
 PCOD8313031
Probable space group: P 4/M M M
;
_chemical_formula_sum "Si O2"
_cell_formula_units_Z 56
_cell_length_a 14.082060
_cell_length_b 14.082060
_cell_length_c 19.073566
_cell_angle_alpha 90.000000
_cell_angle_beta 90.000000
_cell_angle_gamma 90.000000
_cell_volume 3782.372326
_symmetry_space_group_name_H-M "P 4/M M M"
_symmetry_group_IT_number 123
_symmetry_cell_setting 'tetragonal'
loop_
_space_group_symop_operation_xyz
x,y,z
-y,x,z
-x,-y,z
y,-x,z
x,-y,-z
-x,y,-z
y,x,-z
-y,-x,-z
-x,-y,-z
y,-x,-z
x,y,-z
-y,x,-z
-x,y,z
x,-y,z
-y,-x,z
y,x,z
loop_
_atom_site_type_symbol
_atom_site_label
_atom_site_fract_x
_atom_site_fract_y
_atom_site_fract_z
Si Si1 0.763122 0.389907 0.330018
Si Si2 0.500000 0.889223 0.918544
Si Si3 0.396706 0.754180 0.170840
Si Si4 0.891393 0.737819 0.581410
O O1 0.747249 0.500000 0.348013
O O2 0.666081 0.333920 0.348719
O O3 0.790330 0.372255 0.248788
O O4 0.850447 0.350926 0.375487
O O5 0.594435 0.844021 0.882115
O O6 0.500000 0.000000 0.904476
O O7 0.500000 0.863644 0.000000
O O8 0.500000 0.701604 0.173431
O O9 0.318080 0.681921 0.141703
O O10 0.882387 0.711624 0.500000
O O11 0.833493 0.833493 0.599459
O O12 0.000000 0.755689 0.603330
#
# Coordination Sequence:
#
# PCOD8313031 Si02
#       4
#    16   8  16  16
#     4   9  17  30  45  64  89 115 147 181 214 258
#     4   9  18  30  43  63  92 120 147 180 217 261
#     4   8  16  29  45  65  89 117 149 179 216 262
#     4   9  18  31  46  65  88 113 144 186 231 271
#
# _framework density 14.805523000000001
#
# number of rings (size 3 to 8) (size 9 to 14) (size 15 to 20)
#    0.857    2.429    0.000    0.000    0.000    3.714 
#    0.000    5.714    0.000    0.857    0.000    4.000 
#    0.000    0.571    0.000    3.143    0.000    0.000 
#
# Total GULP energy -693938.982949 kJ/mol
# GULP energy per Si atom -12391.767553 kJ/mol
# Density = 1.477183 g / cm^3
# Si number density = 14.805523 Si / 1000 Ang^3
#
#
#
# Elastic Constant Matrix: (Units=GPa)
#
#
# Indices 1 2 3 4 5 6 
#
# 1 103.9740 50.5668 52.6216 0.0000 0.0000 0.0000
# 2 50.5668 103.9740 52.6216 0.0000 0.0000 0.0000
# 3 52.6216 52.6216 68.4319 0.0000 0.0000 0.0000
# 4 0.0000 0.0000 0.0000 23.8437 0.0000 0.0000
# 5 0.0000 0.0000 0.0000 0.0000 23.8437 0.0000
# 6 0.0000 0.0000 0.0000 0.0000 0.0000 15.6885
#
#
#
# Elastic Compliance Matrix: (Units=1/GPa)
#
#
# Indices 1 2 3 4 5 6 
#
# 1 0.016154 -0.002570 -0.010446 0.000000 0.000000 0.000000
# 2 -0.002570 0.016154 -0.010446 0.000000 0.000000 0.000000
# 3 -0.010446 -0.010446 0.030678 0.000000 0.000000 0.000000
# 4 0.000000 0.000000 0.000000 0.041940 0.000000 0.000000
# 5 0.000000 0.000000 0.000000 0.000000 0.041940 0.000000
# 6 0.000000 0.000000 0.000000 0.000000 0.000000 0.063741
#
#
# Mechanical properties :
#
#
# Convention : Reuss Voigt Hill
#
# Bulk Modulus (GPa) = 62.25367 65.33333 63.79350
# Shear Modulus (GPa) = 19.01966 20.71318 19.86642
#
# Velocity S-wave (km/s) = 3.58807 3.74440 3.66707
# Velocity P-wave (km/s) = 7.70094 7.93206 7.81735
#
# Compressibility (1/GPa) = 0.01606331
#
# Stress axis : x y z
#
# Youngs Moduli (GPa) = 61.90283 61.90283 32.59623
#
# Poissons Ratio (x) = 0.15907 0.34050
# Poissons Ratio (y) = 0.15907 0.34050
# Poissons Ratio (z) = 0.64664 0.64664
#
# Static dielectric constant tensor:
#      x y z
#    x 2.772570 0.000000 0.000000 
#    y 0.000000 2.772570 0.000000 
#    z 0.000000 0.000000 2.853330 
# 
# 
# High freq. dielectric constant tensor:
#      x y z
#    x 1.554350 0.000000 0.000000 
#    y 0.000000 1.554350 0.000000 
#    z 0.000000 0.000000 1.564870 
# 
# From -- ./inp_files/4873.got.cif
#   From: 2010.03.12/outbox.cif.g09.slc.cpg/sg123_3_cif.got.tgz:4873.got - 2010.04.06 16:26:55.
