data_PCOD8313151
_publ_section_title
;
Structure prediction by ZEFSAII (Michael W. Deem and Ramdas Pophale) SiO2 
 PCOD8313151
Probable space group: P 4/M C C
;
_chemical_formula_sum "Si O2"
_cell_formula_units_Z 80
_cell_length_a 21.759445
_cell_length_b 21.759445
_cell_length_c 9.211552
_cell_angle_alpha 90.000000
_cell_angle_beta 90.000000
_cell_angle_gamma 90.000000
_cell_volume 4361.425275
_symmetry_space_group_name_H-M "P 4/M C C"
_symmetry_group_IT_number 124
_symmetry_cell_setting 'tetragonal'
loop_
_space_group_symop_operation_xyz
x,y,z
-y,x,z
-x,-y,z
y,-x,z
x,-y,1/2-z
-x,y,1/2-z
y,x,1/2-z
-y,-x,1/2-z
-x,-y,-z
y,-x,-z
x,y,-z
-y,x,-z
-x,y,1/2+z
x,-y,1/2+z
-y,-x,1/2+z
y,x,1/2+z
loop_
_atom_site_type_symbol
_atom_site_label
_atom_site_fract_x
_atom_site_fract_y
_atom_site_fract_z
Si Si1 0.057291 0.683799 0.828942
Si Si2 0.280911 0.806162 0.669473
Si Si3 0.475756 0.598580 0.500000
Si Si4 0.439562 0.086325 0.668313
Si Si5 0.778566 0.600615 0.161004
Si Si6 0.683802 0.500000 0.250000
O O1 0.120805 0.719570 0.798311
O O2 0.058328 0.617516 0.753813
O O3 0.000000 0.719097 0.750000
O O4 0.045447 0.677046 0.000000
O O5 0.222141 0.777860 0.750000
O O6 0.276036 0.792297 0.500000
O O7 0.343687 0.774643 0.725051
O O8 0.426548 0.544854 0.500000
O O9 0.464383 0.640741 0.361812
O O10 0.500000 0.061806 0.750000
O O11 0.439244 0.065236 0.500000
O O12 0.438083 0.159696 0.682068
O O13 0.723450 0.553004 0.176198
O O14 0.776197 0.629878 0.000000
#
# Coordination Sequence:
#
# PCOD8313151 Si02
#       6
#    16  16   8  16  16   8
#     4  10  21  37  56  81 110 148 190 229 270 321
#     4  10  22  38  59  85 118 150 183 227 276 326
#     4  11  26  44  56  70  94 124 163 216 280 342
#     4  10  19  32  52  74 107 142 177 222 273 321
#     4  10  21  36  54  81 108 137 172 220 275 332
#     4  12  22  39  62  78  97 128 170 222 278 346
#
# _framework density 18.342625999999999
#
# number of rings (size 3 to 8) (size 9 to 14) (size 15 to 20)
#    0.000    1.700    2.000    2.400    1.400    6.000 
#    0.000    2.000    0.000    0.000    0.000    0.000 
#    0.000    0.400    0.000    4.400    0.000    3.200 
#
# Total GULP energy -992041.442926 kJ/mol
# GULP energy per Si atom -12400.518037 kJ/mol
# Density = 1.830088 g / cm^3
# Si number density = 18.342626 Si / 1000 Ang^3
#
#
#
# Elastic Constant Matrix: (Units=GPa)
#
#
# Indices 1 2 3 4 5 6 
#
# 1 85.9040 31.3806 46.5221 0.0000 0.0000 0.0000
# 2 31.3806 85.9028 46.5220 0.0000 0.0000 0.0000
# 3 46.5221 46.5220 137.9988 0.0000 0.0000 0.0000
# 4 0.0000 0.0000 0.0000 31.2104 0.0000 0.0000
# 5 0.0000 0.0000 0.0000 0.0000 31.2105 0.0000
# 6 0.0000 0.0000 0.0000 0.0000 0.0000 8.8075
#
#
#
# Elastic Compliance Matrix: (Units=1/GPa)
#
#
# Indices 1 2 3 4 5 6 
#
# 1 0.014990 -0.003351 -0.003924 0.000000 0.000000 0.000000
# 2 -0.003351 0.014990 -0.003924 0.000000 0.000000 0.000000
# 3 -0.003924 -0.003924 0.009892 0.000000 0.000000 0.000000
# 4 0.000000 0.000000 0.000000 0.032041 0.000000 0.000000
# 5 0.000000 0.000000 0.000000 0.000000 0.032040 0.000000
# 6 0.000000 0.000000 0.000000 0.000000 0.000000 0.113540
#
#
# Mechanical properties :
#
#
# Convention : Reuss Voigt Hill
#
# Bulk Modulus (GPa) = 57.22408 62.07278 59.64843
# Shear Modulus (GPa) = 20.34878 26.60440 23.47659
#
# Velocity S-wave (km/s) = 3.33434 3.81256 3.58144
# Velocity P-wave (km/s) = 6.78887 7.30034 7.04925
#
# Compressibility (1/GPa) = 0.01747516
#
# Stress axis : x y z
#
# Youngs Moduli (GPa) = 66.71144 66.71042 101.09182
#
# Poissons Ratio (x) = 0.22354 0.39666
# Poissons Ratio (y) = 0.22354 0.39666
# Poissons Ratio (z) = 0.26176 0.26176
#
# Static dielectric constant tensor:
#      x y z
#    x 3.373230 0.000000 0.000000 
#    y 0.000000 3.373230 0.000000 
#    z 0.000000 0.000000 3.540830 
# 
# 
# High freq. dielectric constant tensor:
#      x y z
#    x 1.695190 0.000000 0.000000 
#    y 0.000000 1.695190 0.000000 
#    z 0.000000 0.000000 1.732410 
# 
# From -- ./inp_files/1262.got.cif
#   From: 2010.03.12/outbox.cif.g09.slc.cpg/sg124_1_cif.got.tgz:1262.got - 2010.04.06 16:38:57.
