data_PCOD8313207
_publ_section_title
;
Structure prediction by ZEFSAII (Michael W. Deem and Ramdas Pophale) SiO2 
 PCOD8313207
Probable space group: P 4/M C C
;
_chemical_formula_sum "Si O2"
_cell_formula_units_Z 80
_cell_length_a 12.025169
_cell_length_b 12.025169
_cell_length_c 30.171206
_cell_angle_alpha 90.000000
_cell_angle_beta 90.000000
_cell_angle_gamma 90.000000
_cell_volume 4362.897875
_symmetry_space_group_name_H-M "P 4/M C C"
_symmetry_group_IT_number 124
_symmetry_cell_setting 'tetragonal'
loop_
_space_group_symop_operation_xyz
x,y,z
-y,x,z
-x,-y,z
y,-x,z
x,-y,1/2-z
-x,y,1/2-z
y,x,1/2-z
-y,-x,1/2-z
-x,-y,-z
y,-x,-z
x,y,-z
-y,x,-z
-x,y,1/2+z
x,-y,1/2+z
-y,-x,1/2+z
y,x,1/2+z
loop_
_atom_site_type_symbol
_atom_site_label
_atom_site_fract_x
_atom_site_fract_y
_atom_site_fract_z
Si Si1 0.497611 0.872490 0.320599
Si Si2 0.781628 0.408973 0.091976
Si Si3 0.992809 0.368229 0.048494
Si Si4 0.763328 0.634086 0.050862
Si Si5 0.685856 0.872294 0.253463
O O1 0.472083 0.788910 0.360990
O O2 0.618341 0.847355 0.298984
O O3 0.399791 0.851265 0.285993
O O4 0.500000 0.000000 0.337586
O O5 0.894861 0.337974 0.082791
O O6 0.760091 0.500769 0.054231
O O7 0.682300 0.321210 0.087429
O O8 0.000000 0.500000 0.045638
O O9 0.112934 0.321769 0.063887
O O10 0.963584 0.319024 0.000000
O O11 0.734108 0.666681 0.000000
O O12 0.791607 0.791607 0.250000
O O13 0.727738 0.000000 0.250000
#
# Coordination Sequence:
#
# PCOD8313207 Si02
#       5
#    16  16  16  16  16
#     4   9  19  35  55  79 106 144 183 213 254 317
#     4  11  20  32  53  77 105 139 179 222 268 315
#     4   8  15  30  49  70  97 135 179 218 255 306
#     4  10  20  32  50  76 106 141 179 221 268 314
#     4   9  19  36  59  84 112 140 170 216 270 322
#
# _framework density 18.336438000000001
#
# number of rings (size 3 to 8) (size 9 to 14) (size 15 to 20)
#    0.000    2.600    0.000    6.000    2.800    0.600 
#    0.000    1.000    0.000    5.400    0.000    2.800 
#    0.000    0.000    0.000    0.000    0.000    0.000 
#
# Total GULP energy -991201.268279 kJ/mol
# GULP energy per Si atom -12390.015853 kJ/mol
# Density = 1.829470 g / cm^3
# Si number density = 18.336438 Si / 1000 Ang^3
#
#
#
# Elastic Constant Matrix: (Units=GPa)
#
#
# Indices 1 2 3 4 5 6 
#
# 1 89.4925 57.7555 38.1959 0.0000 0.0000 0.0000
# 2 57.7555 89.4925 38.1959 0.0000 0.0000 0.0000
# 3 38.1959 38.1959 81.4830 0.0000 0.0000 0.0000
# 4 0.0000 0.0000 0.0000 24.8481 0.0000 0.0000
# 5 0.0000 0.0000 0.0000 0.0000 24.8481 0.0000
# 6 0.0000 0.0000 0.0000 0.0000 0.0000 23.3645
#
#
#
# Elastic Compliance Matrix: (Units=1/GPa)
#
#
# Indices 1 2 3 4 5 6 
#
# 1 0.020241 -0.011268 -0.004206 0.000000 0.000000 0.000000
# 2 -0.011268 0.020241 -0.004206 0.000000 0.000000 0.000000
# 3 -0.004206 -0.004206 0.016216 0.000000 0.000000 0.000000
# 4 0.000000 0.000000 0.000000 0.040245 0.000000 0.000000
# 5 0.000000 0.000000 0.000000 0.000000 0.040245 0.000000
# 6 0.000000 0.000000 0.000000 0.000000 0.000000 0.042800
#
#
# Mechanical properties :
#
#
# Convention : Reuss Voigt Hill
#
# Bulk Modulus (GPa) = 57.67852 58.75138 58.21495
# Shear Modulus (GPa) = 22.20960 23.03352 22.62156
#
# Velocity S-wave (km/s) = 3.48404 3.54808 3.51621
# Velocity P-wave (km/s) = 6.90715 6.99253 6.94997
#
# Compressibility (1/GPa) = 0.01733748
#
# Stress axis : x y z
#
# Youngs Moduli (GPa) = 49.40410 49.40410 61.66712
#
# Poissons Ratio (x) = 0.55667 0.25940
# Poissons Ratio (y) = 0.55667 0.25940
# Poissons Ratio (z) = 0.20781 0.20781
#
# Static dielectric constant tensor:
#      x y z
#    x 3.298390 0.000000 0.000000 
#    y 0.000000 3.298390 0.000000 
#    z 0.000000 0.000000 3.320450 
# 
# 
# High freq. dielectric constant tensor:
#      x y z
#    x 1.688700 0.000000 0.000000 
#    y 0.000000 1.688700 0.000000 
#    z 0.000000 0.000000 1.710210 
# 
# From -- ./inp_files/6955.got.cif
#   From: 2010.03.12/outbox.cif.g09.slc.cpg/sg124_4_cif.got.tgz:6955.got - 2010.04.06 16:38:57.
