data_PCOD8313249
_publ_section_title
;
Structure prediction by ZEFSAII (Michael W. Deem and Ramdas Pophale) SiO2 
 PCOD8313249
Probable space group: P 4/M C C
;
_chemical_formula_sum "Si O2"
_cell_formula_units_Z 96
_cell_length_a 22.577448
_cell_length_b 22.577448
_cell_length_c 9.422229
_cell_angle_alpha 90.000000
_cell_angle_beta 90.000000
_cell_angle_gamma 90.000000
_cell_volume 4802.897923
_symmetry_space_group_name_H-M "P 4/M C C"
_symmetry_group_IT_number 124
_symmetry_cell_setting 'tetragonal'
loop_
_space_group_symop_operation_xyz
x,y,z
-y,x,z
-x,-y,z
y,-x,z
x,-y,1/2-z
-x,y,1/2-z
y,x,1/2-z
-y,-x,1/2-z
-x,-y,-z
y,-x,-z
x,y,-z
-y,x,-z
-x,y,1/2+z
x,-y,1/2+z
-y,-x,1/2+z
y,x,1/2+z
loop_
_atom_site_type_symbol
_atom_site_label
_atom_site_fract_x
_atom_site_fract_y
_atom_site_fract_z
Si Si1 0.746624 0.328475 0.657845
Si Si2 0.442417 0.176282 0.327951
Si Si3 0.429485 0.053415 0.159231
Si Si4 0.254825 0.857552 0.152867
Si Si5 0.125471 0.125471 0.250000
Si Si6 0.084897 0.949318 0.500000
Si Si7 0.294455 0.049054 0.151738
O O1 0.688430 0.311571 0.750000
O O2 0.723393 0.341481 0.500000
O O3 0.782502 0.386177 0.712767
O O4 0.788289 0.270009 0.659612
O O5 0.500000 0.205114 0.250000
O O6 0.449121 0.171171 0.500000
O O7 0.435282 0.111749 0.256404
O O8 0.362531 0.034272 0.131038
O O9 0.459371 0.000000 0.250000
O O10 0.458365 0.061921 0.000000
O O11 0.186252 0.874433 0.163112
O O12 0.290985 0.886698 0.279366
O O13 0.277150 0.882241 0.000000
O O14 0.071326 0.120709 0.360629
O O15 0.020004 0.919332 0.500000
O O16 0.262592 0.000000 0.250000
O O17 0.261520 0.049526 0.000000
#
# Coordination Sequence:
#
# PCOD8313249 Si02
#       7
#    16  16  16  16   8   8  16
#     4  10  22  39  63  88 122 163 198 243 302 358
#     4  11  23  40  61  88 121 163 213 260 302 358
#     4  10  20  35  55  82 115 160 208 255 306 361
#     4  11  22  38  57  85 118 146 183 234 292 363
#     4  12  24  41  64  88 108 138 182 240 301 372
#     4  11  26  48  66  80 106 144 190 244 312 386
#     4  10  21  34  53  78 111 149 187 233 291 350
#
# _framework density 19.987932000000001
#
# number of rings (size 3 to 8) (size 9 to 14) (size 15 to 20)
#    0.000    1.417    3.333    2.000    1.167    5.667 
#    0.000    1.667    0.000    0.000    0.000    0.000 
#    0.000    0.333    0.000    3.667    0.000    2.667 
#
# Total GULP energy -1189398.254040 kJ/mol
# GULP energy per Si atom -12389.565146 kJ/mol
# Density = 1.994244 g / cm^3
# Si number density = 19.987932 Si / 1000 Ang^3
#
#
#
# Elastic Constant Matrix: (Units=GPa)
#
#
# Indices 1 2 3 4 5 6 
#
# 1 78.2373 36.2023 42.2785 0.0000 0.0000 0.0000
# 2 36.2023 78.2362 42.2776 0.0000 0.0000 0.0000
# 3 42.2785 42.2776 169.4449 0.0000 0.0000 0.0000
# 4 0.0000 0.0000 0.0000 26.1690 0.0000 0.0000
# 5 0.0000 0.0000 0.0000 0.0000 26.1694 0.0000
# 6 0.0000 0.0000 0.0000 0.0000 0.0000 -37.6691
#
#
#
# Elastic Compliance Matrix: (Units=1/GPa)
#
#
# Indices 1 2 3 4 5 6 
#
# 1 0.017252 -0.006538 -0.002673 0.000000 0.000000 0.000000
# 2 -0.006538 0.017252 -0.002673 0.000000 0.000000 0.000000
# 3 -0.002673 -0.002673 0.007236 0.000000 0.000000 0.000000
# 4 0.000000 0.000000 0.000000 0.038213 0.000000 0.000000
# 5 0.000000 0.000000 0.000000 0.000000 0.038213 0.000000
# 6 0.000000 0.000000 0.000000 0.000000 0.000000 -0.026547
#
#
# Mechanical properties :
#
#
# Convention : Reuss Voigt Hill
#
# Bulk Modulus (GPa) = 55.64854 63.04834 59.34844
# Shear Modulus (GPa) = 41.19414 16.61120 28.90267
#
# Velocity S-wave (km/s) = 4.54469 2.88594 3.80676
# Velocity P-wave (km/s) = 7.44584 6.53579 7.00561
#
# Compressibility (1/GPa) = 0.01796992
#
# Stress axis : x y z
#
# Youngs Moduli (GPa) = 57.96573 57.96509 138.20668
#
# Poissons Ratio (x) = 0.37899 0.36944
# Poissons Ratio (y) = 0.37900 0.36943
# Poissons Ratio (z) = 0.15495 0.15494
#
# Static dielectric constant tensor:
#      x y z
#    x 3.541020 0.000000 0.000000 
#    y 0.000000 3.541020 0.000000 
#    z 0.000000 0.000000 4.120740 
# 
# 
# High freq. dielectric constant tensor:
#      x y z
#    x 1.754070 0.000000 0.000000 
#    y 0.000000 1.754070 0.000000 
#    z 0.000000 0.000000 1.805820 
# 
# From -- ./inp_files/1431.got.cif
#   From: 2010.03.12/outbox.cif.g09.slc.cpg/sg124_1_cif.got.tgz:1431.got - 2010.04.06 16:38:57.
