data_PCOD8313371
_publ_section_title
;
Structure prediction by ZEFSAII (Michael W. Deem and Ramdas Pophale) SiO2 
 PCOD8313371
Probable space group: P 4/M C C
;
_chemical_formula_sum "Si O2"
_cell_formula_units_Z 64
_cell_length_a 22.439080
_cell_length_b 22.439080
_cell_length_c 10.028050
_cell_angle_alpha 90.000000
_cell_angle_beta 90.000000
_cell_angle_gamma 90.000000
_cell_volume 5049.246633
_symmetry_space_group_name_H-M "P 4/M C C"
_symmetry_group_IT_number 124
_symmetry_cell_setting 'tetragonal'
loop_
_space_group_symop_operation_xyz
x,y,z
-y,x,z
-x,-y,z
y,-x,z
x,-y,1/2-z
-x,y,1/2-z
y,x,1/2-z
-y,-x,1/2-z
-x,-y,-z
y,-x,-z
x,y,-z
-y,x,-z
-x,y,1/2+z
x,-y,1/2+z
-y,-x,1/2+z
y,x,1/2+z
loop_
_atom_site_type_symbol
_atom_site_label
_atom_site_fract_x
_atom_site_fract_y
_atom_site_fract_z
Si Si1 0.766378 0.942023 0.658023
Si Si2 0.052794 0.917618 0.000000
Si Si3 0.070522 0.363049 0.761863
Si Si4 0.120511 0.120511 0.750000
Si Si5 0.558931 0.929166 0.500000
Si Si6 0.071202 0.575485 0.000000
O O1 0.766155 0.959842 0.500000
O O2 0.704127 0.911413 0.699915
O O3 0.814932 0.890224 0.684486
O O4 0.778659 0.000000 0.750000
O O5 0.071224 0.884746 0.134646
O O6 0.982133 0.917660 0.000000
O O7 0.096701 0.386085 0.622561
O O8 0.000000 0.366358 0.750000
O O9 0.096510 0.408324 0.870603
O O10 0.491818 0.904059 0.500000
O O11 0.566654 0.000308 0.500000
#
# Coordination Sequence:
#
# PCOD8313371 Si02
#       6
#    16   8  16   8   8   8
#     4  11  23  36  50  62  77  99 122 154 193 236
#     4  11  22  36  50  64  76  88 106 146 200 250
#     4   9  17  27  41  59  81 103 123 147 174 213
#     4  12  24  35  50  62  76  92 122 152 190 244
#     4   9  14  25  39  58  85 104 125 144 164 203
#     4   9  16  23  39  62  81 106 125 142 168 199
#
# _framework density 12.675158
#
# number of rings (size 3 to 8) (size 9 to 14) (size 15 to 20)
#    0.000    1.875    2.500    3.000    7.000    4.000 
#    0.000    0.000    0.000    0.000    0.000    0.000 
#    0.000    0.000    0.000    0.000    0.000    0.000 
#
# Total GULP energy -793202.875386 kJ/mol
# GULP energy per Si atom -12393.794928 kJ/mol
# Density = 1.264631 g / cm^3
# Si number density = 12.675158 Si / 1000 Ang^3
#
#
#
# Elastic Constant Matrix: (Units=GPa)
#
#
# Indices 1 2 3 4 5 6 
#
# 1 -51.5068 126.0540 30.3166 0.0000 0.0000 0.0000
# 2 126.0540 -51.5068 30.3166 0.0000 0.0000 0.0000
# 3 30.3166 30.3166 117.1489 0.0000 0.0000 0.0000
# 4 0.0000 0.0000 0.0000 18.9102 0.0000 0.0000
# 5 0.0000 0.0000 0.0000 0.0000 18.9102 0.0000
# 6 0.0000 0.0000 0.0000 0.0000 0.0000 2.1343
#
#
#
# Elastic Compliance Matrix: (Units=1/GPa)
#
#
# Indices 1 2 3 4 5 6 
#
# 1 0.005679 0.011311 -0.004397 0.000000 0.000000 0.000000
# 2 0.011311 0.005679 -0.004397 0.000000 0.000000 0.000000
# 3 -0.004397 -0.004397 0.010812 0.000000 0.000000 0.000000
# 4 0.000000 0.000000 0.000000 0.052882 0.000000 0.000000
# 5 0.000000 0.000000 0.000000 0.000000 0.052882 0.000000
# 6 0.000000 0.000000 0.000000 0.000000 0.000000 0.468536
#
#
# Mechanical properties :
#
#
# Convention : Reuss Voigt Hill
#
# Bulk Modulus (GPa) = 36.75755 43.05664 39.90710
# Shear Modulus (GPa) = 8.32635 -3.51252 2.40691
#
# Velocity S-wave (km/s) = 2.56579 -1.66649 1.37951
# Velocity P-wave (km/s) = 6.15145 5.50819 5.83868
#
# Compressibility (1/GPa) = 0.02720530
#
# Stress axis : x y z
#
# Youngs Moduli (GPa) = 176.07615 176.07615 92.49078
#
# Poissons Ratio (x) = -1.99164 0.40668
# Poissons Ratio (y) = -1.99164 0.40668
# Poissons Ratio (z) = 0.77420 0.77420
#
# Static dielectric constant tensor:
#      x y z
#    x 2.381780 0.000000 0.000000 
#    y 0.000000 2.381780 0.000000 
#    z 0.000000 0.000000 2.914400 
# 
# 
# High freq. dielectric constant tensor:
#      x y z
#    x 1.439420 0.000000 0.000000 
#    y 0.000000 1.439420 0.000000 
#    z 0.000000 0.000000 1.511770 
# 
# From -- ./inp_files/2393.got.cif
#   From: 2010.03.12/outbox.cif.g09.slc.cpg/sg124_2_cif.got.tgz:2393.got - 2010.04.06 16:38:57.
