data_PCOD8313444
_publ_section_title
;
Structure prediction by ZEFSAII (Michael W. Deem and Ramdas Pophale) SiO2 
 PCOD8313444
Probable space group: P 4/N B M
;
_chemical_formula_sum "Si O2"
_cell_formula_units_Z 128
_cell_length_a 23.340374
_cell_length_b 23.340374
_cell_length_c 12.553719
_cell_angle_alpha 90.000000
_cell_angle_beta 90.000000
_cell_angle_gamma 90.000000
_cell_volume 6838.927895
_symmetry_space_group_name_H-M "P 4/N B M"
_symmetry_group_IT_number 125
_space_group.IT_coordinate_system_code '2'
_symmetry_cell_setting 'tetragonal'
loop_
_space_group_symop_operation_xyz
x,y,z
1/2-y,x,z
1/2-x,1/2-y,z
y,1/2-x,z
x,1/2-y,-z
1/2-x,y,-z
y,x,-z
1/2-y,1/2-x,-z
-x,-y,-z
1/2+y,-x,-z
1/2+x,1/2+y,-z
-y,1/2+x,-z
-x,1/2+y,z
1/2+x,-y,z
-y,-x,z
1/2+y,1/2+x,z
loop_
_atom_site_type_symbol
_atom_site_label
_atom_site_fract_x
_atom_site_fract_y
_atom_site_fract_z
Si Si1 0.069202 0.023242 0.109481
Si Si2 0.560623 0.153049 0.030761
Si Si3 0.129607 0.962401 0.384754
Si Si4 0.113707 0.979571 0.620543
Si Si5 0.113015 0.703490 0.765835
Si Si6 0.100116 0.086297 0.310830
Si Si7 0.325433 0.579627 0.800500
Si Si8 0.814464 0.817441 0.624859
O O1 0.075275 0.075474 0.192326
O O2 0.132730 0.997747 0.088052
O O3 0.047193 0.047193 0.000000
O O4 0.024886 0.975115 0.154560
O O5 0.594917 0.094917 0.005541
O O6 0.594594 0.192498 0.112561
O O7 0.551259 0.185498 0.917460
O O8 0.069094 0.930907 0.358372
O O9 0.142666 0.958817 0.510496
O O10 0.179822 0.931679 0.320248
O O11 0.129201 0.028040 0.349912
O O12 0.054500 0.945501 0.640695
O O13 0.158565 0.969550 0.716147
O O14 0.101254 0.047082 0.612130
O O15 0.175440 0.675440 0.745343
O O16 0.114940 0.771472 0.755366
O O17 0.145729 0.138223 0.310327
O O18 0.376172 0.623829 0.808571
O O19 0.748180 0.829949 0.654719
O O20 0.825994 0.825994 0.500000
#
# Coordination Sequence:
#
# PCOD8313444 Si02
#       8
#    16  16  16  16  16  16  16  16
#     4  10  19  32  54  83 116 148 179 218 269 333
#     4   9  17  33  52  74 105 141 179 222 276 322
#     4  10  20  34  52  78 113 147 174 216 276 333
#     4  10  21  34  50  79 116 143 171 217 276 333
#     4  10  20  35  55  77 105 145 189 230 274 324
#     4  12  20  33  59  86 108 138 185 223 263 326
#     4  10  21  36  54  77 108 145 185 233 279 318
#     4   9  20  39  59  79 107 143 181 224 273 321
#
# _framework density 18.716384000000001
#
# number of rings (size 3 to 8) (size 9 to 14) (size 15 to 20)
#    0.000    2.000    1.250    3.750    0.000    4.750 
#    0.000    0.000    0.000    2.250    0.000    4.375 
#    0.000    0.000    0.000    0.000    0.000    0.000 
#
# Total GULP energy -1586804.346903 kJ/mol
# GULP energy per Si atom -12396.908960 kJ/mol
# Density = 1.867379 g / cm^3
# Si number density = 18.716384 Si / 1000 Ang^3
#
#
#
# Elastic Constant Matrix: (Units=GPa)
#
#
# Indices 1 2 3 4 5 6 
#
# 1 64.2991 25.0408 22.7875 0.0000 0.0000 0.0000
# 2 25.0408 64.2991 22.7875 0.0000 0.0000 0.0000
# 3 22.7875 22.7875 103.0447 0.0000 0.0000 0.0000
# 4 0.0000 0.0000 0.0000 22.0706 0.0000 0.0000
# 5 0.0000 0.0000 0.0000 0.0000 22.0706 0.0000
# 6 0.0000 0.0000 0.0000 0.0000 0.0000 19.6865
#
#
#
# Elastic Compliance Matrix: (Units=1/GPa)
#
#
# Indices 1 2 3 4 5 6 
#
# 1 0.019044 -0.006428 -0.002790 0.000000 0.000000 0.000000
# 2 -0.006428 0.019044 -0.002790 0.000000 0.000000 0.000000
# 3 -0.002790 -0.002790 0.010939 0.000000 0.000000 0.000000
# 4 0.000000 0.000000 0.000000 0.045309 0.000000 0.000000
# 5 0.000000 0.000000 0.000000 0.000000 0.045309 0.000000
# 6 0.000000 0.000000 0.000000 0.000000 0.000000 0.050796
#
#
# Mechanical properties :
#
#
# Convention : Reuss Voigt Hill
#
# Bulk Modulus (GPa) = 39.98187 41.43053 40.70620
# Shear Modulus (GPa) = 22.44218 23.50070 22.97144
#
# Velocity S-wave (km/s) = 3.46651 3.54732 3.50715
# Velocity P-wave (km/s) = 6.11805 6.24195 6.18031
#
# Compressibility (1/GPa) = 0.02501134
#
# Stress axis : x y z
#
# Youngs Moduli (GPa) = 52.50886 52.50886 91.42011
#
# Poissons Ratio (x) = 0.33752 0.25507
# Poissons Ratio (y) = 0.33752 0.25507
# Poissons Ratio (z) = 0.14650 0.14650
#
# Static dielectric constant tensor:
#      x y z
#    x 3.296640 0.000000 0.000000 
#    y 0.000000 3.296640 0.000000 
#    z 0.000000 0.000000 3.647510 
# 
# 
# High freq. dielectric constant tensor:
#      x y z
#    x 1.707410 0.000000 0.000000 
#    y 0.000000 1.707410 0.000000 
#    z 0.000000 0.000000 1.734130 
# 
# From -- ./inp_files/4372.got.cif
#   From: 2010.03.12/outbox.cif.g09.slc.cpg/sg125_3_cif.got.tgz:4372.got - 2010.04.06 16:47:52.
