data_PCOD8313755
_publ_section_title
;
Structure prediction by ZEFSAII (Michael W. Deem and Ramdas Pophale) SiO2 
 PCOD8313755
Probable space group: P 4/N N C
;
_chemical_formula_sum "Si O2"
_cell_formula_units_Z 96
_cell_length_a 15.301288
_cell_length_b 15.301288
_cell_length_c 18.585988
_cell_angle_alpha 90.000000
_cell_angle_beta 90.000000
_cell_angle_gamma 90.000000
_cell_volume 4351.526488
_symmetry_space_group_name_H-M "P 4/N N C"
_symmetry_group_IT_number 126
_space_group.IT_coordinate_system_code '2'
_symmetry_cell_setting 'tetragonal'
loop_
_space_group_symop_operation_xyz
x,y,z
1/2-y,x,z
1/2-x,1/2-y,z
y,1/2-x,z
x,1/2-y,1/2-z
1/2-x,y,1/2-z
y,x,1/2-z
1/2-y,1/2-x,1/2-z
-x,-y,-z
1/2+y,-x,-z
1/2+x,1/2+y,-z
-y,1/2+x,-z
-x,1/2+y,1/2+z
1/2+x,-y,1/2+z
-y,-x,1/2+z
1/2+y,1/2+x,1/2+z
loop_
_atom_site_type_symbol
_atom_site_label
_atom_site_fract_x
_atom_site_fract_y
_atom_site_fract_z
Si Si1 0.019057 0.580865 0.086956
Si Si2 0.656093 0.148080 0.513124
Si Si3 0.367729 0.320365 0.505926
Si Si4 0.992226 0.851149 0.260576
Si Si5 0.123027 0.192450 0.334914
Si Si6 0.046427 0.902179 0.645649
O O1 0.108759 0.584656 0.041937
O O2 0.030499 0.633278 0.160599
O O3 0.947371 0.626873 0.037623
O O4 0.997266 0.480319 0.100393
O O5 0.633942 0.249462 0.523379
O O6 0.657224 0.101093 0.590630
O O7 0.279741 0.368009 0.533585
O O8 0.373129 0.313965 0.420466
O O9 0.973808 0.750000 0.250000
O O10 0.063268 0.886649 0.204820
O O11 0.900469 0.900469 0.250000
O O12 0.206370 0.134157 0.306568
O O13 0.029327 0.152320 0.312475
#
# Coordination Sequence:
#
# PCOD8313755 Si02
#       6
#    16  16  16  16  16  16
#     4  11  23  37  64  86 122 164 212 251 316 379
#     4  11  25  40  61  93 124 161 213 265 311 377
#     4   9  19  32  55  97 133 161 199 256 324 384
#     4  10  24  43  61  91 128 168 211 261 315 389
#     4   9  19  36  63 102 135 157 199 264 331 389
#     4  11  23  39  65  91 125 172 209 261 323 372
#
# _framework density 22.061223999999999
#
# number of rings (size 3 to 8) (size 9 to 14) (size 15 to 20)
#    0.000    1.833    1.667    2.500    9.333    0.167 
#    0.000    0.833    3.667    3.000    0.000   10.500 
#    0.000    0.000    0.000    0.000    0.000    0.000 
#
# Total GULP energy -1190606.604428 kJ/mol
# GULP energy per Si atom -12402.152129 kJ/mol
# Density = 2.201101 g / cm^3
# Si number density = 22.061224 Si / 1000 Ang^3
#
#
#
# Elastic Constant Matrix: (Units=GPa)
#
#
# Indices 1 2 3 4 5 6 
#
# 1 100.6858 40.7185 17.7612 0.0000 0.0000 0.0000
# 2 40.7185 100.6858 17.7612 0.0000 0.0000 0.0000
# 3 17.7612 17.7612 29.5049 0.0000 0.0000 0.0000
# 4 0.0000 0.0000 0.0000 24.2976 0.0000 0.0000
# 5 0.0000 0.0000 0.0000 0.0000 24.2976 0.0000
# 6 0.0000 0.0000 0.0000 0.0000 0.0000 13.9964
#
#
#
# Elastic Compliance Matrix: (Units=1/GPa)
#
#
# Indices 1 2 3 4 5 6 
#
# 1 0.012504 -0.004172 -0.005016 0.000000 0.000000 0.000000
# 2 -0.004172 0.012504 -0.005016 0.000000 0.000000 0.000000
# 3 -0.005016 -0.005016 0.039931 0.000000 0.000000 0.000000
# 4 0.000000 0.000000 0.000000 0.041156 0.000000 0.000000
# 5 0.000000 0.000000 0.000000 0.000000 0.041156 0.000000
# 6 0.000000 0.000000 0.000000 0.000000 0.000000 0.071447
#
#
# Mechanical properties :
#
#
# Convention : Reuss Voigt Hill
#
# Bulk Modulus (GPa) = 27.37279 42.59539 34.98409
# Shear Modulus (GPa) = 19.28401 22.82735 21.05568
#
# Velocity S-wave (km/s) = 2.95975 3.22021 3.09272
# Velocity P-wave (km/s) = 4.91067 5.75986 5.35214
#
# Compressibility (1/GPa) = 0.03653263
#
# Stress axis : x y z
#
# Youngs Moduli (GPa) = 79.97549 79.97549 25.04304
#
# Poissons Ratio (x) = 0.33365 0.12561
# Poissons Ratio (y) = 0.33365 0.12561
# Poissons Ratio (z) = 0.40113 0.40113
#
# Static dielectric constant tensor:
#      x y z
#    x 4.173260 0.000000 0.000000 
#    y 0.000000 4.173260 0.000000 
#    z 0.000000 0.000000 4.184190 
# 
# 
# High freq. dielectric constant tensor:
#      x y z
#    x 1.867780 0.000000 0.000000 
#    y 0.000000 1.867780 0.000000 
#    z 0.000000 0.000000 1.879020 
# 
# From -- ./inp_files/5229.got.cif
#   From: 2010.03.12/outbox.cif.g09.slc.cpg/sg126_3_cif.got.tgz:5229.got - 2010.04.06 16:55:23.
