data_PCOD8313209
_publ_section_title
;
Structure prediction by ZEFSAII (Michael W. Deem and Ramdas Pophale) SiO2 
 PCOD8313209
Probable space group: P 4/M C C
;
_chemical_formula_sum "Si O2"
_cell_formula_units_Z 128
_cell_length_a 19.471177
_cell_length_b 19.471177
_cell_length_c 18.121523
_cell_angle_alpha 90.000000
_cell_angle_beta 90.000000
_cell_angle_gamma 90.000000
_cell_volume 6870.353826
_symmetry_space_group_name_H-M "P 4/M C C"
_symmetry_group_IT_number 124
_symmetry_cell_setting 'tetragonal'
loop_
_space_group_symop_operation_xyz
x,y,z
-y,x,z
-x,-y,z
y,-x,z
x,-y,1/2-z
-x,y,1/2-z
y,x,1/2-z
-y,-x,1/2-z
-x,-y,-z
y,-x,-z
x,y,-z
-y,x,-z
-x,y,1/2+z
x,-y,1/2+z
-y,-x,1/2+z
y,x,1/2+z
loop_
_atom_site_type_symbol
_atom_site_label
_atom_site_fract_x
_atom_site_fract_y
_atom_site_fract_z
Si Si1 0.230697 0.202547 0.913272
Si Si2 0.260417 0.093634 0.583169
Si Si3 0.034504 0.596192 0.174697
Si Si4 0.173391 0.479295 0.327778
Si Si5 0.268429 0.372815 0.411913
Si Si6 0.577509 0.908476 0.416338
Si Si7 0.411502 0.436395 0.587395
Si Si8 0.728020 0.053848 0.413318
O O1 0.160215 0.229622 0.874780
O O2 0.297397 0.244035 0.883307
O O3 0.227848 0.121208 0.895968
O O4 0.230250 0.216671 0.000000
O O5 0.233159 0.097700 0.500000
O O6 0.341467 0.099642 0.588216
O O7 0.237369 0.018320 0.614761
O O8 0.098712 0.549299 0.194042
O O9 0.066308 0.657467 0.127882
O O10 0.000000 0.623152 0.250000
O O11 0.977578 0.555659 0.126732
O O12 0.209258 0.500000 0.250000
O O13 0.220305 0.427441 0.372425
O O14 0.159818 0.544957 0.380098
O O15 0.259263 0.379795 0.500000
O O16 0.347111 0.389181 0.386907
O O17 0.551129 0.914297 0.500000
O O18 0.484158 0.404539 0.616035
O O19 0.412410 0.438213 0.500000
O O20 0.711278 0.046564 0.500000
#
# Coordination Sequence:
#
# PCOD8313209 Si02
#       8
#    16  16  16  16  16  16  16  16
#     4   9  16  29  50  75 105 133 164 213 258 299
#     4   8  16  30  48  74 101 129 168 209 255 298
#     4  11  20  33  50  69 100 137 175 207 254 308
#     4  12  23  34  47  69 106 141 172 208 262 310
#     4  10  20  32  52  79 103 134 175 217 264 313
#     4  10  21  33  50  72  96 131 175 219 250 297
#     4   8  15  30  53  81 108 133 172 227 278 320
#     4   9  17  31  53  77 100 134 176 213 251 305
#
# _framework density 18.630773999999999
#
# number of rings (size 3 to 8) (size 9 to 14) (size 15 to 20)
#    0.000    2.375    2.500    2.250    0.000    3.000 
#    0.000    3.750    0.000    9.375    0.000    3.500 
#    0.000    0.000    0.000    4.500    0.000    5.000 
#
# Total GULP energy -1585697.239362 kJ/mol
# GULP energy per Si atom -12388.259683 kJ/mol
# Density = 1.858837 g / cm^3
# Si number density = 18.630774 Si / 1000 Ang^3
#
#
#
# Elastic Constant Matrix: (Units=GPa)
#
#
# Indices 1 2 3 4 5 6 
#
# 1 105.5611 66.5427 15.9459 0.0000 0.0000 0.0000
# 2 66.5427 105.5611 15.9459 0.0000 0.0000 0.0000
# 3 15.9459 15.9459 51.4276 0.0000 0.0000 0.0000
# 4 0.0000 0.0000 0.0000 7.9340 0.0000 0.0000
# 5 0.0000 0.0000 0.0000 0.0000 7.9340 0.0000
# 6 0.0000 0.0000 0.0000 0.0000 0.0000 31.4102
#
#
#
# Elastic Compliance Matrix: (Units=1/GPa)
#
#
# Indices 1 2 3 4 5 6 
#
# 1 0.015897 -0.009732 -0.001911 0.000000 0.000000 0.000000
# 2 -0.009732 0.015897 -0.001911 0.000000 0.000000 0.000000
# 3 -0.001911 -0.001911 0.020630 0.000000 0.000000 0.000000
# 4 0.000000 0.000000 0.000000 0.126040 0.000000 0.000000
# 5 0.000000 0.000000 0.000000 0.000000 0.126040 0.000000
# 6 0.000000 0.000000 0.000000 0.000000 0.000000 0.031837
#
#
# Mechanical properties :
#
#
# Convention : Reuss Voigt Hill
#
# Bulk Modulus (GPa) = 39.50432 51.04654 45.27543
# Shear Modulus (GPa) = 13.44491 20.39667 16.92079
#
# Velocity S-wave (km/s) = 2.68927 3.31234 3.01693
# Velocity P-wave (km/s) = 5.55812 6.48747 6.04070
#
# Compressibility (1/GPa) = 0.02531369
#
# Stress axis : x y z
#
# Youngs Moduli (GPa) = 62.90583 62.90583 48.47269
#
# Poissons Ratio (x) = 0.61221 0.09265
# Poissons Ratio (y) = 0.61221 0.09265
# Poissons Ratio (z) = 0.12024 0.12024
#
# Static dielectric constant tensor:
#      x y z
#    x 3.610540 0.000000 0.000000 
#    y 0.000000 3.610540 0.000000 
#    z 0.000000 0.000000 3.148030 
# 
# 
# High freq. dielectric constant tensor:
#      x y z
#    x 1.716720 0.000000 0.000000 
#    y 0.000000 1.716720 0.000000 
#    z 0.000000 0.000000 1.686760 
# 
# From -- ./inp_files/4590.got.cif
#   From: 2010.03.12/outbox.cif.g09.slc.cpg/sg124_3_cif.got.tgz:4590.got - 2010.04.06 16:38:57.
