data_PCOD8313163
_publ_section_title
;
Structure prediction by ZEFSAII (Michael W. Deem and Ramdas Pophale) SiO2 
 PCOD8313163
Probable space group: P 4/M C C
;
_chemical_formula_sum "Si O2"
_cell_formula_units_Z 96
_cell_length_a 23.081649
_cell_length_b 23.081649
_cell_length_c 9.975386
_cell_angle_alpha 90.000000
_cell_angle_beta 90.000000
_cell_angle_gamma 90.000000
_cell_volume 5314.511789
_symmetry_space_group_name_H-M "P 4/M C C"
_symmetry_group_IT_number 124
_symmetry_cell_setting 'tetragonal'
loop_
_space_group_symop_operation_xyz
x,y,z
-y,x,z
-x,-y,z
y,-x,z
x,-y,1/2-z
-x,y,1/2-z
y,x,1/2-z
-y,-x,1/2-z
-x,-y,-z
y,-x,-z
x,y,-z
-y,x,-z
-x,y,1/2+z
x,-y,1/2+z
-y,-x,1/2+z
y,x,1/2+z
loop_
_atom_site_type_symbol
_atom_site_label
_atom_site_fract_x
_atom_site_fract_y
_atom_site_fract_z
Si Si1 0.163033 0.931376 0.251403
Si Si2 0.365829 0.081584 0.500000
Si Si3 0.629382 0.944978 0.000000
Si Si4 0.430493 0.116586 0.236375
Si Si5 0.063936 0.759936 0.000000
Si Si6 0.551681 0.763957 0.148851
Si Si7 0.072774 0.763585 0.500000
Si Si8 0.362904 0.557716 0.840378
O O1 0.101516 0.898485 0.250000
O O2 0.203949 0.913468 0.374010
O O3 0.149290 0.000000 0.250000
O O4 0.199514 0.908275 0.127006
O O5 0.399872 0.106170 0.375182
O O6 0.299231 0.103713 0.500000
O O7 0.364491 0.013104 0.500000
O O8 0.592580 0.929699 0.130775
O O9 0.693000 0.914014 0.000000
O O10 0.500000 0.111618 0.250000
O O11 0.409640 0.180433 0.186780
O O12 0.995462 0.755405 0.000000
O O13 0.500000 0.761387 0.250000
O O14 0.584185 0.702226 0.156567
O O15 0.526210 0.773196 0.000000
O O16 0.366352 0.500000 0.750000
O O17 0.398745 0.601256 0.750000
O O18 0.383210 0.549768 0.000000
#
# Coordination Sequence:
#
# PCOD8313163 Si02
#       8
#    16   8   8  16   8  16   8  16
#     4  10  19  33  55  81 109 138 174 220 269 319
#     4  11  23  35  54  80 106 143 179 226 269 328
#     4  11  21  37  56  76 108 143 181 218 275 328
#     4  11  22  35  53  81 110 139 177 223 280 329
#     4   9  19  34  54  76 100 148 181 217 253 319
#     4   9  19  35  56  79 108 147 189 221 262 328
#     4   9  19  36  52  74 106 138 191 213 253 321
#     4  10  20  36  58  87 116 148 186 228 276 327
#
# _framework density 18.063748
#
# number of rings (size 3 to 8) (size 9 to 14) (size 15 to 20)
#    0.000    2.000    0.833    3.000    3.500    5.667 
#    0.000    0.833    0.000    9.000    0.000    0.000 
#    0.000    0.000    0.000    0.000    0.000    0.000 
#
# Total GULP energy -1189270.405817 kJ/mol
# GULP energy per Si atom -12388.233394 kJ/mol
# Density = 1.802263 g / cm^3
# Si number density = 18.063748 Si / 1000 Ang^3
#
#
#
# Elastic Constant Matrix: (Units=GPa)
#
#
# Indices 1 2 3 4 5 6 
#
# 1 99.1264 49.6208 55.9161 0.0000 0.0000 0.0000
# 2 49.6208 99.1211 55.9165 0.0000 0.0000 0.0000
# 3 55.9161 55.9165 180.2268 0.0000 0.0000 0.0000
# 4 0.0000 0.0000 0.0000 24.6592 0.0000 0.0000
# 5 0.0000 0.0000 0.0000 0.0000 24.6587 0.0000
# 6 0.0000 0.0000 0.0000 0.0000 0.0000 -0.5338
#
#
#
# Elastic Compliance Matrix: (Units=1/GPa)
#
#
# Indices 1 2 3 4 5 6 
#
# 1 0.014484 -0.005716 -0.002720 0.000000 0.000000 0.000000
# 2 -0.005716 0.014485 -0.002721 0.000000 0.000000 0.000000
# 3 -0.002720 -0.002721 0.007237 0.000000 0.000000 0.000000
# 4 0.000000 0.000000 0.000000 0.040553 0.000000 0.000000
# 5 0.000000 0.000000 0.000000 0.000000 0.040554 0.000000
# 6 0.000000 0.000000 0.000000 0.000000 0.000000 -1.873262
#
#
# Mechanical properties :
#
#
# Convention : Reuss Voigt Hill
#
# Bulk Modulus (GPa) = 71.98641 77.93124 74.95883
# Shear Modulus (GPa) = -2.89184 24.22487 10.66651
#
# Velocity S-wave (km/s) = -1.26664 3.66604 2.43264
# Velocity P-wave (km/s) = 6.14806 7.82022 7.03401
#
# Compressibility (1/GPa) = 0.01389151
#
# Stress axis : x y z
#
# Youngs Moduli (GPa) = 69.04146 69.03677 138.18645
#
# Poissons Ratio (x) = 0.39463 0.37590
# Poissons Ratio (y) = 0.39466 0.37595
# Poissons Ratio (z) = 0.18781 0.18782
#
# Static dielectric constant tensor:
#      x y z
#    x 3.513340 0.000000 0.000000 
#    y 0.000000 3.513350 0.000000 
#    z 0.000000 0.000000 3.702980 
# 
# 
# High freq. dielectric constant tensor:
#      x y z
#    x 1.684930 0.000000 0.000000 
#    y 0.000000 1.684930 0.000000 
#    z 0.000000 0.000000 1.728610 
# 
# From -- ./inp_files/1482.got.cif
#   From: 2010.03.12/outbox.cif.g09.slc.cpg/sg124_1_cif.got.tgz:1482.got - 2010.04.06 16:38:57.
