data_PCOD8313705
_publ_section_title
;
Structure prediction by ZEFSAII (Michael W. Deem and Ramdas Pophale) SiO2 
 PCOD8313705
Probable space group: P 4/N N C
;
_chemical_formula_sum "Si O2"
_cell_formula_units_Z 80
_cell_length_a 14.074711
_cell_length_b 14.074711
_cell_length_c 21.055672
_cell_angle_alpha 90.000000
_cell_angle_beta 90.000000
_cell_angle_gamma 90.000000
_cell_volume 4171.075768
_symmetry_space_group_name_H-M "P 4/N N C"
_symmetry_group_IT_number 126
_space_group.IT_coordinate_system_code '2'
_symmetry_cell_setting 'tetragonal'
loop_
_space_group_symop_operation_xyz
x,y,z
1/2-y,x,z
1/2-x,1/2-y,z
y,1/2-x,z
x,1/2-y,1/2-z
1/2-x,y,1/2-z
y,x,1/2-z
1/2-y,1/2-x,1/2-z
-x,-y,-z
1/2+y,-x,-z
1/2+x,1/2+y,-z
-y,1/2+x,-z
-x,1/2+y,1/2+z
1/2+x,-y,1/2+z
-y,-x,1/2+z
1/2+y,1/2+x,1/2+z
loop_
_atom_site_type_symbol
_atom_site_label
_atom_site_fract_x
_atom_site_fract_y
_atom_site_fract_z
Si Si1 0.056130 0.046875 0.558939
Si Si2 0.706021 0.346517 0.573018
Si Si3 0.970556 0.251767 0.178348
Si Si4 0.455537 0.452120 0.175956
Si Si5 0.236797 0.981499 0.962852
O O1 0.066796 0.159535 0.540296
O O2 0.163363 0.008549 0.568222
O O3 0.000000 0.000000 0.500000
O O4 0.007731 0.023905 0.626997
O O5 0.750000 0.250000 0.545945
O O6 0.746343 0.370383 0.641973
O O7 0.594034 0.327959 0.576444
O O8 0.739652 0.437002 0.531362
O O9 0.937912 0.250000 0.250000
O O10 0.027202 0.346159 0.159734
O O11 0.034803 0.160091 0.162802
O O12 0.478959 0.478959 0.250000
#
# Coordination Sequence:
#
# PCOD8313705 Si02
#       5
#    16  16  16  16  16
#     4  12  23  40  62  89 121 158 202 250 302 360
#     4  12  20  36  59  89 115 154 205 245 301 355
#     4  10  21  36  57  84 121 158 198 245 297 358
#     4  10  21  38  58  87 123 159 198 246 300 354
#     4  12  22  37  63  87 118 158 196 249 303 354
#
# _framework density 19.179704999999998
#
# number of rings (size 3 to 8) (size 9 to 14) (size 15 to 20)
#    0.000    0.800    6.000    2.400    0.000    1.200 
#    0.000    3.000    0.000    4.800    0.000    1.400 
#    0.000    0.000    0.000    0.000    0.000    0.000 
#
# Total GULP energy -991100.728654 kJ/mol
# GULP energy per Si atom -12388.759108 kJ/mol
# Density = 1.913605 g / cm^3
# Si number density = 19.179705 Si / 1000 Ang^3
#
#
#
# Elastic Constant Matrix: (Units=GPa)
#
#
# Indices 1 2 3 4 5 6 
#
# 1 118.1901 38.8156 56.3337 0.0000 0.0000 0.0000
# 2 38.8156 118.1901 56.3337 0.0000 0.0000 0.0000
# 3 56.3337 56.3337 93.5396 0.0000 0.0000 0.0000
# 4 0.0000 0.0000 0.0000 20.2849 0.0000 0.0000
# 5 0.0000 0.0000 0.0000 0.0000 20.2849 0.0000
# 6 0.0000 0.0000 0.0000 0.0000 0.0000 28.9633
#
#
#
# Elastic Compliance Matrix: (Units=1/GPa)
#
#
# Indices 1 2 3 4 5 6 
#
# 1 0.011908 -0.000691 -0.006755 0.000000 0.000000 0.000000
# 2 -0.000691 0.011908 -0.006755 0.000000 0.000000 0.000000
# 3 -0.006755 -0.006755 0.018827 0.000000 0.000000 0.000000
# 4 0.000000 0.000000 0.000000 0.049298 0.000000 0.000000
# 5 0.000000 0.000000 0.000000 0.000000 0.049298 0.000000
# 6 0.000000 0.000000 0.000000 0.000000 0.000000 0.034526
#
#
# Mechanical properties :
#
#
# Convention : Reuss Voigt Hill
#
# Bulk Modulus (GPa) = 70.22544 70.32064 70.27304
# Shear Modulus (GPa) = 23.93334 25.80241 24.86788
#
# Velocity S-wave (km/s) = 3.53632 3.67181 3.60470
# Velocity P-wave (km/s) = 7.30534 7.39729 7.35146
#
# Compressibility (1/GPa) = 0.01423985
#
# Stress axis : x y z
#
# Youngs Moduli (GPa) = 83.97978 83.97978 53.11451
#
# Poissons Ratio (x) = 0.05802 0.35880
# Poissons Ratio (y) = 0.05802 0.35880
# Poissons Ratio (z) = 0.56730 0.56730
#
# Static dielectric constant tensor:
#      x y z
#    x 4.225200 0.000000 0.000000 
#    y 0.000000 4.225200 0.000000 
#    z 0.000000 0.000000 3.555750 
# 
# 
# High freq. dielectric constant tensor:
#      x y z
#    x 1.743470 0.000000 0.000000 
#    y 0.000000 1.743470 0.000000 
#    z 0.000000 0.000000 1.746660 
# 
# From -- ./inp_files/5081.got.cif
#   From: 2010.03.12/outbox.cif.g09.slc.cpg/sg126_3_cif.got.tgz:5081.got - 2010.04.06 16:55:23.
