data_PCOD8313312
_publ_section_title
;
Structure prediction by ZEFSAII (Michael W. Deem and Ramdas Pophale) SiO2 
 PCOD8313312
Probable space group: P 4/M C C
;
_chemical_formula_sum "Si O2"
_cell_formula_units_Z 112
_cell_length_a 14.514909
_cell_length_b 14.514909
_cell_length_c 25.019367
_cell_angle_alpha 90.000000
_cell_angle_beta 90.000000
_cell_angle_gamma 90.000000
_cell_volume 5271.144872
_symmetry_space_group_name_H-M "P 4/M C C"
_symmetry_group_IT_number 124
_symmetry_cell_setting 'tetragonal'
loop_
_space_group_symop_operation_xyz
x,y,z
-y,x,z
-x,-y,z
y,-x,z
x,-y,1/2-z
-x,y,1/2-z
y,x,1/2-z
-y,-x,1/2-z
-x,-y,-z
y,-x,-z
x,y,-z
-y,x,-z
-x,y,1/2+z
x,-y,1/2+z
-y,-x,1/2+z
y,x,1/2+z
loop_
_atom_site_type_symbol
_atom_site_label
_atom_site_fract_x
_atom_site_fract_y
_atom_site_fract_z
Si Si1 0.151341 0.194335 0.059845
Si Si2 0.435398 0.637917 0.156382
Si Si3 0.765490 0.901745 0.775164
Si Si4 0.187090 0.598035 0.724195
Si Si5 0.969714 0.237199 0.107664
Si Si6 0.235093 0.388598 0.062105
Si Si7 0.418712 0.933898 0.123692
O O1 0.213759 0.103620 0.061827
O O2 0.213333 0.282170 0.075927
O O3 0.064049 0.179550 0.099367
O O4 0.113907 0.209128 0.000000
O O5 0.378613 0.544243 0.164238
O O6 0.400311 0.708716 0.201599
O O7 0.419295 0.676760 0.096645
O O8 0.857225 0.857225 0.750000
O O9 0.679229 0.831496 0.766997
O O10 0.784128 0.917600 0.837301
O O11 0.742397 0.000000 0.750000
O O12 0.164303 0.500000 0.750000
O O13 0.116813 0.618737 0.676199
O O14 0.997849 0.342694 0.099997
O O15 0.143964 0.446618 0.079891
O O16 0.257456 0.406472 0.000000
O O17 0.500000 0.000000 0.140461
#
# Coordination Sequence:
#
# PCOD8313312 Si02
#       7
#    16  16  16  16  16  16  16
#     4  10  22  41  65  94 125 164 216 272 331 388
#     4  10  24  44  65  94 130 172 223 274 327 397
#     4  12  26  42  65  98 136 181 224 267 329 398
#     4  11  25  41  68  94 132 171 223 271 332 395
#     4  11  22  39  64  88 129 168 215 267 320 389
#     4   9  21  40  63  92 128 165 211 271 335 400
#     4  10  21  39  61  93 127 165 211 268 328 391
#
# _framework density 21.247755000000002
#
# number of rings (size 3 to 8) (size 9 to 14) (size 15 to 20)
#    0.000    1.571    1.429    2.143    6.000    4.143 
#    0.000    5.000    0.000    0.000    0.000    0.000 
#    0.000    0.000    0.000    0.000    0.000    0.000 
#
# Total GULP energy -1388818.588774 kJ/mol
# GULP energy per Si atom -12400.165971 kJ/mol
# Density = 2.119939 g / cm^3
# Si number density = 21.247755 Si / 1000 Ang^3
#
#
#
# Elastic Constant Matrix: (Units=GPa)
#
#
# Indices 1 2 3 4 5 6 
#
# 1 105.9527 57.6652 37.4965 0.0000 0.0000 0.0000
# 2 57.6652 105.9527 37.4965 0.0000 0.0000 0.0000
# 3 37.4965 37.4965 86.8375 0.0000 0.0000 0.0000
# 4 0.0000 0.0000 0.0000 27.8727 0.0000 0.0000
# 5 0.0000 0.0000 0.0000 0.0000 27.8727 0.0000
# 6 0.0000 0.0000 0.0000 0.0000 0.0000 36.4526
#
#
#
# Elastic Compliance Matrix: (Units=1/GPa)
#
#
# Indices 1 2 3 4 5 6 
#
# 1 0.014165 -0.006545 -0.003290 0.000000 0.000000 0.000000
# 2 -0.006545 0.014165 -0.003290 0.000000 0.000000 0.000000
# 3 -0.003290 -0.003290 0.014357 0.000000 0.000000 0.000000
# 4 0.000000 0.000000 0.000000 0.035877 0.000000 0.000000
# 5 0.000000 0.000000 0.000000 0.000000 0.035877 0.000000
# 6 0.000000 0.000000 0.000000 0.000000 0.000000 0.027433
#
#
# Mechanical properties :
#
#
# Convention : Reuss Voigt Hill
#
# Bulk Modulus (GPa) = 60.84233 62.67322 61.75778
# Shear Modulus (GPa) = 28.80133 29.51193 29.15663
#
# Velocity S-wave (km/s) = 3.68571 3.73090 3.70837
# Velocity P-wave (km/s) = 6.84174 6.93685 6.88946
#
# Compressibility (1/GPa) = 0.01643593
#
# Stress axis : x y z
#
# Youngs Moduli (GPa) = 70.59868 70.59868 69.65131
#
# Poissons Ratio (x) = 0.46205 0.22917
# Poissons Ratio (y) = 0.46205 0.22917
# Poissons Ratio (z) = 0.23229 0.23229
#
# Static dielectric constant tensor:
#      x y z
#    x 3.801370 0.000000 0.000000 
#    y 0.000000 3.801370 0.000000 
#    z 0.000000 0.000000 3.888420 
# 
# 
# High freq. dielectric constant tensor:
#      x y z
#    x 1.832900 0.000000 0.000000 
#    y 0.000000 1.832900 0.000000 
#    z 0.000000 0.000000 1.835140 
# 
# From -- ./inp_files/6098.got.cif
#   From: 2010.03.12/outbox.cif.g09.slc.cpg/sg124_4_cif.got.tgz:6098.got - 2010.04.06 16:38:57.
