data_PCOD8313607
_publ_section_title
;
Structure prediction by ZEFSAII (Michael W. Deem and Ramdas Pophale) SiO2 
 PCOD8313607
Probable space group: P 4/N B M
;
_chemical_formula_sum "Si O2"
_cell_formula_units_Z 64
_cell_length_a 11.882256
_cell_length_b 11.882256
_cell_length_c 22.576128
_cell_angle_alpha 90.000000
_cell_angle_beta 90.000000
_cell_angle_gamma 90.000000
_cell_volume 3187.478533
_symmetry_space_group_name_H-M "P 4/N B M"
_symmetry_group_IT_number 125
_space_group.IT_coordinate_system_code '2'
_symmetry_cell_setting 'tetragonal'
loop_
_space_group_symop_operation_xyz
x,y,z
1/2-y,x,z
1/2-x,1/2-y,z
y,1/2-x,z
x,1/2-y,-z
1/2-x,y,-z
y,x,-z
1/2-y,1/2-x,-z
-x,-y,-z
1/2+y,-x,-z
1/2+x,1/2+y,-z
-y,1/2+x,-z
-x,1/2+y,z
1/2+x,-y,z
-y,-x,z
1/2+y,1/2+x,z
loop_
_atom_site_type_symbol
_atom_site_label
_atom_site_fract_x
_atom_site_fract_y
_atom_site_fract_z
Si Si1 0.844420 0.155581 0.265541
Si Si2 0.161702 0.480541 0.458075
Si Si3 0.656486 0.343514 0.130655
Si Si4 0.070521 0.267276 0.930462
Si Si5 0.073098 0.219027 0.328213
O O1 0.750000 0.250000 0.271311
O O2 0.873938 0.126063 0.197953
O O3 0.955342 0.201138 0.296749
O O4 0.250000 0.548003 0.500000
O O5 0.058696 0.558696 0.438581
O O6 0.222362 0.438508 0.398999
O O7 0.122035 0.377966 0.500000
O O8 0.750000 0.250000 0.128146
O O9 0.548296 0.290856 0.099120
O O10 0.128935 0.150464 0.910738
O O11 0.052822 0.250000 0.000000
O O12 0.159445 0.120967 0.308785
#
# Coordination Sequence:
#
# PCOD8313607 Si02
#       5
#     8  16   8  16  16
#     4  11  28  48  64  91 135 177 221 278 321 380
#     4  11  22  36  60  92 125 156 200 262 334 401
#     4  11  26  41  65  99 133 178 224 267 324 386
#     4   9  21  41  67 101 138 173 213 267 326 384
#     4  11  24  43  70  95 123 171 222 275 334 397
#
# _framework density 20.078565999999999
#
# number of rings (size 3 to 8) (size 9 to 14) (size 15 to 20)
#    0.000    1.500    3.750    0.750    5.250    4.500 
#    0.000    2.500    0.000    0.000    0.000    0.000 
#    0.000    0.000    0.000    0.000    0.000    0.000 
#
# Total GULP energy -793402.199461 kJ/mol
# GULP energy per Si atom -12396.909367 kJ/mol
# Density = 2.003287 g / cm^3
# Si number density = 20.078566 Si / 1000 Ang^3
#
#
#
# Elastic Constant Matrix: (Units=GPa)
#
#
# Indices 1 2 3 4 5 6 
#
# 1 100.5216 30.8939 46.0874 0.0000 0.0000 0.0000
# 2 30.8939 100.5221 46.0872 0.0000 0.0000 0.0000
# 3 46.0874 46.0872 89.5894 0.0000 0.0000 0.0000
# 4 0.0000 0.0000 0.0000 13.7911 0.0000 0.0000
# 5 0.0000 0.0000 0.0000 0.0000 13.7913 0.0000
# 6 0.0000 0.0000 0.0000 0.0000 0.0000 24.1356
#
#
#
# Elastic Compliance Matrix: (Units=1/GPa)
#
#
# Indices 1 2 3 4 5 6 
#
# 1 0.013134 -0.001229 -0.006124 0.000000 0.000000 0.000000
# 2 -0.001229 0.013133 -0.006124 0.000000 0.000000 0.000000
# 3 -0.006124 -0.006124 0.017463 0.000000 0.000000 0.000000
# 4 0.000000 0.000000 0.000000 0.072511 0.000000 0.000000
# 5 0.000000 0.000000 0.000000 0.000000 0.072510 0.000000
# 6 0.000000 0.000000 0.000000 0.000000 0.000000 0.041432
#
#
# Mechanical properties :
#
#
# Convention : Reuss Voigt Hill
#
# Bulk Modulus (GPa) = 59.60916 59.64112 59.62514
# Shear Modulus (GPa) = 19.03103 21.51458 20.27280
#
# Velocity S-wave (km/s) = 3.08202 3.27696 3.18098
# Velocity P-wave (km/s) = 6.51288 6.63975 6.57662
#
# Compressibility (1/GPa) = 0.01677594
#
# Stress axis : x y z
#
# Youngs Moduli (GPa) = 76.14075 76.14151 57.26386
#
# Poissons Ratio (x) = 0.09354 0.35070
# Poissons Ratio (y) = 0.09354 0.35070
# Poissons Ratio (z) = 0.46631 0.46631
#
# Static dielectric constant tensor:
#      x y z
#    x 3.668050 0.000000 0.000000 
#    y 0.000000 3.668050 0.000000 
#    z 0.000000 0.000000 3.654680 
# 
# 
# High freq. dielectric constant tensor:
#      x y z
#    x 1.791500 0.000000 0.000000 
#    y 0.000000 1.791500 0.000000 
#    z 0.000000 0.000000 1.777980 
# 
# From -- ./inp_files/6136.got.cif
#   From: 2010.03.12/outbox.cif.g09.slc.cpg/sg125_4_cif.got.tgz:6136.got - 2010.04.06 16:47:52.
