data_PCOD8313681
_publ_section_title
;
Structure prediction by ZEFSAII (Michael W. Deem and Ramdas Pophale) SiO2 
 PCOD8313681
Probable space group: P 4/N N C
;
_chemical_formula_sum "Si O2"
_cell_formula_units_Z 72
_cell_length_a 19.774331
_cell_length_b 19.774331
_cell_length_c 9.859782
_cell_angle_alpha 90.000000
_cell_angle_beta 90.000000
_cell_angle_gamma 90.000000
_cell_volume 3855.413038
_symmetry_space_group_name_H-M "P 4/N N C"
_symmetry_group_IT_number 126
_space_group.IT_coordinate_system_code '2'
_symmetry_cell_setting 'tetragonal'
loop_
_space_group_symop_operation_xyz
x,y,z
1/2-y,x,z
1/2-x,1/2-y,z
y,1/2-x,z
x,1/2-y,1/2-z
1/2-x,y,1/2-z
y,x,1/2-z
1/2-y,1/2-x,1/2-z
-x,-y,-z
1/2+y,-x,-z
1/2+x,1/2+y,-z
-y,1/2+x,-z
-x,1/2+y,1/2+z
1/2+x,-y,1/2+z
-y,-x,1/2+z
1/2+y,1/2+x,1/2+z
loop_
_atom_site_type_symbol
_atom_site_label
_atom_site_fract_x
_atom_site_fract_y
_atom_site_fract_z
Si Si1 0.919831 0.250000 0.750000
Si Si2 0.881164 0.102710 0.762329
Si Si3 0.017325 0.750000 0.750000
Si Si4 0.528670 0.784586 0.467831
Si Si5 0.861842 0.750000 0.250000
Si Si6 0.426582 0.530994 0.488129
O O1 0.874402 0.183010 0.733332
O O2 0.963994 0.258938 0.614806
O O3 0.810058 0.069364 0.739623
O O4 0.907825 0.086554 0.910444
O O5 0.930923 0.065708 0.658096
O O6 0.970104 0.750948 0.615992
O O7 0.594111 0.758652 0.386406
O O8 0.524845 0.866543 0.489142
O O9 0.816986 0.816986 0.250000
O O10 0.500000 0.500000 0.500000
#
# Coordination Sequence:
#
# PCOD8313681 Si02
#       6
#     8  16   8  16   8  16
#     4   9  18  34  52  76 106 147 188 218 256 311
#     4  10  20  33  52  75 107 141 177 219 261 322
#     4  10  20  35  52  81 114 142 172 216 278 324
#     4   9  20  36  56  79 110 142 176 229 276 318
#     4  10  22  41  62  81 102 140 190 228 270 334
#     4  10  20  34  53  79 105 137 178 222 273 325
#
# _framework density 18.675042000000001
#
# number of rings (size 3 to 8) (size 9 to 14) (size 15 to 20)
#    0.000    2.333    0.000    2.000    0.000    7.556 
#    0.000    3.333    0.000    9.333    0.000    0.000 
#    0.000    0.000    0.000    0.000    0.000    0.000 
#
# Total GULP energy -892334.353040 kJ/mol
# GULP energy per Si atom -12393.532681 kJ/mol
# Density = 1.863254 g / cm^3
# Si number density = 18.675042 Si / 1000 Ang^3
#
#
#
# Elastic Constant Matrix: (Units=GPa)
#
#
# Indices 1 2 3 4 5 6 
#
# 1 91.7317 41.5796 36.2998 0.0000 0.0000 0.0000
# 2 41.5796 91.7317 36.2998 0.0000 0.0000 0.0000
# 3 36.2998 36.2998 117.3058 0.0000 0.0000 0.0000
# 4 0.0000 0.0000 0.0000 26.1349 0.0000 0.0000
# 5 0.0000 0.0000 0.0000 0.0000 26.1349 0.0000
# 6 0.0000 0.0000 0.0000 0.0000 0.0000 17.5446
#
#
#
# Elastic Compliance Matrix: (Units=1/GPa)
#
#
# Indices 1 2 3 4 5 6 
#
# 1 0.014480 -0.005459 -0.002792 0.000000 0.000000 0.000000
# 2 -0.005459 0.014480 -0.002792 0.000000 0.000000 0.000000
# 3 -0.002792 -0.002792 0.010252 0.000000 0.000000 0.000000
# 4 0.000000 0.000000 0.000000 0.038263 0.000000 0.000000
# 5 0.000000 0.000000 0.000000 0.000000 0.038263 0.000000
# 6 0.000000 0.000000 0.000000 0.000000 0.000000 0.056997
#
#
# Mechanical properties :
#
#
# Convention : Reuss Voigt Hill
#
# Bulk Modulus (GPa) = 58.38101 58.79194 58.58647
# Shear Modulus (GPa) = 24.93381 26.40223 25.66802
#
# Velocity S-wave (km/s) = 3.65792 3.76409 3.71139
# Velocity P-wave (km/s) = 7.01213 7.10219 7.05730
#
# Compressibility (1/GPa) = 0.01712886
#
# Stress axis : x y z
#
# Youngs Moduli (GPa) = 69.05867 69.05867 97.53745
#
# Poissons Ratio (x) = 0.37698 0.27229
# Poissons Ratio (y) = 0.37698 0.27229
# Poissons Ratio (z) = 0.19279 0.19279
#
# Static dielectric constant tensor:
#      x y z
#    x 3.421890 0.000000 0.000000 
#    y 0.000000 3.421890 0.000000 
#    z 0.000000 0.000000 4.262610 
# 
# 
# High freq. dielectric constant tensor:
#      x y z
#    x 1.716460 0.000000 0.000000 
#    y 0.000000 1.716460 0.000000 
#    z 0.000000 0.000000 1.743450 
# 
# From -- ./inp_files/1615.got.cif
#   From: 2010.03.12/outbox.cif.g09.slc.cpg/sg126_1_cif.got.tgz:1615.got - 2010.04.06 16:55:23.
