data_PCOD8313639
_publ_section_title
;
Structure prediction by ZEFSAII (Michael W. Deem and Ramdas Pophale) SiO2 
 PCOD8313639
Probable space group: P 4/N N C
;
_chemical_formula_sum "Si O2"
_cell_formula_units_Z 56
_cell_length_a 16.087124
_cell_length_b 16.087124
_cell_length_c 10.093295
_cell_angle_alpha 90.000000
_cell_angle_beta 90.000000
_cell_angle_gamma 90.000000
_cell_volume 2612.099918
_symmetry_space_group_name_H-M "P 4/N N C"
_symmetry_group_IT_number 126
_space_group.IT_coordinate_system_code '2'
_symmetry_cell_setting 'tetragonal'
loop_
_space_group_symop_operation_xyz
x,y,z
1/2-y,x,z
1/2-x,1/2-y,z
y,1/2-x,z
x,1/2-y,1/2-z
1/2-x,y,1/2-z
y,x,1/2-z
1/2-y,1/2-x,1/2-z
-x,-y,-z
1/2+y,-x,-z
1/2+x,1/2+y,-z
-y,1/2+x,-z
-x,1/2+y,1/2+z
1/2+x,-y,1/2+z
-y,-x,1/2+z
1/2+y,1/2+x,1/2+z
loop_
_atom_site_type_symbol
_atom_site_label
_atom_site_fract_x
_atom_site_fract_y
_atom_site_fract_z
Si Si1 0.366014 0.133987 0.250000
Si Si2 0.446550 0.844774 0.755419
Si Si3 0.470543 0.907528 0.471365
Si Si4 0.691066 0.634511 0.467665
O O1 0.459014 0.145628 0.193136
O O2 0.357465 0.198348 0.371260
O O3 0.415801 0.750000 0.750000
O O4 0.431790 0.876470 0.607638
O O5 0.394855 0.900991 0.858580
O O6 0.549574 0.852522 0.424435
O O7 0.500000 0.000000 0.500000
O O8 0.785783 0.638952 0.413395
#
# Coordination Sequence:
#
# PCOD8313639 Si02
#       4
#     8  16  16  16
#     4  10  16  29  54  90 136 163 208 258 336 408
#     4  11  22  39  66  97 131 172 229 283 335 406
#     4  11  21  38  65  98 135 178 224 271 344 416
#     4  10  19  31  56  96 135 170 216 275 341 412
#
# _framework density 21.438690999999999
#
# number of rings (size 3 to 8) (size 9 to 14) (size 15 to 20)
#    0.000    1.429    5.714    4.286    0.000    1.143 
#    0.000    1.429    6.286    2.571    0.000    8.000 
#    0.000    0.000    0.000    0.000    0.000    0.000 
#
# Total GULP energy -694166.373897 kJ/mol
# GULP energy per Si atom -12395.828105 kJ/mol
# Density = 2.138990 g / cm^3
# Si number density = 21.438691 Si / 1000 Ang^3
#
#
#
# Elastic Constant Matrix: (Units=GPa)
#
#
# Indices 1 2 3 4 5 6 
#
# 1 134.4671 54.6771 68.5003 0.0000 0.0000 0.0000
# 2 54.6771 134.4656 68.5005 0.0000 0.0000 0.0000
# 3 68.5003 68.5005 88.3580 0.0000 0.0000 0.0000
# 4 0.0000 0.0000 0.0000 30.0237 0.0000 0.0000
# 5 0.0000 0.0000 0.0000 0.0000 30.0238 0.0000
# 6 0.0000 0.0000 0.0000 0.0000 0.0000 35.1193
#
#
#
# Elastic Compliance Matrix: (Units=1/GPa)
#
#
# Indices 1 2 3 4 5 6 
#
# 1 0.012295 -0.000238 -0.009348 0.000000 0.000000 0.000000
# 2 -0.000238 0.012296 -0.009348 0.000000 0.000000 0.000000
# 3 -0.009348 -0.009348 0.025812 0.000000 0.000000 0.000000
# 4 0.000000 0.000000 0.000000 0.033307 0.000000 0.000000
# 5 0.000000 0.000000 0.000000 0.000000 0.033307 0.000000
# 6 0.000000 0.000000 0.000000 0.000000 0.000000 0.028474
#
#
# Mechanical properties :
#
#
# Convention : Reuss Voigt Hill
#
# Bulk Modulus (GPa) = 79.77246 82.29405 81.03325
# Shear Modulus (GPa) = 26.66137 30.07421 28.36779
#
# Velocity S-wave (km/s) = 3.53031 3.74946 3.64154
# Velocity P-wave (km/s) = 7.34219 7.56397 7.45391
#
# Compressibility (1/GPa) = 0.01253565
#
# Stress axis : x y z
#
# Youngs Moduli (GPa) = 81.33132 81.32950 38.74169
#
# Poissons Ratio (x) = 0.01932 0.36216
# Poissons Ratio (y) = 0.01932 0.36217
# Poissons Ratio (z) = 0.76028 0.76029
#
# Static dielectric constant tensor:
#      x y z
#    x 3.763810 0.000000 0.000000 
#    y 0.000000 3.763830 0.000000 
#    z 0.000000 0.000000 3.951470 
# 
# 
# High freq. dielectric constant tensor:
#      x y z
#    x 1.830840 0.000000 0.000000 
#    y 0.000000 1.830840 0.000000 
#    z 0.000000 0.000000 1.826530 
# 
# From -- ./inp_files/2385.got.cif
#   From: 2010.03.12/outbox.cif.g09.slc.cpg/sg126_2_cif.got.tgz:2385.got - 2010.04.06 16:55:23.
