data_PCOD8313491
_publ_section_title
;
Structure prediction by ZEFSAII (Michael W. Deem and Ramdas Pophale) SiO2 
 PCOD8313491
Probable space group: P 4/N B M
;
_chemical_formula_sum "Si O2"
_cell_formula_units_Z 72
_cell_length_a 13.577071
_cell_length_b 13.577071
_cell_length_c 18.559119
_cell_angle_alpha 90.000000
_cell_angle_beta 90.000000
_cell_angle_gamma 90.000000
_cell_volume 3421.129664
_symmetry_space_group_name_H-M "P 4/N B M"
_symmetry_group_IT_number 125
_space_group.IT_coordinate_system_code '2'
_symmetry_cell_setting 'tetragonal'
loop_
_space_group_symop_operation_xyz
x,y,z
1/2-y,x,z
1/2-x,1/2-y,z
y,1/2-x,z
x,1/2-y,-z
1/2-x,y,-z
y,x,-z
1/2-y,1/2-x,-z
-x,-y,-z
1/2+y,-x,-z
1/2+x,1/2+y,-z
-y,1/2+x,-z
-x,1/2+y,z
1/2+x,-y,z
-y,-x,z
1/2+y,1/2+x,z
loop_
_atom_site_type_symbol
_atom_site_label
_atom_site_fract_x
_atom_site_fract_y
_atom_site_fract_z
Si Si1 0.250000 0.595872 0.000000
Si Si2 0.372841 0.350682 0.774481
Si Si3 0.131786 0.477409 0.635004
Si Si4 0.493689 0.673368 0.566864
Si Si5 0.384878 0.044115 0.928425
O O1 0.292279 0.530275 0.065196
O O2 0.163131 0.663131 0.033672
O O3 0.263873 0.386033 0.759661
O O4 0.443313 0.401158 0.715295
O O5 0.393786 0.376212 0.856848
O O6 0.249178 0.496294 0.632687
O O7 0.081285 0.581285 0.618100
O O8 0.088506 0.399479 0.575181
O O9 0.497496 0.750000 0.500000
O O10 0.392756 0.607245 0.567964
O O11 0.487745 0.987745 0.923850
O O12 0.386739 0.113262 0.000000
#
# Coordination Sequence:
#
# PCOD8313491 Si02
#       5
#     8  16  16  16  16
#     4   9  18  34  54  79 114 154 200 255 316 378
#     4  11  22  38  59  84 121 164 214 263 317 379
#     4  11  23  42  65  94 132 172 214 259 317 384
#     4  11  24  43  69 100 132 167 212 264 319 383
#     4  10  20  35  57  86 117 155 206 263 322 381
#
# _framework density 21.045680999999998
#
# number of rings (size 3 to 8) (size 9 to 14) (size 15 to 20)
#    0.000    1.444    2.222    3.333    0.000    3.778 
#    0.000    4.444    0.000    2.667    0.000    0.000 
#    0.000    0.000    0.000    0.000    0.000    0.000 
#
# Total GULP energy -891958.802268 kJ/mol
# GULP energy per Si atom -12388.316698 kJ/mol
# Density = 2.099778 g / cm^3
# Si number density = 21.045681 Si / 1000 Ang^3
#
#
#
# Elastic Constant Matrix: (Units=GPa)
#
#
# Indices 1 2 3 4 5 6 
#
# 1 104.7121 30.4837 17.3671 0.0000 0.0000 0.0000
# 2 30.4837 104.7122 17.3670 0.0000 0.0000 0.0000
# 3 17.3671 17.3670 116.0453 0.0000 0.0000 0.0000
# 4 0.0000 0.0000 0.0000 27.9660 0.0000 0.0000
# 5 0.0000 0.0000 0.0000 0.0000 27.9661 0.0000
# 6 0.0000 0.0000 0.0000 0.0000 0.0000 30.6599
#
#
#
# Elastic Compliance Matrix: (Units=1/GPa)
#
#
# Indices 1 2 3 4 5 6 
#
# 1 0.010582 -0.002890 -0.001151 0.000000 0.000000 0.000000
# 2 -0.002890 0.010582 -0.001151 0.000000 0.000000 0.000000
# 3 -0.001151 -0.001151 0.008962 0.000000 0.000000 0.000000
# 4 0.000000 0.000000 0.000000 0.035758 0.000000 0.000000
# 5 0.000000 0.000000 0.000000 0.000000 0.035758 0.000000
# 6 0.000000 0.000000 0.000000 0.000000 0.000000 0.032616
#
#
# Mechanical properties :
#
#
# Convention : Reuss Voigt Hill
#
# Bulk Modulus (GPa) = 50.65373 50.65611 50.65492
# Shear Modulus (GPa) = 33.06386 34.66852 33.86619
#
# Velocity S-wave (km/s) = 3.96795 4.06310 4.01580
# Velocity P-wave (km/s) = 6.71666 6.79217 6.75452
#
# Compressibility (1/GPa) = 0.01974188
#
# Stress axis : x y z
#
# Youngs Moduli (GPa) = 94.49837 94.49849 111.58340
#
# Poissons Ratio (x) = 0.27308 0.12846
# Poissons Ratio (y) = 0.27308 0.12846
# Poissons Ratio (z) = 0.10879 0.10879
#
# Static dielectric constant tensor:
#      x y z
#    x 3.980820 0.000000 0.000000 
#    y 0.000000 3.980820 0.000000 
#    z 0.000000 0.000000 3.792420 
# 
# 
# High freq. dielectric constant tensor:
#      x y z
#    x 1.826640 0.000000 0.000000 
#    y 0.000000 1.826640 0.000000 
#    z 0.000000 0.000000 1.821110 
# 
# From -- ./inp_files/5349.got.cif
#   From: 2010.03.12/outbox.cif.g09.slc.cpg/sg125_3_cif.got.tgz:5349.got - 2010.04.06 16:47:52.
