data_PCOD8313683
_publ_section_title
;
Structure prediction by ZEFSAII (Michael W. Deem and Ramdas Pophale) SiO2 
 PCOD8313683
Probable space group: P 4/N N C
;
_chemical_formula_sum "Si O2"
_cell_formula_units_Z 88
_cell_length_a 13.493378
_cell_length_b 13.493378
_cell_length_c 25.555467
_cell_angle_alpha 90.000000
_cell_angle_beta 90.000000
_cell_angle_gamma 90.000000
_cell_volume 4652.915817
_symmetry_space_group_name_H-M "P 4/N N C"
_symmetry_group_IT_number 126
_space_group.IT_coordinate_system_code '2'
_symmetry_cell_setting 'tetragonal'
loop_
_space_group_symop_operation_xyz
x,y,z
1/2-y,x,z
1/2-x,1/2-y,z
y,1/2-x,z
x,1/2-y,1/2-z
1/2-x,y,1/2-z
y,x,1/2-z
1/2-y,1/2-x,1/2-z
-x,-y,-z
1/2+y,-x,-z
1/2+x,1/2+y,-z
-y,1/2+x,-z
-x,1/2+y,1/2+z
1/2+x,-y,1/2+z
-y,-x,1/2+z
1/2+y,1/2+x,1/2+z
loop_
_atom_site_type_symbol
_atom_site_label
_atom_site_fract_x
_atom_site_fract_y
_atom_site_fract_z
Si Si1 0.847168 0.880237 0.641451
Si Si2 0.941735 0.558266 0.750000
Si Si3 0.340876 0.489324 0.983633
Si Si4 0.359710 0.003480 0.040045
Si Si5 0.004208 0.353640 0.771880
Si Si6 0.595662 0.700792 0.373725
O O1 0.729991 0.886003 0.632321
O O2 0.885792 0.901323 0.699565
O O3 0.886623 0.959954 0.599145
O O4 0.925441 0.438358 0.753222
O O5 0.415294 0.404401 0.001560
O O6 0.257063 0.506684 0.027776
O O7 0.397222 0.591896 0.971663
O O8 0.293789 0.449416 0.930948
O O9 0.966751 0.250000 0.750000
O O10 0.113365 0.386636 0.750000
O O11 0.010742 0.338355 0.834357
O O12 0.686690 0.627120 0.363872
#
# Coordination Sequence:
#
# PCOD8313683 Si02
#       6
#    16   8  16  16  16  16
#     4  11  22  40  69  92 115 152 204 264 320 358
#     4  10  22  37  57  92 126 152 204 266 304 368
#     4  11  23  39  60  89 122 162 206 250 307 368
#     4  11  23  40  62  89 124 161 204 257 309 371
#     4  10  20  34  54  82 123 163 197 242 300 362
#     4  11  19  30  55  85 116 153 202 257 305 359
#
# _framework density 18.912870999999999
#
# number of rings (size 3 to 8) (size 9 to 14) (size 15 to 20)
#    0.545    0.727    5.455    1.636    0.000    1.636 
#    0.000    0.000    0.000    2.182    0.000    0.000 
#    0.000    0.000    0.000    0.000    0.000    0.000 
#
# Total GULP energy -1090342.537498 kJ/mol
# GULP energy per Si atom -12390.256108 kJ/mol
# Density = 1.886982 g / cm^3
# Si number density = 18.912871 Si / 1000 Ang^3
#
#
#
# Elastic Constant Matrix: (Units=GPa)
#
#
# Indices 1 2 3 4 5 6 
#
# 1 121.9687 -15.8545 24.0413 0.0000 0.0000 0.0000
# 2 -15.8545 121.9685 24.0424 0.0000 0.0000 0.0000
# 3 24.0413 24.0424 128.6564 0.0000 0.0000 0.0000
# 4 0.0000 0.0000 0.0000 24.8492 0.0000 0.0000
# 5 0.0000 0.0000 0.0000 0.0000 24.8494 0.0000
# 6 0.0000 0.0000 0.0000 0.0000 0.0000 177.3064
#
#
#
# Elastic Compliance Matrix: (Units=1/GPa)
#
#
# Indices 1 2 3 4 5 6 
#
# 1 0.008776 0.001520 -0.001924 0.000000 0.000000 0.000000
# 2 0.001520 0.008776 -0.001924 0.000000 0.000000 0.000000
# 3 -0.001924 -0.001924 0.008492 0.000000 0.000000 0.000000
# 4 0.000000 0.000000 0.000000 0.040243 0.000000 0.000000
# 5 0.000000 0.000000 0.000000 0.000000 0.040242 0.000000
# 6 0.000000 0.000000 0.000000 0.000000 0.000000 0.005640
#
#
# Mechanical properties :
#
#
# Convention : Reuss Voigt Hill
#
# Bulk Modulus (GPa) = 46.75695 48.56134 47.65915
# Shear Modulus (GPa) = 40.33785 68.09195 54.21490
#
# Velocity S-wave (km/s) = 4.62326 6.00676 5.35984
# Velocity P-wave (km/s) = 7.29900 8.59304 7.97232
#
# Compressibility (1/GPa) = 0.02138719
#
# Stress axis : x y z
#
# Youngs Moduli (GPa) = 113.95201 113.95149 117.76230
#
# Poissons Ratio (x) = -0.17320 0.22656
# Poissons Ratio (y) = -0.17320 0.22657
# Poissons Ratio (z) = 0.21923 0.21924
#
# Static dielectric constant tensor:
#      x y z
#    x 3.329450 0.000000 0.000000 
#    y 0.000000 3.329460 0.000000 
#    z 0.000000 0.000000 3.546690 
# 
# 
# High freq. dielectric constant tensor:
#      x y z
#    x 1.718640 0.000000 0.000000 
#    y 0.000000 1.718640 0.000000 
#    z 0.000000 0.000000 1.750240 
# 
# From -- ./inp_files/6182.got.cif
#   From: 2010.03.12/outbox.cif.g09.slc.cpg/sg126_4_cif.got.tgz:6182.got - 2010.04.06 16:55:23.
