data_PCOD8313496
_publ_section_title
;
Structure prediction by ZEFSAII (Michael W. Deem and Ramdas Pophale) SiO2 
 PCOD8313496
Probable space group: P 4/N B M
;
_chemical_formula_sum "Si O2"
_cell_formula_units_Z 96
_cell_length_a 22.711645
_cell_length_b 22.711645
_cell_length_c 9.683209
_cell_angle_alpha 90.000000
_cell_angle_beta 90.000000
_cell_angle_gamma 90.000000
_cell_volume 4994.781427
_symmetry_space_group_name_H-M "P 4/N B M"
_symmetry_group_IT_number 125
_space_group.IT_coordinate_system_code '2'
_symmetry_cell_setting 'tetragonal'
loop_
_space_group_symop_operation_xyz
x,y,z
1/2-y,x,z
1/2-x,1/2-y,z
y,1/2-x,z
x,1/2-y,-z
1/2-x,y,-z
y,x,-z
1/2-y,1/2-x,-z
-x,-y,-z
1/2+y,-x,-z
1/2+x,1/2+y,-z
-y,1/2+x,-z
-x,1/2+y,z
1/2+x,-y,z
-y,-x,z
1/2+y,1/2+x,z
loop_
_atom_site_type_symbol
_atom_site_label
_atom_site_fract_x
_atom_site_fract_y
_atom_site_fract_z
Si Si1 0.595164 0.498381 0.491069
Si Si2 0.680554 0.993291 0.253803
Si Si3 0.707531 0.115125 0.123814
Si Si4 0.620090 0.215494 0.638490
Si Si5 0.416139 0.181506 0.000887
Si Si6 0.187643 0.494252 0.267774
O O1 0.540943 0.540943 0.500000
O O2 0.567816 0.432185 0.466506
O O3 0.632454 0.500111 0.629477
O O4 0.637117 0.524980 0.372987
O O5 0.745723 0.976075 0.311771
O O6 0.680779 0.054742 0.175658
O O7 0.661064 0.944709 0.144207
O O8 0.656732 0.156732 0.065067
O O9 0.739658 0.148628 0.251452
O O10 0.750000 0.098760 0.000000
O O11 0.598735 0.250000 0.500000
O O12 0.666683 0.166683 0.591954
O O13 0.565651 0.186488 0.723368
O O14 0.464244 0.170960 0.878650
O O15 0.397554 0.250000 0.000000
O O16 0.356968 0.143033 0.000000
#
# Coordination Sequence:
#
# PCOD8313496 Si02
#       6
#    16  16  16  16  16  16
#     4  11  22  35  54  81 112 143 177 223 271 311
#     4  10  20  38  58  78 106 143 184 219 263 323
#     4  11  22  35  52  74 103 142 184 228 275 319
#     4  11  22  35  53  77 107 146 191 238 281 319
#     4  10  21  38  61  86 111 138 172 218 271 333
#     4  10  20  36  57  79 105 143 184 220 264 324
#
# _framework density 19.220058999999999
#
# number of rings (size 3 to 8) (size 9 to 14) (size 15 to 20)
#    0.000    1.500    0.000    8.000    0.000    2.167 
#    0.000    2.500    0.000    6.000    0.000    0.000 
#    0.000   14.667    0.000    0.000    0.000    0.000 
#
# Total GULP energy -1189449.793451 kJ/mol
# GULP energy per Si atom -12390.102015 kJ/mol
# Density = 1.917631 g / cm^3
# Si number density = 19.220059 Si / 1000 Ang^3
#
#
#
# Elastic Constant Matrix: (Units=GPa)
#
#
# Indices 1 2 3 4 5 6 
#
# 1 93.0795 54.2555 47.9144 0.0000 0.0000 0.0000
# 2 54.2555 93.0764 47.9149 0.0000 0.0000 0.0000
# 3 47.9144 47.9149 109.0515 0.0000 0.0000 0.0000
# 4 0.0000 0.0000 0.0000 27.5493 0.0000 0.0000
# 5 0.0000 0.0000 0.0000 0.0000 27.5500 0.0000
# 6 0.0000 0.0000 0.0000 0.0000 0.0000 32.6570
#
#
#
# Elastic Compliance Matrix: (Units=1/GPa)
#
#
# Indices 1 2 3 4 5 6 
#
# 1 0.017630 -0.008128 -0.004175 0.000000 0.000000 0.000000
# 2 -0.008128 0.017631 -0.004176 0.000000 0.000000 0.000000
# 3 -0.004175 -0.004176 0.012839 0.000000 0.000000 0.000000
# 4 0.000000 0.000000 0.000000 0.036299 0.000000 0.000000
# 5 0.000000 0.000000 0.000000 0.000000 0.036298 0.000000
# 6 0.000000 0.000000 0.000000 0.000000 0.000000 0.030621
#
#
# Mechanical properties :
#
#
# Convention : Reuss Voigt Hill
#
# Bulk Modulus (GPa) = 66.03434 66.15300 66.09367
# Shear Modulus (GPa) = 26.40988 27.22608 26.81798
#
# Velocity S-wave (km/s) = 3.71088 3.76779 3.73944
# Velocity P-wave (km/s) = 7.26584 7.30902 7.28746
#
# Compressibility (1/GPa) = 0.01514363
#
# Stress axis : x y z
#
# Youngs Moduli (GPa) = 56.72055 56.71771 77.88668
#
# Poissons Ratio (x) = 0.46098 0.32519
# Poissons Ratio (y) = 0.46100 0.32523
# Poissons Ratio (z) = 0.23682 0.23684
#
# Static dielectric constant tensor:
#      x y z
#    x 3.564060 0.000000 0.000000 
#    y 0.000000 3.564060 0.000000 
#    z 0.000000 0.000000 3.894370 
# 
# 
# High freq. dielectric constant tensor:
#      x y z
#    x 1.743260 0.000000 0.000000 
#    y 0.000000 1.743260 0.000000 
#    z 0.000000 0.000000 1.757340 
# 
# From -- ./inp_files/2871.got.cif
#   From: 2010.03.12/outbox.cif.g09.slc.cpg/sg125_2_cif.got.tgz:2871.got - 2010.04.06 16:47:52.
