data_PCOD8313372
_publ_section_title
;
Structure prediction by ZEFSAII (Michael W. Deem and Ramdas Pophale) SiO2 
 PCOD8313372
Probable space group: P 4/M C C
;
_chemical_formula_sum "Si O2"
_cell_formula_units_Z 96
_cell_length_a 23.436612
_cell_length_b 23.436612
_cell_length_c 9.003469
_cell_angle_alpha 90.000000
_cell_angle_beta 90.000000
_cell_angle_gamma 90.000000
_cell_volume 4945.378473
_symmetry_space_group_name_H-M "P 4/M C C"
_symmetry_group_IT_number 124
_symmetry_cell_setting 'tetragonal'
loop_
_space_group_symop_operation_xyz
x,y,z
-y,x,z
-x,-y,z
y,-x,z
x,-y,1/2-z
-x,y,1/2-z
y,x,1/2-z
-y,-x,1/2-z
-x,-y,-z
y,-x,-z
x,y,-z
-y,x,-z
-x,y,1/2+z
x,-y,1/2+z
-y,-x,1/2+z
y,x,1/2+z
loop_
_atom_site_type_symbol
_atom_site_label
_atom_site_fract_x
_atom_site_fract_y
_atom_site_fract_z
Si Si1 0.241357 0.359074 0.325629
Si Si2 0.424118 0.050484 0.336878
Si Si3 0.741846 0.818763 0.323245
Si Si4 0.648670 0.563219 0.678586
Si Si5 0.824093 0.447726 0.667126
Si Si6 0.295999 0.943260 0.824639
O O1 0.239163 0.347911 0.500000
O O2 0.230904 0.300564 0.238781
O O3 0.298350 0.394557 0.279964
O O4 0.186593 0.393904 0.269762
O O5 0.417112 0.025824 0.500000
O O6 0.460026 0.108501 0.337261
O O7 0.361309 0.061611 0.270826
O O8 0.456462 0.000000 0.250000
O O9 0.802735 0.802735 0.250000
O O10 0.741255 0.814133 0.500000
O O11 0.731388 0.883675 0.270204
O O12 0.657264 0.500000 0.750000
O O13 0.591977 0.591977 0.750000
O O14 0.642380 0.557585 0.500000
O O15 0.792923 0.500000 0.750000
O O16 0.799643 0.440021 0.500000
O O17 0.267835 0.000000 0.750000
O O18 0.289183 0.948901 0.000000
#
# Coordination Sequence:
#
# PCOD8313372 Si02
#       6
#    16  16  16  16  16  16
#     4  11  23  39  60  86 113 149 188 226 281 337
#     4   9  18  33  50  70  98 136 180 230 282 328
#     4  11  22  37  57  86 121 154 192 237 281 332
#     4  11  25  44  66  91 116 143 178 221 273 335
#     4  11  22  36  52  74 105 141 185 235 283 333
#     4   9  18  34  54  78 109 148 190 234 282 331
#
# _framework density 19.412064000000001
#
# number of rings (size 3 to 8) (size 9 to 14) (size 15 to 20)
#    0.000    1.667    1.667    3.000    0.000    8.500 
#    0.000    2.500    0.000    0.000    0.000    0.000 
#    0.000    0.333    0.000    3.667    0.000    2.667 
#
# Total GULP energy -1189252.584520 kJ/mol
# GULP energy per Si atom -12388.047755 kJ/mol
# Density = 1.936788 g / cm^3
# Si number density = 19.412064 Si / 1000 Ang^3
#
#
#
# Elastic Constant Matrix: (Units=GPa)
#
#
# Indices 1 2 3 4 5 6 
#
# 1 85.8273 49.9174 44.6373 0.0000 0.0000 0.0000
# 2 49.9174 85.8273 44.6373 0.0000 0.0000 0.0000
# 3 44.6373 44.6373 86.1970 0.0000 0.0000 0.0000
# 4 0.0000 0.0000 0.0000 19.5663 0.0000 0.0000
# 5 0.0000 0.0000 0.0000 0.0000 19.5663 0.0000
# 6 0.0000 0.0000 0.0000 0.0000 0.0000 -4.9359
#
#
#
# Elastic Compliance Matrix: (Units=1/GPa)
#
#
# Indices 1 2 3 4 5 6 
#
# 1 0.019509 -0.008338 -0.005785 0.000000 0.000000 0.000000
# 2 -0.008338 0.019509 -0.005785 0.000000 0.000000 0.000000
# 3 -0.005785 -0.005785 0.017593 0.000000 0.000000 0.000000
# 4 0.000000 0.000000 0.000000 0.051108 0.000000 0.000000
# 5 0.000000 0.000000 0.000000 0.000000 0.051108 0.000000
# 6 0.000000 0.000000 0.000000 0.000000 0.000000 -0.202598
#
#
# Mechanical properties :
#
#
# Convention : Reuss Voigt Hill
#
# Bulk Modulus (GPa) = 59.54035 59.58170 59.56103
# Shear Modulus (GPa) = 3037.90692 14.74997 1526.32844
#
# Velocity S-wave (km/s) = 39.60247 2.75950 28.07107
# Velocity P-wave (km/s) = 46.06386 6.39632 32.88459
#
# Compressibility (1/GPa) = 0.01679533
#
# Stress axis : x y z
#
# Youngs Moduli (GPa) = 51.25717 51.25717 56.84059
#
# Poissons Ratio (x) = 0.42738 0.32883
# Poissons Ratio (y) = 0.42738 0.32883
# Poissons Ratio (z) = 0.29653 0.29653
#
# Static dielectric constant tensor:
#      x y z
#    x 6.083400 0.000000 0.000000 
#    y 0.000000 6.083400 0.000000 
#    z 0.000000 0.000000 3.614740 
# 
# 
# High freq. dielectric constant tensor:
#      x y z
#    x 1.742370 0.000000 0.000000 
#    y 0.000000 1.742370 0.000000 
#    z 0.000000 0.000000 1.762650 
# 
# From -- ./inp_files/1313.got.cif
#   From: 2010.03.12/outbox.cif.g09.slc.cpg/sg124_1_cif.got.tgz:1313.got - 2010.04.06 16:38:57.
