data_PCOD8313114
_publ_section_title
;
Structure prediction by ZEFSAII (Michael W. Deem and Ramdas Pophale) SiO2 
 PCOD8313114
Probable space group: P 4/M C C
;
_chemical_formula_sum "Si O2"
_cell_formula_units_Z 80
_cell_length_a 14.049420
_cell_length_b 14.049420
_cell_length_c 26.602964
_cell_angle_alpha 90.000000
_cell_angle_beta 90.000000
_cell_angle_gamma 90.000000
_cell_volume 5251.058035
_symmetry_space_group_name_H-M "P 4/M C C"
_symmetry_group_IT_number 124
_symmetry_cell_setting 'tetragonal'
loop_
_space_group_symop_operation_xyz
x,y,z
-y,x,z
-x,-y,z
y,-x,z
x,-y,1/2-z
-x,y,1/2-z
y,x,1/2-z
-y,-x,1/2-z
-x,-y,-z
y,-x,-z
x,y,-z
-y,x,-z
-x,y,1/2+z
x,-y,1/2+z
-y,-x,1/2+z
y,x,1/2+z
loop_
_atom_site_type_symbol
_atom_site_label
_atom_site_fract_x
_atom_site_fract_y
_atom_site_fract_z
Si Si1 0.618120 0.603413 0.805621
Si Si2 0.113462 0.256263 0.940237
Si Si3 0.246832 0.414447 0.557133
Si Si4 0.260200 0.899848 0.440753
Si Si5 0.271089 0.382631 0.901640
O O1 0.508953 0.631091 0.813338
O O2 0.643171 0.643171 0.750000
O O3 0.689318 0.648854 0.846626
O O4 0.164483 0.156967 0.925812
O O5 0.166090 0.341541 0.911154
O O6 0.006183 0.254413 0.918655
O O7 0.117418 0.274731 0.000000
O O8 0.230254 0.448539 0.500000
O O9 0.155892 0.354640 0.578127
O O10 0.265417 0.504131 0.592584
O O11 0.338445 0.344803 0.558034
O O12 0.266762 0.906386 0.500000
#
# Coordination Sequence:
#
# PCOD8313114 Si02
#       5
#    16  16  16  16  16
#     4   9  17  30  45  62  84 112 151 187 216 255
#     4   9  17  29  44  63  89 117 153 189 223 266
#     4  10  19  28  39  60  92 124 154 181 213 259
#     4   8  16  29  42  60  87 120 153 189 220 258
#     4  11  18  28  42  62  88 120 149 183 222 262
#
# _framework density 15.235025
#
# number of rings (size 3 to 8) (size 9 to 14) (size 15 to 20)
#    0.000    2.600    2.000    3.600    0.000    1.600 
#    0.000    6.000    0.000    0.000    0.000    5.600 
#    0.000    0.000    0.000    7.200    0.000    0.800 
#
# Total GULP energy -991413.541579 kJ/mol
# GULP energy per Si atom -12392.669270 kJ/mol
# Density = 1.520035 g / cm^3
# Si number density = 15.235025 Si / 1000 Ang^3
#
#
#
# Elastic Constant Matrix: (Units=GPa)
#
#
# Indices 1 2 3 4 5 6 
#
# 1 99.6787 45.4924 20.1981 0.0000 0.0000 0.0000
# 2 45.4924 99.6787 20.1981 0.0000 0.0000 0.0000
# 3 20.1981 20.1981 61.2495 0.0000 0.0000 0.0000
# 4 0.0000 0.0000 0.0000 11.7111 0.0000 0.0000
# 5 0.0000 0.0000 0.0000 0.0000 11.7111 0.0000
# 6 0.0000 0.0000 0.0000 0.0000 0.0000 13.6371
#
#
#
# Elastic Compliance Matrix: (Units=1/GPa)
#
#
# Indices 1 2 3 4 5 6 
#
# 1 0.013020 -0.005435 -0.002501 0.000000 0.000000 0.000000
# 2 -0.005435 0.013020 -0.002501 0.000000 0.000000 0.000000
# 3 -0.002501 -0.002501 0.017976 0.000000 0.000000 0.000000
# 4 0.000000 0.000000 0.000000 0.085389 0.000000 0.000000
# 5 0.000000 0.000000 0.000000 0.000000 0.085389 0.000000
# 6 0.000000 0.000000 0.000000 0.000000 0.000000 0.073329
#
#
# Mechanical properties :
#
#
# Convention : Reuss Voigt Hill
#
# Bulk Modulus (GPa) = 43.21399 48.04267 45.62833
# Shear Modulus (GPa) = 15.78726 19.05975 17.42351
#
# Velocity S-wave (km/s) = 3.22257 3.54085 3.38546
# Velocity P-wave (km/s) = 6.50178 6.95123 6.73026
#
# Compressibility (1/GPa) = 0.02314066
#
# Stress axis : x y z
#
# Youngs Moduli (GPa) = 76.80710 76.80710 55.62908
#
# Poissons Ratio (x) = 0.41746 0.13913
# Poissons Ratio (y) = 0.41746 0.13913
# Poissons Ratio (z) = 0.19210 0.19210
#
# Static dielectric constant tensor:
#      x y z
#    x 2.991970 0.000000 0.000000 
#    y 0.000000 2.991970 0.000000 
#    z 0.000000 0.000000 2.694990 
# 
# 
# High freq. dielectric constant tensor:
#      x y z
#    x 1.577130 0.000000 0.000000 
#    y 0.000000 1.577130 0.000000 
#    z 0.000000 0.000000 1.542450 
# 
# From -- ./inp_files/5942.got.cif
#   From: 2010.03.12/outbox.cif.g09.slc.cpg/sg124_3_cif.got.tgz:5942.got - 2010.04.06 16:38:57.
