data_PCOD8313648
_publ_section_title
;
Structure prediction by ZEFSAII (Michael W. Deem and Ramdas Pophale) SiO2 
 PCOD8313648
Probable space group: P 4/N N C
;
_chemical_formula_sum "Si O2"
_cell_formula_units_Z 128
_cell_length_a 19.318379
_cell_length_b 19.318379
_cell_length_c 18.341089
_cell_angle_alpha 90.000000
_cell_angle_beta 90.000000
_cell_angle_gamma 90.000000
_cell_volume 6844.890145
_symmetry_space_group_name_H-M "P 4/N N C"
_symmetry_group_IT_number 126
_space_group.IT_coordinate_system_code '2'
_symmetry_cell_setting 'tetragonal'
loop_
_space_group_symop_operation_xyz
x,y,z
1/2-y,x,z
1/2-x,1/2-y,z
y,1/2-x,z
x,1/2-y,1/2-z
1/2-x,y,1/2-z
y,x,1/2-z
1/2-y,1/2-x,1/2-z
-x,-y,-z
1/2+y,-x,-z
1/2+x,1/2+y,-z
-y,1/2+x,-z
-x,1/2+y,1/2+z
1/2+x,-y,1/2+z
-y,-x,1/2+z
1/2+y,1/2+x,1/2+z
loop_
_atom_site_type_symbol
_atom_site_label
_atom_site_fract_x
_atom_site_fract_y
_atom_site_fract_z
Si Si1 0.380109 0.611429 0.000704
Si Si2 0.438008 0.946936 0.239518
Si Si3 0.783124 0.640623 0.929473
Si Si4 0.991621 0.882278 0.389435
Si Si5 0.255109 0.927129 0.061226
Si Si6 0.519865 0.797959 0.684403
Si Si7 0.259563 0.045009 0.940355
Si Si8 0.610381 0.009266 0.119166
O O1 0.314102 0.618512 0.054203
O O2 0.450916 0.610668 0.043872
O O3 0.381442 0.539641 0.959338
O O4 0.378998 0.677257 0.946828
O O5 0.459662 0.887528 0.181853
O O6 0.435884 0.905321 0.316126
O O7 0.495724 0.004277 0.250000
O O8 0.368568 0.987037 0.215787
O O9 0.835703 0.703972 0.917426
O O10 0.809676 0.584287 0.870385
O O11 0.785075 0.611637 0.012554
O O12 0.944831 0.812674 0.395926
O O13 0.945480 0.949731 0.387669
O O14 0.256299 0.960891 0.141046
O O15 0.252015 0.983213 0.997488
O O16 0.546234 0.750000 0.750000
O O17 0.314395 0.027257 0.876233
#
# Coordination Sequence:
#
# PCOD8313648 Si02
#       8
#    16  16  16  16  16  16  16  16
#     4  10  18  34  53  78 107 144 193 244 290 349
#     4  10  22  36  53  82 115 149 194 245 294 349
#     4  10  22  38  56  84 122 161 204 247 296 367
#     4  10  19  35  56  80 112 149 188 245 303 358
#     4   9  19  33  52  79 103 142 188 241 298 338
#     4  11  22  36  55  80 117 161 201 244 292 362
#     4   9  19  35  57  82 107 144 194 245 300 351
#     4  10  20  34  55  84 111 147 196 239 300 361
#
# _framework density 18.700081000000001
#
# number of rings (size 3 to 8) (size 9 to 14) (size 15 to 20)
#    0.000    2.125    1.250    1.875    1.750    0.750 
#    4.500    0.625    0.000    0.000    0.000    0.000 
#    0.000    8.000    0.000    0.000    0.000    0.000 
#
# Total GULP energy -1586041.139240 kJ/mol
# GULP energy per Si atom -12390.946400 kJ/mol
# Density = 1.865752 g / cm^3
# Si number density = 18.700081 Si / 1000 Ang^3
#
#
#
# Elastic Constant Matrix: (Units=GPa)
#
#
# Indices 1 2 3 4 5 6 
#
# 1 89.0721 29.9566 36.5425 0.0000 0.0000 0.0000
# 2 29.9566 89.0730 36.5428 0.0000 0.0000 0.0000
# 3 36.5425 36.5428 76.1801 0.0000 0.0000 0.0000
# 4 0.0000 0.0000 0.0000 29.2478 0.0000 0.0000
# 5 0.0000 0.0000 0.0000 0.0000 29.2475 0.0000
# 6 0.0000 0.0000 0.0000 0.0000 0.0000 31.2926
#
#
#
# Elastic Compliance Matrix: (Units=1/GPa)
#
#
# Indices 1 2 3 4 5 6 
#
# 1 0.014412 -0.002504 -0.005713 0.000000 0.000000 0.000000
# 2 -0.002504 0.014412 -0.005713 0.000000 0.000000 0.000000
# 3 -0.005713 -0.005713 0.018607 0.000000 0.000000 0.000000
# 4 0.000000 0.000000 0.000000 0.034191 0.000000 0.000000
# 5 0.000000 0.000000 0.000000 0.000000 0.034191 0.000000
# 6 0.000000 0.000000 0.000000 0.000000 0.000000 0.031956
#
#
# Mechanical properties :
#
#
# Convention : Reuss Voigt Hill
#
# Bulk Modulus (GPa) = 51.08596 51.15654 51.12125
# Shear Modulus (GPa) = 27.44956 28.04311 27.74634
#
# Velocity S-wave (km/s) = 3.83545 3.87670 3.85613
# Velocity P-wave (km/s) = 6.85508 6.88869 6.87191
#
# Compressibility (1/GPa) = 0.01957485
#
# Stress axis : x y z
#
# Youngs Moduli (GPa) = 69.38442 69.38503 53.74249
#
# Poissons Ratio (x) = 0.17371 0.30701
# Poissons Ratio (y) = 0.17371 0.30701
# Poissons Ratio (z) = 0.39636 0.39636
#
# Static dielectric constant tensor:
#      x y z
#    x 3.596880 0.000000 0.000000 
#    y 0.000000 3.596880 0.000000 
#    z 0.000000 0.000000 3.579620 
# 
# 
# High freq. dielectric constant tensor:
#      x y z
#    x 1.723310 0.000000 0.000000 
#    y 0.000000 1.723310 0.000000 
#    z 0.000000 0.000000 1.717740 
# 
# From -- ./inp_files/4721.got.cif
#   From: 2010.03.12/outbox.cif.g09.slc.cpg/sg126_3_cif.got.tgz:4721.got - 2010.04.06 16:55:23.
