data_PCOD8313665
_publ_section_title
;
Structure prediction by ZEFSAII (Michael W. Deem and Ramdas Pophale) SiO2 
 PCOD8313665
Probable space group: P 4/N N C
;
_chemical_formula_sum "Si O2"
_cell_formula_units_Z 112
_cell_length_a 14.041906
_cell_length_b 14.041906
_cell_length_c 24.951790
_cell_angle_alpha 90.000000
_cell_angle_beta 90.000000
_cell_angle_gamma 90.000000
_cell_volume 4919.872290
_symmetry_space_group_name_H-M "P 4/N N C"
_symmetry_group_IT_number 126
_space_group.IT_coordinate_system_code '2'
_symmetry_cell_setting 'tetragonal'
loop_
_space_group_symop_operation_xyz
x,y,z
1/2-y,x,z
1/2-x,1/2-y,z
y,1/2-x,z
x,1/2-y,1/2-z
1/2-x,y,1/2-z
y,x,1/2-z
1/2-y,1/2-x,1/2-z
-x,-y,-z
1/2+y,-x,-z
1/2+x,1/2+y,-z
-y,1/2+x,-z
-x,1/2+y,1/2+z
1/2+x,-y,1/2+z
-y,-x,1/2+z
1/2+y,1/2+x,1/2+z
loop_
_atom_site_type_symbol
_atom_site_label
_atom_site_fract_x
_atom_site_fract_y
_atom_site_fract_z
Si Si1 0.060484 0.607911 0.804192
Si Si2 0.060814 0.423976 0.623697
Si Si3 0.823145 0.613999 0.023839
Si Si4 0.848483 0.215781 0.139604
Si Si5 0.462709 0.832820 0.208852
Si Si6 0.612769 0.997490 0.928568
Si Si7 0.866388 0.648747 0.843073
O O1 0.107134 0.536585 0.847792
O O2 0.103627 0.711041 0.818226
O O3 0.079157 0.573805 0.744207
O O4 0.945587 0.598959 0.806662
O O5 0.094733 0.335518 0.587542
O O6 0.136461 0.449654 0.670744
O O7 0.045682 0.511058 0.581885
O O8 0.877543 0.711955 0.010034
O O9 0.865969 0.523779 0.990861
O O10 0.750000 0.250000 0.111154
O O11 0.806344 0.126397 0.172239
O O12 0.929823 0.191025 0.096120
O O13 0.494146 0.750000 0.250000
O O14 0.616665 0.890677 0.903108
O O15 0.881725 0.759402 0.830837
#
# Coordination Sequence:
#
# PCOD8313665 Si02
#       7
#    16  16  16  16  16  16  16
#     4  11  22  39  64  99 135 183 230 287 344 411
#     4  10  25  42  66  99 134 172 228 290 346 406
#     4  11  25  44  72  98 128 176 229 286 353 427
#     4  11  22  39  66  99 138 181 236 284 341 418
#     4  11  23  41  68  96 132 187 232 281 345 417
#     4  10  21  41  67 101 136 177 225 284 353 417
#     4  10  19  35  62  96 140 183 226 282 340 411
#
# _framework density 22.76482
#
# number of rings (size 3 to 8) (size 9 to 14) (size 15 to 20)
#    0.000    1.429    2.857    2.143    4.000    1.143 
#    2.571    0.000    0.000    0.000    0.000    0.000 
#    0.000    0.000    0.000    0.000    0.000    0.000 
#
# Total GULP energy -1387854.731005 kJ/mol
# GULP energy per Si atom -12391.560098 kJ/mol
# Density = 2.271301 g / cm^3
# Si number density = 22.764820 Si / 1000 Ang^3
#
#
#
# Elastic Constant Matrix: (Units=GPa)
#
#
# Indices 1 2 3 4 5 6 
#
# 1 81.1419 24.2663 36.9080 0.0000 0.0000 0.0000
# 2 24.2663 81.1419 36.9080 0.0000 0.0000 0.0000
# 3 36.9080 36.9080 109.1655 0.0000 0.0000 0.0000
# 4 0.0000 0.0000 0.0000 35.3618 0.0000 0.0000
# 5 0.0000 0.0000 0.0000 0.0000 35.3618 0.0000
# 6 0.0000 0.0000 0.0000 0.0000 0.0000 21.6402
#
#
#
# Elastic Compliance Matrix: (Units=1/GPa)
#
#
# Indices 1 2 3 4 5 6 
#
# 1 0.015006 -0.002576 -0.004202 0.000000 0.000000 0.000000
# 2 -0.002576 0.015006 -0.004202 0.000000 0.000000 0.000000
# 3 -0.004202 -0.004202 0.012002 0.000000 0.000000 0.000000
# 4 0.000000 0.000000 0.000000 0.028279 0.000000 0.000000
# 5 0.000000 0.000000 0.000000 0.000000 0.028279 0.000000
# 6 0.000000 0.000000 0.000000 0.000000 0.000000 0.046210
#
#
# Mechanical properties :
#
#
# Convention : Reuss Voigt Hill
#
# Bulk Modulus (GPa) = 49.87043 51.95712 50.91377
# Shear Modulus (GPa) = 28.83029 30.03057 29.43043
#
# Velocity S-wave (km/s) = 3.56257 3.63597 3.59946
# Velocity P-wave (km/s) = 6.23513 6.36396 6.29988
#
# Compressibility (1/GPa) = 0.02005196
#
# Stress axis : x y z
#
# Youngs Moduli (GPa) = 66.63987 66.63987 83.31927
#
# Poissons Ratio (x) = 0.17168 0.35014
# Poissons Ratio (y) = 0.17168 0.35014
# Poissons Ratio (z) = 0.28005 0.28005
#
# Static dielectric constant tensor:
#      x y z
#    x 4.132910 0.000000 0.000000 
#    y 0.000000 4.132910 0.000000 
#    z 0.000000 0.000000 3.866630 
# 
# 
# High freq. dielectric constant tensor:
#      x y z
#    x 1.898420 0.000000 0.000000 
#    y 0.000000 1.898420 0.000000 
#    z 0.000000 0.000000 1.879160 
# 
# From -- ./inp_files/5821.got.cif
#   From: 2010.03.12/outbox.cif.g09.slc.cpg/sg126_3_cif.got.tgz:5821.got - 2010.04.06 16:55:23.
