data_PCOD8313195
_publ_section_title
;
Structure prediction by ZEFSAII (Michael W. Deem and Ramdas Pophale) SiO2 
 PCOD8313195
Probable space group: P 4/M C C
;
_chemical_formula_sum "Si O2"
_cell_formula_units_Z 80
_cell_length_a 19.079911
_cell_length_b 19.079911
_cell_length_c 14.544097
_cell_angle_alpha 90.000000
_cell_angle_beta 90.000000
_cell_angle_gamma 90.000000
_cell_volume 5294.676759
_symmetry_space_group_name_H-M "P 4/M C C"
_symmetry_group_IT_number 124
_symmetry_cell_setting 'tetragonal'
loop_
_space_group_symop_operation_xyz
x,y,z
-y,x,z
-x,-y,z
y,-x,z
x,-y,1/2-z
-x,y,1/2-z
y,x,1/2-z
-y,-x,1/2-z
-x,-y,-z
y,-x,-z
x,y,-z
-y,x,-z
-x,y,1/2+z
x,-y,1/2+z
-y,-x,1/2+z
y,x,1/2+z
loop_
_atom_site_type_symbol
_atom_site_label
_atom_site_fract_x
_atom_site_fract_y
_atom_site_fract_z
Si Si1 0.275708 0.835884 0.750000
Si Si2 0.418940 0.886624 0.250000
Si Si3 0.919864 0.192150 0.893852
Si Si4 0.080137 0.192150 0.106148
Si Si5 0.581082 1.000000 0.100663
O O1 0.241082 0.758919 0.750000
O O2 0.360522 0.825000 0.750000
O O3 0.252847 0.880023 0.660908
O O4 0.252847 0.880023 0.839092
O O5 0.500000 0.859566 0.250000
O O6 0.401077 0.931327 0.159292
O O7 0.401078 0.931327 0.340709
O O8 0.882556 0.117444 0.874841
O O9 0.000000 0.185977 0.860401
O O10 0.915508 0.213188 0.000000
O O11 0.084492 0.213188 0.000000
O O12 0.500000 0.000000 0.081122
O O13 0.619794 0.000000 0.000000
#
# Coordination Sequence:
#
# PCOD8313195 Si02
#       5
#    16  16  16  16  16
#     4  10  20  32  43  58  84 110 133 166 210 253
#     4   9  18  30  44  63  83 105 138 171 199 242
#     4   9  18  30  43  59  78 105 141 177 213 249
#     4   9  18  30  43  59  78 105 141 177 213 249
#     4   8  15  27  42  63  87 106 129 165 205 238
#
# _framework density 15.109515
#
# number of rings (size 3 to 8) (size 9 to 14) (size 15 to 20)
#    0.000    3.000    0.000    1.800    5.600    2.000 
#    0.000    2.000    0.000    3.600    0.000    0.000 
#    0.000    0.400    0.000    0.000    0.000    0.000 
#
# Total GULP energy -991136.477855 kJ/mol
# GULP energy per Si atom -12389.205973 kJ/mol
# Density = 1.507512 g / cm^3
# Si number density = 15.109515 Si / 1000 Ang^3
#
#
#
# Elastic Constant Matrix: (Units=GPa)
#
#
# Indices 1 2 3 4 5 6 
#
# 1 100.8987 40.8264 20.2727 0.0000 0.0000 0.0000
# 2 40.8264 100.8996 20.2729 0.0000 0.0000 0.0000
# 3 20.2727 20.2729 88.8500 0.0000 0.0000 0.0000
# 4 0.0000 0.0000 0.0000 9.1187 0.0000 0.0000
# 5 0.0000 0.0000 0.0000 0.0000 9.1184 0.0000
# 6 0.0000 0.0000 0.0000 0.0000 0.0000 15.3176
#
#
#
# Elastic Compliance Matrix: (Units=1/GPa)
#
#
# Indices 1 2 3 4 5 6 
#
# 1 0.012098 -0.004549 -0.001722 0.000000 0.000000 0.000000
# 2 -0.004549 0.012098 -0.001722 0.000000 0.000000 0.000000
# 3 -0.001722 -0.001722 0.012041 0.000000 0.000000 0.000000
# 4 0.000000 0.000000 0.000000 0.109665 0.000000 0.000000
# 5 0.000000 0.000000 0.000000 0.000000 0.109668 0.000000
# 6 0.000000 0.000000 0.000000 0.000000 0.000000 0.065284
#
#
# Mechanical properties :
#
#
# Convention : Reuss Voigt Hill
#
# Bulk Modulus (GPa) = 49.38581 50.37690 49.88136
# Shear Modulus (GPa) = 14.55220 20.66269 17.60745
#
# Velocity S-wave (km/s) = 3.10678 3.70202 3.41738
# Velocity P-wave (km/s) = 6.75467 7.18936 6.97540
#
# Compressibility (1/GPa) = 0.02024873
#
# Stress axis : x y z
#
# Youngs Moduli (GPa) = 82.66099 82.66164 83.05024
#
# Poissons Ratio (x) = 0.37602 0.14304
# Poissons Ratio (y) = 0.37602 0.14304
# Poissons Ratio (z) = 0.14237 0.14237
#
# Static dielectric constant tensor:
#      x y z
#    x 2.715180 0.000000 0.000000 
#    y 0.000000 2.715180 0.000000 
#    z 0.000000 0.000000 3.633570 
# 
# 
# High freq. dielectric constant tensor:
#      x y z
#    x 1.546010 0.000000 0.000000 
#    y 0.000000 1.546010 0.000000 
#    z 0.000000 0.000000 1.601070 
# 
# From -- ./inp_files/3109.got.cif
#   From: 2010.03.12/outbox.cif.g09.slc.cpg/sg124_2_cif.got.tgz:3109.got - 2010.04.06 16:38:57.
