data_PCOD8313849
_publ_section_title
;
Structure prediction by ZEFSAII (Michael W. Deem and Ramdas Pophale) SiO2 
 PCOD8313849
Probable space group: P 4/M B M
;
_chemical_formula_sum "Si O2"
_cell_formula_units_Z 72
_cell_length_a 20.631063
_cell_length_b 20.631063
_cell_length_c 10.497349
_cell_angle_alpha 90.000000
_cell_angle_beta 90.000000
_cell_angle_gamma 90.000000
_cell_volume 4468.099612
_symmetry_space_group_name_H-M "P 4/M B M"
_symmetry_group_IT_number 127
_symmetry_cell_setting 'tetragonal'
loop_
_space_group_symop_operation_xyz
x,y,z
-y,x,z
-x,-y,z
y,-x,z
1/2+x,1/2-y,-z
1/2-x,1/2+y,-z
1/2+y,1/2+x,-z
1/2-y,1/2-x,-z
-x,-y,-z
y,-x,-z
x,y,-z
-y,x,-z
1/2-x,1/2+y,z
1/2+x,1/2-y,z
1/2-y,1/2-x,z
1/2+y,1/2+x,z
loop_
_atom_site_type_symbol
_atom_site_label
_atom_site_fract_x
_atom_site_fract_y
_atom_site_fract_z
Si Si1 0.104637 0.503079 0.500000
Si Si2 0.550869 0.158579 0.248648
Si Si3 0.645936 0.745235 0.355657
Si Si4 0.247464 0.856060 0.359521
Si Si5 0.421289 0.184482 0.858810
O O1 0.045160 0.454841 0.500000
O O2 0.147711 0.490675 0.376574
O O3 0.077039 0.577039 0.500000
O O4 0.598863 0.098863 0.217831
O O5 0.589951 0.226538 0.261024
O O6 0.497455 0.165845 0.138938
O O7 0.616597 0.742431 0.500000
O O8 0.700177 0.799823 0.350115
O O9 0.679059 0.676147 0.318477
O O10 0.592072 0.760612 0.248591
O O11 0.240025 0.887403 0.500000
O O12 0.300916 0.800916 0.368610
O O13 0.379952 0.120049 0.829637
O O14 0.404219 0.211458 0.000000
#
# Coordination Sequence:
#
# PCOD8313849 Si02
#       5
#     8  16  16  16  16
#     4   9  16  24  36  58  86 116 150 181 207 243
#     4  10  18  28  43  63  89 120 152 187 222 261
#     4   8  15  28  47  65  80 106 146 188 230 272
#     4   8  13  25  44  66  87 106 137 188 239 270
#     4  10  21  33  42  58  89 125 157 189 222 259
#
# _framework density 16.114232999999999
#
# number of rings (size 3 to 8) (size 9 to 14) (size 15 to 20)
#    0.000    3.000    1.111    2.000    1.556    1.778 
#    0.000    2.222    0.000    4.000    0.000    0.000 
#    0.000    0.889    0.000    6.889    0.000    2.444 
#
# Total GULP energy -892028.523384 kJ/mol
# GULP energy per Si atom -12389.285047 kJ/mol
# Density = 1.607756 g / cm^3
# Si number density = 16.114233 Si / 1000 Ang^3
#
#
#
# Elastic Constant Matrix: (Units=GPa)
#
#
# Indices 1 2 3 4 5 6 
#
# 1 53.2776 42.9505 36.6010 0.0000 0.0000 0.0000
# 2 42.9505 53.2775 36.6010 0.0000 0.0000 0.0000
# 3 36.6010 36.6010 80.8039 0.0000 0.0000 0.0000
# 4 0.0000 0.0000 0.0000 15.5445 0.0000 0.0000
# 5 0.0000 0.0000 0.0000 0.0000 15.5450 0.0000
# 6 0.0000 0.0000 0.0000 0.0000 0.0000 22.8437
#
#
#
# Elastic Compliance Matrix: (Units=1/GPa)
#
#
# Indices 1 2 3 4 5 6 
#
# 1 0.056344 -0.040489 -0.007182 0.000000 0.000000 0.000000
# 2 -0.040489 0.056344 -0.007182 0.000000 0.000000 0.000000
# 3 -0.007182 -0.007182 0.018882 0.000000 0.000000 0.000000
# 4 0.000000 0.000000 0.000000 0.064332 0.000000 0.000000
# 5 0.000000 0.000000 0.000000 0.000000 0.064329 0.000000
# 6 0.000000 0.000000 0.000000 0.000000 0.000000 0.043776
#
#
# Mechanical properties :
#
#
# Convention : Reuss Voigt Hill
#
# Bulk Modulus (GPa) = 45.73498 46.62933 46.18216
# Shear Modulus (GPa) = 11.87649 15.53373 13.70511
#
# Velocity S-wave (km/s) = 2.71775 3.10816 2.91949
# Velocity P-wave (km/s) = 6.18802 6.47151 6.33135
#
# Compressibility (1/GPa) = 0.02186510
#
# Stress axis : x y z
#
# Youngs Moduli (GPa) = 17.74813 17.74809 52.96093
#
# Poissons Ratio (x) = 0.71860 0.38036
# Poissons Ratio (y) = 0.71860 0.38036
# Poissons Ratio (z) = 0.12746 0.12746
#
# Static dielectric constant tensor:
#      x y z
#    x 3.012890 0.000000 0.000000 
#    y 0.000000 3.012890 0.000000 
#    z 0.000000 0.000000 3.024820 
# 
# 
# High freq. dielectric constant tensor:
#      x y z
#    x 1.587270 0.000000 0.000000 
#    y 0.000000 1.587270 0.000000 
#    z 0.000000 0.000000 1.608120 
# 
# From -- ./inp_files/3337.got.cif
#   From: 2010.03.12/outbox.cif.g09.slc.cpg/sg127_2_cif.got.tgz:3337.got - 2010.04.06 17:03:15.
