data_PCOD8313034
_publ_section_title
;
Structure prediction by ZEFSAII (Michael W. Deem and Ramdas Pophale) SiO2 
 PCOD8313034
Probable space group: P 4/M M M
;
_chemical_formula_sum "Si O2"
_cell_formula_units_Z 56
_cell_length_a 23.004941
_cell_length_b 23.004941
_cell_length_c 9.135591
_cell_angle_alpha 90.000000
_cell_angle_beta 90.000000
_cell_angle_gamma 90.000000
_cell_volume 4834.804254
_symmetry_space_group_name_H-M "P 4/M M M"
_symmetry_group_IT_number 123
_symmetry_cell_setting 'tetragonal'
loop_
_space_group_symop_operation_xyz
x,y,z
-y,x,z
-x,-y,z
y,-x,z
x,-y,-z
-x,y,-z
y,x,-z
-y,-x,-z
-x,-y,-z
y,-x,-z
x,y,-z
-y,x,-z
-x,y,z
x,-y,z
-y,-x,z
y,x,z
loop_
_atom_site_type_symbol
_atom_site_label
_atom_site_fract_x
_atom_site_fract_y
_atom_site_fract_z
Si Si1 0.160235 0.066377 0.670250
Si Si2 0.069332 0.386812 0.334426
Si Si3 0.069184 0.274408 0.165123
Si Si4 0.500000 0.069276 0.165605
O O1 0.175913 0.071430 0.500000
O O2 0.104055 0.104055 0.712206
O O3 0.215264 0.090853 0.759147
O O4 0.145830 0.000000 0.713347
O O5 0.093139 0.388068 0.500000
O O6 0.093883 0.329540 0.253965
O O7 0.092991 0.443177 0.248963
O O8 0.000000 0.386520 0.334291
O O9 0.000000 0.276315 0.166823
O O10 0.093248 0.276844 0.000000
O O11 0.500000 0.000000 0.164833
O O12 0.500000 0.093252 0.000000
#
# Coordination Sequence:
#
# PCOD8313034 Si02
#       4
#    16  16  16   8
#     4   9  17  28  40  52  64  77  94 118 150 189
#     4   9  15  22  32  45  61  80 100 119 138 161
#     4   9  16  25  36  48  61  77  96 117 142 173
#     4   9  15  21  29  43  63  83 101 119 137 157
#
# _framework density 11.582682
#
# number of rings (size 3 to 8) (size 9 to 14) (size 15 to 20)
#    0.000    3.000    0.000    2.143    0.000    9.429 
#    0.000    1.429    0.000    0.000    0.000    4.000 
#    0.000    0.000    0.000    0.000    0.000    0.000 
#
# Total GULP energy -694286.185013 kJ/mol
# GULP energy per Si atom -12397.967590 kJ/mol
# Density = 1.155632 g / cm^3
# Si number density = 11.582682 Si / 1000 Ang^3
#
#
#
# Elastic Constant Matrix: (Units=GPa)
#
#
# Indices 1 2 3 4 5 6 
#
# 1 58.3359 27.2052 38.6413 0.0000 0.0000 0.0000
# 2 27.2052 58.3359 38.6413 0.0000 0.0000 0.0000
# 3 38.6413 38.6413 100.0165 0.0000 0.0000 0.0000
# 4 0.0000 0.0000 0.0000 14.0227 0.0000 0.0000
# 5 0.0000 0.0000 0.0000 0.0000 14.0227 0.0000
# 6 0.0000 0.0000 0.0000 0.0000 0.0000 0.3204
#
#
#
# Elastic Compliance Matrix: (Units=1/GPa)
#
#
# Indices 1 2 3 4 5 6 
#
# 1 0.025041 -0.007082 -0.006938 0.000000 0.000000 0.000000
# 2 -0.007082 0.025041 -0.006938 0.000000 0.000000 0.000000
# 3 -0.006938 -0.006938 0.015360 0.000000 0.000000 0.000000
# 4 0.000000 0.000000 0.000000 0.071313 0.000000 0.000000
# 5 0.000000 0.000000 0.000000 0.000000 0.071313 0.000000
# 6 0.000000 0.000000 0.000000 0.000000 0.000000 3.120626
#
#
# Mechanical properties :
#
#
# Convention : Reuss Voigt Hill
#
# Bulk Modulus (GPa) = 42.51024 47.29597 44.90310
# Shear Modulus (GPa) = 1.47997 13.15318 7.31657
#
# Velocity S-wave (km/s) = 1.13160 3.37351 2.51606
# Velocity P-wave (km/s) = 6.20392 7.48973 6.87694
#
# Compressibility (1/GPa) = 0.02352374
#
# Stress axis : x y z
#
# Youngs Moduli (GPa) = 39.93493 39.93493 65.10580
#
# Poissons Ratio (x) = 0.28282 0.45173
# Poissons Ratio (y) = 0.28282 0.45173
# Poissons Ratio (z) = 0.27708 0.27708
#
# Static dielectric constant tensor:
#      x y z
#    x 2.220670 0.000000 0.000000 
#    y 0.000000 2.220670 0.000000 
#    z 0.000000 0.000000 2.633060 
# 
# 
# High freq. dielectric constant tensor:
#      x y z
#    x 1.397520 0.000000 0.000000 
#    y 0.000000 1.397520 0.000000 
#    z 0.000000 0.000000 1.457590 
# 
# From -- ./inp_files/734.got.cif
#   From: 2010.03.12/outbox.cif.g09.slc.cpg/sg123_1_cif.got.tgz:734.got - 2010.04.06 16:26:55.
