data_PCOD8313669
_publ_section_title
;
Structure prediction by ZEFSAII (Michael W. Deem and Ramdas Pophale) SiO2 
 PCOD8313669
Probable space group: P 4/N N C
;
_chemical_formula_sum "Si O2"
_cell_formula_units_Z 88
_cell_length_a 11.202635
_cell_length_b 11.202635
_cell_length_c 32.622219
_cell_angle_alpha 90.000000
_cell_angle_beta 90.000000
_cell_angle_gamma 90.000000
_cell_volume 4094.056872
_symmetry_space_group_name_H-M "P 4/N N C"
_symmetry_group_IT_number 126
_space_group.IT_coordinate_system_code '2'
_symmetry_cell_setting 'tetragonal'
loop_
_space_group_symop_operation_xyz
x,y,z
1/2-y,x,z
1/2-x,1/2-y,z
y,1/2-x,z
x,1/2-y,1/2-z
1/2-x,y,1/2-z
y,x,1/2-z
1/2-y,1/2-x,1/2-z
-x,-y,-z
1/2+y,-x,-z
1/2+x,1/2+y,-z
-y,1/2+x,-z
-x,1/2+y,1/2+z
1/2+x,-y,1/2+z
-y,-x,1/2+z
1/2+y,1/2+x,1/2+z
loop_
_atom_site_type_symbol
_atom_site_label
_atom_site_fract_x
_atom_site_fract_y
_atom_site_fract_z
Si Si1 0.550847 0.750000 0.750000
Si Si2 0.322354 0.432070 0.645036
Si Si3 0.922057 0.203747 0.089332
Si Si4 0.438456 0.705559 0.066108
Si Si5 0.701285 0.566587 0.514449
Si Si6 0.196232 0.880876 0.174695
O O1 0.632241 0.632241 0.750000
O O2 0.464877 0.766087 0.788462
O O3 0.183315 0.403154 0.656522
O O4 0.338975 0.455452 0.596186
O O5 0.367972 0.552050 0.668816
O O6 0.867686 0.319356 0.069114
O O7 0.838685 0.088647 0.082733
O O8 0.944317 0.234948 0.136760
O O9 0.039218 0.178162 0.062505
O O10 0.462225 0.683679 0.018294
O O11 0.833521 0.606926 0.504237
O O12 0.250000 0.750000 0.181258
#
# Coordination Sequence:
#
# PCOD8313669 Si02
#       6
#     8  16  16  16  16  16
#     4  11  29  50  76 110 139 177 224 268 330 409
#     4  10  21  37  67 105 137 175 224 277 338 406
#     4  10  21  38  60  90 118 163 224 272 327 402
#     4  10  19  37  58  85 125 165 222 277 327 389
#     4  11  24  36  49  80 124 172 222 278 339 395
#     4  11  23  47  73 101 135 178 220 278 344 410
#
# _framework density 21.494571000000001
#
# number of rings (size 3 to 8) (size 9 to 14) (size 15 to 20)
#    0.000    1.545    3.636    2.455    2.545   10.182 
#    0.000    1.818    0.000    0.000    0.000    0.000 
#    0.000    0.000    0.000    0.000    0.000    0.000 
#
# Total GULP energy -1090155.164276 kJ/mol
# GULP energy per Si atom -12388.126867 kJ/mol
# Density = 2.144565 g / cm^3
# Si number density = 21.494571 Si / 1000 Ang^3
#
#
#
# Elastic Constant Matrix: (Units=GPa)
#
#
# Indices 1 2 3 4 5 6 
#
# 1 61.2261 -5.6266 30.0693 0.0000 0.0000 0.0000
# 2 -5.6266 61.2261 30.0693 0.0000 0.0000 0.0000
# 3 30.0693 30.0693 130.6641 0.0000 0.0000 0.0000
# 4 0.0000 0.0000 0.0000 -34.5829 0.0000 0.0000
# 5 0.0000 0.0000 0.0000 0.0000 -34.5829 0.0000
# 6 0.0000 0.0000 0.0000 0.0000 0.0000 12.7356
#
#
#
# Elastic Compliance Matrix: (Units=1/GPa)
#
#
# Indices 1 2 3 4 5 6 
#
# 1 0.019452 0.004494 -0.005511 0.000000 0.000000 0.000000
# 2 0.004494 0.019452 -0.005511 0.000000 0.000000 0.000000
# 3 -0.005511 -0.005511 0.010190 0.000000 0.000000 0.000000
# 4 0.000000 0.000000 0.000000 -0.028916 0.000000 0.000000
# 5 0.000000 0.000000 0.000000 0.000000 -0.028916 0.000000
# 6 0.000000 0.000000 0.000000 0.000000 0.000000 0.078520
#
#
# Mechanical properties :
#
#
# Convention : Reuss Voigt Hill
#
# Bulk Modulus (GPa) = 27.74734 40.23781 33.99257
# Shear Modulus (GPa) = 52.71469 1.95425 27.33447
#
# Velocity S-wave (km/s) = 4.95761 0.95454 3.56995
# Velocity P-wave (km/s) = 6.76074 4.46940 5.73075
#
# Compressibility (1/GPa) = 0.03603949
#
# Stress axis : x y z
#
# Youngs Moduli (GPa) = 51.40775 51.40775 98.13996
#
# Poissons Ratio (x) = -0.23103 0.54082
# Poissons Ratio (y) = -0.23103 0.54082
# Poissons Ratio (z) = 0.28329 0.28329
#
# Static dielectric constant tensor:
#      x y z
#    x 4.047890 0.000000 0.000000 
#    y 0.000000 4.047890 0.000000 
#    z 0.000000 0.000000 3.701370 
# 
# 
# High freq. dielectric constant tensor:
#      x y z
#    x 1.849920 0.000000 0.000000 
#    y 0.000000 1.849920 0.000000 
#    z 0.000000 0.000000 1.828510 
# 
# From -- ./inp_files/6515.got.cif
#   From: 2010.03.12/outbox.cif.g09.slc.cpg/sg126_4_cif.got.tgz:6515.got - 2010.04.06 16:55:23.
