data_PCOD8313074
_publ_section_title
;
Structure prediction by ZEFSAII (Michael W. Deem and Ramdas Pophale) SiO2 
 PCOD8313074
Probable space group: P 4/M C C
;
_chemical_formula_sum "Si O2"
_cell_formula_units_Z 64
_cell_length_a 21.693929
_cell_length_b 21.693929
_cell_length_c 8.644984
_cell_angle_alpha 90.000000
_cell_angle_beta 90.000000
_cell_angle_gamma 90.000000
_cell_volume 4068.559042
_symmetry_space_group_name_H-M "P 4/M C C"
_symmetry_group_IT_number 124
_symmetry_cell_setting 'tetragonal'
loop_
_space_group_symop_operation_xyz
x,y,z
-y,x,z
-x,-y,z
y,-x,z
x,-y,1/2-z
-x,y,1/2-z
y,x,1/2-z
-y,-x,1/2-z
-x,-y,-z
y,-x,-z
x,y,-z
-y,x,-z
-x,y,1/2+z
x,-y,1/2+z
-y,-x,1/2+z
y,x,1/2+z
loop_
_atom_site_type_symbol
_atom_site_label
_atom_site_fract_x
_atom_site_fract_y
_atom_site_fract_z
Si Si1 0.067032 0.837592 0.179591
Si Si2 0.655429 0.752418 0.317073
Si Si3 0.163256 0.258160 0.679786
Si Si4 0.336153 0.567046 0.816205
O O1 0.109326 0.890675 0.250000
O O2 0.094429 0.768262 0.208362
O O3 0.000000 0.840029 0.250000
O O4 0.062749 0.851807 0.000000
O O5 0.707396 0.707396 0.250000
O O6 0.650244 0.747296 0.500000
O O7 0.676317 0.821805 0.265363
O O8 0.590657 0.731216 0.241749
O O9 0.206456 0.206456 0.750000
O O10 0.177885 0.266867 0.500000
O O11 0.348740 0.500000 0.750000
O O12 0.388806 0.611195 0.750000
O O13 0.338719 0.566502 0.000000
#
# Coordination Sequence:
#
# PCOD8313074 Si02
#       4
#    16  16  16  16
#     4  10  20  32  46  63  87 117 152 187 223 262
#     4  10  17  27  44  65  86 111 141 178 221 264
#     4   9  16  27  43  63  84 109 139 178 222 265
#     4  11  21  34  48  65  89 119 153 187 221 259
#
# _framework density 15.730385
#
# number of rings (size 3 to 8) (size 9 to 14) (size 15 to 20)
#    0.000    2.000    0.000    9.000    0.000    3.500 
#    0.000    2.500    0.000    0.000    0.000    0.000 
#    0.000    1.000    0.000   10.500    0.000    5.750 
#
# Total GULP energy -792966.278273 kJ/mol
# GULP energy per Si atom -12390.098098 kJ/mol
# Density = 1.569458 g / cm^3
# Si number density = 15.730385 Si / 1000 Ang^3
#
#
#
# Elastic Constant Matrix: (Units=GPa)
#
#
# Indices 1 2 3 4 5 6 
#
# 1 67.2553 69.0478 51.4246 0.0000 0.0000 0.0000
# 2 69.0478 67.2573 51.4250 0.0000 0.0000 0.0000
# 3 51.4246 51.4250 152.6433 0.0000 0.0000 0.0000
# 4 0.0000 0.0000 0.0000 23.2312 0.0000 0.0000
# 5 0.0000 0.0000 0.0000 0.0000 23.2301 0.0000
# 6 0.0000 0.0000 0.0000 0.0000 0.0000 19.2249
#
#
#
# Elastic Compliance Matrix: (Units=1/GPa)
#
#
# Indices 1 2 3 4 5 6 
#
# 1 -0.274184 0.284017 -0.003313 0.000000 0.000000 0.000000
# 2 0.284017 -0.274175 -0.003315 0.000000 0.000000 0.000000
# 3 -0.003313 -0.003315 0.008784 0.000000 0.000000 0.000000
# 4 0.000000 0.000000 0.000000 0.043046 0.000000 0.000000
# 5 0.000000 0.000000 0.000000 0.000000 0.043048 0.000000
# 6 0.000000 0.000000 0.000000 0.000000 0.000000 0.052016
#
#
# Mechanical properties :
#
#
# Convention : Reuss Voigt Hill
#
# Bulk Modulus (GPa) = 65.77975 70.10563 67.94269
# Shear Modulus (GPa) = -5.25665 20.82115 7.78225
#
# Velocity S-wave (km/s) = -1.83002 3.64211 2.22666
# Velocity P-wave (km/s) = 6.11903 7.89623 7.06374
#
# Compressibility (1/GPa) = 0.01520225
#
# Stress axis : x y z
#
# Youngs Moduli (GPa) = -3.64718 -3.64731 113.84021
#
# Poissons Ratio (x) = 1.03590 0.37717
# Poissons Ratio (y) = 1.03586 0.37739
# Poissons Ratio (z) = -0.01208 -0.01209
#
# Static dielectric constant tensor:
#      x y z
#    x 3.310480 0.000000 0.000000 
#    y 0.000000 3.310470 0.000000 
#    z 0.000000 0.000000 3.212240 
# 
# 
# High freq. dielectric constant tensor:
#      x y z
#    x 1.578360 0.000000 0.000000 
#    y 0.000000 1.578360 0.000000 
#    z 0.000000 0.000000 1.631810 
# 
# From -- ./inp_files/858.got.cif
#   From: 2010.03.12/outbox.cif.g09.slc.cpg/sg124_1_cif.got.tgz:858.got - 2010.04.06 16:38:57.
