data_PCOD8313453
_publ_section_title
;
Structure prediction by ZEFSAII (Michael W. Deem and Ramdas Pophale) SiO2 
 PCOD8313453
Probable space group: P 4/N B M
;
_chemical_formula_sum "Si O2"
_cell_formula_units_Z 72
_cell_length_a 19.618821
_cell_length_b 19.618821
_cell_length_c 10.213475
_cell_angle_alpha 90.000000
_cell_angle_beta 90.000000
_cell_angle_gamma 90.000000
_cell_volume 3931.147504
_symmetry_space_group_name_H-M "P 4/N B M"
_symmetry_group_IT_number 125
_space_group.IT_coordinate_system_code '2'
_symmetry_cell_setting 'tetragonal'
loop_
_space_group_symop_operation_xyz
x,y,z
1/2-y,x,z
1/2-x,1/2-y,z
y,1/2-x,z
x,1/2-y,-z
1/2-x,y,-z
y,x,-z
1/2-y,1/2-x,-z
-x,-y,-z
1/2+y,-x,-z
1/2+x,1/2+y,-z
-y,1/2+x,-z
-x,1/2+y,z
1/2+x,-y,z
-y,-x,z
1/2+y,1/2+x,z
loop_
_atom_site_type_symbol
_atom_site_label
_atom_site_fract_x
_atom_site_fract_y
_atom_site_fract_z
Si Si1 0.943449 0.166964 0.361605
Si Si2 0.548936 0.846694 0.141327
Si Si3 0.636963 0.750000 0.000000
Si Si4 0.893610 0.993632 0.876266
Si Si5 0.071080 0.820009 0.344867
O O1 0.888517 0.111484 0.317502
O O2 0.962230 0.160572 0.514997
O O3 0.911897 0.240714 0.332329
O O4 0.011776 0.156593 0.279694
O O5 0.588049 0.773489 0.120819
O O6 0.597819 0.912890 0.147572
O O7 0.497081 0.858758 0.019004
O O8 0.683241 0.683241 0.000000
O O9 0.841945 0.018934 0.766737
O O10 0.965405 0.034596 0.870114
O O11 0.143130 0.856871 0.326999
#
# Coordination Sequence:
#
# PCOD8313453 Si02
#       5
#    16  16   8  16  16
#     4  10  20  34  55  82 110 144 187 231 275 327
#     4  11  20  34  56  81 106 138 183 233 280 321
#     4  11  22  36  54  82 110 143 182 224 277 342
#     4  10  19  34  54  80 110 141 179 227 281 330
#     4   9  20  36  53  77 113 150 183 223 275 337
#
# _framework density 18.315263999999999
#
# number of rings (size 3 to 8) (size 9 to 14) (size 15 to 20)
#    0.000    1.889    2.222    4.000    0.000    1.333 
#    0.000    5.556    0.000    0.000    0.000    3.111 
#    0.000    0.000    0.000    0.000    0.000    0.000 
#
# Total GULP energy -891970.826002 kJ/mol
# GULP energy per Si atom -12388.483694 kJ/mol
# Density = 1.827358 g / cm^3
# Si number density = 18.315264 Si / 1000 Ang^3
#
#
#
# Elastic Constant Matrix: (Units=GPa)
#
#
# Indices 1 2 3 4 5 6 
#
# 1 58.4754 13.9840 13.9868 0.0000 0.0000 0.0000
# 2 13.9840 58.4754 13.9868 0.0000 0.0000 0.0000
# 3 13.9868 13.9868 68.0295 0.0000 0.0000 0.0000
# 4 0.0000 0.0000 0.0000 28.2046 0.0000 0.0000
# 5 0.0000 0.0000 0.0000 0.0000 28.2046 0.0000
# 6 0.0000 0.0000 0.0000 0.0000 0.0000 27.9946
#
#
#
# Elastic Compliance Matrix: (Units=1/GPa)
#
#
# Indices 1 2 3 4 5 6 
#
# 1 0.018733 -0.003743 -0.003082 0.000000 0.000000 0.000000
# 2 -0.003743 0.018733 -0.003082 0.000000 0.000000 0.000000
# 3 -0.003082 -0.003082 0.015967 0.000000 0.000000 0.000000
# 4 0.000000 0.000000 0.000000 0.035455 0.000000 0.000000
# 5 0.000000 0.000000 0.000000 0.000000 0.035455 0.000000
# 6 0.000000 0.000000 0.000000 0.000000 0.000000 0.035721
#
#
# Mechanical properties :
#
#
# Convention : Reuss Voigt Hill
#
# Bulk Modulus (GPa) = 29.74425 29.87729 29.81077
# Shear Modulus (GPa) = 26.16624 26.41560 26.29092
#
# Velocity S-wave (km/s) = 3.78386 3.80185 3.79286
# Velocity P-wave (km/s) = 5.94689 5.96827 5.95759
#
# Compressibility (1/GPa) = 0.03361994
#
# Stress axis : x y z
#
# Youngs Moduli (GPa) = 53.38036 53.38036 62.62975
#
# Poissons Ratio (x) = 0.19979 0.19303
# Poissons Ratio (y) = 0.19979 0.19303
# Poissons Ratio (z) = 0.16452 0.16452
#
# Static dielectric constant tensor:
#      x y z
#    x 3.446130 0.000000 0.000000 
#    y 0.000000 3.446130 0.000000 
#    z 0.000000 0.000000 3.542620 
# 
# 
# High freq. dielectric constant tensor:
#      x y z
#    x 1.711120 0.000000 0.000000 
#    y 0.000000 1.711120 0.000000 
#    z 0.000000 0.000000 1.704470 
# 
# From -- ./inp_files/2557.got.cif
#   From: 2010.03.12/outbox.cif.g09.slc.cpg/sg125_2_cif.got.tgz:2557.got - 2010.04.06 16:47:52.
