data_PCOD8313303
_publ_section_title
;
Structure prediction by ZEFSAII (Michael W. Deem and Ramdas Pophale) SiO2 
 PCOD8313303
Probable space group: P 4/M C C
;
_chemical_formula_sum "Si O2"
_cell_formula_units_Z 112
_cell_length_a 14.320511
_cell_length_b 14.320511
_cell_length_c 26.148477
_cell_angle_alpha 90.000000
_cell_angle_beta 90.000000
_cell_angle_gamma 90.000000
_cell_volume 5362.452141
_symmetry_space_group_name_H-M "P 4/M C C"
_symmetry_group_IT_number 124
_symmetry_cell_setting 'tetragonal'
loop_
_space_group_symop_operation_xyz
x,y,z
-y,x,z
-x,-y,z
y,-x,z
x,-y,1/2-z
-x,y,1/2-z
y,x,1/2-z
-y,-x,1/2-z
-x,-y,-z
y,-x,-z
x,y,-z
-y,x,-z
-x,y,1/2+z
x,-y,1/2+z
-y,-x,1/2+z
y,x,1/2+z
loop_
_atom_site_type_symbol
_atom_site_label
_atom_site_fract_x
_atom_site_fract_y
_atom_site_fract_z
Si Si1 0.498436 0.894236 0.442732
Si Si2 0.600623 0.892243 0.738919
Si Si3 0.252732 0.092607 0.338283
Si Si4 0.245976 0.119110 0.182172
Si Si5 0.381898 0.598166 0.191861
Si Si6 0.346819 0.766788 0.392782
Si Si7 0.828952 0.707659 0.944049
O O1 0.456228 0.903513 0.500000
O O2 0.440736 0.815442 0.412229
O O3 0.599797 0.851881 0.444045
O O4 0.500000 0.000000 0.418137
O O5 0.500000 0.841889 0.750000
O O6 0.641591 0.879635 0.681177
O O7 0.676955 0.849790 0.776660
O O8 0.586218 0.000000 0.750000
O O9 0.176126 0.151751 0.307179
O O10 0.244782 0.109349 0.399115
O O11 0.226131 0.990157 0.319819
O O12 0.285555 0.147015 0.127081
O O13 0.371151 0.488138 0.182003
O O14 0.364640 0.635361 0.250000
O O15 0.310139 0.643886 0.152128
O O16 0.282953 0.719465 0.436558
O O17 0.855500 0.750085 0.000000
#
# Coordination Sequence:
#
# PCOD8313303 Si02
#       7
#    16  16  16  16  16  16  16
#     4  10  21  37  58  84 115 155 205 260 322 385
#     4   9  19  36  58  87 118 151 185 234 296 364
#     4  10  21  39  60  84 123 157 203 256 301 370
#     4  10  22  37  58  89 117 159 201 248 308 364
#     4   9  19  37  58  84 121 162 203 249 306 380
#     4  11  21  35  58  86 117 157 204 256 313 372
#     4  10  22  38  57  84 121 161 207 262 313 372
#
# _framework density 20.885968999999999
#
# number of rings (size 3 to 8) (size 9 to 14) (size 15 to 20)
#    0.000    2.143    0.000    3.000    2.000    2.571 
#    2.571    2.857    0.000    2.571    0.000   10.000 
#    0.000    1.143    0.000    0.000    0.000    0.000 
#
# Total GULP energy -1387522.989237 kJ/mol
# GULP energy per Si atom -12388.598118 kJ/mol
# Density = 2.083843 g / cm^3
# Si number density = 20.885969 Si / 1000 Ang^3
#
#
#
# Elastic Constant Matrix: (Units=GPa)
#
#
# Indices 1 2 3 4 5 6 
#
# 1 99.7906 50.6858 41.7962 0.0000 0.0000 0.0000
# 2 50.6858 99.7905 41.7962 0.0000 0.0000 0.0000
# 3 41.7962 41.7962 114.1743 0.0000 0.0000 0.0000
# 4 0.0000 0.0000 0.0000 27.5789 0.0000 0.0000
# 5 0.0000 0.0000 0.0000 0.0000 27.5790 0.0000
# 6 0.0000 0.0000 0.0000 0.0000 0.0000 29.2511
#
#
#
# Elastic Compliance Matrix: (Units=1/GPa)
#
#
# Indices 1 2 3 4 5 6 
#
# 1 0.014353 -0.006011 -0.003054 0.000000 0.000000 0.000000
# 2 -0.006011 0.014353 -0.003054 0.000000 0.000000 0.000000
# 3 -0.003054 -0.003054 0.010994 0.000000 0.000000 0.000000
# 4 0.000000 0.000000 0.000000 0.036260 0.000000 0.000000
# 5 0.000000 0.000000 0.000000 0.000000 0.036260 0.000000
# 6 0.000000 0.000000 0.000000 0.000000 0.000000 0.034187
#
#
# Mechanical properties :
#
#
# Convention : Reuss Voigt Hill
#
# Bulk Modulus (GPa) = 64.66962 64.70131 64.68546
# Shear Modulus (GPa) = 28.44157 28.84694 28.64426
#
# Velocity S-wave (km/s) = 3.69420 3.72043 3.70734
# Velocity P-wave (km/s) = 7.01616 7.03570 7.02594
#
# Compressibility (1/GPa) = 0.01546321
#
# Stress axis : x y z
#
# Youngs Moduli (GPa) = 69.67037 69.67029 90.95573
#
# Poissons Ratio (x) = 0.41881 0.27776
# Poissons Ratio (y) = 0.41881 0.27776
# Poissons Ratio (z) = 0.21276 0.21276
#
# Static dielectric constant tensor:
#      x y z
#    x 3.830460 0.000000 0.000000 
#    y 0.000000 3.830460 0.000000 
#    z 0.000000 0.000000 4.020730 
# 
# 
# High freq. dielectric constant tensor:
#      x y z
#    x 1.815880 0.000000 0.000000 
#    y 0.000000 1.815880 0.000000 
#    z 0.000000 0.000000 1.815490 
# 
# From -- ./inp_files/6108.got.cif
#   From: 2010.03.12/outbox.cif.g09.slc.cpg/sg124_4_cif.got.tgz:6108.got - 2010.04.06 16:38:57.
