data_PCOD8313331
_publ_section_title
;
Structure prediction by ZEFSAII (Michael W. Deem and Ramdas Pophale) SiO2 
 PCOD8313331
Probable space group: P 4/M C C
;
_chemical_formula_sum "Si O2"
_cell_formula_units_Z 48
_cell_length_a 8.109045
_cell_length_b 8.109045
_cell_length_c 32.643158
_cell_angle_alpha 90.000000
_cell_angle_beta 90.000000
_cell_angle_gamma 90.000000
_cell_volume 2146.503436
_symmetry_space_group_name_H-M "P 4/M C C"
_symmetry_group_IT_number 124
_symmetry_cell_setting 'tetragonal'
loop_
_space_group_symop_operation_xyz
x,y,z
-y,x,z
-x,-y,z
y,-x,z
x,-y,1/2-z
-x,y,1/2-z
y,x,1/2-z
-y,-x,1/2-z
-x,-y,-z
y,-x,-z
x,y,-z
-y,x,-z
-x,y,1/2+z
x,-y,1/2+z
-y,-x,1/2+z
y,x,1/2+z
loop_
_atom_site_type_symbol
_atom_site_label
_atom_site_fract_x
_atom_site_fract_y
_atom_site_fract_z
Si Si1 0.734179 0.935804 0.639839
Si Si2 0.467233 0.233446 0.296304
Si Si3 0.500000 0.000000 0.930605
Si Si4 0.762384 0.433747 0.000000
O O1 0.596824 0.918669 0.676008
O O2 0.879469 0.803063 0.643081
O O3 0.638565 0.910807 0.597053
O O4 0.637949 0.321071 0.306589
O O5 0.500000 0.173159 0.250000
O O6 0.593697 0.868129 0.959045
O O7 0.699222 0.620151 0.000000
#
# Coordination Sequence:
#
# PCOD8313331 Si02
#       4
#    16  16   8   8
#     4  11  23  39  62  92 125 162 204 253 310 366
#     4   9  19  39  63  88 120 163 209 251 302 362
#     4  11  22  40  63  88 124 160 193 244 306 369
#     4  10  22  40  64  92 118 152 200 247 294 356
#
# _framework density 22.36195
#
# number of rings (size 3 to 8) (size 9 to 14) (size 15 to 20)
#    0.000    1.833    0.000    5.000    0.000    0.000 
#    0.000   27.500    0.000   24.000    0.000    0.000 
#    0.000    0.000    0.000    0.000    0.000    0.000 
#
# Total GULP energy -594690.642327 kJ/mol
# GULP energy per Si atom -12389.388382 kJ/mol
# Density = 2.231105 g / cm^3
# Si number density = 22.361950 Si / 1000 Ang^3
#
#
#
# Elastic Constant Matrix: (Units=GPa)
#
#
# Indices 1 2 3 4 5 6 
#
# 1 82.6979 51.1258 61.3471 0.0000 0.0000 0.0000
# 2 51.1258 82.6979 61.3471 0.0000 0.0000 0.0000
# 3 61.3471 61.3471 175.5335 0.0000 0.0000 0.0000
# 4 0.0000 0.0000 0.0000 6.2212 0.0000 0.0000
# 5 0.0000 0.0000 0.0000 0.0000 6.2212 0.0000
# 6 0.0000 0.0000 0.0000 0.0000 0.0000 53.9480
#
#
#
# Elastic Compliance Matrix: (Units=1/GPa)
#
#
# Indices 1 2 3 4 5 6 
#
# 1 0.021335 -0.010339 -0.003843 0.000000 0.000000 0.000000
# 2 -0.010339 0.021335 -0.003843 0.000000 0.000000 0.000000
# 3 -0.003843 -0.003843 0.008383 0.000000 0.000000 0.000000
# 4 0.000000 0.000000 0.000000 0.160740 0.000000 0.000000
# 5 0.000000 0.000000 0.000000 0.000000 0.160740 0.000000
# 6 0.000000 0.000000 0.000000 0.000000 0.000000 0.018536
#
#
# Mechanical properties :
#
#
# Convention : Reuss Voigt Hill
#
# Bulk Modulus (GPa) = 66.65330 76.50774 71.58052
# Shear Modulus (GPa) = 11.57089 24.41870 17.99480
#
# Velocity S-wave (km/s) = 2.27719 3.30809 2.83981
# Velocity P-wave (km/s) = 6.06510 6.99135 6.54463
#
# Compressibility (1/GPa) = 0.01500301
#
# Stress axis : x y z
#
# Youngs Moduli (GPa) = 46.87202 46.87202 119.28834
#
# Poissons Ratio (x) = 0.48460 0.45842
# Poissons Ratio (y) = 0.48460 0.45842
# Poissons Ratio (z) = 0.18013 0.18013
#
# Static dielectric constant tensor:
#      x y z
#    x 3.993370 0.000000 0.000000 
#    y 0.000000 3.993370 0.000000 
#    z 0.000000 0.000000 3.961530 
# 
# 
# High freq. dielectric constant tensor:
#      x y z
#    x 1.893450 0.000000 0.000000 
#    y 0.000000 1.893450 0.000000 
#    z 0.000000 0.000000 1.878740 
# 
# From -- ./inp_files/6773.got.cif
#   From: 2010.03.12/outbox.cif.g09.slc.cpg/sg124_4_cif.got.tgz:6773.got - 2010.04.06 16:38:57.
