data_PCOD8313008
_publ_section_title
;
Structure prediction by ZEFSAII (Michael W. Deem and Ramdas Pophale) SiO2 
 PCOD8313008
Probable space group: P 4/M M M
;
_chemical_formula_sum "Si O2"
_cell_formula_units_Z 112
_cell_length_a 14.843444
_cell_length_b 14.843444
_cell_length_c 34.737129
_cell_angle_alpha 90.000000
_cell_angle_beta 90.000000
_cell_angle_gamma 90.000000
_cell_volume 7653.556245
_symmetry_space_group_name_H-M "P 4/M M M"
_symmetry_group_IT_number 123
_symmetry_cell_setting 'tetragonal'
loop_
_space_group_symop_operation_xyz
x,y,z
-y,x,z
-x,-y,z
y,-x,z
x,-y,-z
-x,y,-z
y,x,-z
-y,-x,-z
-x,-y,-z
y,-x,-z
x,y,-z
-y,x,-z
-x,y,z
x,-y,z
-y,-x,z
y,x,z
loop_
_atom_site_type_symbol
_atom_site_label
_atom_site_fract_x
_atom_site_fract_y
_atom_site_fract_z
Si Si1 0.599926 0.893053 0.812501
Si Si2 0.251265 0.603036 0.455823
Si Si3 0.751227 0.103896 0.244637
Si Si4 0.750836 0.896384 0.955977
Si Si5 0.896958 0.603038 0.605524
Si Si6 0.102815 0.249256 0.667153
Si Si7 0.400058 0.893054 0.101348
O O1 0.500000 0.855627 0.802574
O O2 0.671570 0.855407 0.781791
O O3 0.627873 0.862412 0.855576
O O4 0.597822 0.000000 0.810070
O O5 0.223734 0.619299 0.500000
O O6 0.280691 0.500000 0.448745
O O7 0.335590 0.664411 0.443632
O O8 0.164571 0.629398 0.430693
O O9 0.842731 0.157270 0.235782
O O10 0.721126 0.116729 0.288741
O O11 0.771152 0.000000 0.234830
O O12 0.842147 0.842147 0.947939
O O13 0.671686 0.855460 0.929336
O O14 0.771814 0.000000 0.945771
O O15 0.718870 0.885998 0.000000
O O16 0.881094 0.500000 0.618338
O O17 0.870485 0.664751 0.641669
O O18 0.000000 0.618918 0.592756
O O19 0.164916 0.164916 0.655810
O O20 0.000000 0.219075 0.659735
O O21 0.500000 0.855654 0.091419
O O22 0.402166 0.000000 0.098872
#
# Coordination Sequence:
#
# PCOD8313008 Si02
#       7
#    16  16  16  16  16  16  16
#     4   8  14  25  40  56  74  97 125 158 195 231
#     4   9  17  28  42  60  81 105 131 158 190 230
#     4   9  17  27  39  57  80 106 134 161 190 225
#     4   9  17  27  38  54  77 105 135 163 190 224
#     4   9  17  28  42  60  80 102 129 162 200 237
#     4   9  17  28  41  57  78 104 133 164 195 227
#     4   8  14  25  40  56  73  95 125 161 199 232
#
# _framework density 14.63372
#
# number of rings (size 3 to 8) (size 9 to 14) (size 15 to 20)
#    0.000    3.286    0.000    1.286    0.000    2.286 
#    0.000    8.571    0.000    0.000    0.000    4.000 
#    0.000    0.571    0.000   21.143    0.000    6.857 
#
# Total GULP energy -1388364.359459 kJ/mol
# GULP energy per Si atom -12396.110352 kJ/mol
# Density = 1.460041 g / cm^3
# Si number density = 14.633720 Si / 1000 Ang^3
#
#
#
# Elastic Constant Matrix: (Units=GPa)
#
#
# Indices 1 2 3 4 5 6 
#
# 1 77.1166 48.6314 58.4635 0.0000 0.0000 0.0000
# 2 48.6314 77.1166 58.4635 0.0000 0.0000 0.0000
# 3 58.4635 58.4635 90.2802 0.0000 0.0000 0.0000
# 4 0.0000 0.0000 0.0000 23.5601 0.0000 0.0000
# 5 0.0000 0.0000 0.0000 0.0000 23.5601 0.0000
# 6 0.0000 0.0000 0.0000 0.0000 0.0000 13.3979
#
#
#
# Elastic Compliance Matrix: (Units=1/GPa)
#
#
# Indices 1 2 3 4 5 6 
#
# 1 0.027547 -0.007559 -0.012944 0.000000 0.000000 0.000000
# 2 -0.007559 0.027547 -0.012944 0.000000 0.000000 0.000000
# 3 -0.012944 -0.012944 0.027841 0.000000 0.000000 0.000000
# 4 0.000000 0.000000 0.000000 0.042445 0.000000 0.000000
# 5 0.000000 0.000000 0.000000 0.000000 0.042445 0.000000
# 6 0.000000 0.000000 0.000000 0.000000 0.000000 0.074638
#
#
# Mechanical properties :
#
#
# Convention : Reuss Voigt Hill
#
# Bulk Modulus (GPa) = 62.33707 63.95895 63.14801
# Shear Modulus (GPa) = 15.88790 17.36730 16.62760
#
# Velocity S-wave (km/s) = 3.29858 3.44873 3.37449
# Velocity P-wave (km/s) = 7.56295 7.72397 7.64389
#
# Compressibility (1/GPa) = 0.01604182
#
# Stress axis : x y z
#
# Youngs Moduli (GPa) = 36.30126 36.30126 35.91780
#
# Poissons Ratio (x) = 0.27439 0.46493
# Poissons Ratio (y) = 0.27439 0.46493
# Poissons Ratio (z) = 0.46989 0.46989
#
# Static dielectric constant tensor:
#      x y z
#    x 2.806770 0.000000 0.000000 
#    y 0.000000 2.806770 0.000000 
#    z 0.000000 0.000000 2.977180 
# 
# 
# High freq. dielectric constant tensor:
#      x y z
#    x 1.541640 0.000000 0.000000 
#    y 0.000000 1.541640 0.000000 
#    z 0.000000 0.000000 1.563950 
# 
# From -- ./inp_files/8712.got.cif
#   From: 2010.03.12/outbox.cif.g09.slc.cpg/sg123_5_cif.got.tgz:8712.got - 2010.04.06 16:26:55.
