data_PCOD8313540
_publ_section_title
;
Structure prediction by ZEFSAII (Michael W. Deem and Ramdas Pophale) SiO2 
 PCOD8313540
Probable space group: P 4/N B M
;
_chemical_formula_sum "Si O2"
_cell_formula_units_Z 88
_cell_length_a 11.909408
_cell_length_b 11.909408
_cell_length_c 29.182074
_cell_angle_alpha 90.000000
_cell_angle_beta 90.000000
_cell_angle_gamma 90.000000
_cell_volume 4139.010252
_symmetry_space_group_name_H-M "P 4/N B M"
_symmetry_group_IT_number 125
_space_group.IT_coordinate_system_code '2'
_symmetry_cell_setting 'tetragonal'
loop_
_space_group_symop_operation_xyz
x,y,z
1/2-y,x,z
1/2-x,1/2-y,z
y,1/2-x,z
x,1/2-y,-z
1/2-x,y,-z
y,x,-z
1/2-y,1/2-x,-z
-x,-y,-z
1/2+y,-x,-z
1/2+x,1/2+y,-z
-y,1/2+x,-z
-x,1/2+y,z
1/2+x,-y,z
-y,-x,z
1/2+y,1/2+x,z
loop_
_atom_site_type_symbol
_atom_site_label
_atom_site_fract_x
_atom_site_fract_y
_atom_site_fract_z
Si Si1 0.861719 0.964998 0.539569
Si Si2 0.566565 0.250000 0.000000
Si Si3 0.341794 0.658207 0.856493
Si Si4 0.429019 0.222990 0.701438
Si Si5 0.002946 0.329555 0.602586
Si Si6 0.718532 0.934139 0.908691
Si Si7 0.659474 0.159474 0.748246
O O1 0.867856 0.867856 0.500000
O O2 0.910078 0.926465 0.588852
O O3 0.738811 0.004873 0.554437
O O4 0.928075 0.071926 0.519713
O O5 0.485632 0.288620 0.040726
O O6 0.645004 0.354997 0.985217
O O7 0.250000 0.750000 0.873294
O O8 0.464564 0.696244 0.873550
O O9 0.347872 0.652129 0.802366
O O10 0.376539 0.342960 0.714552
O O11 0.452781 0.232694 0.647339
O O12 0.540056 0.198802 0.729640
O O13 0.880819 0.380819 0.614025
O O14 0.621586 0.840888 0.901331
O O15 0.750000 0.250000 0.731791
#
# Coordination Sequence:
#
# PCOD8313540 Si02
#       7
#    16   8   8  16  16  16   8
#     4  10  22  38  57  87 126 170 211 255 316 397
#     4  11  22  37  66 106 146 193 245 298 354 410
#     4  11  26  48  71 100 140 187 234 296 370 436
#     4  11  24  44  71 104 139 177 232 292 358 428
#     4  11  21  37  63  92 126 165 212 268 329 397
#     4  11  25  43  69 104 143 190 245 296 354 423
#     4  11  28  48  74 104 137 181 235 295 368 432
#
# _framework density 21.261120999999999
#
# number of rings (size 3 to 8) (size 9 to 14) (size 15 to 20)
#    0.000    1.182    3.636    1.636    3.818    4.364 
#    0.000    2.727    0.000    3.273    0.000    0.000 
#    0.000    0.000    0.000    0.000    0.000    0.000 
#
# Total GULP energy -1090593.064070 kJ/mol
# GULP energy per Si atom -12393.103001 kJ/mol
# Density = 2.121273 g / cm^3
# Si number density = 21.261121 Si / 1000 Ang^3
#
#
#
# Elastic Constant Matrix: (Units=GPa)
#
#
# Indices 1 2 3 4 5 6 
#
# 1 195.5777 31.9849 51.0256 0.0000 0.0000 0.0000
# 2 31.9849 195.5777 51.0256 0.0000 0.0000 0.0000
# 3 51.0256 51.0256 88.1508 0.0000 0.0000 0.0000
# 4 0.0000 0.0000 0.0000 30.9397 0.0000 0.0000
# 5 0.0000 0.0000 0.0000 0.0000 30.9397 0.0000
# 6 0.0000 0.0000 0.0000 0.0000 0.0000 28.8732
#
#
#
# Elastic Compliance Matrix: (Units=1/GPa)
#
#
# Indices 1 2 3 4 5 6 
#
# 1 0.006024 -0.000089 -0.003435 0.000000 0.000000 0.000000
# 2 -0.000089 0.006024 -0.003435 0.000000 0.000000 0.000000
# 3 -0.003435 -0.003435 0.015321 0.000000 0.000000 0.000000
# 4 0.000000 0.000000 0.000000 0.032321 0.000000 0.000000
# 5 0.000000 0.000000 0.000000 0.000000 0.032321 0.000000
# 6 0.000000 0.000000 0.000000 0.000000 0.000000 0.034634
#
#
# Mechanical properties :
#
#
# Convention : Reuss Voigt Hill
#
# Bulk Modulus (GPa) = 74.35155 83.04202 78.69678
# Shear Modulus (GPa) = 34.47135 41.16852 37.81994
#
# Velocity S-wave (km/s) = 4.03095 4.40515 4.22219
# Velocity P-wave (km/s) = 7.53069 8.06329 7.80154
#
# Compressibility (1/GPa) = 0.01344962
#
# Stress axis : x y z
#
# Youngs Moduli (GPa) = 166.00573 166.00573 65.26826
#
# Poissons Ratio (x) = 0.01475 0.22423
# Poissons Ratio (y) = 0.01475 0.22423
# Poissons Ratio (z) = 0.57031 0.57031
#
# Static dielectric constant tensor:
#      x y z
#    x 3.963730 0.000000 0.000000 
#    y 0.000000 3.963730 0.000000 
#    z 0.000000 0.000000 3.687210 
# 
# 
# High freq. dielectric constant tensor:
#      x y z
#    x 1.840960 0.000000 0.000000 
#    y 0.000000 1.840960 0.000000 
#    z 0.000000 0.000000 1.828190 
# 
# From -- ./inp_files/6606.got.cif
#   From: 2010.03.12/outbox.cif.g09.slc.cpg/sg125_4_cif.got.tgz:6606.got - 2010.04.06 16:47:52.
