data_PCOD8313667
_publ_section_title
;
Structure prediction by ZEFSAII (Michael W. Deem and Ramdas Pophale) SiO2 
 PCOD8313667
Probable space group: P 4/N N C
;
_chemical_formula_sum "Si O2"
_cell_formula_units_Z 80
_cell_length_a 11.625051
_cell_length_b 11.625051
_cell_length_c 27.362717
_cell_angle_alpha 90.000000
_cell_angle_beta 90.000000
_cell_angle_gamma 90.000000
_cell_volume 3697.847122
_symmetry_space_group_name_H-M "P 4/N N C"
_symmetry_group_IT_number 126
_space_group.IT_coordinate_system_code '2'
_symmetry_cell_setting 'tetragonal'
loop_
_space_group_symop_operation_xyz
x,y,z
1/2-y,x,z
1/2-x,1/2-y,z
y,1/2-x,z
x,1/2-y,1/2-z
1/2-x,y,1/2-z
y,x,1/2-z
1/2-y,1/2-x,1/2-z
-x,-y,-z
1/2+y,-x,-z
1/2+x,1/2+y,-z
-y,1/2+x,-z
-x,1/2+y,1/2+z
1/2+x,-y,1/2+z
-y,-x,1/2+z
1/2+y,1/2+x,1/2+z
loop_
_atom_site_type_symbol
_atom_site_label
_atom_site_fract_x
_atom_site_fract_y
_atom_site_fract_z
Si Si1 0.934317 0.791888 0.175243
Si Si2 0.232789 0.067279 0.010912
Si Si3 0.239907 0.930306 0.917562
Si Si4 0.362926 0.684368 0.700797
Si Si5 0.251336 0.929225 0.396882
O O1 0.835761 0.885686 0.188188
O O2 0.966415 0.785288 0.117617
O O3 0.048851 0.829183 0.206563
O O4 0.352424 0.126602 0.998778
O O5 0.235060 0.038667 0.068513
O O6 0.219857 0.962770 0.973720
O O7 0.118840 0.879777 0.897003
O O8 0.334644 0.833208 0.920081
O O9 0.250000 0.750000 0.680552
O O10 0.402959 0.750000 0.750000
O O11 0.458679 0.706114 0.658738
#
# Coordination Sequence:
#
# PCOD8313667 Si02
#       5
#    16  16  16  16  16
#     4  10  20  36  65 103 136 160 194 256 326 377
#     4  11  24  37  53  82 123 163 203 252 305 367
#     4  10  19  36  59  90 123 160 200 242 304 379
#     4  10  20  42  67  86 121 164 209 252 299 378
#     4  10  20  37  59  88 113 158 206 258 294 367
#
# _framework density 21.634211000000001
#
# number of rings (size 3 to 8) (size 9 to 14) (size 15 to 20)
#    0.000    1.800    4.000    2.400    0.000    9.600 
#    0.000    4.000    0.000    4.800    0.000    1.400 
#    0.000    1.600    0.000    0.000    0.000    0.000 
#
# Total GULP energy -991100.707156 kJ/mol
# GULP energy per Si atom -12388.758839 kJ/mol
# Density = 2.158497 g / cm^3
# Si number density = 21.634211 Si / 1000 Ang^3
#
#
#
# Elastic Constant Matrix: (Units=GPa)
#
#
# Indices 1 2 3 4 5 6 
#
# 1 93.2250 25.4563 43.3555 0.0000 0.0000 0.0000
# 2 25.4563 93.2250 43.3555 0.0000 0.0000 0.0000
# 3 43.3555 43.3555 137.5800 0.0000 0.0000 0.0000
# 4 0.0000 0.0000 0.0000 20.0204 0.0000 0.0000
# 5 0.0000 0.0000 0.0000 0.0000 20.0204 0.0000
# 6 0.0000 0.0000 0.0000 0.0000 0.0000 24.8299
#
#
#
# Elastic Compliance Matrix: (Units=1/GPa)
#
#
# Indices 1 2 3 4 5 6 
#
# 1 0.012851 -0.001905 -0.003449 0.000000 0.000000 0.000000
# 2 -0.001905 0.012851 -0.003449 0.000000 0.000000 0.000000
# 3 -0.003449 -0.003449 0.009443 0.000000 0.000000 0.000000
# 4 0.000000 0.000000 0.000000 0.049949 0.000000 0.000000
# 5 0.000000 0.000000 0.000000 0.000000 0.049949 0.000000
# 6 0.000000 0.000000 0.000000 0.000000 0.000000 0.040274
#
#
# Mechanical properties :
#
#
# Convention : Reuss Voigt Hill
#
# Bulk Modulus (GPa) = 57.02211 60.92940 58.97575
# Shear Modulus (GPa) = 25.15466 27.09832 26.12649
#
# Velocity S-wave (km/s) = 3.41358 3.54300 3.47889
# Velocity P-wave (km/s) = 6.47698 6.70535 6.59215
#
# Compressibility (1/GPa) = 0.01753706
#
# Stress axis : x y z
#
# Youngs Moduli (GPa) = 77.81419 77.81419 105.90362
#
# Poissons Ratio (x) = 0.14823 0.36531
# Poissons Ratio (y) = 0.14823 0.36531
# Poissons Ratio (z) = 0.26842 0.26842
#
# Static dielectric constant tensor:
#      x y z
#    x 3.828770 0.000000 0.000000 
#    y 0.000000 3.828770 0.000000 
#    z 0.000000 0.000000 3.837750 
# 
# 
# High freq. dielectric constant tensor:
#      x y z
#    x 1.830950 0.000000 0.000000 
#    y 0.000000 1.830950 0.000000 
#    z 0.000000 0.000000 1.856870 
# 
# From -- ./inp_files/6433.got.cif
#   From: 2010.03.12/outbox.cif.g09.slc.cpg/sg126_4_cif.got.tgz:6433.got - 2010.04.06 16:55:23.
