data_PCOD8313112
_publ_section_title
;
Structure prediction by ZEFSAII (Michael W. Deem and Ramdas Pophale) SiO2 
 PCOD8313112
Probable space group: P 4/M C C
;
_chemical_formula_sum "Si O2"
_cell_formula_units_Z 96
_cell_length_a 24.410566
_cell_length_b 24.410566
_cell_length_c 9.040157
_cell_angle_alpha 90.000000
_cell_angle_beta 90.000000
_cell_angle_gamma 90.000000
_cell_volume 5386.810174
_symmetry_space_group_name_H-M "P 4/M C C"
_symmetry_group_IT_number 124
_symmetry_cell_setting 'tetragonal'
loop_
_space_group_symop_operation_xyz
x,y,z
-y,x,z
-x,-y,z
y,-x,z
x,-y,1/2-z
-x,y,1/2-z
y,x,1/2-z
-y,-x,1/2-z
-x,-y,-z
y,-x,-z
x,y,-z
-y,x,-z
-x,y,1/2+z
x,-y,1/2+z
-y,-x,1/2+z
y,x,1/2+z
loop_
_atom_site_type_symbol
_atom_site_label
_atom_site_fract_x
_atom_site_fract_y
_atom_site_fract_z
Si Si1 0.634119 0.555876 0.329461
Si Si2 0.640296 0.837445 0.333483
Si Si3 0.945409 0.362704 0.167794
Si Si4 0.232029 0.946914 0.666151
Si Si5 0.646633 0.725797 0.829314
Si Si6 0.157903 0.230656 0.835936
O O1 0.650797 0.500000 0.250000
O O2 0.580956 0.580956 0.250000
O O3 0.619643 0.545109 0.500000
O O4 0.685340 0.595881 0.312491
O O5 0.615900 0.833765 0.500000
O O6 0.615250 0.890809 0.251227
O O7 0.626788 0.782280 0.244252
O O8 0.704749 0.844297 0.342015
O O9 0.945541 0.297450 0.167390
O O10 0.000000 0.384761 0.250000
O O11 0.945174 0.385229 0.000000
O O12 0.209458 0.947680 0.500000
O O13 0.207336 0.894471 0.749179
O O14 0.209754 0.000000 0.750000
O O15 0.700093 0.700093 0.750000
O O16 0.662343 0.736162 0.000000
O O17 0.212490 0.212490 0.750000
O O18 0.158271 0.205673 0.000000
#
# Coordination Sequence:
#
# PCOD8313112 Si02
#       6
#    16  16  16  16  16  16
#     4  10  21  37  57  80 106 135 168 206 248 293
#     4  10  19  29  43  63  89 123 160 195 233 279
#     4   9  16  26  40  58  83 115 153 195 236 278
#     4   9  16  26  39  53  71  98 131 168 211 258
#     4  10  20  33  49  70  97 129 163 200 242 289
#     4  10  19  28  38  55  79 107 140 176 213 255
#
# _framework density 17.821307000000001
#
# number of rings (size 3 to 8) (size 9 to 14) (size 15 to 20)
#    0.000    2.333    0.000    3.500    0.000    9.500 
#    0.000    0.833    0.000    0.000    0.000    0.000 
#    0.000    1.000    0.000   10.333    0.000    6.500 
#
# Total GULP energy -1190365.567307 kJ/mol
# GULP energy per Si atom -12399.641326 kJ/mol
# Density = 1.778075 g / cm^3
# Si number density = 17.821307 Si / 1000 Ang^3
#
#
#
# Elastic Constant Matrix: (Units=GPa)
#
#
# Indices 1 2 3 4 5 6 
#
# 1 63.8005 3.9028 40.4578 0.0000 0.0000 0.0000
# 2 3.9028 63.8005 40.4578 0.0000 0.0000 0.0000
# 3 40.4578 40.4578 177.5135 0.0000 0.0000 0.0000
# 4 0.0000 0.0000 0.0000 26.5399 0.0000 0.0000
# 5 0.0000 0.0000 0.0000 0.0000 26.5399 0.0000
# 6 0.0000 0.0000 0.0000 0.0000 0.0000 7.1402
#
#
#
# Elastic Compliance Matrix: (Units=1/GPa)
#
#
# Indices 1 2 3 4 5 6 
#
# 1 0.018497 0.001802 -0.004627 0.000000 0.000000 0.000000
# 2 0.001802 0.018497 -0.004627 0.000000 0.000000 0.000000
# 3 -0.004627 -0.004627 0.007742 0.000000 0.000000 0.000000
# 4 0.000000 0.000000 0.000000 0.037679 0.000000 0.000000
# 5 0.000000 0.000000 0.000000 0.000000 0.037679 0.000000
# 6 0.000000 0.000000 0.000000 0.000000 0.000000 0.140052
#
#
# Mechanical properties :
#
#
# Convention : Reuss Voigt Hill
#
# Bulk Modulus (GPa) = 33.51708 52.75012 43.13360
# Shear Modulus (GPa) = 17.54419 26.73040 22.13729
#
# Velocity S-wave (km/s) = 3.14100 3.87707 3.52828
# Velocity P-wave (km/s) = 5.65709 7.05025 6.39174
#
# Compressibility (1/GPa) = 0.02983553
#
# Stress axis : x y z
#
# Youngs Moduli (GPa) = 54.06141 54.06141 129.16037
#
# Poissons Ratio (x) = -0.09744 0.59758
# Poissons Ratio (y) = -0.09744 0.59758
# Poissons Ratio (z) = 0.25012 0.25012
#
# Static dielectric constant tensor:
#      x y z
#    x 3.063860 0.000000 0.000000 
#    y 0.000000 3.063860 0.000000 
#    z 0.000000 0.000000 3.707500 
# 
# 
# High freq. dielectric constant tensor:
#      x y z
#    x 1.656960 0.000000 0.000000 
#    y 0.000000 1.656960 0.000000 
#    z 0.000000 0.000000 1.715580 
# 
# From -- ./inp_files/1347.got.cif
#   From: 2010.03.12/outbox.cif.g09.slc.cpg/sg124_1_cif.got.tgz:1347.got - 2010.04.06 16:38:57.
