data_PCOD8313093
_publ_section_title
;
Structure prediction by ZEFSAII (Michael W. Deem and Ramdas Pophale) SiO2 
 PCOD8313093
Probable space group: P 4/M C C
;
_chemical_formula_sum "Si O2"
_cell_formula_units_Z 88
_cell_length_a 14.786413
_cell_length_b 14.786413
_cell_length_c 23.980610
_cell_angle_alpha 90.000000
_cell_angle_beta 90.000000
_cell_angle_gamma 90.000000
_cell_volume 5243.072835
_symmetry_space_group_name_H-M "P 4/M C C"
_symmetry_group_IT_number 124
_symmetry_cell_setting 'tetragonal'
loop_
_space_group_symop_operation_xyz
x,y,z
-y,x,z
-x,-y,z
y,-x,z
x,-y,1/2-z
-x,y,1/2-z
y,x,1/2-z
-y,-x,1/2-z
-x,-y,-z
y,-x,-z
x,y,-z
-y,x,-z
-x,y,1/2+z
x,-y,1/2+z
-y,-x,1/2+z
y,x,1/2+z
loop_
_atom_site_type_symbol
_atom_site_label
_atom_site_fract_x
_atom_site_fract_y
_atom_site_fract_z
Si Si1 0.130184 0.927237 0.500000
Si Si2 0.051519 0.583865 0.436537
Si Si3 0.984117 0.854264 0.314205
Si Si4 0.915488 0.267756 0.906268
Si Si5 0.368231 0.738459 0.433508
Si Si6 0.425825 0.248868 0.434158
O O1 0.181650 0.894428 0.555169
O O2 0.034799 0.878007 0.500000
O O3 0.070473 0.554490 0.500000
O O4 0.149961 0.598434 0.408959
O O5 0.000000 0.500000 0.406535
O O6 0.992858 0.673665 0.435397
O O7 0.958629 0.763209 0.347323
O O8 0.077907 0.902505 0.330148
O O9 0.000000 0.828644 0.250000
O O10 0.823888 0.326022 0.900297
O O11 0.357503 0.755526 0.500000
O O12 0.472572 0.725521 0.416274
O O13 0.319740 0.647733 0.411118
O O14 0.416322 0.251160 0.500000
#
# Coordination Sequence:
#
# PCOD8313093 Si02
#       6
#     8  16  16  16  16  16
#     4  11  24  32  39  70 110 131 154 197 255 302
#     4  10  18  30  45  69 103 138 163 195 252 311
#     4   9  20  38  54  69  95 134 176 208 241 293
#     4  12  20  30  52  73  99 132 170 208 252 306
#     4  10  19  32  45  72 101 138 180 213 256 302
#     4   9  19  30  46  64 100 140 178 215 243 302
#
# _framework density 16.784051999999999
#
# number of rings (size 3 to 8) (size 9 to 14) (size 15 to 20)
#    0.000    1.909    3.636    1.636    5.091    1.818 
#    0.000    1.818    0.000    0.545    0.000    0.000 
#    0.000    0.000    0.000    0.000    2.909    0.000 
#
# Total GULP energy -1090679.346292 kJ/mol
# GULP energy per Si atom -12394.083481 kJ/mol
# Density = 1.674585 g / cm^3
# Si number density = 16.784052 Si / 1000 Ang^3
#
#
#
# Elastic Constant Matrix: (Units=GPa)
#
#
# Indices 1 2 3 4 5 6 
#
# 1 108.5933 56.7143 17.6035 0.0000 0.0000 0.0000
# 2 56.7143 108.5933 17.6035 0.0000 0.0000 0.0000
# 3 17.6035 17.6035 40.4049 0.0000 0.0000 0.0000
# 4 0.0000 0.0000 0.0000 14.8192 0.0000 0.0000
# 5 0.0000 0.0000 0.0000 0.0000 14.8192 0.0000
# 6 0.0000 0.0000 0.0000 0.0000 0.0000 34.7220
#
#
#
# Elastic Compliance Matrix: (Units=1/GPa)
#
#
# Indices 1 2 3 4 5 6 
#
# 1 0.012972 -0.006304 -0.002905 0.000000 0.000000 0.000000
# 2 -0.006304 0.012972 -0.002905 0.000000 0.000000 0.000000
# 3 -0.002905 -0.002905 0.027281 0.000000 0.000000 0.000000
# 4 0.000000 0.000000 0.000000 0.067480 0.000000 0.000000
# 5 0.000000 0.000000 0.000000 0.000000 0.067480 0.000000
# 6 0.000000 0.000000 0.000000 0.000000 0.000000 0.028800
#
#
# Mechanical properties :
#
#
# Convention : Reuss Voigt Hill
#
# Bulk Modulus (GPa) = 34.48692 49.04822 41.76757
# Shear Modulus (GPa) = 19.92997 23.91675 21.92336
#
# Velocity S-wave (km/s) = 3.44966 3.77897 3.61806
# Velocity P-wave (km/s) = 6.03812 6.95179 6.51100
#
# Compressibility (1/GPa) = 0.02899650
#
# Stress axis : x y z
#
# Youngs Moduli (GPa) = 77.09003 77.09003 36.65571
#
# Poissons Ratio (x) = 0.48596 0.10649
# Poissons Ratio (y) = 0.48596 0.10649
# Poissons Ratio (z) = 0.22396 0.22396
#
# Static dielectric constant tensor:
#      x y z
#    x 3.267600 0.000000 0.000000 
#    y 0.000000 3.267600 0.000000 
#    z 0.000000 0.000000 2.621740 
# 
# 
# High freq. dielectric constant tensor:
#      x y z
#    x 1.657020 0.000000 0.000000 
#    y 0.000000 1.657020 0.000000 
#    z 0.000000 0.000000 1.571320 
# 
# From -- ./inp_files/6543.got.cif
#   From: 2010.03.12/outbox.cif.g09.slc.cpg/sg124_4_cif.got.tgz:6543.got - 2010.04.06 16:38:57.
