data_PCOD8313645
_publ_section_title
;
Structure prediction by ZEFSAII (Michael W. Deem and Ramdas Pophale) SiO2 
 PCOD8313645
Probable space group: P 4/N N C
;
_chemical_formula_sum "Si O2"
_cell_formula_units_Z 80
_cell_length_a 15.559635
_cell_length_b 15.559635
_cell_length_c 17.219559
_cell_angle_alpha 90.000000
_cell_angle_beta 90.000000
_cell_angle_gamma 90.000000
_cell_volume 4168.893829
_symmetry_space_group_name_H-M "P 4/N N C"
_symmetry_group_IT_number 126
_space_group.IT_coordinate_system_code '2'
_symmetry_cell_setting 'tetragonal'
loop_
_space_group_symop_operation_xyz
x,y,z
1/2-y,x,z
1/2-x,1/2-y,z
y,1/2-x,z
x,1/2-y,1/2-z
1/2-x,y,1/2-z
y,x,1/2-z
1/2-y,1/2-x,1/2-z
-x,-y,-z
1/2+y,-x,-z
1/2+x,1/2+y,-z
-y,1/2+x,-z
-x,1/2+y,1/2+z
1/2+x,-y,1/2+z
-y,-x,1/2+z
1/2+y,1/2+x,1/2+z
loop_
_atom_site_type_symbol
_atom_site_label
_atom_site_fract_x
_atom_site_fract_y
_atom_site_fract_z
Si Si1 0.578165 0.606301 0.629032
Si Si2 0.354389 0.155258 0.536253
Si Si3 0.774905 0.491765 0.831251
Si Si4 0.202475 0.622169 0.017054
Si Si5 0.009756 0.931199 0.067379
O O1 0.628223 0.607999 0.547034
O O2 0.637121 0.545600 0.683032
O O3 0.566114 0.704420 0.653456
O O4 0.482272 0.563987 0.631761
O O5 0.369903 0.256285 0.548371
O O6 0.415298 0.101780 0.596436
O O7 0.750000 0.444962 0.750000
O O8 0.782025 0.420081 0.898370
O O9 0.144433 0.707615 0.024987
O O10 0.154655 0.557254 0.960503
O O11 0.000000 0.000000 0.000000
#
# Coordination Sequence:
#
# PCOD8313645 Si02
#       5
#    16  16  16  16  16
#     4  11  20  36  53  80 115 160 192 233 289 357
#     4  10  18  29  50  81 116 142 186 247 290 336
#     4  12  24  38  57  87 124 156 196 238 296 365
#     4  11  22  38  60  84 110 156 205 249 298 344
#     4  10  19  31  57  79 109 149 201 244 280 339
#
# _framework density 19.189741999999999
#
# number of rings (size 3 to 8) (size 9 to 14) (size 15 to 20)
#    0.000    1.200    8.000    0.600    2.800    0.400 
#    0.000    3.000    0.000    0.000    0.000    0.000 
#    0.000    0.000    0.000   10.400    0.000    0.000 
#
# Total GULP energy -991215.791230 kJ/mol
# GULP energy per Si atom -12390.197390 kJ/mol
# Density = 1.914607 g / cm^3
# Si number density = 19.189742 Si / 1000 Ang^3
#
#
#
# Elastic Constant Matrix: (Units=GPa)
#
#
# Indices 1 2 3 4 5 6 
#
# 1 121.5630 72.6787 35.4449 0.0000 0.0000 0.0000
# 2 72.6787 121.5630 35.4449 0.0000 0.0000 0.0000
# 3 35.4449 35.4449 59.3469 0.0000 0.0000 0.0000
# 4 0.0000 0.0000 0.0000 17.7820 0.0000 0.0000
# 5 0.0000 0.0000 0.0000 0.0000 17.7820 0.0000
# 6 0.0000 0.0000 0.0000 0.0000 0.0000 44.6353
#
#
#
# Elastic Compliance Matrix: (Units=1/GPa)
#
#
# Indices 1 2 3 4 5 6 
#
# 1 0.013520 -0.006937 -0.003932 0.000000 0.000000 0.000000
# 2 -0.006937 0.013520 -0.003932 0.000000 0.000000 0.000000
# 3 -0.003932 -0.003932 0.021547 0.000000 0.000000 0.000000
# 4 0.000000 0.000000 0.000000 0.056237 0.000000 0.000000
# 5 0.000000 0.000000 0.000000 0.000000 0.056237 0.000000
# 6 0.000000 0.000000 0.000000 0.000000 0.000000 0.022404
#
#
# Mechanical properties :
#
#
# Convention : Reuss Voigt Hill
#
# Bulk Modulus (GPa) = 52.67105 65.51223 59.09164
# Shear Modulus (GPa) = 22.79020 26.63347 24.71184
#
# Velocity S-wave (km/s) = 3.44993 3.72950 3.59243
# Velocity P-wave (km/s) = 6.58608 7.26353 6.93308
#
# Compressibility (1/GPa) = 0.01898576
#
# Stress axis : x y z
#
# Youngs Moduli (GPa) = 73.96553 73.96553 46.41102
#
# Poissons Ratio (x) = 0.51307 0.18248
# Poissons Ratio (y) = 0.51307 0.18248
# Poissons Ratio (z) = 0.29082 0.29082
#
# Static dielectric constant tensor:
#      x y z
#    x 4.328070 0.000000 0.000000 
#    y 0.000000 4.328070 0.000000 
#    z 0.000000 0.000000 3.163960 
# 
# 
# High freq. dielectric constant tensor:
#      x y z
#    x 1.765120 0.000000 0.000000 
#    y 0.000000 1.765120 0.000000 
#    z 0.000000 0.000000 1.680290 
# 
# From -- ./inp_files/5096.got.cif
#   From: 2010.03.12/outbox.cif.g09.slc.cpg/sg126_3_cif.got.tgz:5096.got - 2010.04.06 16:55:23.
