data_PCOD8313881
_publ_section_title
;
Structure prediction by ZEFSAII (Michael W. Deem and Ramdas Pophale) SiO2 
 PCOD8313881
Probable space group: P 4/M B M
;
_chemical_formula_sum "Si O2"
_cell_formula_units_Z 88
_cell_length_a 15.320955
_cell_length_b 15.320955
_cell_length_c 21.018334
_cell_angle_alpha 90.000000
_cell_angle_beta 90.000000
_cell_angle_gamma 90.000000
_cell_volume 4933.668475
_symmetry_space_group_name_H-M "P 4/M B M"
_symmetry_group_IT_number 127
_symmetry_cell_setting 'tetragonal'
loop_
_space_group_symop_operation_xyz
x,y,z
-y,x,z
-x,-y,z
y,-x,z
1/2+x,1/2-y,-z
1/2-x,1/2+y,-z
1/2+y,1/2+x,-z
1/2-y,1/2-x,-z
-x,-y,-z
y,-x,-z
x,y,-z
-y,x,-z
1/2-x,1/2+y,z
1/2+x,1/2-y,z
1/2-y,1/2-x,z
1/2+y,1/2+x,z
loop_
_atom_site_type_symbol
_atom_site_label
_atom_site_fract_x
_atom_site_fract_y
_atom_site_fract_z
Si Si1 0.544736 0.364999 0.295870
Si Si2 0.365264 0.454759 0.850443
Si Si3 0.504043 0.858010 0.500000
Si Si4 0.073370 0.573370 0.143444
Si Si5 0.426803 0.073198 0.713532
Si Si6 0.045024 0.308806 0.634658
Si Si7 0.949770 0.694998 0.073848
O O1 0.608430 0.445345 0.310721
O O2 0.554285 0.336140 0.222688
O O3 0.573763 0.285785 0.340823
O O4 0.445871 0.391438 0.865323
O O5 0.287146 0.424784 0.895642
O O6 0.601892 0.898109 0.500000
O O7 0.488274 0.799489 0.437715
O O8 0.438211 0.938211 0.500000
O O9 0.100227 0.600227 0.215046
O O10 0.157951 0.536992 0.107119
O O11 0.000000 0.500000 0.143944
O O12 0.464306 0.157169 0.677167
O O13 0.500000 0.000000 0.714441
O O14 0.127676 0.372325 0.640019
O O15 0.868572 0.631428 0.085315
O O16 0.970509 0.706945 0.000000
#
# Coordination Sequence:
#
# PCOD8313881 Si02
#       7
#    16  16   8   8   8  16  16
#     4   9  19  37  56  74 103 140 175 217 270 319
#     4   9  19  37  58  76  98 134 178 221 265 314
#     4   9  16  30  50  75 112 148 173 207 260 310
#     4   9  17  30  48  72 103 137 167 200 253 316
#     4   9  16  26  48  78 104 129 163 212 263 305
#     4  10  18  31  53  81 108 138 176 217 261 310
#     4  10  20  34  52  75 106 139 170 210 262 318
#
# _framework density 17.836627
#
# number of rings (size 3 to 8) (size 9 to 14) (size 15 to 20)
#    0.000    2.636    0.909    2.455    0.000    4.000 
#    3.273    1.818    0.000    2.182    0.000    0.000 
#    0.000    0.000    0.000    0.000    0.000    0.000 
#
# Total GULP energy -1091272.678314 kJ/mol
# GULP energy per Si atom -12400.825890 kJ/mol
# Density = 1.779603 g / cm^3
# Si number density = 17.836627 Si / 1000 Ang^3
#
#
#
# Elastic Constant Matrix: (Units=GPa)
#
#
# Indices 1 2 3 4 5 6 
#
# 1 74.8074 15.1367 49.7813 0.0000 0.0000 0.0000
# 2 15.1367 74.8074 49.7814 0.0000 0.0000 0.0000
# 3 49.7813 49.7814 140.1992 0.0000 0.0000 0.0000
# 4 0.0000 0.0000 0.0000 24.2883 0.0000 0.0000
# 5 0.0000 0.0000 0.0000 0.0000 24.2880 0.0000
# 6 0.0000 0.0000 0.0000 0.0000 0.0000 11.4554
#
#
#
# Elastic Compliance Matrix: (Units=1/GPa)
#
#
# Indices 1 2 3 4 5 6 
#
# 1 0.017538 0.000780 -0.006504 0.000000 0.000000 0.000000
# 2 0.000780 0.017538 -0.006504 0.000000 0.000000 0.000000
# 3 -0.006504 -0.006504 0.011752 0.000000 0.000000 0.000000
# 4 0.000000 0.000000 0.000000 0.041172 0.000000 0.000000
# 5 0.000000 0.000000 0.000000 0.000000 0.041173 0.000000
# 6 0.000000 0.000000 0.000000 0.000000 0.000000 0.087295
#
#
# Mechanical properties :
#
#
# Convention : Reuss Voigt Hill
#
# Bulk Modulus (GPa) = 44.70183 57.69031 51.19607
# Shear Modulus (GPa) = 20.13028 23.68065 21.90546
#
# Velocity S-wave (km/s) = 3.36310 3.64763 3.50825
# Velocity P-wave (km/s) = 6.34009 7.08197 6.72127
#
# Compressibility (1/GPa) = 0.02237045
#
# Stress axis : x y z
#
# Youngs Moduli (GPa) = 57.01832 57.01830 85.09414
#
# Poissons Ratio (x) = -0.04445 0.55347
# Poissons Ratio (y) = -0.04445 0.55347
# Poissons Ratio (z) = 0.37086 0.37086
#
# Static dielectric constant tensor:
#      x y z
#    x 3.080580 0.000000 0.000000 
#    y 0.000000 3.080580 0.000000 
#    z 0.000000 0.000000 3.436450 
# 
# 
# High freq. dielectric constant tensor:
#      x y z
#    x 1.672900 0.000000 0.000000 
#    y 0.000000 1.672900 0.000000 
#    z 0.000000 0.000000 1.697050 
# 
# From -- ./inp_files/5725.got.cif
#   From: 2010.03.12/outbox.cif.g09.slc.cpg/sg127_3_cif.got.tgz:5725.got - 2010.04.06 17:03:15.
