data_PCOD8313930
_publ_section_title
;
Structure prediction by ZEFSAII (Michael W. Deem and Ramdas Pophale) SiO2 
 PCOD8313930
Probable space group: P 4/M B M
;
_chemical_formula_sum "Si O2"
_cell_formula_units_Z 96
_cell_length_a 24.160803
_cell_length_b 24.160803
_cell_length_c 9.608658
_cell_angle_alpha 90.000000
_cell_angle_beta 90.000000
_cell_angle_gamma 90.000000
_cell_volume 5609.000314
_symmetry_space_group_name_H-M "P 4/M B M"
_symmetry_group_IT_number 127
_symmetry_cell_setting 'tetragonal'
loop_
_space_group_symop_operation_xyz
x,y,z
-y,x,z
-x,-y,z
y,-x,z
1/2+x,1/2-y,-z
1/2-x,1/2+y,-z
1/2+y,1/2+x,-z
1/2-y,1/2-x,-z
-x,-y,-z
y,-x,-z
x,y,-z
-y,x,-z
1/2-x,1/2+y,z
1/2+x,1/2-y,z
1/2-y,1/2-x,z
1/2+y,1/2+x,z
loop_
_atom_site_type_symbol
_atom_site_label
_atom_site_fract_x
_atom_site_fract_y
_atom_site_fract_z
Si Si1 0.935109 0.059392 0.665198
Si Si2 0.433335 0.156804 0.839155
Si Si3 0.857426 0.840141 0.663151
Si Si4 0.269623 0.141408 0.340599
Si Si5 0.231577 0.357754 0.839093
Si Si6 0.361065 0.945835 0.162502
O O1 0.934824 0.060958 0.500000
O O2 0.888566 0.102036 0.721002
O O3 0.996590 0.077618 0.717266
O O4 0.399094 0.100907 0.819193
O O5 0.406577 0.206952 0.755893
O O6 0.493518 0.145839 0.772080
O O7 0.436376 0.174896 0.000000
O O8 0.867205 0.829576 0.500000
O O9 0.794585 0.855944 0.695261
O O10 0.869260 0.784060 0.744019
O O11 0.279460 0.124489 0.500000
O O12 0.299958 0.200043 0.308180
O O13 0.198209 0.301792 0.797319
O O14 0.193756 0.410722 0.811717
O O15 0.249603 0.353835 0.000000
O O16 0.413767 0.913767 0.229486
O O17 0.372446 0.952606 0.000000
#
# Coordination Sequence:
#
# PCOD8313930 Si02
#       6
#    16  16  16  16  16  16
#     4   8  15  29  47  67  93 121 147 181 227 274
#     4   9  17  29  47  70  92 118 156 194 222 259
#     4  10  19  30  49  74  92 113 152 193 224 263
#     4   9  18  31  44  62  94 127 147 177 231 277
#     4   9  18  32  48  66  92 125 153 180 224 277
#     4   8  15  29  47  67  93 122 151 188 233 271
#
# _framework density 17.115348999999998
#
# number of rings (size 3 to 8) (size 9 to 14) (size 15 to 20)
#    0.000    3.167    0.000    2.000    0.000    3.333 
#    0.000    5.833    0.000    2.500    0.000    3.500 
#    0.000    0.000    0.000    0.000    0.000    0.000 
#
# Total GULP energy -1189888.152300 kJ/mol
# GULP energy per Si atom -12394.668253 kJ/mol
# Density = 1.707639 g / cm^3
# Si number density = 17.115349 Si / 1000 Ang^3
#
#
#
# Elastic Constant Matrix: (Units=GPa)
#
#
# Indices 1 2 3 4 5 6 
#
# 1 85.0136 93.4426 32.2287 0.0000 0.0000 0.0000
# 2 93.4426 85.0136 32.2287 0.0000 0.0000 0.0000
# 3 32.2287 32.2287 30.4366 0.0000 0.0000 0.0000
# 4 0.0000 0.0000 0.0000 20.1999 0.0000 0.0000
# 5 0.0000 0.0000 0.0000 0.0000 20.1999 0.0000
# 6 0.0000 0.0000 0.0000 0.0000 0.0000 21.7785
#
#
#
# Elastic Compliance Matrix: (Units=1/GPa)
#
#
# Indices 1 2 3 4 5 6 
#
# 1 -0.054782 0.063856 -0.009608 0.000000 0.000000 0.000000
# 2 0.063856 -0.054782 -0.009608 0.000000 0.000000 0.000000
# 3 -0.009608 -0.009608 0.053203 0.000000 0.000000 0.000000
# 4 0.000000 0.000000 0.000000 0.049505 0.000000 0.000000
# 5 0.000000 0.000000 0.000000 0.000000 0.049505 0.000000
# 6 0.000000 0.000000 0.000000 0.000000 0.000000 0.045917
#
#
# Mechanical properties :
#
#
# Convention : Reuss Voigt Hill
#
# Bulk Modulus (GPa) = 30.37844 57.36267 43.87056
# Shear Modulus (GPa) = 487.30905 15.27324 251.29114
#
# Velocity S-wave (km/s) = 16.89197 2.99050 12.13016
# Velocity P-wave (km/s) = 19.95593 6.74627 14.89549
#
# Compressibility (1/GPa) = 0.03291808
#
# Stress axis : x y z
#
# Youngs Moduli (GPa) = -18.25413 -18.25413 18.79576
#
# Poissons Ratio (x) = 1.16564 0.18060
# Poissons Ratio (y) = 1.16564 0.18060
# Poissons Ratio (z) = -0.17539 -0.17539
#
# Static dielectric constant tensor:
#      x y z
#    x 10.650980 0.000000 0.000000 
#    y 0.000000 10.650980 0.000000 
#    z 0.000000 0.000000 2.873500 
# 
# 
# High freq. dielectric constant tensor:
#      x y z
#    x 1.665530 0.000000 0.000000 
#    y 0.000000 1.665530 0.000000 
#    z 0.000000 0.000000 1.621430 
# 
# From -- ./inp_files/1936.got.cif
#   From: 2010.03.12/outbox.cif.g09.slc.cpg/sg127_1_cif.got.tgz:1936.got - 2010.04.06 17:03:15.
