data_PCOD8313701
_publ_section_title
;
Structure prediction by ZEFSAII (Michael W. Deem and Ramdas Pophale) SiO2 
 PCOD8313701
Probable space group: P 4/N N C
;
_chemical_formula_sum "Si O2"
_cell_formula_units_Z 96
_cell_length_a 25.105037
_cell_length_b 25.105037
_cell_length_c 10.320588
_cell_angle_alpha 90.000000
_cell_angle_beta 90.000000
_cell_angle_gamma 90.000000
_cell_volume 6504.683545
_symmetry_space_group_name_H-M "P 4/N N C"
_symmetry_group_IT_number 126
_space_group.IT_coordinate_system_code '2'
_symmetry_cell_setting 'tetragonal'
loop_
_space_group_symop_operation_xyz
x,y,z
1/2-y,x,z
1/2-x,1/2-y,z
y,1/2-x,z
x,1/2-y,1/2-z
1/2-x,y,1/2-z
y,x,1/2-z
1/2-y,1/2-x,1/2-z
-x,-y,-z
1/2+y,-x,-z
1/2+x,1/2+y,-z
-y,1/2+x,-z
-x,1/2+y,1/2+z
1/2+x,-y,1/2+z
-y,-x,1/2+z
1/2+y,1/2+x,1/2+z
loop_
_atom_site_type_symbol
_atom_site_label
_atom_site_fract_x
_atom_site_fract_y
_atom_site_fract_z
Si Si1 0.445428 0.193016 0.284986
Si Si2 0.515368 0.034657 0.623482
Si Si3 0.301060 0.124366 0.832330
Si Si4 0.098719 0.044257 0.128922
Si Si5 0.781556 0.830989 0.608309
Si Si6 0.542686 0.628393 0.029717
O O1 0.470663 0.250000 0.250000
O O2 0.454520 0.162037 0.149332
O O3 0.383173 0.197122 0.319780
O O4 0.475314 0.162696 0.403667
O O5 0.508142 0.098074 0.594971
O O6 0.481236 0.018765 0.750000
O O7 0.500000 0.000000 0.500000
O O8 0.577424 0.017046 0.636803
O O9 0.250000 0.106601 0.750000
O O10 0.339046 0.160955 0.750000
O O11 0.332048 0.070345 0.869269
O O12 0.282972 0.158900 0.955425
O O13 0.074794 0.074794 0.250000
O O14 0.083338 0.079267 0.002877
O O15 0.719817 0.818664 0.646848
#
# Coordination Sequence:
#
# PCOD8313701 Si02
#       6
#    16  16  16  16  16  16
#     4  10  21  29  45  61  88 114 146 189 239 274
#     4   9  16  31  51  72  88 106 140 194 247 292
#     4  11  20  29  41  50  77 114 155 198 234 265
#     4   8  16  30  47  63  85 103 135 186 239 284
#     4  10  21  31  40  53  72 110 162 199 234 268
#     4   9  19  29  44  63  80 108 149 189 236 287
#
# _framework density 14.758597
#
# number of rings (size 3 to 8) (size 9 to 14) (size 15 to 20)
#    0.000    2.500    1.667    1.500    9.333    0.167 
#    0.000    0.833    0.000    0.000    0.000    0.000 
#    0.000    0.000    0.000    0.000    0.000    6.667 
#
# Total GULP energy -1189298.174122 kJ/mol
# GULP energy per Si atom -12388.522647 kJ/mol
# Density = 1.472501 g / cm^3
# Si number density = 14.758597 Si / 1000 Ang^3
#
#
#
# Elastic Constant Matrix: (Units=GPa)
#
#
# Indices 1 2 3 4 5 6 
#
# 1 57.8170 35.8867 17.8570 0.0000 0.0000 0.0000
# 2 35.8867 57.8160 17.8567 0.0000 0.0000 0.0000
# 3 17.8570 17.8567 57.8123 0.0000 0.0000 0.0000
# 4 0.0000 0.0000 0.0000 20.7873 0.0000 0.0000
# 5 0.0000 0.0000 0.0000 0.0000 20.7875 0.0000
# 6 0.0000 0.0000 0.0000 0.0000 0.0000 25.2457
#
#
#
# Elastic Compliance Matrix: (Units=1/GPa)
#
#
# Indices 1 2 3 4 5 6 
#
# 1 0.028848 -0.016752 -0.003736 0.000000 0.000000 0.000000
# 2 -0.016752 0.028848 -0.003736 0.000000 0.000000 0.000000
# 3 -0.003736 -0.003736 0.019605 0.000000 0.000000 0.000000
# 4 0.000000 0.000000 0.000000 0.048106 0.000000 0.000000
# 5 0.000000 0.000000 0.000000 0.000000 0.048106 0.000000
# 6 0.000000 0.000000 0.000000 0.000000 0.000000 0.039611
#
#
# Mechanical properties :
#
#
# Convention : Reuss Voigt Hill
#
# Bulk Modulus (GPa) = 34.65881 35.18291 34.92086
# Shear Modulus (GPa) = 18.43720 20.15374 19.29547
#
# Velocity S-wave (km/s) = 3.53831 3.69936 3.61973
# Velocity P-wave (km/s) = 6.34253 6.49135 6.41737
#
# Compressibility (1/GPa) = 0.02885269
#
# Stress axis : x y z
#
# Youngs Moduli (GPa) = 34.66463 34.66408 51.00638
#
# Poissons Ratio (x) = 0.58070 0.19057
# Poissons Ratio (y) = 0.58070 0.19057
# Poissons Ratio (z) = 0.12951 0.12951
#
# Static dielectric constant tensor:
#      x y z
#    x 3.161700 0.000000 0.000000 
#    y 0.000000 3.161750 0.000000 
#    z 0.000000 0.000000 3.380990 
# 
# 
# High freq. dielectric constant tensor:
#      x y z
#    x 1.531790 0.000000 0.000000 
#    y 0.000000 1.531790 0.000000 
#    z 0.000000 0.000000 1.586420 
# 
# From -- ./inp_files/2990.got.cif
#   From: 2010.03.12/outbox.cif.g09.slc.cpg/sg126_2_cif.got.tgz:2990.got - 2010.04.06 16:55:23.
