data_PCOD8313606
_publ_section_title
;
Structure prediction by ZEFSAII (Michael W. Deem and Ramdas Pophale) SiO2 
 PCOD8313606
Probable space group: P 4/N B M
;
_chemical_formula_sum "Si O2"
_cell_formula_units_Z 80
_cell_length_a 13.403675
_cell_length_b 13.403675
_cell_length_c 23.405984
_cell_angle_alpha 90.000000
_cell_angle_beta 90.000000
_cell_angle_gamma 90.000000
_cell_volume 4205.084059
_symmetry_space_group_name_H-M "P 4/N B M"
_symmetry_group_IT_number 125
_space_group.IT_coordinate_system_code '2'
_symmetry_cell_setting 'tetragonal'
loop_
_space_group_symop_operation_xyz
x,y,z
1/2-y,x,z
1/2-x,1/2-y,z
y,1/2-x,z
x,1/2-y,-z
1/2-x,y,-z
y,x,-z
1/2-y,1/2-x,-z
-x,-y,-z
1/2+y,-x,-z
1/2+x,1/2+y,-z
-y,1/2+x,-z
-x,1/2+y,z
1/2+x,-y,z
-y,-x,z
1/2+y,1/2+x,z
loop_
_atom_site_type_symbol
_atom_site_label
_atom_site_fract_x
_atom_site_fract_y
_atom_site_fract_z
Si Si1 0.127297 0.140361 0.062356
Si Si2 0.737038 0.584812 0.654207
Si Si3 0.911263 0.248491 0.433333
Si Si4 0.662862 0.998199 0.231922
Si Si5 0.361473 0.483428 0.826196
O O1 0.241865 0.112403 0.068701
O O2 0.059476 0.098312 0.113173
O O3 0.096282 0.096282 0.000000
O O4 0.840540 0.643864 0.653601
O O5 0.738782 0.515056 0.599008
O O6 0.723980 0.514143 0.709404
O O7 0.936512 0.250000 0.500000
O O8 0.855172 0.144829 0.417283
O O9 0.840242 0.340242 0.416890
O O10 0.602122 0.102122 0.231421
O O11 0.743007 0.995630 0.180256
O O12 0.589725 0.904330 0.222897
O O13 0.407110 0.592891 0.818788
#
# Coordination Sequence:
#
# PCOD8313606 Si02
#       5
#    16  16  16  16  16
#     4   9  17  31  55  84 112 146 192 241 290 337
#     4  11  23  38  60  88 118 154 197 246 296 344
#     4   9  20  40  63  86 117 158 197 238 294 353
#     4  11  23  39  59  85 117 153 195 238 289 353
#     4  11  22  36  59  85 113 155 194 237 293 345
#
# _framework density 19.024588999999999
#
# number of rings (size 3 to 8) (size 9 to 14) (size 15 to 20)
#    0.000    1.800    4.000    1.800    0.000    4.400 
#    0.000    3.000    0.000    0.000    0.000    0.000 
#    0.000    0.000    0.000    0.000    0.000    0.000 
#
# Total GULP energy -991611.907926 kJ/mol
# GULP energy per Si atom -12395.148849 kJ/mol
# Density = 1.898129 g / cm^3
# Si number density = 19.024589 Si / 1000 Ang^3
#
#
#
# Elastic Constant Matrix: (Units=GPa)
#
#
# Indices 1 2 3 4 5 6 
#
# 1 98.4141 44.1047 41.4827 0.0000 0.0000 0.0000
# 2 44.1047 98.4141 41.4827 0.0000 0.0000 0.0000
# 3 41.4827 41.4827 97.8909 0.0000 0.0000 0.0000
# 4 0.0000 0.0000 0.0000 22.9933 0.0000 0.0000
# 5 0.0000 0.0000 0.0000 0.0000 22.9933 0.0000
# 6 0.0000 0.0000 0.0000 0.0000 0.0000 21.6167
#
#
#
# Elastic Compliance Matrix: (Units=1/GPa)
#
#
# Indices 1 2 3 4 5 6 
#
# 1 0.013864 -0.004549 -0.003947 0.000000 0.000000 0.000000
# 2 -0.004549 0.013864 -0.003947 0.000000 0.000000 0.000000
# 3 -0.003947 -0.003947 0.013561 0.000000 0.000000 0.000000
# 4 0.000000 0.000000 0.000000 0.043491 0.000000 0.000000
# 5 0.000000 0.000000 0.000000 0.000000 0.043491 0.000000
# 6 0.000000 0.000000 0.000000 0.000000 0.000000 0.046261
#
#
# Mechanical properties :
#
#
# Convention : Reuss Voigt Hill
#
# Bulk Modulus (GPa) = 60.97162 60.98438 60.97800
# Shear Modulus (GPa) = 24.40398 24.69726 24.55062
#
# Velocity S-wave (km/s) = 3.58545 3.60693 3.59621
# Velocity P-wave (km/s) = 7.01848 7.03361 7.02605
#
# Compressibility (1/GPa) = 0.01640107
#
# Stress axis : x y z
#
# Youngs Moduli (GPa) = 72.13087 72.13087 73.74229
#
# Poissons Ratio (x) = 0.32815 0.29107
# Poissons Ratio (y) = 0.32815 0.29107
# Poissons Ratio (z) = 0.28471 0.28471
#
# Static dielectric constant tensor:
#      x y z
#    x 3.293160 0.000000 0.000000 
#    y 0.000000 3.293160 0.000000 
#    z 0.000000 0.000000 3.538570 
# 
# 
# High freq. dielectric constant tensor:
#      x y z
#    x 1.728740 0.000000 0.000000 
#    y 0.000000 1.728740 0.000000 
#    z 0.000000 0.000000 1.746790 
# 
# From -- ./inp_files/5808.got.cif
#   From: 2010.03.12/outbox.cif.g09.slc.cpg/sg125_3_cif.got.tgz:5808.got - 2010.04.06 16:47:52.
