data_PCOD8313334
_publ_section_title
;
Structure prediction by ZEFSAII (Michael W. Deem and Ramdas Pophale) SiO2 
 PCOD8313334
Probable space group: P 4/M C C
;
_chemical_formula_sum "Si O2"
_cell_formula_units_Z 96
_cell_length_a 15.326911
_cell_length_b 15.326911
_cell_length_c 20.537174
_cell_angle_alpha 90.000000
_cell_angle_beta 90.000000
_cell_angle_gamma 90.000000
_cell_volume 4824.473817
_symmetry_space_group_name_H-M "P 4/M C C"
_symmetry_group_IT_number 124
_symmetry_cell_setting 'tetragonal'
loop_
_space_group_symop_operation_xyz
x,y,z
-y,x,z
-x,-y,z
y,-x,z
x,-y,1/2-z
-x,y,1/2-z
y,x,1/2-z
-y,-x,1/2-z
-x,-y,-z
y,-x,-z
x,y,-z
-y,x,-z
-x,y,1/2+z
x,-y,1/2+z
-y,-x,1/2+z
y,x,1/2+z
loop_
_atom_site_type_symbol
_atom_site_label
_atom_site_fract_x
_atom_site_fract_y
_atom_site_fract_z
Si Si1 0.508351 0.799611 0.853553
Si Si2 0.319358 0.700200 0.500000
Si Si3 0.915733 0.882481 0.000000
Si Si4 0.789057 0.801367 0.601224
Si Si5 0.247641 0.511694 0.500000
Si Si6 0.098858 0.322743 0.675089
Si Si7 0.349249 0.093059 0.322834
Si Si8 0.352879 0.500000 0.750000
O O1 0.486616 0.803741 0.931065
O O2 0.606632 0.829245 0.843724
O O3 0.447948 0.872422 0.819720
O O4 0.496700 0.706512 0.816005
O O5 0.280182 0.751661 0.561064
O O6 0.304267 0.597889 0.500000
O O7 0.423325 0.697919 0.500000
O O8 0.880806 0.830687 0.938078
O O9 0.019662 0.879159 0.000000
O O10 0.866543 0.768673 0.647514
O O11 0.705858 0.837527 0.637800
O O12 0.089641 0.309893 0.751405
O O13 0.003612 0.346032 0.645326
O O14 0.413296 0.413296 0.750000
#
# Coordination Sequence:
#
# PCOD8313334 Si02
#       8
#    16   8   8  16   8  16  16   8
#     4  12  24  43  69  91 135 173 220 271 330 390
#     4  11  24  42  64  86 126 165 222 248 328 383
#     4  10  22  41  64  89 124 170 214 266 336 406
#     4  11  22  40  64  93 125 168 211 272 320 399
#     4  12  26  43  61 100 124 170 212 270 319 385
#     4  11  23  40  65  97 129 169 219 270 329 392
#     4  11  23  40  65  97 129 169 219 270 329 392
#     4  11  28  46  67 100 132 174 229 276 324 389
#
# _framework density 19.898544000000001
#
# number of rings (size 3 to 8) (size 9 to 14) (size 15 to 20)
#    0.000    0.833    5.000    2.000    4.667    1.500 
#    0.000    3.333    0.000    0.000    0.000    7.000 
#    0.000    0.000    0.000    0.000    0.000    0.000 
#
# Total GULP energy -1190050.073355 kJ/mol
# GULP energy per Si atom -12396.354931 kJ/mol
# Density = 1.985325 g / cm^3
# Si number density = 19.898544 Si / 1000 Ang^3
#
#
#
# Elastic Constant Matrix: (Units=GPa)
#
#
# Indices 1 2 3 4 5 6 
#
# 1 95.2527 20.3086 19.9348 0.0000 0.0000 0.0000
# 2 20.3086 95.2527 19.9348 0.0000 0.0000 0.0000
# 3 19.9348 19.9348 98.2645 0.0000 0.0000 0.0000
# 4 0.0000 0.0000 0.0000 11.7565 0.0000 0.0000
# 5 0.0000 0.0000 0.0000 0.0000 11.7565 0.0000
# 6 0.0000 0.0000 0.0000 0.0000 0.0000 31.0113
#
#
#
# Elastic Compliance Matrix: (Units=1/GPa)
#
#
# Indices 1 2 3 4 5 6 
#
# 1 0.011324 -0.002019 -0.001888 0.000000 0.000000 0.000000
# 2 -0.002019 0.011324 -0.001888 0.000000 0.000000 0.000000
# 3 -0.001888 -0.001888 0.010942 0.000000 0.000000 0.000000
# 4 0.000000 0.000000 0.000000 0.085060 0.000000 0.000000
# 5 0.000000 0.000000 0.000000 0.000000 0.085060 0.000000
# 6 0.000000 0.000000 0.000000 0.000000 0.000000 0.032246
#
#
# Mechanical properties :
#
#
# Convention : Reuss Voigt Hill
#
# Bulk Modulus (GPa) = 45.45181 45.45846 45.45513
# Shear Modulus (GPa) = 19.61716 26.14429 22.88073
#
# Velocity S-wave (km/s) = 3.14325 3.62868 3.39465
# Velocity P-wave (km/s) = 6.00539 6.36012 6.18530
#
# Compressibility (1/GPa) = 0.02200133
#
# Stress axis : x y z
#
# Youngs Moduli (GPa) = 88.30820 88.30820 91.38690
#
# Poissons Ratio (x) = 0.17832 0.17250
# Poissons Ratio (y) = 0.17832 0.17250
# Poissons Ratio (z) = 0.16669 0.16669
#
# Static dielectric constant tensor:
#      x y z
#    x 3.648160 0.000000 0.000000 
#    y 0.000000 3.648160 0.000000 
#    z 0.000000 0.000000 3.879560 
# 
# 
# High freq. dielectric constant tensor:
#      x y z
#    x 1.782140 0.000000 0.000000 
#    y 0.000000 1.782140 0.000000 
#    z 0.000000 0.000000 1.781760 
# 
# From -- ./inp_files/5412.got.cif
#   From: 2010.03.12/outbox.cif.g09.slc.cpg/sg124_3_cif.got.tgz:5412.got - 2010.04.06 16:38:57.
