data_PCOD8313768
_publ_section_title
;
Structure prediction by ZEFSAII (Michael W. Deem and Ramdas Pophale) SiO2 
 PCOD8313768
Probable space group: P 4/N N C
;
_chemical_formula_sum "Si O2"
_cell_formula_units_Z 68
_cell_length_a 11.565484
_cell_length_b 11.565484
_cell_length_c 26.246246
_cell_angle_alpha 90.000000
_cell_angle_beta 90.000000
_cell_angle_gamma 90.000000
_cell_volume 3510.708892
_symmetry_space_group_name_H-M "P 4/N N C"
_symmetry_group_IT_number 126
_space_group.IT_coordinate_system_code '2'
_symmetry_cell_setting 'tetragonal'
loop_
_space_group_symop_operation_xyz
x,y,z
1/2-y,x,z
1/2-x,1/2-y,z
y,1/2-x,z
x,1/2-y,1/2-z
1/2-x,y,1/2-z
y,x,1/2-z
1/2-y,1/2-x,1/2-z
-x,-y,-z
1/2+y,-x,-z
1/2+x,1/2+y,-z
-y,1/2+x,-z
-x,1/2+y,1/2+z
1/2+x,-y,1/2+z
-y,-x,1/2+z
1/2+y,1/2+x,1/2+z
loop_
_atom_site_type_symbol
_atom_site_label
_atom_site_fract_x
_atom_site_fract_y
_atom_site_fract_z
Si Si1 0.049280 0.527800 0.892068
Si Si2 0.368581 0.104951 0.308882
Si Si3 0.250000 0.750000 0.000000
Si Si4 0.080909 0.181893 0.463418
Si Si5 0.529975 0.296836 0.566699
O O1 0.187544 0.509878 0.895545
O O2 0.001723 0.571341 0.837917
O O3 0.028718 0.623586 0.936479
O O4 0.978515 0.409811 0.898841
O O5 0.408919 0.233826 0.323728
O O6 0.403573 0.096428 0.250000
O O7 0.296995 0.650394 0.963237
O O8 0.187398 0.101665 0.445282
O O9 0.070113 0.187519 0.524381
#
# Coordination Sequence:
#
# PCOD8313768 Si02
#       5
#    16  16   4  16  16
#     4  12  24  38  58  87 118 165 200 247 298 359
#     4   9  20  42  69  92 113 143 194 256 310 360
#     4  12  24  36  52  88 130 156 192 260 288 336
#     4  11  21  37  57  79 113 158 207 241 281 344
#     4  12  24  37  54  82 127 163 203 236 292 354
#
# _framework density 19.369308
#
# number of rings (size 3 to 8) (size 9 to 14) (size 15 to 20)
#    0.000    0.941    4.706    4.235    3.294    2.353 
#    0.000    1.176    0.000    2.824    0.000    1.647 
#    0.000    0.000    0.000    0.000    0.000    0.000 
#
# Total GULP energy -842782.383926 kJ/mol
# GULP energy per Si atom -12393.858587 kJ/mol
# Density = 1.932522 g / cm^3
# Si number density = 19.369308 Si / 1000 Ang^3
#
#
#
# Elastic Constant Matrix: (Units=GPa)
#
#
# Indices 1 2 3 4 5 6 
#
# 1 83.7839 28.2183 31.8630 0.0000 0.0000 0.0000
# 2 28.2183 83.7841 31.8630 0.0000 0.0000 0.0000
# 3 31.8630 31.8630 87.4882 0.0000 0.0000 0.0000
# 4 0.0000 0.0000 0.0000 33.4316 0.0000 0.0000
# 5 0.0000 0.0000 0.0000 0.0000 33.4316 0.0000
# 6 0.0000 0.0000 0.0000 0.0000 0.0000 18.9395
#
#
#
# Elastic Compliance Matrix: (Units=1/GPa)
#
#
# Indices 1 2 3 4 5 6 
#
# 1 0.014629 -0.003367 -0.004102 0.000000 0.000000 0.000000
# 2 -0.003367 0.014629 -0.004102 0.000000 0.000000 0.000000
# 3 -0.004102 -0.004102 0.014418 0.000000 0.000000 0.000000
# 4 0.000000 0.000000 0.000000 0.029912 0.000000 0.000000
# 5 0.000000 0.000000 0.000000 0.000000 0.029912 0.000000
# 6 0.000000 0.000000 0.000000 0.000000 0.000000 0.052800
#
#
# Mechanical properties :
#
#
# Convention : Reuss Voigt Hill
#
# Bulk Modulus (GPa) = 48.69641 48.77164 48.73402
# Shear Modulus (GPa) = 26.84042 28.03467 27.43755
#
# Velocity S-wave (km/s) = 3.72656 3.80857 3.76779
# Velocity P-wave (km/s) = 6.61150 6.67643 6.64405
#
# Compressibility (1/GPa) = 0.02053540
#
# Stress axis : x y z
#
# Youngs Moduli (GPa) = 68.35542 68.35555 69.35907
#
# Poissons Ratio (x) = 0.23017 0.28449
# Poissons Ratio (y) = 0.23017 0.28449
# Poissons Ratio (z) = 0.28037 0.28037
#
# Static dielectric constant tensor:
#      x y z
#    x 3.583350 0.000000 0.000000 
#    y 0.000000 3.583360 0.000000 
#    z 0.000000 0.000000 3.206470 
# 
# 
# High freq. dielectric constant tensor:
#      x y z
#    x 1.758610 0.000000 0.000000 
#    y 0.000000 1.758610 0.000000 
#    z 0.000000 0.000000 1.719530 
# 
# From -- ./inp_files/6117.got.cif
#   From: 2010.03.12/outbox.cif.g09.slc.cpg/sg126_4_cif.got.tgz:6117.got - 2010.04.06 16:55:23.
