data_PCOD8313417
_publ_section_title
;
Structure prediction by ZEFSAII (Michael W. Deem and Ramdas Pophale) SiO2 
 PCOD8313417
Probable space group: P 4/N B M
;
_chemical_formula_sum "Si O2"
_cell_formula_units_Z 112
_cell_length_a 14.361627
_cell_length_b 14.361627
_cell_length_c 27.952132
_cell_angle_alpha 90.000000
_cell_angle_beta 90.000000
_cell_angle_gamma 90.000000
_cell_volume 5765.304164
_symmetry_space_group_name_H-M "P 4/N B M"
_symmetry_group_IT_number 125
_space_group.IT_coordinate_system_code '2'
_symmetry_cell_setting 'tetragonal'
loop_
_space_group_symop_operation_xyz
x,y,z
1/2-y,x,z
1/2-x,1/2-y,z
y,1/2-x,z
x,1/2-y,-z
1/2-x,y,-z
y,x,-z
1/2-y,1/2-x,-z
-x,-y,-z
1/2+y,-x,-z
1/2+x,1/2+y,-z
-y,1/2+x,-z
-x,1/2+y,z
1/2+x,-y,z
-y,-x,z
1/2+y,1/2+x,z
loop_
_atom_site_type_symbol
_atom_site_label
_atom_site_fract_x
_atom_site_fract_y
_atom_site_fract_z
Si Si1 0.248842 0.603679 0.772533
Si Si2 0.313042 0.388948 0.614499
Si Si3 0.989664 0.159054 0.864326
Si Si4 0.506412 0.852401 0.477350
Si Si5 0.745234 0.401777 0.053468
Si Si6 0.649906 0.635527 0.795415
Si Si7 0.373336 0.023328 0.288068
O O1 0.332574 0.667427 0.792678
O O2 0.167772 0.667772 0.749648
O O3 0.210097 0.548327 0.817490
O O4 0.286932 0.536682 0.731523
O O5 0.204363 0.371356 0.605232
O O6 0.344005 0.471197 0.578940
O O7 0.332455 0.418618 0.668479
O O8 0.932355 0.067646 0.878163
O O9 0.984588 0.230902 0.909035
O O10 0.093597 0.125906 0.848436
O O11 0.493128 0.750000 0.500000
O O12 0.594822 0.905179 0.500000
O O13 0.411545 0.911545 0.484534
O O14 0.643051 0.356950 0.063343
O O15 0.819876 0.319876 0.059241
O O16 0.750000 0.444070 0.000000
O O17 0.758921 0.620391 0.789796
O O18 0.593005 0.585026 0.752785
O O19 0.457801 0.957801 0.304971
#
# Coordination Sequence:
#
# PCOD8313417 Si02
#       7
#    16  16  16  16  16  16  16
#     4   9  18  33  53  78 109 144 180 224 282 347
#     4  11  23  40  64  92 124 165 210 255 302 358
#     4  10  18  31  52  78 104 138 182 226 278 344
#     4  11  23  43  71 102 133 167 212 265 320 379
#     4   8  14  26  48  80 113 139 168 220 292 361
#     4  11  22  37  52  72 105 145 191 237 282 330
#     4  11  22  38  57  84 119 152 194 244 298 357
#
# _framework density 19.426555
#
# number of rings (size 3 to 8) (size 9 to 14) (size 15 to 20)
#    0.000    1.857    2.857    2.571    0.000    3.143 
#    0.000    1.429    0.000    2.571    0.000    4.000 
#    0.000    0.000    0.000    0.000    0.000    0.000 
#
# Total GULP energy -1388064.016296 kJ/mol
# GULP energy per Si atom -12393.428717 kJ/mol
# Density = 1.938234 g / cm^3
# Si number density = 19.426555 Si / 1000 Ang^3
#
#
#
# Elastic Constant Matrix: (Units=GPa)
#
#
# Indices 1 2 3 4 5 6 
#
# 1 92.0568 37.0894 36.4242 0.0000 0.0000 0.0000
# 2 37.0894 92.0573 36.4245 0.0000 0.0000 0.0000
# 3 36.4242 36.4245 110.2282 0.0000 0.0000 0.0000
# 4 0.0000 0.0000 0.0000 28.4808 0.0000 0.0000
# 5 0.0000 0.0000 0.0000 0.0000 28.4807 0.0000
# 6 0.0000 0.0000 0.0000 0.0000 0.0000 3.0696
#
#
#
# Elastic Compliance Matrix: (Units=1/GPa)
#
#
# Indices 1 2 3 4 5 6 
#
# 1 0.013855 -0.004338 -0.003145 0.000000 0.000000 0.000000
# 2 -0.004338 0.013855 -0.003145 0.000000 0.000000 0.000000
# 3 -0.003145 -0.003145 0.011151 0.000000 0.000000 0.000000
# 4 0.000000 0.000000 0.000000 0.035111 0.000000 0.000000
# 5 0.000000 0.000000 0.000000 0.000000 0.035111 0.000000
# 6 0.000000 0.000000 0.000000 0.000000 0.000000 0.325780
#
#
# Mechanical properties :
#
#
# Convention : Reuss Voigt Hill
#
# Bulk Modulus (GPa) = 56.80140 57.13539 56.96840
# Shear Modulus (GPa) = 10.82284 24.29982 17.56133
#
# Velocity S-wave (km/s) = 2.36289 3.54058 3.00990
# Velocity P-wave (km/s) = 6.06192 6.79626 6.43956
#
# Compressibility (1/GPa) = 0.01760520
#
# Stress axis : x y z
#
# Youngs Moduli (GPa) = 72.17695 72.17724 89.68206
#
# Poissons Ratio (x) = 0.31308 0.28204
# Poissons Ratio (y) = 0.31308 0.28204
# Poissons Ratio (z) = 0.22699 0.22699
#
# Static dielectric constant tensor:
#      x y z
#    x 3.649980 0.000000 0.000000 
#    y 0.000000 3.649980 0.000000 
#    z 0.000000 0.000000 3.564100 
# 
# 
# High freq. dielectric constant tensor:
#      x y z
#    x 1.752140 0.000000 0.000000 
#    y 0.000000 1.752140 0.000000 
#    z 0.000000 0.000000 1.743880 
# 
# From -- ./inp_files/6244.got.cif
#   From: 2010.03.12/outbox.cif.g09.slc.cpg/sg125_4_cif.got.tgz:6244.got - 2010.04.06 16:47:52.
