data_PCOD8313575
_publ_section_title
;
Structure prediction by ZEFSAII (Michael W. Deem and Ramdas Pophale) SiO2 
 PCOD8313575
Probable space group: P 4/N B M
;
_chemical_formula_sum "Si O2"
_cell_formula_units_Z 96
_cell_length_a 15.108359
_cell_length_b 15.108359
_cell_length_c 21.897211
_cell_angle_alpha 90.000000
_cell_angle_beta 90.000000
_cell_angle_gamma 90.000000
_cell_volume 4998.312381
_symmetry_space_group_name_H-M "P 4/N B M"
_symmetry_group_IT_number 125
_space_group.IT_coordinate_system_code '2'
_symmetry_cell_setting 'tetragonal'
loop_
_space_group_symop_operation_xyz
x,y,z
1/2-y,x,z
1/2-x,1/2-y,z
y,1/2-x,z
x,1/2-y,-z
1/2-x,y,-z
y,x,-z
1/2-y,1/2-x,-z
-x,-y,-z
1/2+y,-x,-z
1/2+x,1/2+y,-z
-y,1/2+x,-z
-x,1/2+y,z
1/2+x,-y,z
-y,-x,z
1/2+y,1/2+x,z
loop_
_atom_site_type_symbol
_atom_site_label
_atom_site_fract_x
_atom_site_fract_y
_atom_site_fract_z
Si Si1 0.175906 0.824095 0.397579
Si Si2 0.895109 0.252161 0.931317
Si Si3 0.917635 0.938183 0.372753
Si Si4 0.012161 0.235388 0.568791
Si Si5 0.995109 0.227372 0.813059
Si Si6 0.587286 0.556376 0.229816
Si Si7 0.823553 0.323553 0.259798
O O1 0.250000 0.750000 0.398507
O O2 0.148549 0.851452 0.328333
O O3 0.090796 0.788793 0.432651
O O4 0.828773 0.171228 0.920856
O O5 0.843869 0.343869 0.919680
O O6 0.975677 0.244501 0.884334
O O7 0.933690 0.250000 0.000000
O O8 0.929807 0.843937 0.404379
O O9 0.822213 0.976229 0.390159
O O10 0.923809 0.923440 0.300830
O O11 0.992924 0.007077 0.395089
O O12 0.045285 0.250000 0.500000
O O13 0.046363 0.310396 0.785796
O O14 0.053393 0.139685 0.808648
O O15 0.905929 0.216591 0.775109
O O16 0.530939 0.469062 0.211726
O O17 0.750000 0.250000 0.263489
#
# Coordination Sequence:
#
# PCOD8313575 Si02
#       7
#     8  16  16  16  16  16   8
#     4  11  24  38  59  93 121 147 200 264 324 371
#     4   9  17  32  57  91 128 166 210 261 310 362
#     4  11  24  44  64  90 125 161 206 260 319 377
#     4  12  26  41  65  87 120 163 204 249 314 383
#     4  12  22  37  61  91 127 163 212 258 312 372
#     4  11  23  39  63  91 124 163 210 262 318 375
#     4  11  20  36  62  87 116 153 205 270 319 355
#
# _framework density 19.206482999999999
#
# number of rings (size 3 to 8) (size 9 to 14) (size 15 to 20)
#    0.000    1.000    2.500    6.000    2.333    4.000 
#    0.000    3.333    0.000    3.000    0.000    1.167 
#    0.000    0.000    0.000    0.000    0.000    0.000 
#
# Total GULP energy -1190989.779300 kJ/mol
# GULP energy per Si atom -12406.143534 kJ/mol
# Density = 1.916277 g / cm^3
# Si number density = 19.206483 Si / 1000 Ang^3
#
#
#
# Elastic Constant Matrix: (Units=GPa)
#
#
# Indices 1 2 3 4 5 6 
#
# 1 95.5611 24.8833 35.3918 0.0000 0.0000 0.0000
# 2 24.8833 95.5611 35.3918 0.0000 0.0000 0.0000
# 3 35.3918 35.3918 99.4525 0.0000 0.0000 0.0000
# 4 0.0000 0.0000 0.0000 19.5324 0.0000 0.0000
# 5 0.0000 0.0000 0.0000 0.0000 19.5324 0.0000
# 6 0.0000 0.0000 0.0000 0.0000 0.0000 34.2225
#
#
#
# Elastic Compliance Matrix: (Units=1/GPa)
#
#
# Indices 1 2 3 4 5 6 
#
# 1 0.012323 -0.001825 -0.003736 0.000000 0.000000 0.000000
# 2 -0.001825 0.012323 -0.003736 0.000000 0.000000 0.000000
# 3 -0.003736 -0.003736 0.012714 0.000000 0.000000 0.000000
# 4 0.000000 0.000000 0.000000 0.051197 0.000000 0.000000
# 5 0.000000 0.000000 0.000000 0.000000 0.051197 0.000000
# 6 0.000000 0.000000 0.000000 0.000000 0.000000 0.029221
#
#
# Mechanical properties :
#
#
# Convention : Reuss Voigt Hill
#
# Bulk Modulus (GPa) = 53.28620 53.54539 53.41580
# Shear Modulus (GPa) = 25.79641 27.65129 26.72385
#
# Velocity S-wave (km/s) = 3.66882 3.79843 3.73419
# Velocity P-wave (km/s) = 6.76396 6.86854 6.81645
#
# Compressibility (1/GPa) = 0.01876659
#
# Stress axis : x y z
#
# Youngs Moduli (GPa) = 81.14618 81.14618 78.65322
#
# Poissons Ratio (x) = 0.14811 0.29384
# Poissons Ratio (y) = 0.14811 0.29384
# Poissons Ratio (z) = 0.30316 0.30316
#
# Static dielectric constant tensor:
#      x y z
#    x 3.560040 0.000000 0.000000 
#    y 0.000000 3.560040 0.000000 
#    z 0.000000 0.000000 3.688740 
# 
# 
# High freq. dielectric constant tensor:
#      x y z
#    x 1.744830 0.000000 0.000000 
#    y 0.000000 1.744830 0.000000 
#    z 0.000000 0.000000 1.752250 
# 
# From -- ./inp_files/5985.got.cif
#   From: 2010.03.12/outbox.cif.g09.slc.cpg/sg125_3_cif.got.tgz:5985.got - 2010.04.06 16:47:52.
