data_PCOD8313580
_publ_section_title
;
Structure prediction by ZEFSAII (Michael W. Deem and Ramdas Pophale) SiO2 
 PCOD8313580
Probable space group: P 4/N B M
;
_chemical_formula_sum "Si O2"
_cell_formula_units_Z 120
_cell_length_a 14.303575
_cell_length_b 14.303575
_cell_length_c 30.565853
_cell_angle_alpha 90.000000
_cell_angle_beta 90.000000
_cell_angle_gamma 90.000000
_cell_volume 6253.536876
_symmetry_space_group_name_H-M "P 4/N B M"
_symmetry_group_IT_number 125
_space_group.IT_coordinate_system_code '2'
_symmetry_cell_setting 'tetragonal'
loop_
_space_group_symop_operation_xyz
x,y,z
1/2-y,x,z
1/2-x,1/2-y,z
y,1/2-x,z
x,1/2-y,-z
1/2-x,y,-z
y,x,-z
1/2-y,1/2-x,-z
-x,-y,-z
1/2+y,-x,-z
1/2+x,1/2+y,-z
-y,1/2+x,-z
-x,1/2+y,z
1/2+x,-y,z
-y,-x,z
1/2+y,1/2+x,z
loop_
_atom_site_type_symbol
_atom_site_label
_atom_site_fract_x
_atom_site_fract_y
_atom_site_fract_z
Si Si1 0.359636 0.140365 0.000000
Si Si2 0.794431 0.603137 0.395122
Si Si3 0.493696 0.148873 0.478849
Si Si4 0.901211 0.246422 0.867068
Si Si5 0.358969 0.144609 0.170956
Si Si6 0.479130 0.669001 0.220373
Si Si7 0.901236 0.725272 0.703394
Si Si8 0.619381 0.534162 0.087901
O O1 0.379735 0.250000 0.000000
O O2 0.419104 0.105286 0.959007
O O3 0.864067 0.689078 0.403701
O O4 0.830130 0.522815 0.427563
O O5 0.793571 0.562941 0.345827
O O6 0.509095 0.250000 0.500000
O O7 0.404591 0.095410 0.500000
O O8 0.586846 0.086846 0.484504
O O9 0.852058 0.147943 0.882055
O O10 0.822424 0.322424 0.859682
O O11 0.952441 0.236573 0.820444
O O12 0.974818 0.284235 0.903949
O O13 0.379117 0.253685 0.181429
O O14 0.435700 0.100175 0.203661
O O15 0.384227 0.121101 0.121102
O O16 0.390956 0.609045 0.234554
O O17 0.510839 0.722551 0.263931
O O18 0.855061 0.825294 0.712084
O O19 0.532112 0.467889 0.097160
#
# Coordination Sequence:
#
# PCOD8313580 Si02
#       8
#     8  16  16  16  16  16  16  16
#     4  11  25  44  60  82 117 151 176 208 268 329
#     4   9  17  33  58  82 111 154 200 251 305 355
#     4  11  22  35  58  90 121 156 204 258 314 375
#     4   9  20  39  61  85 115 148 186 232 273 317
#     4  11  21  35  54  79 111 145 177 220 280 326
#     4  11  21  34  54  83 113 148 192 231 279 336
#     4   9  19  35  53  79 116 154 192 240 299 350
#     4  11  22  40  63  87 111 141 184 225 267 322
#
# _framework density 19.189140999999999
#
# number of rings (size 3 to 8) (size 9 to 14) (size 15 to 20)
#    0.000    1.800    2.667    3.000    0.000    2.933 
#    0.000    0.667    0.000    1.600    0.000    1.867 
#    0.000    0.000    0.000    0.000    0.000    0.000 
#
# Total GULP energy -1486606.305906 kJ/mol
# GULP energy per Si atom -12388.385883 kJ/mol
# Density = 1.914547 g / cm^3
# Si number density = 19.189141 Si / 1000 Ang^3
#
#
#
# Elastic Constant Matrix: (Units=GPa)
#
#
# Indices 1 2 3 4 5 6 
#
# 1 74.0794 24.6790 30.0392 0.0000 0.0000 0.0000
# 2 24.6790 74.0800 30.0392 0.0000 0.0000 0.0000
# 3 30.0392 30.0392 105.5346 0.0000 0.0000 0.0000
# 4 0.0000 0.0000 0.0000 28.2286 0.0000 0.0000
# 5 0.0000 0.0000 0.0000 0.0000 28.2264 0.0000
# 6 0.0000 0.0000 0.0000 0.0000 0.0000 15.0239
#
#
#
# Elastic Compliance Matrix: (Units=1/GPa)
#
#
# Indices 1 2 3 4 5 6 
#
# 1 0.016244 -0.003998 -0.003486 0.000000 0.000000 0.000000
# 2 -0.003998 0.016244 -0.003486 0.000000 0.000000 0.000000
# 3 -0.003486 -0.003486 0.011460 0.000000 0.000000 0.000000
# 4 0.000000 0.000000 0.000000 0.035425 0.000000 0.000000
# 5 0.000000 0.000000 0.000000 0.000000 0.035428 0.000000
# 6 0.000000 0.000000 0.000000 0.000000 0.000000 0.066561
#
#
# Mechanical properties :
#
#
# Convention : Reuss Voigt Hill
#
# Bulk Modulus (GPa) = 45.43525 47.02320 46.22923
# Shear Modulus (GPa) = 23.73740 25.55823 24.64781
#
# Velocity S-wave (km/s) = 3.52095 3.65349 3.58783
# Velocity P-wave (km/s) = 6.34495 6.50812 6.42706
#
# Compressibility (1/GPa) = 0.02200934
#
# Stress axis : x y z
#
# Youngs Moduli (GPa) = 61.55938 61.55996 87.26072
#
# Poissons Ratio (x) = 0.24613 0.30417
# Poissons Ratio (y) = 0.24613 0.30417
# Poissons Ratio (z) = 0.21458 0.21458
#
# Static dielectric constant tensor:
#      x y z
#    x 3.558640 0.000000 0.000000 
#    y 0.000000 3.558640 0.000000 
#    z 0.000000 0.000000 3.525390 
# 
# 
# High freq. dielectric constant tensor:
#      x y z
#    x 1.740190 0.000000 0.000000 
#    y 0.000000 1.740190 0.000000 
#    z 0.000000 0.000000 1.742340 
# 
# From -- ./inp_files/6667.got.cif
#   From: 2010.03.12/outbox.cif.g09.slc.cpg/sg125_4_cif.got.tgz:6667.got - 2010.04.06 16:47:52.
