data_PCOD8313111
_publ_section_title
;
Structure prediction by ZEFSAII (Michael W. Deem and Ramdas Pophale) SiO2 
 PCOD8313111
Probable space group: P 4/M C C
;
_chemical_formula_sum "Si O2"
_cell_formula_units_Z 96
_cell_length_a 30.386923
_cell_length_b 30.386923
_cell_length_c 9.049786
_cell_angle_alpha 90.000000
_cell_angle_beta 90.000000
_cell_angle_gamma 90.000000
_cell_volume 8356.256459
_symmetry_space_group_name_H-M "P 4/M C C"
_symmetry_group_IT_number 124
_symmetry_cell_setting 'tetragonal'
loop_
_space_group_symop_operation_xyz
x,y,z
-y,x,z
-x,-y,z
y,-x,z
x,-y,1/2-z
-x,y,1/2-z
y,x,1/2-z
-y,-x,1/2-z
-x,-y,-z
y,-x,-z
x,y,-z
-y,x,-z
-x,y,1/2+z
x,-y,1/2+z
-y,-x,1/2+z
y,x,1/2+z
loop_
_atom_site_type_symbol
_atom_site_label
_atom_site_fract_x
_atom_site_fract_y
_atom_site_fract_z
Si Si1 0.046518 0.459821 0.829566
Si Si2 0.638468 0.952566 0.672285
Si Si3 0.160677 0.100457 0.665803
Si Si4 0.959245 0.780635 0.336914
Si Si5 0.110844 0.704784 0.834185
Si Si6 0.764170 0.826235 0.667645
O O1 0.073829 0.500000 0.750000
O O2 0.066634 0.411153 0.809913
O O3 0.000000 0.457928 0.750000
O O4 0.041046 0.471979 0.000000
O O5 0.650718 0.958964 0.500000
O O6 0.667442 0.914185 0.742790
O O7 0.645407 0.000000 0.750000
O O8 0.117995 0.117995 0.750000
O O9 0.147222 0.088087 0.500000
O O10 0.176386 0.056577 0.748728
O O11 0.198759 0.136691 0.666475
O O12 0.974552 0.794743 0.500000
O O13 0.920511 0.746225 0.347185
O O14 0.000000 0.758862 0.250000
O O15 0.155377 0.720546 0.751062
O O16 0.122501 0.687972 0.000000
O O17 0.782786 0.782786 0.750000
O O18 0.751233 0.813479 0.500000
#
# Coordination Sequence:
#
# PCOD8313111 Si02
#       6
#    16  16  16  16  16  16
#     4   9  16  25  37  50  63  80 103 130 158 187
#     4  10  19  28  37  50  67  86 107 131 159 189
#     4   9  16  26  39  52  65  81  99 118 138 159
#     4  10  19  28  37  50  67  85 103 120 139 164
#     4  10  19  28  38  51  67  87 108 128 151 178
#     4   9  16  26  39  52  66  83 104 127 148 172
#
# _framework density 11.488398999999999
#
# number of rings (size 3 to 8) (size 9 to 14) (size 15 to 20)
#    0.000    2.500    0.000    4.000    0.000    9.333 
#    0.000    0.000    0.000    0.000    0.000    0.000 
#    0.000    0.333    0.000    3.333    0.000    2.333 
#
# Total GULP energy -1189629.701985 kJ/mol
# GULP energy per Si atom -12391.976062 kJ/mol
# Density = 1.146225 g / cm^3
# Si number density = 11.488399 Si / 1000 Ang^3
#
#
#
# Elastic Constant Matrix: (Units=GPa)
#
#
# Indices 1 2 3 4 5 6 
#
# 1 36.0506 24.5620 32.5731 0.0000 0.0000 0.0000
# 2 24.5620 36.0506 32.5731 0.0000 0.0000 0.0000
# 3 32.5731 32.5731 119.7360 0.0000 0.0000 0.0000
# 4 0.0000 0.0000 0.0000 13.7130 0.0000 0.0000
# 5 0.0000 0.0000 0.0000 0.0000 13.7130 0.0000
# 6 0.0000 0.0000 0.0000 0.0000 0.0000 2.6498
#
#
#
# Elastic Compliance Matrix: (Units=1/GPa)
#
#
# Indices 1 2 3 4 5 6 
#
# 1 0.055179 -0.031863 -0.006343 0.000000 0.000000 0.000000
# 2 -0.031863 0.055179 -0.006343 0.000000 0.000000 0.000000
# 3 -0.006343 -0.006343 0.011803 0.000000 0.000000 0.000000
# 4 0.000000 0.000000 0.000000 0.072924 0.000000 0.000000
# 5 0.000000 0.000000 0.000000 0.000000 0.072924 0.000000
# 6 0.000000 0.000000 0.000000 0.000000 0.000000 0.377393
#
#
# Mechanical properties :
#
#
# Convention : Reuss Voigt Hill
#
# Bulk Modulus (GPa) = 30.24579 41.25041 35.74810
# Shear Modulus (GPa) = 6.70674 12.82375 9.76524
#
# Velocity S-wave (km/s) = 2.41878 3.34463 2.91865
# Velocity P-wave (km/s) = 5.84680 7.13439 6.52245
#
# Compressibility (1/GPa) = 0.03306245
#
# Stress axis : x y z
#
# Youngs Moduli (GPa) = 18.12289 18.12289 84.72654
#
# Poissons Ratio (x) = 0.57746 0.53740
# Poissons Ratio (y) = 0.57746 0.53740
# Poissons Ratio (z) = 0.11495 0.11495
#
# Static dielectric constant tensor:
#      x y z
#    x 2.431500 0.000000 0.000000 
#    y 0.000000 2.431500 0.000000 
#    z 0.000000 0.000000 2.744030 
# 
# 
# High freq. dielectric constant tensor:
#      x y z
#    x 1.393700 0.000000 0.000000 
#    y 0.000000 1.393700 0.000000 
#    z 0.000000 0.000000 1.462450 
# 
# From -- ./inp_files/1486.got.cif
#   From: 2010.03.12/outbox.cif.g09.slc.cpg/sg124_1_cif.got.tgz:1486.got - 2010.04.06 16:38:57.
