data_PCOD8313280
_publ_section_title
;
Structure prediction by ZEFSAII (Michael W. Deem and Ramdas Pophale) SiO2 
 PCOD8313280
Probable space group: P 4/M C C
;
_chemical_formula_sum "Si O2"
_cell_formula_units_Z 72
_cell_length_a 14.154724
_cell_length_b 14.154724
_cell_length_c 17.791022
_cell_angle_alpha 90.000000
_cell_angle_beta 90.000000
_cell_angle_gamma 90.000000
_cell_volume 3564.541767
_symmetry_space_group_name_H-M "P 4/M C C"
_symmetry_group_IT_number 124
_symmetry_cell_setting 'tetragonal'
loop_
_space_group_symop_operation_xyz
x,y,z
-y,x,z
-x,-y,z
y,-x,z
x,-y,1/2-z
-x,y,1/2-z
y,x,1/2-z
-y,-x,1/2-z
-x,-y,-z
y,-x,-z
x,y,-z
-y,x,-z
-x,y,1/2+z
x,-y,1/2+z
-y,-x,1/2+z
y,x,1/2+z
loop_
_atom_site_type_symbol
_atom_site_label
_atom_site_fract_x
_atom_site_fract_y
_atom_site_fract_z
Si Si1 0.107555 0.682732 0.727123
Si Si2 0.689980 0.632439 0.583544
Si Si3 0.539707 0.737560 0.326836
Si Si4 0.862138 0.931576 0.000000
Si Si5 0.212782 0.817841 0.630522
O O1 0.162847 0.592904 0.691589
O O2 0.118551 0.768365 0.666234
O O3 0.156805 0.714795 0.803558
O O4 0.000000 0.658383 0.750000
O O5 0.654628 0.605885 0.500000
O O6 0.754689 0.546920 0.615466
O O7 0.603277 0.654107 0.638929
O O8 0.747226 0.730174 0.577044
O O9 0.500000 0.695195 0.250000
O O10 0.811282 0.906806 0.921658
O O11 0.957914 0.873089 0.000000
#
# Coordination Sequence:
#
# PCOD8313280 Si02
#       5
#    16  16  16   8  16
#     4  10  21  38  63  90 120 162 207 253 308 366
#     4  11  22  40  62  87 124 164 200 252 309 371
#     4  11  22  39  63  91 121 158 207 253 305 362
#     4  11  22  36  60  92 124 161 208 260 308 367
#     4  10  20  38  61  85 123 163 202 250 309 368
#
# _framework density 20.198948999999999
#
# number of rings (size 3 to 8) (size 9 to 14) (size 15 to 20)
#    0.000    1.444    3.333    2.667    0.000    0.889 
#    0.000    2.222    0.000    6.667    0.000    0.000 
#    0.000    0.000    0.000    0.000    0.000    0.000 
#
# Total GULP energy -892142.681270 kJ/mol
# GULP energy per Si atom -12390.870573 kJ/mol
# Density = 2.015298 g / cm^3
# Si number density = 20.198949 Si / 1000 Ang^3
#
#
#
# Elastic Constant Matrix: (Units=GPa)
#
#
# Indices 1 2 3 4 5 6 
#
# 1 114.0802 11.0512 40.2293 0.0000 0.0000 0.0000
# 2 11.0512 114.0802 40.2293 0.0000 0.0000 0.0000
# 3 40.2293 40.2293 123.5199 0.0000 0.0000 0.0000
# 4 0.0000 0.0000 0.0000 29.2375 0.0000 0.0000
# 5 0.0000 0.0000 0.0000 0.0000 29.2375 0.0000
# 6 0.0000 0.0000 0.0000 0.0000 0.0000 34.9568
#
#
#
# Elastic Compliance Matrix: (Units=1/GPa)
#
#
# Indices 1 2 3 4 5 6 
#
# 1 0.009907 0.000201 -0.003292 0.000000 0.000000 0.000000
# 2 0.000201 0.009907 -0.003292 0.000000 0.000000 0.000000
# 3 -0.003292 -0.003292 0.010240 0.000000 0.000000 0.000000
# 4 0.000000 0.000000 0.000000 0.034203 0.000000 0.000000
# 5 0.000000 0.000000 0.000000 0.000000 0.034203 0.000000
# 6 0.000000 0.000000 0.000000 0.000000 0.000000 0.028607
#
#
# Mechanical properties :
#
#
# Convention : Reuss Voigt Hill
#
# Bulk Modulus (GPa) = 57.84236 59.41112 58.62674
# Shear Modulus (GPa) = 34.34153 36.03104 35.18629
#
# Velocity S-wave (km/s) = 4.12778 4.22810 4.17824
# Velocity P-wave (km/s) = 7.17053 7.30155 7.23634
#
# Compressibility (1/GPa) = 0.01728837
#
# Stress axis : x y z
#
# Youngs Moduli (GPa) = 100.93622 100.93622 97.65265
#
# Poissons Ratio (x) = -0.02031 0.32150
# Poissons Ratio (y) = -0.02031 0.32150
# Poissons Ratio (z) = 0.33231 0.33231
#
# Static dielectric constant tensor:
#      x y z
#    x 3.558820 0.000000 0.000000 
#    y 0.000000 3.558820 0.000000 
#    z 0.000000 0.000000 3.797790 
# 
# 
# High freq. dielectric constant tensor:
#      x y z
#    x 1.775240 0.000000 0.000000 
#    y 0.000000 1.775240 0.000000 
#    z 0.000000 0.000000 1.806250 
# 
# From -- ./inp_files/4035.got.cif
#   From: 2010.03.12/outbox.cif.g09.slc.cpg/sg124_3_cif.got.tgz:4035.got - 2010.04.06 16:38:57.
