data_PCOD8313820
_publ_section_title
;
Structure prediction by ZEFSAII (Michael W. Deem and Ramdas Pophale) SiO2 
 PCOD8313820
Probable space group: P 4/N N C
;
_chemical_formula_sum "Si O2"
_cell_formula_units_Z 60
_cell_length_a 18.714115
_cell_length_b 18.714115
_cell_length_c 8.240508
_cell_angle_alpha 90.000000
_cell_angle_beta 90.000000
_cell_angle_gamma 90.000000
_cell_volume 2885.975057
_symmetry_space_group_name_H-M "P 4/N N C"
_symmetry_group_IT_number 126
_space_group.IT_coordinate_system_code '2'
_symmetry_cell_setting 'tetragonal'
loop_
_space_group_symop_operation_xyz
x,y,z
1/2-y,x,z
1/2-x,1/2-y,z
y,1/2-x,z
x,1/2-y,1/2-z
1/2-x,y,1/2-z
y,x,1/2-z
1/2-y,1/2-x,1/2-z
-x,-y,-z
1/2+y,-x,-z
1/2+x,1/2+y,-z
-y,1/2+x,-z
-x,1/2+y,1/2+z
1/2+x,-y,1/2+z
-y,-x,1/2+z
1/2+y,1/2+x,1/2+z
loop_
_atom_site_type_symbol
_atom_site_label
_atom_site_fract_x
_atom_site_fract_y
_atom_site_fract_z
Si Si1 0.833962 0.667663 0.070231
Si Si2 0.750000 0.250000 0.500000
Si Si3 0.168579 0.548210 0.187831
Si Si4 0.314672 0.612637 0.647826
Si Si5 0.600282 0.600282 0.750000
O O1 0.849437 0.750969 0.055201
O O2 0.859834 0.640167 0.250000
O O3 0.872022 0.632377 0.918124
O O4 0.806314 0.294812 0.602480
O O5 0.250000 0.541960 0.250000
O O6 0.122762 0.615184 0.246986
O O7 0.119276 0.482801 0.242462
O O8 0.171847 0.556370 0.994562
O O9 0.250000 0.578199 0.750000
#
# Coordination Sequence:
#
# PCOD8313820 Si02
#       5
#    16   4  16  16   8
#     4   9  18  38  66  92 120 169 239 301 339 377
#     4  12  18  36  74 100 122 156 210 304 354 388
#     4  12  24  43  66  99 134 181 225 279 350 405
#     4  12  22  41  71 102 130 164 227 293 346 410
#     4  12  26  41  60  96 148 184 222 263 338 426
#
# _framework density 20.790199999999999
#
# number of rings (size 3 to 8) (size 9 to 14) (size 15 to 20)
#    0.000    0.800    5.333    3.600    0.000    2.133 
#   14.400    0.000    0.000    0.000    0.000    0.000 
#    0.000    0.000    0.000    0.000    0.000    0.000 
#
# Total GULP energy -743619.116446 kJ/mol
# GULP energy per Si atom -12393.651941 kJ/mol
# Density = 2.074288 g / cm^3
# Si number density = 20.790200 Si / 1000 Ang^3
#
#
#
# Elastic Constant Matrix: (Units=GPa)
#
#
# Indices 1 2 3 4 5 6 
#
# 1 121.9600 29.3140 60.4426 0.0000 0.0000 0.0000
# 2 29.3140 121.9619 60.4423 0.0000 0.0000 0.0000
# 3 60.4426 60.4423 177.5195 0.0000 0.0000 0.0000
# 4 0.0000 0.0000 0.0000 1.4142 0.0000 0.0000
# 5 0.0000 0.0000 0.0000 0.0000 1.4150 0.0000
# 6 0.0000 0.0000 0.0000 0.0000 0.0000 21.8014
#
#
#
# Elastic Compliance Matrix: (Units=1/GPa)
#
#
# Indices 1 2 3 4 5 6 
#
# 1 0.009938 -0.000856 -0.003092 0.000000 0.000000 0.000000
# 2 -0.000856 0.009937 -0.003092 0.000000 0.000000 0.000000
# 3 -0.003092 -0.003092 0.007739 0.000000 0.000000 0.000000
# 4 0.000000 0.000000 0.000000 0.707134 0.000000 0.000000
# 5 0.000000 0.000000 0.000000 0.000000 0.706700 0.000000
# 6 0.000000 0.000000 0.000000 0.000000 0.000000 0.045869
#
#
# Mechanical properties :
#
#
# Convention : Reuss Voigt Hill
#
# Bulk Modulus (GPa) = 73.89192 80.20435 77.04814
# Shear Modulus (GPa) = 3.32026 23.00894 13.16460
#
# Velocity S-wave (km/s) = 1.26511 3.33035 2.51910
# Velocity P-wave (km/s) = 6.14434 7.31095 6.75288
#
# Compressibility (1/GPa) = 0.01353328
#
# Stress axis : x y z
#
# Youngs Moduli (GPa) = 100.62774 100.62983 129.21947
#
# Poissons Ratio (x) = 0.08615 0.39956
# Poissons Ratio (y) = 0.08615 0.39955
# Poissons Ratio (z) = 0.31115 0.31115
#
# Static dielectric constant tensor:
#      x y z
#    x 3.645010 0.000000 0.000000 
#    y 0.000000 3.644990 0.000000 
#    z 0.000000 0.000000 4.143600 
# 
# 
# High freq. dielectric constant tensor:
#      x y z
#    x 1.801050 0.000000 0.000000 
#    y 0.000000 1.801050 0.000000 
#    z 0.000000 0.000000 1.839290 
# 
# From -- ./inp_files/1319.got.cif
#   From: 2010.03.12/outbox.cif.g09.slc.cpg/sg126_1_cif.got.tgz:1319.got - 2010.04.06 16:55:23.
