data_PCOD8313459
_publ_section_title
;
Structure prediction by ZEFSAII (Michael W. Deem and Ramdas Pophale) SiO2 
 PCOD8313459
Probable space group: P 4/N B M
;
_chemical_formula_sum "Si O2"
_cell_formula_units_Z 120
_cell_length_a 29.179091
_cell_length_b 29.179091
_cell_length_c 7.589294
_cell_angle_alpha 90.000000
_cell_angle_beta 90.000000
_cell_angle_gamma 90.000000
_cell_volume 6461.671776
_symmetry_space_group_name_H-M "P 4/N B M"
_symmetry_group_IT_number 125
_space_group.IT_coordinate_system_code '2'
_symmetry_cell_setting 'tetragonal'
loop_
_space_group_symop_operation_xyz
x,y,z
1/2-y,x,z
1/2-x,1/2-y,z
y,1/2-x,z
x,1/2-y,-z
1/2-x,y,-z
y,x,-z
1/2-y,1/2-x,-z
-x,-y,-z
1/2+y,-x,-z
1/2+x,1/2+y,-z
-y,1/2+x,-z
-x,1/2+y,z
1/2+x,-y,z
-y,-x,z
1/2+y,1/2+x,z
loop_
_atom_site_type_symbol
_atom_site_label
_atom_site_fract_x
_atom_site_fract_y
_atom_site_fract_z
Si Si1 0.569356 0.930645 0.000000
Si Si2 0.393420 0.142812 0.746505
Si Si3 0.766059 0.036394 0.199615
Si Si4 0.418668 0.182395 0.372689
Si Si5 0.271669 0.434515 0.815332
Si Si6 0.168694 0.522574 0.686446
Si Si7 0.102818 0.529822 0.990242
Si Si8 0.142470 0.567459 0.331562
O O1 0.601065 0.921343 0.829713
O O2 0.517444 0.922446 0.945397
O O3 0.417196 0.166693 0.575471
O O4 0.342115 0.125019 0.719624
O O5 0.398442 0.187667 0.868452
O O6 0.720956 0.040361 0.322965
O O7 0.804833 0.072806 0.262457
O O8 0.788083 0.985802 0.239764
O O9 0.750000 0.045328 0.000000
O O10 0.413652 0.236629 0.331271
O O11 0.467419 0.165590 0.302526
O O12 0.250000 0.444772 0.000000
O O13 0.147782 0.537902 0.872631
O O14 0.140776 0.543570 0.522872
O O15 0.068641 0.568641 0.928226
O O16 0.115631 0.534324 0.195904
O O17 0.117210 0.617210 0.340018
#
# Coordination Sequence:
#
# PCOD8313459 Si02
#       8
#     8  16  16  16  16  16  16  16
#     4  12  21  36  54  74 110 157 202 236 284 334
#     4  11  21  33  55  77 109 143 186 237 291 346
#     4  10  19  35  60  86 113 148 194 243 297 342
#     4  10  21  35  53  84 107 140 189 243 286 345
#     4  10  20  33  55  83 109 141 188 242 299 348
#     4  11  20  38  59  81 114 151 196 239 289 338
#     4  11  23  37  53  78 116 158 200 241 282 338
#     4  11  23  38  57  86 120 156 193 238 293 348
#
# _framework density 18.571045000000002
#
# number of rings (size 3 to 8) (size 9 to 14) (size 15 to 20)
#    0.000    1.333    2.667    4.600    1.867    2.133 
#    0.000    0.000    0.000    3.600    0.000    2.800 
#    0.000   14.667    0.000    0.000    0.000    0.000 
#
# Total GULP energy -1486720.976641 kJ/mol
# GULP energy per Si atom -12389.341472 kJ/mol
# Density = 1.852878 g / cm^3
# Si number density = 18.571045 Si / 1000 Ang^3
#
#
#
# Elastic Constant Matrix: (Units=GPa)
#
#
# Indices 1 2 3 4 5 6 
#
# 1 91.5211 54.3214 20.5655 0.0000 0.0000 0.0000
# 2 54.3214 91.5229 20.5663 0.0000 0.0000 0.0000
# 3 20.5655 20.5663 65.1747 0.0000 0.0000 0.0000
# 4 0.0000 0.0000 0.0000 24.9067 0.0000 0.0000
# 5 0.0000 0.0000 0.0000 0.0000 24.9070 0.0000
# 6 0.0000 0.0000 0.0000 0.0000 0.0000 31.4280
#
#
#
# Elastic Compliance Matrix: (Units=1/GPa)
#
#
# Indices 1 2 3 4 5 6 
#
# 1 0.017204 -0.009677 -0.002375 0.000000 0.000000 0.000000
# 2 -0.009677 0.017204 -0.002375 0.000000 0.000000 0.000000
# 3 -0.002375 -0.002375 0.016842 0.000000 0.000000 0.000000
# 4 0.000000 0.000000 0.000000 0.040150 0.000000 0.000000
# 5 0.000000 0.000000 0.000000 0.000000 0.040149 0.000000
# 6 0.000000 0.000000 0.000000 0.000000 0.000000 0.031819
#
#
# Mechanical properties :
#
#
# Convention : Reuss Voigt Hill
#
# Bulk Modulus (GPa) = 44.65230 48.79167 46.72198
# Shear Modulus (GPa) = 25.03909 26.43270 25.73589
#
# Velocity S-wave (km/s) = 3.67589 3.77680 3.72668
# Velocity P-wave (km/s) = 6.48941 6.73416 6.61292
#
# Compressibility (1/GPa) = 0.02239526
#
# Stress axis : x y z
#
# Youngs Moduli (GPa) = 58.12596 58.12682 59.37454
#
# Poissons Ratio (x) = 0.56252 0.14101
# Poissons Ratio (y) = 0.56251 0.14102
# Poissons Ratio (z) = 0.13804 0.13806
#
# Static dielectric constant tensor:
#      x y z
#    x 3.615940 0.000000 0.000000 
#    y 0.000000 3.615950 0.000000 
#    z 0.000000 0.000000 3.649100 
# 
# 
# High freq. dielectric constant tensor:
#      x y z
#    x 1.702080 0.000000 0.000000 
#    y 0.000000 1.702080 0.000000 
#    z 0.000000 0.000000 1.742540 
# 
# From -- ./inp_files/3114.got.cif
#   From: 2010.03.12/outbox.cif.g09.slc.cpg/sg125_2_cif.got.tgz:3114.got - 2010.04.06 16:47:52.
