data_PCOD8313005
_publ_section_title
;
Structure prediction by ZEFSAII (Michael W. Deem and Ramdas Pophale) SiO2 
 PCOD8313005
Probable space group: P 4/M M M
;
_chemical_formula_sum "Si O2"
_cell_formula_units_Z 120
_cell_length_a 18.153893
_cell_length_b 18.153893
_cell_length_c 26.909458
_cell_angle_alpha 90.000000
_cell_angle_beta 90.000000
_cell_angle_gamma 90.000000
_cell_volume 8868.384070
_symmetry_space_group_name_H-M "P 4/M M M"
_symmetry_group_IT_number 123
_symmetry_cell_setting 'tetragonal'
loop_
_space_group_symop_operation_xyz
x,y,z
-y,x,z
-x,-y,z
y,-x,z
x,-y,-z
-x,y,-z
y,x,-z
-y,-x,-z
-x,-y,-z
y,-x,-z
x,y,-z
-y,x,-z
-x,y,z
x,-y,z
-y,-x,z
y,x,z
loop_
_atom_site_type_symbol
_atom_site_label
_atom_site_fract_x
_atom_site_fract_y
_atom_site_fract_z
Si Si1 0.085388 0.648319 0.099787
Si Si2 0.154619 0.727971 0.443160
Si Si3 0.082597 0.200001 0.943764
Si Si4 0.913826 0.584469 0.596499
Si Si5 0.413902 0.082568 0.000000
Si Si6 0.797723 0.914685 0.647914
Si Si7 0.914304 0.652080 0.301028
Si Si8 0.583504 0.911963 0.798827
O O1 0.096173 0.735558 0.095749
O O2 0.123133 0.611775 0.050806
O O3 0.121248 0.620649 0.151207
O O4 0.000000 0.624749 0.100395
O O5 0.132248 0.741238 0.500000
O O6 0.238399 0.761602 0.433994
O O7 0.142855 0.640538 0.431296
O O8 0.098134 0.774138 0.409241
O O9 0.133319 0.133319 0.927451
O O10 0.000000 0.170150 0.940316
O O11 0.099412 0.228076 0.000000
O O12 0.895953 0.500000 0.580940
O O13 0.900513 0.592346 0.655572
O O14 0.000000 0.603292 0.583967
O O15 0.500000 0.078073 0.000000
O O16 0.378264 0.000000 0.000000
O O17 0.871408 0.871408 0.662205
O O18 0.731776 0.883303 0.682618
O O19 0.813683 0.000000 0.656658
O O20 0.878009 0.624737 0.249439
O O21 0.000000 0.661913 0.291800
O O22 0.500000 0.884371 0.797508
O O23 0.587682 0.000000 0.797969
#
# Coordination Sequence:
#
# PCOD8313005 Si02
#       8
#    16  16  16  16   8  16  16  16
#     4   9  15  23  33  49  70  89 109 137 175 216
#     4   9  17  28  40  54  76 106 134 157 187 235
#     4   9  16  26  38  49  63  86 117 155 196 229
#     4   9  16  25  39  59  80 100 124 158 200 239
#     4   9  14  20  31  46  67  91 108 125 159 210
#     4   9  17  28  41  55  71  96 130 166 203 236
#     4   8  14  25  38  52  72  96 119 147 186 232
#     4   9  15  22  35  54  72  89 110 135 167 215
#
# _framework density 13.531214
#
# number of rings (size 3 to 8) (size 9 to 14) (size 15 to 20)
#    0.000    3.133    0.667    2.000    0.000    4.800 
#    0.000    2.000    0.000    0.000    0.000    1.867 
#    0.000    5.600    0.000    1.467    0.000    0.000 
#
# Total GULP energy -1486651.714490 kJ/mol
# GULP energy per Si atom -12388.764287 kJ/mol
# Density = 1.350042 g / cm^3
# Si number density = 13.531214 Si / 1000 Ang^3
#
#
#
# Elastic Constant Matrix: (Units=GPa)
#
#
# Indices 1 2 3 4 5 6 
#
# 1 61.5031 37.2363 32.7620 0.0000 0.0000 0.0000
# 2 37.2363 61.5031 32.7620 0.0000 0.0000 0.0000
# 3 32.7620 32.7620 101.1346 0.0000 0.0000 0.0000
# 4 0.0000 0.0000 0.0000 12.5195 0.0000 0.0000
# 5 0.0000 0.0000 0.0000 0.0000 12.5195 0.0000
# 6 0.0000 0.0000 0.0000 0.0000 0.0000 7.9593
#
#
#
# Elastic Compliance Matrix: (Units=1/GPa)
#
#
# Indices 1 2 3 4 5 6 
#
# 1 0.027055 -0.014154 -0.004179 0.000000 0.000000 0.000000
# 2 -0.014154 0.027055 -0.004179 0.000000 0.000000 0.000000
# 3 -0.004179 -0.004179 0.012595 0.000000 0.000000 0.000000
# 4 0.000000 0.000000 0.000000 0.079876 0.000000 0.000000
# 5 0.000000 0.000000 0.000000 0.000000 0.079876 0.000000
# 6 0.000000 0.000000 0.000000 0.000000 0.000000 0.125640
#
#
# Mechanical properties :
#
#
# Convention : Reuss Voigt Hill
#
# Bulk Modulus (GPa) = 46.12405 47.74016 46.93210
# Shear Modulus (GPa) = 12.36561 14.69167 13.52864
#
# Velocity S-wave (km/s) = 3.02629 3.29866 3.16541
# Velocity P-wave (km/s) = 6.80973 7.06161 6.93681
#
# Compressibility (1/GPa) = 0.02168066
#
# Stress axis : x y z
#
# Youngs Moduli (GPa) = 36.96201 36.96201 79.39355
#
# Poissons Ratio (x) = 0.52315 0.33180
# Poissons Ratio (y) = 0.52315 0.33180
# Poissons Ratio (z) = 0.15447 0.15447
#
# Static dielectric constant tensor:
#      x y z
#    x 2.504290 0.000000 0.000000 
#    y 0.000000 2.504290 0.000000 
#    z 0.000000 0.000000 2.944940 
# 
# 
# High freq. dielectric constant tensor:
#      x y z
#    x 1.480010 0.000000 0.000000 
#    y 0.000000 1.480010 0.000000 
#    z 0.000000 0.000000 1.523690 
# 
# From -- ./inp_files/8248.got.cif
#   From: 2010.03.12/outbox.cif.g09.slc.cpg/sg123_5_cif.got.tgz:8248.got - 2010.04.06 16:26:55.
