data_PCOD8313813
_publ_section_title
;
Structure prediction by ZEFSAII (Michael W. Deem and Ramdas Pophale) SiO2 
 PCOD8313813
Probable space group: P 4/N N C
;
_chemical_formula_sum "Si O2"
_cell_formula_units_Z 88
_cell_length_a 11.280242
_cell_length_b 11.280242
_cell_length_c 33.506571
_cell_angle_alpha 90.000000
_cell_angle_beta 90.000000
_cell_angle_gamma 90.000000
_cell_volume 4263.505415
_symmetry_space_group_name_H-M "P 4/N N C"
_symmetry_group_IT_number 126
_space_group.IT_coordinate_system_code '2'
_symmetry_cell_setting 'tetragonal'
loop_
_space_group_symop_operation_xyz
x,y,z
1/2-y,x,z
1/2-x,1/2-y,z
y,1/2-x,z
x,1/2-y,1/2-z
1/2-x,y,1/2-z
y,x,1/2-z
1/2-y,1/2-x,1/2-z
-x,-y,-z
1/2+y,-x,-z
1/2+x,1/2+y,-z
-y,1/2+x,-z
-x,1/2+y,1/2+z
1/2+x,-y,1/2+z
-y,-x,1/2+z
1/2+y,1/2+x,1/2+z
loop_
_atom_site_type_symbol
_atom_site_label
_atom_site_fract_x
_atom_site_fract_y
_atom_site_fract_z
Si Si1 0.680315 0.368353 0.905169
Si Si2 0.250000 0.447606 0.250000
Si Si3 0.425932 0.290131 0.795519
Si Si4 0.061575 0.205662 0.945195
Si Si5 0.734386 0.941517 0.963102
Si Si6 0.816788 0.126627 0.816777
O O1 0.750000 0.250000 0.898973
O O2 0.548837 0.337379 0.919650
O O3 0.760829 0.443512 0.935606
O O4 0.675614 0.428561 0.861424
O O5 0.132222 0.367779 0.250000
O O6 0.251965 0.529917 0.210817
O O7 0.336889 0.389613 0.814769
O O8 0.409585 0.250000 0.750000
O O9 0.553373 0.343374 0.801848
O O10 0.163332 0.109721 0.935540
O O11 0.021249 0.213946 0.991252
O O12 0.624574 0.857139 0.953073
O O13 0.750000 0.250000 0.814528
#
# Coordination Sequence:
#
# PCOD8313813 Si02
#       6
#    16   8  16  16  16  16
#     4  11  26  38  60  98 130 166 216 266 324 384
#     4  11  27  48  72  96 121 173 228 264 316 383
#     4   9  19  36  64  97 120 155 208 260 323 394
#     4   9  21  41  64  92 129 171 212 264 329 390
#     4   9  21  41  64  89 122 173 223 264 316 377
#     4  11  25  43  63  94 132 168 210 271 330 379
#
# _framework density 20.640291999999999
#
# number of rings (size 3 to 8) (size 9 to 14) (size 15 to 20)
#    0.000    2.091    0.000    3.000   10.182    4.364 
#    0.000    3.636    0.000    0.000    0.000    0.000 
#    0.000    0.000    0.000    0.000    0.000    0.000 
#
# Total GULP energy -1090150.641946 kJ/mol
# GULP energy per Si atom -12388.075477 kJ/mol
# Density = 2.059331 g / cm^3
# Si number density = 20.640292 Si / 1000 Ang^3
#
#
#
# Elastic Constant Matrix: (Units=GPa)
#
#
# Indices 1 2 3 4 5 6 
#
# 1 81.1388 29.0086 48.1827 0.0000 0.0000 0.0000
# 2 29.0086 81.1385 48.1827 0.0000 0.0000 0.0000
# 3 48.1827 48.1827 127.9607 0.0000 0.0000 0.0000
# 4 0.0000 0.0000 0.0000 -12.5009 0.0000 0.0000
# 5 0.0000 0.0000 0.0000 0.0000 -12.4929 0.0000
# 6 0.0000 0.0000 0.0000 0.0000 0.0000 31.8174
#
#
#
# Elastic Compliance Matrix: (Units=1/GPa)
#
#
# Indices 1 2 3 4 5 6 
#
# 1 0.016361 -0.002822 -0.005098 0.000000 0.000000 0.000000
# 2 -0.002822 0.016361 -0.005098 0.000000 0.000000 0.000000
# 3 -0.005098 -0.005098 0.011654 0.000000 0.000000 0.000000
# 4 0.000000 0.000000 0.000000 -0.079994 0.000000 0.000000
# 5 0.000000 0.000000 0.000000 0.000000 -0.080046 0.000000
# 6 0.000000 0.000000 0.000000 0.000000 0.000000 0.031429
#
#
# Mechanical properties :
#
#
# Convention : Reuss Voigt Hill
#
# Bulk Modulus (GPa) = 54.52577 60.10959 57.31768
# Shear Modulus (GPa) = -95.99596 12.35565 -41.82015
#
# Velocity S-wave (km/s) = -6.82715 2.44932 -4.50615
# Velocity P-wave (km/s) = 5.97262 6.09792 0.86961
#
# Compressibility (1/GPa) = 0.01833995
#
# Stress axis : x y z
#
# Youngs Moduli (GPa) = 61.12175 61.12151 85.80668
#
# Poissons Ratio (x) = 0.17248 0.43744
# Poissons Ratio (y) = 0.17248 0.43744
# Poissons Ratio (z) = 0.31160 0.31160
#
# Static dielectric constant tensor:
#      x y z
#    x 3.801780 0.000000 0.000000 
#    y 0.000000 3.801790 0.000000 
#    z 0.000000 0.000000 3.849570 
# 
# 
# High freq. dielectric constant tensor:
#      x y z
#    x 1.812790 0.000000 0.000000 
#    y 0.000000 1.812790 0.000000 
#    z 0.000000 0.000000 1.801080 
# 
# From -- ./inp_files/6506.got.cif
#   From: 2010.03.12/outbox.cif.g09.slc.cpg/sg126_4_cif.got.tgz:6506.got - 2010.04.06 16:55:23.
