data_PCOD8313711
_publ_section_title
;
Structure prediction by ZEFSAII (Michael W. Deem and Ramdas Pophale) SiO2 
 PCOD8313711
Probable space group: P 4/N N C
;
_chemical_formula_sum "Si O2"
_cell_formula_units_Z 112
_cell_length_a 15.309347
_cell_length_b 15.309347
_cell_length_c 21.986291
_cell_angle_alpha 90.000000
_cell_angle_beta 90.000000
_cell_angle_gamma 90.000000
_cell_volume 5153.061260
_symmetry_space_group_name_H-M "P 4/N N C"
_symmetry_group_IT_number 126
_space_group.IT_coordinate_system_code '2'
_symmetry_cell_setting 'tetragonal'
loop_
_space_group_symop_operation_xyz
x,y,z
1/2-y,x,z
1/2-x,1/2-y,z
y,1/2-x,z
x,1/2-y,1/2-z
1/2-x,y,1/2-z
y,x,1/2-z
1/2-y,1/2-x,1/2-z
-x,-y,-z
1/2+y,-x,-z
1/2+x,1/2+y,-z
-y,1/2+x,-z
-x,1/2+y,1/2+z
1/2+x,-y,1/2+z
-y,-x,1/2+z
1/2+y,1/2+x,1/2+z
loop_
_atom_site_type_symbol
_atom_site_label
_atom_site_fract_x
_atom_site_fract_y
_atom_site_fract_z
Si Si1 0.149496 0.353069 0.460988
Si Si2 0.242162 0.575057 0.866100
Si Si3 0.509662 0.917101 0.621348
Si Si4 0.006468 0.586739 0.297147
Si Si5 0.185680 0.848278 0.032383
Si Si6 0.614422 0.161713 0.288222
Si Si7 0.504896 0.376533 0.539716
O O1 0.127386 0.251742 0.463857
O O2 0.106349 0.385502 0.397455
O O3 0.110506 0.403639 0.520435
O O4 0.177788 0.504944 0.833836
O O5 0.186976 0.645418 0.905229
O O6 0.292025 0.631639 0.815063
O O7 0.306831 0.515416 0.905578
O O8 0.457128 0.839042 0.656539
O O9 0.508326 0.005419 0.658613
O O10 0.464899 0.945999 0.557915
O O11 0.095007 0.578759 0.260570
O O12 0.924074 0.575927 0.250000
O O13 0.291837 0.843556 0.028797
O O14 0.157101 0.947688 0.021958
O O15 0.623362 0.250000 0.250000
#
# Coordination Sequence:
#
# PCOD8313711 Si02
#       7
#    16  16  16  16  16  16  16
#     4  11  26  42  63  92 130 170 222 268 314 385
#     4  10  21  37  62  91 132 172 207 270 335 388
#     4  10  23  41  66  94 126 171 217 266 333 382
#     4  10  22  39  59  90 125 167 220 262 314 387
#     4   9  19  33  55  97 135 160 201 248 327 417
#     4  10  23  40  64  95 126 164 216 273 334 388
#     4  10  22  38  65  95 127 171 212 260 326 397
#
# _framework density 21.734653999999999
#
# number of rings (size 3 to 8) (size 9 to 14) (size 15 to 20)
#    0.000    2.000    0.000    1.714    8.000    6.857 
#    0.000    0.000    0.000    0.000    0.000    0.000 
#    0.000    0.000    0.000    0.000    0.000    0.000 
#
# Total GULP energy -1387786.505262 kJ/mol
# GULP energy per Si atom -12390.950940 kJ/mol
# Density = 2.168518 g / cm^3
# Si number density = 21.734654 Si / 1000 Ang^3
#
#
#
# Elastic Constant Matrix: (Units=GPa)
#
#
# Indices 1 2 3 4 5 6 
#
# 1 109.2699 36.4288 43.7581 0.0000 0.0000 0.0000
# 2 36.4288 109.2691 43.7580 0.0000 0.0000 0.0000
# 3 43.7581 43.7580 82.5379 0.0000 0.0000 0.0000
# 4 0.0000 0.0000 0.0000 29.1937 0.0000 0.0000
# 5 0.0000 0.0000 0.0000 0.0000 29.1942 0.0000
# 6 0.0000 0.0000 0.0000 0.0000 0.0000 18.4483
#
#
#
# Elastic Compliance Matrix: (Units=1/GPa)
#
#
# Indices 1 2 3 4 5 6 
#
# 1 0.011899 -0.001829 -0.005339 0.000000 0.000000 0.000000
# 2 -0.001829 0.011900 -0.005339 0.000000 0.000000 0.000000
# 3 -0.005339 -0.005339 0.017777 0.000000 0.000000 0.000000
# 4 0.000000 0.000000 0.000000 0.034254 0.000000 0.000000
# 5 0.000000 0.000000 0.000000 0.000000 0.034253 0.000000
# 6 0.000000 0.000000 0.000000 0.000000 0.000000 0.054205
#
#
# Mechanical properties :
#
#
# Convention : Reuss Voigt Hill
#
# Bulk Modulus (GPa) = 60.38002 60.99631 60.68817
# Shear Modulus (GPa) = 25.66436 27.17604 26.42020
#
# Velocity S-wave (km/s) = 3.44001 3.53987 3.49030
# Velocity P-wave (km/s) = 6.60447 6.69572 6.65025
#
# Compressibility (1/GPa) = 0.01656177
#
# Stress axis : x y z
#
# Youngs Moduli (GPa) = 84.03756 84.03681 56.25384
#
# Poissons Ratio (x) = 0.15371 0.30033
# Poissons Ratio (y) = 0.15371 0.30033
# Poissons Ratio (z) = 0.44867 0.44867
#
# Static dielectric constant tensor:
#      x y z
#    x 4.152700 0.000000 0.000000 
#    y 0.000000 4.152690 0.000000 
#    z 0.000000 0.000000 4.089150 
# 
# 
# High freq. dielectric constant tensor:
#      x y z
#    x 1.847630 0.000000 0.000000 
#    y 0.000000 1.847630 0.000000 
#    z 0.000000 0.000000 1.859070 
# 
# From -- ./inp_files/5857.got.cif
#   From: 2010.03.12/outbox.cif.g09.slc.cpg/sg126_3_cif.got.tgz:5857.got - 2010.04.06 16:55:23.
