data_PCOD8313326
_publ_section_title
;
Structure prediction by ZEFSAII (Michael W. Deem and Ramdas Pophale) SiO2 
 PCOD8313326
Probable space group: P 4/M C C
;
_chemical_formula_sum "Si O2"
_cell_formula_units_Z 80
_cell_length_a 14.932043
_cell_length_b 14.932043
_cell_length_c 19.114464
_cell_angle_alpha 90.000000
_cell_angle_beta 90.000000
_cell_angle_gamma 90.000000
_cell_volume 4261.873825
_symmetry_space_group_name_H-M "P 4/M C C"
_symmetry_group_IT_number 124
_symmetry_cell_setting 'tetragonal'
loop_
_space_group_symop_operation_xyz
x,y,z
-y,x,z
-x,-y,z
y,-x,z
x,-y,1/2-z
-x,y,1/2-z
y,x,1/2-z
-y,-x,1/2-z
-x,-y,-z
y,-x,-z
x,y,-z
-y,x,-z
-x,y,1/2+z
x,-y,1/2+z
-y,-x,1/2+z
y,x,1/2+z
loop_
_atom_site_type_symbol
_atom_site_label
_atom_site_fract_x
_atom_site_fract_y
_atom_site_fract_z
Si Si1 0.754388 0.340223 0.316603
Si Si2 0.597383 0.952487 0.314606
Si Si3 0.633209 0.562811 0.077569
Si Si4 0.259932 0.997881 0.420562
Si Si5 0.815513 0.812605 0.080837
O O1 0.701438 0.298563 0.250000
O O2 0.845600 0.395597 0.298681
O O3 0.695430 0.412000 0.357717
O O4 0.770791 0.260438 0.370402
O O5 0.500000 0.000000 0.319520
O O6 0.648392 0.000000 0.250000
O O7 0.646855 0.976188 0.385586
O O8 0.542200 0.617534 0.084783
O O9 0.675113 0.582259 0.000000
O O10 0.286286 0.981759 0.500000
O O11 0.216469 0.908145 0.389933
O O12 0.188325 0.077243 0.411338
O O13 0.787710 0.795562 0.000000
#
# Coordination Sequence:
#
# PCOD8313326 Si02
#       5
#    16  16  16  16  16
#     4  11  22  35  57  83 109 145 188 229 272 331
#     4  10  22  38  53  74 109 145 177 219 274 328
#     4   9  20  39  59  80 109 142 177 225 282 333
#     4   9  18  33  53  76 103 135 175 222 270 325
#     4   9  18  33  52  76 105 138 178 223 272 327
#
# _framework density 18.771084999999999
#
# number of rings (size 3 to 8) (size 9 to 14) (size 15 to 20)
#    0.000    2.400    0.000    2.400    0.000    7.200 
#    0.000    5.000    0.000    0.000    0.000    2.800 
#    0.000    0.000    0.000    0.000    0.000    0.000 
#
# Total GULP energy -991246.515261 kJ/mol
# GULP energy per Si atom -12390.581441 kJ/mol
# Density = 1.872836 g / cm^3
# Si number density = 18.771085 Si / 1000 Ang^3
#
#
#
# Elastic Constant Matrix: (Units=GPa)
#
#
# Indices 1 2 3 4 5 6 
#
# 1 85.5160 52.9754 43.2910 0.0000 0.0000 0.0000
# 2 52.9754 85.5158 43.2907 0.0000 0.0000 0.0000
# 3 43.2910 43.2907 81.0172 0.0000 0.0000 0.0000
# 4 0.0000 0.0000 0.0000 30.0673 0.0000 0.0000
# 5 0.0000 0.0000 0.0000 0.0000 30.0679 0.0000
# 6 0.0000 0.0000 0.0000 0.0000 0.0000 22.6662
#
#
#
# Elastic Compliance Matrix: (Units=1/GPa)
#
#
# Indices 1 2 3 4 5 6 
#
# 1 0.020787 -0.009944 -0.005794 0.000000 0.000000 0.000000
# 2 -0.009944 0.020787 -0.005794 0.000000 0.000000 0.000000
# 3 -0.005794 -0.005794 0.018535 0.000000 0.000000 0.000000
# 4 0.000000 0.000000 0.000000 0.033259 0.000000 0.000000
# 5 0.000000 0.000000 0.000000 0.000000 0.033258 0.000000
# 6 0.000000 0.000000 0.000000 0.000000 0.000000 0.044118
#
#
# Mechanical properties :
#
#
# Convention : Reuss Voigt Hill
#
# Bulk Modulus (GPa) = 58.66716 59.01815 58.84266
# Shear Modulus (GPa) = 22.78021 24.05975 23.41998
#
# Velocity S-wave (km/s) = 3.48743 3.58403 3.53606
# Velocity P-wave (km/s) = 6.89478 6.97397 6.93449
#
# Compressibility (1/GPa) = 0.01704531
#
# Stress axis : x y z
#
# Youngs Moduli (GPa) = 48.10721 48.10731 53.95271
#
# Poissons Ratio (x) = 0.47838 0.31259
# Poissons Ratio (y) = 0.47838 0.31259
# Poissons Ratio (z) = 0.27872 0.27872
#
# Static dielectric constant tensor:
#      x y z
#    x 3.464330 0.000000 0.000000 
#    y 0.000000 3.464330 0.000000 
#    z 0.000000 0.000000 3.737660 
# 
# 
# High freq. dielectric constant tensor:
#      x y z
#    x 1.727450 0.000000 0.000000 
#    y 0.000000 1.727440 0.000000 
#    z 0.000000 0.000000 1.737620 
# 
# From -- ./inp_files/5084.got.cif
#   From: 2010.03.12/outbox.cif.g09.slc.cpg/sg124_3_cif.got.tgz:5084.got - 2010.04.06 16:38:57.
