data_PCOD8313649
_publ_section_title
;
Structure prediction by ZEFSAII (Michael W. Deem and Ramdas Pophale) SiO2 
 PCOD8313649
Probable space group: P 4/N N C
;
_chemical_formula_sum "Si O2"
_cell_formula_units_Z 96
_cell_length_a 20.173893
_cell_length_b 20.173893
_cell_length_c 12.899127
_cell_angle_alpha 90.000000
_cell_angle_beta 90.000000
_cell_angle_gamma 90.000000
_cell_volume 5249.763569
_symmetry_space_group_name_H-M "P 4/N N C"
_symmetry_group_IT_number 126
_space_group.IT_coordinate_system_code '2'
_symmetry_cell_setting 'tetragonal'
loop_
_space_group_symop_operation_xyz
x,y,z
1/2-y,x,z
1/2-x,1/2-y,z
y,1/2-x,z
x,1/2-y,1/2-z
1/2-x,y,1/2-z
y,x,1/2-z
1/2-y,1/2-x,1/2-z
-x,-y,-z
1/2+y,-x,-z
1/2+x,1/2+y,-z
-y,1/2+x,-z
-x,1/2+y,1/2+z
1/2+x,-y,1/2+z
-y,-x,1/2+z
1/2+y,1/2+x,1/2+z
loop_
_atom_site_type_symbol
_atom_site_label
_atom_site_fract_x
_atom_site_fract_y
_atom_site_fract_z
Si Si1 0.022093 0.407683 0.066563
Si Si2 0.478697 0.770834 0.867395
Si Si3 0.145075 0.488404 0.022798
Si Si4 0.081457 0.506044 0.814788
Si Si5 0.781819 0.147756 0.998568
Si Si6 0.925873 0.387303 0.886771
O O1 0.098762 0.428869 0.063540
O O2 0.016440 0.340700 0.131116
O O3 0.981775 0.467048 0.121343
O O4 0.994425 0.395829 0.950569
O O5 0.479562 0.750000 0.750000
O O6 0.520855 0.721015 0.941758
O O7 0.402069 0.777565 0.901556
O O8 0.125437 0.557632 0.075354
O O9 0.139665 0.490578 0.897239
O O10 0.108264 0.561395 0.735645
O O11 0.058733 0.441268 0.750000
O O12 0.709957 0.172614 0.035915
O O13 0.815895 0.107626 0.092755
#
# Coordination Sequence:
#
# PCOD8313649 Si02
#       6
#    16  16  16  16  16  16
#     4  10  21  33  56  83 114 143 191 244 297 350
#     4  11  24  38  56  82 117 157 198 239 294 359
#     4  11  20  37  57  84 113 145 192 247 294 356
#     4  11  18  32  62  87 109 146 189 252 306 341
#     4  10  21  39  54  74 117 162 202 236 274 345
#     4  10  18  34  56  82 108 146 193 244 297 330
#
# _framework density 18.286536999999999
#
# number of rings (size 3 to 8) (size 9 to 14) (size 15 to 20)
#    0.000    1.500    5.000    2.000    0.000    0.000 
#    0.000    6.667    0.000    0.500    0.000    1.167 
#    0.000    0.000    2.000    0.000    0.000    0.000 
#
# Total GULP energy -1190326.951930 kJ/mol
# GULP energy per Si atom -12399.239083 kJ/mol
# Density = 1.824492 g / cm^3
# Si number density = 18.286537 Si / 1000 Ang^3
#
#
#
# Elastic Constant Matrix: (Units=GPa)
#
#
# Indices 1 2 3 4 5 6 
#
# 1 72.7464 36.6358 24.8655 0.0000 0.0000 0.0000
# 2 36.6358 72.7479 24.8660 0.0000 0.0000 0.0000
# 3 24.8655 24.8660 116.8931 0.0000 0.0000 0.0000
# 4 0.0000 0.0000 0.0000 20.4203 0.0000 0.0000
# 5 0.0000 0.0000 0.0000 0.0000 20.4200 0.0000
# 6 0.0000 0.0000 0.0000 0.0000 0.0000 33.9582
#
#
#
# Elastic Compliance Matrix: (Units=1/GPa)
#
#
# Indices 1 2 3 4 5 6 
#
# 1 0.018907 -0.008786 -0.002153 0.000000 0.000000 0.000000
# 2 -0.008786 0.018906 -0.002153 0.000000 0.000000 0.000000
# 3 -0.002153 -0.002153 0.009471 0.000000 0.000000 0.000000
# 4 0.000000 0.000000 0.000000 0.048971 0.000000 0.000000
# 5 0.000000 0.000000 0.000000 0.000000 0.048971 0.000000
# 6 0.000000 0.000000 0.000000 0.000000 0.000000 0.029448
#
#
# Mechanical properties :
#
#
# Convention : Reuss Voigt Hill
#
# Bulk Modulus (GPa) = 47.39110 48.34690 47.86900
# Shear Modulus (GPa) = 24.05109 26.69440 25.37274
#
# Velocity S-wave (km/s) = 3.63055 3.82486 3.72897
# Velocity P-wave (km/s) = 6.59899 6.78247 6.69136
#
# Compressibility (1/GPa) = 0.02110101
#
# Stress axis : x y z
#
# Youngs Moduli (GPa) = 52.89111 52.89217 105.58772
#
# Poissons Ratio (x) = 0.46469 0.22733
# Poissons Ratio (y) = 0.46468 0.22733
# Poissons Ratio (z) = 0.11387 0.11388
#
# Static dielectric constant tensor:
#      x y z
#    x 3.348630 0.000000 0.000000 
#    y 0.000000 3.348630 0.000000 
#    z 0.000000 0.000000 3.417810 
# 
# 
# High freq. dielectric constant tensor:
#      x y z
#    x 1.689400 0.000000 0.000000 
#    y 0.000000 1.689400 0.000000 
#    z 0.000000 0.000000 1.711910 
# 
# From -- ./inp_files/2900.got.cif
#   From: 2010.03.12/outbox.cif.g09.slc.cpg/sg126_2_cif.got.tgz:2900.got - 2010.04.06 16:55:23.
