data_PCOD8313537
_publ_section_title
;
Structure prediction by ZEFSAII (Michael W. Deem and Ramdas Pophale) SiO2 
 PCOD8313537
Probable space group: P 4/N B M
;
_chemical_formula_sum "Si O2"
_cell_formula_units_Z 120
_cell_length_a 14.770419
_cell_length_b 14.770419
_cell_length_c 30.328406
_cell_angle_alpha 90.000000
_cell_angle_beta 90.000000
_cell_angle_gamma 90.000000
_cell_volume 6616.605109
_symmetry_space_group_name_H-M "P 4/N B M"
_symmetry_group_IT_number 125
_space_group.IT_coordinate_system_code '2'
_symmetry_cell_setting 'tetragonal'
loop_
_space_group_symop_operation_xyz
x,y,z
1/2-y,x,z
1/2-x,1/2-y,z
y,1/2-x,z
x,1/2-y,-z
1/2-x,y,-z
y,x,-z
1/2-y,1/2-x,-z
-x,-y,-z
1/2+y,-x,-z
1/2+x,1/2+y,-z
-y,1/2+x,-z
-x,1/2+y,z
1/2+x,-y,z
-y,-x,z
1/2+y,1/2+x,z
loop_
_atom_site_type_symbol
_atom_site_label
_atom_site_fract_x
_atom_site_fract_y
_atom_site_fract_z
Si Si1 0.397590 0.750000 0.500000
Si Si2 0.122755 0.324947 0.799081
Si Si3 0.429108 0.421158 0.624224
Si Si4 0.370028 0.020165 0.285386
Si Si5 0.744542 0.390649 0.677351
Si Si6 0.011434 0.755109 0.591447
Si Si7 0.853248 0.994442 0.019613
Si Si8 0.814268 0.614898 0.898199
O O1 0.337675 0.662326 0.509664
O O2 0.459749 0.767341 0.542083
O O3 0.128666 0.218632 0.791652
O O4 0.059559 0.372118 0.763401
O O5 0.084528 0.338516 0.848437
O O6 0.521776 0.478225 0.620361
O O7 0.397761 0.411514 0.675488
O O8 0.440216 0.320476 0.606553
O O9 0.353718 0.467160 0.593775
O O10 0.436802 0.936802 0.287350
O O11 0.268894 0.982272 0.296303
O O12 0.642089 0.357912 0.689070
O O13 0.812147 0.312147 0.691662
O O14 0.752501 0.403756 0.624711
O O15 0.844806 0.968257 0.071033
O O16 0.750000 0.004920 0.000000
O O17 0.909024 0.909024 0.000000
O O18 0.911655 0.088346 0.014074
O O19 0.868178 0.707978 0.907009
#
# Coordination Sequence:
#
# PCOD8313537 Si02
#       8
#     8  16  16  16  16  16  16  16
#     4  11  22  36  60  87 104 134 184 227 274 327
#     4   9  19  33  51  78 110 145 184 229 282 337
#     4  10  22  38  56  81 110 144 183 221 270 326
#     4   9  19  33  50  76 106 138 182 225 271 337
#     4   9  17  32  53  73  98 133 175 228 275 311
#     4  11  22  37  55  79 112 139 173 221 268 325
#     4  11  22  35  58  90 119 153 201 249 296 353
#     4   9  17  33  56  80 110 148 194 247 296 337
#
# _framework density 18.136188000000001
#
# number of rings (size 3 to 8) (size 9 to 14) (size 15 to 20)
#    0.000    2.200    1.333    4.000    3.733    2.667 
#    0.000    1.333    0.000    2.400    0.000    1.867 
#    0.000    0.000    0.000    0.000    0.000    0.000 
#
# Total GULP energy -1486909.819414 kJ/mol
# GULP energy per Si atom -12390.915162 kJ/mol
# Density = 1.809491 g / cm^3
# Si number density = 18.136188 Si / 1000 Ang^3
#
#
#
# Elastic Constant Matrix: (Units=GPa)
#
#
# Indices 1 2 3 4 5 6 
#
# 1 69.4770 31.7855 36.0590 0.0000 0.0000 0.0000
# 2 31.7855 69.4770 36.0590 0.0000 0.0000 0.0000
# 3 36.0590 36.0590 120.4467 0.0000 0.0000 0.0000
# 4 0.0000 0.0000 0.0000 26.1598 0.0000 0.0000
# 5 0.0000 0.0000 0.0000 0.0000 26.1598 0.0000
# 6 0.0000 0.0000 0.0000 0.0000 0.0000 20.2838
#
#
#
# Elastic Compliance Matrix: (Units=1/GPa)
#
#
# Indices 1 2 3 4 5 6 
#
# 1 0.019541 -0.006990 -0.003758 0.000000 0.000000 0.000000
# 2 -0.006990 0.019541 -0.003758 0.000000 0.000000 0.000000
# 3 -0.003758 -0.003758 0.010552 0.000000 0.000000 0.000000
# 4 0.000000 0.000000 0.000000 0.038227 0.000000 0.000000
# 5 0.000000 0.000000 0.000000 0.000000 0.038227 0.000000
# 6 0.000000 0.000000 0.000000 0.000000 0.000000 0.049300
#
#
# Mechanical properties :
#
#
# Convention : Reuss Voigt Hill
#
# Bulk Modulus (GPa) = 48.48543 51.91198 50.19870
# Shear Modulus (GPa) = 23.66597 24.88715 24.27656
#
# Velocity S-wave (km/s) = 3.61626 3.70839 3.66262
# Velocity P-wave (km/s) = 6.65046 6.85724 6.75464
#
# Compressibility (1/GPa) = 0.02062475
#
# Stress axis : x y z
#
# Youngs Moduli (GPa) = 51.17356 51.17356 94.76588
#
# Poissons Ratio (x) = 0.35770 0.35609
# Poissons Ratio (y) = 0.35770 0.35609
# Poissons Ratio (z) = 0.19229 0.19229
#
# Static dielectric constant tensor:
#      x y z
#    x 3.381570 0.000000 0.000000 
#    y 0.000000 3.381570 0.000000 
#    z 0.000000 0.000000 3.305240 
# 
# 
# High freq. dielectric constant tensor:
#      x y z
#    x 1.695110 0.000000 0.000000 
#    y 0.000000 1.695110 0.000000 
#    z 0.000000 0.000000 1.696720 
# 
# From -- ./inp_files/6668.got.cif
#   From: 2010.03.12/outbox.cif.g09.slc.cpg/sg125_4_cif.got.tgz:6668.got - 2010.04.06 16:47:52.
