data_PCOD8313875
_publ_section_title
;
Structure prediction by ZEFSAII (Michael W. Deem and Ramdas Pophale) SiO2 
 PCOD8313875
Probable space group: P 4/M B M
;
_chemical_formula_sum "Si O2"
_cell_formula_units_Z 56
_cell_length_a 19.042314
_cell_length_b 19.042314
_cell_length_c 9.187107
_cell_angle_alpha 90.000000
_cell_angle_beta 90.000000
_cell_angle_gamma 90.000000
_cell_volume 3331.334320
_symmetry_space_group_name_H-M "P 4/M B M"
_symmetry_group_IT_number 127
_symmetry_cell_setting 'tetragonal'
loop_
_space_group_symop_operation_xyz
x,y,z
-y,x,z
-x,-y,z
y,-x,z
1/2+x,1/2-y,-z
1/2-x,1/2+y,-z
1/2+y,1/2+x,-z
1/2-y,1/2-x,-z
-x,-y,-z
y,-x,-z
x,y,-z
-y,x,-z
1/2-x,1/2+y,z
1/2+x,1/2-y,z
1/2-y,1/2-x,z
1/2+y,1/2+x,z
loop_
_atom_site_type_symbol
_atom_site_label
_atom_site_fract_x
_atom_site_fract_y
_atom_site_fract_z
Si Si1 0.840063 0.773889 0.334553
Si Si2 0.943903 0.556098 0.673072
Si Si3 0.013888 0.291288 0.670217
Si Si4 0.372402 0.241778 0.171031
O O1 0.829558 0.799780 0.500000
O O2 0.799436 0.700565 0.309941
O O3 0.921725 0.761388 0.300507
O O4 0.811588 0.833774 0.227821
O O5 0.941172 0.558829 0.500000
O O6 0.966139 0.632150 0.732767
O O7 0.000000 0.500000 0.731379
O O8 0.995385 0.295668 0.500000
O O9 0.947764 0.262111 0.755851
O O10 0.326634 0.173367 0.213927
O O11 0.381886 0.248567 0.000000
#
# Coordination Sequence:
#
# PCOD8313875 Si02
#       4
#    16   8  16  16
#     4   9  17  32  53  75  98 127 170 216 254 297
#     4   9  16  26  45  75 107 133 159 196 247 304
#     4  10  18  31  52  77 101 130 168 211 256 299
#     4  10  21  34  48  71 104 139 173 205 245 301
#
# _framework density 16.810079999999999
#
# number of rings (size 3 to 8) (size 9 to 14) (size 15 to 20)
#    0.000    2.429    1.429    1.714    0.000    4.000 
#    0.000    0.714    0.000    3.429    0.000    6.000 
#    0.000    0.000    0.000    0.000    0.000    0.000 
#
# Total GULP energy -694501.512849 kJ/mol
# GULP energy per Si atom -12401.812729 kJ/mol
# Density = 1.677182 g / cm^3
# Si number density = 16.810080 Si / 1000 Ang^3
#
#
#
# Elastic Constant Matrix: (Units=GPa)
#
#
# Indices 1 2 3 4 5 6 
#
# 1 106.5143 64.2250 53.3158 0.0000 0.0000 0.0000
# 2 64.2250 106.5143 53.3157 0.0000 0.0000 0.0000
# 3 53.3158 53.3157 68.7601 0.0000 0.0000 0.0000
# 4 0.0000 0.0000 0.0000 19.1655 0.0000 0.0000
# 5 0.0000 0.0000 0.0000 0.0000 19.1655 0.0000
# 6 0.0000 0.0000 0.0000 0.0000 0.0000 19.8830
#
#
#
# Elastic Compliance Matrix: (Units=1/GPa)
#
#
# Indices 1 2 3 4 5 6 
#
# 1 0.017501 -0.006145 -0.008805 0.000000 0.000000 0.000000
# 2 -0.006145 0.017501 -0.008805 0.000000 0.000000 0.000000
# 3 -0.008805 -0.008805 0.028199 0.000000 0.000000 0.000000
# 4 0.000000 0.000000 0.000000 0.052177 0.000000 0.000000
# 5 0.000000 0.000000 0.000000 0.000000 0.052177 0.000000
# 6 0.000000 0.000000 0.000000 0.000000 0.000000 0.050294
#
#
# Mechanical properties :
#
#
# Convention : Reuss Voigt Hill
#
# Bulk Modulus (GPa) = 63.73829 69.27799 66.50814
# Shear Modulus (GPa) = 18.47804 19.03827 18.75815
#
# Velocity S-wave (km/s) = 3.31905 3.36899 3.34411
# Velocity P-wave (km/s) = 7.25859 7.51233 7.38655
#
# Compressibility (1/GPa) = 0.01568916
#
# Stress axis : x y z
#
# Youngs Moduli (GPa) = 57.13827 57.13850 35.46288
#
# Poissons Ratio (x) = 0.35113 0.31227
# Poissons Ratio (y) = 0.35113 0.31226
# Poissons Ratio (z) = 0.50313 0.50312
#
# Static dielectric constant tensor:
#      x y z
#    x 3.095230 0.000000 0.000000 
#    y 0.000000 3.095240 0.000000 
#    z 0.000000 0.000000 2.975540 
# 
# 
# High freq. dielectric constant tensor:
#      x y z
#    x 1.641390 0.000000 0.000000 
#    y 0.000000 1.641390 0.000000 
#    z 0.000000 0.000000 1.632160 
# 
# From -- ./inp_files/1077.got.cif
#   From: 2010.03.12/outbox.cif.g09.slc.cpg/sg127_1_cif.got.tgz:1077.got - 2010.04.06 17:03:15.
