data_PCOD8313625
_publ_section_title
;
Structure prediction by ZEFSAII (Michael W. Deem and Ramdas Pophale) SiO2 
 PCOD8313625
Probable space group: P 4/N B M
;
_chemical_formula_sum "Si O2"
_cell_formula_units_Z 88
_cell_length_a 12.919064
_cell_length_b 12.919064
_cell_length_c 26.635389
_cell_angle_alpha 90.000000
_cell_angle_beta 90.000000
_cell_angle_gamma 90.000000
_cell_volume 4445.505412
_symmetry_space_group_name_H-M "P 4/N B M"
_symmetry_group_IT_number 125
_space_group.IT_coordinate_system_code '2'
_symmetry_cell_setting 'tetragonal'
loop_
_space_group_symop_operation_xyz
x,y,z
1/2-y,x,z
1/2-x,1/2-y,z
y,1/2-x,z
x,1/2-y,-z
1/2-x,y,-z
y,x,-z
1/2-y,1/2-x,-z
-x,-y,-z
1/2+y,-x,-z
1/2+x,1/2+y,-z
-y,1/2+x,-z
-x,1/2+y,z
1/2+x,-y,z
-y,-x,z
1/2+y,1/2+x,z
loop_
_atom_site_type_symbol
_atom_site_label
_atom_site_fract_x
_atom_site_fract_y
_atom_site_fract_z
Si Si1 0.415005 0.280763 0.859976
Si Si2 0.843175 0.513184 0.032160
Si Si3 0.416791 0.750000 0.500000
Si Si4 0.729329 0.582286 0.302048
Si Si5 0.083921 0.750316 0.780321
Si Si6 0.730185 0.582261 0.417041
O O1 0.331894 0.369048 0.847057
O O2 0.442342 0.291335 0.918050
O O3 0.516375 0.293287 0.826273
O O4 0.925520 0.425520 0.046271
O O5 0.750000 0.463629 0.000000
O O6 0.895199 0.604802 0.000000
O O7 0.347154 0.652847 0.483945
O O8 0.484082 0.782962 0.452287
O O9 0.838414 0.636820 0.290473
O O10 0.714923 0.483942 0.266919
O O11 0.725026 0.545225 0.359544
O O12 0.150966 0.849035 0.798613
O O13 0.158425 0.658425 0.762250
O O14 0.838967 0.637278 0.428550
#
# Coordination Sequence:
#
# PCOD8313625 Si02
#       6
#    16  16   8  16  16  16
#     4  11  23  40  66  91 115 151 197 246 289 339
#     4  11  23  40  64  92 123 158 195 239 292 347
#     4  11  24  37  50  78 120 159 196 241 296 360
#     4   9  19  38  63  89 115 147 195 248 298 353
#     4  11  25  41  57  84 124 162 195 238 293 352
#     4   9  19  37  61  86 112 146 193 250 301 352
#
# _framework density 19.795276000000001
#
# number of rings (size 3 to 8) (size 9 to 14) (size 15 to 20)
#    0.000    1.727    1.818    3.273    0.000    9.818 
#    0.000    5.455    0.000    0.000    0.000    0.000 
#    0.000    0.000    0.000    0.000    0.000    0.000 
#
# Total GULP energy -1091510.212309 kJ/mol
# GULP energy per Si atom -12403.525140 kJ/mol
# Density = 1.975022 g / cm^3
# Si number density = 19.795276 Si / 1000 Ang^3
#
#
#
# Elastic Constant Matrix: (Units=GPa)
#
#
# Indices 1 2 3 4 5 6 
#
# 1 88.2367 27.2464 32.5641 0.0000 0.0000 0.0000
# 2 27.2464 88.2365 32.5645 0.0000 0.0000 0.0000
# 3 32.5641 32.5645 85.7616 0.0000 0.0000 0.0000
# 4 0.0000 0.0000 0.0000 26.3477 0.0000 0.0000
# 5 0.0000 0.0000 0.0000 0.0000 26.3475 0.0000
# 6 0.0000 0.0000 0.0000 0.0000 0.0000 13.8748
#
#
#
# Elastic Compliance Matrix: (Units=1/GPa)
#
#
# Indices 1 2 3 4 5 6 
#
# 1 0.013707 -0.002689 -0.004184 0.000000 0.000000 0.000000
# 2 -0.002689 0.013708 -0.004184 0.000000 0.000000 0.000000
# 3 -0.004184 -0.004184 0.014838 0.000000 0.000000 0.000000
# 4 0.000000 0.000000 0.000000 0.037954 0.000000 0.000000
# 5 0.000000 0.000000 0.000000 0.000000 0.037954 0.000000
# 6 0.000000 0.000000 0.000000 0.000000 0.000000 0.072073
#
#
# Mechanical properties :
#
#
# Convention : Reuss Voigt Hill
#
# Bulk Modulus (GPa) = 49.65352 49.66498 49.65925
# Shear Modulus (GPa) = 22.82475 24.63796 23.73135
#
# Velocity S-wave (km/s) = 3.39933 3.53177 3.46618
# Velocity P-wave (km/s) = 6.36751 6.46336 6.41561
#
# Compressibility (1/GPa) = 0.02013956
#
# Stress axis : x y z
#
# Youngs Moduli (GPa) = 72.95307 72.95258 67.39640
#
# Poissons Ratio (x) = 0.19614 0.28198
# Poissons Ratio (y) = 0.19614 0.28199
# Poissons Ratio (z) = 0.30523 0.30523
#
# Static dielectric constant tensor:
#      x y z
#    x 3.538580 0.000000 0.000000 
#    y 0.000000 3.538590 0.000000 
#    z 0.000000 0.000000 3.578920 
# 
# 
# High freq. dielectric constant tensor:
#      x y z
#    x 1.769770 0.000000 0.000000 
#    y 0.000000 1.769770 0.000000 
#    z 0.000000 0.000000 1.780850 
# 
# From -- ./inp_files/6562.got.cif
#   From: 2010.03.12/outbox.cif.g09.slc.cpg/sg125_4_cif.got.tgz:6562.got - 2010.04.06 16:47:52.
