data_PCOD8313147
_publ_section_title
;
Structure prediction by ZEFSAII (Michael W. Deem and Ramdas Pophale) SiO2 
 PCOD8313147
Probable space group: P 4/M C C
;
_chemical_formula_sum "Si O2"
_cell_formula_units_Z 96
_cell_length_a 24.201240
_cell_length_b 24.201240
_cell_length_c 8.821943
_cell_angle_alpha 90.000000
_cell_angle_beta 90.000000
_cell_angle_gamma 90.000000
_cell_volume 5167.012170
_symmetry_space_group_name_H-M "P 4/M C C"
_symmetry_group_IT_number 124
_symmetry_cell_setting 'tetragonal'
loop_
_space_group_symop_operation_xyz
x,y,z
-y,x,z
-x,-y,z
y,-x,z
x,-y,1/2-z
-x,y,1/2-z
y,x,1/2-z
-y,-x,1/2-z
-x,-y,-z
y,-x,-z
x,y,-z
-y,x,-z
-x,y,1/2+z
x,-y,1/2+z
-y,-x,1/2+z
y,x,1/2+z
loop_
_atom_site_type_symbol
_atom_site_label
_atom_site_fract_x
_atom_site_fract_y
_atom_site_fract_z
Si Si1 0.638178 0.556300 0.677896
Si Si2 0.148807 0.356305 0.320928
Si Si3 0.849706 0.232157 0.821241
Si Si4 0.556339 0.235023 0.677751
Si Si5 0.940918 0.556449 0.679864
Si Si6 0.856918 0.939888 0.820645
O O1 0.614890 0.500000 0.750000
O O2 0.607678 0.607678 0.750000
O O3 0.628246 0.554246 0.500000
O O4 0.701653 0.564770 0.722805
O O5 0.151618 0.350970 0.500000
O O6 0.145641 0.294312 0.252980
O O7 0.202302 0.389972 0.260687
O O8 0.095578 0.391261 0.271286
O O9 0.795772 0.204229 0.750000
O O10 0.904630 0.197703 0.777900
O O11 0.841377 0.232969 0.000000
O O12 0.500000 0.211566 0.750000
O O13 0.550110 0.225928 0.500000
O O14 0.915933 0.500000 0.750000
O O15 0.944579 0.549485 0.500000
O O16 0.000000 0.568582 0.750000
O O17 0.910899 0.910899 0.750000
O O18 0.849212 0.000000 0.750000
O O19 0.865149 0.944565 0.000000
#
# Coordination Sequence:
#
# PCOD8313147 Si02
#       6
#    16  16  16  16  16  16
#     4  10  20  34  52  74 100 129 162 202 248 300
#     4   9  18  33  53  75 100 134 172 208 250 299
#     4   9  19  36  54  74 103 136 169 207 251 297
#     4   9  18  33  52  73  99 130 165 207 253 299
#     4  10  19  32  50  72 102 136 169 209 254 298
#     4  10  20  35  56  80 107 138 171 208 250 296
#
# _framework density 18.579402000000002
#
# number of rings (size 3 to 8) (size 9 to 14) (size 15 to 20)
#    0.000    2.500    0.000    2.500    0.000    3.000 
#    0.000    5.000    0.000    0.000    0.000    0.000 
#    0.000    0.000    0.000    0.000    0.000    0.000 
#
# Total GULP energy -1190286.143865 kJ/mol
# GULP energy per Si atom -12398.813999 kJ/mol
# Density = 1.853711 g / cm^3
# Si number density = 18.579402 Si / 1000 Ang^3
#
#
#
# Elastic Constant Matrix: (Units=GPa)
#
#
# Indices 1 2 3 4 5 6 
#
# 1 151.5807 84.0365 41.5818 0.0000 0.0000 0.0000
# 2 84.0365 151.5785 41.5810 0.0000 0.0000 0.0000
# 3 41.5818 41.5810 56.3114 0.0000 0.0000 0.0000
# 4 0.0000 0.0000 0.0000 25.1117 0.0000 0.0000
# 5 0.0000 0.0000 0.0000 0.0000 25.1119 0.0000
# 6 0.0000 0.0000 0.0000 0.0000 0.0000 24.4248
#
#
#
# Elastic Compliance Matrix: (Units=1/GPa)
#
#
# Indices 1 2 3 4 5 6 
#
# 1 0.010273 -0.004533 -0.004239 0.000000 0.000000 0.000000
# 2 -0.004533 0.010273 -0.004239 0.000000 0.000000 0.000000
# 3 -0.004239 -0.004239 0.024018 0.000000 0.000000 0.000000
# 4 0.000000 0.000000 0.000000 0.039822 0.000000 0.000000
# 5 0.000000 0.000000 0.000000 0.000000 0.039822 0.000000
# 6 0.000000 0.000000 0.000000 0.000000 0.000000 0.040942
#
#
# Mechanical properties :
#
#
# Convention : Reuss Voigt Hill
#
# Bulk Modulus (GPa) = 53.92591 77.09657 65.51124
# Shear Modulus (GPa) = 25.33554 27.74776 26.54165
#
# Velocity S-wave (km/s) = 3.69675 3.86873 3.78372
# Velocity P-wave (km/s) = 6.87814 7.84487 7.37736
#
# Compressibility (1/GPa) = 0.01854396
#
# Stress axis : x y z
#
# Youngs Moduli (GPa) = 97.34454 97.34379 41.63486
#
# Poissons Ratio (x) = 0.44121 0.17648
# Poissons Ratio (y) = 0.44122 0.17648
# Poissons Ratio (z) = 0.41263 0.41261
#
# Static dielectric constant tensor:
#      x y z
#    x 3.697820 0.000000 0.000000 
#    y 0.000000 3.697820 0.000000 
#    z 0.000000 0.000000 3.306120 
# 
# 
# High freq. dielectric constant tensor:
#      x y z
#    x 1.725980 0.000000 0.000000 
#    y 0.000000 1.725980 0.000000 
#    z 0.000000 0.000000 1.710160 
# 
# From -- ./inp_files/1324.got.cif
#   From: 2010.03.12/outbox.cif.g09.slc.cpg/sg124_1_cif.got.tgz:1324.got - 2010.04.06 16:38:57.
