data_PCOD8313753
_publ_section_title
;
Structure prediction by ZEFSAII (Michael W. Deem and Ramdas Pophale) SiO2 
 PCOD8313753
Probable space group: P 4/N N C
;
_chemical_formula_sum "Si O2"
_cell_formula_units_Z 80
_cell_length_a 11.318915
_cell_length_b 11.318915
_cell_length_c 29.020491
_cell_angle_alpha 90.000000
_cell_angle_beta 90.000000
_cell_angle_gamma 90.000000
_cell_volume 3718.042529
_symmetry_space_group_name_H-M "P 4/N N C"
_symmetry_group_IT_number 126
_space_group.IT_coordinate_system_code '2'
_symmetry_cell_setting 'tetragonal'
loop_
_space_group_symop_operation_xyz
x,y,z
1/2-y,x,z
1/2-x,1/2-y,z
y,1/2-x,z
x,1/2-y,1/2-z
1/2-x,y,1/2-z
y,x,1/2-z
1/2-y,1/2-x,1/2-z
-x,-y,-z
1/2+y,-x,-z
1/2+x,1/2+y,-z
-y,1/2+x,-z
-x,1/2+y,1/2+z
1/2+x,-y,1/2+z
-y,-x,1/2+z
1/2+y,1/2+x,1/2+z
loop_
_atom_site_type_symbol
_atom_site_label
_atom_site_fract_x
_atom_site_fract_y
_atom_site_fract_z
Si Si1 0.565541 0.719739 0.196249
Si Si2 0.256350 0.613010 0.559487
Si Si3 0.936938 0.772036 0.980253
Si Si4 0.392115 0.921759 0.360459
Si Si5 0.143906 0.968824 0.386880
O O1 0.655253 0.616567 0.178530
O O2 0.555602 0.750000 0.250000
O O3 0.440351 0.674627 0.176691
O O4 0.250000 0.750000 0.550355
O O5 0.275548 0.555761 0.509675
O O6 0.372040 0.579709 0.588730
O O7 0.140391 0.574682 0.588870
O O8 0.851807 0.878829 0.993883
O O9 0.959542 0.784156 0.925964
O O10 0.249799 0.928545 0.352171
O O11 0.452726 0.051217 0.357790
#
# Coordination Sequence:
#
# PCOD8313753 Si02
#       5
#    16  16  16  16  16
#     4   9  19  39  71 101 126 157 195 250 322 389
#     4  10  24  36  55  84 117 165 221 285 330 364
#     4  11  23  39  56  78 117 170 230 268 315 379
#     4  11  22  39  60  90 129 168 214 258 323 384
#     4  11  23  37  58  85 126 173 218 271 318 382
#
# _framework density 21.516698000000002
#
# number of rings (size 3 to 8) (size 9 to 14) (size 15 to 20)
#    0.000    1.600    2.000    3.000    5.600    2.000 
#    0.000    2.000    0.000   31.800    0.000    0.000 
#    0.000   25.600    0.000    0.000    0.000    0.000 
#
# Total GULP energy -991329.045273 kJ/mol
# GULP energy per Si atom -12391.613066 kJ/mol
# Density = 2.146773 g / cm^3
# Si number density = 21.516698 Si / 1000 Ang^3
#
#
#
# Elastic Constant Matrix: (Units=GPa)
#
#
# Indices 1 2 3 4 5 6 
#
# 1 96.7732 37.1901 36.4695 0.0000 0.0000 0.0000
# 2 37.1901 96.7732 36.4695 0.0000 0.0000 0.0000
# 3 36.4695 36.4695 56.3606 0.0000 0.0000 0.0000
# 4 0.0000 0.0000 0.0000 31.2661 0.0000 0.0000
# 5 0.0000 0.0000 0.0000 0.0000 31.2661 0.0000
# 6 0.0000 0.0000 0.0000 0.0000 0.0000 -3.6196
#
#
#
# Elastic Compliance Matrix: (Units=1/GPa)
#
#
# Indices 1 2 3 4 5 6 
#
# 1 0.014154 -0.002629 -0.007458 0.000000 0.000000 0.000000
# 2 -0.002629 0.014154 -0.007458 0.000000 0.000000 0.000000
# 3 -0.007458 -0.007458 0.027394 0.000000 0.000000 0.000000
# 4 0.000000 0.000000 0.000000 0.031983 0.000000 0.000000
# 5 0.000000 0.000000 0.000000 0.000000 0.031983 0.000000
# 6 0.000000 0.000000 0.000000 0.000000 0.000000 -0.276273
#
#
# Mechanical properties :
#
#
# Convention : Reuss Voigt Hill
#
# Bulk Modulus (GPa) = 48.51079 52.24058 50.37569
# Shear Modulus (GPa) = -43.61359 21.10106 -11.25627
#
# Velocity S-wave (km/s) = -4.50707 3.13498 -2.28971
# Velocity P-wave (km/s) = 2.11903 6.11849 4.05867
#
# Compressibility (1/GPa) = 0.02061397
#
# Stress axis : x y z
#
# Youngs Moduli (GPa) = 70.65016 70.65016 36.50400
#
# Poissons Ratio (x) = 0.18574 0.27224
# Poissons Ratio (y) = 0.18574 0.27224
# Poissons Ratio (z) = 0.52689 0.52689
#
# Static dielectric constant tensor:
#      x y z
#    x 4.173460 0.000000 0.000000 
#    y 0.000000 4.173460 0.000000 
#    z 0.000000 0.000000 3.439960 
# 
# 
# High freq. dielectric constant tensor:
#      x y z
#    x 1.854690 0.000000 0.000000 
#    y 0.000000 1.854690 0.000000 
#    z 0.000000 0.000000 1.796760 
# 
# From -- ./inp_files/6444.got.cif
#   From: 2010.03.12/outbox.cif.g09.slc.cpg/sg126_4_cif.got.tgz:6444.got - 2010.04.06 16:55:23.
