data_PCOD8313153
_publ_section_title
;
Structure prediction by ZEFSAII (Michael W. Deem and Ramdas Pophale) SiO2 
 PCOD8313153
Probable space group: P 4/M C C
;
_chemical_formula_sum "Si O2"
_cell_formula_units_Z 112
_cell_length_a 18.745212
_cell_length_b 18.745212
_cell_length_c 17.064238
_cell_angle_alpha 90.000000
_cell_angle_beta 90.000000
_cell_angle_gamma 90.000000
_cell_volume 5996.082679
_symmetry_space_group_name_H-M "P 4/M C C"
_symmetry_group_IT_number 124
_symmetry_cell_setting 'tetragonal'
loop_
_space_group_symop_operation_xyz
x,y,z
-y,x,z
-x,-y,z
y,-x,z
x,-y,1/2-z
-x,y,1/2-z
y,x,1/2-z
-y,-x,1/2-z
-x,-y,-z
y,-x,-z
x,y,-z
-y,x,-z
-x,y,1/2+z
x,-y,1/2+z
-y,-x,1/2+z
y,x,1/2+z
loop_
_atom_site_type_symbol
_atom_site_label
_atom_site_fract_x
_atom_site_fract_y
_atom_site_fract_z
Si Si1 0.273386 0.085976 0.589769
Si Si2 0.698927 0.928275 0.093305
Si Si3 0.417581 0.424790 0.656411
Si Si4 0.214044 0.200441 0.841744
Si Si5 0.825309 0.586908 0.090821
Si Si6 0.463232 0.928655 0.407363
Si Si7 0.332063 0.297235 0.660791
O O1 0.252737 0.085790 0.500000
O O2 0.211474 0.132961 0.629989
O O3 0.352681 0.115239 0.604022
O O4 0.273337 0.005366 0.621539
O O5 0.753514 0.874823 0.134838
O O6 0.617547 0.916960 0.123946
O O7 0.702780 0.918866 0.000000
O O8 0.495913 0.400677 0.626434
O O9 0.419345 0.419345 0.750000
O O10 0.357895 0.371394 0.621306
O O11 0.212261 0.212261 0.750000
O O12 0.264805 0.261766 0.880982
O O13 0.859872 0.511051 0.115125
O O14 0.759146 0.603007 0.148854
O O15 0.800204 0.586243 0.000000
O O16 0.459655 0.938727 0.500000
O O17 0.500000 0.000000 0.371394
O O18 0.313122 0.313122 0.750000
#
# Coordination Sequence:
#
# PCOD8313153 Si02
#       7
#    16  16  16  16  16  16  16
#     4   9  17  32  54  76 102 136 174 216 262 320
#     4  10  19  32  55  82 105 138 179 222 267 320
#     4   8  14  26  45  65  84 116 169 220 255 290
#     4  10  21  34  48  74 106 143 176 213 262 318
#     4   9  16  28  49  77 107 138 169 211 268 320
#     4   9  15  27  49  81 112 135 171 218 268 324
#     4   9  18  31  46  68  99 137 173 212 259 311
#
# _framework density 18.678861000000001
#
# number of rings (size 3 to 8) (size 9 to 14) (size 15 to 20)
#    0.000    2.857    1.429    0.857    0.000    2.286 
#    0.000    1.429    0.000    3.857    0.000    4.000 
#    0.000    0.000    0.000    0.000    0.000    0.143 
#
# Total GULP energy -1387812.432300 kJ/mol
# GULP energy per Si atom -12391.182431 kJ/mol
# Density = 1.863635 g / cm^3
# Si number density = 18.678861 Si / 1000 Ang^3
#
#
#
# Elastic Constant Matrix: (Units=GPa)
#
#
# Indices 1 2 3 4 5 6 
#
# 1 123.4727 87.2265 33.3544 0.0000 0.0000 0.0000
# 2 87.2265 123.4727 33.3544 0.0000 0.0000 0.0000
# 3 33.3544 33.3544 31.8768 0.0000 0.0000 0.0000
# 4 0.0000 0.0000 0.0000 21.0257 0.0000 0.0000
# 5 0.0000 0.0000 0.0000 0.0000 21.0257 0.0000
# 6 0.0000 0.0000 0.0000 0.0000 0.0000 35.2792
#
#
#
# Elastic Compliance Matrix: (Units=1/GPa)
#
#
# Indices 1 2 3 4 5 6 
#
# 1 0.017343 -0.010246 -0.007426 0.000000 0.000000 0.000000
# 2 -0.010246 0.017343 -0.007426 0.000000 0.000000 0.000000
# 3 -0.007426 -0.007426 0.046912 0.000000 0.000000 0.000000
# 4 0.000000 0.000000 0.000000 0.047561 0.000000 0.000000
# 5 0.000000 0.000000 0.000000 0.000000 0.047561 0.000000
# 6 0.000000 0.000000 0.000000 0.000000 0.000000 0.028345
#
#
# Mechanical properties :
#
#
# Convention : Reuss Voigt Hill
#
# Bulk Modulus (GPa) = 31.84580 65.18807 48.51693
# Shear Modulus (GPa) = 18.81614 23.79193 21.30404
#
# Velocity S-wave (km/s) = 3.17732 3.57282 3.38086
# Velocity P-wave (km/s) = 5.52690 7.21077 6.42424
#
# Compressibility (1/GPa) = 0.03140132
#
# Stress axis : x y z
#
# Youngs Moduli (GPa) = 57.65948 57.65948 21.31656
#
# Poissons Ratio (x) = 0.59077 0.15830
# Poissons Ratio (y) = 0.59077 0.15830
# Poissons Ratio (z) = 0.42820 0.42820
#
# Static dielectric constant tensor:
#      x y z
#    x 3.631360 0.000000 0.000000 
#    y 0.000000 3.631360 0.000000 
#    z 0.000000 0.000000 3.012680 
# 
# 
# High freq. dielectric constant tensor:
#      x y z
#    x 1.722130 0.000000 0.000000 
#    y 0.000000 1.722130 0.000000 
#    z 0.000000 0.000000 1.681930 
# 
# From -- ./inp_files/5536.got.cif
#   From: 2010.03.12/outbox.cif.g09.slc.cpg/sg124_3_cif.got.tgz:5536.got - 2010.04.06 16:38:57.
