data_PCOD8313328
_publ_section_title
;
Structure prediction by ZEFSAII (Michael W. Deem and Ramdas Pophale) SiO2 
 PCOD8313328
Probable space group: P 4/M C C
;
_chemical_formula_sum "Si O2"
_cell_formula_units_Z 112
_cell_length_a 14.385779
_cell_length_b 14.385779
_cell_length_c 26.526603
_cell_angle_alpha 90.000000
_cell_angle_beta 90.000000
_cell_angle_gamma 90.000000
_cell_volume 5489.697400
_symmetry_space_group_name_H-M "P 4/M C C"
_symmetry_group_IT_number 124
_symmetry_cell_setting 'tetragonal'
loop_
_space_group_symop_operation_xyz
x,y,z
-y,x,z
-x,-y,z
y,-x,z
x,-y,1/2-z
-x,y,1/2-z
y,x,1/2-z
-y,-x,1/2-z
-x,-y,-z
y,-x,-z
x,y,-z
-y,x,-z
-x,y,1/2+z
x,-y,1/2+z
-y,-x,1/2+z
y,x,1/2+z
loop_
_atom_site_type_symbol
_atom_site_label
_atom_site_fract_x
_atom_site_fract_y
_atom_site_fract_z
Si Si1 0.399080 0.738523 0.224182
Si Si2 0.647959 0.331858 0.117145
Si Si3 0.258622 0.109585 0.760516
Si Si4 0.490314 0.280803 0.056485
Si Si5 0.098368 0.883978 0.055391
Si Si6 0.423399 0.071518 0.943140
Si Si7 0.142604 0.727666 0.875800
O O1 0.500000 0.752269 0.250000
O O2 0.344500 0.655501 0.250000
O O3 0.408816 0.700755 0.166994
O O4 0.340271 0.835310 0.229645
O O5 0.599266 0.280407 0.070242
O O6 0.653321 0.440254 0.098972
O O7 0.753139 0.304688 0.122243
O O8 0.159343 0.159343 0.750000
O O9 0.279861 0.111347 0.819061
O O10 0.254354 0.000000 0.750000
O O11 0.460539 0.174950 0.058928
O O12 0.473746 0.319870 0.000000
O O13 0.145879 0.830592 0.101355
O O14 0.989038 0.871393 0.061071
O O15 0.129295 0.846244 0.000000
O O16 0.332362 0.068915 0.908250
O O17 0.500000 0.000000 0.921474
O O18 0.396017 0.041917 0.000000
#
# Coordination Sequence:
#
# PCOD8313328 Si02
#       7
#    16  16  16  16  16  16  16
#     4  11  23  44  68  96 134 175 229 286 334 399
#     4  11  22  40  65  87 128 169 210 267 321 389
#     4  11  26  47  66  98 136 174 230 292 345 413
#     4  10  22  38  61  95 130 167 210 262 324 390
#     4   9  20  37  58  89 123 156 205 258 309 380
#     4   9  20  38  59  91 131 165 209 260 317 396
#     4  11  22  39  65  89 124 170 215 261 330 393
#
# _framework density 20.401852000000002
#
# number of rings (size 3 to 8) (size 9 to 14) (size 15 to 20)
#    0.000    1.714    2.857    2.143    4.000    4.857 
#    0.000    5.000    0.000    0.000    0.000    0.000 
#    0.000    0.000    0.000    0.000    0.000    0.000 
#
# Total GULP energy -1387563.174400 kJ/mol
# GULP energy per Si atom -12388.956914 kJ/mol
# Density = 2.035542 g / cm^3
# Si number density = 20.401852 Si / 1000 Ang^3
#
#
#
# Elastic Constant Matrix: (Units=GPa)
#
#
# Indices 1 2 3 4 5 6 
#
# 1 78.9352 28.4446 51.2822 0.0000 0.0000 0.0000
# 2 28.4446 78.9356 51.2822 0.0000 0.0000 0.0000
# 3 51.2822 51.2822 128.8095 0.0000 0.0000 0.0000
# 4 0.0000 0.0000 0.0000 31.1013 0.0000 0.0000
# 5 0.0000 0.0000 0.0000 0.0000 31.1014 0.0000
# 6 0.0000 0.0000 0.0000 0.0000 0.0000 26.0358
#
#
#
# Elastic Compliance Matrix: (Units=1/GPa)
#
#
# Indices 1 2 3 4 5 6 
#
# 1 0.017416 -0.002389 -0.005983 0.000000 0.000000 0.000000
# 2 -0.002389 0.017416 -0.005983 0.000000 0.000000 0.000000
# 3 -0.005983 -0.005983 0.012527 0.000000 0.000000 0.000000
# 4 0.000000 0.000000 0.000000 0.032153 0.000000 0.000000
# 5 0.000000 0.000000 0.000000 0.000000 0.032153 0.000000
# 6 0.000000 0.000000 0.000000 0.000000 0.000000 0.038409
#
#
# Mechanical properties :
#
#
# Convention : Reuss Voigt Hill
#
# Bulk Modulus (GPa) = 53.61744 60.96646 57.29195
# Shear Modulus (GPa) = 27.02700 28.02579 27.52639
#
# Velocity S-wave (km/s) = 3.64364 3.71035 3.67714
# Velocity P-wave (km/s) = 6.63620 6.95006 6.79494
#
# Compressibility (1/GPa) = 0.01865065
#
# Stress axis : x y z
#
# Youngs Moduli (GPa) = 57.41719 57.41757 79.82706
#
# Poissons Ratio (x) = 0.13719 0.47758
# Poissons Ratio (y) = 0.13718 0.47758
# Poissons Ratio (z) = 0.34351 0.34351
#
# Static dielectric constant tensor:
#      x y z
#    x 3.761260 0.000000 0.000000 
#    y 0.000000 3.761260 0.000000 
#    z 0.000000 0.000000 1.056740 
# 
# 
# High freq. dielectric constant tensor:
#      x y z
#    x 1.793670 0.000000 0.000000 
#    y 0.000000 1.793670 0.000000 
#    z 0.000000 0.000000 1.808100 
# 
# From -- ./inp_files/6651.got.cif
#   From: 2010.03.12/outbox.cif.g09.slc.cpg/sg124_4_cif.got.tgz:6651.got - 2010.04.06 16:38:57.
