data_PCOD8313056
_publ_section_title
;
Structure prediction by ZEFSAII (Michael W. Deem and Ramdas Pophale) SiO2 
 PCOD8313056
Probable space group: P 4/M M M
;
_chemical_formula_sum "Si O2"
_cell_formula_units_Z 96
_cell_length_a 18.445961
_cell_length_b 18.445961
_cell_length_c 17.771103
_cell_angle_alpha 90.000000
_cell_angle_beta 90.000000
_cell_angle_gamma 90.000000
_cell_volume 6046.679590
_symmetry_space_group_name_H-M "P 4/M M M"
_symmetry_group_IT_number 123
_symmetry_cell_setting 'tetragonal'
loop_
_space_group_symop_operation_xyz
x,y,z
-y,x,z
-x,-y,z
y,-x,z
x,-y,-z
-x,y,-z
y,x,-z
-y,-x,-z
-x,-y,-z
y,-x,-z
x,y,-z
-y,x,-z
-x,y,z
x,-y,z
-y,-x,z
y,x,z
loop_
_atom_site_type_symbol
_atom_site_label
_atom_site_fract_x
_atom_site_fract_y
_atom_site_fract_z
Si Si1 0.221008 0.337793 0.085675
Si Si2 0.687895 0.084021 0.586478
Si Si3 0.800620 0.081267 0.709850
Si Si4 0.583552 0.845570 0.304029
Si Si5 0.702747 0.583943 0.783399
Si Si6 0.917705 0.670422 0.178671
O O1 0.259846 0.259846 0.095830
O O2 0.262549 0.397204 0.135779
O O3 0.136808 0.330547 0.108334
O O4 0.224948 0.364930 0.000000
O O5 0.700564 0.104119 0.500000
O O6 0.761989 0.100008 0.630929
O O7 0.625127 0.135349 0.619224
O O8 0.665156 0.000000 0.597339
O O9 0.868235 0.131766 0.723348
O O10 0.745816 0.092622 0.778398
O O11 0.830644 0.000000 0.708318
O O12 0.500000 0.857668 0.320562
O O13 0.600344 0.762505 0.280784
O O14 0.606251 0.899478 0.236845
O O15 0.679476 0.500000 0.783676
O O16 0.632054 0.632054 0.766058
O O17 0.000000 0.660595 0.149337
#
# Coordination Sequence:
#
# PCOD8313056 Si02
#       6
#    16  16  16  16  16  16
#     4   9  17  29  45  64  87 115 144 175 213 256
#     4   9  18  30  43  63  90 118 147 178 214 254
#     4   9  17  29  44  61  83 111 144 183 222 259
#     4   9  17  29  45  65  89 115 142 173 209 251
#     4   9  18  32  49  68  89 113 142 177 216 258
#     4   9  17  28  43  63  86 114 146 178 212 251
#
# _framework density 15.876481999999999
#
# number of rings (size 3 to 8) (size 9 to 14) (size 15 to 20)
#    0.000    3.000    0.000    2.000    0.000    7.000 
#    0.000    0.833    0.000    0.000    0.000    9.333 
#    0.000    0.000    0.000   19.167    0.000    0.667 
#
# Total GULP energy -1190280.530229 kJ/mol
# GULP energy per Si atom -12398.755523 kJ/mol
# Density = 1.584035 g / cm^3
# Si number density = 15.876482 Si / 1000 Ang^3
#
#
#
# Elastic Constant Matrix: (Units=GPa)
#
#
# Indices 1 2 3 4 5 6 
#
# 1 83.7562 45.1054 11.2415 0.0000 0.0000 0.0000
# 2 45.1054 83.7562 11.2415 0.0000 0.0000 0.0000
# 3 11.2415 11.2415 36.6791 0.0000 0.0000 0.0000
# 4 0.0000 0.0000 0.0000 16.1689 0.0000 0.0000
# 5 0.0000 0.0000 0.0000 0.0000 16.1689 0.0000
# 6 0.0000 0.0000 0.0000 0.0000 0.0000 23.5299
#
#
#
# Elastic Compliance Matrix: (Units=1/GPa)
#
#
# Indices 1 2 3 4 5 6 
#
# 1 0.017036 -0.008837 -0.002513 0.000000 0.000000 0.000000
# 2 -0.008837 0.017036 -0.002513 0.000000 0.000000 0.000000
# 3 -0.002513 -0.002513 0.028804 0.000000 0.000000 0.000000
# 4 0.000000 0.000000 0.000000 0.061847 0.000000 0.000000
# 5 0.000000 0.000000 0.000000 0.000000 0.061847 0.000000
# 6 0.000000 0.000000 0.000000 0.000000 0.000000 0.042499
#
#
# Mechanical properties :
#
#
# Convention : Reuss Voigt Hill
#
# Bulk Modulus (GPa) = 28.44944 37.70757 33.07851
# Shear Modulus (GPa) = 18.62126 20.28040 19.45083
#
# Velocity S-wave (km/s) = 3.42845 3.57793 3.50399
# Velocity P-wave (km/s) = 5.79918 6.39304 6.10334
#
# Compressibility (1/GPa) = 0.03515007
#
# Stress axis : x y z
#
# Youngs Moduli (GPa) = 58.70036 58.70036 34.71776
#
# Poissons Ratio (x) = 0.51873 0.08724
# Poissons Ratio (y) = 0.51873 0.08724
# Poissons Ratio (z) = 0.14750 0.14750
#
# Static dielectric constant tensor:
#      x y z
#    x 2.979010 0.000000 0.000000 
#    y 0.000000 2.979010 0.000000 
#    z 0.000000 0.000000 2.919130 
# 
# 
# High freq. dielectric constant tensor:
#      x y z
#    x 1.605170 0.000000 0.000000 
#    y 0.000000 1.605170 0.000000 
#    z 0.000000 0.000000 1.595670 
# 
# From -- ./inp_files/5452.got.cif
#   From: 2010.03.12/outbox.cif.g09.slc.cpg/sg123_3_cif.got.tgz:5452.got - 2010.04.06 16:26:55.
