data_PCOD8313699
_publ_section_title
;
Structure prediction by ZEFSAII (Michael W. Deem and Ramdas Pophale) SiO2 
 PCOD8313699
Probable space group: P 4/N N C
;
_chemical_formula_sum "Si O2"
_cell_formula_units_Z 96
_cell_length_a 14.835350
_cell_length_b 14.835350
_cell_length_c 20.828008
_cell_angle_alpha 90.000000
_cell_angle_beta 90.000000
_cell_angle_gamma 90.000000
_cell_volume 4583.986494
_symmetry_space_group_name_H-M "P 4/N N C"
_symmetry_group_IT_number 126
_space_group.IT_coordinate_system_code '2'
_symmetry_cell_setting 'tetragonal'
loop_
_space_group_symop_operation_xyz
x,y,z
1/2-y,x,z
1/2-x,1/2-y,z
y,1/2-x,z
x,1/2-y,1/2-z
1/2-x,y,1/2-z
y,x,1/2-z
1/2-y,1/2-x,1/2-z
-x,-y,-z
1/2+y,-x,-z
1/2+x,1/2+y,-z
-y,1/2+x,-z
-x,1/2+y,1/2+z
1/2+x,-y,1/2+z
-y,-x,1/2+z
1/2+y,1/2+x,1/2+z
loop_
_atom_site_type_symbol
_atom_site_label
_atom_site_fract_x
_atom_site_fract_y
_atom_site_fract_z
Si Si1 0.888138 0.691450 0.417547
Si Si2 0.466393 0.162738 0.718722
Si Si3 0.148457 0.905206 0.250201
Si Si4 0.496967 0.142382 0.119214
Si Si5 0.959740 0.095204 0.985245
Si Si6 0.652355 0.494401 0.613407
O O1 0.867117 0.797139 0.421118
O O2 0.944047 0.662419 0.355403
O O3 0.958029 0.664843 0.472447
O O4 0.418494 0.250000 0.750000
O O5 0.428228 0.071773 0.750000
O O6 0.573122 0.169588 0.734395
O O7 0.250000 0.863925 0.250000
O O8 0.135372 0.978794 0.194285
O O9 0.129652 0.946985 0.319742
O O10 0.581724 0.112653 0.072516
O O11 0.409468 0.082712 0.105857
O O12 0.472313 0.245529 0.106356
O O13 0.923174 0.131213 0.054653
O O14 0.000000 0.000000 0.000000
#
# Coordination Sequence:
#
# PCOD8313699 Si02
#       6
#    16  16  16  16  16  16
#     4  11  24  41  63  97 134 168 212 269 330 404
#     4  12  23  37  65  94 130 169 210 267 335 399
#     4  10  22  42  65  89 119 168 224 266 317 383
#     4  10  20  40  63  89 119 161 207 260 319 384
#     4  10  23  39  60  88 125 168 208 250 321 393
#     4  10  22  37  62  90 122 156 208 268 313 388
#
# _framework density 20.942468999999999
#
# number of rings (size 3 to 8) (size 9 to 14) (size 15 to 20)
#    0.000    1.500    3.333    1.500    7.000    0.833 
#    0.000    0.000    0.000    3.500    0.000    0.000 
#    0.000    0.000    0.000    0.000    0.000    0.000 
#
# Total GULP energy -1189427.949620 kJ/mol
# GULP energy per Si atom -12389.874475 kJ/mol
# Density = 2.089480 g / cm^3
# Si number density = 20.942469 Si / 1000 Ang^3
#
#
#
# Elastic Constant Matrix: (Units=GPa)
#
#
# Indices 1 2 3 4 5 6 
#
# 1 90.3974 39.3977 42.6899 0.0000 0.0000 0.0000
# 2 39.3977 90.3976 42.6903 0.0000 0.0000 0.0000
# 3 42.6899 42.6903 165.6744 0.0000 0.0000 0.0000
# 4 0.0000 0.0000 0.0000 25.4670 0.0000 0.0000
# 5 0.0000 0.0000 0.0000 0.0000 25.4635 0.0000
# 6 0.0000 0.0000 0.0000 0.0000 0.0000 24.1760
#
#
#
# Elastic Compliance Matrix: (Units=1/GPa)
#
#
# Indices 1 2 3 4 5 6 
#
# 1 0.014442 -0.005166 -0.002390 0.000000 0.000000 0.000000
# 2 -0.005166 0.014442 -0.002390 0.000000 0.000000 0.000000
# 3 -0.002390 -0.002390 0.007268 0.000000 0.000000 0.000000
# 4 0.000000 0.000000 0.000000 0.039266 0.000000 0.000000
# 5 0.000000 0.000000 0.000000 0.000000 0.039272 0.000000
# 6 0.000000 0.000000 0.000000 0.000000 0.000000 0.041363
#
#
# Mechanical properties :
#
#
# Convention : Reuss Voigt Hill
#
# Bulk Modulus (GPa) = 61.50088 66.22502 63.86295
# Shear Modulus (GPa) = 27.56841 29.80074 28.68458
#
# Velocity S-wave (km/s) = 3.63214 3.77633 3.70494
# Velocity P-wave (km/s) = 6.85713 7.12076 6.99019
#
# Compressibility (1/GPa) = 0.01625993
#
# Stress axis : x y z
#
# Youngs Moduli (GPa) = 69.24054 69.24056 137.59253
#
# Poissons Ratio (x) = 0.35766 0.32890
# Poissons Ratio (y) = 0.35766 0.32891
# Poissons Ratio (z) = 0.16551 0.16552
#
# Static dielectric constant tensor:
#      x y z
#    x 3.746680 0.000000 0.000000 
#    y 0.000000 3.746680 0.000000 
#    z 0.000000 0.000000 4.343450 
# 
# 
# High freq. dielectric constant tensor:
#      x y z
#    x 1.806520 0.000000 0.000000 
#    y 0.000000 1.806520 0.000000 
#    z 0.000000 0.000000 1.849080 
# 
# From -- ./inp_files/5261.got.cif
#   From: 2010.03.12/outbox.cif.g09.slc.cpg/sg126_3_cif.got.tgz:5261.got - 2010.04.06 16:55:23.
