data_PCOD8313682
_publ_section_title
;
Structure prediction by ZEFSAII (Michael W. Deem and Ramdas Pophale) SiO2 
 PCOD8313682
Probable space group: P 4/N N C
;
_chemical_formula_sum "Si O2"
_cell_formula_units_Z 84
_cell_length_a 11.440675
_cell_length_b 11.440675
_cell_length_c 30.892733
_cell_angle_alpha 90.000000
_cell_angle_beta 90.000000
_cell_angle_gamma 90.000000
_cell_volume 4043.520303
_symmetry_space_group_name_H-M "P 4/N N C"
_symmetry_group_IT_number 126
_space_group.IT_coordinate_system_code '2'
_symmetry_cell_setting 'tetragonal'
loop_
_space_group_symop_operation_xyz
x,y,z
1/2-y,x,z
1/2-x,1/2-y,z
y,1/2-x,z
x,1/2-y,1/2-z
1/2-x,y,1/2-z
y,x,1/2-z
1/2-y,1/2-x,1/2-z
-x,-y,-z
1/2+y,-x,-z
1/2+x,1/2+y,-z
-y,1/2+x,-z
-x,1/2+y,1/2+z
1/2+x,-y,1/2+z
-y,-x,1/2+z
1/2+y,1/2+x,1/2+z
loop_
_atom_site_type_symbol
_atom_site_label
_atom_site_fract_x
_atom_site_fract_y
_atom_site_fract_z
Si Si1 0.908857 0.039952 0.213107
Si Si2 0.573612 0.679302 0.369632
Si Si3 0.590962 0.148421 0.506795
Si Si4 0.999503 0.524779 0.571381
Si Si5 0.622998 0.889951 0.845489
Si Si6 0.250000 0.750000 0.750000
O O1 0.838345 0.159973 0.225156
O O2 0.032133 0.061674 0.190305
O O3 0.826042 0.974288 0.179148
O O4 0.945924 0.945924 0.250000
O O5 0.686433 0.598672 0.377371
O O6 0.485259 0.626894 0.405442
O O7 0.593808 0.286835 0.508722
O O8 0.500580 0.111557 0.469439
O O9 0.550786 0.099116 0.553560
O O10 0.913047 0.580655 0.605979
O O11 0.586803 0.758158 0.837520
#
# Coordination Sequence:
#
# PCOD8313682 Si02
#       6
#    16  16  16  16  16   4
#     4  11  23  40  60  86 118 151 193 244 294 358
#     4  10  21  37  57  81 111 148 189 236 291 348
#     4  10  20  34  53  79 110 144 184 235 293 350
#     4  10  20  35  55  79 109 146 189 235 287 354
#     4  10  21  37  57  81 111 148 189 236 291 348
#     4  12  24  40  64  92 120 160 206 244 308 376
#
# _framework density 20.773979000000001
#
# number of rings (size 3 to 8) (size 9 to 14) (size 15 to 20)
#    0.000    1.714    0.000    4.571    0.000    1.524 
#    0.000    9.524    0.000    9.143    0.000    0.000 
#    0.000    0.000    0.000    0.000    0.000    0.000 
#
# Total GULP energy -1040920.879649 kJ/mol
# GULP energy per Si atom -12391.915234 kJ/mol
# Density = 2.072670 g / cm^3
# Si number density = 20.773979 Si / 1000 Ang^3
#
#
#
# Elastic Constant Matrix: (Units=GPa)
#
#
# Indices 1 2 3 4 5 6 
#
# 1 39.1278 3.7613 16.3026 0.0000 0.0000 0.0000
# 2 3.7613 39.1278 16.3026 0.0000 0.0000 0.0000
# 3 16.3026 16.3026 85.2680 0.0000 0.0000 0.0000
# 4 0.0000 0.0000 0.0000 26.3019 0.0000 0.0000
# 5 0.0000 0.0000 0.0000 0.0000 26.3019 0.0000
# 6 0.0000 0.0000 0.0000 0.0000 0.0000 31.4623
#
#
#
# Elastic Compliance Matrix: (Units=1/GPa)
#
#
# Indices 1 2 3 4 5 6 
#
# 1 0.027778 -0.000497 -0.005216 0.000000 0.000000 0.000000
# 2 -0.000497 0.027778 -0.005216 0.000000 0.000000 0.000000
# 3 -0.005216 -0.005216 0.013722 0.000000 0.000000 0.000000
# 4 0.000000 0.000000 0.000000 0.038020 0.000000 0.000000
# 5 0.000000 0.000000 0.000000 0.000000 0.038020 0.000000
# 6 0.000000 0.000000 0.000000 0.000000 0.000000 0.031784
#
#
# Mechanical properties :
#
#
# Convention : Reuss Voigt Hill
#
# Bulk Modulus (GPa) = 21.08776 26.25071 23.66923
# Shear Modulus (GPa) = 23.28097 25.29039 24.28568
#
# Velocity S-wave (km/s) = 3.35129 3.49292 3.42284
# Velocity P-wave (km/s) = 5.01477 5.37876 5.19995
#
# Compressibility (1/GPa) = 0.04742087
#
# Stress axis : x y z
#
# Youngs Moduli (GPa) = 35.99939 35.99939 72.87447
#
# Poissons Ratio (x) = 0.01789 0.38011
# Poissons Ratio (y) = 0.01789 0.38011
# Poissons Ratio (z) = 0.18777 0.18777
#
# Static dielectric constant tensor:
#      x y z
#    x 3.723940 0.000000 0.000000 
#    y 0.000000 3.723940 0.000000 
#    z 0.000000 0.000000 3.771390 
# 
# 
# High freq. dielectric constant tensor:
#      x y z
#    x 1.814830 0.000000 0.000000 
#    y 0.000000 1.814830 0.000000 
#    z 0.000000 0.000000 1.822070 
# 
# From -- ./inp_files/6501.got.cif
#   From: 2010.03.12/outbox.cif.g09.slc.cpg/sg126_4_cif.got.tgz:6501.got - 2010.04.06 16:55:23.
