data_PCOD8313565
_publ_section_title
;
Structure prediction by ZEFSAII (Michael W. Deem and Ramdas Pophale) SiO2 
 PCOD8313565
Probable space group: P 4/N B M
;
_chemical_formula_sum "Si O2"
_cell_formula_units_Z 42
_cell_length_a 14.990788
_cell_length_b 14.990788
_cell_length_c 8.792633
_cell_angle_alpha 90.000000
_cell_angle_beta 90.000000
_cell_angle_gamma 90.000000
_cell_volume 1975.913239
_symmetry_space_group_name_H-M "P 4/N B M"
_symmetry_group_IT_number 125
_space_group.IT_coordinate_system_code '2'
_symmetry_cell_setting 'tetragonal'
loop_
_space_group_symop_operation_xyz
x,y,z
1/2-y,x,z
1/2-x,1/2-y,z
y,1/2-x,z
x,1/2-y,-z
1/2-x,y,-z
y,x,-z
1/2-y,1/2-x,-z
-x,-y,-z
1/2+y,-x,-z
1/2+x,1/2+y,-z
-y,1/2+x,-z
-x,1/2+y,z
1/2+x,-y,z
-y,-x,z
1/2+y,1/2+x,z
loop_
_atom_site_type_symbol
_atom_site_label
_atom_site_fract_x
_atom_site_fract_y
_atom_site_fract_z
Si Si1 0.735317 0.517821 0.830972
Si Si2 0.680388 0.180388 0.208616
Si Si3 0.562427 0.582998 0.678463
Si Si4 0.750000 0.250000 0.500000
O O1 0.703628 0.416986 0.847385
O O2 0.657960 0.576586 0.757435
O O3 0.823083 0.519989 0.726514
O O4 0.750000 0.556301 0.000000
O O5 0.750000 0.250000 0.134234
O O6 0.687205 0.187205 0.394104
O O7 0.578135 0.578135 0.500000
O O8 0.496276 0.503725 0.731756
#
# Coordination Sequence:
#
# PCOD8313565 Si02
#       4
#    16   8  16   2
#     4  12  26  43  69 102 144 180 233 287 359 417
#     4  10  24  37  67  99 139 177 232 290 349 410
#     4  11  26  45  73 101 140 189 240 288 343 418
#     4   8  24  36  62  96 144 168 242 280 344 408
#
# _framework density 21.255994000000001
#
# number of rings (size 3 to 8) (size 9 to 14) (size 15 to 20)
#    0.571    0.381    1.905    3.429   10.667    2.286 
#    0.000    3.810    0.000    0.000    0.000    0.000 
#    0.000    0.000    0.000    0.000    0.000    0.000 
#
# Total GULP energy -520944.127198 kJ/mol
# GULP energy per Si atom -12403.431600 kJ/mol
# Density = 2.120761 g / cm^3
# Si number density = 21.255994 Si / 1000 Ang^3
#
#
#
# Elastic Constant Matrix: (Units=GPa)
#
#
# Indices 1 2 3 4 5 6 
#
# 1 121.7082 34.2037 43.7602 0.0000 0.0000 0.0000
# 2 34.2037 121.7082 43.7602 0.0000 0.0000 0.0000
# 3 43.7602 43.7602 113.3927 0.0000 0.0000 0.0000
# 4 0.0000 0.0000 0.0000 25.7228 0.0000 0.0000
# 5 0.0000 0.0000 0.0000 0.0000 25.7228 0.0000
# 6 0.0000 0.0000 0.0000 0.0000 0.0000 39.3784
#
#
#
# Elastic Compliance Matrix: (Units=1/GPa)
#
#
# Indices 1 2 3 4 5 6 
#
# 1 0.009808 -0.001620 -0.003160 0.000000 0.000000 0.000000
# 2 -0.001620 0.009808 -0.003160 0.000000 0.000000 0.000000
# 3 -0.003160 -0.003160 0.011258 0.000000 0.000000 0.000000
# 4 0.000000 0.000000 0.000000 0.038876 0.000000 0.000000
# 5 0.000000 0.000000 0.000000 0.000000 0.038876 0.000000
# 6 0.000000 0.000000 0.000000 0.000000 0.000000 0.025395
#
#
# Mechanical properties :
#
#
# Convention : Reuss Voigt Hill
#
# Bulk Modulus (GPa) = 66.69362 66.69526 66.69444
# Shear Modulus (GPa) = 32.27946 33.83713 33.05830
#
# Velocity S-wave (km/s) = 3.90116 3.99417 3.94794
# Velocity P-wave (km/s) = 7.19281 7.26061 7.22679
#
# Compressibility (1/GPa) = 0.01499394
#
# Stress axis : x y z
#
# Youngs Moduli (GPa) = 101.95988 101.95988 88.82817
#
# Poissons Ratio (x) = 0.16520 0.28067
# Poissons Ratio (y) = 0.16520 0.28067
# Poissons Ratio (z) = 0.32216 0.32216
#
# Static dielectric constant tensor:
#      x y z
#    x 2.773820 0.000000 0.000000 
#    y 0.000000 2.773820 0.000000 
#    z 0.000000 0.000000 3.979970 
# 
# 
# High freq. dielectric constant tensor:
#      x y z
#    x 1.835620 0.000000 0.000000 
#    y 0.000000 1.835620 0.000000 
#    z 0.000000 0.000000 1.848220 
# 
# From -- ./inp_files/1705.got.cif
#   From: 2010.03.12/outbox.cif.g09.slc.cpg/sg125_1_cif.got.tgz:1705.got - 2010.04.06 16:47:52.
