data_PCOD8313663
_publ_section_title
;
Structure prediction by ZEFSAII (Michael W. Deem and Ramdas Pophale) SiO2 
 PCOD8313663
Probable space group: P 4/N N C
;
_chemical_formula_sum "Si O2"
_cell_formula_units_Z 96
_cell_length_a 22.532584
_cell_length_b 22.532584
_cell_length_c 10.352104
_cell_angle_alpha 90.000000
_cell_angle_beta 90.000000
_cell_angle_gamma 90.000000
_cell_volume 5255.942724
_symmetry_space_group_name_H-M "P 4/N N C"
_symmetry_group_IT_number 126
_space_group.IT_coordinate_system_code '2'
_symmetry_cell_setting 'tetragonal'
loop_
_space_group_symop_operation_xyz
x,y,z
1/2-y,x,z
1/2-x,1/2-y,z
y,1/2-x,z
x,1/2-y,1/2-z
1/2-x,y,1/2-z
y,x,1/2-z
1/2-y,1/2-x,1/2-z
-x,-y,-z
1/2+y,-x,-z
1/2+x,1/2+y,-z
-y,1/2+x,-z
-x,1/2+y,1/2+z
1/2+x,-y,1/2+z
-y,-x,1/2+z
1/2+y,1/2+x,1/2+z
loop_
_atom_site_type_symbol
_atom_site_label
_atom_site_fract_x
_atom_site_fract_y
_atom_site_fract_z
Si Si1 0.445722 0.886982 0.863009
Si Si2 0.473256 0.758457 0.893368
Si Si3 0.583022 0.909626 0.897004
Si Si4 0.041204 0.874321 0.929131
Si Si5 0.652882 0.750000 0.250000
Si Si6 0.785703 0.908390 0.997805
Si Si7 0.750000 0.653205 0.750000
O O1 0.430996 0.816827 0.886890
O O2 0.511551 0.908285 0.902849
O O3 0.436971 0.900394 0.709356
O O4 0.400893 0.924352 0.949530
O O5 0.501399 0.750000 0.750000
O O6 0.444267 0.696236 0.936033
O O7 0.521408 0.777314 0.998473
O O8 0.603123 0.896878 0.750000
O O9 0.608030 0.855712 0.985575
O O10 0.610801 0.971235 0.947672
O O11 0.691518 0.691518 0.250000
O O12 0.613084 0.746609 0.375150
O O13 0.747055 0.885138 0.878756
O O14 0.808548 0.691453 0.750000
#
# Coordination Sequence:
#
# PCOD8313663 Si02
#       7
#    16  16  16  16   8  16   8
#     4   9  19  36  54  84 118 142 177 229 278 336
#     4   9  19  36  59  84 107 142 182 233 283 323
#     4   9  19  33  58  84 110 143 185 239 283 326
#     4  10  19  35  59  83 111 148 180 222 284 338
#     4  11  26  40  46  64 112 160 184 233 292 324
#     4  11  21  37  55  74 107 142 194 239 280 322
#     4  11  22  30  52  78  96 138 198 243 262 312
#
# _framework density 18.265039000000002
#
# number of rings (size 3 to 8) (size 9 to 14) (size 15 to 20)
#    0.000    2.167    0.833    3.000    4.667    1.333 
#    6.000    0.000    0.000    0.500    0.000    3.500 
#    0.000    0.000    0.000    0.000    0.000    0.000 
#
# Total GULP energy -1189608.103955 kJ/mol
# GULP energy per Si atom -12391.751083 kJ/mol
# Density = 1.822347 g / cm^3
# Si number density = 18.265039 Si / 1000 Ang^3
#
#
#
# Elastic Constant Matrix: (Units=GPa)
#
#
# Indices 1 2 3 4 5 6 
#
# 1 66.3804 41.8866 46.8985 0.0000 0.0000 0.0000
# 2 41.8866 66.3805 46.8980 0.0000 0.0000 0.0000
# 3 46.8985 46.8980 123.5578 0.0000 0.0000 0.0000
# 4 0.0000 0.0000 0.0000 34.5759 0.0000 0.0000
# 5 0.0000 0.0000 0.0000 0.0000 34.5766 0.0000
# 6 0.0000 0.0000 0.0000 0.0000 0.0000 25.2950
#
#
#
# Elastic Compliance Matrix: (Units=1/GPa)
#
#
# Indices 1 2 3 4 5 6 
#
# 1 0.027294 -0.013532 -0.005224 0.000000 0.000000 0.000000
# 2 -0.013532 0.027294 -0.005223 0.000000 0.000000 0.000000
# 3 -0.005224 -0.005223 0.012059 0.000000 0.000000 0.000000
# 4 0.000000 0.000000 0.000000 0.028922 0.000000 0.000000
# 5 0.000000 0.000000 0.000000 0.000000 0.028921 0.000000
# 6 0.000000 0.000000 0.000000 0.000000 0.000000 0.039533
#
#
# Mechanical properties :
#
#
# Convention : Reuss Voigt Hill
#
# Bulk Modulus (GPa) = 53.50953 58.63166 56.07060
# Shear Modulus (GPa) = 22.91353 26.93188 24.92271
#
# Velocity S-wave (km/s) = 3.54574 3.84409 3.69793
# Velocity P-wave (km/s) = 6.79137 7.20229 6.99985
#
# Compressibility (1/GPa) = 0.01868826
#
# Stress axis : x y z
#
# Youngs Moduli (GPa) = 36.63777 36.63808 82.92778
#
# Poissons Ratio (x) = 0.49580 0.43318
# Poissons Ratio (y) = 0.49580 0.43316
# Poissons Ratio (z) = 0.19138 0.19137
#
# Static dielectric constant tensor:
#      x y z
#    x 3.294650 0.000000 0.000000 
#    y 0.000000 3.294630 0.000000 
#    z 0.000000 0.000000 3.224550 
# 
# 
# High freq. dielectric constant tensor:
#      x y z
#    x 1.694590 0.000000 0.000000 
#    y 0.000000 1.694590 0.000000 
#    z 0.000000 0.000000 1.695290 
# 
# From -- ./inp_files/2933.got.cif
#   From: 2010.03.12/outbox.cif.g09.slc.cpg/sg126_2_cif.got.tgz:2933.got - 2010.04.06 16:55:23.
