data_PCOD8313594
_publ_section_title
;
Structure prediction by ZEFSAII (Michael W. Deem and Ramdas Pophale) SiO2 
 PCOD8313594
Probable space group: P 4/N B M
;
_chemical_formula_sum "Si O2"
_cell_formula_units_Z 72
_cell_length_a 13.534007
_cell_length_b 13.534007
_cell_length_c 20.665372
_cell_angle_alpha 90.000000
_cell_angle_beta 90.000000
_cell_angle_gamma 90.000000
_cell_volume 3785.262663
_symmetry_space_group_name_H-M "P 4/N B M"
_symmetry_group_IT_number 125
_space_group.IT_coordinate_system_code '2'
_symmetry_cell_setting 'tetragonal'
loop_
_space_group_symop_operation_xyz
x,y,z
1/2-y,x,z
1/2-x,1/2-y,z
y,1/2-x,z
x,1/2-y,-z
1/2-x,y,-z
y,x,-z
1/2-y,1/2-x,-z
-x,-y,-z
1/2+y,-x,-z
1/2+x,1/2+y,-z
-y,1/2+x,-z
-x,1/2+y,z
1/2+x,-y,z
-y,-x,z
1/2+y,1/2+x,z
loop_
_atom_site_type_symbol
_atom_site_label
_atom_site_fract_x
_atom_site_fract_y
_atom_site_fract_z
Si Si1 0.513984 0.852972 0.693736
Si Si2 0.250000 0.413624 0.500000
Si Si3 0.649407 0.512326 0.966208
Si Si4 0.602537 0.679618 0.168955
Si Si5 0.993723 0.659382 0.375243
O O1 0.551021 0.859216 0.766591
O O2 0.487838 0.738871 0.680931
O O3 0.597400 0.895486 0.643958
O O4 0.415083 0.915083 0.685418
O O5 0.152256 0.347745 0.500000
O O6 0.270756 0.482597 0.561615
O O7 0.575715 0.424286 0.981296
O O8 0.655147 0.529864 0.889757
O O9 0.750000 0.480139 0.000000
O O10 0.613234 0.613234 0.000000
O O11 0.704115 0.620241 0.165934
O O12 0.087267 0.587267 0.383180
#
# Coordination Sequence:
#
# PCOD8313594 Si02
#       5
#    16   8  16  16  16
#     4  11  23  41  63  90 130 167 206 259 313 373
#     4  11  22  38  66  95 120 162 209 256 308 371
#     4  11  23  40  62  89 126 167 208 257 319 380
#     4  11  21  36  65  95 121 160 212 267 314 368
#     4  11  24  41  65  94 125 165 211 257 314 377
#
# _framework density 19.021137
#
# number of rings (size 3 to 8) (size 9 to 14) (size 15 to 20)
#    0.000    1.000    6.667    0.667    0.000    2.667 
#    0.000    1.111    0.000    2.667    0.000    0.000 
#    0.000    0.000    0.000    0.000    0.000    0.000 
#
# Total GULP energy -892689.110654 kJ/mol
# GULP energy per Si atom -12398.459870 kJ/mol
# Density = 1.897784 g / cm^3
# Si number density = 19.021137 Si / 1000 Ang^3
#
#
#
# Elastic Constant Matrix: (Units=GPa)
#
#
# Indices 1 2 3 4 5 6 
#
# 1 96.8448 47.4750 34.1108 0.0000 0.0000 0.0000
# 2 47.4750 96.8447 34.1110 0.0000 0.0000 0.0000
# 3 34.1108 34.1110 117.5791 0.0000 0.0000 0.0000
# 4 0.0000 0.0000 0.0000 27.7607 0.0000 0.0000
# 5 0.0000 0.0000 0.0000 0.0000 27.7607 0.0000
# 6 0.0000 0.0000 0.0000 0.0000 0.0000 39.3606
#
#
#
# Elastic Compliance Matrix: (Units=1/GPa)
#
#
# Indices 1 2 3 4 5 6 
#
# 1 0.014143 -0.006113 -0.002330 0.000000 0.000000 0.000000
# 2 -0.006113 0.014143 -0.002330 0.000000 0.000000 0.000000
# 3 -0.002330 -0.002330 0.009857 0.000000 0.000000 0.000000
# 4 0.000000 0.000000 0.000000 0.036022 0.000000 0.000000
# 5 0.000000 0.000000 0.000000 0.000000 0.036022 0.000000
# 6 0.000000 0.000000 0.000000 0.000000 0.000000 0.025406
#
#
# Mechanical properties :
#
#
# Convention : Reuss Voigt Hill
#
# Bulk Modulus (GPa) = 60.24613 60.29580 60.27096
# Shear Modulus (GPa) = 30.73720 32.01451 31.37585
#
# Velocity S-wave (km/s) = 4.02425 4.10701 4.06584
# Velocity P-wave (km/s) = 7.30307 7.36602 7.33461
#
# Compressibility (1/GPa) = 0.01659858
#
# Stress axis : x y z
#
# Youngs Moduli (GPa) = 70.70730 70.70714 101.45442
#
# Poissons Ratio (x) = 0.43220 0.23635
# Poissons Ratio (y) = 0.43220 0.23636
# Poissons Ratio (z) = 0.16472 0.16473
#
# Static dielectric constant tensor:
#      x y z
#    x 3.370180 0.000000 0.000000 
#    y 0.000000 3.370180 0.000000 
#    z 0.000000 0.000000 3.602050 
# 
# 
# High freq. dielectric constant tensor:
#      x y z
#    x 1.734710 0.000000 0.000000 
#    y 0.000000 1.734710 0.000000 
#    z 0.000000 0.000000 1.753880 
# 
# From -- ./inp_files/5356.got.cif
#   From: 2010.03.12/outbox.cif.g09.slc.cpg/sg125_3_cif.got.tgz:5356.got - 2010.04.06 16:47:52.
