data_PCOD8313872
_publ_section_title
;
Structure prediction by ZEFSAII (Michael W. Deem and Ramdas Pophale) SiO2 
 PCOD8313872
Probable space group: P 4/M B M
;
_chemical_formula_sum "Si O2"
_cell_formula_units_Z 96
_cell_length_a 21.197236
_cell_length_b 21.197236
_cell_length_c 11.585151
_cell_angle_alpha 90.000000
_cell_angle_beta 90.000000
_cell_angle_gamma 90.000000
_cell_volume 5205.472648
_symmetry_space_group_name_H-M "P 4/M B M"
_symmetry_group_IT_number 127
_symmetry_cell_setting 'tetragonal'
loop_
_space_group_symop_operation_xyz
x,y,z
-y,x,z
-x,-y,z
y,-x,z
1/2+x,1/2-y,-z
1/2-x,1/2+y,-z
1/2+y,1/2+x,-z
1/2-y,1/2-x,-z
-x,-y,-z
y,-x,-z
x,y,-z
-y,x,-z
1/2-x,1/2+y,z
1/2+x,1/2-y,z
1/2-y,1/2-x,z
1/2+y,1/2+x,z
loop_
_atom_site_type_symbol
_atom_site_label
_atom_site_fract_x
_atom_site_fract_y
_atom_site_fract_z
Si Si1 0.158362 0.558862 0.000000
Si Si2 0.550111 0.682965 0.634140
Si Si3 0.912498 0.312768 0.749684
Si Si4 0.659806 0.592041 0.634280
Si Si5 0.969755 0.631040 0.635009
Si Si6 0.581984 0.187130 0.000000
Si Si7 0.723186 0.122112 0.760204
O O1 0.196241 0.582048 0.112691
O O2 0.088059 0.588059 0.000000
O O3 0.151585 0.484148 0.000000
O O4 0.549316 0.699720 0.500000
O O5 0.579739 0.743964 0.695243
O O6 0.590977 0.620440 0.659742
O O7 0.480129 0.665462 0.677692
O O8 0.844693 0.344693 0.718763
O O9 0.965733 0.362052 0.705476
O O10 0.676491 0.597691 0.500000
O O11 0.708081 0.634269 0.708196
O O12 0.984290 0.637989 0.500000
O O13 0.936365 0.563636 0.662185
O O14 0.923397 0.687103 0.671722
O O15 0.589589 0.229623 0.885829
O O16 0.632348 0.132348 0.000000
O O17 0.689339 0.189339 0.771194
#
# Coordination Sequence:
#
# PCOD8313872 Si02
#       7
#     8  16  16  16  16   8  16
#     4  10  20  33  51  73 102 146 188 228 275 314
#     4  10  21  37  58  83 109 140 176 219 275 329
#     4  11  22  36  54  78 111 146 185 228 269 320
#     4  10  20  36  58  82 110 140 175 221 272 329
#     4  10  19  31  50  75 106 145 182 218 263 313
#     4  10  18  31  51  75 104 142 188 234 269 306
#     4  10  19  32  53  79 107 141 183 223 262 313
#
# _framework density 18.442129999999999
#
# number of rings (size 3 to 8) (size 9 to 14) (size 15 to 20)
#    0.000    1.833    3.333    1.000    0.000    3.833 
#    0.000    6.667    0.000    3.000    0.000    0.000 
#    0.000    4.000    0.000    0.000    0.000    0.000 
#
# Total GULP energy -1190265.183940 kJ/mol
# GULP energy per Si atom -12398.595666 kJ/mol
# Density = 1.840016 g / cm^3
# Si number density = 18.442130 Si / 1000 Ang^3
#
#
#
# Elastic Constant Matrix: (Units=GPa)
#
#
# Indices 1 2 3 4 5 6 
#
# 1 85.8013 57.8618 41.2995 0.0000 0.0000 0.0000
# 2 57.8618 85.8013 41.2995 0.0000 0.0000 0.0000
# 3 41.2995 41.2995 88.7576 0.0000 0.0000 0.0000
# 4 0.0000 0.0000 0.0000 20.6998 0.0000 0.0000
# 5 0.0000 0.0000 0.0000 0.0000 20.6998 0.0000
# 6 0.0000 0.0000 0.0000 0.0000 0.0000 24.0198
#
#
#
# Elastic Compliance Matrix: (Units=1/GPa)
#
#
# Indices 1 2 3 4 5 6 
#
# 1 0.022647 -0.013144 -0.004422 0.000000 0.000000 0.000000
# 2 -0.013144 0.022647 -0.004422 0.000000 0.000000 0.000000
# 3 -0.004422 -0.004422 0.015382 0.000000 0.000000 0.000000
# 4 0.000000 0.000000 0.000000 0.048310 0.000000 0.000000
# 5 0.000000 0.000000 0.000000 0.000000 0.048310 0.000000
# 6 0.000000 0.000000 0.000000 0.000000 0.000000 0.041632
#
#
# Mechanical properties :
#
#
# Convention : Reuss Voigt Hill
#
# Bulk Modulus (GPa) = 59.87869 60.14243 60.01056
# Shear Modulus (GPa) = 20.12308 21.07717 20.60013
#
# Velocity S-wave (km/s) = 3.30684 3.38432 3.34580
# Velocity P-wave (km/s) = 6.86434 6.92486 6.89467
#
# Compressibility (1/GPa) = 0.01670043
#
# Stress axis : x y z
#
# Youngs Moduli (GPa) = 44.15518 44.15518 65.01252
#
# Poissons Ratio (x) = 0.58039 0.28747
# Poissons Ratio (y) = 0.58039 0.28747
# Poissons Ratio (z) = 0.19525 0.19525
#
# Static dielectric constant tensor:
#      x y z
#    x 3.320610 0.000000 0.000000 
#    y 0.000000 3.320610 0.000000 
#    z 0.000000 0.000000 3.625600 
# 
# 
# High freq. dielectric constant tensor:
#      x y z
#    x 1.701680 0.000000 0.000000 
#    y 0.000000 1.701680 0.000000 
#    z 0.000000 0.000000 1.718300 
# 
# From -- ./inp_files/3614.got.cif
#   From: 2010.03.12/outbox.cif.g09.slc.cpg/sg127_2_cif.got.tgz:3614.got - 2010.04.06 17:03:15.
