data_PCOD8313721
_publ_section_title
;
Structure prediction by ZEFSAII (Michael W. Deem and Ramdas Pophale) SiO2 
 PCOD8313721
Probable space group: P 4/N N C
;
_chemical_formula_sum "Si O2"
_cell_formula_units_Z 96
_cell_length_a 19.553274
_cell_length_b 19.553274
_cell_length_c 11.512717
_cell_angle_alpha 90.000000
_cell_angle_beta 90.000000
_cell_angle_gamma 90.000000
_cell_volume 4401.663125
_symmetry_space_group_name_H-M "P 4/N N C"
_symmetry_group_IT_number 126
_space_group.IT_coordinate_system_code '2'
_symmetry_cell_setting 'tetragonal'
loop_
_space_group_symop_operation_xyz
x,y,z
1/2-y,x,z
1/2-x,1/2-y,z
y,1/2-x,z
x,1/2-y,1/2-z
1/2-x,y,1/2-z
y,x,1/2-z
1/2-y,1/2-x,1/2-z
-x,-y,-z
1/2+y,-x,-z
1/2+x,1/2+y,-z
-y,1/2+x,-z
-x,1/2+y,1/2+z
1/2+x,-y,1/2+z
-y,-x,1/2+z
1/2+y,1/2+x,1/2+z
loop_
_atom_site_type_symbol
_atom_site_label
_atom_site_fract_x
_atom_site_fract_y
_atom_site_fract_z
Si Si1 0.099268 0.938257 0.192794
Si Si2 0.445450 0.318032 0.575074
Si Si3 0.924234 0.675607 0.804859
Si Si4 0.750000 0.638523 0.250000
Si Si5 0.851554 0.303237 0.340991
Si Si6 0.409313 0.697855 0.498347
Si Si7 0.057037 0.442964 0.750000
O O1 0.130353 0.885483 0.284539
O O2 0.017602 0.935086 0.192972
O O3 0.126518 0.012917 0.227819
O O4 0.124972 0.916175 0.064660
O O5 0.417411 0.323183 0.444369
O O6 0.407506 0.253888 0.634784
O O7 0.524584 0.295683 0.582138
O O8 0.432479 0.387939 0.647164
O O9 0.936840 0.750000 0.750000
O O10 0.855158 0.644843 0.750000
O O11 0.817892 0.682109 0.250000
O O12 0.816575 0.250000 0.250000
O O13 0.796326 0.337892 0.426963
O O14 0.909048 0.259680 0.409317
#
# Coordination Sequence:
#
# PCOD8313721 Si02
#       7
#    16  16  16   8  16  16   8
#     4  10  21  41  66  99 141 172 223 295 363 406
#     4  11  25  44  70 107 134 182 237 285 360 416
#     4  11  25  43  68 101 139 187 234 291 350 432
#     4  11  26  48  70  96 143 186 218 284 355 424
#     4  10  21  42  65  91 136 181 227 279 352 415
#     4  10  22  41  65  98 133 185 229 283 347 419
#     4  12  22  40  73 112 135 172 242 294 360 414
#
# _framework density 21.809937000000001
#
# number of rings (size 3 to 8) (size 9 to 14) (size 15 to 20)
#    0.000    1.417    3.333    2.500    2.333    5.833 
#    0.000    2.500    0.000    0.000    0.000    0.000 
#    0.000    0.000    0.000    0.000    0.000    0.000 
#
# Total GULP energy -1190097.616973 kJ/mol
# GULP energy per Si atom -12396.850177 kJ/mol
# Density = 2.176030 g / cm^3
# Si number density = 21.809937 Si / 1000 Ang^3
#
#
#
# Elastic Constant Matrix: (Units=GPa)
#
#
# Indices 1 2 3 4 5 6 
#
# 1 101.3284 49.6908 57.5040 0.0000 0.0000 0.0000
# 2 49.6908 101.3268 57.5033 0.0000 0.0000 0.0000
# 3 57.5040 57.5033 126.1178 0.0000 0.0000 0.0000
# 4 0.0000 0.0000 0.0000 35.1661 0.0000 0.0000
# 5 0.0000 0.0000 0.0000 0.0000 35.1665 0.0000
# 6 0.0000 0.0000 0.0000 0.0000 0.0000 28.8872
#
#
#
# Elastic Compliance Matrix: (Units=1/GPa)
#
#
# Indices 1 2 3 4 5 6 
#
# 1 0.014755 -0.004611 -0.004625 0.000000 0.000000 0.000000
# 2 -0.004611 0.014755 -0.004625 0.000000 0.000000 0.000000
# 3 -0.004625 -0.004625 0.012147 0.000000 0.000000 0.000000
# 4 0.000000 0.000000 0.000000 0.028436 0.000000 0.000000
# 5 0.000000 0.000000 0.000000 0.000000 0.028436 0.000000
# 6 0.000000 0.000000 0.000000 0.000000 0.000000 0.034617
#
#
# Mechanical properties :
#
#
# Convention : Reuss Voigt Hill
#
# Bulk Modulus (GPa) = 71.76641 73.12992 72.44816
# Shear Modulus (GPa) = 30.20886 30.78228 30.49557
#
# Velocity S-wave (km/s) = 3.72573 3.76092 3.74336
# Velocity P-wave (km/s) = 7.17529 7.24311 7.20928
#
# Compressibility (1/GPa) = 0.01393410
#
# Stress axis : x y z
#
# Youngs Moduli (GPa) = 67.77402 67.77311 82.32619
#
# Poissons Ratio (x) = 0.31250 0.38077
# Poissons Ratio (y) = 0.31251 0.38077
# Poissons Ratio (z) = 0.31347 0.31346
#
# Static dielectric constant tensor:
#      x y z
#    x 3.878360 0.000000 0.000000 
#    y 0.000000 3.878340 0.000000 
#    z 0.000000 0.000000 3.984380 
# 
# 
# High freq. dielectric constant tensor:
#      x y z
#    x 1.857660 0.000000 0.000000 
#    y 0.000000 1.857660 0.000000 
#    z 0.000000 0.000000 1.862420 
# 
# From -- ./inp_files/2924.got.cif
#   From: 2010.03.12/outbox.cif.g09.slc.cpg/sg126_2_cif.got.tgz:2924.got - 2010.04.06 16:55:23.
