data_PCOD8313795
_publ_section_title
;
Structure prediction by ZEFSAII (Michael W. Deem and Ramdas Pophale) SiO2 
 PCOD8313795
Probable space group: P 4/N N C
;
_chemical_formula_sum "Si O2"
_cell_formula_units_Z 40
_cell_length_a 9.892740
_cell_length_b 9.892740
_cell_length_c 18.454884
_cell_angle_alpha 90.000000
_cell_angle_beta 90.000000
_cell_angle_gamma 90.000000
_cell_volume 1806.111301
_symmetry_space_group_name_H-M "P 4/N N C"
_symmetry_group_IT_number 126
_space_group.IT_coordinate_system_code '2'
_symmetry_cell_setting 'tetragonal'
loop_
_space_group_symop_operation_xyz
x,y,z
1/2-y,x,z
1/2-x,1/2-y,z
y,1/2-x,z
x,1/2-y,1/2-z
1/2-x,y,1/2-z
y,x,1/2-z
1/2-y,1/2-x,1/2-z
-x,-y,-z
1/2+y,-x,-z
1/2+x,1/2+y,-z
-y,1/2+x,-z
-x,1/2+y,1/2+z
1/2+x,-y,1/2+z
-y,-x,1/2+z
1/2+y,1/2+x,1/2+z
loop_
_atom_site_type_symbol
_atom_site_label
_atom_site_fract_x
_atom_site_fract_y
_atom_site_fract_z
Si Si1 0.026416 0.250000 0.750000
Si Si2 0.951473 0.835061 0.966297
Si Si3 0.776515 0.096002 0.096772
O O1 0.116951 0.116951 0.750000
O O2 0.930116 0.250487 0.819287
O O3 0.820774 0.923841 0.946352
O O4 0.064778 0.917714 0.922527
O O5 0.995105 0.821139 0.051242
O O6 0.750000 0.250000 0.075179
#
# Coordination Sequence:
#
# PCOD8313795 Si02
#       3
#     8  16  16
#     4  11  27  46  68  96 131 177 224 276 332 397
#     4  11  23  40  69 101 133 175 221 274 330 390
#     4  12  23  42  67 100 133 173 222 275 334 392
#
# _framework density 22.147030999999998
#
# number of rings (size 3 to 8) (size 9 to 14) (size 15 to 20)
#    0.000    0.600    4.000    4.200    5.600    3.200 
#    0.000    0.000    0.000    0.000    0.000    0.000 
#    0.000    0.000    0.000    0.000    0.000    0.000 
#
# Total GULP energy -495627.806662 kJ/mol
# GULP energy per Si atom -12390.695167 kJ/mol
# Density = 2.209662 g / cm^3
# Si number density = 22.147031 Si / 1000 Ang^3
#
#
#
# Elastic Constant Matrix: (Units=GPa)
#
#
# Indices 1 2 3 4 5 6 
#
# 1 70.8791 23.7042 16.1039 0.0000 0.0000 0.0000
# 2 23.7042 70.8791 16.1039 0.0000 0.0000 0.0000
# 3 16.1039 16.1039 127.8275 0.0000 0.0000 0.0000
# 4 0.0000 0.0000 0.0000 -12.7836 0.0000 0.0000
# 5 0.0000 0.0000 0.0000 0.0000 -12.7836 0.0000
# 6 0.0000 0.0000 0.0000 0.0000 0.0000 54.6829
#
#
#
# Elastic Compliance Matrix: (Units=1/GPa)
#
#
# Indices 1 2 3 4 5 6 
#
# 1 0.016122 -0.005076 -0.001392 0.000000 0.000000 0.000000
# 2 -0.005076 0.016122 -0.001392 0.000000 0.000000 0.000000
# 3 -0.001392 -0.001392 0.008174 0.000000 0.000000 0.000000
# 4 0.000000 0.000000 0.000000 -0.078225 0.000000 0.000000
# 5 0.000000 0.000000 0.000000 0.000000 -0.078225 0.000000
# 6 0.000000 0.000000 0.000000 0.000000 0.000000 0.018287
#
#
# Mechanical properties :
#
#
# Convention : Reuss Voigt Hill
#
# Bulk Modulus (GPa) = 40.48547 42.37882 41.43215
# Shear Modulus (GPa) = -67.75605 20.06806 -23.84400
#
# Velocity S-wave (km/s) = -5.53716 3.01346 -3.28475
# Velocity P-wave (km/s) = 4.74976 5.59327 2.08860
#
# Compressibility (1/GPa) = 0.02470022
#
# Stress axis : x y z
#
# Youngs Moduli (GPa) = 62.02643 62.02643 122.34374
#
# Poissons Ratio (x) = 0.31482 0.17026
# Poissons Ratio (y) = 0.31482 0.17026
# Poissons Ratio (z) = 0.08632 0.08632
#
# Static dielectric constant tensor:
#      x y z
#    x 4.228280 0.000000 0.000000 
#    y 0.000000 4.228280 0.000000 
#    z 0.000000 0.000000 3.673950 
# 
# 
# High freq. dielectric constant tensor:
#      x y z
#    x 1.894730 0.000000 0.000000 
#    y 0.000000 1.894730 0.000000 
#    z 0.000000 0.000000 1.838930 
# 
# From -- ./inp_files/3229.got.cif
#   From: 2010.03.12/outbox.cif.g09.slc.cpg/sg126_2_cif.got.tgz:3229.got - 2010.04.06 16:55:23.
