data_PCOD8313937
_publ_section_title
;
Structure prediction by ZEFSAII (Michael W. Deem and Ramdas Pophale) SiO2 
 PCOD8313937
Probable space group: P 4/M B M
;
_chemical_formula_sum "Si O2"
_cell_formula_units_Z 120
_cell_length_a 17.780847
_cell_length_b 17.780847
_cell_length_c 22.241569
_cell_angle_alpha 90.000000
_cell_angle_beta 90.000000
_cell_angle_gamma 90.000000
_cell_volume 7031.861538
_symmetry_space_group_name_H-M "P 4/M B M"
_symmetry_group_IT_number 127
_symmetry_cell_setting 'tetragonal'
loop_
_space_group_symop_operation_xyz
x,y,z
-y,x,z
-x,-y,z
y,-x,z
1/2+x,1/2-y,-z
1/2-x,1/2+y,-z
1/2+y,1/2+x,-z
1/2-y,1/2-x,-z
-x,-y,-z
y,-x,-z
x,y,-z
-y,x,-z
1/2-x,1/2+y,z
1/2+x,1/2-y,z
1/2-y,1/2-x,z
1/2+y,1/2+x,z
loop_
_atom_site_type_symbol
_atom_site_label
_atom_site_fract_x
_atom_site_fract_y
_atom_site_fract_z
Si Si1 0.243003 0.376375 0.154371
Si Si2 0.713607 0.094151 0.287261
Si Si3 0.071765 0.901727 0.570920
Si Si4 0.787736 0.459466 0.129863
Si Si5 0.335620 0.288222 0.066120
Si Si6 0.797761 0.418441 0.265622
Si Si7 0.437836 0.062165 0.932894
Si Si8 0.199364 0.177697 0.647791
O O1 0.167163 0.332838 0.134100
O O2 0.250945 0.375725 0.225872
O O3 0.247040 0.459952 0.132691
O O4 0.314006 0.341638 0.120895
O O5 0.630737 0.130737 0.295203
O O6 0.770955 0.127007 0.336318
O O7 0.703032 0.004137 0.290654
O O8 0.078472 0.892904 0.500000
O O9 0.119029 0.832305 0.598778
O O10 0.983838 0.896260 0.590613
O O11 0.737899 0.419379 0.079638
O O12 0.785616 0.416923 0.193976
O O13 0.871086 0.471363 0.106145
O O14 0.286438 0.213563 0.067591
O O15 0.330863 0.326902 0.000000
O O16 0.877897 0.377897 0.280360
O O17 0.730540 0.370996 0.296105
O O18 0.500000 0.000000 0.939315
O O19 0.412149 0.087852 0.000000
O O20 0.267174 0.232827 0.623950
#
# Coordination Sequence:
#
# PCOD8313937 Si02
#       8
#    16  16  16  16  16  16   8  16
#     4   9  19  33  48  68  91 118 154 196 241 291
#     4   9  18  31  47  69  96 127 160 200 246 289
#     4   9  18  33  53  77 105 138 173 211 255 298
#     4  11  19  33  50  68  94 122 156 199 246 300
#     4  10  19  31  47  64  85 116 151 187 233 294
#     4  10  19  31  48  72  95 129 165 200 247 298
#     4  11  22  32  46  70  98 126 155 198 256 312
#     4  10  19  31  50  74 105 135 169 208 245 292
#
# _framework density 17.065183000000001
#
# number of rings (size 3 to 8) (size 9 to 14) (size 15 to 20)
#    0.000    2.200    1.333    2.800    0.000    4.267 
#    0.000    1.333    0.000    0.400    0.000    4.667 
#    0.000    0.000    0.000   24.800    0.000    0.000 
#
# Total GULP energy -1486896.631377 kJ/mol
# GULP energy per Si atom -12390.805261 kJ/mol
# Density = 1.702634 g / cm^3
# Si number density = 17.065183 Si / 1000 Ang^3
#
#
#
# Elastic Constant Matrix: (Units=GPa)
#
#
# Indices 1 2 3 4 5 6 
#
# 1 74.8991 44.3508 30.2319 0.0000 0.0000 0.0000
# 2 44.3508 74.8991 30.2319 0.0000 0.0000 0.0000
# 3 30.2319 30.2319 54.0017 0.0000 0.0000 0.0000
# 4 0.0000 0.0000 0.0000 1.6912 0.0000 0.0000
# 5 0.0000 0.0000 0.0000 0.0000 1.6913 0.0000
# 6 0.0000 0.0000 0.0000 0.0000 0.0000 24.1749
#
#
#
# Elastic Compliance Matrix: (Units=1/GPa)
#
#
# Indices 1 2 3 4 5 6 
#
# 1 0.022222 -0.010513 -0.006555 0.000000 0.000000 0.000000
# 2 -0.010513 0.022222 -0.006555 0.000000 0.000000 0.000000
# 3 -0.006555 -0.006555 0.025858 0.000000 0.000000 0.000000
# 4 0.000000 0.000000 0.000000 0.591286 0.000000 0.000000
# 5 0.000000 0.000000 0.000000 0.000000 0.591254 0.000000
# 6 0.000000 0.000000 0.000000 0.000000 0.000000 0.041365
#
#
# Mechanical properties :
#
#
# Convention : Reuss Voigt Hill
#
# Bulk Modulus (GPa) = 43.37392 45.93657 44.65525
# Shear Modulus (GPa) = 3.70606 12.11050 7.90828
#
# Velocity S-wave (km/s) = 1.47527 2.66684 2.15505
# Velocity P-wave (km/s) = 5.32670 6.03816 5.69355
#
# Compressibility (1/GPa) = 0.02305533
#
# Stress axis : x y z
#
# Youngs Moduli (GPa) = 44.99976 44.99976 38.67302
#
# Poissons Ratio (x) = 0.47307 0.25352
# Poissons Ratio (y) = 0.47307 0.25352
# Poissons Ratio (z) = 0.29499 0.29499
#
# Static dielectric constant tensor:
#      x y z
#    x 3.206710 0.000000 0.000000 
#    y 0.000000 3.206700 0.000000 
#    z 0.000000 0.000000 3.188280 
# 
# 
# High freq. dielectric constant tensor:
#      x y z
#    x 1.655680 0.000000 0.000000 
#    y 0.000000 1.655680 0.000000 
#    z 0.000000 0.000000 1.645120 
# 
# From -- ./inp_files/5996.got.cif
#   From: 2010.03.12/outbox.cif.g09.slc.cpg/sg127_3_cif.got.tgz:5996.got - 2010.04.06 17:03:15.
