data_PCOD8313474
_publ_section_title
;
Structure prediction by ZEFSAII (Michael W. Deem and Ramdas Pophale) SiO2 
 PCOD8313474
Probable space group: P 4/N B M
;
_chemical_formula_sum "Si O2"
_cell_formula_units_Z 66
_cell_length_a 16.502814
_cell_length_b 16.502814
_cell_length_c 13.760004
_cell_angle_alpha 90.000000
_cell_angle_beta 90.000000
_cell_angle_gamma 90.000000
_cell_volume 3747.438979
_symmetry_space_group_name_H-M "P 4/N B M"
_symmetry_group_IT_number 125
_space_group.IT_coordinate_system_code '2'
_symmetry_cell_setting 'tetragonal'
loop_
_space_group_symop_operation_xyz
x,y,z
1/2-y,x,z
1/2-x,1/2-y,z
y,1/2-x,z
x,1/2-y,-z
1/2-x,y,-z
y,x,-z
1/2-y,1/2-x,-z
-x,-y,-z
1/2+y,-x,-z
1/2+x,1/2+y,-z
-y,1/2+x,-z
-x,1/2+y,z
1/2+x,-y,z
-y,-x,z
1/2+y,1/2+x,z
loop_
_atom_site_type_symbol
_atom_site_label
_atom_site_fract_x
_atom_site_fract_y
_atom_site_fract_z
Si Si1 0.357484 0.462117 0.735393
Si Si2 0.075771 0.924230 0.102881
Si Si3 0.939828 0.439828 0.888597
Si Si4 0.750000 0.250000 0.500000
Si Si5 0.674768 0.988721 0.255473
Si Si6 0.054247 0.554247 0.429610
Si Si7 0.868386 0.131615 0.601380
O O1 0.367213 0.521922 0.826978
O O2 0.409875 0.381422 0.745333
O O3 0.262013 0.447099 0.735950
O O4 0.387067 0.500255 0.635308
O O5 0.041032 0.844460 0.157846
O O6 0.095290 0.904710 0.990205
O O7 0.007718 0.992283 0.100706
O O8 0.800657 0.199344 0.581245
O O9 0.663173 0.050555 0.345013
O O10 0.111012 0.611012 0.491440
O O11 0.000000 0.500000 0.500000
#
# Coordination Sequence:
#
# PCOD8313474 Si02
#       7
#    16   8   8   2  16   8   8
#     4  10  20  33  53  80 106 141 181 224 269 331
#     4   8  16  33  55  75  99 136 176 229 259 314
#     4   8  16  33  54  74  99 136 184 210 265 325
#     4  12  24  32  56  84 108 134 172 248 292 308
#     4  10  20  34  53  78 110 140 179 222 271 329
#     4  11  18  37  58  73  97 144 190 222 264 331
#     4  11  21  38  53  79 105 134 180 228 281 320
#
# _framework density 17.612027999999999
#
# number of rings (size 3 to 8) (size 9 to 14) (size 15 to 20)
#    0.000    2.182    2.424    2.909    0.000    2.424 
#    0.000    0.000    0.000    0.000    0.000   11.879 
#    0.000    0.000    0.000    0.000    0.000    0.000 
#
# Total GULP energy -817671.955750 kJ/mol
# GULP energy per Si atom -12388.969027 kJ/mol
# Density = 1.757194 g / cm^3
# Si number density = 17.612028 Si / 1000 Ang^3
#
#
#
# Elastic Constant Matrix: (Units=GPa)
#
#
# Indices 1 2 3 4 5 6 
#
# 1 110.9162 60.6918 47.5776 0.0000 0.0000 0.0000
# 2 60.6918 110.9162 47.5776 0.0000 0.0000 0.0000
# 3 47.5776 47.5776 139.2713 0.0000 0.0000 0.0000
# 4 0.0000 0.0000 0.0000 21.1260 0.0000 0.0000
# 5 0.0000 0.0000 0.0000 0.0000 21.1260 0.0000
# 6 0.0000 0.0000 0.0000 0.0000 0.0000 27.9927
#
#
#
# Elastic Compliance Matrix: (Units=1/GPa)
#
#
# Indices 1 2 3 4 5 6 
#
# 1 0.013550 -0.006361 -0.002456 0.000000 0.000000 0.000000
# 2 -0.006361 0.013550 -0.002456 0.000000 0.000000 0.000000
# 3 -0.002456 -0.002456 0.008858 0.000000 0.000000 0.000000
# 4 0.000000 0.000000 0.000000 0.047335 0.000000 0.000000
# 5 0.000000 0.000000 0.000000 0.000000 0.047335 0.000000
# 6 0.000000 0.000000 0.000000 0.000000 0.000000 0.035724
#
#
# Mechanical properties :
#
#
# Convention : Reuss Voigt Hill
#
# Bulk Modulus (GPa) = 74.55665 74.75531 74.65598
# Shear Modulus (GPa) = 25.85750 27.73272 26.79511
#
# Velocity S-wave (km/s) = 3.83583 3.97249 3.90476
# Velocity P-wave (km/s) = 7.87673 7.97362 7.92532
#
# Compressibility (1/GPa) = 0.01341262
#
# Stress axis : x y z
#
# Youngs Moduli (GPa) = 73.80171 73.80171 112.88985
#
# Poissons Ratio (x) = 0.46944 0.27725
# Poissons Ratio (y) = 0.46944 0.27725
# Poissons Ratio (z) = 0.18125 0.18125
#
# Static dielectric constant tensor:
#      x y z
#    x 3.053580 0.000000 0.000000 
#    y 0.000000 3.053580 0.000000 
#    z 0.000000 0.000000 3.752040 
# 
# 
# High freq. dielectric constant tensor:
#      x y z
#    x 1.669520 0.000000 0.000000 
#    y 0.000000 1.669520 0.000000 
#    z 0.000000 0.000000 1.692010 
# 
# From -- ./inp_files/4726.got.cif
#   From: 2010.03.12/outbox.cif.g09.slc.cpg/sg125_3_cif.got.tgz:4726.got - 2010.04.06 16:47:52.
