data_PCOD8313156
_publ_section_title
;
Structure prediction by ZEFSAII (Michael W. Deem and Ramdas Pophale) SiO2 
 PCOD8313156
Probable space group: P 4/M C C
;
_chemical_formula_sum "Si O2"
_cell_formula_units_Z 96
_cell_length_a 14.919700
_cell_length_b 14.919700
_cell_length_c 25.364232
_cell_angle_alpha 90.000000
_cell_angle_beta 90.000000
_cell_angle_gamma 90.000000
_cell_volume 5646.013316
_symmetry_space_group_name_H-M "P 4/M C C"
_symmetry_group_IT_number 124
_symmetry_cell_setting 'tetragonal'
loop_
_space_group_symop_operation_xyz
x,y,z
-y,x,z
-x,-y,z
y,-x,z
x,-y,1/2-z
-x,y,1/2-z
y,x,1/2-z
-y,-x,1/2-z
-x,-y,-z
y,-x,-z
x,y,-z
-y,x,-z
-x,y,1/2+z
x,-y,1/2+z
-y,-x,1/2+z
y,x,1/2+z
loop_
_atom_site_type_symbol
_atom_site_label
_atom_site_fract_x
_atom_site_fract_y
_atom_site_fract_z
Si Si1 0.731175 0.993084 0.189914
Si Si2 0.572561 0.625421 0.439587
Si Si3 0.724156 0.982513 0.000000
Si Si4 0.024570 0.604329 0.402526
Si Si5 0.782335 0.680342 0.098662
Si Si6 0.193499 0.182303 0.690033
Si Si7 0.796688 0.820996 0.500000
O O1 0.789473 0.906642 0.175261
O O2 0.696787 0.000000 0.250000
O O3 0.643068 0.992381 0.153583
O O4 0.798040 0.076028 0.179594
O O5 0.467936 0.620282 0.427219
O O6 0.588047 0.653328 0.500000
O O7 0.614415 0.698681 0.401691
O O8 0.659827 0.977112 0.949132
O O9 0.793968 0.900741 0.000000
O O10 0.785430 0.071557 0.000000
O O11 0.131062 0.617082 0.406342
O O12 0.000000 0.500000 0.407087
O O13 0.771101 0.732809 0.153488
O O14 0.778795 0.751531 0.051525
O O15 0.212233 0.212233 0.750000
#
# Coordination Sequence:
#
# PCOD8313156 Si02
#       7
#    16  16   8  16  16  16   8
#     4   9  18  33  52  74 100 131 168 211 251 290
#     4   9  18  33  52  76 100 123 160 209 255 301
#     4  10  21  35  50  72 100 130 166 203 243 295
#     4  10  21  35  49  72 103 133 167 205 244 301
#     4  10  19  33  51  74 102 131 165 204 251 301
#     4   9  18  32  51  74 102 134 170 208 246 292
#     4  10  20  33  50  73 100 132 162 200 245 295
#
# _framework density 17.003147999999999
#
# number of rings (size 3 to 8) (size 9 to 14) (size 15 to 20)
#    0.000    2.500    0.833    1.750    0.000    3.500 
#    0.000    1.667    0.000    9.000    0.000    1.167 
#    0.000    0.000    0.000    0.000    0.000    0.000 
#
# Total GULP energy -1190330.149109 kJ/mol
# GULP energy per Si atom -12399.272387 kJ/mol
# Density = 1.696445 g / cm^3
# Si number density = 17.003148 Si / 1000 Ang^3
#
#
#
# Elastic Constant Matrix: (Units=GPa)
#
#
# Indices 1 2 3 4 5 6 
#
# 1 110.7683 71.6331 55.2962 0.0000 0.0000 0.0000
# 2 71.6331 110.7683 55.2962 0.0000 0.0000 0.0000
# 3 55.2962 55.2962 93.4703 0.0000 0.0000 0.0000
# 4 0.0000 0.0000 0.0000 25.6195 0.0000 0.0000
# 5 0.0000 0.0000 0.0000 0.0000 25.6195 0.0000
# 6 0.0000 0.0000 0.0000 0.0000 0.0000 31.0969
#
#
#
# Elastic Compliance Matrix: (Units=1/GPa)
#
#
# Indices 1 2 3 4 5 6 
#
# 1 0.017051 -0.008502 -0.005057 0.000000 0.000000 0.000000
# 2 -0.008502 0.017051 -0.005057 0.000000 0.000000 0.000000
# 3 -0.005057 -0.005057 0.016682 0.000000 0.000000 0.000000
# 4 0.000000 0.000000 0.000000 0.039033 0.000000 0.000000
# 5 0.000000 0.000000 0.000000 0.000000 0.039033 0.000000
# 6 0.000000 0.000000 0.000000 0.000000 0.000000 0.032158
#
#
# Mechanical properties :
#
#
# Convention : Reuss Voigt Hill
#
# Bulk Modulus (GPa) = 73.79846 75.49532 74.64689
# Shear Modulus (GPa) = 24.66013 25.31930 24.98972
#
# Velocity S-wave (km/s) = 3.81245 3.86307 3.83784
# Velocity P-wave (km/s) = 7.92948 8.02464 7.97721
#
# Compressibility (1/GPa) = 0.01355042
#
# Stress axis : x y z
#
# Youngs Moduli (GPa) = 58.64898 58.64898 59.94346
#
# Poissons Ratio (x) = 0.49862 0.30316
# Poissons Ratio (y) = 0.49862 0.30316
# Poissons Ratio (z) = 0.29661 0.29661
#
# Static dielectric constant tensor:
#      x y z
#    x 3.082000 0.000000 0.000000 
#    y 0.000000 3.082000 0.000000 
#    z 0.000000 0.000000 3.309340 
# 
# 
# High freq. dielectric constant tensor:
#      x y z
#    x 1.651630 0.000000 0.000000 
#    y 0.000000 1.651630 0.000000 
#    z 0.000000 0.000000 1.658510 
# 
# From -- ./inp_files/6068.got.cif
#   From: 2010.03.12/outbox.cif.g09.slc.cpg/sg124_4_cif.got.tgz:6068.got - 2010.04.06 16:38:57.
