data_PCOD8313023
_publ_section_title
;
Structure prediction by ZEFSAII (Michael W. Deem and Ramdas Pophale) SiO2 
 PCOD8313023
Probable space group: P 4/M M M
;
_chemical_formula_sum "Si O2"
_cell_formula_units_Z 96
_cell_length_a 14.025774
_cell_length_b 14.025774
_cell_length_c 29.984667
_cell_angle_alpha 90.000000
_cell_angle_beta 90.000000
_cell_angle_gamma 90.000000
_cell_volume 5898.653745
_symmetry_space_group_name_H-M "P 4/M M M"
_symmetry_group_IT_number 123
_symmetry_cell_setting 'tetragonal'
loop_
_space_group_symop_operation_xyz
x,y,z
-y,x,z
-x,-y,z
y,-x,z
x,-y,-z
-x,y,-z
y,x,-z
-y,-x,-z
-x,-y,-z
y,-x,-z
x,y,-z
-y,x,-z
-x,y,z
x,-y,z
-y,-x,z
y,x,z
loop_
_atom_site_type_symbol
_atom_site_label
_atom_site_fract_x
_atom_site_fract_y
_atom_site_fract_z
Si Si1 0.605050 0.886789 0.500000
Si Si2 0.236596 0.390819 0.841654
Si Si3 0.111761 0.269499 0.902927
Si Si4 0.741195 0.892845 0.000000
Si Si5 0.891034 0.262022 0.578310
Si Si6 0.265184 0.109793 0.679830
Si Si7 0.763251 0.390907 0.738231
O O1 0.500000 0.840828 0.500000
O O2 0.658107 0.851146 0.544644
O O3 0.597760 0.000000 0.500000
O O4 0.255377 0.500000 0.855084
O O5 0.332474 0.332474 0.853308
O O6 0.147125 0.350219 0.869025
O O7 0.209893 0.380899 0.789939
O O8 0.171583 0.171583 0.895897
O O9 0.129329 0.313090 0.953230
O O10 0.000000 0.248494 0.894164
O O11 0.840226 0.840226 0.000000
O O12 0.774793 0.000000 0.000000
O O13 0.835581 0.164420 0.570286
O O14 0.878060 0.299211 0.628749
O O15 0.000000 0.237891 0.567461
O O16 0.168137 0.168137 0.689187
O O17 0.350662 0.147778 0.710457
O O18 0.244367 0.000000 0.691566
O O19 0.744530 0.500000 0.724784
O O20 0.667377 0.332624 0.726673
#
# Coordination Sequence:
#
# PCOD8313023 Si02
#       7
#     8  16  16   8  16  16  16
#     4   9  17  28  41  59  85 115 145 177 213 254
#     4   9  18  32  49  68  89 114 145 183 227 271
#     4   9  17  29  45  66  92 120 150 183 218 259
#     4   8  14  25  41  61  86 116 148 182 219 256
#     4   9  17  29  45  65  89 116 146 181 219 259
#     4   9  18  31  46  66  92 121 153 187 222 263
#     4   9  18  32  49  69  91 114 144 184 228 272
#
# _framework density 16.274899999999999
#
# number of rings (size 3 to 8) (size 9 to 14) (size 15 to 20)
#    0.000    3.083    0.000    0.250    0.000    2.917 
#    0.000    8.750    0.000    3.000    0.000    4.667 
#    0.000    6.000    0.000    0.000    0.000    0.500 
#
# Total GULP energy -1189871.916622 kJ/mol
# GULP energy per Si atom -12394.499131 kJ/mol
# Density = 1.623786 g / cm^3
# Si number density = 16.274900 Si / 1000 Ang^3
#
#
#
# Elastic Constant Matrix: (Units=GPa)
#
#
# Indices 1 2 3 4 5 6 
#
# 1 102.1313 45.4379 55.7690 0.0000 0.0000 0.0000
# 2 45.4379 102.1313 55.7690 0.0000 0.0000 0.0000
# 3 55.7690 55.7690 83.5026 0.0000 0.0000 0.0000
# 4 0.0000 0.0000 0.0000 24.4934 0.0000 0.0000
# 5 0.0000 0.0000 0.0000 0.0000 24.4934 0.0000
# 6 0.0000 0.0000 0.0000 0.0000 0.0000 12.9607
#
#
#
# Elastic Compliance Matrix: (Units=1/GPa)
#
#
# Indices 1 2 3 4 5 6 
#
# 1 0.015662 -0.001977 -0.009139 0.000000 0.000000 0.000000
# 2 -0.001977 0.015662 -0.009139 0.000000 0.000000 0.000000
# 3 -0.009139 -0.009139 0.024184 0.000000 0.000000 0.000000
# 4 0.000000 0.000000 0.000000 0.040827 0.000000 0.000000
# 5 0.000000 0.000000 0.000000 0.000000 0.040827 0.000000
# 6 0.000000 0.000000 0.000000 0.000000 0.000000 0.077156
#
#
# Mechanical properties :
#
#
# Convention : Reuss Voigt Hill
#
# Bulk Modulus (GPa) = 66.69020 66.85742 66.77381
# Shear Modulus (GPa) = 19.24354 21.10880 20.17617
#
# Velocity S-wave (km/s) = 3.44234 3.60532 3.52477
# Velocity P-wave (km/s) = 7.54095 7.64855 7.59494
#
# Compressibility (1/GPa) = 0.01499471
#
# Stress axis : x y z
#
# Youngs Moduli (GPa) = 63.85071 63.85071 41.35051
#
# Poissons Ratio (x) = 0.12625 0.37792
# Poissons Ratio (y) = 0.12625 0.37792
# Poissons Ratio (z) = 0.58356 0.58356
#
# Static dielectric constant tensor:
#      x y z
#    x 2.998610 0.000000 0.000000 
#    y 0.000000 2.998610 0.000000 
#    z 0.000000 0.000000 3.341610 
# 
# 
# High freq. dielectric constant tensor:
#      x y z
#    x 1.611680 0.000000 0.000000 
#    y 0.000000 1.611680 0.000000 
#    z 0.000000 0.000000 1.637290 
# 
# From -- ./inp_files/8053.got.cif
#   From: 2010.03.12/outbox.cif.g09.slc.cpg/sg123_5_cif.got.tgz:8053.got - 2010.04.06 16:26:55.
