data_PCOD8313048
_publ_section_title
;
Structure prediction by ZEFSAII (Michael W. Deem and Ramdas Pophale) SiO2 
 PCOD8313048
Probable space group: P 4/M M M
;
_chemical_formula_sum "Si O2"
_cell_formula_units_Z 96
_cell_length_a 27.026767
_cell_length_b 27.026767
_cell_length_c 7.803298
_cell_angle_alpha 90.000000
_cell_angle_beta 90.000000
_cell_angle_gamma 90.000000
_cell_volume 5699.888860
_symmetry_space_group_name_H-M "P 4/M M M"
_symmetry_group_IT_number 123
_symmetry_cell_setting 'tetragonal'
loop_
_space_group_symop_operation_xyz
x,y,z
-y,x,z
-x,-y,z
y,-x,z
x,-y,-z
-x,y,-z
y,x,-z
-y,-x,-z
-x,-y,-z
y,-x,-z
x,y,-z
-y,x,-z
-x,y,z
x,-y,z
-y,-x,z
y,x,z
loop_
_atom_site_type_symbol
_atom_site_label
_atom_site_fract_x
_atom_site_fract_y
_atom_site_fract_z
Si Si1 0.179753 0.554653 0.000000
Si Si2 0.294337 0.375003 0.306200
Si Si3 0.179547 0.626093 0.699491
Si Si4 0.000000 0.293722 0.200466
Si Si5 0.181816 0.104775 0.699310
Si Si6 0.818658 0.000000 0.200771
Si Si7 0.291604 0.104717 0.302257
Si Si8 0.555112 0.703382 0.000000
O O1 0.163050 0.581512 0.175711
O O2 0.238287 0.550316 0.000000
O O3 0.155742 0.500000 0.000000
O O4 0.301724 0.395604 0.500000
O O5 0.324821 0.324821 0.277708
O O6 0.237173 0.361232 0.274102
O O7 0.313626 0.416142 0.172041
O O8 0.168139 0.612446 0.500000
O O9 0.148310 0.673219 0.765876
O O10 0.051081 0.317639 0.269919
O O11 0.000000 0.237621 0.267516
O O12 0.000000 0.298907 0.000000
O O13 0.185833 0.115336 0.500000
O O14 0.146109 0.146109 0.784369
O O15 0.236882 0.107679 0.785686
O O16 0.157137 0.050548 0.728448
O O17 0.822923 0.000000 0.000000
O O18 0.283895 0.113547 0.500000
O O19 0.500000 0.679528 0.000000
#
# Coordination Sequence:
#
# PCOD8313048 Si02
#       8
#     8  16  16   8  16   8  16   8
#     4   9  18  31  47  66  91 123 158 196 232 267
#     4   9  17  29  45  66  95 129 158 186 229 281
#     4   9  18  30  46  69  95 124 157 191 227 273
#     4   9  17  27  43  63  84 115 148 183 224 264
#     4   9  17  29  46  66  87 115 149 182 220 268
#     4   9  17  29  43  60  86 115 144 182 224 265
#     4   9  17  29  44  65  92 117 145 183 225 270
#     4   9  17  29  45  65  90 123 164 203 231 262
#
# _framework density 16.842433
#
# number of rings (size 3 to 8) (size 9 to 14) (size 15 to 20)
#    0.000    3.000    0.000    0.750    1.167    3.667 
#    0.000    6.667    0.000    0.250    0.000    2.917 
#    0.000    5.333    0.000    7.333    0.000    0.667 
#
# Total GULP energy -1189527.898619 kJ/mol
# GULP energy per Si atom -12390.915611 kJ/mol
# Density = 1.680410 g / cm^3
# Si number density = 16.842433 Si / 1000 Ang^3
#
#
#
# Elastic Constant Matrix: (Units=GPa)
#
#
# Indices 1 2 3 4 5 6 
#
# 1 97.5751 58.1231 40.1593 0.0000 0.0000 0.0000
# 2 58.1231 97.5751 40.1593 0.0000 0.0000 0.0000
# 3 40.1593 40.1593 69.4902 0.0000 0.0000 0.0000
# 4 0.0000 0.0000 0.0000 17.4806 0.0000 0.0000
# 5 0.0000 0.0000 0.0000 0.0000 17.4806 0.0000
# 6 0.0000 0.0000 0.0000 0.0000 0.0000 5.8055
#
#
#
# Elastic Compliance Matrix: (Units=1/GPa)
#
#
# Indices 1 2 3 4 5 6 
#
# 1 0.017249 -0.008098 -0.005288 0.000000 0.000000 0.000000
# 2 -0.008098 0.017249 -0.005288 0.000000 0.000000 0.000000
# 3 -0.005288 -0.005288 0.020503 0.000000 0.000000 0.000000
# 4 0.000000 0.000000 0.000000 0.057206 0.000000 0.000000
# 5 0.000000 0.000000 0.000000 0.000000 0.057206 0.000000
# 6 0.000000 0.000000 0.000000 0.000000 0.000000 0.172252
#
#
# Mechanical properties :
#
#
# Convention : Reuss Voigt Hill
#
# Bulk Modulus (GPa) = 56.65386 60.16933 58.41159
# Shear Modulus (GPa) = 12.99043 16.56655 14.77849
#
# Velocity S-wave (km/s) = 2.78023 3.13967 2.96540
# Velocity P-wave (km/s) = 6.63452 6.99613 6.81772
#
# Compressibility (1/GPa) = 0.01765105
#
# Stress axis : x y z
#
# Youngs Moduli (GPa) = 57.97436 57.97436 48.77352
#
# Poissons Ratio (x) = 0.46949 0.25793
# Poissons Ratio (y) = 0.46949 0.25793
# Poissons Ratio (z) = 0.30659 0.30659
#
# Static dielectric constant tensor:
#      x y z
#    x 3.241260 0.000000 0.000000 
#    y 0.000000 3.241260 0.000000 
#    z 0.000000 0.000000 3.169300 
# 
# 
# High freq. dielectric constant tensor:
#      x y z
#    x 1.622630 0.000000 0.000000 
#    y 0.000000 1.622630 0.000000 
#    z 0.000000 0.000000 1.656190 
# 
# From -- ./inp_files/1760.got.cif
#   From: 2010.03.12/outbox.cif.g09.slc.cpg/sg123_1_cif.got.tgz:1760.got - 2010.04.06 16:26:55.
