data_PCOD8313472
_publ_section_title
;
Structure prediction by ZEFSAII (Michael W. Deem and Ramdas Pophale) SiO2 
 PCOD8313472
Probable space group: P 4/N B M
;
_chemical_formula_sum "Si O2"
_cell_formula_units_Z 72
_cell_length_a 19.095836
_cell_length_b 19.095836
_cell_length_c 10.651342
_cell_angle_alpha 90.000000
_cell_angle_beta 90.000000
_cell_angle_gamma 90.000000
_cell_volume 3884.022006
_symmetry_space_group_name_H-M "P 4/N B M"
_symmetry_group_IT_number 125
_space_group.IT_coordinate_system_code '2'
_symmetry_cell_setting 'tetragonal'
loop_
_space_group_symop_operation_xyz
x,y,z
1/2-y,x,z
1/2-x,1/2-y,z
y,1/2-x,z
x,1/2-y,-z
1/2-x,y,-z
y,x,-z
1/2-y,1/2-x,-z
-x,-y,-z
1/2+y,-x,-z
1/2+x,1/2+y,-z
-y,1/2+x,-z
-x,1/2+y,z
1/2+x,-y,z
-y,-x,z
1/2+y,1/2+x,z
loop_
_atom_site_type_symbol
_atom_site_label
_atom_site_fract_x
_atom_site_fract_y
_atom_site_fract_z
Si Si1 0.009725 0.875785 0.284669
Si Si2 0.826151 0.439157 0.538310
Si Si3 0.916400 0.528854 0.869538
Si Si4 0.639484 0.250000 0.000000
Si Si5 0.721828 0.475127 0.196082
O O1 0.082009 0.917992 0.249983
O O2 0.008333 0.859790 0.434300
O O3 0.001691 0.802323 0.210107
O O4 0.943451 0.922643 0.245735
O O5 0.750000 0.413185 0.500000
O O6 0.869400 0.369400 0.549833
O O7 0.820493 0.474421 0.673154
O O8 0.831282 0.527077 0.877185
O O9 0.951426 0.451426 0.854475
O O10 0.938865 0.561136 0.000000
O O11 0.596589 0.222891 0.880488
O O12 0.686449 0.313552 0.949462
#
# Coordination Sequence:
#
# PCOD8313472 Si02
#       5
#    16  16  16   8  16
#     4   9  19  35  53  76 105 133 167 212 255 299
#     4   9  18  31  48  72 101 134 169 207 252 302
#     4  10  20  33  51  75 101 132 171 212 254 299
#     4  11  22  32  46  72 104 137 172 210 252 303
#     4  11  20  34  53  72 100 136 173 209 253 305
#
# _framework density 18.537483999999999
#
# number of rings (size 3 to 8) (size 9 to 14) (size 15 to 20)
#    0.000    2.111    0.000    4.000    0.000    3.778 
#    0.000    3.333    0.000    0.667    0.000    1.556 
#    0.000    5.333    0.000    0.000    0.000    0.000 
#
# Total GULP energy -891982.317216 kJ/mol
# GULP energy per Si atom -12388.643295 kJ/mol
# Density = 1.849529 g / cm^3
# Si number density = 18.537484 Si / 1000 Ang^3
#
#
#
# Elastic Constant Matrix: (Units=GPa)
#
#
# Indices 1 2 3 4 5 6 
#
# 1 90.5774 45.9658 27.3606 0.0000 0.0000 0.0000
# 2 45.9658 90.5775 27.3608 0.0000 0.0000 0.0000
# 3 27.3606 27.3608 67.2487 0.0000 0.0000 0.0000
# 4 0.0000 0.0000 0.0000 24.4210 0.0000 0.0000
# 5 0.0000 0.0000 0.0000 0.0000 24.4205 0.0000
# 6 0.0000 0.0000 0.0000 0.0000 0.0000 28.4718
#
#
#
# Elastic Compliance Matrix: (Units=1/GPa)
#
#
# Indices 1 2 3 4 5 6 
#
# 1 0.015583 -0.006833 -0.003560 0.000000 0.000000 0.000000
# 2 -0.006833 0.015583 -0.003560 0.000000 0.000000 0.000000
# 3 -0.003560 -0.003560 0.017767 0.000000 0.000000 0.000000
# 4 0.000000 0.000000 0.000000 0.040948 0.000000 0.000000
# 5 0.000000 0.000000 0.000000 0.000000 0.040949 0.000000
# 6 0.000000 0.000000 0.000000 0.000000 0.000000 0.035122
#
#
# Mechanical properties :
#
#
# Convention : Reuss Voigt Hill
#
# Bulk Modulus (GPa) = 47.55720 49.97533 48.76627
# Shear Modulus (GPa) = 24.89193 25.31044 25.10118
#
# Velocity S-wave (km/s) = 3.66838 3.69909 3.68377
# Velocity P-wave (km/s) = 6.60704 6.72770 6.66765
#
# Compressibility (1/GPa) = 0.02102731
#
# Stress axis : x y z
#
# Youngs Moduli (GPa) = 64.17224 64.17215 56.28360
#
# Poissons Ratio (x) = 0.43846 0.20038
# Poissons Ratio (y) = 0.43846 0.20038
# Poissons Ratio (z) = 0.22846 0.22847
#
# Static dielectric constant tensor:
#      x y z
#    x 3.338980 0.000000 0.000000 
#    y 0.000000 3.338980 0.000000 
#    z 0.000000 0.000000 3.788280 
# 
# 
# High freq. dielectric constant tensor:
#      x y z
#    x 1.699920 0.000000 0.000000 
#    y 0.000000 1.699920 0.000000 
#    z 0.000000 0.000000 1.738420 
# 
# From -- ./inp_files/3803.got.cif
#   From: 2010.03.12/outbox.cif.g09.slc.cpg/sg125_2_cif.got.tgz:3803.got - 2010.04.06 16:47:52.
