data_PCOD8313191
_publ_section_title
;
Structure prediction by ZEFSAII (Michael W. Deem and Ramdas Pophale) SiO2 
 PCOD8313191
Probable space group: P 4/M C C
;
_chemical_formula_sum "Si O2"
_cell_formula_units_Z 88
_cell_length_a 20.837421
_cell_length_b 20.837421
_cell_length_c 15.713961
_cell_angle_alpha 90.000000
_cell_angle_beta 90.000000
_cell_angle_gamma 90.000000
_cell_volume 6822.972229
_symmetry_space_group_name_H-M "P 4/M C C"
_symmetry_group_IT_number 124
_symmetry_cell_setting 'tetragonal'
loop_
_space_group_symop_operation_xyz
x,y,z
-y,x,z
-x,-y,z
y,-x,z
x,-y,1/2-z
-x,y,1/2-z
y,x,1/2-z
-y,-x,1/2-z
-x,-y,-z
y,-x,-z
x,y,-z
-y,x,-z
-x,y,1/2+z
x,-y,1/2+z
-y,-x,1/2+z
y,x,1/2+z
loop_
_atom_site_type_symbol
_atom_site_label
_atom_site_fract_x
_atom_site_fract_y
_atom_site_fract_z
Si Si1 0.076465 0.500005 0.846249
Si Si2 0.074367 0.074322 0.095262
Si Si3 0.276171 0.923233 0.750007
Si Si4 0.141097 0.858904 0.250000
Si Si5 0.364583 0.075880 0.406396
Si Si6 0.364570 0.924113 0.593606
O O1 0.100939 0.500000 0.750000
O O2 0.104094 0.436024 0.891104
O O3 0.104100 0.563991 0.891087
O O4 0.000000 0.500000 0.849932
O O5 0.113183 0.113099 0.163672
O O6 0.000027 0.089123 0.109075
O O7 0.095164 0.095106 0.000000
O O8 0.215446 0.876561 0.750056
O O9 0.315578 0.902153 0.833557
O O10 0.315548 0.902149 0.666431
O O11 0.259401 0.000000 0.750000
O O12 0.340443 0.098492 0.500000
O O13 0.369517 0.999996 0.402226
O O14 0.340436 0.901499 0.500000
#
# Coordination Sequence:
#
# PCOD8313191 Si02
#       6
#    16  16  16   8  16  16
#     4   9  13  21  39  60  81  97 112 135 165 210
#     4   9  18  32  48  62  70  78 104 152 206 256
#     4  10  20  31  40  54  73  94 123 158 189 229
#     4  12  22  31  44  56  72  98 124 152 196 237
#     4   9  16  26  40  57  77  98 116 138 174 218
#     4   9  16  26  40  57  77  98 116 138 174 218
#
# _framework density 12.897603999999999
#
# number of rings (size 3 to 8) (size 9 to 14) (size 15 to 20)
#    0.000    2.545    1.818    2.727    0.000    4.364 
#    0.000    3.636    0.000    0.000    0.000    0.000 
#    0.000    0.000    0.000    0.000    0.000    0.000 
#
# Total GULP energy -1090469.048739 kJ/mol
# GULP energy per Si atom -12391.693736 kJ/mol
# Density = 1.286825 g / cm^3
# Si number density = 12.897604 Si / 1000 Ang^3
#
#
#
# Elastic Constant Matrix: (Units=GPa)
#
#
# Indices 1 2 3 4 5 6 
#
# 1 44.0689 50.2748 44.3909 0.0000 0.0000 0.0000
# 2 50.2748 44.0684 44.3910 0.0000 0.0000 0.0000
# 3 44.3909 44.3910 132.1722 0.0000 0.0000 0.0000
# 4 0.0000 0.0000 0.0000 10.4431 0.0000 0.0000
# 5 0.0000 0.0000 0.0000 0.0000 10.4427 0.0000
# 6 0.0000 0.0000 0.0000 0.0000 0.0000 6.4114
#
#
#
# Elastic Compliance Matrix: (Units=1/GPa)
#
#
# Indices 1 2 3 4 5 6 
#
# 1 -0.072816 0.088315 -0.005205 0.000000 0.000000 0.000000
# 2 0.088315 -0.072818 -0.005205 0.000000 0.000000 0.000000
# 3 -0.005205 -0.005205 0.011062 0.000000 0.000000 0.000000
# 4 0.000000 0.000000 0.000000 0.095757 0.000000 0.000000
# 5 0.000000 0.000000 0.000000 0.000000 0.095761 0.000000
# 6 0.000000 0.000000 0.000000 0.000000 0.000000 0.155973
#
#
# Mechanical properties :
#
#
# Convention : Reuss Voigt Hill
#
# Bulk Modulus (GPa) = 47.08634 55.38034 51.23334
# Shear Modulus (GPa) = 77.89452 10.87629 44.38540
#
# Velocity S-wave (km/s) = 7.77982 2.90708 5.87268
# Velocity P-wave (km/s) = 10.82996 7.36884 9.26250
#
# Compressibility (1/GPa) = 0.02123758
#
# Stress axis : x y z
#
# Youngs Moduli (GPa) = -13.73323 -13.73294 90.39806
#
# Poissons Ratio (x) = 1.21282 0.47055
# Poissons Ratio (y) = 1.21284 0.47050
# Poissons Ratio (z) = -0.07149 -0.07148
#
# Static dielectric constant tensor:
#      x y z
#    x 2.376270 0.000000 0.000000 
#    y 0.000000 2.376290 0.000000 
#    z 0.000000 0.000000 2.984590 
# 
# 
# High freq. dielectric constant tensor:
#      x y z
#    x 1.445330 0.000000 0.000000 
#    y 0.000000 1.445330 0.000000 
#    z 0.000000 0.000000 1.518640 
# 
# From -- ./inp_files/3393.got.cif
#   From: 2010.03.12/outbox.cif.g09.slc.cpg/sg124_2_cif.got.tgz:3393.got - 2010.04.06 16:38:57.
