data_PCOD8313022
_publ_section_title
;
Structure prediction by ZEFSAII (Michael W. Deem and Ramdas Pophale) SiO2 
 PCOD8313022
Probable space group: P 4/M M M
;
_chemical_formula_sum "Si O2"
_cell_formula_units_Z 64
_cell_length_a 14.044285
_cell_length_b 14.044285
_cell_length_c 20.367645
_cell_angle_alpha 90.000000
_cell_angle_beta 90.000000
_cell_angle_gamma 90.000000
_cell_volume 4017.353837
_symmetry_space_group_name_H-M "P 4/M M M"
_symmetry_group_IT_number 123
_symmetry_cell_setting 'tetragonal'
loop_
_space_group_symop_operation_xyz
x,y,z
-y,x,z
-x,-y,z
y,-x,z
x,-y,-z
-x,y,-z
y,x,-z
-y,-x,-z
-x,-y,-z
y,-x,-z
x,y,-z
-y,x,-z
-x,y,z
x,-y,z
-y,-x,z
y,x,z
loop_
_atom_site_type_symbol
_atom_site_label
_atom_site_fract_x
_atom_site_fract_y
_atom_site_fract_z
Si Si1 0.611828 0.769504 0.642971
Si Si2 0.113034 0.395075 0.000000
Si Si3 0.758348 0.393028 0.500000
Si Si4 0.890079 0.734757 0.264611
Si Si5 0.108799 0.738362 0.114924
O O1 0.500000 0.749062 0.656021
O O2 0.671696 0.671696 0.653495
O O3 0.629193 0.812587 0.568808
O O4 0.648000 0.850857 0.692017
O O5 0.148510 0.341935 0.065703
O O6 0.159026 0.500000 0.000000
O O7 0.000000 0.402550 0.000000
O O8 0.724765 0.500000 0.500000
O O9 0.659405 0.340596 0.500000
O O10 0.831641 0.831641 0.278898
O O11 0.878257 0.701789 0.189257
O O12 0.000000 0.754866 0.282095
O O13 0.164379 0.835622 0.102680
O O14 0.000000 0.762495 0.098855
#
# Coordination Sequence:
#
# PCOD8313022 Si02
#       5
#    16   8   8  16  16
#     4   9  17  29  45  66  91 117 146 180 219 265
#     4   9  17  28  41  59  85 115 143 169 199 240
#     4   8  14  25  41  61  86 114 142 176 219 264
#     4   9  18  31  46  65  88 115 148 185 225 267
#     4   9  17  29  45  65  88 112 140 176 217 261
#
# _framework density 15.930885
#
# number of rings (size 3 to 8) (size 9 to 14) (size 15 to 20)
#    0.000    3.125    0.000    0.375    0.000    2.375 
#    0.000    8.125    0.000    4.500    0.000    0.000 
#    0.000    9.000    0.000    0.000    0.000    0.750 
#
# Total GULP energy -793014.055029 kJ/mol
# GULP energy per Si atom -12390.844610 kJ/mol
# Density = 1.589463 g / cm^3
# Si number density = 15.930885 Si / 1000 Ang^3
#
#
#
# Elastic Constant Matrix: (Units=GPa)
#
#
# Indices 1 2 3 4 5 6 
#
# 1 87.4904 39.1434 58.4284 0.0000 0.0000 0.0000
# 2 39.1434 87.4900 58.4283 0.0000 0.0000 0.0000
# 3 58.4284 58.4283 115.6881 0.0000 0.0000 0.0000
# 4 0.0000 0.0000 0.0000 24.9130 0.0000 0.0000
# 5 0.0000 0.0000 0.0000 0.0000 24.9132 0.0000
# 6 0.0000 0.0000 0.0000 0.0000 0.0000 12.0358
#
#
#
# Elastic Compliance Matrix: (Units=1/GPa)
#
#
# Indices 1 2 3 4 5 6 
#
# 1 0.017737 -0.002947 -0.007469 0.000000 0.000000 0.000000
# 2 -0.002947 0.017737 -0.007470 0.000000 0.000000 0.000000
# 3 -0.007469 -0.007470 0.016189 0.000000 0.000000 0.000000
# 4 0.000000 0.000000 0.000000 0.040140 0.000000 0.000000
# 5 0.000000 0.000000 0.000000 0.000000 0.040139 0.000000
# 6 0.000000 0.000000 0.000000 0.000000 0.000000 0.083086
#
#
# Mechanical properties :
#
#
# Convention : Reuss Voigt Hill
#
# Bulk Modulus (GPa) = 62.93227 66.96318 64.94773
# Shear Modulus (GPa) = 19.52393 21.35028 20.43710
#
# Velocity S-wave (km/s) = 3.50457 3.66482 3.58559
# Velocity P-wave (km/s) = 7.48098 7.74808 7.61570
#
# Compressibility (1/GPa) = 0.01589010
#
# Stress axis : x y z
#
# Youngs Moduli (GPa) = 56.38024 56.37999 61.77083
#
# Poissons Ratio (x) = 0.16616 0.46140
# Poissons Ratio (y) = 0.16616 0.46140
# Poissons Ratio (z) = 0.42113 0.42113
#
# Static dielectric constant tensor:
#      x y z
#    x 2.903220 0.000000 0.000000 
#    y 0.000000 2.903220 0.000000 
#    z 0.000000 0.000000 3.414230 
# 
# 
# High freq. dielectric constant tensor:
#      x y z
#    x 1.592290 0.000000 0.000000 
#    y 0.000000 1.592290 0.000000 
#    z 0.000000 0.000000 1.629750 
# 
# From -- ./inp_files/5013.got.cif
#   From: 2010.03.12/outbox.cif.g09.slc.cpg/sg123_3_cif.got.tgz:5013.got - 2010.04.06 16:26:55.
