data_PCOD8313560
_publ_section_title
;
Structure prediction by ZEFSAII (Michael W. Deem and Ramdas Pophale) SiO2 
 PCOD8313560
Probable space group: P 4/N B M
;
_chemical_formula_sum "Si O2"
_cell_formula_units_Z 88
_cell_length_a 15.567156
_cell_length_b 15.567156
_cell_length_c 19.125879
_cell_angle_alpha 90.000000
_cell_angle_beta 90.000000
_cell_angle_gamma 90.000000
_cell_volume 4634.895630
_symmetry_space_group_name_H-M "P 4/N B M"
_symmetry_group_IT_number 125
_space_group.IT_coordinate_system_code '2'
_symmetry_cell_setting 'tetragonal'
loop_
_space_group_symop_operation_xyz
x,y,z
1/2-y,x,z
1/2-x,1/2-y,z
y,1/2-x,z
x,1/2-y,-z
1/2-x,y,-z
y,x,-z
1/2-y,1/2-x,-z
-x,-y,-z
1/2+y,-x,-z
1/2+x,1/2+y,-z
-y,1/2+x,-z
-x,1/2+y,z
1/2+x,-y,z
-y,-x,z
1/2+y,1/2+x,z
loop_
_atom_site_type_symbol
_atom_site_label
_atom_site_fract_x
_atom_site_fract_y
_atom_site_fract_z
Si Si1 0.080476 0.064329 0.223961
Si Si2 0.491751 0.262963 0.286188
Si Si3 0.391259 0.249905 0.421440
Si Si4 0.531405 0.250000 0.000000
Si Si5 0.100916 0.469221 0.928261
Si Si6 0.822042 0.322042 0.912584
Si Si7 0.679409 0.179409 0.749206
O O1 0.064219 0.156457 0.258944
O O2 0.174375 0.027413 0.244738
O O3 0.081388 0.086064 0.140760
O O4 0.005403 0.994598 0.242813
O O5 0.469625 0.248312 0.367451
O O6 0.591306 0.287464 0.283852
O O7 0.334259 0.334166 0.409136
O O8 0.429194 0.250000 0.500000
O O9 0.471679 0.200995 0.055119
O O10 0.587460 0.304311 0.053007
O O11 0.065623 0.565623 0.912255
O O12 0.060677 0.439324 0.000000
O O13 0.750000 0.250000 0.929669
O O14 0.835066 0.335066 0.831008
O O15 0.750000 0.250000 0.733058
#
# Coordination Sequence:
#
# PCOD8313560 Si02
#       7
#    16  16  16   8  16   8   8
#     4  11  25  41  61  95 126 168 217 267 321 387
#     4  12  22  41  69  92 132 167 210 265 316 388
#     4   9  18  36  66 101 128 154 199 258 309 361
#     4  12  19  34  58  79 110 144 204 268 322 367
#     4  10  23  37  54  78 114 156 203 256 317 377
#     4  11  20  34  56  88 105 145 208 278 308 362
#     4  11  26  40  63  90 130 175 216 257 331 380
#
# _framework density 18.986405000000001
#
# number of rings (size 3 to 8) (size 9 to 14) (size 15 to 20)
#    0.000    1.273    4.545    2.182    5.091    3.273 
#    0.000    0.000    4.000    2.455    0.000    0.000 
#    0.000    0.000    0.000    0.000    0.000    0.000 
#
# Total GULP energy -1090345.953964 kJ/mol
# GULP energy per Si atom -12390.294931 kJ/mol
# Density = 1.894319 g / cm^3
# Si number density = 18.986405 Si / 1000 Ang^3
#
#
#
# Elastic Constant Matrix: (Units=GPa)
#
#
# Indices 1 2 3 4 5 6 
#
# 1 107.5372 19.3008 42.1809 0.0000 0.0000 0.0000
# 2 19.3008 107.5355 42.1810 0.0000 0.0000 0.0000
# 3 42.1809 42.1810 143.5464 0.0000 0.0000 0.0000
# 4 0.0000 0.0000 0.0000 24.8383 0.0000 0.0000
# 5 0.0000 0.0000 0.0000 0.0000 24.8455 0.0000
# 6 0.0000 0.0000 0.0000 0.0000 0.0000 25.4372
#
#
#
# Elastic Compliance Matrix: (Units=1/GPa)
#
#
# Indices 1 2 3 4 5 6 
#
# 1 0.010566 -0.000767 -0.002879 0.000000 0.000000 0.000000
# 2 -0.000767 0.010566 -0.002880 0.000000 0.000000 0.000000
# 3 -0.002879 -0.002880 0.008659 0.000000 0.000000 0.000000
# 4 0.000000 0.000000 0.000000 0.040260 0.000000 0.000000
# 5 0.000000 0.000000 0.000000 0.000000 0.040249 0.000000
# 6 0.000000 0.000000 0.000000 0.000000 0.000000 0.039313
#
#
# Mechanical properties :
#
#
# Convention : Reuss Voigt Hill
#
# Bulk Modulus (GPa) = 59.73973 62.88272 61.31122
# Shear Modulus (GPa) = 29.71858 32.02128 30.86993
#
# Velocity S-wave (km/s) = 3.96062 4.11120 4.03662
# Velocity P-wave (km/s) = 7.24211 7.46510 7.35445
#
# Compressibility (1/GPa) = 0.01673928
#
# Stress axis : x y z
#
# Youngs Moduli (GPa) = 94.64111 94.63938 115.49104
#
# Poissons Ratio (x) = 0.07259 0.33256
# Poissons Ratio (y) = 0.07259 0.33256
# Poissons Ratio (z) = 0.27252 0.27252
#
# Static dielectric constant tensor:
#      x y z
#    x 3.150420 0.000000 0.000000 
#    y 0.000000 3.150390 0.000000 
#    z 0.000000 0.000000 3.570060 
# 
# 
# High freq. dielectric constant tensor:
#      x y z
#    x 1.732960 0.000000 0.000000 
#    y 0.000000 1.732960 0.000000 
#    z 0.000000 0.000000 1.740620 
# 
# From -- ./inp_files/5888.got.cif
#   From: 2010.03.12/outbox.cif.g09.slc.cpg/sg125_3_cif.got.tgz:5888.got - 2010.04.06 16:47:52.
