data_PCOD8313201
_publ_section_title
;
Structure prediction by ZEFSAII (Michael W. Deem and Ramdas Pophale) SiO2 
 PCOD8313201
Probable space group: P 4/M C C
;
_chemical_formula_sum "Si O2"
_cell_formula_units_Z 96
_cell_length_a 24.085510
_cell_length_b 24.085510
_cell_length_c 9.432134
_cell_angle_alpha 90.000000
_cell_angle_beta 90.000000
_cell_angle_gamma 90.000000
_cell_volume 5471.692157
_symmetry_space_group_name_H-M "P 4/M C C"
_symmetry_group_IT_number 124
_symmetry_cell_setting 'tetragonal'
loop_
_space_group_symop_operation_xyz
x,y,z
-y,x,z
-x,-y,z
y,-x,z
x,-y,1/2-z
-x,y,1/2-z
y,x,1/2-z
-y,-x,1/2-z
-x,-y,-z
y,-x,-z
x,y,-z
-y,x,-z
-x,y,1/2+z
x,-y,1/2+z
-y,-x,1/2+z
y,x,1/2+z
loop_
_atom_site_type_symbol
_atom_site_label
_atom_site_fract_x
_atom_site_fract_y
_atom_site_fract_z
Si Si1 0.659367 0.130488 0.836389
Si Si2 0.661046 0.738193 0.665165
Si Si3 0.935859 0.765540 0.753017
Si Si4 0.447224 0.737287 0.662566
Si Si5 0.153193 0.937025 0.000000
Si Si6 0.064959 0.843615 0.000000
Si Si7 0.130759 0.447637 0.338459
O O1 0.667442 0.196039 0.826809
O O2 0.711421 0.101522 0.763606
O O3 0.606622 0.110525 0.745663
O O4 0.652152 0.111717 0.000000
O O5 0.712928 0.712928 0.750000
O O6 0.659102 0.718932 0.500000
O O7 0.606235 0.717664 0.748266
O O8 0.920888 0.808078 0.873118
O O9 0.918473 0.802629 0.623138
O O10 0.000000 0.746667 0.750000
O O11 0.500000 0.713992 0.750000
O O12 0.446098 0.714050 0.500000
O O13 0.450019 0.803236 0.656098
O O14 0.097748 0.901055 0.000000
O O15 0.136070 0.001412 0.000000
O O16 0.107485 0.500000 0.250000
O O17 0.107303 0.447847 0.500000
#
# Coordination Sequence:
#
# PCOD8313201 Si02
#       7
#    16  16  16  16   8   8  16
#     4  10  20  35  52  73 103 139 178 215 262 314
#     4  10  20  32  46  69 103 137 168 210 258 306
#     4  10  21  38  56  78 105 138 175 216 260 314
#     4   9  16  28  46  67  94 131 173 212 251 302
#     4  10  20  39  56  82 107 135 171 215 269 319
#     4  10  22  35  60  80 107 135 171 217 265 327
#     4   9  17  29  49  76 104 134 173 216 258 303
#
# _framework density 17.544848000000002
#
# number of rings (size 3 to 8) (size 9 to 14) (size 15 to 20)
#    0.000    2.333    0.833    2.000    1.167    6.167 
#    0.000    0.000    0.000    3.500    0.000    2.333 
#    0.000    0.333    0.000    3.333    0.000    2.333 
#
# Total GULP energy -1189821.747434 kJ/mol
# GULP energy per Si atom -12393.976536 kJ/mol
# Density = 1.750491 g / cm^3
# Si number density = 17.544848 Si / 1000 Ang^3
#
#
#
# Elastic Constant Matrix: (Units=GPa)
#
#
# Indices 1 2 3 4 5 6 
#
# 1 81.3836 56.8887 55.4932 0.0000 0.0000 0.0000
# 2 56.8887 81.3836 55.4932 0.0000 0.0000 0.0000
# 3 55.4932 55.4932 169.8730 0.0000 0.0000 0.0000
# 4 0.0000 0.0000 0.0000 -12.8404 0.0000 0.0000
# 5 0.0000 0.0000 0.0000 0.0000 -12.8404 0.0000
# 6 0.0000 0.0000 0.0000 0.0000 0.0000 1.1785
#
#
#
# Elastic Compliance Matrix: (Units=1/GPa)
#
#
# Indices 1 2 3 4 5 6 
#
# 1 0.025314 -0.015511 -0.003202 0.000000 0.000000 0.000000
# 2 -0.015511 0.025314 -0.003202 0.000000 0.000000 0.000000
# 3 -0.003202 -0.003202 0.007979 0.000000 0.000000 0.000000
# 4 0.000000 0.000000 0.000000 -0.077879 0.000000 0.000000
# 5 0.000000 0.000000 0.000000 0.000000 -0.077879 0.000000
# 6 0.000000 0.000000 0.000000 0.000000 0.000000 0.848509
#
#
# Mechanical properties :
#
#
# Convention : Reuss Voigt Hill
#
# Bulk Modulus (GPa) = 67.68228 74.26559 70.97393
# Shear Modulus (GPa) = 6.24912 6.08388 6.16650
#
# Velocity S-wave (km/s) = 1.88932 1.86417 1.87679
# Velocity P-wave (km/s) = 6.58937 6.85962 6.72586
#
# Compressibility (1/GPa) = 0.01477492
#
# Stress axis : x y z
#
# Youngs Moduli (GPa) = 39.50448 39.50448 125.33059
#
# Poissons Ratio (x) = 0.61276 0.40133
# Poissons Ratio (y) = 0.61276 0.40133
# Poissons Ratio (z) = 0.12650 0.12650
#
# Static dielectric constant tensor:
#      x y z
#    x 3.069690 0.000000 0.000000 
#    y 0.000000 3.069690 0.000000 
#    z 0.000000 0.000000 3.626010 
# 
# 
# High freq. dielectric constant tensor:
#      x y z
#    x 1.656510 0.000000 0.000000 
#    y 0.000000 1.656510 0.000000 
#    z 0.000000 0.000000 1.706010 
# 
# From -- ./inp_files/1410.got.cif
#   From: 2010.03.12/outbox.cif.g09.slc.cpg/sg124_1_cif.got.tgz:1410.got - 2010.04.06 16:38:57.
