data_PCOD8313310
_publ_section_title
;
Structure prediction by ZEFSAII (Michael W. Deem and Ramdas Pophale) SiO2 
 PCOD8313310
Probable space group: P 4/M C C
;
_chemical_formula_sum "Si O2"
_cell_formula_units_Z 112
_cell_length_a 14.411150
_cell_length_b 14.411150
_cell_length_c 26.469720
_cell_angle_alpha 90.000000
_cell_angle_beta 90.000000
_cell_angle_gamma 90.000000
_cell_volume 5497.264386
_symmetry_space_group_name_H-M "P 4/M C C"
_symmetry_group_IT_number 124
_symmetry_cell_setting 'tetragonal'
loop_
_space_group_symop_operation_xyz
x,y,z
-y,x,z
-x,-y,z
y,-x,z
x,-y,1/2-z
-x,y,1/2-z
y,x,1/2-z
-y,-x,1/2-z
-x,-y,-z
y,-x,-z
x,y,-z
-y,x,-z
-x,y,1/2+z
x,-y,1/2+z
-y,-x,1/2+z
y,x,1/2+z
loop_
_atom_site_type_symbol
_atom_site_label
_atom_site_fract_x
_atom_site_fract_y
_atom_site_fract_z
Si Si1 0.155024 0.442615 0.895442
Si Si2 0.145144 0.007028 0.309548
Si Si3 0.446879 0.187859 0.197406
Si Si4 0.371401 0.424226 0.657107
Si Si5 0.131076 0.363707 0.445547
Si Si6 0.661168 0.977420 0.146502
Si Si7 0.676550 0.339881 0.556480
O O1 0.209072 0.478311 0.846296
O O2 0.132009 0.527225 0.932456
O O3 0.222238 0.371442 0.923918
O O4 0.059791 0.402863 0.873165
O O5 0.249469 0.020129 0.327475
O O6 0.096091 0.912717 0.329362
O O7 0.145030 0.000000 0.250000
O O8 0.500000 0.176355 0.250000
O O9 0.384957 0.283154 0.190713
O O10 0.390223 0.093236 0.185588
O O11 0.467118 0.376010 0.672009
O O12 0.360663 0.406397 0.596328
O O13 0.081404 0.353748 0.500000
O O14 0.076851 0.305977 0.403295
O O15 0.230584 0.317192 0.448755
O O16 0.656079 0.382337 0.500000
#
# Coordination Sequence:
#
# PCOD8313310 Si02
#       7
#    16  16  16  16  16  16  16
#     4  11  23  39  61  92 128 166 217 272 327 390
#     4   9  21  43  66  92 123 156 200 259 323 390
#     4  11  24  41  60  90 133 173 214 270 320 388
#     4  11  22  41  63  89 129 173 227 269 319 389
#     4  10  21  39  59  88 130 167 207 261 318 384
#     4  11  24  38  67  97 123 165 212 266 326 403
#     4  11  21  39  65  92 127 168 218 276 323 383
#
# _framework density 20.373771000000001
#
# number of rings (size 3 to 8) (size 9 to 14) (size 15 to 20)
#    0.000    1.429    4.286    2.571    4.000    4.571 
#    0.000    1.429    0.000    0.000    0.000    1.000 
#    0.000    0.000    0.000    0.000    0.000    0.000 
#
# Total GULP energy -1387467.069088 kJ/mol
# GULP energy per Si atom -12388.098831 kJ/mol
# Density = 2.032740 g / cm^3
# Si number density = 20.373771 Si / 1000 Ang^3
#
#
#
# Elastic Constant Matrix: (Units=GPa)
#
#
# Indices 1 2 3 4 5 6 
#
# 1 81.5405 24.7114 14.7355 0.0000 0.0000 0.0000
# 2 24.7114 81.5405 14.7355 0.0000 0.0000 0.0000
# 3 14.7355 14.7355 88.5056 0.0000 0.0000 0.0000
# 4 0.0000 0.0000 0.0000 9.2410 0.0000 0.0000
# 5 0.0000 0.0000 0.0000 0.0000 9.2410 0.0000
# 6 0.0000 0.0000 0.0000 0.0000 0.0000 22.4642
#
#
#
# Elastic Compliance Matrix: (Units=1/GPa)
#
#
# Indices 1 2 3 4 5 6 
#
# 1 0.013732 -0.003865 -0.001643 0.000000 0.000000 0.000000
# 2 -0.003865 0.013732 -0.001643 0.000000 0.000000 0.000000
# 3 -0.001643 -0.001643 0.011846 0.000000 0.000000 0.000000
# 4 0.000000 0.000000 0.000000 0.108214 0.000000 0.000000
# 5 0.000000 0.000000 0.000000 0.000000 0.108214 0.000000
# 6 0.000000 0.000000 0.000000 0.000000 0.000000 0.044515
#
#
# Mechanical properties :
#
#
# Convention : Reuss Voigt Hill
#
# Bulk Modulus (GPa) = 39.98565 39.99463 39.99014
# Shear Modulus (GPa) = 15.48520 21.34952 18.41736
#
# Velocity S-wave (km/s) = 2.75990 3.24063 3.00988
# Velocity P-wave (km/s) = 5.46120 5.80304 5.63471
#
# Compressibility (1/GPa) = 0.02500897
#
# Stress axis : x y z
#
# Youngs Moduli (GPa) = 72.82292 72.82292 84.41844
#
# Poissons Ratio (x) = 0.28144 0.13868
# Poissons Ratio (y) = 0.28144 0.13868
# Poissons Ratio (z) = 0.11964 0.11964
#
# Static dielectric constant tensor:
#      x y z
#    x 3.788760 0.000000 0.000000 
#    y 0.000000 3.788760 0.000000 
#    z 0.000000 0.000000 3.968950 
# 
# 
# High freq. dielectric constant tensor:
#      x y z
#    x 1.791070 0.000000 0.000000 
#    y 0.000000 1.791070 0.000000 
#    z 0.000000 0.000000 1.794630 
# 
# From -- ./inp_files/6648.got.cif
#   From: 2010.03.12/outbox.cif.g09.slc.cpg/sg124_4_cif.got.tgz:6648.got - 2010.04.06 16:38:57.
