data_PCOD8313413
_publ_section_title
;
Structure prediction by ZEFSAII (Michael W. Deem and Ramdas Pophale) SiO2 
 PCOD8313413
Probable space group: P 4/N B M
;
_chemical_formula_sum "Si O2"
_cell_formula_units_Z 96
_cell_length_a 24.964826
_cell_length_b 24.964826
_cell_length_c 10.029587
_cell_angle_alpha 90.000000
_cell_angle_beta 90.000000
_cell_angle_gamma 90.000000
_cell_volume 6250.865249
_symmetry_space_group_name_H-M "P 4/N B M"
_symmetry_group_IT_number 125
_space_group.IT_coordinate_system_code '2'
_symmetry_cell_setting 'tetragonal'
loop_
_space_group_symop_operation_xyz
x,y,z
1/2-y,x,z
1/2-x,1/2-y,z
y,1/2-x,z
x,1/2-y,-z
1/2-x,y,-z
y,x,-z
1/2-y,1/2-x,-z
-x,-y,-z
1/2+y,-x,-z
1/2+x,1/2+y,-z
-y,1/2+x,-z
-x,1/2+y,z
1/2+x,-y,z
-y,-x,z
1/2+y,1/2+x,z
loop_
_atom_site_type_symbol
_atom_site_label
_atom_site_fract_x
_atom_site_fract_y
_atom_site_fract_z
Si Si1 0.420594 0.008804 0.404658
Si Si2 0.093441 0.819338 0.242737
Si Si3 0.293663 0.880834 0.292596
Si Si4 0.157906 0.568063 0.044346
Si Si5 0.310162 0.531616 0.495718
Si Si6 0.513905 0.575295 0.898682
O O1 0.448456 0.051545 0.500000
O O2 0.424869 0.032380 0.255381
O O3 0.450811 0.950811 0.414045
O O4 0.357759 0.004422 0.443314
O O5 0.126193 0.873808 0.251195
O O6 0.131280 0.769645 0.286371
O O7 0.043073 0.824479 0.341914
O O8 0.070851 0.809988 0.094071
O O9 0.325050 0.825050 0.283704
O O10 0.303960 0.920322 0.168697
O O11 0.309131 0.911678 0.427079
O O12 0.111310 0.611310 0.046850
O O13 0.133538 0.508882 0.062793
O O14 0.250000 0.504942 0.500000
O O15 0.468198 0.531803 0.921663
O O16 0.562773 0.562773 0.000000
#
# Coordination Sequence:
#
# PCOD8313413 Si02
#       6
#    16  16  16  16  16  16
#     4  10  19  30  48  71  94 118 150 193 235 273
#     4  10  20  29  42  63  82 110 156 202 235 269
#     4  10  18  31  46  57  79 117 155 195 242 277
#     4   9  17  29  43  57  81 109 141 184 230 279
#     4  10  20  33  47  64  90 123 154 182 228 290
#     4   9  17  28  43  64  86 112 141 178 232 285
#
# _framework density 15.357873
#
# number of rings (size 3 to 8) (size 9 to 14) (size 15 to 20)
#    0.000    2.333    1.667    2.000    2.333    0.333 
#    0.000    0.000    0.000    6.000    0.000    0.000 
#    0.000    0.333    0.000    0.000    0.000    0.000 
#
# Total GULP energy -1189870.248377 kJ/mol
# GULP energy per Si atom -12394.481754 kJ/mol
# Density = 1.532292 g / cm^3
# Si number density = 15.357873 Si / 1000 Ang^3
#
#
#
# Elastic Constant Matrix: (Units=GPa)
#
#
# Indices 1 2 3 4 5 6 
#
# 1 48.4012 23.9606 19.4294 0.0000 0.0000 0.0000
# 2 23.9606 48.4020 19.4288 0.0000 0.0000 0.0000
# 3 19.4294 19.4288 88.4274 0.0000 0.0000 0.0000
# 4 0.0000 0.0000 0.0000 21.6023 0.0000 0.0000
# 5 0.0000 0.0000 0.0000 0.0000 21.6023 0.0000
# 6 0.0000 0.0000 0.0000 0.0000 0.0000 18.4508
#
#
#
# Elastic Compliance Matrix: (Units=1/GPa)
#
#
# Indices 1 2 3 4 5 6 
#
# 1 0.028292 -0.012623 -0.003443 0.000000 0.000000 0.000000
# 2 -0.012623 0.028291 -0.003442 0.000000 0.000000 0.000000
# 3 -0.003443 -0.003442 0.012821 0.000000 0.000000 0.000000
# 4 0.000000 0.000000 0.000000 0.046291 0.000000 0.000000
# 5 0.000000 0.000000 0.000000 0.000000 0.046291 0.000000
# 6 0.000000 0.000000 0.000000 0.000000 0.000000 0.054198
#
#
# Mechanical properties :
#
#
# Convention : Reuss Voigt Hill
#
# Bulk Modulus (GPa) = 32.90845 34.54089 33.72467
# Shear Modulus (GPa) = 18.84438 20.49188 19.66813
#
# Velocity S-wave (km/s) = 3.50668 3.65676 3.58251
# Velocity P-wave (km/s) = 6.15386 6.35363 6.25455
#
# Compressibility (1/GPa) = 0.03038733
#
# Stress axis : x y z
#
# Youngs Moduli (GPa) = 35.34604 35.34691 77.99406
#
# Poissons Ratio (x) = 0.44620 0.26851
# Poissons Ratio (y) = 0.44619 0.26848
# Poissons Ratio (z) = 0.12169 0.12168
#
# Static dielectric constant tensor:
#      x y z
#    x 2.744000 0.000000 0.000000 
#    y 0.000000 2.744000 0.000000 
#    z 0.000000 0.000000 3.265740 
# 
# 
# High freq. dielectric constant tensor:
#      x y z
#    x 1.548970 0.000000 0.000000 
#    y 0.000000 1.548970 0.000000 
#    z 0.000000 0.000000 1.617660 
# 
# From -- ./inp_files/2837.got.cif
#   From: 2010.03.12/outbox.cif.g09.slc.cpg/sg125_2_cif.got.tgz:2837.got - 2010.04.06 16:47:52.
