data_PCOD8313079
_publ_section_title
;
Structure prediction by ZEFSAII (Michael W. Deem and Ramdas Pophale) SiO2 
 PCOD8313079
Probable space group: P 4/M C C
;
_chemical_formula_sum "Si O2"
_cell_formula_units_Z 56
_cell_length_a 12.195939
_cell_length_b 12.195939
_cell_length_c 18.768758
_cell_angle_alpha 90.000000
_cell_angle_beta 90.000000
_cell_angle_gamma 90.000000
_cell_volume 2791.682484
_symmetry_space_group_name_H-M "P 4/M C C"
_symmetry_group_IT_number 124
_symmetry_cell_setting 'tetragonal'
loop_
_space_group_symop_operation_xyz
x,y,z
-y,x,z
-x,-y,z
y,-x,z
x,-y,1/2-z
-x,y,1/2-z
y,x,1/2-z
-y,-x,1/2-z
-x,-y,-z
y,-x,-z
x,y,-z
-y,x,-z
-x,y,1/2+z
x,-y,1/2+z
-y,-x,1/2+z
y,x,1/2+z
loop_
_atom_site_type_symbol
_atom_site_label
_atom_site_fract_x
_atom_site_fract_y
_atom_site_fract_z
Si Si1 0.913219 0.592929 0.421254
Si Si2 0.000000 0.251366 0.750000
Si Si3 0.827798 0.014163 0.598921
Si Si4 0.206873 0.619679 0.223725
O O1 0.864425 0.562228 0.500000
O O2 0.817844 0.613062 0.362116
O O3 0.000000 0.500000 0.395960
O O4 0.980048 0.705901 0.431682
O O5 0.978185 0.172816 0.815863
O O6 0.102504 0.331104 0.764573
O O7 0.883095 0.901169 0.572543
O O8 0.233897 0.500000 0.250000
O O9 0.309693 0.690307 0.250000
#
# Coordination Sequence:
#
# PCOD8313079 Si02
#       4
#    16   8  16  16
#     4  10  22  39  58  83 118 158 197 240 295 361
#     4  10  17  31  54  82 112 145 191 238 280 336
#     4  10  19  31  51  81 116 149 182 227 285 345
#     4  11  22  38  61  87 114 149 194 245 294 347
#
# _framework density 20.059587000000001
#
# number of rings (size 3 to 8) (size 9 to 14) (size 15 to 20)
#    0.000    1.714    0.000    8.143    0.000    2.571 
#    0.000    5.714    0.000    0.000    0.000    2.000 
#    0.000    0.000    0.000    0.000    0.000    0.000 
#
# Total GULP energy -693857.285537 kJ/mol
# GULP energy per Si atom -12390.308670 kJ/mol
# Density = 2.001393 g / cm^3
# Si number density = 20.059587 Si / 1000 Ang^3
#
#
#
# Elastic Constant Matrix: (Units=GPa)
#
#
# Indices 1 2 3 4 5 6 
#
# 1 141.5155 65.9952 25.4744 0.0000 0.0000 0.0000
# 2 65.9952 141.5179 25.4751 0.0000 0.0000 0.0000
# 3 25.4744 25.4751 147.6452 0.0000 0.0000 0.0000
# 4 0.0000 0.0000 0.0000 -11.1843 0.0000 0.0000
# 5 0.0000 0.0000 0.0000 0.0000 -11.1840 0.0000
# 6 0.0000 0.0000 0.0000 0.0000 0.0000 26.1989
#
#
#
# Elastic Compliance Matrix: (Units=1/GPa)
#
#
# Indices 1 2 3 4 5 6 
#
# 1 0.009137 -0.004105 -0.000868 0.000000 0.000000 0.000000
# 2 -0.004105 0.009137 -0.000868 0.000000 0.000000 0.000000
# 3 -0.000868 -0.000868 0.007073 0.000000 0.000000 0.000000
# 4 0.000000 0.000000 0.000000 -0.089411 0.000000 0.000000
# 5 0.000000 0.000000 0.000000 0.000000 -0.089413 0.000000
# 6 0.000000 0.000000 0.000000 0.000000 0.000000 0.038170
#
#
# Mechanical properties :
#
#
# Convention : Reuss Voigt Hill
#
# Bulk Modulus (GPa) = 73.18526 73.84089 73.51308
# Shear Modulus (GPa) = -50.46833 21.68171 -14.39331
#
# Velocity S-wave (km/s) = -5.02134 3.29122 -2.68158
# Velocity P-wave (km/s) = 1.71601 7.16474 5.20952
#
# Compressibility (1/GPa) = 0.01366395
#
# Stress axis : x y z
#
# Youngs Moduli (GPa) = 109.44759 109.44933 141.39049
#
# Poissons Ratio (x) = 0.44924 0.12276
# Poissons Ratio (y) = 0.44923 0.12277
# Poissons Ratio (z) = 0.09503 0.09503
#
# Static dielectric constant tensor:
#      x y z
#    x 3.596680 0.000000 0.000000 
#    y 0.000000 3.596670 0.000000 
#    z 0.000000 0.000000 3.917760 
# 
# 
# High freq. dielectric constant tensor:
#      x y z
#    x 1.769660 0.000000 0.000000 
#    y 0.000000 1.769660 0.000000 
#    z 0.000000 0.000000 1.798790 
# 
# From -- ./inp_files/5803.got.cif
#   From: 2010.03.12/outbox.cif.g09.slc.cpg/sg124_3_cif.got.tgz:5803.got - 2010.04.06 16:38:57.
