data_PCOD8313624
_publ_section_title
;
Structure prediction by ZEFSAII (Michael W. Deem and Ramdas Pophale) SiO2 
 PCOD8313624
Probable space group: P 4/N B M
;
_chemical_formula_sum "Si O2"
_cell_formula_units_Z 80
_cell_length_a 12.841251
_cell_length_b 12.841251
_cell_length_c 25.098305
_cell_angle_alpha 90.000000
_cell_angle_beta 90.000000
_cell_angle_gamma 90.000000
_cell_volume 4138.653452
_symmetry_space_group_name_H-M "P 4/N B M"
_symmetry_group_IT_number 125
_space_group.IT_coordinate_system_code '2'
_symmetry_cell_setting 'tetragonal'
loop_
_space_group_symop_operation_xyz
x,y,z
1/2-y,x,z
1/2-x,1/2-y,z
y,1/2-x,z
x,1/2-y,-z
1/2-x,y,-z
y,x,-z
1/2-y,1/2-x,-z
-x,-y,-z
1/2+y,-x,-z
1/2+x,1/2+y,-z
-y,1/2+x,-z
-x,1/2+y,z
1/2+x,-y,z
-y,-x,z
1/2+y,1/2+x,z
loop_
_atom_site_type_symbol
_atom_site_label
_atom_site_fract_x
_atom_site_fract_y
_atom_site_fract_z
Si Si1 0.738430 0.577432 0.671351
Si Si2 0.077946 0.246270 0.556142
Si Si3 0.157227 0.013591 0.965596
Si Si4 0.750306 0.417715 0.234977
Si Si5 0.915995 0.779732 0.851010
O O1 0.845111 0.641122 0.677952
O O2 0.740207 0.518554 0.613089
O O3 0.724727 0.491051 0.715658
O O4 0.150565 0.146117 0.555644
O O5 0.010866 0.250000 0.500000
O O6 0.210312 0.057684 0.912835
O O7 0.250000 0.962481 0.000000
O O8 0.106168 0.106168 0.000000
O O9 0.073153 0.926848 0.950290
O O10 0.660269 0.339732 0.253113
O O11 0.854479 0.354479 0.218930
O O12 0.708208 0.481233 0.184228
O O13 0.833206 0.869127 0.836973
#
# Coordination Sequence:
#
# PCOD8313624 Si02
#       5
#    16  16  16  16  16
#     4   9  17  31  54  83 111 141 185 234 282 340
#     4   7  10  19  40  73 109 139 170 220 283 337
#     4  11  23  40  64  92 123 157 189 226 275 327
#     4  11  25  41  55  76 111 152 191 233 282 336
#     4  11  23  40  66  91 113 143 184 232 278 330
#
# _framework density 19.329957
#
# number of rings (size 3 to 8) (size 9 to 14) (size 15 to 20)
#    0.000    2.200    2.000    3.600    0.000    6.800 
#    0.000    0.000    0.000    1.200    0.000    7.000 
#    0.000    0.000    0.000    0.000    0.000    0.000 
#
# Total GULP energy -991200.916988 kJ/mol
# GULP energy per Si atom -12390.011462 kJ/mol
# Density = 1.928596 g / cm^3
# Si number density = 19.329957 Si / 1000 Ang^3
#
#
#
# Elastic Constant Matrix: (Units=GPa)
#
#
# Indices 1 2 3 4 5 6 
#
# 1 73.5196 29.9279 38.4642 0.0000 0.0000 0.0000
# 2 29.9279 73.5196 38.4642 0.0000 0.0000 0.0000
# 3 38.4642 38.4642 132.2951 0.0000 0.0000 0.0000
# 4 0.0000 0.0000 0.0000 10.3629 0.0000 0.0000
# 5 0.0000 0.0000 0.0000 0.0000 10.3629 0.0000
# 6 0.0000 0.0000 0.0000 0.0000 0.0000 10.8862
#
#
#
# Elastic Compliance Matrix: (Units=1/GPa)
#
#
# Indices 1 2 3 4 5 6 
#
# 1 0.017637 -0.005303 -0.003586 0.000000 0.000000 0.000000
# 2 -0.005303 0.017637 -0.003586 0.000000 0.000000 0.000000
# 3 -0.003586 -0.003586 0.009644 0.000000 0.000000 0.000000
# 4 0.000000 0.000000 0.000000 0.096498 0.000000 0.000000
# 5 0.000000 0.000000 0.000000 0.000000 0.096498 0.000000
# 6 0.000000 0.000000 0.000000 0.000000 0.000000 0.091860
#
#
# Mechanical properties :
#
#
# Convention : Reuss Voigt Hill
#
# Bulk Modulus (GPa) = 50.08201 54.78301 52.43251
# Shear Modulus (GPa) = 13.83586 17.82090 15.82838
#
# Velocity S-wave (km/s) = 2.67830 3.03963 2.86466
# Velocity P-wave (km/s) = 5.96067 6.38135 6.17459
#
# Compressibility (1/GPa) = 0.01996725
#
# Stress axis : x y z
#
# Youngs Moduli (GPa) = 56.69971 56.69971 103.69124
#
# Poissons Ratio (x) = 0.30070 0.37182
# Poissons Ratio (y) = 0.30070 0.37182
# Poissons Ratio (z) = 0.20332 0.20332
#
# Static dielectric constant tensor:
#      x y z
#    x 3.294260 0.000000 0.000000 
#    y 0.000000 3.294260 0.000000 
#    z 0.000000 0.000000 3.998940 
# 
# 
# High freq. dielectric constant tensor:
#      x y z
#    x 1.724070 0.000000 0.000000 
#    y 0.000000 1.724070 0.000000 
#    z 0.000000 0.000000 1.779810 
# 
# From -- ./inp_files/6488.got.cif
#   From: 2010.03.12/outbox.cif.g09.slc.cpg/sg125_4_cif.got.tgz:6488.got - 2010.04.06 16:47:52.
