data_PCOD8313122
_publ_section_title
;
Structure prediction by ZEFSAII (Michael W. Deem and Ramdas Pophale) SiO2 
 PCOD8313122
Probable space group: P 4/M C C
;
_chemical_formula_sum "Si O2"
_cell_formula_units_Z 64
_cell_length_a 19.415334
_cell_length_b 19.415334
_cell_length_c 9.188061
_cell_angle_alpha 90.000000
_cell_angle_beta 90.000000
_cell_angle_gamma 90.000000
_cell_volume 3463.487320
_symmetry_space_group_name_H-M "P 4/M C C"
_symmetry_group_IT_number 124
_symmetry_cell_setting 'tetragonal'
loop_
_space_group_symop_operation_xyz
x,y,z
-y,x,z
-x,-y,z
y,-x,z
x,-y,1/2-z
-x,y,1/2-z
y,x,1/2-z
-y,-x,1/2-z
-x,-y,-z
y,-x,-z
x,y,-z
-y,x,-z
-x,y,1/2+z
x,-y,1/2+z
-y,-x,1/2+z
y,x,1/2+z
loop_
_atom_site_type_symbol
_atom_site_label
_atom_site_fract_x
_atom_site_fract_y
_atom_site_fract_z
Si Si1 0.929142 0.169943 0.829292
Si Si2 0.435367 0.816057 0.661107
Si Si3 0.564296 0.653530 0.837808
Si Si4 0.716988 0.184625 0.669180
O O1 0.895784 0.104217 0.750000
O O2 0.882384 0.236850 0.805599
O O3 0.000000 0.186923 0.750000
O O4 0.939754 0.153534 0.000000
O O5 0.500000 0.847801 0.750000
O O6 0.440215 0.848288 0.500000
O O7 0.442234 0.734717 0.654526
O O8 0.359848 0.832864 0.729670
O O9 0.500000 0.621598 0.750000
O O10 0.633183 0.633183 0.750000
O O11 0.566612 0.622340 0.000000
O O12 0.749793 0.250208 0.750000
O O13 0.711607 0.205192 0.500000
#
# Coordination Sequence:
#
# PCOD8313122 Si02
#       4
#    16  16  16  16
#     4  10  20  35  55  80 110 141 173 207 245 291
#     4   9  18  31  47  69  95 123 157 201 250 297
#     4  10  19  30  43  59  81 109 144 186 235 290
#     4   9  18  32  51  75 102 132 168 210 254 301
#
# _framework density 18.478486
#
# number of rings (size 3 to 8) (size 9 to 14) (size 15 to 20)
#    0.000    2.500    0.000    2.250    0.000    3.500 
#    0.000    2.500    0.000    0.750    0.000    5.250 
#    0.000    0.000    0.000    0.000    0.000    0.000 
#
# Total GULP energy -793353.291281 kJ/mol
# GULP energy per Si atom -12396.145176 kJ/mol
# Density = 1.843643 g / cm^3
# Si number density = 18.478486 Si / 1000 Ang^3
#
#
#
# Elastic Constant Matrix: (Units=GPa)
#
#
# Indices 1 2 3 4 5 6 
#
# 1 94.5188 24.5335 43.7137 0.0000 0.0000 0.0000
# 2 24.5335 94.5207 43.7132 0.0000 0.0000 0.0000
# 3 43.7137 43.7132 113.2553 0.0000 0.0000 0.0000
# 4 0.0000 0.0000 0.0000 25.9658 0.0000 0.0000
# 5 0.0000 0.0000 0.0000 0.0000 25.9660 0.0000
# 6 0.0000 0.0000 0.0000 0.0000 0.0000 16.0675
#
#
#
# Elastic Compliance Matrix: (Units=1/GPa)
#
#
# Indices 1 2 3 4 5 6 
#
# 1 0.013006 -0.001283 -0.004525 0.000000 0.000000 0.000000
# 2 -0.001283 0.013005 -0.004524 0.000000 0.000000 0.000000
# 3 -0.004525 -0.004524 0.012322 0.000000 0.000000 0.000000
# 4 0.000000 0.000000 0.000000 0.038512 0.000000 0.000000
# 5 0.000000 0.000000 0.000000 0.000000 0.038512 0.000000
# 6 0.000000 0.000000 0.000000 0.000000 0.000000 0.062237
#
#
# Mechanical properties :
#
#
# Convention : Reuss Voigt Hill
#
# Bulk Modulus (GPa) = 56.59704 58.46841 57.53272
# Shear Modulus (GPa) = 24.49203 26.28882 25.39043
#
# Velocity S-wave (km/s) = 3.64460 3.77592 3.71084
# Velocity P-wave (km/s) = 6.95744 7.12181 7.04010
#
# Compressibility (1/GPa) = 0.01766877
#
# Stress axis : x y z
#
# Youngs Moduli (GPa) = 76.89051 76.89277 81.15428
#
# Poissons Ratio (x) = 0.09867 0.36718
# Poissons Ratio (y) = 0.09867 0.36717
# Poissons Ratio (z) = 0.34789 0.34789
#
# Static dielectric constant tensor:
#      x y z
#    x 3.289220 0.000000 0.000000 
#    y 0.000000 3.289220 0.000000 
#    z 0.000000 0.000000 3.716110 
# 
# 
# High freq. dielectric constant tensor:
#      x y z
#    x 1.699890 0.000000 0.000000 
#    y 0.000000 1.699890 0.000000 
#    z 0.000000 0.000000 1.723690 
# 
# From -- ./inp_files/850.got.cif
#   From: 2010.03.12/outbox.cif.g09.slc.cpg/sg124_1_cif.got.tgz:850.got - 2010.04.06 16:38:57.
