data_PCOD8313512
_publ_section_title
;
Structure prediction by ZEFSAII (Michael W. Deem and Ramdas Pophale) SiO2 
 PCOD8313512
Probable space group: P 4/N B M
;
_chemical_formula_sum "Si O2"
_cell_formula_units_Z 48
_cell_length_a 13.061232
_cell_length_b 13.061232
_cell_length_c 12.960357
_cell_angle_alpha 90.000000
_cell_angle_beta 90.000000
_cell_angle_gamma 90.000000
_cell_volume 2210.982229
_symmetry_space_group_name_H-M "P 4/N B M"
_symmetry_group_IT_number 125
_space_group.IT_coordinate_system_code '2'
_symmetry_cell_setting 'tetragonal'
loop_
_space_group_symop_operation_xyz
x,y,z
1/2-y,x,z
1/2-x,1/2-y,z
y,1/2-x,z
x,1/2-y,-z
1/2-x,y,-z
y,x,-z
1/2-y,1/2-x,-z
-x,-y,-z
1/2+y,-x,-z
1/2+x,1/2+y,-z
-y,1/2+x,-z
-x,1/2+y,z
1/2+x,-y,z
-y,-x,z
1/2+y,1/2+x,z
loop_
_atom_site_type_symbol
_atom_site_label
_atom_site_fract_x
_atom_site_fract_y
_atom_site_fract_z
Si Si1 0.336891 0.501142 0.290209
Si Si2 0.972013 0.633512 0.411385
Si Si3 0.515139 0.844442 0.938692
O O1 0.383392 0.616609 0.292499
O O2 0.427341 0.420511 0.310261
O O3 0.251067 0.494028 0.380934
O O4 0.299579 0.467398 0.176616
O O5 0.885472 0.614529 0.500000
O O6 0.078510 0.578510 0.445806
O O7 0.436729 0.936729 0.931603
O O8 0.466380 0.750000 0.000000
O O9 0.617235 0.882766 0.000000
#
# Coordination Sequence:
#
# PCOD8313512 Si02
#       3
#    16  16  16
#     4  10  21  37  59  86 116 154 198 243 294 352
#     4  10  21  38  59  85 118 152 191 241 294 350
#     4  10  21  37  57  83 117 155 196 244 295 349
#
# _framework density 21.709807999999999
#
# number of rings (size 3 to 8) (size 9 to 14) (size 15 to 20)
#    0.000    2.000    0.000    3.000    0.000    6.000 
#    0.000    8.333    0.000    6.000    0.000    0.000 
#    0.000    0.000    0.000    0.000    0.000    0.000 
#
# Total GULP energy -594649.687454 kJ/mol
# GULP energy per Si atom -12388.535155 kJ/mol
# Density = 2.166040 g / cm^3
# Si number density = 21.709808 Si / 1000 Ang^3
#
#
#
# Elastic Constant Matrix: (Units=GPa)
#
#
# Indices 1 2 3 4 5 6 
#
# 1 86.6007 26.3114 35.7584 0.0000 0.0000 0.0000
# 2 26.3114 86.6016 35.7596 0.0000 0.0000 0.0000
# 3 35.7584 35.7596 128.0193 0.0000 0.0000 0.0000
# 4 0.0000 0.0000 0.0000 36.5384 0.0000 0.0000
# 5 0.0000 0.0000 0.0000 0.0000 36.5381 0.0000
# 6 0.0000 0.0000 0.0000 0.0000 0.0000 12.0888
#
#
#
# Elastic Compliance Matrix: (Units=1/GPa)
#
#
# Indices 1 2 3 4 5 6 
#
# 1 0.013673 -0.002913 -0.003005 0.000000 0.000000 0.000000
# 2 -0.002913 0.013673 -0.003006 0.000000 0.000000 0.000000
# 3 -0.003005 -0.003006 0.009490 0.000000 0.000000 0.000000
# 4 0.000000 0.000000 0.000000 0.027368 0.000000 0.000000
# 5 0.000000 0.000000 0.000000 0.000000 0.027369 0.000000
# 6 0.000000 0.000000 0.000000 0.000000 0.000000 0.082721
#
#
# Mechanical properties :
#
#
# Convention : Reuss Voigt Hill
#
# Bulk Modulus (GPa) = 52.66389 55.20893 53.93641
# Shear Modulus (GPa) = 25.19230 30.59255 27.89242
#
# Velocity S-wave (km/s) = 3.41018 3.75795 3.58828
# Velocity P-wave (km/s) = 6.31003 6.65696 6.48582
#
# Compressibility (1/GPa) = 0.01898834
#
# Stress axis : x y z
#
# Youngs Moduli (GPa) = 73.13491 73.13509 105.36983
#
# Poissons Ratio (x) = 0.21306 0.31669
# Poissons Ratio (y) = 0.21306 0.31670
# Poissons Ratio (z) = 0.21981 0.21982
#
# Static dielectric constant tensor:
#      x y z
#    x 3.700540 0.000000 0.000000 
#    y 0.000000 3.700540 0.000000 
#    z 0.000000 0.000000 4.196700 
# 
# 
# High freq. dielectric constant tensor:
#      x y z
#    x 1.833020 0.000000 0.000000 
#    y 0.000000 1.833020 0.000000 
#    z 0.000000 0.000000 1.880120 
# 
# From -- ./inp_files/3346.got.cif
#   From: 2010.03.12/outbox.cif.g09.slc.cpg/sg125_2_cif.got.tgz:3346.got - 2010.04.06 16:47:52.
