data_PCOD8313390
_publ_section_title
;
Structure prediction by ZEFSAII (Michael W. Deem and Ramdas Pophale) SiO2 
 PCOD8313390
Probable space group: P 4/M C C
;
_chemical_formula_sum "Si O2"
_cell_formula_units_Z 80
_cell_length_a 22.007863
_cell_length_b 22.007863
_cell_length_c 10.061110
_cell_angle_alpha 90.000000
_cell_angle_beta 90.000000
_cell_angle_gamma 90.000000
_cell_volume 4873.058724
_symmetry_space_group_name_H-M "P 4/M C C"
_symmetry_group_IT_number 124
_symmetry_cell_setting 'tetragonal'
loop_
_space_group_symop_operation_xyz
x,y,z
-y,x,z
-x,-y,z
y,-x,z
x,-y,1/2-z
-x,y,1/2-z
y,x,1/2-z
-y,-x,1/2-z
-x,-y,-z
y,-x,-z
x,y,-z
-y,x,-z
-x,y,1/2+z
x,-y,1/2+z
-y,-x,1/2+z
y,x,1/2+z
loop_
_atom_site_type_symbol
_atom_site_label
_atom_site_fract_x
_atom_site_fract_y
_atom_site_fract_z
Si Si1 0.555216 0.122358 0.153934
Si Si2 0.371226 0.628775 0.250000
Si Si3 0.435365 0.423978 0.000000
Si Si4 0.373428 0.759212 0.846811
Si Si5 0.945396 0.679795 0.152455
Si Si6 0.825139 0.249414 0.652811
O O1 0.500000 0.103209 0.250000
O O2 0.574497 0.191559 0.184559
O O3 0.612696 0.079706 0.184758
O O4 0.535130 0.115325 0.000000
O O5 0.409916 0.608736 0.373207
O O6 0.385511 0.700056 0.239794
O O7 0.506858 0.415342 0.000000
O O8 0.307607 0.784944 0.810467
O O9 0.375432 0.740373 0.000000
O O10 0.894952 0.731783 0.175984
O O11 0.000000 0.695595 0.250000
O O12 0.967756 0.681916 0.000000
O O13 0.805875 0.194126 0.750000
O O14 0.814853 0.229398 0.500000
#
# Coordination Sequence:
#
# PCOD8313390 Si02
#       6
#    16   8   8  16  16  16
#     4   9  19  35  50  70 101 132 164 210 254 295
#     4  12  20  37  60  72  88 120 154 198 257 310
#     4  11  26  42  52  66  88 116 154 198 250 314
#     4   9  18  34  51  74  98 119 152 197 249 306
#     4   9  19  34  51  72 103 139 175 211 248 292
#     4   9  17  31  52  74 104 133 159 203 251 289
#
# _framework density 16.416793999999999
#
# number of rings (size 3 to 8) (size 9 to 14) (size 15 to 20)
#    0.000    2.500    2.000    3.000    0.000    4.400 
#    1.800    4.000    0.000    0.000    0.000    0.000 
#    0.000    0.400    0.000    4.400    0.000    3.200 
#
# Total GULP energy -991917.447953 kJ/mol
# GULP energy per Si atom -12398.968099 kJ/mol
# Density = 1.637943 g / cm^3
# Si number density = 16.416794 Si / 1000 Ang^3
#
#
#
# Elastic Constant Matrix: (Units=GPa)
#
#
# Indices 1 2 3 4 5 6 
#
# 1 99.5935 17.6921 55.1585 0.0000 0.0000 0.0000
# 2 17.6921 99.5965 55.1589 0.0000 0.0000 0.0000
# 3 55.1585 55.1589 107.5904 0.0000 0.0000 0.0000
# 4 0.0000 0.0000 0.0000 50.0603 0.0000 0.0000
# 5 0.0000 0.0000 0.0000 0.0000 50.0545 0.0000
# 6 0.0000 0.0000 0.0000 0.0000 0.0000 16.0327
#
#
#
# Elastic Compliance Matrix: (Units=1/GPa)
#
#
# Indices 1 2 3 4 5 6 
#
# 1 0.014338 0.002128 -0.008442 0.000000 0.000000 0.000000
# 2 0.002128 0.014338 -0.008442 0.000000 0.000000 0.000000
# 3 -0.008442 -0.008442 0.017950 0.000000 0.000000 0.000000
# 4 0.000000 0.000000 0.000000 0.019976 0.000000 0.000000
# 5 0.000000 0.000000 0.000000 0.000000 0.019978 0.000000
# 6 0.000000 0.000000 0.000000 0.000000 0.000000 0.062373
#
#
# Mechanical properties :
#
#
# Convention : Reuss Voigt Hill
#
# Bulk Modulus (GPa) = 58.42640 62.53330 60.47985
# Shear Modulus (GPa) = 27.14907 35.14756 31.14832
#
# Velocity S-wave (km/s) = 4.07103 4.63206 4.36058
# Velocity P-wave (km/s) = 7.60029 8.17201 7.89133
#
# Compressibility (1/GPa) = 0.01711555
#
# Stress axis : x y z
#
# Youngs Moduli (GPa) = 69.74397 69.74648 55.70952
#
# Poissons Ratio (x) = -0.14844 0.47029
# Poissons Ratio (y) = -0.14844 0.47028
# Poissons Ratio (z) = 0.58877 0.58878
#
# Static dielectric constant tensor:
#      x y z
#    x 2.965000 0.000000 0.000000 
#    y 0.000000 2.964990 0.000000 
#    z 0.000000 0.000000 3.041110 
# 
# 
# High freq. dielectric constant tensor:
#      x y z
#    x 1.618250 0.000000 0.000000 
#    y 0.000000 1.618250 0.000000 
#    z 0.000000 0.000000 1.635580 
# 
# From -- ./inp_files/1216.got.cif
#   From: 2010.03.12/outbox.cif.g09.slc.cpg/sg124_1_cif.got.tgz:1216.got - 2010.04.06 16:38:57.
