data_PCOD8313046
_publ_section_title
;
Structure prediction by ZEFSAII (Michael W. Deem and Ramdas Pophale) SiO2 
 PCOD8313046
Probable space group: P 4/M M M
;
_chemical_formula_sum "Si O2"
_cell_formula_units_Z 56
_cell_length_a 19.580486
_cell_length_b 19.580486
_cell_length_c 9.412863
_cell_angle_alpha 90.000000
_cell_angle_beta 90.000000
_cell_angle_gamma 90.000000
_cell_volume 3608.848676
_symmetry_space_group_name_H-M "P 4/M M M"
_symmetry_group_IT_number 123
_symmetry_cell_setting 'tetragonal'
loop_
_space_group_symop_operation_xyz
x,y,z
-y,x,z
-x,-y,z
y,-x,z
x,-y,-z
-x,y,-z
y,x,-z
-y,-x,-z
-x,-y,-z
y,-x,-z
x,y,-z
-y,x,-z
-x,y,z
x,-y,z
-y,-x,z
y,x,z
loop_
_atom_site_type_symbol
_atom_site_label
_atom_site_fract_x
_atom_site_fract_y
_atom_site_fract_z
Si Si1 0.575987 0.870609 0.663436
Si Si2 0.811418 0.921678 0.834013
Si Si3 0.580047 0.000000 0.156483
Si Si4 0.174795 0.717962 0.336288
O O1 0.573423 0.894157 0.500000
O O2 0.500000 0.843577 0.708726
O O3 0.636046 0.814895 0.688059
O O4 0.601623 0.933795 0.756418
O O5 0.881052 0.881052 0.796519
O O6 0.747427 0.888318 0.753313
O O7 0.820557 0.000000 0.784876
O O8 0.795095 0.917137 0.000000
O O9 0.500000 0.000000 0.136786
O O10 0.615238 0.000000 0.000000
O O11 0.157687 0.732918 0.500000
O O12 0.245422 0.754579 0.290399
#
# Coordination Sequence:
#
# PCOD8313046 Si02
#       4
#    16  16   8  16
#     4   9  17  29  44  61  82 108 137 168 203 243
#     4   9  18  31  45  61  80 104 136 173 212 251
#     4   9  17  27  39  59  85 109 134 165 200 237
#     4   9  18  31  45  61  82 108 137 169 205 246
#
# _framework density 15.517416000000001
#
# number of rings (size 3 to 8) (size 9 to 14) (size 15 to 20)
#    0.000    3.000    0.000    0.429    2.000    3.714 
#    0.000    1.429    0.000    0.000    0.000    4.000 
#    0.000    0.571    0.000    8.000    0.000    0.000 
#
# Total GULP energy -693852.660165 kJ/mol
# GULP energy per Si atom -12390.226074 kJ/mol
# Density = 1.548210 g / cm^3
# Si number density = 15.517416 Si / 1000 Ang^3
#
#
#
# Elastic Constant Matrix: (Units=GPa)
#
#
# Indices 1 2 3 4 5 6 
#
# 1 111.0725 53.9249 28.4073 0.0000 0.0000 0.0000
# 2 53.9249 111.0725 28.4073 0.0000 0.0000 0.0000
# 3 28.4073 28.4073 43.3384 0.0000 0.0000 0.0000
# 4 0.0000 0.0000 0.0000 16.4203 0.0000 0.0000
# 5 0.0000 0.0000 0.0000 0.0000 16.4203 0.0000
# 6 0.0000 0.0000 0.0000 0.0000 0.0000 14.2069
#
#
#
# Elastic Compliance Matrix: (Units=1/GPa)
#
#
# Indices 1 2 3 4 5 6 
#
# 1 0.012663 -0.004836 -0.005131 0.000000 0.000000 0.000000
# 2 -0.004836 0.012663 -0.005131 0.000000 0.000000 0.000000
# 3 -0.005131 -0.005131 0.029800 0.000000 0.000000 0.000000
# 4 0.000000 0.000000 0.000000 0.060900 0.000000 0.000000
# 5 0.000000 0.000000 0.000000 0.000000 0.060900 0.000000
# 6 0.000000 0.000000 0.000000 0.000000 0.000000 0.070388
#
#
# Mechanical properties :
#
#
# Convention : Reuss Voigt Hill
#
# Bulk Modulus (GPa) = 40.10847 54.10693 47.10770
# Shear Modulus (GPa) = 17.49357 19.72577 18.60967
#
# Velocity S-wave (km/s) = 3.36125 3.56926 3.46681
# Velocity P-wave (km/s) = 6.40058 7.20627 6.81534
#
# Compressibility (1/GPa) = 0.02493239
#
# Stress axis : x y z
#
# Youngs Moduli (GPa) = 78.97046 78.97046 33.55670
#
# Poissons Ratio (x) = 0.38187 0.17217
# Poissons Ratio (y) = 0.38187 0.17217
# Poissons Ratio (z) = 0.40517 0.40517
#
# Static dielectric constant tensor:
#      x y z
#    x 2.988480 0.000000 0.000000 
#    y 0.000000 2.988480 0.000000 
#    z 0.000000 0.000000 3.131400 
# 
# 
# High freq. dielectric constant tensor:
#      x y z
#    x 1.576430 0.000000 0.000000 
#    y 0.000000 1.576430 0.000000 
#    z 0.000000 0.000000 1.599600 
# 
# From -- ./inp_files/737.got.cif
#   From: 2010.03.12/outbox.cif.g09.slc.cpg/sg123_1_cif.got.tgz:737.got - 2010.04.06 16:26:55.
