data_PCOD8313165
_publ_section_title
;
Structure prediction by ZEFSAII (Michael W. Deem and Ramdas Pophale) SiO2 
 PCOD8313165
Probable space group: P 4/M C C
;
_chemical_formula_sum "Si O2"
_cell_formula_units_Z 120
_cell_length_a 20.847582
_cell_length_b 20.847582
_cell_length_c 14.208070
_cell_angle_alpha 90.000000
_cell_angle_beta 90.000000
_cell_angle_gamma 90.000000
_cell_volume 6175.135185
_symmetry_space_group_name_H-M "P 4/M C C"
_symmetry_group_IT_number 124
_symmetry_cell_setting 'tetragonal'
loop_
_space_group_symop_operation_xyz
x,y,z
-y,x,z
-x,-y,z
y,-x,z
x,-y,1/2-z
-x,y,1/2-z
y,x,1/2-z
-y,-x,1/2-z
-x,-y,-z
y,-x,-z
x,y,-z
-y,x,-z
-x,y,1/2+z
x,-y,1/2+z
-y,-x,1/2+z
y,x,1/2+z
loop_
_atom_site_type_symbol
_atom_site_label
_atom_site_fract_x
_atom_site_fract_y
_atom_site_fract_z
Si Si1 0.603516 0.500000 0.750000
Si Si2 0.272994 0.337960 0.387774
Si Si3 0.826341 0.235780 0.894056
Si Si4 0.710391 0.518947 0.388971
Si Si5 0.245381 0.383636 0.888528
Si Si6 0.138873 0.708258 0.395520
Si Si7 0.053734 0.910121 0.390133
Si Si8 0.073871 0.206733 0.232854
O O1 0.563725 0.563725 0.750000
O O2 0.642202 0.501713 0.653362
O O3 0.277401 0.337081 0.500000
O O4 0.207109 0.301898 0.357556
O O5 0.266593 0.411452 0.349678
O O6 0.337584 0.302517 0.346879
O O7 0.769240 0.185428 0.893346
O O8 0.883329 0.212389 0.826483
O O9 0.854474 0.243202 0.000000
O O10 0.703621 0.521878 0.500000
O O11 0.754084 0.458269 0.355694
O O12 0.176756 0.354334 0.858406
O O13 0.252082 0.379858 0.000000
O O14 0.111667 0.696155 0.500000
O O15 0.081523 0.727173 0.326257
O O16 0.062739 0.894168 0.500000
O O17 0.091137 0.856683 0.329539
O O18 0.978023 0.913224 0.365076
O O19 0.000000 0.201884 0.250000
#
# Coordination Sequence:
#
# PCOD8313165 Si02
#       8
#     8  16  16  16  16  16  16  16
#     4  11  24  34  40  64 108 154 195 224 262 326
#     4   8  15  31  54  79 107 142 183 225 278 336
#     4   9  20  37  54  74 108 146 177 224 280 323
#     4  10  19  33  56  81 104 137 185 237 281 324
#     4   8  15  30  53  80 108 138 175 224 278 331
#     4   9  19  36  54  75 106 139 172 219 280 328
#     4   9  21  41  60  79 110 148 179 216 261 301
#     4  12  25  34  55  83 105 134 187 224 257 320
#
# _framework density 19.432773000000001
#
# number of rings (size 3 to 8) (size 9 to 14) (size 15 to 20)
#    0.000    2.600    0.000    3.600    3.733    3.733 
#    0.000    2.667    0.000    0.000    0.000    2.800 
#    0.000    5.333    0.000    0.000    0.000    0.000 
#
# Total GULP energy -1486815.469298 kJ/mol
# GULP energy per Si atom -12390.128911 kJ/mol
# Density = 1.938854 g / cm^3
# Si number density = 19.432773 Si / 1000 Ang^3
#
#
#
# Elastic Constant Matrix: (Units=GPa)
#
#
# Indices 1 2 3 4 5 6 
#
# 1 74.9634 40.0797 25.7350 0.0000 0.0000 0.0000
# 2 40.0797 74.9634 25.7350 0.0000 0.0000 0.0000
# 3 25.7350 25.7350 46.3117 0.0000 0.0000 0.0000
# 4 0.0000 0.0000 0.0000 20.6130 0.0000 0.0000
# 5 0.0000 0.0000 0.0000 0.0000 20.6130 0.0000
# 6 0.0000 0.0000 0.0000 0.0000 0.0000 33.3412
#
#
#
# Elastic Compliance Matrix: (Units=1/GPa)
#
#
# Indices 1 2 3 4 5 6 
#
# 1 0.020118 -0.008549 -0.006429 0.000000 0.000000 0.000000
# 2 -0.008549 0.020118 -0.006429 0.000000 0.000000 0.000000
# 3 -0.006429 -0.006429 0.028737 0.000000 0.000000 0.000000
# 4 0.000000 0.000000 0.000000 0.048513 0.000000 0.000000
# 5 0.000000 0.000000 0.000000 0.000000 0.048513 0.000000
# 6 0.000000 0.000000 0.000000 0.000000 0.000000 0.029993
#
#
# Mechanical properties :
#
#
# Convention : Reuss Voigt Hill
#
# Bulk Modulus (GPa) = 38.22589 42.14868 40.18729
# Shear Modulus (GPa) = 20.20005 21.89267 21.04636
#
# Velocity S-wave (km/s) = 3.22760 3.36011 3.29452
# Velocity P-wave (km/s) = 5.79684 6.06550 5.93269
#
# Compressibility (1/GPa) = 0.02616028
#
# Stress axis : x y z
#
# Youngs Moduli (GPa) = 49.70774 49.70774 34.79789
#
# Poissons Ratio (x) = 0.42496 0.22370
# Poissons Ratio (y) = 0.42496 0.22370
# Poissons Ratio (z) = 0.31955 0.31955
#
# Static dielectric constant tensor:
#      x y z
#    x 3.925550 0.000000 0.000000 
#    y 0.000000 3.925550 0.000000 
#    z 0.000000 0.000000 3.905580 
# 
# 
# High freq. dielectric constant tensor:
#      x y z
#    x 1.735240 0.000000 0.000000 
#    y 0.000000 1.735240 0.000000 
#    z 0.000000 0.000000 1.768660 
# 
# From -- ./inp_files/3471.got.cif
#   From: 2010.03.12/outbox.cif.g09.slc.cpg/sg124_2_cif.got.tgz:3471.got - 2010.04.06 16:38:57.
