data_PCOD8313365
_publ_section_title
;
Structure prediction by ZEFSAII (Michael W. Deem and Ramdas Pophale) SiO2 
 PCOD8313365
Probable space group: P 4/M C C
;
_chemical_formula_sum "Si O2"
_cell_formula_units_Z 96
_cell_length_a 23.562249
_cell_length_b 23.562249
_cell_length_c 8.844870
_cell_angle_alpha 90.000000
_cell_angle_beta 90.000000
_cell_angle_gamma 90.000000
_cell_volume 4910.491194
_symmetry_space_group_name_H-M "P 4/M C C"
_symmetry_group_IT_number 124
_symmetry_cell_setting 'tetragonal'
loop_
_space_group_symop_operation_xyz
x,y,z
-y,x,z
-x,-y,z
y,-x,z
x,-y,1/2-z
-x,y,1/2-z
y,x,1/2-z
-y,-x,1/2-z
-x,-y,-z
y,-x,-z
x,y,-z
-y,x,-z
-x,y,1/2+z
x,-y,1/2+z
-y,-x,1/2+z
y,x,1/2+z
loop_
_atom_site_type_symbol
_atom_site_label
_atom_site_fract_x
_atom_site_fract_y
_atom_site_fract_z
Si Si1 0.750270 0.329250 0.825879
Si Si2 0.556935 0.208629 0.180207
Si Si3 0.555687 0.085054 0.320319
Si Si4 0.258783 0.860990 0.332488
Si Si5 0.129110 0.129110 0.250000
Si Si6 0.080000 0.053582 0.500000
Si Si7 0.331060 0.052618 0.324517
O O1 0.693123 0.306878 0.750000
O O2 0.761600 0.386182 0.733977
O O3 0.796404 0.278564 0.810373
O O4 0.740874 0.345310 0.000000
O O5 0.500000 0.237807 0.250000
O O6 0.560866 0.145571 0.242290
O O7 0.553248 0.208766 0.000000
O O8 0.500000 0.054380 0.250000
O O9 0.550718 0.090576 0.500000
O O10 0.611417 0.051608 0.273170
O O11 0.277837 0.881507 0.500000
O O12 0.191765 0.873302 0.321390
O O13 0.292268 0.892860 0.200400
O O14 0.117836 0.077342 0.363760
O O15 0.015168 0.077980 0.500000
O O16 0.344646 0.045904 0.500000
O O17 0.296644 0.000000 0.250000
#
# Coordination Sequence:
#
# PCOD8313365 Si02
#       7
#    16  16  16  16   8   8  16
#     4  11  22  37  61  89 127 168 211 262 312 370
#     4  11  21  36  59  88 121 164 214 261 314 369
#     4  11  21  37  59  84 115 155 207 256 306 360
#     4  11  24  42  62  90 124 158 200 244 301 378
#     4  12  24  45  72  94 126 158 196 246 313 382
#     4  11  26  48  72  98 122 154 200 258 320 394
#     4  12  26  42  61  84 117 155 198 251 308 364
#
# _framework density 19.549979
#
# number of rings (size 3 to 8) (size 9 to 14) (size 15 to 20)
#    0.000    0.750    3.333    6.500    1.167    3.000 
#    0.000    1.667    0.000    0.000    0.000    0.000 
#    0.000    0.333    0.000    3.333    0.000    2.000 
#
# Total GULP energy -1189666.607888 kJ/mol
# GULP energy per Si atom -12392.360499 kJ/mol
# Density = 1.950548 g / cm^3
# Si number density = 19.549979 Si / 1000 Ang^3
#
#
#
# Elastic Constant Matrix: (Units=GPa)
#
#
# Indices 1 2 3 4 5 6 
#
# 1 132.9903 -15.8922 42.6841 0.0000 0.0000 0.0000
# 2 -15.8922 132.9734 42.7039 0.0000 0.0000 0.0000
# 3 42.6841 42.7039 179.1870 0.0000 0.0000 0.0000
# 4 0.0000 0.0000 0.0000 33.8543 0.0000 0.0000
# 5 0.0000 0.0000 0.0000 0.0000 33.8551 0.0000
# 6 0.0000 0.0000 0.0000 0.0000 0.0000 4.3067
#
#
#
# Elastic Compliance Matrix: (Units=1/GPa)
#
#
# Indices 1 2 3 4 5 6 
#
# 1 0.008526 0.001810 -0.002462 0.000000 0.000000 0.000000
# 2 0.001810 0.008528 -0.002463 0.000000 0.000000 0.000000
# 3 -0.002462 -0.002463 0.006754 0.000000 0.000000 0.000000
# 4 0.000000 0.000000 0.000000 0.029538 0.000000 0.000000
# 5 0.000000 0.000000 0.000000 0.000000 0.029538 0.000000
# 6 0.000000 0.000000 0.000000 0.000000 0.000000 0.232198
#
#
# Mechanical properties :
#
#
# Convention : Reuss Voigt Hill
#
# Bulk Modulus (GPa) = 56.89560 64.90470 60.90015
# Shear Modulus (GPa) = 15.28244 39.44689 27.36467
#
# Velocity S-wave (km/s) = 2.79894 4.49681 3.74535
# Velocity P-wave (km/s) = 6.29375 7.76100 7.06556
#
# Compressibility (1/GPa) = 0.01757605
#
# Stress axis : x y z
#
# Youngs Moduli (GPa) = 117.29003 117.26495 148.05234
#
# Poissons Ratio (x) = -0.21221 0.36454
# Poissons Ratio (y) = -0.21226 0.36471
# Poissons Ratio (z) = 0.28880 0.28887
#
# Static dielectric constant tensor:
#      x y z
#    x 3.921870 0.000000 0.000000 
#    y 0.000000 3.920060 0.000000 
#    z 0.000000 0.000000 3.131470 
# 
# 
# High freq. dielectric constant tensor:
#      x y z
#    x 1.749870 0.000000 0.000000 
#    y 0.000000 1.749870 0.000000 
#    z 0.000000 0.000000 1.783800 
# 
# From -- ./inp_files/1429.got.cif
#   From: 2010.03.12/outbox.cif.g09.slc.cpg/sg124_1_cif.got.tgz:1429.got - 2010.04.06 16:38:57.
