data_PCOD8313978
_publ_section_title
;
Structure prediction by ZEFSAII (Michael W. Deem and Ramdas Pophale) SiO2 
 PCOD8313978
Probable space group: P 4/M B M
;
_chemical_formula_sum "Si O2"
_cell_formula_units_Z 112
_cell_length_a 14.432771
_cell_length_b 14.432771
_cell_length_c 27.987912
_cell_angle_alpha 90.000000
_cell_angle_beta 90.000000
_cell_angle_gamma 90.000000
_cell_volume 5830.018615
_symmetry_space_group_name_H-M "P 4/M B M"
_symmetry_group_IT_number 127
_symmetry_cell_setting 'tetragonal'
loop_
_space_group_symop_operation_xyz
x,y,z
-y,x,z
-x,-y,z
y,-x,z
1/2+x,1/2-y,-z
1/2-x,1/2+y,-z
1/2+y,1/2+x,-z
1/2-y,1/2-x,-z
-x,-y,-z
y,-x,-z
x,y,-z
-y,x,-z
1/2-x,1/2+y,z
1/2+x,1/2-y,z
1/2-y,1/2-x,z
1/2+y,1/2+x,z
loop_
_atom_site_type_symbol
_atom_site_label
_atom_site_fract_x
_atom_site_fract_y
_atom_site_fract_z
Si Si1 0.765605 0.415588 0.638561
Si Si2 0.402501 0.384501 0.707753
Si Si3 0.749755 0.600015 0.056462
Si Si4 0.005764 0.352683 0.726238
Si Si5 0.849555 0.978982 0.553909
Si Si6 0.762806 0.890940 0.208020
Si Si7 0.394210 0.260413 0.901843
O O1 0.840847 0.340847 0.622854
O O2 0.682760 0.361314 0.666798
O O3 0.807386 0.492142 0.674437
O O4 0.734093 0.467393 0.590688
O O5 0.512233 0.371183 0.699833
O O6 0.370755 0.355208 0.761137
O O7 0.840279 0.659722 0.072601
O O8 0.656715 0.652650 0.073506
O O9 0.756508 0.496057 0.076688
O O10 0.745134 0.592709 0.000000
O O11 0.938037 0.438037 0.732049
O O12 0.983780 0.282393 0.769489
O O13 0.111656 0.388345 0.731007
O O14 0.810568 0.973610 0.500000
O O15 0.922792 0.897401 0.562913
O O16 0.696465 0.803536 0.214245
O O17 0.787623 0.907987 0.153243
O O18 0.333493 0.166508 0.908264
#
# Coordination Sequence:
#
# PCOD8313978 Si02
#       7
#    16  16  16  16  16  16  16
#     4  10  19  32  51  75 105 137 173 217 265 313
#     4  10  20  33  51  73 102 139 177 216 259 317
#     4  10  22  40  62  88 117 152 194 241 295 352
#     4   8  15  30  50  71 100 138 175 208 248 310
#     4   9  18  34  55  75  98 131 172 220 271 321
#     4   9  19  35  53  77 107 138 174 221 274 322
#     4  10  22  39  60  86 120 155 193 246 299 352
#
# _framework density 19.210916999999998
#
# number of rings (size 3 to 8) (size 9 to 14) (size 15 to 20)
#    0.000    2.571    0.000    3.000    2.000    3.429 
#    0.000   12.143    0.000    1.286    0.000    2.000 
#    0.000    0.000    0.000    0.000    0.000    0.000 
#
# Total GULP energy -1388157.677775 kJ/mol
# GULP energy per Si atom -12394.264980 kJ/mol
# Density = 1.916719 g / cm^3
# Si number density = 19.210917 Si / 1000 Ang^3
#
#
#
# Elastic Constant Matrix: (Units=GPa)
#
#
# Indices 1 2 3 4 5 6 
#
# 1 60.6828 16.1830 8.4540 0.0000 0.0000 0.0000
# 2 16.1830 60.6828 8.4540 0.0000 0.0000 0.0000
# 3 8.4540 8.4540 75.5842 0.0000 0.0000 0.0000
# 4 0.0000 0.0000 0.0000 20.5127 0.0000 0.0000
# 5 0.0000 0.0000 0.0000 0.0000 20.5127 0.0000
# 6 0.0000 0.0000 0.0000 0.0000 0.0000 -20.3764
#
#
#
# Elastic Compliance Matrix: (Units=1/GPa)
#
#
# Indices 1 2 3 4 5 6 
#
# 1 0.017905 -0.004567 -0.001492 0.000000 0.000000 0.000000
# 2 -0.004567 0.017905 -0.001492 0.000000 0.000000 0.000000
# 3 -0.001492 -0.001492 0.013564 0.000000 0.000000 0.000000
# 4 0.000000 0.000000 0.000000 0.048750 0.000000 0.000000
# 5 0.000000 0.000000 0.000000 0.000000 0.048750 0.000000
# 6 0.000000 0.000000 0.000000 0.000000 0.000000 -0.049076
#
#
# Mechanical properties :
#
#
# Convention : Reuss Voigt Hill
#
# Bulk Modulus (GPa) = 29.17802 29.23688 29.20745
# Shear Modulus (GPa) = 40.21765 15.05373 27.63569
#
# Velocity S-wave (km/s) = 4.58042 2.80233 3.79692
# Velocity P-wave (km/s) = 6.57228 5.07175 5.87016
#
# Compressibility (1/GPa) = 0.03427238
#
# Stress axis : x y z
#
# Youngs Moduli (GPa) = 55.85055 55.85055 73.72461
#
# Poissons Ratio (x) = 0.25507 0.10998
# Poissons Ratio (y) = 0.25507 0.10998
# Poissons Ratio (z) = 0.08332 0.08332
#
# Static dielectric constant tensor:
#      x y z
#    x 3.570500 0.000000 0.000000 
#    y 0.000000 3.570500 0.000000 
#    z 0.000000 0.000000 3.613920 
# 
# 
# High freq. dielectric constant tensor:
#      x y z
#    x 1.739800 0.000000 0.000000 
#    y 0.000000 1.739800 0.000000 
#    z 0.000000 0.000000 1.751090 
# 
# From -- ./inp_files/6187.got.cif
#   From: 2010.03.12/outbox.cif.g09.slc.cpg/sg127_4_cif.got.tgz:6187.got - 2010.04.06 17:03:15.
