data_PCOD8313095
_publ_section_title
;
Structure prediction by ZEFSAII (Michael W. Deem and Ramdas Pophale) SiO2 
 PCOD8313095
Probable space group: P 4/M C C
;
_chemical_formula_sum "Si O2"
_cell_formula_units_Z 64
_cell_length_a 20.171907
_cell_length_b 20.171907
_cell_length_c 8.717445
_cell_angle_alpha 90.000000
_cell_angle_beta 90.000000
_cell_angle_gamma 90.000000
_cell_volume 3547.179211
_symmetry_space_group_name_H-M "P 4/M C C"
_symmetry_group_IT_number 124
_symmetry_cell_setting 'tetragonal'
loop_
_space_group_symop_operation_xyz
x,y,z
-y,x,z
-x,-y,z
y,-x,z
x,-y,1/2-z
-x,y,1/2-z
y,x,1/2-z
-y,-x,1/2-z
-x,-y,-z
y,-x,-z
x,y,-z
-y,x,-z
-x,y,1/2+z
x,-y,1/2+z
-y,-x,1/2+z
y,x,1/2+z
loop_
_atom_site_type_symbol
_atom_site_label
_atom_site_fract_x
_atom_site_fract_y
_atom_site_fract_z
Si Si1 0.429768 0.851419 0.318746
Si Si2 0.251410 0.653028 0.672341
Si Si3 0.697827 0.887960 0.673026
Si Si4 0.931318 0.830013 0.319189
O O1 0.500000 0.872254 0.250000
O O2 0.431599 0.856612 0.500000
O O3 0.410760 0.775842 0.267028
O O4 0.374340 0.901980 0.249876
O O5 0.316525 0.683476 0.750000
O O6 0.269454 0.630492 0.500000
O O7 0.192131 0.707915 0.669402
O O8 0.700449 0.916880 0.500000
O O9 0.753295 0.922673 0.775245
O O10 0.871185 0.871185 0.250000
O O11 0.932114 0.838499 0.500000
O O12 0.000000 0.857218 0.250000
#
# Coordination Sequence:
#
# PCOD8313095 Si02
#       4
#    16  16  16  16
#     4  10  18  30  48  74 108 146 184 228 278 329
#     4   9  17  27  44  70 101 136 176 219 268 319
#     4   9  19  34  54  79 108 141 180 223 272 326
#     4  12  25  42  63  87 114 146 184 229 279 335
#
# _framework density 18.042507000000001
#
# number of rings (size 3 to 8) (size 9 to 14) (size 15 to 20)
#    1.500    0.500    0.000    6.000    0.000    2.250 
#    0.000    1.250    0.000    0.750    0.000    5.250 
#    0.000    0.500    0.000    5.000    0.000    3.000 
#
# Total GULP energy -793073.861252 kJ/mol
# GULP energy per Si atom -12391.779082 kJ/mol
# Density = 1.800144 g / cm^3
# Si number density = 18.042507 Si / 1000 Ang^3
#
#
#
# Elastic Constant Matrix: (Units=GPa)
#
#
# Indices 1 2 3 4 5 6 
#
# 1 70.2190 23.3128 36.2272 0.0000 0.0000 0.0000
# 2 23.3128 70.2191 36.2285 0.0000 0.0000 0.0000
# 3 36.2272 36.2285 178.9524 0.0000 0.0000 0.0000
# 4 0.0000 0.0000 0.0000 28.7530 0.0000 0.0000
# 5 0.0000 0.0000 0.0000 0.0000 28.7529 0.0000
# 6 0.0000 0.0000 0.0000 0.0000 0.0000 4.5672
#
#
#
# Elastic Compliance Matrix: (Units=1/GPa)
#
#
# Indices 1 2 3 4 5 6 
#
# 1 0.017000 -0.004319 -0.002567 0.000000 0.000000 0.000000
# 2 -0.004319 0.017000 -0.002567 0.000000 0.000000 0.000000
# 3 -0.002567 -0.002567 0.006627 0.000000 0.000000 0.000000
# 4 0.000000 0.000000 0.000000 0.034779 0.000000 0.000000
# 5 0.000000 0.000000 0.000000 0.000000 0.034779 0.000000
# 6 0.000000 0.000000 0.000000 0.000000 0.000000 0.218954
#
#
# Mechanical properties :
#
#
# Convention : Reuss Voigt Hill
#
# Bulk Modulus (GPa) = 46.04132 56.76971 51.40551
# Shear Modulus (GPa) = 14.07316 27.32273 20.69794
#
# Velocity S-wave (km/s) = 2.79588 3.89569 3.39067
# Velocity P-wave (km/s) = 5.99969 7.19499 6.62436
#
# Compressibility (1/GPa) = 0.02171962
#
# Stress axis : x y z
#
# Youngs Moduli (GPa) = 58.82504 58.82461 150.88799
#
# Poissons Ratio (x) = 0.25409 0.38732
# Poissons Ratio (y) = 0.25409 0.38735
# Poissons Ratio (z) = 0.15100 0.15101
#
# Static dielectric constant tensor:
#      x y z
#    x 3.102270 0.000000 0.000000 
#    y 0.000000 3.102270 0.000000 
#    z 0.000000 0.000000 3.394960 
# 
# 
# High freq. dielectric constant tensor:
#      x y z
#    x 1.668150 0.000000 0.000000 
#    y 0.000000 1.668150 0.000000 
#    z 0.000000 0.000000 1.721900 
# 
# From -- ./inp_files/880.got.cif
#   From: 2010.03.12/outbox.cif.g09.slc.cpg/sg124_1_cif.got.tgz:880.got - 2010.04.06 16:38:57.
