data_PCOD8313908
_publ_section_title
;
Structure prediction by ZEFSAII (Michael W. Deem and Ramdas Pophale) SiO2 
 PCOD8313908
Probable space group: P 4/M B M
;
_chemical_formula_sum "Si O2"
_cell_formula_units_Z 96
_cell_length_a 21.035881
_cell_length_b 21.035881
_cell_length_c 14.104599
_cell_angle_alpha 90.000000
_cell_angle_beta 90.000000
_cell_angle_gamma 90.000000
_cell_volume 6241.401977
_symmetry_space_group_name_H-M "P 4/M B M"
_symmetry_group_IT_number 127
_symmetry_cell_setting 'tetragonal'
loop_
_space_group_symop_operation_xyz
x,y,z
-y,x,z
-x,-y,z
y,-x,z
1/2+x,1/2-y,-z
1/2-x,1/2+y,-z
1/2+y,1/2+x,-z
1/2-y,1/2-x,-z
-x,-y,-z
y,-x,-z
x,y,-z
-y,x,-z
1/2-x,1/2+y,z
1/2+x,1/2-y,z
1/2-y,1/2-x,z
1/2+y,1/2+x,z
loop_
_atom_site_type_symbol
_atom_site_label
_atom_site_fract_x
_atom_site_fract_y
_atom_site_fract_z
Si Si1 0.153039 0.552757 0.895629
Si Si2 0.306633 0.912508 0.895517
Si Si3 0.417724 0.184518 0.302097
Si Si4 0.949880 0.652015 0.609548
Si Si5 0.170092 0.777760 0.392478
Si Si6 0.860906 0.742080 0.714936
O O1 0.080846 0.580846 0.887719
O O2 0.153961 0.477258 0.880817
O O3 0.195040 0.584631 0.812092
O O4 0.181383 0.570192 0.000000
O O5 0.358117 0.858117 0.884958
O O6 0.253259 0.901846 0.813346
O O7 0.274059 0.910910 0.000000
O O8 0.369921 0.130080 0.336047
O O9 0.487077 0.160079 0.329621
O O10 0.396398 0.249959 0.352185
O O11 0.968148 0.655305 0.500000
O O12 0.914894 0.585106 0.634136
O O13 0.902564 0.709553 0.633083
O O14 0.158955 0.801031 0.500000
O O15 0.224936 0.724936 0.389324
O O16 0.189936 0.837839 0.326303
O O17 0.798556 0.701445 0.737491
#
# Coordination Sequence:
#
# PCOD8313908 Si02
#       6
#    16  16  16  16  16  16
#     4   9  17  28  41  58  83 116 148 176 212 257
#     4   9  16  26  41  61  84 111 146 185 221 257
#     4  10  19  30  43  61  86 116 149 182 216 259
#     4  10  19  29  42  61  85 113 145 182 222 261
#     4   9  17  29  44  59  79 111 147 181 218 264
#     4   9  16  28  43  60  80 106 141 181 223 262
#
# _framework density 15.381159999999999
#
# number of rings (size 3 to 8) (size 9 to 14) (size 15 to 20)
#    0.000    2.667    1.667    1.000    0.000    3.667 
#    0.000    5.000    0.000    5.000    0.000    0.000 
#    0.000    0.667    0.000    3.333    0.000    5.500 
#
# Total GULP energy -1189270.774977 kJ/mol
# GULP energy per Si atom -12388.237239 kJ/mol
# Density = 1.534615 g / cm^3
# Si number density = 15.381160 Si / 1000 Ang^3
#
#
#
# Elastic Constant Matrix: (Units=GPa)
#
#
# Indices 1 2 3 4 5 6 
#
# 1 44.3762 41.8347 43.3549 0.0000 0.0000 0.0000
# 2 41.8347 44.3762 43.3549 0.0000 0.0000 0.0000
# 3 43.3549 43.3549 133.1623 0.0000 0.0000 0.0000
# 4 0.0000 0.0000 0.0000 20.8923 0.0000 0.0000
# 5 0.0000 0.0000 0.0000 0.0000 20.8923 0.0000
# 6 0.0000 0.0000 0.0000 0.0000 0.0000 21.2501
#
#
#
# Elastic Compliance Matrix: (Units=1/GPa)
#
#
# Indices 1 2 3 4 5 6 
#
# 1 0.205359 -0.188112 -0.005615 0.000000 0.000000 0.000000
# 2 -0.188112 0.205359 -0.005615 0.000000 0.000000 0.000000
# 3 -0.005615 -0.005615 0.011166 0.000000 0.000000 0.000000
# 4 0.000000 0.000000 0.000000 0.047864 0.000000 0.000000
# 5 0.000000 0.000000 0.000000 0.000000 0.047864 0.000000
# 6 0.000000 0.000000 0.000000 0.000000 0.000000 0.047059
#
#
# Mechanical properties :
#
#
# Convention : Reuss Voigt Hill
#
# Bulk Modulus (GPa) = 43.10478 53.22263 48.16370
# Shear Modulus (GPa) = 5.14886 18.83164 11.99025
#
# Velocity S-wave (km/s) = 1.83160 3.50284 2.79506
# Velocity P-wave (km/s) = 5.70599 7.14405 6.46513
#
# Compressibility (1/GPa) = 0.02319929
#
# Stress axis : x y z
#
# Youngs Moduli (GPa) = 4.86952 4.86952 89.55658
#
# Poissons Ratio (x) = 0.91601 0.50289
# Poissons Ratio (y) = 0.91601 0.50289
# Poissons Ratio (z) = 0.02734 0.02734
#
# Static dielectric constant tensor:
#      x y z
#    x 2.745860 0.000000 0.000000 
#    y 0.000000 2.745860 0.000000 
#    z 0.000000 0.000000 3.450850 
# 
# 
# High freq. dielectric constant tensor:
#      x y z
#    x 1.546700 0.000000 0.000000 
#    y 0.000000 1.546700 0.000000 
#    z 0.000000 0.000000 1.618070 
# 
# From -- ./inp_files/4556.got.cif
#   From: 2010.03.12/outbox.cif.g09.slc.cpg/sg127_3_cif.got.tgz:4556.got - 2010.04.06 17:03:15.
