data_PCOD8313497
_publ_section_title
;
Structure prediction by ZEFSAII (Michael W. Deem and Ramdas Pophale) SiO2 
 PCOD8313497
Probable space group: P 4/N B M
;
_chemical_formula_sum "Si O2"
_cell_formula_units_Z 96
_cell_length_a 22.583544
_cell_length_b 22.583544
_cell_length_c 9.728355
_cell_angle_alpha 90.000000
_cell_angle_beta 90.000000
_cell_angle_gamma 90.000000
_cell_volume 4961.621175
_symmetry_space_group_name_H-M "P 4/N B M"
_symmetry_group_IT_number 125
_space_group.IT_coordinate_system_code '2'
_symmetry_cell_setting 'tetragonal'
loop_
_space_group_symop_operation_xyz
x,y,z
1/2-y,x,z
1/2-x,1/2-y,z
y,1/2-x,z
x,1/2-y,-z
1/2-x,y,-z
y,x,-z
1/2-y,1/2-x,-z
-x,-y,-z
1/2+y,-x,-z
1/2+x,1/2+y,-z
-y,1/2+x,-z
-x,1/2+y,z
1/2+x,-y,z
-y,-x,z
1/2+y,1/2+x,z
loop_
_atom_site_type_symbol
_atom_site_label
_atom_site_fract_x
_atom_site_fract_y
_atom_site_fract_z
Si Si1 0.031524 0.874068 0.269979
Si Si2 0.397288 0.098288 0.834748
Si Si3 0.416533 0.819015 0.474028
Si Si4 0.681391 0.819168 0.345089
Si Si5 0.182383 0.588913 0.975675
Si Si6 0.528921 0.374298 0.216526
O O1 0.060207 0.939794 0.262710
O O2 0.035270 0.847057 0.422102
O O3 0.070543 0.828688 0.180503
O O4 0.965372 0.875872 0.215731
O O5 0.352515 0.146123 0.773962
O O6 0.460380 0.111151 0.765736
O O7 0.398555 0.101446 0.000000
O O8 0.404025 0.750000 0.500000
O O9 0.354188 0.854188 0.485256
O O10 0.446942 0.827090 0.326445
O O11 0.667553 0.750344 0.324631
O O12 0.661840 0.838161 0.500000
O O13 0.149635 0.649635 0.015296
O O14 0.250000 0.601266 0.000000
O O15 0.156330 0.536292 0.068851
O O16 0.564117 0.435884 0.228307
#
# Coordination Sequence:
#
# PCOD8313497 Si02
#       6
#    16  16  16  16  16  16
#     4  10  22  39  59  85 121 158 196 247 300 350
#     4  12  24  39  62  94 118 158 203 240 297 367
#     4  10  22  40  61  89 124 162 204 252 303 354
#     4   9  22  45  65  84 117 155 192 241 296 351
#     4  10  20  36  57  83 118 158 200 248 301 354
#     4  10  22  39  59  85 121 158 196 247 300 350
#
# _framework density 19.348514999999999
#
# number of rings (size 3 to 8) (size 9 to 14) (size 15 to 20)
#    0.000    1.833    1.667    2.000    2.333    4.333 
#    0.000    3.333    0.000    6.000    0.000    0.000 
#    0.000    0.000    0.000    0.000    0.000    0.000 
#
# Total GULP energy -1190513.290616 kJ/mol
# GULP energy per Si atom -12401.180111 kJ/mol
# Density = 1.930448 g / cm^3
# Si number density = 19.348515 Si / 1000 Ang^3
#
#
#
# Elastic Constant Matrix: (Units=GPa)
#
#
# Indices 1 2 3 4 5 6 
#
# 1 121.0648 38.8093 31.7885 0.0000 0.0000 0.0000
# 2 38.8093 121.0841 31.8047 0.0000 0.0000 0.0000
# 3 31.7885 31.8047 68.7356 0.0000 0.0000 0.0000
# 4 0.0000 0.0000 0.0000 25.6192 0.0000 0.0000
# 5 0.0000 0.0000 0.0000 0.0000 25.6193 0.0000
# 6 0.0000 0.0000 0.0000 0.0000 0.0000 14.5882
#
#
#
# Elastic Compliance Matrix: (Units=1/GPa)
#
#
# Indices 1 2 3 4 5 6 
#
# 1 0.009911 -0.002245 -0.003544 0.000000 0.000000 0.000000
# 2 -0.002245 0.009910 -0.003547 0.000000 0.000000 0.000000
# 3 -0.003544 -0.003547 0.017829 0.000000 0.000000 0.000000
# 4 0.000000 0.000000 0.000000 0.039033 0.000000 0.000000
# 5 0.000000 0.000000 0.000000 0.000000 0.039033 0.000000
# 6 0.000000 0.000000 0.000000 0.000000 0.000000 0.068549
#
#
# Mechanical properties :
#
#
# Convention : Reuss Voigt Hill
#
# Bulk Modulus (GPa) = 52.69867 57.29881 54.99874
# Shear Modulus (GPa) = 23.89332 27.06414 25.47873
#
# Velocity S-wave (km/s) = 3.51792 3.74407 3.63275
# Velocity P-wave (km/s) = 6.61790 6.95479 6.78844
#
# Compressibility (1/GPa) = 0.01897581
#
# Stress axis : x y z
#
# Youngs Moduli (GPa) = 100.90284 100.90695 56.08864
#
# Poissons Ratio (x) = 0.22659 0.19880
# Poissons Ratio (y) = 0.22658 0.19895
# Poissons Ratio (z) = 0.35763 0.35792
#
# Static dielectric constant tensor:
#      x y z
#    x 3.394940 0.000000 0.000000 
#    y 0.000000 3.394940 0.000000 
#    z 0.000000 0.000000 3.750200 
# 
# 
# High freq. dielectric constant tensor:
#      x y z
#    x 1.749370 0.000000 0.000000 
#    y 0.000000 1.749370 0.000000 
#    z 0.000000 0.000000 1.767890 
# 
# From -- ./inp_files/2909.got.cif
#   From: 2010.03.12/outbox.cif.g09.slc.cpg/sg125_2_cif.got.tgz:2909.got - 2010.04.06 16:47:52.
