data_PCOD8313315
_publ_section_title
;
Structure prediction by ZEFSAII (Michael W. Deem and Ramdas Pophale) SiO2 
 PCOD8313315
Probable space group: P 4/M C C
;
_chemical_formula_sum "Si O2"
_cell_formula_units_Z 48
_cell_length_a 16.423711
_cell_length_b 16.423711
_cell_length_c 9.427979
_cell_angle_alpha 90.000000
_cell_angle_beta 90.000000
_cell_angle_gamma 90.000000
_cell_volume 2543.086868
_symmetry_space_group_name_H-M "P 4/M C C"
_symmetry_group_IT_number 124
_symmetry_cell_setting 'tetragonal'
loop_
_space_group_symop_operation_xyz
x,y,z
-y,x,z
-x,-y,z
y,-x,z
x,-y,1/2-z
-x,y,1/2-z
y,x,1/2-z
-y,-x,1/2-z
-x,-y,-z
y,-x,-z
x,y,-z
-y,x,-z
-x,y,1/2+z
x,-y,1/2+z
-y,-x,1/2+z
y,x,1/2+z
loop_
_atom_site_type_symbol
_atom_site_label
_atom_site_fract_x
_atom_site_fract_y
_atom_site_fract_z
Si Si1 0.800023 0.083079 0.831552
Si Si2 0.500000 0.256445 0.250000
Si Si3 0.670584 0.218488 0.161122
Si Si4 0.470997 0.631086 0.500000
O O1 0.875246 0.124755 0.750000
O O2 0.718431 0.135261 0.808684
O O3 0.782715 0.000000 0.750000
O O4 0.819468 0.071250 0.000000
O O5 0.574736 0.201852 0.192210
O O6 0.542049 0.313703 0.364607
O O7 0.707142 0.292859 0.250000
O O8 0.681196 0.246079 0.000000
O O9 0.403765 0.561863 0.500000
#
# Coordination Sequence:
#
# PCOD8313315 Si02
#       4
#    16   8  16   8
#     4  10  21  40  64  93 122 152 188 232 286 345
#     4  12  22  35  53  78 112 152 198 242 296 347
#     4  10  22  38  58  82 113 154 199 242 289 345
#     4  11  22  34  50  74 107 146 192 250 305 352
#
# _framework density 18.874697999999999
#
# number of rings (size 3 to 8) (size 9 to 14) (size 15 to 20)
#    0.000    1.500    1.667    4.000    2.333    3.000 
#    0.000    2.500    0.000    4.000    0.000    0.000 
#    0.000    0.000    0.000    0.000    0.000    0.000 
#
# Total GULP energy -595147.591239 kJ/mol
# GULP energy per Si atom -12398.908151 kJ/mol
# Density = 1.883174 g / cm^3
# Si number density = 18.874698 Si / 1000 Ang^3
#
#
#
# Elastic Constant Matrix: (Units=GPa)
#
#
# Indices 1 2 3 4 5 6 
#
# 1 104.5596 46.5316 46.4923 0.0000 0.0000 0.0000
# 2 46.5316 104.5595 46.4909 0.0000 0.0000 0.0000
# 3 46.4923 46.4909 129.6921 0.0000 0.0000 0.0000
# 4 0.0000 0.0000 0.0000 33.3781 0.0000 0.0000
# 5 0.0000 0.0000 0.0000 0.0000 33.3783 0.0000
# 6 0.0000 0.0000 0.0000 0.0000 0.0000 11.3326
#
#
#
# Elastic Compliance Matrix: (Units=1/GPa)
#
#
# Indices 1 2 3 4 5 6 
#
# 1 0.012863 -0.004371 -0.003044 0.000000 0.000000 0.000000
# 2 -0.004371 0.012862 -0.003044 0.000000 0.000000 0.000000
# 3 -0.003044 -0.003044 0.009893 0.000000 0.000000 0.000000
# 4 0.000000 0.000000 0.000000 0.029960 0.000000 0.000000
# 5 0.000000 0.000000 0.000000 0.000000 0.029960 0.000000
# 6 0.000000 0.000000 0.000000 0.000000 0.000000 0.088241
#
#
# Mechanical properties :
#
#
# Convention : Reuss Voigt Hill
#
# Bulk Modulus (GPa) = 68.02577 68.64900 68.33739
# Shear Modulus (GPa) = 23.85539 28.90423 26.37981
#
# Velocity S-wave (km/s) = 3.55897 3.91752 3.74254
# Velocity P-wave (km/s) = 7.28061 7.54404 7.41350
#
# Compressibility (1/GPa) = 0.01470031
#
# Stress axis : x y z
#
# Youngs Moduli (GPa) = 77.74496 77.74580 101.08064
#
# Poissons Ratio (x) = 0.33979 0.30772
# Poissons Ratio (y) = 0.33979 0.30769
# Poissons Ratio (z) = 0.23668 0.23666
#
# Static dielectric constant tensor:
#      x y z
#    x 3.373460 0.000000 0.000000 
#    y 0.000000 3.373470 0.000000 
#    z 0.000000 0.000000 3.726910 
# 
# 
# High freq. dielectric constant tensor:
#      x y z
#    x 1.722980 0.000000 0.000000 
#    y 0.000000 1.722980 0.000000 
#    z 0.000000 0.000000 1.756760 
# 
# From -- ./inp_files/489.got.cif
#   From: 2010.03.12/outbox.cif.g09.slc.cpg/sg124_1_cif.got.tgz:489.got - 2010.04.06 16:38:57.
