data_PCOD8313360
_publ_section_title
;
Structure prediction by ZEFSAII (Michael W. Deem and Ramdas Pophale) SiO2 
 PCOD8313360
Probable space group: P 4/M C C
;
_chemical_formula_sum "Si O2"
_cell_formula_units_Z 56
_cell_length_a 16.805489
_cell_length_b 16.805489
_cell_length_c 14.172476
_cell_angle_alpha 90.000000
_cell_angle_beta 90.000000
_cell_angle_gamma 90.000000
_cell_volume 4002.653889
_symmetry_space_group_name_H-M "P 4/M C C"
_symmetry_group_IT_number 124
_symmetry_cell_setting 'tetragonal'
loop_
_space_group_symop_operation_xyz
x,y,z
-y,x,z
-x,-y,z
y,-x,z
x,-y,1/2-z
-x,y,1/2-z
y,x,1/2-z
-y,-x,1/2-z
-x,-y,-z
y,-x,-z
x,y,-z
-y,x,-z
-x,y,1/2+z
x,-y,1/2+z
-y,-x,1/2+z
y,x,1/2+z
loop_
_atom_site_type_symbol
_atom_site_label
_atom_site_fract_x
_atom_site_fract_y
_atom_site_fract_z
Si Si1 0.416741 0.300293 0.801113
Si Si2 0.376585 0.550752 0.000000
Si Si3 0.873944 0.594203 0.740274
Si Si4 0.990276 0.405412 0.395519
O O1 0.500000 0.301100 0.750000
O O2 0.364998 0.364998 0.750000
O O3 0.375070 0.214258 0.785455
O O4 0.427368 0.322139 0.910637
O O5 0.397510 0.457203 0.000000
O O6 0.873643 0.500000 0.750000
O O7 0.910006 0.623252 0.840939
O O8 0.931683 0.626668 0.658124
O O9 0.986152 0.368628 0.500000
O O10 0.000000 0.500000 0.399173
#
# Coordination Sequence:
#
# PCOD8313360 Si02
#       4
#    16   8  16  16
#     4  11  21  34  44  59  81 105 141 185 216 252
#     4  11  22  34  48  56  69 109 153 187 234 253
#     4   8  16  27  40  59  79  98 126 163 206 249
#     4   8  13  25  42  60  78  98 120 153 200 252
#
# _framework density 13.990717999999999
#
# number of rings (size 3 to 8) (size 9 to 14) (size 15 to 20)
#    0.000    2.714    2.857    1.714    2.000    0.286 
#   10.286    0.000    0.000    0.000    0.000    0.000 
#    0.000    0.000    0.000    0.000    0.000   11.429 
#
# Total GULP energy -693753.208596 kJ/mol
# GULP energy per Si atom -12388.450153 kJ/mol
# Density = 1.395887 g / cm^3
# Si number density = 13.990718 Si / 1000 Ang^3
#
#
#
# Elastic Constant Matrix: (Units=GPa)
#
#
# Indices 1 2 3 4 5 6 
#
# 1 55.9979 15.7093 33.6710 0.0000 0.0000 0.0000
# 2 15.7093 55.9979 33.6710 0.0000 0.0000 0.0000
# 3 33.6710 33.6710 142.5815 0.0000 0.0000 0.0000
# 4 0.0000 0.0000 0.0000 12.3581 0.0000 0.0000
# 5 0.0000 0.0000 0.0000 0.0000 12.3581 0.0000
# 6 0.0000 0.0000 0.0000 0.0000 0.0000 -0.9113
#
#
#
# Elastic Compliance Matrix: (Units=1/GPa)
#
#
# Indices 1 2 3 4 5 6 
#
# 1 0.021370 -0.003451 -0.004232 0.000000 0.000000 0.000000
# 2 -0.003451 0.021370 -0.004232 0.000000 0.000000 0.000000
# 3 -0.004232 -0.004232 0.009012 0.000000 0.000000 0.000000
# 4 0.000000 0.000000 0.000000 0.080919 0.000000 0.000000
# 5 0.000000 0.000000 0.000000 0.000000 0.080919 0.000000
# 6 0.000000 0.000000 0.000000 0.000000 0.000000 -1.097390
#
#
# Mechanical properties :
#
#
# Convention : Reuss Voigt Hill
#
# Bulk Modulus (GPa) = 35.81074 46.74223 41.27648
# Shear Modulus (GPa) = -5.87777 16.19604 5.15913
#
# Velocity S-wave (km/s) = -2.05190 3.40608 1.92238
# Velocity P-wave (km/s) = 4.47637 6.99646 5.87318
#
# Compressibility (1/GPa) = 0.02792458
#
# Stress axis : x y z
#
# Youngs Moduli (GPa) = 46.79380 46.79380 110.96027
#
# Poissons Ratio (x) = 0.16147 0.46956
# Poissons Ratio (y) = 0.16147 0.46956
# Poissons Ratio (z) = 0.19802 0.19802
#
# Static dielectric constant tensor:
#      x y z
#    x 4.939130 0.000000 0.000000 
#    y 0.000000 4.939130 0.000000 
#    z 0.000000 0.000000 3.099660 
# 
# 
# High freq. dielectric constant tensor:
#      x y z
#    x 1.495470 0.000000 0.000000 
#    y 0.000000 1.495470 0.000000 
#    z 0.000000 0.000000 1.554100 
# 
# From -- ./inp_files/2857.got.cif
#   From: 2010.03.12/outbox.cif.g09.slc.cpg/sg124_2_cif.got.tgz:2857.got - 2010.04.06 16:38:57.
