data_PCOD8313419
_publ_section_title
;
Structure prediction by ZEFSAII (Michael W. Deem and Ramdas Pophale) SiO2 
 PCOD8313419
Probable space group: P 4/N B M
;
_chemical_formula_sum "Si O2"
_cell_formula_units_Z 96
_cell_length_a 19.617592
_cell_length_b 19.617592
_cell_length_c 13.838513
_cell_angle_alpha 90.000000
_cell_angle_beta 90.000000
_cell_angle_gamma 90.000000
_cell_volume 5325.750564
_symmetry_space_group_name_H-M "P 4/N B M"
_symmetry_group_IT_number 125
_space_group.IT_coordinate_system_code '2'
_symmetry_cell_setting 'tetragonal'
loop_
_space_group_symop_operation_xyz
x,y,z
1/2-y,x,z
1/2-x,1/2-y,z
y,1/2-x,z
x,1/2-y,-z
1/2-x,y,-z
y,x,-z
1/2-y,1/2-x,-z
-x,-y,-z
1/2+y,-x,-z
1/2+x,1/2+y,-z
-y,1/2+x,-z
-x,1/2+y,z
1/2+x,-y,z
-y,-x,z
1/2+y,1/2+x,z
loop_
_atom_site_type_symbol
_atom_site_label
_atom_site_fract_x
_atom_site_fract_y
_atom_site_fract_z
Si Si1 0.580696 0.965860 0.206163
Si Si2 0.978877 0.906436 0.419165
Si Si3 0.785445 0.395325 0.782404
Si Si4 0.170109 0.557198 0.912606
Si Si5 0.514937 0.376744 0.105717
Si Si6 0.911073 0.202371 0.588524
O O1 0.560668 0.901520 0.137586
O O2 0.518954 0.018954 0.206487
O O3 0.594472 0.941362 0.315453
O O4 0.649197 0.001385 0.167534
O O5 0.035110 0.964891 0.423694
O O6 0.016624 0.833781 0.434593
O O7 0.920963 0.920963 0.500000
O O8 0.819641 0.319641 0.779041
O O9 0.736541 0.402103 0.876220
O O10 0.844146 0.451319 0.798587
O O11 0.747501 0.413932 0.684433
O O12 0.112867 0.612867 0.927236
O O13 0.176891 0.516709 0.015619
O O14 0.556599 0.443402 0.072354
O O15 0.890166 0.250000 0.500000
O O16 0.853499 0.146502 0.606494
#
# Coordination Sequence:
#
# PCOD8313419 Si02
#       6
#    16  16  16  16  16  16
#     4   9  16  30  51  72  94 123 164 221 281 324
#     4   9  18  32  52  74  94 121 163 219 279 326
#     4  11  22  34  48  70 104 145 182 214 253 308
#     4  10  18  32  50  71  98 133 180 222 261 310
#     4   9  19  31  48  72  97 131 172 219 269 313
#     4  11  23  37  51  71 100 139 183 220 259 312
#
# _framework density 18.025627
#
# number of rings (size 3 to 8) (size 9 to 14) (size 15 to 20)
#    0.000    2.167    1.667    2.000    2.333    4.167 
#    0.000    0.833    0.000    6.000    0.000    0.000 
#    0.000    1.000    1.333    3.333    1.000    0.667 
#
# Total GULP energy -1189539.216253 kJ/mol
# GULP energy per Si atom -12391.033503 kJ/mol
# Density = 1.798460 g / cm^3
# Si number density = 18.025627 Si / 1000 Ang^3
#
#
#
# Elastic Constant Matrix: (Units=GPa)
#
#
# Indices 1 2 3 4 5 6 
#
# 1 45.0403 44.3998 30.7161 0.0000 0.0000 0.0000
# 2 44.3998 45.0403 30.7161 0.0000 0.0000 0.0000
# 3 30.7161 30.7161 105.8857 0.0000 0.0000 0.0000
# 4 0.0000 0.0000 0.0000 27.0401 0.0000 0.0000
# 5 0.0000 0.0000 0.0000 0.0000 27.0401 0.0000
# 6 0.0000 0.0000 0.0000 0.0000 0.0000 21.5070
#
#
#
# Elastic Compliance Matrix: (Units=1/GPa)
#
#
# Indices 1 2 3 4 5 6 
#
# 1 0.787629 -0.773666 -0.004050 0.000000 0.000000 0.000000
# 2 -0.773666 0.787629 -0.004050 0.000000 0.000000 0.000000
# 3 -0.004050 -0.004050 0.011794 0.000000 0.000000 0.000000
# 4 0.000000 0.000000 0.000000 0.036982 0.000000 0.000000
# 5 0.000000 0.000000 0.000000 0.000000 0.036982 0.000000
# 6 0.000000 0.000000 0.000000 0.000000 0.000000 0.046497
#
#
# Mechanical properties :
#
#
# Convention : Reuss Voigt Hill
#
# Bulk Modulus (GPa) = 42.52087 45.29226 43.90657
# Shear Modulus (GPa) = 1.52491 21.12639 11.32565
#
# Velocity S-wave (km/s) = 0.92076 3.42719 2.50933
# Velocity P-wave (km/s) = 4.97702 6.39077 5.72768
#
# Compressibility (1/GPa) = 0.02351786
#
# Stress axis : x y z
#
# Youngs Moduli (GPa) = 1.26963 1.26963 84.78829
#
# Poissons Ratio (x) = 0.98227 0.34343
# Poissons Ratio (y) = 0.98227 0.34343
# Poissons Ratio (z) = 0.00514 0.00514
#
# Static dielectric constant tensor:
#      x y z
#    x 3.210710 0.000000 0.000000 
#    y 0.000000 3.210710 0.000000 
#    z 0.000000 0.000000 3.623100 
# 
# 
# High freq. dielectric constant tensor:
#      x y z
#    x 1.662770 0.000000 0.000000 
#    y 0.000000 1.662770 0.000000 
#    z 0.000000 0.000000 1.718800 
# 
# From -- ./inp_files/4114.got.cif
#   From: 2010.03.12/outbox.cif.g09.slc.cpg/sg125_3_cif.got.tgz:4114.got - 2010.04.06 16:47:52.
