data_PCOD8313102
_publ_section_title
;
Structure prediction by ZEFSAII (Michael W. Deem and Ramdas Pophale) SiO2 
 PCOD8313102
Probable space group: P 4/M C C
;
_chemical_formula_sum "Si O2"
_cell_formula_units_Z 88
_cell_length_a 18.217005
_cell_length_b 18.217005
_cell_length_c 14.742999
_cell_angle_alpha 90.000000
_cell_angle_beta 90.000000
_cell_angle_gamma 90.000000
_cell_volume 4892.600903
_symmetry_space_group_name_H-M "P 4/M C C"
_symmetry_group_IT_number 124
_symmetry_cell_setting 'tetragonal'
loop_
_space_group_symop_operation_xyz
x,y,z
-y,x,z
-x,-y,z
y,-x,z
x,-y,1/2-z
-x,y,1/2-z
y,x,1/2-z
-y,-x,1/2-z
-x,-y,-z
y,-x,-z
x,y,-z
-y,x,-z
-x,y,1/2+z
x,-y,1/2+z
-y,-x,1/2+z
y,x,1/2+z
loop_
_atom_site_type_symbol
_atom_site_label
_atom_site_fract_x
_atom_site_fract_y
_atom_site_fract_z
Si Si1 0.690148 0.806611 0.236792
Si Si2 0.615637 0.539823 0.500000
Si Si3 0.881124 0.494055 0.856892
Si Si4 0.930768 0.335785 0.897916
Si Si5 0.093079 0.651321 0.600064
Si Si6 0.450930 0.276660 0.166924
O O1 0.766800 0.766800 0.250000
O O2 0.704088 0.872198 0.166003
O O3 0.669116 0.841048 0.332893
O O4 0.628585 0.749277 0.203730
O O5 0.545181 0.592666 0.500000
O O6 0.661488 0.558599 0.409523
O O7 0.894819 0.500000 0.750000
O O8 0.921369 0.423080 0.894454
O O9 0.915030 0.563503 0.907044
O O10 0.793806 0.490729 0.876801
O O11 0.014228 0.316599 0.867559
O O12 0.917063 0.308128 0.000000
O O13 0.112157 0.682089 0.500000
O O14 0.500000 0.308510 0.250000
#
# Coordination Sequence:
#
# PCOD8313102 Si02
#       6
#    16   8  16  16  16  16
#     4  11  24  38  56  85 112 153 189 230 284 334
#     4  11  28  44  60  78  97 140 202 270 323 352
#     4  10  18  32  53  82 112 140 174 218 277 342
#     4  10  21  35  56  83 117 151 182 221 276 338
#     4  11  21  35  56  84 115 149 184 223 272 342
#     4  10  22  40  58  81 106 138 188 242 303 347
#
# _framework density 17.986343000000002
#
# number of rings (size 3 to 8) (size 9 to 14) (size 15 to 20)
#    0.000    1.545    5.455    1.636    8.909    2.909 
#    0.000    0.909    0.000    0.000    0.000    0.000 
#    0.000    5.818    0.000   16.000    0.000    0.000 
#
# Total GULP energy -1090977.937500 kJ/mol
# GULP energy per Si atom -12397.476562 kJ/mol
# Density = 1.794541 g / cm^3
# Si number density = 17.986343 Si / 1000 Ang^3
#
#
#
# Elastic Constant Matrix: (Units=GPa)
#
#
# Indices 1 2 3 4 5 6 
#
# 1 83.6218 46.0260 50.8875 0.0000 0.0000 0.0000
# 2 46.0260 83.6218 50.8875 0.0000 0.0000 0.0000
# 3 50.8875 50.8875 111.9418 0.0000 0.0000 0.0000
# 4 0.0000 0.0000 0.0000 -94.8142 0.0000 0.0000
# 5 0.0000 0.0000 0.0000 0.0000 -94.8142 0.0000
# 6 0.0000 0.0000 0.0000 0.0000 0.0000 -90.7177
#
#
#
# Elastic Compliance Matrix: (Units=1/GPa)
#
#
# Indices 1 2 3 4 5 6 
#
# 1 0.019296 -0.007303 -0.005452 0.000000 0.000000 0.000000
# 2 -0.007303 0.019296 -0.005452 0.000000 0.000000 0.000000
# 3 -0.005452 -0.005452 0.013890 0.000000 0.000000 0.000000
# 4 0.000000 0.000000 0.000000 -0.010547 0.000000 0.000000
# 5 0.000000 0.000000 0.000000 0.000000 -0.010547 0.000000
# 6 0.000000 0.000000 0.000000 0.000000 0.000000 -0.011023
#
#
# Mechanical properties :
#
#
# Convention : Reuss Voigt Hill
#
# Bulk Modulus (GPa) = 62.23393 63.86526 63.04960
# Shear Modulus (GPa) = 80.47134 -47.31026 16.58054
#
# Velocity S-wave (km/s) = 6.69607 -5.13425 3.03948
# Velocity P-wave (km/s) = 9.71900 0.66132 6.88826
#
# Compressibility (1/GPa) = 0.01606841
#
# Stress axis : x y z
#
# Youngs Moduli (GPa) = 51.82463 51.82463 71.99449
#
# Poissons Ratio (x) = 0.37847 0.39251
# Poissons Ratio (y) = 0.37847 0.39251
# Poissons Ratio (z) = 0.28254 0.28254
#
# Static dielectric constant tensor:
#      x y z
#    x 3.160870 0.000000 0.000000 
#    y 0.000000 3.160870 0.000000 
#    z 0.000000 0.000000 3.480370 
# 
# 
# High freq. dielectric constant tensor:
#      x y z
#    x 1.669750 0.000000 0.000000 
#    y 0.000000 1.669750 0.000000 
#    z 0.000000 0.000000 1.713390 
# 
# From -- ./inp_files/3218.got.cif
#   From: 2010.03.12/outbox.cif.g09.slc.cpg/sg124_2_cif.got.tgz:3218.got - 2010.04.06 16:38:57.
