data_PCOD8313307
_publ_section_title
;
Structure prediction by ZEFSAII (Michael W. Deem and Ramdas Pophale) SiO2 
 PCOD8313307
Probable space group: P 4/M C C
;
_chemical_formula_sum "Si O2"
_cell_formula_units_Z 64
_cell_length_a 10.712388
_cell_length_b 10.712388
_cell_length_c 25.109636
_cell_angle_alpha 90.000000
_cell_angle_beta 90.000000
_cell_angle_gamma 90.000000
_cell_volume 2881.462724
_symmetry_space_group_name_H-M "P 4/M C C"
_symmetry_group_IT_number 124
_symmetry_cell_setting 'tetragonal'
loop_
_space_group_symop_operation_xyz
x,y,z
-y,x,z
-x,-y,z
y,-x,z
x,-y,1/2-z
-x,y,1/2-z
y,x,1/2-z
-y,-x,1/2-z
-x,-y,-z
y,-x,-z
x,y,-z
-y,x,-z
-x,y,1/2+z
x,-y,1/2+z
-y,-x,1/2+z
y,x,1/2+z
loop_
_atom_site_type_symbol
_atom_site_label
_atom_site_fract_x
_atom_site_fract_y
_atom_site_fract_z
Si Si1 0.939532 0.629901 0.939785
Si Si2 0.625530 0.807507 0.718020
Si Si3 0.797157 0.972037 0.657555
Si Si4 0.426729 0.688229 0.105429
O O1 0.981271 0.743329 0.902096
O O2 0.790773 0.616615 0.936811
O O3 0.000000 0.500000 0.920035
O O4 0.980421 0.661881 0.000000
O O5 0.500000 0.837964 0.750000
O O6 0.722136 0.722136 0.750000
O O7 0.688185 0.940357 0.700172
O O8 0.588576 0.732541 0.665595
O O9 0.895198 0.859918 0.667089
O O10 0.340364 0.570320 0.094610
#
# Coordination Sequence:
#
# PCOD8313307 Si02
#       4
#    16  16  16  16
#     4  10  24  42  67  99 134 173 224 279 337 405
#     4  11  22  39  69  98 135 176 224 277 333 401
#     4  10  25  47  70  97 134 178 225 280 336 398
#     4  10  21  38  64  94 133 175 218 272 331 397
#
# _framework density 22.210940999999998
#
# number of rings (size 3 to 8) (size 9 to 14) (size 15 to 20)
#    0.000    1.750    2.500    0.000    7.000    3.250 
#    0.000   10.000    0.000    0.000    0.000    0.000 
#    0.000    0.000    0.000    0.000    0.000    0.000 
#
# Total GULP energy -793623.265228 kJ/mol
# GULP energy per Si atom -12400.363519 kJ/mol
# Density = 2.216039 g / cm^3
# Si number density = 22.210941 Si / 1000 Ang^3
#
#
#
# Elastic Constant Matrix: (Units=GPa)
#
#
# Indices 1 2 3 4 5 6 
#
# 1 95.2220 -3.5330 36.3090 0.0000 0.0000 0.0000
# 2 -3.5330 95.2220 36.3090 0.0000 0.0000 0.0000
# 3 36.3090 36.3090 90.3849 0.0000 0.0000 0.0000
# 4 0.0000 0.0000 0.0000 22.8767 0.0000 0.0000
# 5 0.0000 0.0000 0.0000 0.0000 22.8767 0.0000
# 6 0.0000 0.0000 0.0000 0.0000 0.0000 813.5126
#
#
#
# Elastic Compliance Matrix: (Units=1/GPa)
#
#
# Indices 1 2 3 4 5 6 
#
# 1 0.013061 0.002935 -0.006426 0.000000 0.000000 0.000000
# 2 0.002935 0.013061 -0.006426 0.000000 0.000000 0.000000
# 3 -0.006426 -0.006426 0.016226 0.000000 0.000000 0.000000
# 4 0.000000 0.000000 0.000000 0.043713 0.000000 0.000000
# 5 0.000000 0.000000 0.000000 0.000000 0.043713 0.000000
# 6 0.000000 0.000000 0.000000 0.000000 0.000000 0.001229
#
#
# Mechanical properties :
#
#
# Convention : Reuss Voigt Hill
#
# Bulk Modulus (GPa) = 44.41512 46.55545 45.48528
# Shear Modulus (GPa) = 31.57747 185.96945 108.77346
#
# Velocity S-wave (km/s) = 3.77464 9.16027 7.00566
# Velocity P-wave (km/s) = 6.24801 11.52765 9.27158
#
# Compressibility (1/GPa) = 0.02251486
#
# Stress axis : x y z
#
# Youngs Moduli (GPa) = 76.56480 76.56480 61.62798
#
# Poissons Ratio (x) = -0.22470 0.39600
# Poissons Ratio (y) = -0.22470 0.39600
# Poissons Ratio (z) = 0.49198 0.49198
#
# Static dielectric constant tensor:
#      x y z
#    x 4.182880 0.000000 0.000000 
#    y 0.000000 4.182880 0.000000 
#    z 0.000000 0.000000 3.891160 
# 
# 
# High freq. dielectric constant tensor:
#      x y z
#    x 1.881700 0.000000 0.000000 
#    y 0.000000 1.881700 0.000000 
#    z 0.000000 0.000000 1.873790 
# 
# From -- ./inp_files/5846.got.cif
#   From: 2010.03.12/outbox.cif.g09.slc.cpg/sg124_3_cif.got.tgz:5846.got - 2010.04.06 16:38:57.
