data_PCOD8313678
_publ_section_title
;
Structure prediction by ZEFSAII (Michael W. Deem and Ramdas Pophale) SiO2 
 PCOD8313678
Probable space group: P 4/N N C
;
_chemical_formula_sum "Si O2"
_cell_formula_units_Z 104
_cell_length_a 18.327592
_cell_length_b 18.327592
_cell_length_c 18.546524
_cell_angle_alpha 90.000000
_cell_angle_beta 90.000000
_cell_angle_gamma 90.000000
_cell_volume 6229.789068
_symmetry_space_group_name_H-M "P 4/N N C"
_symmetry_group_IT_number 126
_space_group.IT_coordinate_system_code '2'
_symmetry_cell_setting 'tetragonal'
loop_
_space_group_symop_operation_xyz
x,y,z
1/2-y,x,z
1/2-x,1/2-y,z
y,1/2-x,z
x,1/2-y,1/2-z
1/2-x,y,1/2-z
y,x,1/2-z
1/2-y,1/2-x,1/2-z
-x,-y,-z
1/2+y,-x,-z
1/2+x,1/2+y,-z
-y,1/2+x,-z
-x,1/2+y,1/2+z
1/2+x,-y,1/2+z
-y,-x,1/2+z
1/2+y,1/2+x,1/2+z
loop_
_atom_site_type_symbol
_atom_site_label
_atom_site_fract_x
_atom_site_fract_y
_atom_site_fract_z
Si Si1 0.852044 0.690885 0.890193
Si Si2 0.426574 0.817034 0.850700
Si Si3 0.164751 0.819663 0.025394
Si Si4 0.343653 0.542907 0.304799
Si Si5 0.418748 0.936025 0.058304
Si Si6 0.533805 0.898234 0.954664
Si Si7 0.113273 0.113273 0.250000
O O1 0.848971 0.776033 0.900126
O O2 0.901698 0.660243 0.954809
O O3 0.882327 0.676434 0.809867
O O4 0.350661 0.816625 0.894822
O O5 0.410800 0.843264 0.768991
O O6 0.461895 0.735888 0.843792
O O7 0.481198 0.874925 0.888187
O O8 0.231994 0.842096 0.971954
O O9 0.089628 0.852946 0.994266
O O10 0.398813 0.583959 0.359535
O O11 0.376209 0.462867 0.290890
O O12 0.431203 0.022386 0.054479
O O13 0.491282 0.894098 0.030894
#
# Coordination Sequence:
#
# PCOD8313678 Si02
#       7
#    16  16  16  16  16  16   8
#     4  11  22  32  46  74 109 145 179 211 253 316
#     4  10  20  32  51  75 100 136 175 214 262 315
#     4  10  20  36  54  71  96 133 177 225 270 314
#     4  11  19  31  50  76 102 137 174 218 257 314
#     4  10  20  33  50  73  97 131 178 220 257 314
#     4  10  20  33  49  72 101 137 178 210 256 312
#     4  12  20  29  48  72 112 142 172 205 258 312
#
# _framework density 16.693985000000001
#
# number of rings (size 3 to 8) (size 9 to 14) (size 15 to 20)
#    0.000    1.538    4.615    1.385    2.154    0.615 
#    0.000    0.769    0.000    0.000    0.000    2.154 
#    0.000    0.000    0.000    1.077    0.000  133.538 
#
# Total GULP energy -1288795.902376 kJ/mol
# GULP energy per Si atom -12392.268292 kJ/mol
# Density = 1.665599 g / cm^3
# Si number density = 16.693985 Si / 1000 Ang^3
#
#
#
# Elastic Constant Matrix: (Units=GPa)
#
#
# Indices 1 2 3 4 5 6 
#
# 1 85.2034 6.9411 49.3767 0.0000 0.0000 0.0000
# 2 6.9411 85.2034 49.3767 0.0000 0.0000 0.0000
# 3 49.3767 49.3767 112.1691 0.0000 0.0000 0.0000
# 4 0.0000 0.0000 0.0000 30.2629 0.0000 0.0000
# 5 0.0000 0.0000 0.0000 0.0000 30.2629 0.0000
# 6 0.0000 0.0000 0.0000 0.0000 0.0000 30.5018
#
#
#
# Elastic Compliance Matrix: (Units=1/GPa)
#
#
# Indices 1 2 3 4 5 6 
#
# 1 0.016661 0.003884 -0.009044 0.000000 0.000000 0.000000
# 2 0.003884 0.016661 -0.009044 0.000000 0.000000 0.000000
# 3 -0.009044 -0.009044 0.016877 0.000000 0.000000 0.000000
# 4 0.000000 0.000000 0.000000 0.033044 0.000000 0.000000
# 5 0.000000 0.000000 0.000000 0.000000 0.033044 0.000000
# 6 0.000000 0.000000 0.000000 0.000000 0.000000 0.032785
#
#
# Mechanical properties :
#
#
# Convention : Reuss Voigt Hill
#
# Bulk Modulus (GPa) = 45.88873 54.88498 50.38685
# Shear Modulus (GPa) = 27.06442 29.99763 28.53102
#
# Velocity S-wave (km/s) = 4.03079 4.24360 4.13856
# Velocity P-wave (km/s) = 7.01505 7.54714 7.28595
#
# Compressibility (1/GPa) = 0.02179184
#
# Stress axis : x y z
#
# Youngs Moduli (GPa) = 60.01930 60.01930 59.25102
#
# Poissons Ratio (x) = -0.23310 0.53586
# Poissons Ratio (y) = -0.23310 0.53586
# Poissons Ratio (z) = 0.54281 0.54281
#
# Static dielectric constant tensor:
#      x y z
#    x 3.243960 0.000000 0.000000 
#    y 0.000000 3.243960 0.000000 
#    z 0.000000 0.000000 3.276400 
# 
# 
# High freq. dielectric constant tensor:
#      x y z
#    x 1.639910 0.000000 0.000000 
#    y 0.000000 1.639910 0.000000 
#    z 0.000000 0.000000 1.628090 
# 
# From -- ./inp_files/4562.got.cif
#   From: 2010.03.12/outbox.cif.g09.slc.cpg/sg126_3_cif.got.tgz:4562.got - 2010.04.06 16:55:23.
