data_PCOD8313784
_publ_section_title
;
Structure prediction by ZEFSAII (Michael W. Deem and Ramdas Pophale) SiO2 
 PCOD8313784
Probable space group: P 4/N N C
;
_chemical_formula_sum "Si O2"
_cell_formula_units_Z 48
_cell_length_a 13.251252
_cell_length_b 13.251252
_cell_length_c 13.140555
_cell_angle_alpha 90.000000
_cell_angle_beta 90.000000
_cell_angle_gamma 90.000000
_cell_volume 2307.424685
_symmetry_space_group_name_H-M "P 4/N N C"
_symmetry_group_IT_number 126
_space_group.IT_coordinate_system_code '2'
_symmetry_cell_setting 'tetragonal'
loop_
_space_group_symop_operation_xyz
x,y,z
1/2-y,x,z
1/2-x,1/2-y,z
y,1/2-x,z
x,1/2-y,1/2-z
1/2-x,y,1/2-z
y,x,1/2-z
1/2-y,1/2-x,1/2-z
-x,-y,-z
1/2+y,-x,-z
1/2+x,1/2+y,-z
-y,1/2+x,-z
-x,1/2+y,1/2+z
1/2+x,-y,1/2+z
-y,-x,1/2+z
1/2+y,1/2+x,1/2+z
loop_
_atom_site_type_symbol
_atom_site_label
_atom_site_fract_x
_atom_site_fract_y
_atom_site_fract_z
Si Si1 0.362682 0.014119 0.552325
Si Si2 0.995281 0.836096 0.948785
Si Si3 0.750000 0.917434 0.750000
Si Si4 0.631694 0.868307 0.250000
O O1 0.404714 0.082447 0.458737
O O2 0.406708 0.069136 0.652798
O O3 0.400836 0.898758 0.549151
O O4 0.241564 0.009934 0.544154
O O5 0.988637 0.766471 0.848027
O O6 0.650756 0.849245 0.750000
O O7 0.609861 0.750000 0.250000
#
# Coordination Sequence:
#
# PCOD8313784 Si02
#       4
#    16  16   8   8
#     4  11  24  42  65  97 134 178 222 275 334 403
#     4  11  24  41  67  95 136 172 227 276 336 398
#     4  11  22  38  66  99 126 164 221 288 338 391
#     4  11  22  38  68  96 127 166 224 280 335 390
#
# _framework density 20.802413000000001
#
# number of rings (size 3 to 8) (size 9 to 14) (size 15 to 20)
#    0.000    1.000    6.667    0.000    2.333    1.333 
#    0.000    0.000    0.000    0.000    0.000    0.000 
#    0.000    0.000    0.000    0.000    0.000    0.000 
#
# Total GULP energy -594910.550472 kJ/mol
# GULP energy per Si atom -12393.969802 kJ/mol
# Density = 2.075507 g / cm^3
# Si number density = 20.802413 Si / 1000 Ang^3
#
#
#
# Elastic Constant Matrix: (Units=GPa)
#
#
# Indices 1 2 3 4 5 6 
#
# 1 106.5018 57.9759 38.8804 0.0000 0.0000 0.0000
# 2 57.9759 106.5002 38.8806 0.0000 0.0000 0.0000
# 3 38.8804 38.8806 112.6232 0.0000 0.0000 0.0000
# 4 0.0000 0.0000 0.0000 27.3722 0.0000 0.0000
# 5 0.0000 0.0000 0.0000 0.0000 27.3725 0.0000
# 6 0.0000 0.0000 0.0000 0.0000 0.0000 27.4258
#
#
#
# Elastic Compliance Matrix: (Units=1/GPa)
#
#
# Indices 1 2 3 4 5 6 
#
# 1 0.013937 -0.006671 -0.002508 0.000000 0.000000 0.000000
# 2 -0.006671 0.013937 -0.002508 0.000000 0.000000 0.000000
# 3 -0.002508 -0.002508 0.010611 0.000000 0.000000 0.000000
# 4 0.000000 0.000000 0.000000 0.036533 0.000000 0.000000
# 5 0.000000 0.000000 0.000000 0.000000 0.036533 0.000000
# 6 0.000000 0.000000 0.000000 0.000000 0.000000 0.036462
#
#
# Mechanical properties :
#
#
# Convention : Reuss Voigt Hill
#
# Bulk Modulus (GPa) = 66.18462 66.34432 66.26447
# Shear Modulus (GPa) = 28.34062 29.09330 28.71696
#
# Velocity S-wave (km/s) = 3.69504 3.74378 3.71949
# Velocity P-wave (km/s) = 7.07738 7.11686 7.09715
#
# Compressibility (1/GPa) = 0.01510925
#
# Stress axis : x y z
#
# Youngs Moduli (GPa) = 71.75296 71.75159 94.24137
#
# Poissons Ratio (x) = 0.47866 0.23638
# Poissons Ratio (y) = 0.47867 0.23640
# Poissons Ratio (z) = 0.17998 0.17998
#
# Static dielectric constant tensor:
#      x y z
#    x 3.515540 0.000000 0.000000 
#    y 0.000000 3.515560 0.000000 
#    z 0.000000 0.000000 3.823460 
# 
# 
# High freq. dielectric constant tensor:
#      x y z
#    x 1.800670 0.000000 0.000000 
#    y 0.000000 1.800670 0.000000 
#    z 0.000000 0.000000 1.816470 
# 
# From -- ./inp_files/2325.got.cif
#   From: 2010.03.12/outbox.cif.g09.slc.cpg/sg126_2_cif.got.tgz:2325.got - 2010.04.06 16:55:23.
