data_PCOD8313508
_publ_section_title
;
Structure prediction by ZEFSAII (Michael W. Deem and Ramdas Pophale) SiO2 
 PCOD8313508
Probable space group: P 4/N B M
;
_chemical_formula_sum "Si O2"
_cell_formula_units_Z 64
_cell_length_a 13.640914
_cell_length_b 13.640914
_cell_length_c 18.592722
_cell_angle_alpha 90.000000
_cell_angle_beta 90.000000
_cell_angle_gamma 90.000000
_cell_volume 3459.632096
_symmetry_space_group_name_H-M "P 4/N B M"
_symmetry_group_IT_number 125
_space_group.IT_coordinate_system_code '2'
_symmetry_cell_setting 'tetragonal'
loop_
_space_group_symop_operation_xyz
x,y,z
1/2-y,x,z
1/2-x,1/2-y,z
y,1/2-x,z
x,1/2-y,-z
1/2-x,y,-z
y,x,-z
1/2-y,1/2-x,-z
-x,-y,-z
1/2+y,-x,-z
1/2+x,1/2+y,-z
-y,1/2+x,-z
-x,1/2+y,z
1/2+x,-y,z
-y,-x,z
1/2+y,1/2+x,z
loop_
_atom_site_type_symbol
_atom_site_label
_atom_site_fract_x
_atom_site_fract_y
_atom_site_fract_z
Si Si1 0.869858 0.976627 0.219297
Si Si2 0.492453 0.831460 0.716107
Si Si3 0.359583 0.131128 0.078739
Si Si4 0.254761 0.590912 0.578586
O O1 0.905709 0.933182 0.142470
O O2 0.913742 0.903537 0.280583
O O3 0.753489 0.990342 0.225056
O O4 0.916371 0.083630 0.228274
O O5 0.392684 0.892684 0.732622
O O6 0.487355 0.777500 0.638776
O O7 0.385481 0.244173 0.086790
O O8 0.400766 0.099235 0.000000
O O9 0.250000 0.538921 0.500000
O O10 0.363078 0.636923 0.595207
O O11 0.179521 0.679521 0.576630
#
# Coordination Sequence:
#
# PCOD8313508 Si02
#       4
#    16  16  16  16
#     4  11  21  33  54  80 105 141 175 210 270 316
#     4  10  21  35  51  78 110 135 176 224 259 314
#     4   9  17  32  54  76 101 135 176 215 258 304
#     4   8  14  28  51  74 100 140 181 215 257 307
#
# _framework density 18.499077
#
# number of rings (size 3 to 8) (size 9 to 14) (size 15 to 20)
#    0.000    2.500    2.500    2.250    0.000    2.500 
#    0.000    1.250    0.000    6.000    0.000    1.750 
#    0.000    0.000    0.000    0.000    0.000    0.000 
#
# Total GULP energy -792969.333601 kJ/mol
# GULP energy per Si atom -12390.145838 kJ/mol
# Density = 1.845697 g / cm^3
# Si number density = 18.499077 Si / 1000 Ang^3
#
#
#
# Elastic Constant Matrix: (Units=GPa)
#
#
# Indices 1 2 3 4 5 6 
#
# 1 67.7957 28.4956 23.6020 0.0000 0.0000 0.0000
# 2 28.4956 67.7961 23.6020 0.0000 0.0000 0.0000
# 3 23.6020 23.6020 112.4390 0.0000 0.0000 0.0000
# 4 0.0000 0.0000 0.0000 23.3045 0.0000 0.0000
# 5 0.0000 0.0000 0.0000 0.0000 23.3044 0.0000
# 6 0.0000 0.0000 0.0000 0.0000 0.0000 19.4105
#
#
#
# Elastic Compliance Matrix: (Units=1/GPa)
#
#
# Indices 1 2 3 4 5 6 
#
# 1 0.018511 -0.006934 -0.002430 0.000000 0.000000 0.000000
# 2 -0.006934 0.018511 -0.002430 0.000000 0.000000 0.000000
# 3 -0.002430 -0.002430 0.009914 0.000000 0.000000 0.000000
# 4 0.000000 0.000000 0.000000 0.042910 0.000000 0.000000
# 5 0.000000 0.000000 0.000000 0.000000 0.042910 0.000000
# 6 0.000000 0.000000 0.000000 0.000000 0.000000 0.051519
#
#
# Mechanical properties :
#
#
# Convention : Reuss Voigt Hill
#
# Bulk Modulus (GPa) = 42.83271 44.38110 43.60690
# Shear Modulus (GPa) = 23.18623 24.69263 23.93943
#
# Velocity S-wave (km/s) = 3.54414 3.65746 3.60125
# Velocity P-wave (km/s) = 6.32077 6.47140 6.39653
#
# Compressibility (1/GPa) = 0.02334665
#
# Stress axis : x y z
#
# Youngs Moduli (GPa) = 54.02254 54.02284 100.86884
#
# Poissons Ratio (x) = 0.37462 0.24511
# Poissons Ratio (y) = 0.37461 0.24511
# Poissons Ratio (z) = 0.13127 0.13127
#
# Static dielectric constant tensor:
#      x y z
#    x 3.164060 0.000000 0.000000 
#    y 0.000000 3.164070 0.000000 
#    z 0.000000 0.000000 3.799250 
# 
# 
# High freq. dielectric constant tensor:
#      x y z
#    x 1.694240 0.000000 0.000000 
#    y 0.000000 1.694240 0.000000 
#    z 0.000000 0.000000 1.723830 
# 
# From -- ./inp_files/5262.got.cif
#   From: 2010.03.12/outbox.cif.g09.slc.cpg/sg125_3_cif.got.tgz:5262.got - 2010.04.06 16:47:52.
