data_PCOD8313831
_publ_section_title
;
Structure prediction by ZEFSAII (Michael W. Deem and Ramdas Pophale) SiO2 
 PCOD8313831
Probable space group: P 4/M B M
;
_chemical_formula_sum "Si O2"
_cell_formula_units_Z 64
_cell_length_a 15.336429
_cell_length_b 15.336429
_cell_length_c 17.357034
_cell_angle_alpha 90.000000
_cell_angle_beta 90.000000
_cell_angle_gamma 90.000000
_cell_volume 4082.479484
_symmetry_space_group_name_H-M "P 4/M B M"
_symmetry_group_IT_number 127
_symmetry_cell_setting 'tetragonal'
loop_
_space_group_symop_operation_xyz
x,y,z
-y,x,z
-x,-y,z
y,-x,z
1/2+x,1/2-y,-z
1/2-x,1/2+y,-z
1/2+y,1/2+x,-z
1/2-y,1/2-x,-z
-x,-y,-z
y,-x,-z
x,y,-z
-y,x,-z
1/2-x,1/2+y,z
1/2+x,1/2-y,z
1/2-y,1/2-x,z
1/2+y,1/2+x,z
loop_
_atom_site_type_symbol
_atom_site_label
_atom_site_fract_x
_atom_site_fract_y
_atom_site_fract_z
Si Si1 0.426829 0.926829 0.086620
Si Si2 0.634495 0.454434 0.088553
Si Si3 0.005606 0.641365 0.500000
Si Si4 0.495431 0.857508 0.664397
Si Si5 0.047929 0.693871 0.823491
O O1 0.464364 0.842489 0.130119
O O2 0.500000 0.000000 0.085961
O O3 0.399953 0.899953 0.000000
O O4 0.608678 0.553855 0.106456
O O5 0.713095 0.424606 0.143085
O O6 0.663511 0.444959 0.000000
O O7 0.937256 0.562745 0.500000
O O8 0.103385 0.603385 0.500000
O O9 0.992419 0.693835 0.418786
O O10 0.566195 0.933806 0.657989
O O11 0.520676 0.793235 0.734024
O O12 0.401938 0.901938 0.682408
O O13 0.129636 0.629636 0.832018
#
# Coordination Sequence:
#
# PCOD8313831 Si02
#       5
#     8  16   8  16  16
#     4   9  16  24  36  57  89 121 137 159 213 269
#     4   9  19  36  51  60  79 115 153 185 218 257
#     4   7  10  16  30  52  82 119 150 166 193 253
#     4   8  12  20  34  57  89 120 143 169 209 259
#     4  10  17  27  44  67  92 113 141 180 222 264
#
# _framework density 15.676748
#
# number of rings (size 3 to 8) (size 9 to 14) (size 15 to 20)
#    0.000    3.250    1.250    3.000    0.000    1.500 
#    2.250    0.000    0.000    0.000    0.000    1.750 
#    0.000    8.000    0.000    0.000    0.000    0.000 
#
# Total GULP energy -792869.363076 kJ/mol
# GULP energy per Si atom -12388.583798 kJ/mol
# Density = 1.564107 g / cm^3
# Si number density = 15.676748 Si / 1000 Ang^3
#
#
#
# Elastic Constant Matrix: (Units=GPa)
#
#
# Indices 1 2 3 4 5 6 
#
# 1 47.7043 8.7024 35.5845 0.0000 0.0000 0.0000
# 2 8.7024 47.7044 35.5848 0.0000 0.0000 0.0000
# 3 35.5845 35.5848 147.1796 0.0000 0.0000 0.0000
# 4 0.0000 0.0000 0.0000 13.5015 0.0000 0.0000
# 5 0.0000 0.0000 0.0000 0.0000 13.5015 0.0000
# 6 0.0000 0.0000 0.0000 0.0000 0.0000 7.3894
#
#
#
# Elastic Compliance Matrix: (Units=1/GPa)
#
#
# Indices 1 2 3 4 5 6 
#
# 1 0.025575 -0.000065 -0.006168 0.000000 0.000000 0.000000
# 2 -0.000065 0.025575 -0.006168 0.000000 0.000000 0.000000
# 3 -0.006168 -0.006168 0.009777 0.000000 0.000000 0.000000
# 4 0.000000 0.000000 0.000000 0.074066 0.000000 0.000000
# 5 0.000000 0.000000 0.000000 0.000000 0.074066 0.000000
# 6 0.000000 0.000000 0.000000 0.000000 0.000000 0.135328
#
#
# Mechanical properties :
#
#
# Convention : Reuss Voigt Hill
#
# Bulk Modulus (GPa) = 27.68058 44.70352 36.19205
# Shear Modulus (GPa) = 13.11546 17.72627 15.42087
#
# Velocity S-wave (km/s) = 2.89557 3.36629 3.13977
# Velocity P-wave (km/s) = 5.37351 6.60961 6.02335
#
# Compressibility (1/GPa) = 0.03612641
#
# Stress axis : x y z
#
# Youngs Moduli (GPa) = 39.10056 39.10051 102.28193
#
# Poissons Ratio (x) = 0.00253 0.63085
# Poissons Ratio (y) = 0.00253 0.63086
# Poissons Ratio (z) = 0.24116 0.24117
#
# Static dielectric constant tensor:
#      x y z
#    x 2.572380 0.000000 0.000000 
#    y 0.000000 2.572380 0.000000 
#    z 0.000000 0.000000 3.514450 
# 
# 
# High freq. dielectric constant tensor:
#      x y z
#    x 1.554780 0.000000 0.000000 
#    y 0.000000 1.554780 0.000000 
#    z 0.000000 0.000000 1.620800 
# 
# From -- ./inp_files/4878.got.cif
#   From: 2010.03.12/outbox.cif.g09.slc.cpg/sg127_3_cif.got.tgz:4878.got - 2010.04.06 17:03:15.
