data_PCOD8313178
_publ_section_title
;
Structure prediction by ZEFSAII (Michael W. Deem and Ramdas Pophale) SiO2 
 PCOD8313178
Probable space group: P 4/M C C
;
_chemical_formula_sum "Si O2"
_cell_formula_units_Z 96
_cell_length_a 23.397853
_cell_length_b 23.397853
_cell_length_c 9.159889
_cell_angle_alpha 90.000000
_cell_angle_beta 90.000000
_cell_angle_gamma 90.000000
_cell_volume 5014.668481
_symmetry_space_group_name_H-M "P 4/M C C"
_symmetry_group_IT_number 124
_symmetry_cell_setting 'tetragonal'
loop_
_space_group_symop_operation_xyz
x,y,z
-y,x,z
-x,-y,z
y,-x,z
x,-y,1/2-z
-x,y,1/2-z
y,x,1/2-z
-y,-x,1/2-z
-x,-y,-z
y,-x,-z
x,y,-z
-y,x,-z
-x,y,1/2+z
x,-y,1/2+z
-y,-x,1/2+z
y,x,1/2+z
loop_
_atom_site_type_symbol
_atom_site_label
_atom_site_fract_x
_atom_site_fract_y
_atom_site_fract_z
Si Si1 0.167940 0.552209 0.329598
Si Si2 0.642927 0.439385 0.172404
Si Si3 0.820763 0.744171 0.333678
Si Si4 0.710380 0.054815 0.662667
Si Si5 0.756665 0.630589 0.336307
Si Si6 0.424861 0.054009 0.835480
O O1 0.201246 0.500000 0.250000
O O2 0.164531 0.542487 0.500000
O O3 0.202785 0.608260 0.291495
O O4 0.105912 0.554120 0.260880
O O5 0.658203 0.500000 0.250000
O O6 0.586411 0.413590 0.250000
O O7 0.692614 0.391629 0.194626
O O8 0.631748 0.449734 0.000000
O O9 0.800630 0.800630 0.250000
O O10 0.830700 0.760862 0.500000
O O11 0.882801 0.725524 0.268267
O O12 0.768790 0.697987 0.323044
O O13 0.735506 0.049850 0.500000
O O14 0.642767 0.051409 0.658330
O O15 0.735407 0.000000 0.750000
O O16 0.775293 0.610337 0.500000
O O17 0.449960 0.000000 0.750000
O O18 0.449681 0.057905 0.000000
#
# Coordination Sequence:
#
# PCOD8313178 Si02
#       6
#    16  16  16  16  16  16
#     4  12  24  36  53  76 103 141 187 232 280 332
#     4  11  24  42  66  90 116 145 180 223 279 342
#     4  10  20  35  55  84 118 152 187 232 277 323
#     4   9  18  33  54  77 110 148 187 231 277 325
#     4  10  21  40  60  82 115 149 180 225 277 329
#     4  10  19  35  54  74 103 137 181 232 281 330
#
# _framework density 19.143837000000001
#
# number of rings (size 3 to 8) (size 9 to 14) (size 15 to 20)
#    0.000    1.667    1.667    3.500    0.000    5.167 
#    0.000    2.500    0.000    0.000    0.000    0.000 
#    0.000    0.333    0.000    3.667    0.000    2.667 
#
# Total GULP energy -1189559.410943 kJ/mol
# GULP energy per Si atom -12391.243864 kJ/mol
# Density = 1.910027 g / cm^3
# Si number density = 19.143837 Si / 1000 Ang^3
#
#
#
# Elastic Constant Matrix: (Units=GPa)
#
#
# Indices 1 2 3 4 5 6 
#
# 1 72.2792 37.4216 43.0788 0.0000 0.0000 0.0000
# 2 37.4216 72.2760 43.0773 0.0000 0.0000 0.0000
# 3 43.0788 43.0773 139.2158 0.0000 0.0000 0.0000
# 4 0.0000 0.0000 0.0000 72.6826 0.0000 0.0000
# 5 0.0000 0.0000 0.0000 0.0000 72.6796 0.0000
# 6 0.0000 0.0000 0.0000 0.0000 0.0000 23.3924
#
#
#
# Elastic Compliance Matrix: (Units=1/GPa)
#
#
# Indices 1 2 3 4 5 6 
#
# 1 0.020366 -0.008323 -0.003726 0.000000 0.000000 0.000000
# 2 -0.008323 0.020366 -0.003726 0.000000 0.000000 0.000000
# 3 -0.003726 -0.003726 0.009489 0.000000 0.000000 0.000000
# 4 0.000000 0.000000 0.000000 0.013758 0.000000 0.000000
# 5 0.000000 0.000000 0.000000 0.000000 0.013759 0.000000
# 6 0.000000 0.000000 0.000000 0.000000 0.000000 0.042749
#
#
# Mechanical properties :
#
#
# Convention : Reuss Voigt Hill
#
# Bulk Modulus (GPa) = 53.56546 58.99182 56.27864
# Shear Modulus (GPa) = 31.59304 44.43048 38.01176
#
# Velocity S-wave (km/s) = 4.06679 4.82277 4.46083
# Velocity P-wave (km/s) = 7.07764 7.86728 7.48289
#
# Compressibility (1/GPa) = 0.01866875
#
# Stress axis : x y z
#
# Youngs Moduli (GPa) = 49.10251 49.10065 105.38294
#
# Poissons Ratio (x) = 0.40869 0.39270
# Poissons Ratio (y) = 0.40870 0.39269
# Poissons Ratio (z) = 0.18297 0.18296
#
# Static dielectric constant tensor:
#      x y z
#    x 3.774530 0.000000 0.000000 
#    y 0.000000 3.774560 0.000000 
#    z 0.000000 0.000000 3.655060 
# 
# 
# High freq. dielectric constant tensor:
#      x y z
#    x 1.726470 0.000000 0.000000 
#    y 0.000000 1.726470 0.000000 
#    z 0.000000 0.000000 1.751380 
# 
# From -- ./inp_files/1317.got.cif
#   From: 2010.03.12/outbox.cif.g09.slc.cpg/sg124_1_cif.got.tgz:1317.got - 2010.04.06 16:38:57.
