data_PCOD8313907
_publ_section_title
;
Structure prediction by ZEFSAII (Michael W. Deem and Ramdas Pophale) SiO2 
 PCOD8313907
Probable space group: P 4/M B M
;
_chemical_formula_sum "Si O2"
_cell_formula_units_Z 112
_cell_length_a 15.164813
_cell_length_b 15.164813
_cell_length_c 29.490994
_cell_angle_alpha 90.000000
_cell_angle_beta 90.000000
_cell_angle_gamma 90.000000
_cell_volume 6782.089699
_symmetry_space_group_name_H-M "P 4/M B M"
_symmetry_group_IT_number 127
_symmetry_cell_setting 'tetragonal'
loop_
_space_group_symop_operation_xyz
x,y,z
-y,x,z
-x,-y,z
y,-x,z
1/2+x,1/2-y,-z
1/2-x,1/2+y,-z
1/2+y,1/2+x,-z
1/2-y,1/2-x,-z
-x,-y,-z
y,-x,-z
x,y,-z
-y,x,-z
1/2-x,1/2+y,z
1/2+x,1/2-y,z
1/2-y,1/2-x,z
1/2+y,1/2+x,z
loop_
_atom_site_type_symbol
_atom_site_label
_atom_site_fract_x
_atom_site_fract_y
_atom_site_fract_z
Si Si1 0.092949 0.734983 0.276493
Si Si2 0.525807 0.641495 0.052188
Si Si3 0.470347 0.822758 0.798926
Si Si4 0.908592 0.267141 0.874765
Si Si5 0.855716 0.971749 0.646390
Si Si6 0.357206 0.527907 0.452232
Si Si7 0.829009 0.818355 0.200203
O O1 0.174776 0.674776 0.293301
O O2 0.041577 0.775704 0.318945
O O3 0.124663 0.817638 0.245859
O O4 0.028905 0.673080 0.246431
O O5 0.430207 0.601169 0.062985
O O6 0.540373 0.729070 0.081858
O O7 0.530975 0.670497 0.000000
O O8 0.403414 0.903414 0.797904
O O9 0.528498 0.829681 0.844367
O O10 0.423271 0.727484 0.800086
O O11 0.825998 0.325998 0.891484
O O12 0.878561 0.183317 0.844329
O O13 0.808764 0.962588 0.596411
O O14 0.931500 0.897993 0.652822
O O15 0.398944 0.431988 0.452878
O O16 0.301175 0.538870 0.500000
O O17 0.751337 0.748664 0.199413
#
# Coordination Sequence:
#
# PCOD8313907 Si02
#       7
#    16  16  16  16  16  16  16
#     4  10  19  29  41  60  88 118 147 180 218 257
#     4   9  18  33  52  72  93 117 146 180 217 257
#     4  10  19  32  49  65  86 118 152 182 212 252
#     4  10  19  30  47  71  95 118 145 178 217 257
#     4   9  16  26  42  63  85 110 142 179 218 260
#     4   7  10  18  34  57  82 105 132 170 215 260
#     4   8  16  29  43  61  84 111 144 180 215 249
#
# _framework density 16.514084
#
# number of rings (size 3 to 8) (size 9 to 14) (size 15 to 20)
#    0.000    3.000    0.000    4.714    0.000    1.429 
#    0.000    0.000    0.000    8.571    0.000    1.000 
#    0.000    1.714    0.000    1.286    0.000    0.000 
#
# Total GULP energy -1387639.007301 kJ/mol
# GULP energy per Si atom -12389.633994 kJ/mol
# Density = 1.647650 g / cm^3
# Si number density = 16.514084 Si / 1000 Ang^3
#
#
#
# Elastic Constant Matrix: (Units=GPa)
#
#
# Indices 1 2 3 4 5 6 
#
# 1 51.1176 17.3745 34.8559 0.0000 0.0000 0.0000
# 2 17.3745 51.1176 34.8559 0.0000 0.0000 0.0000
# 3 34.8559 34.8559 126.7393 0.0000 0.0000 0.0000
# 4 0.0000 0.0000 0.0000 10.1056 0.0000 0.0000
# 5 0.0000 0.0000 0.0000 0.0000 10.1056 0.0000
# 6 0.0000 0.0000 0.0000 0.0000 0.0000 26.1055
#
#
#
# Elastic Compliance Matrix: (Units=1/GPa)
#
#
# Indices 1 2 3 4 5 6 
#
# 1 0.024956 -0.004680 -0.005576 0.000000 0.000000 0.000000
# 2 -0.004680 0.024956 -0.005576 0.000000 0.000000 0.000000
# 3 -0.005576 -0.005576 0.010957 0.000000 0.000000 0.000000
# 4 0.000000 0.000000 0.000000 0.098955 0.000000 0.000000
# 5 0.000000 0.000000 0.000000 0.000000 0.098955 0.000000
# 6 0.000000 0.000000 0.000000 0.000000 0.000000 0.038306
#
#
# Mechanical properties :
#
#
# Convention : Reuss Voigt Hill
#
# Bulk Modulus (GPa) = 34.24195 44.79409 39.51802
# Shear Modulus (GPa) = 14.77169 18.72254 16.74711
#
# Velocity S-wave (km/s) = 2.99405 3.37075 3.18797
# Velocity P-wave (km/s) = 5.72123 6.50637 6.12639
#
# Compressibility (1/GPa) = 0.02920395
#
# Stress axis : x y z
#
# Youngs Moduli (GPa) = 40.07093 40.07093 91.26273
#
# Poissons Ratio (x) = 0.18753 0.50890
# Poissons Ratio (y) = 0.18753 0.50890
# Poissons Ratio (z) = 0.22345 0.22345
#
# Static dielectric constant tensor:
#      x y z
#    x 2.880700 0.000000 0.000000 
#    y 0.000000 2.880700 0.000000 
#    z 0.000000 0.000000 3.328700 
# 
# 
# High freq. dielectric constant tensor:
#      x y z
#    x 1.609030 0.000000 0.000000 
#    y 0.000000 1.609030 0.000000 
#    z 0.000000 0.000000 1.641700 
# 
# From -- ./inp_files/6371.got.cif
#   From: 2010.03.12/outbox.cif.g09.slc.cpg/sg127_4_cif.got.tgz:6371.got - 2010.04.06 17:03:15.
