data_PCOD8313439
_publ_section_title
;
Structure prediction by ZEFSAII (Michael W. Deem and Ramdas Pophale) SiO2 
 PCOD8313439
Probable space group: P 4/N B M
;
_chemical_formula_sum "Si O2"
_cell_formula_units_Z 96
_cell_length_a 14.655751
_cell_length_b 14.655751
_cell_length_c 23.399207
_cell_angle_alpha 90.000000
_cell_angle_beta 90.000000
_cell_angle_gamma 90.000000
_cell_volume 5025.939945
_symmetry_space_group_name_H-M "P 4/N B M"
_symmetry_group_IT_number 125
_space_group.IT_coordinate_system_code '2'
_symmetry_cell_setting 'tetragonal'
loop_
_space_group_symop_operation_xyz
x,y,z
1/2-y,x,z
1/2-x,1/2-y,z
y,1/2-x,z
x,1/2-y,-z
1/2-x,y,-z
y,x,-z
1/2-y,1/2-x,-z
-x,-y,-z
1/2+y,-x,-z
1/2+x,1/2+y,-z
-y,1/2+x,-z
-x,1/2+y,z
1/2+x,-y,z
-y,-x,z
1/2+y,1/2+x,z
loop_
_atom_site_type_symbol
_atom_site_label
_atom_site_fract_x
_atom_site_fract_y
_atom_site_fract_z
Si Si1 0.100661 0.255637 0.565112
Si Si2 0.772692 0.076862 0.756016
Si Si3 0.494113 0.351407 0.025863
Si Si4 0.069525 0.083048 0.744988
Si Si5 0.498021 0.647692 0.846077
Si Si6 0.836804 0.479051 0.654420
O O1 0.156375 0.163710 0.577236
O O2 0.066286 0.250000 0.500000
O O3 0.011524 0.266560 0.605231
O O4 0.837228 0.162773 0.761696
O O5 0.720996 0.070051 0.816602
O O6 0.708345 0.088764 0.701168
O O7 0.822780 0.982210 0.742653
O O8 0.587517 0.412484 0.019555
O O9 0.508219 0.250000 0.000000
O O10 0.408447 0.408447 0.000000
O O11 0.468589 0.324731 0.091193
O O12 0.132567 0.082136 0.802048
O O13 0.128628 0.070080 0.687554
O O14 0.002755 0.997246 0.748885
O O15 0.447292 0.552709 0.855626
O O16 0.920770 0.420770 0.627120
#
# Coordination Sequence:
#
# PCOD8313439 Si02
#       6
#    16  16  16  16  16  16
#     4   9  18  34  55  76 100 135 182 231 270 305
#     4  10  19  31  53  78 103 140 178 217 271 330
#     4  10  23  41  62  86 116 155 196 243 296 349
#     4   8  16  30  49  73 100 132 170 212 260 319
#     4   9  19  34  51  76 105 133 173 223 272 326
#     4  10  19  32  49  74 110 139 168 216 269 325
#
# _framework density 19.100905000000001
#
# number of rings (size 3 to 8) (size 9 to 14) (size 15 to 20)
#    0.000    2.667    0.000    3.000    2.333    2.333 
#    0.000    4.167    0.000    4.500    0.000    0.000 
#    0.000    0.000    0.000    0.000    0.000    0.000 
#
# Total GULP energy -1189291.838994 kJ/mol
# GULP energy per Si atom -12388.456656 kJ/mol
# Density = 1.905743 g / cm^3
# Si number density = 19.100905 Si / 1000 Ang^3
#
#
#
# Elastic Constant Matrix: (Units=GPa)
#
#
# Indices 1 2 3 4 5 6 
#
# 1 66.0569 31.1235 37.7872 0.0000 0.0000 0.0000
# 2 31.1235 66.0569 37.7872 0.0000 0.0000 0.0000
# 3 37.7872 37.7872 137.9468 0.0000 0.0000 0.0000
# 4 0.0000 0.0000 0.0000 15.8953 0.0000 0.0000
# 5 0.0000 0.0000 0.0000 0.0000 15.8953 0.0000
# 6 0.0000 0.0000 0.0000 0.0000 0.0000 25.9996
#
#
#
# Elastic Compliance Matrix: (Units=1/GPa)
#
#
# Indices 1 2 3 4 5 6 
#
# 1 0.020851 -0.007775 -0.003582 0.000000 0.000000 0.000000
# 2 -0.007775 0.020851 -0.003582 0.000000 0.000000 0.000000
# 3 -0.003582 -0.003582 0.009211 0.000000 0.000000 0.000000
# 4 0.000000 0.000000 0.000000 0.062911 0.000000 0.000000
# 5 0.000000 0.000000 0.000000 0.000000 0.062911 0.000000
# 6 0.000000 0.000000 0.000000 0.000000 0.000000 0.038462
#
#
# Mechanical properties :
#
#
# Convention : Reuss Voigt Hill
#
# Bulk Modulus (GPa) = 47.53844 53.71737 50.62791
# Shear Modulus (GPa) = 19.83442 22.44890 21.14166
#
# Velocity S-wave (km/s) = 3.22592 3.43195 3.33053
# Velocity P-wave (km/s) = 6.23037 6.62483 6.43063
#
# Compressibility (1/GPa) = 0.02103561
#
# Stress axis : x y z
#
# Youngs Moduli (GPa) = 47.96002 47.96002 108.56077
#
# Poissons Ratio (x) = 0.37290 0.38884
# Poissons Ratio (y) = 0.37290 0.38884
# Poissons Ratio (z) = 0.17178 0.17178
#
# Static dielectric constant tensor:
#      x y z
#    x 3.387560 0.000000 0.000000 
#    y 0.000000 3.387560 0.000000 
#    z 0.000000 0.000000 3.581470 
# 
# 
# High freq. dielectric constant tensor:
#      x y z
#    x 1.728190 0.000000 0.000000 
#    y 0.000000 1.728190 0.000000 
#    z 0.000000 0.000000 1.744590 
# 
# From -- ./inp_files/5928.got.cif
#   From: 2010.03.12/outbox.cif.g09.slc.cpg/sg125_3_cif.got.tgz:5928.got - 2010.04.06 16:47:52.
