data_PCOD8313561
_publ_section_title
;
Structure prediction by ZEFSAII (Michael W. Deem and Ramdas Pophale) SiO2 
 PCOD8313561
Probable space group: P 4/N B M
;
_chemical_formula_sum "Si O2"
_cell_formula_units_Z 112
_cell_length_a 14.646379
_cell_length_b 14.646379
_cell_length_c 27.785294
_cell_angle_alpha 90.000000
_cell_angle_beta 90.000000
_cell_angle_gamma 90.000000
_cell_volume 5960.401737
_symmetry_space_group_name_H-M "P 4/N B M"
_symmetry_group_IT_number 125
_space_group.IT_coordinate_system_code '2'
_symmetry_cell_setting 'tetragonal'
loop_
_space_group_symop_operation_xyz
x,y,z
1/2-y,x,z
1/2-x,1/2-y,z
y,1/2-x,z
x,1/2-y,-z
1/2-x,y,-z
y,x,-z
1/2-y,1/2-x,-z
-x,-y,-z
1/2+y,-x,-z
1/2+x,1/2+y,-z
-y,1/2+x,-z
-x,1/2+y,z
1/2+x,-y,z
-y,-x,z
1/2+y,1/2+x,z
loop_
_atom_site_type_symbol
_atom_site_label
_atom_site_fract_x
_atom_site_fract_y
_atom_site_fract_z
Si Si1 0.684078 0.614287 0.112314
Si Si2 0.517166 0.260854 0.446211
Si Si3 0.877061 0.828014 0.779828
Si Si4 0.082949 0.067033 0.411299
Si Si5 0.475785 0.372904 0.313458
Si Si6 0.494237 0.353131 0.021784
Si Si7 0.254738 0.891127 0.649346
O O1 0.791392 0.630544 0.103001
O O2 0.658020 0.583481 0.166456
O O3 0.653910 0.531231 0.078088
O O4 0.556139 0.250000 0.500000
O O5 0.443790 0.182567 0.433688
O O6 0.469441 0.358805 0.442910
O O7 0.599374 0.255096 0.408279
O O8 0.779375 0.872847 0.772034
O O9 0.939004 0.877083 0.740453
O O10 0.095446 0.100501 0.355498
O O11 0.028338 0.971662 0.413580
O O12 0.559771 0.440230 0.318713
O O13 0.514198 0.270240 0.324045
O O14 0.588625 0.411376 0.015219
O O15 0.505117 0.250000 0.000000
O O16 0.407963 0.407963 0.000000
O O17 0.187495 0.812506 0.667173
O O18 0.358601 0.858601 0.661829
#
# Coordination Sequence:
#
# PCOD8313561 Si02
#       7
#    16  16  16  16  16  16  16
#     4   9  17  33  56  82 114 151 195 250 299 338
#     4  11  22  36  55  75 102 137 166 207 269 323
#     4   9  19  33  53  82 113 143 181 232 287 336
#     4  10  23  39  54  78 107 134 175 220 257 320
#     4   9  19  35  53  75 105 140 177 220 276 334
#     4  11  22  35  58  90 121 160 210 253 296 353
#     4   9  19  35  53  74  99 129 174 224 262 316
#
# _framework density 18.790680999999999
#
# number of rings (size 3 to 8) (size 9 to 14) (size 15 to 20)
#    0.000    2.286    1.429    3.000    4.000    4.000 
#    0.000    1.429    0.000    1.714    0.000    2.000 
#    0.000    0.000    0.000    0.000    0.000    0.000 
#
# Total GULP energy -1387631.672430 kJ/mol
# GULP energy per Si atom -12389.568504 kJ/mol
# Density = 1.874791 g / cm^3
# Si number density = 18.790681 Si / 1000 Ang^3
#
#
#
# Elastic Constant Matrix: (Units=GPa)
#
#
# Indices 1 2 3 4 5 6 
#
# 1 57.8663 19.7712 18.4423 0.0000 0.0000 0.0000
# 2 19.7712 57.8663 18.4423 0.0000 0.0000 0.0000
# 3 18.4423 18.4423 113.5021 0.0000 0.0000 0.0000
# 4 0.0000 0.0000 0.0000 24.2557 0.0000 0.0000
# 5 0.0000 0.0000 0.0000 0.0000 24.2557 0.0000
# 6 0.0000 0.0000 0.0000 0.0000 0.0000 18.8831
#
#
#
# Elastic Compliance Matrix: (Units=1/GPa)
#
#
# Indices 1 2 3 4 5 6 
#
# 1 0.020104 -0.006146 -0.002268 0.000000 0.000000 0.000000
# 2 -0.006146 0.020104 -0.002268 0.000000 0.000000 0.000000
# 3 -0.002268 -0.002268 0.009547 0.000000 0.000000 0.000000
# 4 0.000000 0.000000 0.000000 0.041227 0.000000 0.000000
# 5 0.000000 0.000000 0.000000 0.000000 0.041227 0.000000
# 6 0.000000 0.000000 0.000000 0.000000 0.000000 0.052958
#
#
# Mechanical properties :
#
#
# Convention : Reuss Voigt Hill
#
# Bulk Modulus (GPa) = 35.22194 38.06068 36.64131
# Shear Modulus (GPa) = 23.14862 24.98414 24.06638
#
# Velocity S-wave (km/s) = 3.51368 3.65033 3.58266
# Velocity P-wave (km/s) = 5.93686 6.16973 6.05442
#
# Compressibility (1/GPa) = 0.02839140
#
# Stress axis : x y z
#
# Youngs Moduli (GPa) = 49.74145 49.74145 104.74038
#
# Poissons Ratio (x) = 0.30572 0.23754
# Poissons Ratio (y) = 0.30572 0.23754
# Poissons Ratio (z) = 0.11281 0.11281
#
# Static dielectric constant tensor:
#      x y z
#    x 3.407750 0.000000 0.000000 
#    y 0.000000 3.407750 0.000000 
#    z 0.000000 0.000000 3.430540 
# 
# 
# High freq. dielectric constant tensor:
#      x y z
#    x 1.720090 0.000000 0.000000 
#    y 0.000000 1.720090 0.000000 
#    z 0.000000 0.000000 1.724000 
# 
# From -- ./inp_files/6416.got.cif
#   From: 2010.03.12/outbox.cif.g09.slc.cpg/sg125_4_cif.got.tgz:6416.got - 2010.04.06 16:47:52.
