data_PCOD8313789
_publ_section_title
;
Structure prediction by ZEFSAII (Michael W. Deem and Ramdas Pophale) SiO2 
 PCOD8313789
Probable space group: P 4/N N C
;
_chemical_formula_sum "Si O2"
_cell_formula_units_Z 112
_cell_length_a 14.779506
_cell_length_b 14.779506
_cell_length_c 26.519006
_cell_angle_alpha 90.000000
_cell_angle_beta 90.000000
_cell_angle_gamma 90.000000
_cell_volume 5792.647189
_symmetry_space_group_name_H-M "P 4/N N C"
_symmetry_group_IT_number 126
_space_group.IT_coordinate_system_code '2'
_symmetry_cell_setting 'tetragonal'
loop_
_space_group_symop_operation_xyz
x,y,z
1/2-y,x,z
1/2-x,1/2-y,z
y,1/2-x,z
x,1/2-y,1/2-z
1/2-x,y,1/2-z
y,x,1/2-z
1/2-y,1/2-x,1/2-z
-x,-y,-z
1/2+y,-x,-z
1/2+x,1/2+y,-z
-y,1/2+x,-z
-x,1/2+y,1/2+z
1/2+x,-y,1/2+z
-y,-x,1/2+z
1/2+y,1/2+x,1/2+z
loop_
_atom_site_type_symbol
_atom_site_label
_atom_site_fract_x
_atom_site_fract_y
_atom_site_fract_z
Si Si1 0.742630 0.900239 0.926425
Si Si2 0.487630 0.262209 0.641057
Si Si3 0.660070 0.291979 0.693921
Si Si4 0.247008 0.101745 0.539612
Si Si5 0.960713 0.909135 0.696121
Si Si6 0.936294 0.912604 0.190704
Si Si7 0.787790 0.495792 0.831723
O O1 0.656676 0.834529 0.917672
O O2 0.741432 0.989886 0.890548
O O3 0.743205 0.939149 0.983435
O O4 0.591612 0.249176 0.654559
O O5 0.477108 0.248403 0.581192
O O6 0.429288 0.190867 0.673018
O O7 0.466093 0.361786 0.659856
O O8 0.750000 0.250000 0.672759
O O9 0.639578 0.250000 0.750000
O O10 0.668610 0.401570 0.688327
O O11 0.336784 0.159745 0.548459
O O12 0.953691 0.953691 0.750000
O O13 0.984420 0.802930 0.700386
O O14 0.862344 0.924719 0.671740
O O15 0.043514 0.967543 0.672618
O O16 0.917015 0.917015 0.250000
#
# Coordination Sequence:
#
# PCOD8313789 Si02
#       7
#    16  16  16  16  16  16  16
#     4   9  18  36  63  95 127 162 204 258 333 397
#     4  12  21  38  62  90 125 165 213 271 318 378
#     4  11  26  42  65  85 123 179 222 240 305 404
#     4   9  18  35  61  92 126 164 203 258 330 398
#     4  11  25  38  60  91 128 163 204 264 323 393
#     4  11  23  37  56  87 128 168 215 262 318 384
#     4  12  22  41  65  93 126 162 210 271 322 379
#
# _framework density 19.334857
#
# number of rings (size 3 to 8) (size 9 to 14) (size 15 to 20)
#    0.000    1.286    4.286    3.429    6.000    0.571 
#    0.000    1.429    6.286    3.429    0.000    0.000 
#    0.000    0.000    0.000    0.000    0.000    0.000 
#
# Total GULP energy -1387486.064762 kJ/mol
# GULP energy per Si atom -12388.268435 kJ/mol
# Density = 1.929085 g / cm^3
# Si number density = 19.334857 Si / 1000 Ang^3
#
#
#
# Elastic Constant Matrix: (Units=GPa)
#
#
# Indices 1 2 3 4 5 6 
#
# 1 83.4706 0.0197 44.0507 0.0000 0.0000 0.0000
# 2 0.0197 83.4706 44.0507 0.0000 0.0000 0.0000
# 3 44.0507 44.0507 113.1048 0.0000 0.0000 0.0000
# 4 0.0000 0.0000 0.0000 30.5558 0.0000 0.0000
# 5 0.0000 0.0000 0.0000 0.0000 30.5558 0.0000
# 6 0.0000 0.0000 0.0000 0.0000 0.0000 26.6362
#
#
#
# Elastic Compliance Matrix: (Units=1/GPa)
#
#
# Indices 1 2 3 4 5 6 
#
# 1 0.016159 0.004176 -0.007920 0.000000 0.000000 0.000000
# 2 0.004176 0.016159 -0.007920 0.000000 0.000000 0.000000
# 3 -0.007920 -0.007920 0.015010 0.000000 0.000000 0.000000
# 4 0.000000 0.000000 0.000000 0.032727 0.000000 0.000000
# 5 0.000000 0.000000 0.000000 0.000000 0.032727 0.000000
# 6 0.000000 0.000000 0.000000 0.000000 0.000000 0.037543
#
#
# Mechanical properties :
#
#
# Convention : Reuss Voigt Hill
#
# Bulk Modulus (GPa) = 41.66554 50.69871 46.18212
# Shear Modulus (GPa) = 27.52514 30.34454 28.93484
#
# Velocity S-wave (km/s) = 3.77716 3.96589 3.87267
# Velocity P-wave (km/s) = 6.37329 6.87382 6.62828
#
# Compressibility (1/GPa) = 0.02400065
#
# Stress axis : x y z
#
# Youngs Moduli (GPa) = 61.88587 61.88587 66.62114
#
# Poissons Ratio (x) = -0.25842 0.52761
# Poissons Ratio (y) = -0.25842 0.52761
# Poissons Ratio (z) = 0.49011 0.49011
#
# Static dielectric constant tensor:
#      x y z
#    x 3.584130 0.000000 0.000000 
#    y 0.000000 3.584130 0.000000 
#    z 0.000000 0.000000 3.537030 
# 
# 
# High freq. dielectric constant tensor:
#      x y z
#    x 1.749150 0.000000 0.000000 
#    y 0.000000 1.749150 0.000000 
#    z 0.000000 0.000000 1.743680 
# 
# From -- ./inp_files/6639.got.cif
#   From: 2010.03.12/outbox.cif.g09.slc.cpg/sg126_4_cif.got.tgz:6639.got - 2010.04.06 16:55:23.
