data_PCOD8313143
_publ_section_title
;
Structure prediction by ZEFSAII (Michael W. Deem and Ramdas Pophale) SiO2 
 PCOD8313143
Probable space group: P 4/M C C
;
_chemical_formula_sum "Si O2"
_cell_formula_units_Z 96
_cell_length_a 15.048302
_cell_length_b 15.048302
_cell_length_c 26.586754
_cell_angle_alpha 90.000000
_cell_angle_beta 90.000000
_cell_angle_gamma 90.000000
_cell_volume 6020.607481
_symmetry_space_group_name_H-M "P 4/M C C"
_symmetry_group_IT_number 124
_symmetry_cell_setting 'tetragonal'
loop_
_space_group_symop_operation_xyz
x,y,z
-y,x,z
-x,-y,z
y,-x,z
x,-y,1/2-z
-x,y,1/2-z
y,x,1/2-z
-y,-x,1/2-z
-x,-y,-z
y,-x,-z
x,y,-z
-y,x,-z
-x,y,1/2+z
x,-y,1/2+z
-y,-x,1/2+z
y,x,1/2+z
loop_
_atom_site_type_symbol
_atom_site_label
_atom_site_fract_x
_atom_site_fract_y
_atom_site_fract_z
Si Si1 0.809259 0.599275 0.440203
Si Si2 0.145912 0.009077 0.306568
Si Si3 0.758091 0.058642 0.098698
Si Si4 0.214390 0.876212 0.442111
Si Si5 0.436386 0.915651 0.057271
Si Si6 0.380283 0.567410 0.059786
O O1 0.819545 0.594714 0.500000
O O2 0.862679 0.685053 0.420715
O O3 0.840125 0.502203 0.420049
O O4 0.708616 0.615198 0.421436
O O5 0.228744 0.023346 0.344158
O O6 0.081200 0.092199 0.316421
O O7 0.183409 0.000000 0.250000
O O8 0.815038 0.147194 0.089107
O O9 0.653152 0.075478 0.089989
O O10 0.800954 0.981820 0.063331
O O11 0.206058 0.847319 0.500000
O O12 0.500000 0.000000 0.058758
O O13 0.405342 0.896024 0.000000
O O14 0.380653 0.465906 0.080257
O O15 0.381741 0.564492 0.000000
#
# Coordination Sequence:
#
# PCOD8313143 Si02
#       6
#    16  16  16  16  16  16
#     4   9  18  30  42  59  87 130 174 204 229 277
#     4   9  18  35  55  73  94 122 159 204 253 300
#     4  12  21  33  50  73  96 128 163 205 248 287
#     4  11  22  32  44  68 103 135 167 198 237 291
#     4  10  19  32  46  62  94 137 170 192 224 283
#     4   8  14  24  38  56  78 107 153 212 256 271
#
# _framework density 15.945236
#
# number of rings (size 3 to 8) (size 9 to 14) (size 15 to 20)
#    0.000    2.167    3.333    2.500    2.333    0.333 
#    0.000    0.833    0.000    0.500    0.000    0.000 
#    0.000    0.000    0.000    0.000    0.000    0.000 
#
# Total GULP energy -1189281.462147 kJ/mol
# GULP energy per Si atom -12388.348564 kJ/mol
# Density = 1.590894 g / cm^3
# Si number density = 15.945236 Si / 1000 Ang^3
#
#
#
# Elastic Constant Matrix: (Units=GPa)
#
#
# Indices 1 2 3 4 5 6 
#
# 1 91.5546 27.3835 26.6271 0.0000 0.0000 0.0000
# 2 27.3835 91.5546 26.6271 0.0000 0.0000 0.0000
# 3 26.6271 26.6271 62.1469 0.0000 0.0000 0.0000
# 4 0.0000 0.0000 0.0000 14.8601 0.0000 0.0000
# 5 0.0000 0.0000 0.0000 0.0000 14.8601 0.0000
# 6 0.0000 0.0000 0.0000 0.0000 0.0000 21.2545
#
#
#
# Elastic Compliance Matrix: (Units=1/GPa)
#
#
# Indices 1 2 3 4 5 6 
#
# 1 0.012993 -0.002590 -0.004457 0.000000 0.000000 0.000000
# 2 -0.002590 0.012993 -0.004457 0.000000 0.000000 0.000000
# 3 -0.004457 -0.004457 0.019911 0.000000 0.000000 0.000000
# 4 0.000000 0.000000 0.000000 0.067294 0.000000 0.000000
# 5 0.000000 0.000000 0.000000 0.000000 0.067294 0.000000
# 6 0.000000 0.000000 0.000000 0.000000 0.000000 0.047049
#
#
# Mechanical properties :
#
#
# Convention : Reuss Voigt Hill
#
# Bulk Modulus (GPa) = 43.69129 45.17014 44.43071
# Shear Modulus (GPa) = 19.36684 21.16953 20.26818
#
# Velocity S-wave (km/s) = 3.48887 3.64763 3.56913
# Velocity P-wave (km/s) = 6.60984 6.79191 6.70149
#
# Compressibility (1/GPa) = 0.02288786
#
# Stress axis : x y z
#
# Youngs Moduli (GPa) = 76.96193 76.96193 50.22471
#
# Poissons Ratio (x) = 0.19932 0.22387
# Poissons Ratio (y) = 0.19932 0.22387
# Poissons Ratio (z) = 0.34305 0.34305
#
# Static dielectric constant tensor:
#      x y z
#    x 3.247900 0.000000 0.000000 
#    y 0.000000 3.247900 0.000000 
#    z 0.000000 0.000000 2.568970 
# 
# 
# High freq. dielectric constant tensor:
#      x y z
#    x 1.621000 0.000000 0.000000 
#    y 0.000000 1.621000 0.000000 
#    z 0.000000 0.000000 1.539350 
# 
# From -- ./inp_files/7179.got.cif
#   From: 2010.03.12/outbox.cif.g09.slc.cpg/sg124_4_cif.got.tgz:7179.got - 2010.04.06 16:38:57.
