data_PCOD8313475
_publ_section_title
;
Structure prediction by ZEFSAII (Michael W. Deem and Ramdas Pophale) SiO2 
 PCOD8313475
Probable space group: P 4/N B M
;
_chemical_formula_sum "Si O2"
_cell_formula_units_Z 80
_cell_length_a 12.587993
_cell_length_b 12.587993
_cell_length_c 29.138252
_cell_angle_alpha 90.000000
_cell_angle_beta 90.000000
_cell_angle_gamma 90.000000
_cell_volume 4617.176541
_symmetry_space_group_name_H-M "P 4/N B M"
_symmetry_group_IT_number 125
_space_group.IT_coordinate_system_code '2'
_symmetry_cell_setting 'tetragonal'
loop_
_space_group_symop_operation_xyz
x,y,z
1/2-y,x,z
1/2-x,1/2-y,z
y,1/2-x,z
x,1/2-y,-z
1/2-x,y,-z
y,x,-z
1/2-y,1/2-x,-z
-x,-y,-z
1/2+y,-x,-z
1/2+x,1/2+y,-z
-y,1/2+x,-z
-x,1/2+y,z
1/2+x,-y,z
-y,-x,z
1/2+y,1/2+x,z
loop_
_atom_site_type_symbol
_atom_site_label
_atom_site_fract_x
_atom_site_fract_y
_atom_site_fract_z
Si Si1 0.500000 0.500001 0.075129
Si Si2 0.500000 0.000000 0.225387
Si Si3 0.125511 0.374489 0.849741
Si Si4 1.000000 0.500000 0.375730
Si Si5 0.873205 0.873205 0.550306
Si Si6 0.874490 0.125511 0.000000
Si Si7 0.125510 0.625510 0.699486
Si Si8 0.374491 0.625510 0.699486
O O1 0.425015 0.425016 0.105079
O O2 0.425015 0.574986 0.045181
O O3 0.574986 0.425014 0.045181
O O4 0.425010 0.074991 0.195442
O O5 0.575026 0.075026 0.255310
O O6 0.424975 0.924975 0.255310
O O7 0.101180 0.250000 0.849741
O O8 0.928512 0.571487 0.407663
O O9 0.925250 0.425250 0.345602
O O10 0.074750 0.574750 0.345602
O O11 0.750000 0.897820 0.554753
O O12 0.913114 0.913114 0.500000
O O13 0.898822 0.250000 0.000000
O O14 0.250001 0.601129 0.699474
#
# Coordination Sequence:
#
# PCOD8313475 Si02
#       8
#     8   8  16   8  16   8   8   8
#     4  10  20  34  52  75 103 136 166 200 250 292
#     4  10  20  35  55  73  95 129 165 198 240 292
#     4  10  20  34  53  77 102 127 161 205 248 291
#     4  11  19  31  51  73  95 125 161 197 237 284
#     4   9  18  32  49  70  96 125 158 196 237 282
#     4  10  20  34  52  74 102 136 174 208 236 280
#     4  10  21  35  50  71  99 128 159 197 241 288
#     4  10  21  35  50  71  99 128 159 197 241 288
#
# _framework density 17.326608
#
# number of rings (size 3 to 8) (size 9 to 14) (size 15 to 20)
#    0.000    2.100    0.000    4.500    0.000    0.000 
#    0.000    0.000    0.000   24.000    0.000    8.400 
#    0.000    0.000    0.000    0.000    0.000    0.000 
#
# Total GULP energy -992077.070896 kJ/mol
# GULP energy per Si atom -12400.963386 kJ/mol
# Density = 1.728717 g / cm^3
# Si number density = 17.326608 Si / 1000 Ang^3
#
#
#
# Elastic Constant Matrix: (Units=GPa)
#
#
# Indices 1 2 3 4 5 6 
#
# 1 132.3014 90.8413 89.9701 0.0000 0.0000 0.0000
# 2 90.8413 132.3014 89.9701 0.0000 0.0000 0.0000
# 3 89.9701 89.9701 166.7645 0.0000 0.0000 0.0000
# 4 0.0000 0.0000 0.0000 19.7650 0.0000 0.0000
# 5 0.0000 0.0000 0.0000 0.0000 19.7650 0.0000
# 6 0.0000 0.0000 0.0000 0.0000 0.0000 33.6192
#
#
#
# Elastic Compliance Matrix: (Units=1/GPa)
#
#
# Indices 1 2 3 4 5 6 
#
# 1 0.016026 -0.008094 -0.004280 0.000000 0.000000 0.000000
# 2 -0.008094 0.016026 -0.004280 0.000000 0.000000 0.000000
# 3 -0.004280 -0.004280 0.010614 0.000000 0.000000 0.000000
# 4 0.000000 0.000000 0.000000 0.050594 0.000000 0.000000
# 5 0.000000 0.000000 0.000000 0.000000 0.050594 0.000000
# 6 0.000000 0.000000 0.000000 0.000000 0.000000 0.029745
#
#
# Mechanical properties :
#
#
# Convention : Reuss Voigt Hill
#
# Bulk Modulus (GPa) = 106.82912 108.10335 107.46624
# Shear Modulus (GPa) = 23.80661 25.33557 24.57109
#
# Velocity S-wave (km/s) = 3.71076 3.82807 3.76987
# Velocity P-wave (km/s) = 8.95263 9.05902 9.00598
#
# Compressibility (1/GPa) = 0.00936074
#
# Stress axis : x y z
#
# Youngs Moduli (GPa) = 62.39855 62.39855 94.21349
#
# Poissons Ratio (x) = 0.50503 0.40320
# Poissons Ratio (y) = 0.50503 0.40320
# Poissons Ratio (z) = 0.26704 0.26704
#
# Static dielectric constant tensor:
#      x y z
#    x 3.262880 0.000000 0.000000 
#    y 0.000000 3.262880 0.000000 
#    z 0.000000 0.000000 3.351430 
# 
# 
# High freq. dielectric constant tensor:
#      x y z
#    x 1.679060 0.000000 0.000000 
#    y 0.000000 1.679060 0.000000 
#    z 0.000000 0.000000 1.686020 
# 
# From -- ./inp_files/6504.got.cif
#   From: 2010.03.12/outbox.cif.g09.slc.cpg/sg125_4_cif.got.tgz:6504.got - 2010.04.06 16:47:52.
