data_PCOD8313664
_publ_section_title
;
Structure prediction by ZEFSAII (Michael W. Deem and Ramdas Pophale) SiO2 
 PCOD8313664
Probable space group: P 4/N N C
;
_chemical_formula_sum "Si O2"
_cell_formula_units_Z 64
_cell_length_a 20.004618
_cell_length_b 20.004618
_cell_length_c 8.306713
_cell_angle_alpha 90.000000
_cell_angle_beta 90.000000
_cell_angle_gamma 90.000000
_cell_volume 3324.219793
_symmetry_space_group_name_H-M "P 4/N N C"
_symmetry_group_IT_number 126
_space_group.IT_coordinate_system_code '2'
_symmetry_cell_setting 'tetragonal'
loop_
_space_group_symop_operation_xyz
x,y,z
1/2-y,x,z
1/2-x,1/2-y,z
y,1/2-x,z
x,1/2-y,1/2-z
1/2-x,y,1/2-z
y,x,1/2-z
1/2-y,1/2-x,1/2-z
-x,-y,-z
1/2+y,-x,-z
1/2+x,1/2+y,-z
-y,1/2+x,-z
-x,1/2+y,1/2+z
1/2+x,-y,1/2+z
-y,-x,1/2+z
1/2+y,1/2+x,1/2+z
loop_
_atom_site_type_symbol
_atom_site_label
_atom_site_fract_x
_atom_site_fract_y
_atom_site_fract_z
Si Si1 0.867501 0.491204 0.437673
Si Si2 0.417121 0.366501 0.969092
Si Si3 0.537354 0.750000 0.250000
Si Si4 0.910408 0.480357 0.788367
Si Si5 0.672983 0.672983 0.750000
O O1 0.903805 0.561183 0.389207
O O2 0.791071 0.491274 0.374997
O O3 0.865792 0.475780 0.627745
O O4 0.907090 0.433425 0.342704
O O5 0.416956 0.304754 0.843872
O O6 0.487053 0.367254 0.067066
O O7 0.355515 0.360298 0.090678
O O8 0.974588 0.525413 0.750000
O O9 0.750000 0.655726 0.750000
#
# Coordination Sequence:
#
# PCOD8313664 Si02
#       5
#    16  16   8  16   8
#     4  11  21  37  55  86 112 152 186 244 295 355
#     4  11  21  38  56  82 110 156 198 248 286 343
#     4  12  24  32  56  81 122 145 196 238 294 344
#     4  10  19  35  61  80 112 144 196 240 307 346
#     4  11  22  36  54  76 114 166 206 232 279 336
#
# _framework density 19.252637
#
# number of rings (size 3 to 8) (size 9 to 14) (size 15 to 20)
#    0.000    1.125    3.750    8.250    0.000    0.000 
#    0.000    0.000    0.000    1.500    0.000    0.000 
#    0.000   48.000    0.000    0.000    0.000    0.000 
#
# Total GULP energy -793486.319065 kJ/mol
# GULP energy per Si atom -12398.223735 kJ/mol
# Density = 1.920882 g / cm^3
# Si number density = 19.252637 Si / 1000 Ang^3
#
#
#
# Elastic Constant Matrix: (Units=GPa)
#
#
# Indices 1 2 3 4 5 6 
#
# 1 72.7822 48.5081 39.8681 0.0000 0.0000 0.0000
# 2 48.5081 72.7828 39.8681 0.0000 0.0000 0.0000
# 3 39.8681 39.8681 90.6361 0.0000 0.0000 0.0000
# 4 0.0000 0.0000 0.0000 40.5759 0.0000 0.0000
# 5 0.0000 0.0000 0.0000 0.0000 40.5756 0.0000
# 6 0.0000 0.0000 0.0000 0.0000 0.0000 25.4227
#
#
#
# Elastic Compliance Matrix: (Units=1/GPa)
#
#
# Indices 1 2 3 4 5 6 
#
# 1 0.026397 -0.014798 -0.005102 0.000000 0.000000 0.000000
# 2 -0.014798 0.026397 -0.005102 0.000000 0.000000 0.000000
# 3 -0.005102 -0.005102 0.015521 0.000000 0.000000 0.000000
# 4 0.000000 0.000000 0.000000 0.024645 0.000000 0.000000
# 5 0.000000 0.000000 0.000000 0.000000 0.024645 0.000000
# 6 0.000000 0.000000 0.000000 0.000000 0.000000 0.039335
#
#
# Mechanical properties :
#
#
# Convention : Reuss Voigt Hill
#
# Bulk Modulus (GPa) = 54.61145 54.74329 54.67737
# Shear Modulus (GPa) = 23.46875 28.51198 25.99037
#
# Velocity S-wave (km/s) = 3.49519 3.85247 3.67817
# Velocity P-wave (km/s) = 6.68698 6.94871 6.81910
#
# Compressibility (1/GPa) = 0.01831118
#
# Stress axis : x y z
#
# Youngs Moduli (GPa) = 37.88274 37.88318 64.42698
#
# Poissons Ratio (x) = 0.56061 0.32870
# Poissons Ratio (y) = 0.56061 0.32869
# Poissons Ratio (z) = 0.19328 0.19327
#
# Static dielectric constant tensor:
#      x y z
#    x 3.378680 0.000000 0.000000 
#    y 0.000000 3.378670 0.000000 
#    z 0.000000 0.000000 3.829390 
# 
# 
# High freq. dielectric constant tensor:
#      x y z
#    x 1.716860 0.000000 0.000000 
#    y 0.000000 1.716860 0.000000 
#    z 0.000000 0.000000 1.779120 
# 
# From -- ./inp_files/1517.got.cif
#   From: 2010.03.12/outbox.cif.g09.slc.cpg/sg126_1_cif.got.tgz:1517.got - 2010.04.06 16:55:23.
