data_PCOD8313636
_publ_section_title
;
Structure prediction by ZEFSAII (Michael W. Deem and Ramdas Pophale) SiO2 
 PCOD8313636
Probable space group: P 4/N B M
;
_chemical_formula_sum "Si O2"
_cell_formula_units_Z 64
_cell_length_a 19.196495
_cell_length_b 19.196495
_cell_length_c 12.220483
_cell_angle_alpha 90.000000
_cell_angle_beta 90.000000
_cell_angle_gamma 90.000000
_cell_volume 4503.314224
_symmetry_space_group_name_H-M "P 4/N B M"
_symmetry_group_IT_number 125
_space_group.IT_coordinate_system_code '2'
_symmetry_cell_setting 'tetragonal'
loop_
_space_group_symop_operation_xyz
x,y,z
1/2-y,x,z
1/2-x,1/2-y,z
y,1/2-x,z
x,1/2-y,-z
1/2-x,y,-z
y,x,-z
1/2-y,1/2-x,-z
-x,-y,-z
1/2+y,-x,-z
1/2+x,1/2+y,-z
-y,1/2+x,-z
-x,1/2+y,z
1/2+x,-y,z
-y,-x,z
1/2+y,1/2+x,z
loop_
_atom_site_type_symbol
_atom_site_label
_atom_site_fract_x
_atom_site_fract_y
_atom_site_fract_z
Si Si1 0.830247 0.560691 0.792696
Si Si2 0.058171 0.441832 0.625589
Si Si3 0.886340 0.496435 0.000000
Si Si4 0.330244 0.060690 0.792696
O O1 0.871212 0.531388 0.685712
O O2 0.750001 0.571038 0.763102
O O3 0.864293 0.635708 0.825624
O O4 0.838913 0.506576 0.892540
O O5 0.074797 0.425204 0.500000
O O6 0.128793 0.468613 0.685711
O O7 0.000003 0.500003 0.639024
O O8 0.918714 0.418714 0.000001
O O9 0.838912 0.506575 0.107460
O O10 0.948836 0.551165 0.000000
#
# Coordination Sequence:
#
# PCOD8313636 Si02
#       4
#    16  16  16  16
#     4   9  18  28  43  65  92 122 151 179 217 267
#     4   9  18  31  46  62  85 119 157 195 225 252
#     4   9  15  26  45  63  84 114 149 189 226 256
#     4   9  18  28  43  65  92 122 151 179 217 267
#
# _framework density 14.211755999999999
#
# number of rings (size 3 to 8) (size 9 to 14) (size 15 to 20)
#    1.500    1.500    0.000    2.250    0.000    1.500 
#    0.000    0.000    0.000    6.000    0.000    0.000 
#    0.000   41.000    0.000   22.000    0.000    0.000 
#
# Total GULP energy -792899.606595 kJ/mol
# GULP energy per Si atom -12389.056353 kJ/mol
# Density = 1.417941 g / cm^3
# Si number density = 14.211756 Si / 1000 Ang^3
#
#
#
# Elastic Constant Matrix: (Units=GPa)
#
#
# Indices 1 2 3 4 5 6 
#
# 1 57.0999 52.5585 42.0259 0.0000 0.0000 0.0000
# 2 52.5585 57.0999 42.0262 0.0000 0.0000 0.0000
# 3 42.0259 42.0262 134.6970 0.0000 0.0000 0.0000
# 4 0.0000 0.0000 0.0000 11.6632 0.0000 0.0000
# 5 0.0000 0.0000 0.0000 0.0000 11.6630 0.0000
# 6 0.0000 0.0000 0.0000 0.0000 0.0000 12.7985
#
#
#
# Elastic Compliance Matrix: (Units=1/GPa)
#
#
# Indices 1 2 3 4 5 6 
#
# 1 0.116091 -0.104106 -0.003739 0.000000 0.000000 0.000000
# 2 -0.104106 0.116091 -0.003740 0.000000 0.000000 0.000000
# 3 -0.003739 -0.003740 0.009758 0.000000 0.000000 0.000000
# 4 0.000000 0.000000 0.000000 0.085740 0.000000 0.000000
# 5 0.000000 0.000000 0.000000 0.000000 0.085741 0.000000
# 6 0.000000 0.000000 0.000000 0.000000 0.000000 0.078134
#
#
# Mechanical properties :
#
#
# Convention : Reuss Voigt Hill
#
# Bulk Modulus (GPa) = 53.27509 58.01312 55.64410
# Shear Modulus (GPa) = 6.93500 14.71070 10.82285
#
# Velocity S-wave (km/s) = 2.21141 3.22080 2.76260
# Velocity P-wave (km/s) = 6.63992 7.39868 7.02955
#
# Compressibility (1/GPa) = 0.01877050
#
# Stress axis : x y z
#
# Youngs Moduli (GPa) = 8.61394 8.61390 102.48443
#
# Poissons Ratio (x) = 0.89676 0.38321
# Poissons Ratio (y) = 0.89676 0.38328
# Poissons Ratio (z) = 0.03221 0.03221
#
# Static dielectric constant tensor:
#      x y z
#    x 2.514470 0.000000 0.000000 
#    y 0.000000 2.514480 0.000000 
#    z 0.000000 0.000000 2.866760 
# 
# 
# High freq. dielectric constant tensor:
#      x y z
#    x 1.514500 0.000000 0.000000 
#    y 0.000000 1.514500 0.000000 
#    z 0.000000 0.000000 1.551020 
# 
# From -- ./inp_files/3942.got.cif
#   From: 2010.03.12/outbox.cif.g09.slc.cpg/sg125_2_cif.got.tgz:3942.got - 2010.04.06 16:47:52.
