data_PCOD8313445
_publ_section_title
;
Structure prediction by ZEFSAII (Michael W. Deem and Ramdas Pophale) SiO2 
 PCOD8313445
Probable space group: P 4/N B M
;
_chemical_formula_sum "Si O2"
_cell_formula_units_Z 96
_cell_length_a 15.190504
_cell_length_b 15.190504
_cell_length_c 22.001318
_cell_angle_alpha 90.000000
_cell_angle_beta 90.000000
_cell_angle_gamma 90.000000
_cell_volume 5076.835189
_symmetry_space_group_name_H-M "P 4/N B M"
_symmetry_group_IT_number 125
_space_group.IT_coordinate_system_code '2'
_symmetry_cell_setting 'tetragonal'
loop_
_space_group_symop_operation_xyz
x,y,z
1/2-y,x,z
1/2-x,1/2-y,z
y,1/2-x,z
x,1/2-y,-z
1/2-x,y,-z
y,x,-z
1/2-y,1/2-x,-z
-x,-y,-z
1/2+y,-x,-z
1/2+x,1/2+y,-z
-y,1/2+x,-z
-x,1/2+y,z
1/2+x,-y,z
-y,-x,z
1/2+y,1/2+x,z
loop_
_atom_site_type_symbol
_atom_site_label
_atom_site_fract_x
_atom_site_fract_y
_atom_site_fract_z
Si Si1 0.279367 0.109323 0.274140
Si Si2 0.440864 0.559137 0.421666
Si Si3 0.538764 0.246370 0.364826
Si Si4 0.439474 0.708689 0.933898
Si Si5 0.176070 0.676070 0.855122
Si Si6 0.788406 0.890173 0.137706
Si Si7 0.681786 0.181786 0.275751
Si Si8 0.084331 0.584331 0.436812
O O1 0.352595 0.182563 0.282838
O O2 0.293046 0.070198 0.206412
O O3 0.290214 0.041142 0.328640
O O4 0.350207 0.522402 0.392973
O O5 0.514696 0.485305 0.409212
O O6 0.421340 0.578661 0.491325
O O7 0.613717 0.235997 0.315204
O O8 0.563570 0.315733 0.417097
O O9 0.376376 0.623625 0.933414
O O10 0.408639 0.786118 0.889160
O O11 0.536190 0.682048 0.910516
O O12 0.444616 0.750000 0.000000
O O13 0.250000 0.750000 0.858017
O O14 0.143440 0.643440 0.787709
O O15 0.689402 0.856160 0.127442
O O16 0.750000 0.250000 0.248627
#
# Coordination Sequence:
#
# PCOD8313445 Si02
#       8
#    16   8  16  16   8  16   8   8
#     4   9  18  35  60  85 111 145 186 235 294 349
#     4  10  24  37  55  82 113 156 194 234 282 341
#     4  11  20  35  58  81 114 144 191 232 280 337
#     4  11  21  37  58  83 112 154 198 237 284 344
#     4   9  19  33  55  74 114 145 178 226 289 342
#     4   9  20  40  61  83 116 153 189 238 303 358
#     4  10  19  33  49  83 105 139 177 224 276 341
#     4  11  22  39  55  79 116 154 193 234 287 335
#
# _framework density 18.909419
#
# number of rings (size 3 to 8) (size 9 to 14) (size 15 to 20)
#    0.000    2.000    1.667    3.500    0.000    0.667 
#    3.000    2.500    7.333    0.000    0.000    7.000 
#    0.000    0.000    0.000    0.000    0.000    0.000 
#
# Total GULP energy -1189844.303395 kJ/mol
# GULP energy per Si atom -12394.211494 kJ/mol
# Density = 1.886638 g / cm^3
# Si number density = 18.909419 Si / 1000 Ang^3
#
#
#
# Elastic Constant Matrix: (Units=GPa)
#
#
# Indices 1 2 3 4 5 6 
#
# 1 32.9534 45.2399 30.9729 0.0000 0.0000 0.0000
# 2 45.2399 32.9534 30.9729 0.0000 0.0000 0.0000
# 3 30.9729 30.9729 108.1369 0.0000 0.0000 0.0000
# 4 0.0000 0.0000 0.0000 22.2270 0.0000 0.0000
# 5 0.0000 0.0000 0.0000 0.0000 22.2270 0.0000
# 6 0.0000 0.0000 0.0000 0.0000 0.0000 18.3229
#
#
#
# Elastic Compliance Matrix: (Units=1/GPa)
#
#
# Indices 1 2 3 4 5 6 
#
# 1 -0.032424 0.048966 -0.004738 0.000000 0.000000 0.000000
# 2 0.048966 -0.032424 -0.004738 0.000000 0.000000 0.000000
# 3 -0.004738 -0.004738 0.011962 0.000000 0.000000 0.000000
# 4 0.000000 0.000000 0.000000 0.044990 0.000000 0.000000
# 5 0.000000 0.000000 0.000000 0.000000 0.044990 0.000000
# 6 0.000000 0.000000 0.000000 0.000000 0.000000 0.054577
#
#
# Mechanical properties :
#
#
# Convention : Reuss Voigt Hill
#
# Bulk Modulus (GPa) = 38.32284 43.15725 40.74004
# Shear Modulus (GPa) = 233.76634 17.01256 125.38945
#
# Velocity S-wave (km/s) = 11.13071 3.00273 8.15196
# Velocity P-wave (km/s) = 13.61987 5.90716 10.49751
#
# Compressibility (1/GPa) = 0.02609410
#
# Stress axis : x y z
#
# Youngs Moduli (GPa) = -30.84136 -30.84136 83.59970
#
# Poissons Ratio (x) = 1.51019 0.39611
# Poissons Ratio (y) = 1.51019 0.39611
# Poissons Ratio (z) = -0.14613 -0.14613
#
# Static dielectric constant tensor:
#      x y z
#    x 3.572320 0.000000 0.000000 
#    y 0.000000 3.572320 0.000000 
#    z 0.000000 0.000000 3.519990 
# 
# 
# High freq. dielectric constant tensor:
#      x y z
#    x 1.728550 0.000000 0.000000 
#    y 0.000000 1.728550 0.000000 
#    z 0.000000 0.000000 1.747670 
# 
# From -- ./inp_files/5994.got.cif
#   From: 2010.03.12/outbox.cif.g09.slc.cpg/sg125_3_cif.got.tgz:5994.got - 2010.04.06 16:47:52.
