data_PCOD8313152
_publ_section_title
;
Structure prediction by ZEFSAII (Michael W. Deem and Ramdas Pophale) SiO2 
 PCOD8313152
Probable space group: P 4/M C C
;
_chemical_formula_sum "Si O2"
_cell_formula_units_Z 112
_cell_length_a 18.963035
_cell_length_b 18.963035
_cell_length_c 16.690469
_cell_angle_alpha 90.000000
_cell_angle_beta 90.000000
_cell_angle_gamma 90.000000
_cell_volume 6001.837514
_symmetry_space_group_name_H-M "P 4/M C C"
_symmetry_group_IT_number 124
_symmetry_cell_setting 'tetragonal'
loop_
_space_group_symop_operation_xyz
x,y,z
-y,x,z
-x,-y,z
y,-x,z
x,-y,1/2-z
-x,y,1/2-z
y,x,1/2-z
-y,-x,1/2-z
-x,-y,-z
y,-x,-z
x,y,-z
-y,x,-z
-x,y,1/2+z
x,-y,1/2+z
-y,-x,1/2+z
y,x,1/2+z
loop_
_atom_site_type_symbol
_atom_site_label
_atom_site_fract_x
_atom_site_fract_y
_atom_site_fract_z
Si Si1 0.565513 0.830830 0.594675
Si Si2 0.351593 0.971588 0.094567
Si Si3 0.255328 0.666477 0.307502
Si Si4 0.149344 0.112889 0.839929
Si Si5 0.025147 0.806723 0.592244
Si Si6 0.810152 0.290878 0.153194
Si Si7 0.887217 0.581043 0.408748
O O1 0.565250 0.812717 0.500000
O O2 0.614767 0.896767 0.616239
O O3 0.594920 0.761790 0.643585
O O4 0.488322 0.850640 0.629495
O O5 0.272335 0.972664 0.128829
O O6 0.397166 0.037395 0.131255
O O7 0.349486 0.982331 0.000000
O O8 0.327688 0.672312 0.250000
O O9 0.190644 0.682919 0.246169
O O10 0.261899 0.731806 0.370677
O O11 0.126099 0.126099 0.750000
O O12 0.144994 0.030023 0.859050
O O13 0.229795 0.133268 0.857098
O O14 0.101060 0.157558 0.899701
O O15 0.002519 0.804624 0.500000
O O16 0.832159 0.354978 0.096162
O O17 0.901840 0.560141 0.500000
#
# Coordination Sequence:
#
# PCOD8313152 Si02
#       7
#    16  16  16  16  16  16  16
#     4  10  19  33  55  81 113 147 187 228 273 336
#     4   9  18  32  50  78 110 145 178 225 285 338
#     4   8  19  36  51  75 104 146 187 223 271 316
#     4  12  22  40  58  79 106 143 184 248 300 346
#     4  11  24  38  60  82 104 142 192 243 294 351
#     4   9  19  35  55  74 109 147 185 228 276 335
#     4  10  19  32  53  83 114 147 184 228 276 333
#
# _framework density 18.660952999999999
#
# number of rings (size 3 to 8) (size 9 to 14) (size 15 to 20)
#    0.857    1.143    2.857    2.143    0.000    3.714 
#    0.000    2.143    0.000    1.714    0.000    0.000 
#    0.000    0.571    4.857    3.143    4.000    0.000 
#
# Total GULP energy -1387463.902566 kJ/mol
# GULP energy per Si atom -12388.070559 kJ/mol
# Density = 1.861848 g / cm^3
# Si number density = 18.660953 Si / 1000 Ang^3
#
#
#
# Elastic Constant Matrix: (Units=GPa)
#
#
# Indices 1 2 3 4 5 6 
#
# 1 94.8357 46.2673 32.9320 0.0000 0.0000 0.0000
# 2 46.2673 94.8359 32.9320 0.0000 0.0000 0.0000
# 3 32.9320 32.9320 33.4186 0.0000 0.0000 0.0000
# 4 0.0000 0.0000 0.0000 21.8193 0.0000 0.0000
# 5 0.0000 0.0000 0.0000 0.0000 21.8192 0.0000
# 6 0.0000 0.0000 0.0000 0.0000 0.0000 27.3808
#
#
#
# Elastic Compliance Matrix: (Units=1/GPa)
#
#
# Indices 1 2 3 4 5 6 
#
# 1 0.016857 -0.003733 -0.012933 0.000000 0.000000 0.000000
# 2 -0.003733 0.016857 -0.012933 0.000000 0.000000 0.000000
# 3 -0.012933 -0.012933 0.055412 0.000000 0.000000 0.000000
# 4 0.000000 0.000000 0.000000 0.045831 0.000000 0.000000
# 5 0.000000 0.000000 0.000000 0.000000 0.045831 0.000000
# 6 0.000000 0.000000 0.000000 0.000000 0.000000 0.036522
#
#
# Mechanical properties :
#
#
# Convention : Reuss Voigt Hill
#
# Bulk Modulus (GPa) = 33.41239 49.70588 41.55913
# Shear Modulus (GPa) = 17.45310 21.60112 19.52711
#
# Velocity S-wave (km/s) = 3.06154 3.40598 3.23834
# Velocity P-wave (km/s) = 5.51736 6.49321 6.02507
#
# Compressibility (1/GPa) = 0.02992902
#
# Stress axis : x y z
#
# Youngs Moduli (GPa) = 59.32391 59.32406 18.04658
#
# Poissons Ratio (x) = 0.22145 0.23339
# Poissons Ratio (y) = 0.22145 0.23339
# Poissons Ratio (z) = 0.76722 0.76722
#
# Static dielectric constant tensor:
#      x y z
#    x 3.338430 0.000000 0.000000 
#    y 0.000000 3.338430 0.000000 
#    z 0.000000 0.000000 3.139290 
# 
# 
# High freq. dielectric constant tensor:
#      x y z
#    x 1.708670 0.000000 0.000000 
#    y 0.000000 1.708670 0.000000 
#    z 0.000000 0.000000 1.702940 
# 
# From -- ./inp_files/5521.got.cif
#   From: 2010.03.12/outbox.cif.g09.slc.cpg/sg124_3_cif.got.tgz:5521.got - 2010.04.06 16:38:57.
