data_PCOD8313288
_publ_section_title
;
Structure prediction by ZEFSAII (Michael W. Deem and Ramdas Pophale) SiO2 
 PCOD8313288
Probable space group: P 4/M C C
;
_chemical_formula_sum "Si O2"
_cell_formula_units_Z 96
_cell_length_a 23.968647
_cell_length_b 23.968647
_cell_length_c 9.436214
_cell_angle_alpha 90.000000
_cell_angle_beta 90.000000
_cell_angle_gamma 90.000000
_cell_volume 5421.067566
_symmetry_space_group_name_H-M "P 4/M C C"
_symmetry_group_IT_number 124
_symmetry_cell_setting 'tetragonal'
loop_
_space_group_symop_operation_xyz
x,y,z
-y,x,z
-x,-y,z
y,-x,z
x,-y,1/2-z
-x,y,1/2-z
y,x,1/2-z
-y,-x,1/2-z
-x,-y,-z
y,-x,-z
x,y,-z
-y,x,-z
-x,y,1/2+z
x,-y,1/2+z
-y,-x,1/2+z
y,x,1/2+z
loop_
_atom_site_type_symbol
_atom_site_label
_atom_site_fract_x
_atom_site_fract_y
_atom_site_fract_z
Si Si1 0.198594 0.140637 0.500000
Si Si2 0.000000 0.668762 0.250000
Si Si3 0.217033 0.101539 0.000000
Si Si4 0.198448 0.445429 0.669728
Si Si5 0.246972 0.981988 0.000000
Si Si6 0.272607 0.837390 0.250479
Si Si7 0.617468 0.107885 0.164299
Si Si8 0.337120 0.266639 0.841375
O O1 0.132912 0.156984 0.500000
O O2 0.209270 0.074074 0.500000
O O3 0.222566 0.171472 0.361163
O O4 0.947779 0.626724 0.258009
O O5 0.015416 0.710349 0.373734
O O6 0.254682 0.116061 0.863982
O O7 0.205166 0.035103 0.000000
O O8 0.221524 0.500000 0.750000
O O9 0.189772 0.453706 0.500000
O O10 0.140662 0.429616 0.747318
O O11 0.243585 0.397504 0.701834
O O12 0.324873 0.858304 0.159148
O O13 0.289261 0.780408 0.327736
O O14 0.598845 0.097201 0.000000
O O15 0.320699 0.320699 0.750000
O O16 0.338017 0.288493 0.000000
#
# Coordination Sequence:
#
# PCOD8313288 Si02
#       8
#     8   8   8  16   8  16  16  16
#     4  12  22  36  46  75 104 132 172 210 274 345
#     4  12  20  34  55  78 102 133 172 220 278 328
#     4  12  22  32  54  71 102 136 168 220 266 335
#     4  10  23  40  58  80 113 155 196 227 267 318
#     4  12  22  36  52  73 105 134 176 218 276 340
#     4  11  20  33  49  77 107 136 165 210 276 344
#     4  11  21  35  56  79 107 139 175 224 277 327
#     4  10  21  33  53  84 114 145 184 224 272 325
#
# _framework density 17.708689
#
# number of rings (size 3 to 8) (size 9 to 14) (size 15 to 20)
#    0.000    1.000    5.833    2.000    3.500    1.333 
#    0.000    0.417    0.000    2.250    0.000    0.000 
#    0.000    4.333    0.000    3.667    0.000    3.500 
#
# Total GULP energy -1189898.029410 kJ/mol
# GULP energy per Si atom -12394.771140 kJ/mol
# Density = 1.766838 g / cm^3
# Si number density = 17.708689 Si / 1000 Ang^3
#
#
#
# Elastic Constant Matrix: (Units=GPa)
#
#
# Indices 1 2 3 4 5 6 
#
# 1 89.6973 50.9472 38.9593 0.0000 0.0000 0.0000
# 2 50.9472 89.6973 38.9593 0.0000 0.0000 0.0000
# 3 38.9593 38.9593 99.6456 0.0000 0.0000 0.0000
# 4 0.0000 0.0000 0.0000 35.9628 0.0000 0.0000
# 5 0.0000 0.0000 0.0000 0.0000 35.9628 0.0000
# 6 0.0000 0.0000 0.0000 0.0000 0.0000 20.7761
#
#
#
# Elastic Compliance Matrix: (Units=1/GPa)
#
#
# Indices 1 2 3 4 5 6 
#
# 1 0.017441 -0.008365 -0.003549 0.000000 0.000000 0.000000
# 2 -0.008365 0.017441 -0.003549 0.000000 0.000000 0.000000
# 3 -0.003549 -0.003549 0.012810 0.000000 0.000000 0.000000
# 4 0.000000 0.000000 0.000000 0.027807 0.000000 0.000000
# 5 0.000000 0.000000 0.000000 0.000000 0.027807 0.000000
# 6 0.000000 0.000000 0.000000 0.000000 0.000000 0.048132
#
#
# Mechanical properties :
#
#
# Convention : Reuss Voigt Hill
#
# Bulk Modulus (GPa) = 59.63630 59.64132 59.63881
# Shear Modulus (GPa) = 26.60252 28.55196 27.57724
#
# Velocity S-wave (km/s) = 3.88007 4.01972 3.95051
# Velocity P-wave (km/s) = 7.33639 7.43616 7.38644
#
# Compressibility (1/GPa) = 0.01676831
#
# Stress axis : x y z
#
# Youngs Moduli (GPa) = 57.33541 57.33541 78.06175
#
# Poissons Ratio (x) = 0.47962 0.27701
# Poissons Ratio (y) = 0.47962 0.27701
# Poissons Ratio (z) = 0.20346 0.20346
#
# Static dielectric constant tensor:
#      x y z
#    x 3.195580 0.000000 0.000000 
#    y 0.000000 3.195580 0.000000 
#    z 0.000000 0.000000 3.417310 
# 
# 
# High freq. dielectric constant tensor:
#      x y z
#    x 1.660570 0.000000 0.000000 
#    y 0.000000 1.660570 0.000000 
#    z 0.000000 0.000000 1.706450 
# 
# From -- ./inp_files/1456.got.cif
#   From: 2010.03.12/outbox.cif.g09.slc.cpg/sg124_1_cif.got.tgz:1456.got - 2010.04.06 16:38:57.
