data_PCOD8313876
_publ_section_title
;
Structure prediction by ZEFSAII (Michael W. Deem and Ramdas Pophale) SiO2 
 PCOD8313876
Probable space group: P 4/M B M
;
_chemical_formula_sum "Si O2"
_cell_formula_units_Z 112
_cell_length_a 14.402423
_cell_length_b 14.402423
_cell_length_c 27.540400
_cell_angle_alpha 90.000000
_cell_angle_beta 90.000000
_cell_angle_gamma 90.000000
_cell_volume 5712.699341
_symmetry_space_group_name_H-M "P 4/M B M"
_symmetry_group_IT_number 127
_symmetry_cell_setting 'tetragonal'
loop_
_space_group_symop_operation_xyz
x,y,z
-y,x,z
-x,-y,z
y,-x,z
1/2+x,1/2-y,-z
1/2-x,1/2+y,-z
1/2+y,1/2+x,-z
1/2-y,1/2-x,-z
-x,-y,-z
y,-x,-z
x,y,-z
-y,x,-z
1/2-x,1/2+y,z
1/2+x,1/2-y,z
1/2-y,1/2-x,z
1/2+y,1/2+x,z
loop_
_atom_site_type_symbol
_atom_site_label
_atom_site_fract_x
_atom_site_fract_y
_atom_site_fract_z
Si Si1 0.905301 0.254697 0.557039
Si Si2 0.611053 0.266587 0.599471
Si Si3 0.114735 0.098068 0.206506
Si Si4 0.995405 0.651681 0.945639
Si Si5 0.378743 0.725481 0.291329
Si Si6 0.735805 0.910716 0.861754
Si Si7 0.497379 0.147158 0.233350
O O1 0.920847 0.258902 0.500000
O O2 0.844537 0.344537 0.574508
O O3 0.847869 0.160743 0.568841
O O4 0.007181 0.255041 0.581020
O O5 0.671134 0.171134 0.597193
O O6 0.602049 0.307439 0.654000
O O7 0.155070 0.141368 0.256311
O O8 0.164411 0.129259 0.156135
O O9 0.010523 0.130090 0.206143
O O10 0.071626 0.571626 0.940001
O O11 0.017718 0.734795 0.907388
O O12 0.894786 0.605215 0.935034
O O13 0.997016 0.693786 0.000000
O O14 0.293844 0.793844 0.291638
O O15 0.472127 0.775472 0.271999
O O16 0.678343 0.821657 0.878060
O O17 0.693224 0.961943 0.815503
O O18 0.416448 0.083553 0.257052
O O19 0.585146 0.085146 0.218095
#
# Coordination Sequence:
#
# PCOD8313876 Si02
#       7
#    16  16  16  16  16  16  16
#     4  10  22  41  65  91 122 162 204 253 310 366
#     4  10  23  40  61  91 124 157 202 257 310 371
#     4  11  23  37  51  72 105 146 191 235 274 327
#     4   8  14  26  48  81 116 143 173 224 291 355
#     4  10  21  38  57  82 112 146 186 234 294 346
#     4  10  18  31  52  77 105 143 184 226 283 343
#     4   9  17  30  51  79 109 139 176 225 283 349
#
# _framework density 19.605443000000001
#
# number of rings (size 3 to 8) (size 9 to 14) (size 15 to 20)
#    0.000    2.286    1.429    1.714    2.000    3.714 
#    0.000    2.857    0.000    0.857    0.000    3.000 
#    0.000    0.000    0.000    0.000    0.000    0.000 
#
# Total GULP energy -1387629.345181 kJ/mol
# GULP energy per Si atom -12389.547725 kJ/mol
# Density = 1.956082 g / cm^3
# Si number density = 19.605443 Si / 1000 Ang^3
#
#
#
# Elastic Constant Matrix: (Units=GPa)
#
#
# Indices 1 2 3 4 5 6 
#
# 1 105.5837 22.4096 46.8902 0.0000 0.0000 0.0000
# 2 22.4096 105.5837 46.8902 0.0000 0.0000 0.0000
# 3 46.8902 46.8902 128.4193 0.0000 0.0000 0.0000
# 4 0.0000 0.0000 0.0000 25.1784 0.0000 0.0000
# 5 0.0000 0.0000 0.0000 0.0000 25.1784 0.0000
# 6 0.0000 0.0000 0.0000 0.0000 0.0000 10.8169
#
#
#
# Elastic Compliance Matrix: (Units=1/GPa)
#
#
# Indices 1 2 3 4 5 6 
#
# 1 0.011345 -0.000678 -0.003895 0.000000 0.000000 0.000000
# 2 -0.000678 0.011345 -0.003895 0.000000 0.000000 0.000000
# 3 -0.003895 -0.003895 0.010631 0.000000 0.000000 0.000000
# 4 0.000000 0.000000 0.000000 0.039717 0.000000 0.000000
# 5 0.000000 0.000000 0.000000 0.000000 0.039717 0.000000
# 6 0.000000 0.000000 0.000000 0.000000 0.000000 0.092448
#
#
# Mechanical properties :
#
#
# Convention : Reuss Voigt Hill
#
# Bulk Modulus (GPa) = 61.02987 63.55187 62.29087
# Shear Modulus (GPa) = 21.96844 27.12784 24.54814
#
# Velocity S-wave (km/s) = 3.35106 3.72383 3.54235
# Velocity P-wave (km/s) = 6.79481 7.13968 6.96938
#
# Compressibility (1/GPa) = 0.01638542
#
# Stress axis : x y z
#
# Youngs Moduli (GPa) = 88.14631 88.14631 94.06287
#
# Poissons Ratio (x) = 0.05978 0.36635
# Poissons Ratio (y) = 0.05978 0.36635
# Poissons Ratio (z) = 0.34331 0.34331
#
# Static dielectric constant tensor:
#      x y z
#    x 3.782830 0.000000 0.000000 
#    y 0.000000 3.782830 0.000000 
#    z 0.000000 0.000000 4.137780 
# 
# 
# High freq. dielectric constant tensor:
#      x y z
#    x 1.756090 0.000000 0.000000 
#    y 0.000000 1.756090 0.000000 
#    z 0.000000 0.000000 1.758320 
# 
# From -- ./inp_files/6376.got.cif
#   From: 2010.03.12/outbox.cif.g09.slc.cpg/sg127_4_cif.got.tgz:6376.got - 2010.04.06 17:03:15.
