data_PCOD8313407
_publ_section_title
;
Structure prediction by ZEFSAII (Michael W. Deem and Ramdas Pophale) SiO2 
 PCOD8313407
Probable space group: P 4/N B M
;
_chemical_formula_sum "Si O2"
_cell_formula_units_Z 64
_cell_length_a 17.137649
_cell_length_b 17.137649
_cell_length_c 10.099779
_cell_angle_alpha 90.000000
_cell_angle_beta 90.000000
_cell_angle_gamma 90.000000
_cell_volume 2966.295126
_symmetry_space_group_name_H-M "P 4/N B M"
_symmetry_group_IT_number 125
_space_group.IT_coordinate_system_code '2'
_symmetry_cell_setting 'tetragonal'
loop_
_space_group_symop_operation_xyz
x,y,z
1/2-y,x,z
1/2-x,1/2-y,z
y,1/2-x,z
x,1/2-y,-z
1/2-x,y,-z
y,x,-z
1/2-y,1/2-x,-z
-x,-y,-z
1/2+y,-x,-z
1/2+x,1/2+y,-z
-y,1/2+x,-z
-x,1/2+y,z
1/2+x,-y,z
-y,-x,z
1/2+y,1/2+x,z
loop_
_atom_site_type_symbol
_atom_site_label
_atom_site_fract_x
_atom_site_fract_y
_atom_site_fract_z
Si Si1 0.144077 0.976494 0.325817
Si Si2 0.643077 0.688003 0.284202
Si Si3 0.750000 0.124904 0.500000
Si Si4 0.370958 0.370958 0.000000
Si Si5 0.838175 0.459742 0.016649
O O1 0.063870 0.936131 0.379935
O O2 0.219034 0.930555 0.382749
O O3 0.144710 0.969455 0.169889
O O4 0.147546 0.069153 0.356687
O O5 0.721617 0.644503 0.330310
O O6 0.640183 0.688170 0.122825
O O7 0.679828 0.179828 0.554864
O O8 0.357924 0.458695 0.943313
O O9 0.893287 0.393287 0.953889
O O10 0.750000 0.432686 0.000000
#
# Coordination Sequence:
#
# PCOD8313407 Si02
#       5
#    16  16   8   8  16
#     4   9  19  36  55  78 107 137 178 230 276 321
#     4  10  19  32  52  78 108 142 178 217 265 321
#     4   9  18  36  62  83 102 140 192 239 278 320
#     4  10  17  31  50  74 104 139 185 222 252 304
#     4  10  20  32  49  76 110 143 172 212 269 326
#
# _framework density 21.575735999999999
#
# number of rings (size 3 to 8) (size 9 to 14) (size 15 to 20)
#    0.000    2.375    0.000    4.125    0.000    3.250 
#    0.000    5.000    0.000    4.500    0.000    0.000 
#    0.000    0.000    0.000    0.000    0.000    0.000 
#
# Total GULP energy -793241.555033 kJ/mol
# GULP energy per Si atom -12394.399297 kJ/mol
# Density = 2.152663 g / cm^3
# Si number density = 21.575736 Si / 1000 Ang^3
#
#
#
# Elastic Constant Matrix: (Units=GPa)
#
#
# Indices 1 2 3 4 5 6 
#
# 1 160.0993 82.3572 10.6869 0.0000 0.0000 0.0000
# 2 82.3572 160.0993 10.6869 0.0000 0.0000 0.0000
# 3 10.6869 10.6869 16.5774 0.0000 0.0000 0.0000
# 4 0.0000 0.0000 0.0000 23.0265 0.0000 0.0000
# 5 0.0000 0.0000 0.0000 0.0000 23.0265 0.0000
# 6 0.0000 0.0000 0.0000 0.0000 0.0000 28.0311
#
#
#
# Elastic Compliance Matrix: (Units=1/GPa)
#
#
# Indices 1 2 3 4 5 6 
#
# 1 0.008618 -0.004245 -0.002819 0.000000 0.000000 0.000000
# 2 -0.004245 0.008618 -0.002819 0.000000 0.000000 0.000000
# 3 -0.002819 -0.002819 0.063958 0.000000 0.000000 0.000000
# 4 0.000000 0.000000 0.000000 0.043428 0.000000 0.000000
# 5 0.000000 0.000000 0.000000 0.000000 0.043428 0.000000
# 6 0.000000 0.000000 0.000000 0.000000 0.000000 0.035675
#
#
# Mechanical properties :
#
#
# Convention : Reuss Voigt Hill
#
# Bulk Modulus (GPa) = 16.27943 60.47087 38.37515
# Shear Modulus (GPa) = 20.49459 30.35317 25.42388
#
# Velocity S-wave (km/s) = 3.08537 3.75483 3.43644
# Velocity P-wave (km/s) = 4.50048 6.84737 5.79399
#
# Compressibility (1/GPa) = 0.06142723
#
# Stress axis : x y z
#
# Youngs Moduli (GPa) = 116.03614 116.03614 15.63534
#
# Poissons Ratio (x) = 0.49258 0.04408
# Poissons Ratio (y) = 0.49258 0.04408
# Poissons Ratio (z) = 0.32712 0.32712
#
# Static dielectric constant tensor:
#      x y z
#    x 4.348120 0.000000 0.000000 
#    y 0.000000 4.348120 0.000000 
#    z 0.000000 0.000000 3.422630 
# 
# 
# High freq. dielectric constant tensor:
#      x y z
#    x 1.856010 0.000000 0.000000 
#    y 0.000000 1.856010 0.000000 
#    z 0.000000 0.000000 1.799570 
# 
# From -- ./inp_files/3726.got.cif
#   From: 2010.03.12/outbox.cif.g09.slc.cpg/sg125_2_cif.got.tgz:3726.got - 2010.04.06 16:47:52.
