data_PCOD8313430
_publ_section_title
;
Structure prediction by ZEFSAII (Michael W. Deem and Ramdas Pophale) SiO2 
 PCOD8313430
Probable space group: P 4/N B M
;
_chemical_formula_sum "Si O2"
_cell_formula_units_Z 64
_cell_length_a 19.922253
_cell_length_b 19.922253
_cell_length_c 8.706424
_cell_angle_alpha 90.000000
_cell_angle_beta 90.000000
_cell_angle_gamma 90.000000
_cell_volume 3455.546293
_symmetry_space_group_name_H-M "P 4/N B M"
_symmetry_group_IT_number 125
_space_group.IT_coordinate_system_code '2'
_symmetry_cell_setting 'tetragonal'
loop_
_space_group_symop_operation_xyz
x,y,z
1/2-y,x,z
1/2-x,1/2-y,z
y,1/2-x,z
x,1/2-y,-z
1/2-x,y,-z
y,x,-z
1/2-y,1/2-x,-z
-x,-y,-z
1/2+y,-x,-z
1/2+x,1/2+y,-z
-y,1/2+x,-z
-x,1/2+y,z
1/2+x,-y,z
-y,-x,z
1/2+y,1/2+x,z
loop_
_atom_site_type_symbol
_atom_site_label
_atom_site_fract_x
_atom_site_fract_y
_atom_site_fract_z
Si Si1 0.889872 0.280803 0.168451
Si Si2 0.540554 0.572942 0.836241
Si Si3 0.161045 0.550749 0.341380
Si Si4 0.981777 0.126902 0.662054
O O1 0.818520 0.318520 0.197571
O O2 0.901590 0.222478 0.292773
O O3 0.950684 0.333019 0.192112
O O4 0.891339 0.250000 0.000000
O O5 0.485164 0.514837 0.844941
O O6 0.507006 0.643787 0.785081
O O7 0.598231 0.554231 0.711094
O O8 0.578051 0.578051 0.000000
O O9 0.096547 0.596547 0.355513
O O10 0.173455 0.515947 0.508605
O O11 0.936117 0.063884 0.621603
#
# Coordination Sequence:
#
# PCOD8313430 Si02
#       4
#    16  16  16  16
#     4  11  22  34  47  65  94 133 174 211 246 291
#     4   9  16  28  48  71  92 115 150 201 258 306
#     4  10  19  31  48  68  92 125 164 205 250 301
#     4   9  18  32  48  67  91 120 159 208 258 302
#
# _framework density 18.520951
#
# number of rings (size 3 to 8) (size 9 to 14) (size 15 to 20)
#    0.000    2.250    0.000    3.750    0.000    8.750 
#    0.000    1.250    0.000    9.000    0.000    0.000 
#    0.000    1.000    0.000   10.000    0.000    8.250 
#
# Total GULP energy -792840.354509 kJ/mol
# GULP energy per Si atom -12388.130539 kJ/mol
# Density = 1.847880 g / cm^3
# Si number density = 18.520951 Si / 1000 Ang^3
#
#
#
# Elastic Constant Matrix: (Units=GPa)
#
#
# Indices 1 2 3 4 5 6 
#
# 1 50.6031 48.0843 38.9259 0.0000 0.0000 0.0000
# 2 48.0843 50.6031 38.9259 0.0000 0.0000 0.0000
# 3 38.9259 38.9259 111.4168 0.0000 0.0000 0.0000
# 4 0.0000 0.0000 0.0000 22.9574 0.0000 0.0000
# 5 0.0000 0.0000 0.0000 0.0000 22.9574 0.0000
# 6 0.0000 0.0000 0.0000 0.0000 0.0000 41.5858
#
#
#
# Elastic Compliance Matrix: (Units=1/GPa)
#
#
# Indices 1 2 3 4 5 6 
#
# 1 0.205505 -0.191516 -0.004887 0.000000 0.000000 0.000000
# 2 -0.191516 0.205505 -0.004887 0.000000 0.000000 0.000000
# 3 -0.004887 -0.004887 0.012390 0.000000 0.000000 0.000000
# 4 0.000000 0.000000 0.000000 0.043559 0.000000 0.000000
# 5 0.000000 0.000000 0.000000 0.000000 0.043559 0.000000
# 6 0.000000 0.000000 0.000000 0.000000 0.000000 0.024047
#
#
# Mechanical properties :
#
#
# Convention : Reuss Voigt Hill
#
# Bulk Modulus (GPa) = 48.03466 51.61058 49.82262
# Shear Modulus (GPa) = 5.29614 23.27924 14.28769
#
# Velocity S-wave (km/s) = 1.69285 3.54914 2.78048
# Velocity P-wave (km/s) = 5.46009 6.68743 6.10469
#
# Compressibility (1/GPa) = 0.02081830
#
# Stress axis : x y z
#
# Youngs Moduli (GPa) = 4.86607 4.86607 80.70927
#
# Poissons Ratio (x) = 0.93193 0.39444
# Poissons Ratio (y) = 0.93193 0.39444
# Poissons Ratio (z) = 0.02378 0.02378
#
# Static dielectric constant tensor:
#      x y z
#    x 3.252320 0.000000 0.000000 
#    y 0.000000 3.252320 0.000000 
#    z 0.000000 0.000000 3.838850 
# 
# 
# High freq. dielectric constant tensor:
#      x y z
#    x 1.678080 0.000000 0.000000 
#    y 0.000000 1.678080 0.000000 
#    z 0.000000 0.000000 1.739710 
# 
# From -- ./inp_files/2336.got.cif
#   From: 2010.03.12/outbox.cif.g09.slc.cpg/sg125_2_cif.got.tgz:2336.got - 2010.04.06 16:47:52.
