data_PCOD8313524
_publ_section_title
;
Structure prediction by ZEFSAII (Michael W. Deem and Ramdas Pophale) SiO2 
 PCOD8313524
Probable space group: P 4/N B M
;
_chemical_formula_sum "Si O2"
_cell_formula_units_Z 64
_cell_length_a 13.214982
_cell_length_b 13.214982
_cell_length_c 18.176875
_cell_angle_alpha 90.000000
_cell_angle_beta 90.000000
_cell_angle_gamma 90.000000
_cell_volume 3174.332185
_symmetry_space_group_name_H-M "P 4/N B M"
_symmetry_group_IT_number 125
_space_group.IT_coordinate_system_code '2'
_symmetry_cell_setting 'tetragonal'
loop_
_space_group_symop_operation_xyz
x,y,z
1/2-y,x,z
1/2-x,1/2-y,z
y,1/2-x,z
x,1/2-y,-z
1/2-x,y,-z
y,x,-z
1/2-y,1/2-x,-z
-x,-y,-z
1/2+y,-x,-z
1/2+x,1/2+y,-z
-y,1/2+x,-z
-x,1/2+y,z
1/2+x,-y,z
-y,-x,z
1/2+y,1/2+x,z
loop_
_atom_site_type_symbol
_atom_site_label
_atom_site_fract_x
_atom_site_fract_y
_atom_site_fract_z
Si Si1 0.624563 0.962034 0.930284
Si Si2 0.486028 0.823095 0.852879
Si Si3 0.248800 0.915619 0.702483
Si Si4 0.254534 0.085820 0.414941
O O1 0.577042 0.904448 0.859034
O O2 0.564417 0.064417 0.948345
O O3 0.739131 0.994594 0.915241
O O4 0.613694 0.886307 0.000000
O O5 0.378414 0.878414 0.868325
O O6 0.485934 0.772515 0.772691
O O7 0.145497 0.854504 0.717754
O O8 0.340326 0.840326 0.686431
O O9 0.236557 0.984305 0.631315
O O10 0.352231 0.153334 0.396035
O O11 0.250000 0.054556 0.500000
#
# Coordination Sequence:
#
# PCOD8313524 Si02
#       4
#    16  16  16  16
#     4  10  21  38  61  89 118 154 204 250 293 359
#     4  10  22  39  59  86 123 160 194 248 308 354
#     4  10  22  38  58  87 120 158 203 245 295 361
#     4   9  20  39  61  87 121 159 200 246 297 357
#
# _framework density 20.161722000000001
#
# number of rings (size 3 to 8) (size 9 to 14) (size 15 to 20)
#    0.000    2.250    0.000    2.250    3.500    4.000 
#    0.000    6.250    0.000    9.000    0.000    0.000 
#    0.000    0.000    0.000    0.000    0.000    0.000 
#
# Total GULP energy -793582.410873 kJ/mol
# GULP energy per Si atom -12399.725170 kJ/mol
# Density = 2.011583 g / cm^3
# Si number density = 20.161722 Si / 1000 Ang^3
#
#
#
# Elastic Constant Matrix: (Units=GPa)
#
#
# Indices 1 2 3 4 5 6 
#
# 1 90.8061 25.8923 40.6362 0.0000 0.0000 0.0000
# 2 25.8923 90.8061 40.6359 0.0000 0.0000 0.0000
# 3 40.6362 40.6359 89.2831 0.0000 0.0000 0.0000
# 4 0.0000 0.0000 0.0000 39.4783 0.0000 0.0000
# 5 0.0000 0.0000 0.0000 0.0000 39.4782 0.0000
# 6 0.0000 0.0000 0.0000 0.0000 0.0000 24.8745
#
#
#
# Elastic Compliance Matrix: (Units=1/GPa)
#
#
# Indices 1 2 3 4 5 6 
#
# 1 0.013975 -0.001430 -0.005710 0.000000 0.000000 0.000000
# 2 -0.001430 0.013975 -0.005710 0.000000 0.000000 0.000000
# 3 -0.005710 -0.005710 0.016398 0.000000 0.000000 0.000000
# 4 0.000000 0.000000 0.000000 0.025330 0.000000 0.000000
# 5 0.000000 0.000000 0.000000 0.000000 0.025330 0.000000
# 6 0.000000 0.000000 0.000000 0.000000 0.000000 0.040202
#
#
# Mechanical properties :
#
#
# Convention : Reuss Voigt Hill
#
# Bulk Modulus (GPa) = 53.62113 53.91379 53.76746
# Shear Modulus (GPa) = 29.91734 31.68161 30.79947
#
# Velocity S-wave (km/s) = 3.85628 3.96836 3.91272
# Velocity P-wave (km/s) = 6.81771 6.91345 6.86575
#
# Compressibility (1/GPa) = 0.01864937
#
# Stress axis : x y z
#
# Youngs Moduli (GPa) = 71.55431 71.55451 60.98297
#
# Poissons Ratio (x) = 0.10230 0.34822
# Poissons Ratio (y) = 0.10230 0.34821
# Poissons Ratio (z) = 0.40858 0.40858
#
# Static dielectric constant tensor:
#      x y z
#    x 3.606800 0.000000 0.000000 
#    y 0.000000 3.606800 0.000000 
#    z 0.000000 0.000000 3.577020 
# 
# 
# High freq. dielectric constant tensor:
#      x y z
#    x 1.785480 0.000000 0.000000 
#    y 0.000000 1.785480 0.000000 
#    z 0.000000 0.000000 1.785760 
# 
# From -- ./inp_files/4607.got.cif
#   From: 2010.03.12/outbox.cif.g09.slc.cpg/sg125_3_cif.got.tgz:4607.got - 2010.04.06 16:47:52.
