data_PCOD8313483
_publ_section_title
;
Structure prediction by ZEFSAII (Michael W. Deem and Ramdas Pophale) SiO2 
 PCOD8313483
Probable space group: P 4/N B M
;
_chemical_formula_sum "Si O2"
_cell_formula_units_Z 104
_cell_length_a 17.022256
_cell_length_b 17.022256
_cell_length_c 18.020876
_cell_angle_alpha 90.000000
_cell_angle_beta 90.000000
_cell_angle_gamma 90.000000
_cell_volume 5221.678559
_symmetry_space_group_name_H-M "P 4/N B M"
_symmetry_group_IT_number 125
_space_group.IT_coordinate_system_code '2'
_symmetry_cell_setting 'tetragonal'
loop_
_space_group_symop_operation_xyz
x,y,z
1/2-y,x,z
1/2-x,1/2-y,z
y,1/2-x,z
x,1/2-y,-z
1/2-x,y,-z
y,x,-z
1/2-y,1/2-x,-z
-x,-y,-z
1/2+y,-x,-z
1/2+x,1/2+y,-z
-y,1/2+x,-z
-x,1/2+y,z
1/2+x,-y,z
-y,-x,z
1/2+y,1/2+x,z
loop_
_atom_site_type_symbol
_atom_site_label
_atom_site_fract_x
_atom_site_fract_y
_atom_site_fract_z
Si Si1 0.374806 0.498311 0.984125
Si Si2 0.780961 0.626962 0.221065
Si Si3 0.878202 0.251781 0.745215
Si Si4 0.979511 0.808789 0.348391
Si Si5 0.977092 0.250000 0.500000
Si Si6 0.411496 0.911496 0.463391
Si Si7 0.267488 0.515124 0.119048
Si Si8 0.977191 0.477191 0.384404
O O1 0.441286 0.558715 0.958058
O O2 0.313945 0.487603 0.917412
O O3 0.413292 0.413292 0.000000
O O4 0.331916 0.533684 0.056558
O O5 0.843913 0.693677 0.204532
O O6 0.785616 0.600226 0.306738
O O7 0.802298 0.554782 0.168488
O O8 0.816322 0.183679 0.731258
O O9 0.836571 0.336571 0.732740
O O10 0.947656 0.239911 0.686134
O O11 0.908914 0.246831 0.829897
O O12 0.968900 0.785814 0.434767
O O13 0.989360 0.902822 0.338995
O O14 0.923841 0.182163 0.462909
O O15 0.447180 0.947180 0.537310
O O16 0.455608 0.955608 0.394680
#
# Coordination Sequence:
#
# PCOD8313483 Si02
#       8
#    16  16  16  16   8   8  16   8
#     4  10  20  34  56  85 114 144 185 237 286 339
#     4  10  22  39  58  81 113 151 195 244 290 343
#     4  10  20  35  54  79 114 153 190 233 285 348
#     4  10  21  37  58  83 113 150 194 241 297 351
#     4  10  22  37  56  89 114 148 194 240 300 351
#     4   9  20  35  58  81 114 148 183 237 289 355
#     4  10  20  36  57  80 113 151 189 231 287 351
#     4   9  18  38  57  78 111 152 186 229 294 351
#
# _framework density 19.916965999999999
#
# number of rings (size 3 to 8) (size 9 to 14) (size 15 to 20)
#    0.000    2.154    0.769    1.846    3.231    0.154 
#    0.000    0.000    1.692    8.308    0.000    0.000 
#    0.000    0.000    0.000    0.000    0.000    0.000 
#
# Total GULP energy -1289644.947927 kJ/mol
# GULP energy per Si atom -12400.432192 kJ/mol
# Density = 1.987163 g / cm^3
# Si number density = 19.916966 Si / 1000 Ang^3
#
#
#
# Elastic Constant Matrix: (Units=GPa)
#
#
# Indices 1 2 3 4 5 6 
#
# 1 71.7436 16.2232 4.6836 0.0000 0.0000 0.0000
# 2 16.2232 71.7436 4.6836 0.0000 0.0000 0.0000
# 3 4.6836 4.6836 70.6138 0.0000 0.0000 0.0000
# 4 0.0000 0.0000 0.0000 27.7372 0.0000 0.0000
# 5 0.0000 0.0000 0.0000 0.0000 27.7372 0.0000
# 6 0.0000 0.0000 0.0000 0.0000 0.0000 3.9855
#
#
#
# Elastic Compliance Matrix: (Units=1/GPa)
#
#
# Indices 1 2 3 4 5 6 
#
# 1 0.014730 -0.003281 -0.000759 0.000000 0.000000 0.000000
# 2 -0.003281 0.014730 -0.000759 0.000000 0.000000 0.000000
# 3 -0.000759 -0.000759 0.014262 0.000000 0.000000 0.000000
# 4 0.000000 0.000000 0.000000 0.036053 0.000000 0.000000
# 5 0.000000 0.000000 0.000000 0.000000 0.036053 0.000000
# 6 0.000000 0.000000 0.000000 0.000000 0.000000 0.250912
#
#
# Mechanical properties :
#
#
# Convention : Reuss Voigt Hill
#
# Bulk Modulus (GPa) = 29.30627 29.47575 29.39101
# Shear Modulus (GPa) = 12.89609 24.45932 18.67771
#
# Velocity S-wave (km/s) = 2.54735 3.50818 3.06564
# Velocity P-wave (km/s) = 4.83716 5.58938 5.22682
#
# Compressibility (1/GPa) = 0.03412239
#
# Stress axis : x y z
#
# Youngs Moduli (GPa) = 67.88819 67.88819 70.11510
#
# Poissons Ratio (x) = 0.22276 0.05324
# Poissons Ratio (y) = 0.22276 0.05324
# Poissons Ratio (z) = 0.05155 0.05155
#
# Static dielectric constant tensor:
#      x y z
#    x 3.596380 0.000000 0.000000 
#    y 0.000000 3.596380 0.000000 
#    z 0.000000 0.000000 3.601520 
# 
# 
# High freq. dielectric constant tensor:
#      x y z
#    x 1.772880 0.000000 0.000000 
#    y 0.000000 1.772880 0.000000 
#    z 0.000000 0.000000 1.776290 
# 
# From -- ./inp_files/5528.got.cif
#   From: 2010.03.12/outbox.cif.g09.slc.cpg/sg125_3_cif.got.tgz:5528.got - 2010.04.06 16:47:52.
