data_PCOD8313090
_publ_section_title
;
Structure prediction by ZEFSAII (Michael W. Deem and Ramdas Pophale) SiO2 
 PCOD8313090
Probable space group: P 4/M C C
;
_chemical_formula_sum "Si O2"
_cell_formula_units_Z 96
_cell_length_a 15.628256
_cell_length_b 15.628256
_cell_length_c 20.892619
_cell_angle_alpha 90.000000
_cell_angle_beta 90.000000
_cell_angle_gamma 90.000000
_cell_volume 5102.863106
_symmetry_space_group_name_H-M "P 4/M C C"
_symmetry_group_IT_number 124
_symmetry_cell_setting 'tetragonal'
loop_
_space_group_symop_operation_xyz
x,y,z
-y,x,z
-x,-y,z
y,-x,z
x,-y,1/2-z
-x,y,1/2-z
y,x,1/2-z
-y,-x,1/2-z
-x,-y,-z
y,-x,-z
x,y,-z
-y,x,-z
-x,y,1/2+z
x,-y,1/2+z
-y,-x,1/2+z
y,x,1/2+z
loop_
_atom_site_type_symbol
_atom_site_label
_atom_site_fract_x
_atom_site_fract_y
_atom_site_fract_z
Si Si1 0.094759 0.766014 0.074092
Si Si2 0.154222 0.595821 0.876177
Si Si3 0.233986 0.905241 0.925908
Si Si4 0.154222 0.595821 0.623823
Si Si5 0.730969 0.591319 0.500000
Si Si6 0.737728 0.403706 0.750000
Si Si7 0.408681 0.269032 0.500000
O O1 0.091619 0.676871 0.114302
O O2 0.165945 0.834055 0.099441
O O3 1.000000 0.807090 0.081531
O O4 0.113942 0.744492 0.000000
O O5 0.110243 0.500000 0.873354
O O6 0.205219 0.613805 0.811752
O O7 0.215215 0.599964 0.936394
O O8 0.323129 0.908381 0.885698
O O9 0.255508 0.886058 0.000000
O O10 0.205219 0.613805 0.688248
O O11 0.215216 0.599964 0.563606
O O12 0.683887 0.500000 0.500000
O O13 0.662931 0.662931 0.500000
O O14 0.702297 0.500000 0.750000
O O15 0.656140 0.343861 0.750000
#
# Coordination Sequence:
#
# PCOD8313090 Si02
#       7
#    16  16  16  16   8  16   8
#     4  10  20  34  55  81 109 142 178 219 267 321
#     4  10  20  34  53  78 105 138 178 220 265 316
#     4  10  20  34  55  81 109 142 178 219 267 321
#     4  10  20  34  53  78 105 138 178 220 265 316
#     4  10  18  29  47  69  98 134 172 216 261 308
#     4  10  20  33  51  75 106 144 184 226 271 320
#     4  10  18  29  47  69  98 134 172 216 261 308
#
# _framework density 18.812967
#
# number of rings (size 3 to 8) (size 9 to 14) (size 15 to 20)
#    0.000    2.000    1.667    3.000    0.000    1.333 
#    0.000    4.167    0.000    9.000    0.000    0.000 
#    0.000    4.000    0.000    0.000    0.000    0.000 
#
# Total GULP energy -1189331.307551 kJ/mol
# GULP energy per Si atom -12388.867787 kJ/mol
# Density = 1.877015 g / cm^3
# Si number density = 18.812967 Si / 1000 Ang^3
#
#
#
# Elastic Constant Matrix: (Units=GPa)
#
#
# Indices 1 2 3 4 5 6 
#
# 1 98.9366 56.0022 23.7903 0.0000 0.0000 0.0000
# 2 56.0022 98.9356 23.7900 0.0000 0.0000 0.0000
# 3 23.7903 23.7900 110.8884 0.0000 0.0000 0.0000
# 4 0.0000 0.0000 0.0000 17.9150 0.0000 0.0000
# 5 0.0000 0.0000 0.0000 0.0000 17.9142 0.0000
# 6 0.0000 0.0000 0.0000 0.0000 0.0000 -8.5276
#
#
#
# Elastic Compliance Matrix: (Units=1/GPa)
#
#
# Indices 1 2 3 4 5 6 
#
# 1 0.015100 -0.008191 -0.001482 0.000000 0.000000 0.000000
# 2 -0.008191 0.015101 -0.001482 0.000000 0.000000 0.000000
# 3 -0.001482 -0.001482 0.009654 0.000000 0.000000 0.000000
# 4 0.000000 0.000000 0.000000 0.055819 0.000000 0.000000
# 5 0.000000 0.000000 0.000000 0.000000 0.055822 0.000000
# 6 0.000000 0.000000 0.000000 0.000000 0.000000 -0.117266
#
#
# Mechanical properties :
#
#
# Convention : Reuss Voigt Hill
#
# Bulk Modulus (GPa) = 57.00109 57.32505 57.16307
# Shear Modulus (GPa) = 80.14217 19.13887 49.64052
#
# Velocity S-wave (km/s) = 6.53390 3.19301 5.14234
# Velocity P-wave (km/s) = 9.34276 6.64311 8.10611
#
# Compressibility (1/GPa) = 0.01754352
#
# Stress axis : x y z
#
# Youngs Moduli (GPa) = 66.22328 66.22270 103.58264
#
# Poissons Ratio (x) = 0.54244 0.15355
# Poissons Ratio (y) = 0.54244 0.15354
# Poissons Ratio (z) = 0.09817 0.09816
#
# Static dielectric constant tensor:
#      x y z
#    x 3.612430 0.000000 0.000000 
#    y 0.000000 3.612430 0.000000 
#    z 0.000000 0.000000 3.604460 
# 
# 
# High freq. dielectric constant tensor:
#      x y z
#    x 1.725290 0.000000 0.000000 
#    y 0.000000 1.725290 0.000000 
#    z 0.000000 0.000000 1.725120 
# 
# From -- ./inp_files/5346.got.cif
#   From: 2010.03.12/outbox.cif.g09.slc.cpg/sg124_3_cif.got.tgz:5346.got - 2010.04.06 16:38:57.
