data_PCOD8313808
_publ_section_title
;
Structure prediction by ZEFSAII (Michael W. Deem and Ramdas Pophale) SiO2 
 PCOD8313808
Probable space group: P 4/N N C
;
_chemical_formula_sum "Si O2"
_cell_formula_units_Z 40
_cell_length_a 12.245167
_cell_length_b 12.245167
_cell_length_c 11.829339
_cell_angle_alpha 90.000000
_cell_angle_beta 90.000000
_cell_angle_gamma 90.000000
_cell_volume 1773.739766
_symmetry_space_group_name_H-M "P 4/N N C"
_symmetry_group_IT_number 126
_space_group.IT_coordinate_system_code '2'
_symmetry_cell_setting 'tetragonal'
loop_
_space_group_symop_operation_xyz
x,y,z
1/2-y,x,z
1/2-x,1/2-y,z
y,1/2-x,z
x,1/2-y,1/2-z
1/2-x,y,1/2-z
y,x,1/2-z
1/2-y,1/2-x,1/2-z
-x,-y,-z
1/2+y,-x,-z
1/2+x,1/2+y,-z
-y,1/2+x,-z
-x,1/2+y,1/2+z
1/2+x,-y,1/2+z
-y,-x,1/2+z
1/2+y,1/2+x,1/2+z
loop_
_atom_site_type_symbol
_atom_site_label
_atom_site_fract_x
_atom_site_fract_y
_atom_site_fract_z
Si Si1 0.080994 0.193389 0.969598
Si Si2 0.250000 0.963800 0.750000
Si Si3 0.029197 0.863511 0.808544
O O1 0.181972 0.113417 0.988927
O O2 0.992241 0.150724 0.058160
O O3 0.036395 0.185587 0.842233
O O4 0.157798 0.888396 0.805665
O O5 0.999124 0.750000 0.750000
O O6 0.957651 0.957651 0.750000
#
# Coordination Sequence:
#
# PCOD8313808 Si02
#       3
#    16   8  16
#     4  11  24  46  77 107 141 191 254 307 360 437
#     4  12  29  45  72 108 156 193 234 311 384 436
#     4  12  26  47  74 109 147 194 247 298 362 441
#
# _framework density 22.551221999999999
#
# number of rings (size 3 to 8) (size 9 to 14) (size 15 to 20)
#    0.000    0.400    4.000    4.200    5.600    5.200 
#    0.000    0.000    0.000    0.000    0.000    0.000 
#    0.000    0.000    0.000    0.000    0.000    0.000 
#
# Total GULP energy -496164.792145 kJ/mol
# GULP energy per Si atom -12404.119804 kJ/mol
# Density = 2.249989 g / cm^3
# Si number density = 22.551222 Si / 1000 Ang^3
#
#
#
# Elastic Constant Matrix: (Units=GPa)
#
#
# Indices 1 2 3 4 5 6 
#
# 1 126.3276 47.4821 52.6241 0.0000 0.0000 0.0000
# 2 47.4821 126.3276 52.6241 0.0000 0.0000 0.0000
# 3 52.6241 52.6241 174.8060 0.0000 0.0000 0.0000
# 4 0.0000 0.0000 0.0000 42.0989 0.0000 0.0000
# 5 0.0000 0.0000 0.0000 0.0000 42.0989 0.0000
# 6 0.0000 0.0000 0.0000 0.0000 0.0000 -74.3167
#
#
#
# Elastic Compliance Matrix: (Units=1/GPa)
#
#
# Indices 1 2 3 4 5 6 
#
# 1 0.009860 -0.002823 -0.002118 0.000000 0.000000 0.000000
# 2 -0.002823 0.009860 -0.002118 0.000000 0.000000 0.000000
# 3 -0.002118 -0.002118 0.006996 0.000000 0.000000 0.000000
# 4 0.000000 0.000000 0.000000 0.023754 0.000000 0.000000
# 5 0.000000 0.000000 0.000000 0.000000 0.023754 0.000000
# 6 0.000000 0.000000 0.000000 0.000000 0.000000 -0.013456
#
#
# Mechanical properties :
#
#
# Convention : Reuss Voigt Hill
#
# Bulk Modulus (GPa) = 79.39397 81.43574 80.41485
# Shear Modulus (GPa) = 63.22366 20.29162 41.75764
#
# Velocity S-wave (km/s) = 5.30061 3.00292 4.30778
# Velocity P-wave (km/s) = 8.52903 6.94358 7.77681
#
# Compressibility (1/GPa) = 0.01259542
#
# Stress axis : x y z
#
# Youngs Moduli (GPa) = 101.42469 101.42469 142.94015
#
# Poissons Ratio (x) = 0.28637 0.30277
# Poissons Ratio (y) = 0.28637 0.30277
# Poissons Ratio (z) = 0.21483 0.21483
#
# Static dielectric constant tensor:
#      x y z
#    x 4.119840 0.000000 0.000000 
#    y 0.000000 4.119840 0.000000 
#    z 0.000000 0.000000 4.108740 
# 
# 
# High freq. dielectric constant tensor:
#      x y z
#    x 1.896660 0.000000 0.000000 
#    y 0.000000 1.896660 0.000000 
#    z 0.000000 0.000000 1.897830 
# 
# From -- ./inp_files/947.got.cif
#   From: 2010.03.12/outbox.cif.g09.slc.cpg/sg126_1_cif.got.tgz:947.got - 2010.04.06 16:55:23.
