data_PCOD8313259
_publ_section_title
;
Structure prediction by ZEFSAII (Michael W. Deem and Ramdas Pophale) SiO2 
 PCOD8313259
Probable space group: P 4/M C C
;
_chemical_formula_sum "Si O2"
_cell_formula_units_Z 96
_cell_length_a 24.006016
_cell_length_b 24.006016
_cell_length_c 8.746042
_cell_angle_alpha 90.000000
_cell_angle_beta 90.000000
_cell_angle_gamma 90.000000
_cell_volume 5040.246086
_symmetry_space_group_name_H-M "P 4/M C C"
_symmetry_group_IT_number 124
_symmetry_cell_setting 'tetragonal'
loop_
_space_group_symop_operation_xyz
x,y,z
-y,x,z
-x,-y,z
y,-x,z
x,-y,1/2-z
-x,y,1/2-z
y,x,1/2-z
-y,-x,1/2-z
-x,-y,-z
y,-x,-z
x,y,-z
-y,x,-z
-x,y,1/2+z
x,-y,1/2+z
-y,-x,1/2+z
y,x,1/2+z
loop_
_atom_site_type_symbol
_atom_site_label
_atom_site_fract_x
_atom_site_fract_y
_atom_site_fract_z
Si Si1 0.145706 0.225472 0.820744
Si Si2 0.440630 0.059493 0.318087
Si Si3 0.060086 0.142222 0.681472
Si Si4 0.729616 0.649409 0.678106
Si Si5 0.639207 0.441174 0.820555
Si Si6 0.153650 0.646218 0.323009
O O1 0.204654 0.204654 0.750000
O O2 0.096670 0.194693 0.731696
O O3 0.136436 0.290424 0.790063
O O4 0.143676 0.210661 0.000000
O O5 0.500000 0.078403 0.250000
O O6 0.445270 0.054551 0.500000
O O7 0.394326 0.104334 0.266965
O O8 0.422500 0.000000 0.250000
O O9 0.085518 0.085518 0.750000
O O10 0.057543 0.137939 0.500000
O O11 0.000000 0.151903 0.750000
O O12 0.707221 0.707221 0.750000
O O13 0.730864 0.659485 0.500000
O O14 0.689399 0.599275 0.726724
O O15 0.790450 0.631957 0.733234
O O16 0.654413 0.500000 0.750000
O O17 0.581721 0.418280 0.750000
O O18 0.631709 0.446591 0.000000
O O19 0.166203 0.636429 0.500000
#
# Coordination Sequence:
#
# PCOD8313259 Si02
#       6
#    16  16  16  16  16  16
#     4  10  20  36  55  80 112 146 181 223 272 322
#     4  10  21  39  59  81 109 143 180 225 275 325
#     4  11  22  38  58  82 111 146 185 228 274 323
#     4  10  21  36  56  81 112 147 183 224 274 323
#     4  10  21  37  56  80 109 144 184 229 276 326
#     4  10  22  37  57  84 113 144 183 224 268 326
#
# _framework density 19.046690000000002
#
# number of rings (size 3 to 8) (size 9 to 14) (size 15 to 20)
#    0.000    1.833    0.000    5.500    0.000    7.667 
#    0.000    6.667    0.000    0.000    0.000    0.000 
#    0.000    0.000    0.000    0.000    0.000    0.000 
#
# Total GULP energy -1190713.952270 kJ/mol
# GULP energy per Si atom -12403.270336 kJ/mol
# Density = 1.900334 g / cm^3
# Si number density = 19.046690 Si / 1000 Ang^3
#
#
#
# Elastic Constant Matrix: (Units=GPa)
#
#
# Indices 1 2 3 4 5 6 
#
# 1 121.6012 77.8267 56.9465 0.0000 0.0000 0.0000
# 2 77.8267 121.6104 56.9519 0.0000 0.0000 0.0000
# 3 56.9465 56.9519 111.1085 0.0000 0.0000 0.0000
# 4 0.0000 0.0000 0.0000 34.0881 0.0000 0.0000
# 5 0.0000 0.0000 0.0000 0.0000 34.0882 0.0000
# 6 0.0000 0.0000 0.0000 0.0000 0.0000 25.7085
#
#
#
# Elastic Compliance Matrix: (Units=1/GPa)
#
#
# Indices 1 2 3 4 5 6 
#
# 1 0.014966 -0.007876 -0.003633 0.000000 0.000000 0.000000
# 2 -0.007876 0.014965 -0.003634 0.000000 0.000000 0.000000
# 3 -0.003633 -0.003634 0.012725 0.000000 0.000000 0.000000
# 4 0.000000 0.000000 0.000000 0.029336 0.000000 0.000000
# 5 0.000000 0.000000 0.000000 0.000000 0.029336 0.000000
# 6 0.000000 0.000000 0.000000 0.000000 0.000000 0.038898
#
#
# Mechanical properties :
#
#
# Convention : Reuss Voigt Hill
#
# Bulk Modulus (GPa) = 80.84605 81.97449 81.41027
# Shear Modulus (GPa) = 28.63094 29.61664 29.12379
#
# Velocity S-wave (km/s) = 3.88132 3.94756 3.91458
# Velocity P-wave (km/s) = 7.91357 7.99436 7.95407
#
# Compressibility (1/GPa) = 0.01236919
#
# Stress axis : x y z
#
# Youngs Moduli (GPa) = 66.81795 66.82059 78.58408
#
# Poissons Ratio (x) = 0.52629 0.28552
# Poissons Ratio (y) = 0.52627 0.28559
# Poissons Ratio (z) = 0.24277 0.24284
#
# Static dielectric constant tensor:
#      x y z
#    x 3.586330 0.000000 0.000000 
#    y 0.000000 3.586340 0.000000 
#    z 0.000000 0.000000 3.619450 
# 
# 
# High freq. dielectric constant tensor:
#      x y z
#    x 1.743500 0.000000 0.000000 
#    y 0.000000 1.743500 0.000000 
#    z 0.000000 0.000000 1.755250 
# 
# From -- ./inp_files/1362.got.cif
#   From: 2010.03.12/outbox.cif.g09.slc.cpg/sg124_1_cif.got.tgz:1362.got - 2010.04.06 16:38:57.
