data_PCOD8313366
_publ_section_title
;
Structure prediction by ZEFSAII (Michael W. Deem and Ramdas Pophale) SiO2 
 PCOD8313366
Probable space group: P 4/M C C
;
_chemical_formula_sum "Si O2"
_cell_formula_units_Z 48
_cell_length_a 9.739200
_cell_length_b 9.739200
_cell_length_c 26.122312
_cell_angle_alpha 90.000000
_cell_angle_beta 90.000000
_cell_angle_gamma 90.000000
_cell_volume 2477.753972
_symmetry_space_group_name_H-M "P 4/M C C"
_symmetry_group_IT_number 124
_symmetry_cell_setting 'tetragonal'
loop_
_space_group_symop_operation_xyz
x,y,z
-y,x,z
-x,-y,z
y,-x,z
x,-y,1/2-z
-x,y,1/2-z
y,x,1/2-z
-y,-x,1/2-z
-x,-y,-z
y,-x,-z
x,y,-z
-y,x,-z
-x,y,1/2+z
x,-y,1/2+z
-y,-x,1/2+z
y,x,1/2+z
loop_
_atom_site_type_symbol
_atom_site_label
_atom_site_fract_x
_atom_site_fract_y
_atom_site_fract_z
Si Si1 0.774172 0.017535 0.693435
Si Si2 0.358399 0.162455 0.557889
Si Si3 0.648801 0.123789 0.596277
O O1 0.655875 0.048287 0.651857
O O2 0.876996 0.144332 0.685491
O O3 0.708210 0.000000 0.750000
O O4 0.366679 0.219417 0.500000
O O5 0.500268 0.193039 0.587962
O O6 0.237340 0.235490 0.588782
O O7 0.329706 0.999035 0.555446
#
# Coordination Sequence:
#
# PCOD8313366 Si02
#       3
#    16  16  16
#     4   9  17  33  60  86 114 146 192 250 305 350
#     4  11  23  38  57  85 122 161 205 249 299 359
#     4  11  21  38  59  85 120 158 200 250 302 358
#
# _framework density 19.372385000000001
#
# number of rings (size 3 to 8) (size 9 to 14) (size 15 to 20)
#    0.000    1.667    3.333    5.000    0.000    1.333 
#    0.000    6.667    0.000    0.000    0.000    0.000 
#    0.000    0.000    0.000    0.000    0.000    0.000 
#
# Total GULP energy -594842.425942 kJ/mol
# GULP energy per Si atom -12392.550540 kJ/mol
# Density = 1.932829 g / cm^3
# Si number density = 19.372385 Si / 1000 Ang^3
#
#
#
# Elastic Constant Matrix: (Units=GPa)
#
#
# Indices 1 2 3 4 5 6 
#
# 1 70.2036 37.3916 23.5819 0.0000 0.0000 0.0000
# 2 37.3916 70.2036 23.5819 0.0000 0.0000 0.0000
# 3 23.5819 23.5819 150.3461 0.0000 0.0000 0.0000
# 4 0.0000 0.0000 0.0000 25.8290 0.0000 0.0000
# 5 0.0000 0.0000 0.0000 0.0000 25.8290 0.0000
# 6 0.0000 0.0000 0.0000 0.0000 0.0000 27.8180
#
#
#
# Elastic Compliance Matrix: (Units=1/GPa)
#
#
# Indices 1 2 3 4 5 6 
#
# 1 0.020228 -0.010248 -0.001565 0.000000 0.000000 0.000000
# 2 -0.010248 0.020228 -0.001565 0.000000 0.000000 0.000000
# 3 -0.001565 -0.001565 0.007142 0.000000 0.000000 0.000000
# 4 0.000000 0.000000 0.000000 0.038716 0.000000 0.000000
# 5 0.000000 0.000000 0.000000 0.000000 0.038716 0.000000
# 6 0.000000 0.000000 0.000000 0.000000 0.000000 0.035948
#
#
# Mechanical properties :
#
#
# Convention : Reuss Voigt Hill
#
# Bulk Modulus (GPa) = 47.98165 51.09602 49.53884
# Shear Modulus (GPa) = 25.68254 29.64172 27.66213
#
# Velocity S-wave (km/s) = 3.64501 3.91590 3.78288
# Velocity P-wave (km/s) = 6.52201 6.84680 6.68637
#
# Compressibility (1/GPa) = 0.02084130
#
# Stress axis : x y z
#
# Youngs Moduli (GPa) = 49.43527 49.43527 140.00913
#
# Poissons Ratio (x) = 0.50662 0.21917
# Poissons Ratio (y) = 0.50662 0.21917
# Poissons Ratio (z) = 0.07739 0.07739
#
# Static dielectric constant tensor:
#      x y z
#    x 3.340680 0.000000 0.000000 
#    y 0.000000 3.340680 0.000000 
#    z 0.000000 0.000000 3.677010 
# 
# 
# High freq. dielectric constant tensor:
#      x y z
#    x 1.737950 0.000000 0.000000 
#    y 0.000000 1.737950 0.000000 
#    z 0.000000 0.000000 1.762470 
# 
# From -- ./inp_files/4766.got.cif
#   From: 2010.03.12/outbox.cif.g09.slc.cpg/sg124_3_cif.got.tgz:4766.got - 2010.04.06 16:38:57.
