data_PCOD8313712
_publ_section_title
;
Structure prediction by ZEFSAII (Michael W. Deem and Ramdas Pophale) SiO2 
 PCOD8313712
Probable space group: P 4/N N C
;
_chemical_formula_sum "Si O2"
_cell_formula_units_Z 112
_cell_length_a 14.836809
_cell_length_b 14.836809
_cell_length_c 25.106651
_cell_angle_alpha 90.000000
_cell_angle_beta 90.000000
_cell_angle_gamma 90.000000
_cell_volume 5526.749713
_symmetry_space_group_name_H-M "P 4/N N C"
_symmetry_group_IT_number 126
_space_group.IT_coordinate_system_code '2'
_symmetry_cell_setting 'tetragonal'
loop_
_space_group_symop_operation_xyz
x,y,z
1/2-y,x,z
1/2-x,1/2-y,z
y,1/2-x,z
x,1/2-y,1/2-z
1/2-x,y,1/2-z
y,x,1/2-z
1/2-y,1/2-x,1/2-z
-x,-y,-z
1/2+y,-x,-z
1/2+x,1/2+y,-z
-y,1/2+x,-z
-x,1/2+y,1/2+z
1/2+x,-y,1/2+z
-y,-x,1/2+z
1/2+y,1/2+x,1/2+z
loop_
_atom_site_type_symbol
_atom_site_label
_atom_site_fract_x
_atom_site_fract_y
_atom_site_fract_z
Si Si1 0.950709 0.086538 0.138137
Si Si2 0.414241 0.942522 0.518464
Si Si3 0.016649 0.279935 0.508986
Si Si4 0.886010 0.805081 0.902207
Si Si5 0.408719 0.013718 0.800062
Si Si6 0.348825 0.854282 0.237748
Si Si7 0.607312 0.789645 0.377755
O O1 0.905075 0.064678 0.081939
O O2 0.874119 0.127982 0.176162
O O3 0.032477 0.157910 0.133747
O O4 0.986135 0.992304 0.160189
O O5 0.427161 0.842401 0.494059
O O6 0.500000 0.000000 0.500000
O O7 0.322622 0.987448 0.497535
O O8 0.087589 0.312796 0.464394
O O9 0.065081 0.298874 0.564376
O O10 0.799062 0.865969 0.889335
O O11 0.418027 0.081974 0.750000
O O12 0.316347 0.036074 0.831919
O O13 0.407664 0.913378 0.777419
O O14 0.358695 0.750000 0.250000
O O15 0.250000 0.890725 0.250000
O O16 0.639358 0.688079 0.370115
#
# Coordination Sequence:
#
# PCOD8313712 Si02
#       7
#    16  16  16  16  16  16  16
#     4  10  22  41  64  93 123 169 213 262 331 382
#     4  11  23  41  63  95 134 175 217 268 326 390
#     4  11  22  39  62  90 135 172 217 257 314 392
#     4  10  21  37  63  95 128 165 210 263 318 385
#     4  10  23  39  64  87 122 162 202 264 325 377
#     4  10  24  44  64  90 120 164 220 270 319 385
#     4  11  23  37  61  94 125 165 210 256 319 386
#
# _framework density 20.265077000000002
#
# number of rings (size 3 to 8) (size 9 to 14) (size 15 to 20)
#    0.000    1.571    0.000    5.143    8.000    1.429 
#    2.571    0.714    0.000    0.000    0.000    0.000 
#    0.000    0.000    0.000    0.000    0.000    0.000 
#
# Total GULP energy -1388994.822646 kJ/mol
# GULP energy per Si atom -12401.739488 kJ/mol
# Density = 2.021895 g / cm^3
# Si number density = 20.265077 Si / 1000 Ang^3
#
#
#
# Elastic Constant Matrix: (Units=GPa)
#
#
# Indices 1 2 3 4 5 6 
#
# 1 102.7605 40.6925 37.2139 0.0000 0.0000 0.0000
# 2 40.6925 102.7606 37.2142 0.0000 0.0000 0.0000
# 3 37.2139 37.2142 96.0162 0.0000 0.0000 0.0000
# 4 0.0000 0.0000 0.0000 26.1773 0.0000 0.0000
# 5 0.0000 0.0000 0.0000 0.0000 26.1767 0.0000
# 6 0.0000 0.0000 0.0000 0.0000 0.0000 28.2039
#
#
#
# Elastic Compliance Matrix: (Units=1/GPa)
#
#
# Indices 1 2 3 4 5 6 
#
# 1 0.012418 -0.003693 -0.003382 0.000000 0.000000 0.000000
# 2 -0.003693 0.012418 -0.003382 0.000000 0.000000 0.000000
# 3 -0.003382 -0.003382 0.013036 0.000000 0.000000 0.000000
# 4 0.000000 0.000000 0.000000 0.038201 0.000000 0.000000
# 5 0.000000 0.000000 0.000000 0.000000 0.038202 0.000000
# 6 0.000000 0.000000 0.000000 0.000000 0.000000 0.035456
#
#
# Mechanical properties :
#
#
# Convention : Reuss Voigt Hill
#
# Bulk Modulus (GPa) = 58.96207 59.08651 59.02429
# Shear Modulus (GPa) = 28.36091 28.53934 28.45013
#
# Velocity S-wave (km/s) = 3.74504 3.75681 3.75093
# Velocity P-wave (km/s) = 6.91802 6.93096 6.92450
#
# Compressibility (1/GPa) = 0.01696006
#
# Stress axis : x y z
#
# Youngs Moduli (GPa) = 80.52548 80.52527 76.70832
#
# Poissons Ratio (x) = 0.29737 0.25941
# Poissons Ratio (y) = 0.29737 0.25942
# Poissons Ratio (z) = 0.27232 0.27233
#
# Static dielectric constant tensor:
#      x y z
#    x 3.836910 0.000000 0.000000 
#    y 0.000000 3.836910 0.000000 
#    z 0.000000 0.000000 3.674230 
# 
# 
# High freq. dielectric constant tensor:
#      x y z
#    x 1.795900 0.000000 0.000000 
#    y 0.000000 1.795900 0.000000 
#    z 0.000000 0.000000 1.792090 
# 
# From -- ./inp_files/5809.got.cif
#   From: 2010.03.12/outbox.cif.g09.slc.cpg/sg126_3_cif.got.tgz:5809.got - 2010.04.06 16:55:23.
