data_PCOD8313790
_publ_section_title
;
Structure prediction by ZEFSAII (Michael W. Deem and Ramdas Pophale) SiO2 
 PCOD8313790
Probable space group: P 4/N N C
;
_chemical_formula_sum "Si O2"
_cell_formula_units_Z 96
_cell_length_a 14.162674
_cell_length_b 14.162674
_cell_length_c 23.457096
_cell_angle_alpha 90.000000
_cell_angle_beta 90.000000
_cell_angle_gamma 90.000000
_cell_volume 4705.055627
_symmetry_space_group_name_H-M "P 4/N N C"
_symmetry_group_IT_number 126
_space_group.IT_coordinate_system_code '2'
_symmetry_cell_setting 'tetragonal'
loop_
_space_group_symop_operation_xyz
x,y,z
1/2-y,x,z
1/2-x,1/2-y,z
y,1/2-x,z
x,1/2-y,1/2-z
1/2-x,y,1/2-z
y,x,1/2-z
1/2-y,1/2-x,1/2-z
-x,-y,-z
1/2+y,-x,-z
1/2+x,1/2+y,-z
-y,1/2+x,-z
-x,1/2+y,1/2+z
1/2+x,-y,1/2+z
-y,-x,1/2+z
1/2+y,1/2+x,1/2+z
loop_
_atom_site_type_symbol
_atom_site_label
_atom_site_fract_x
_atom_site_fract_y
_atom_site_fract_z
Si Si1 0.083321 0.934825 0.382935
Si Si2 0.452743 0.602216 0.107394
Si Si3 0.747882 0.141896 0.317241
Si Si4 0.628115 0.152799 0.000839
Si Si5 0.107127 0.201672 0.961594
Si Si6 0.104825 0.201922 0.094798
O O1 0.094297 0.847750 0.340122
O O2 0.078600 0.897959 0.447757
O O3 0.168960 0.009605 0.373064
O O4 0.987226 0.990680 0.369009
O O5 0.405817 0.656743 0.159890
O O6 0.375321 0.572520 0.059090
O O7 0.519229 0.676833 0.076458
O O8 0.750000 0.250000 0.337972
O O9 0.750000 0.131820 0.250000
O O10 0.620123 0.264004 0.992583
O O11 0.191812 0.132148 0.945577
O O12 0.083957 0.192749 0.027969
O O13 0.191461 0.132197 0.111751
#
# Coordination Sequence:
#
# PCOD8313790 Si02
#       6
#    16  16  16  16  16  16
#     4  12  24  37  67  98 129 177 221 276 335 394
#     4  12  23  36  63  96 127 163 224 275 323 399
#     4  11  27  51  69  88 128 175 224 281 337 390
#     4  11  23  37  58  95 144 177 214 269 338 399
#     4   9  18  32  50  81 131 176 202 244 315 386
#     4   9  20  35  55  92 142 178 208 256 325 406
#
# _framework density 20.403585
#
# number of rings (size 3 to 8) (size 9 to 14) (size 15 to 20)
#    0.000    1.333    3.333    3.500    4.667    0.667 
#    0.000    0.000    0.000    0.000    0.000    1.167 
#    0.000    0.000    0.000    0.000    0.000    0.000 
#
# Total GULP energy -1190565.245633 kJ/mol
# GULP energy per Si atom -12401.721309 kJ/mol
# Density = 2.035715 g / cm^3
# Si number density = 20.403585 Si / 1000 Ang^3
#
#
#
# Elastic Constant Matrix: (Units=GPa)
#
#
# Indices 1 2 3 4 5 6 
#
# 1 99.5915 37.8474 35.8684 0.0000 0.0000 0.0000
# 2 37.8474 99.5915 35.8684 0.0000 0.0000 0.0000
# 3 35.8684 35.8684 59.4092 0.0000 0.0000 0.0000
# 4 0.0000 0.0000 0.0000 18.8385 0.0000 0.0000
# 5 0.0000 0.0000 0.0000 0.0000 18.8385 0.0000
# 6 0.0000 0.0000 0.0000 0.0000 0.0000 40.6934
#
#
#
# Elastic Compliance Matrix: (Units=1/GPa)
#
#
# Indices 1 2 3 4 5 6 
#
# 1 0.013410 -0.002786 -0.006414 0.000000 0.000000 0.000000
# 2 -0.002786 0.013410 -0.006414 0.000000 0.000000 0.000000
# 3 -0.006414 -0.006414 0.024577 0.000000 0.000000 0.000000
# 4 0.000000 0.000000 0.000000 0.053083 0.000000 0.000000
# 5 0.000000 0.000000 0.000000 0.000000 0.053083 0.000000
# 6 0.000000 0.000000 0.000000 0.000000 0.000000 0.024574
#
#
# Mechanical properties :
#
#
# Convention : Reuss Voigt Hill
#
# Bulk Modulus (GPa) = 49.58208 53.08450 51.33329
# Shear Modulus (GPa) = 22.71817 25.60797 24.16307
#
# Velocity S-wave (km/s) = 3.34044 3.54654 3.44504
# Velocity P-wave (km/s) = 6.26351 6.54556 6.40609
#
# Compressibility (1/GPa) = 0.02016858
#
# Stress axis : x y z
#
# Youngs Moduli (GPa) = 74.57193 74.57193 40.68763
#
# Poissons Ratio (x) = 0.20776 0.26098
# Poissons Ratio (y) = 0.20776 0.26098
# Poissons Ratio (z) = 0.47832 0.47832
#
# Static dielectric constant tensor:
#      x y z
#    x 3.915140 0.000000 0.000000 
#    y 0.000000 3.915140 0.000000 
#    z 0.000000 0.000000 3.226460 
# 
# 
# High freq. dielectric constant tensor:
#      x y z
#    x 1.818030 0.000000 0.000000 
#    y 0.000000 1.818030 0.000000 
#    z 0.000000 0.000000 1.738890 
# 
# From -- ./inp_files/5239.got.cif
#   From: 2010.03.12/outbox.cif.g09.slc.cpg/sg126_3_cif.got.tgz:5239.got - 2010.04.06 16:55:23.
