data_PCOD8313879
_publ_section_title
;
Structure prediction by ZEFSAII (Michael W. Deem and Ramdas Pophale) SiO2 
 PCOD8313879
Probable space group: P 4/M B M
;
_chemical_formula_sum "Si O2"
_cell_formula_units_Z 104
_cell_length_a 16.891237
_cell_length_b 16.891237
_cell_length_c 20.784953
_cell_angle_alpha 90.000000
_cell_angle_beta 90.000000
_cell_angle_gamma 90.000000
_cell_volume 5930.235740
_symmetry_space_group_name_H-M "P 4/M B M"
_symmetry_group_IT_number 127
_symmetry_cell_setting 'tetragonal'
loop_
_space_group_symop_operation_xyz
x,y,z
-y,x,z
-x,-y,z
y,-x,z
1/2+x,1/2-y,-z
1/2-x,1/2+y,-z
1/2+y,1/2+x,-z
1/2-y,1/2-x,-z
-x,-y,-z
y,-x,-z
x,y,-z
-y,x,-z
1/2-x,1/2+y,z
1/2+x,1/2-y,z
1/2-y,1/2-x,z
1/2+y,1/2+x,z
loop_
_atom_site_type_symbol
_atom_site_label
_atom_site_fract_x
_atom_site_fract_y
_atom_site_fract_z
Si Si1 0.288157 0.340404 0.654779
Si Si2 0.813931 0.558220 0.573039
Si Si3 0.600608 0.411483 0.000000
Si Si4 0.093488 0.718536 0.655304
Si Si5 0.199859 0.172336 0.111127
Si Si6 0.809318 0.432452 0.197641
Si Si7 0.106313 0.265357 0.783447
O O1 0.236544 0.263457 0.674392
O O2 0.255920 0.380547 0.589934
O O3 0.376416 0.307910 0.638644
O O4 0.284167 0.400836 0.716111
O O5 0.803432 0.528880 0.500000
O O6 0.898998 0.601002 0.582457
O O7 0.805610 0.488013 0.622964
O O8 0.610653 0.507072 0.000000
O O9 0.645032 0.371975 0.940014
O O10 0.154262 0.654262 0.627861
O O11 0.090187 0.718887 0.731743
O O12 0.257919 0.242082 0.082857
O O13 0.252726 0.106633 0.145242
O O14 0.140241 0.208913 0.162320
O O15 0.898983 0.398983 0.187191
O O16 0.803221 0.525854 0.189872
O O17 0.160138 0.339863 0.768394
#
# Coordination Sequence:
#
# PCOD8313879 Si02
#       7
#    16  16   8  16  16  16  16
#     4   9  17  32  51  73  99 132 177 219 259 313
#     4  10  21  35  51  74 105 139 176 222 275 326
#     4  11  23  38  56  82 115 147 180 220 270 325
#     4  10  19  32  52  76 102 134 175 219 266 321
#     4  10  20  36  57  81 109 144 182 222 265 318
#     4  10  19  31  51  81 109 135 175 224 270 316
#     4  10  18  31  53  78 106 140 175 218 266 315
#
# _framework density 17.537244999999999
#
# number of rings (size 3 to 8) (size 9 to 14) (size 15 to 20)
#    0.000    2.077    3.077    1.154    0.000    1.538 
#    0.000    3.846    0.000    0.462    0.000    1.077 
#    0.000   11.077    0.000    0.000    0.000    0.000 
#
# Total GULP energy -1288641.367771 kJ/mol
# GULP energy per Si atom -12390.782382 kJ/mol
# Density = 1.749733 g / cm^3
# Si number density = 17.537245 Si / 1000 Ang^3
#
#
#
# Elastic Constant Matrix: (Units=GPa)
#
#
# Indices 1 2 3 4 5 6 
#
# 1 72.4095 31.5653 25.1788 0.0000 0.0000 0.0000
# 2 31.5653 72.4095 25.1788 0.0000 0.0000 0.0000
# 3 25.1788 25.1788 63.6256 0.0000 0.0000 0.0000
# 4 0.0000 0.0000 0.0000 10.4695 0.0000 0.0000
# 5 0.0000 0.0000 0.0000 0.0000 10.4695 0.0000
# 6 0.0000 0.0000 0.0000 0.0000 0.0000 20.3907
#
#
#
# Elastic Compliance Matrix: (Units=1/GPa)
#
#
# Indices 1 2 3 4 5 6 
#
# 1 0.018191 -0.006293 -0.004709 0.000000 0.000000 0.000000
# 2 -0.006293 0.018191 -0.004709 0.000000 0.000000 0.000000
# 3 -0.004709 -0.004709 0.019444 0.000000 0.000000 0.000000
# 4 0.000000 0.000000 0.000000 0.095516 0.000000 0.000000
# 5 0.000000 0.000000 0.000000 0.000000 0.095516 0.000000
# 6 0.000000 0.000000 0.000000 0.000000 0.000000 0.049042
#
#
# Mechanical properties :
#
#
# Convention : Reuss Voigt Hill
#
# Bulk Modulus (GPa) = 40.97375 41.36561 41.16968
# Shear Modulus (GPa) = 14.90523 16.70071 15.80297
#
# Velocity S-wave (km/s) = 2.91850 3.08928 3.00510
# Velocity P-wave (km/s) = 5.89673 6.03021 5.96384
#
# Compressibility (1/GPa) = 0.02440587
#
# Stress axis : x y z
#
# Youngs Moduli (GPa) = 54.97308 54.97308 51.43087
#
# Poissons Ratio (x) = 0.34592 0.24216
# Poissons Ratio (y) = 0.34592 0.24216
# Poissons Ratio (z) = 0.25884 0.25884
#
# Static dielectric constant tensor:
#      x y z
#    x 3.321160 0.000000 0.000000 
#    y 0.000000 3.321160 0.000000 
#    z 0.000000 0.000000 3.174820 
# 
# 
# High freq. dielectric constant tensor:
#      x y z
#    x 1.671920 0.000000 0.000000 
#    y 0.000000 1.671920 0.000000 
#    z 0.000000 0.000000 1.672760 
# 
# From -- ./inp_files/5224.got.cif
#   From: 2010.03.12/outbox.cif.g09.slc.cpg/sg127_3_cif.got.tgz:5224.got - 2010.04.06 17:03:15.
