data_PCOD8313054
_publ_section_title
;
Structure prediction by ZEFSAII (Michael W. Deem and Ramdas Pophale) SiO2 
 PCOD8313054
Probable space group: P 4/M M M
;
_chemical_formula_sum "Si O2"
_cell_formula_units_Z 80
_cell_length_a 14.298650
_cell_length_b 14.298650
_cell_length_c 24.635178
_cell_angle_alpha 90.000000
_cell_angle_beta 90.000000
_cell_angle_gamma 90.000000
_cell_volume 5036.696430
_symmetry_space_group_name_H-M "P 4/M M M"
_symmetry_group_IT_number 123
_symmetry_cell_setting 'tetragonal'
loop_
_space_group_symop_operation_xyz
x,y,z
-y,x,z
-x,-y,z
y,-x,z
x,-y,-z
-x,y,-z
y,x,-z
-y,-x,-z
-x,-y,-z
y,-x,-z
x,y,-z
-y,x,-z
-x,y,z
x,-y,z
-y,-x,z
y,x,z
loop_
_atom_site_type_symbol
_atom_site_label
_atom_site_fract_x
_atom_site_fract_y
_atom_site_fract_z
Si Si1 0.606464 0.756419 0.749441
Si Si2 0.892411 0.741734 0.438956
Si Si3 0.391159 0.238697 0.126284
Si Si4 0.107539 0.607741 0.344197
Si Si5 0.258372 0.107261 0.063777
O O1 0.500000 0.729441 0.737993
O O2 0.663546 0.663546 0.736840
O O3 0.620377 0.790776 0.811021
O O4 0.641030 0.838068 0.709467
O O5 0.875738 0.703396 0.500000
O O6 0.836544 0.836544 0.428349
O O7 0.857373 0.663168 0.397114
O O8 0.000000 0.767011 0.429227
O O9 0.500000 0.253863 0.110728
O O10 0.335217 0.335217 0.114071
O O11 0.348727 0.153372 0.091884
O O12 0.126057 0.500000 0.357337
O O13 0.000000 0.628210 0.331662
O O14 0.164390 0.164390 0.079692
O O15 0.246355 0.000000 0.083241
O O16 0.276416 0.111977 0.000000
#
# Coordination Sequence:
#
# PCOD8313054 Si02
#       5
#    16  16  16  16  16
#     4   9  17  29  45  64  86 112 141 174 211 249
#     4   9  17  28  42  60  81 106 136 169 205 245
#     4   9  18  31  46  66  91 118 149 183 218 258
#     4   9  17  28  42  61  84 109 137 169 206 248
#     4   9  18  32  49  69  92 117 146 181 220 261
#
# _framework density 15.883428
#
# number of rings (size 3 to 8) (size 9 to 14) (size 15 to 20)
#    0.000    3.000    0.000    0.600    0.000    2.800 
#    0.000    9.000    0.000    0.000    0.000    2.800 
#    0.000    4.800    0.000   18.600    0.000    0.600 
#
# Total GULP energy -991871.385606 kJ/mol
# GULP energy per Si atom -12398.392320 kJ/mol
# Density = 1.584728 g / cm^3
# Si number density = 15.883428 Si / 1000 Ang^3
#
#
#
# Elastic Constant Matrix: (Units=GPa)
#
#
# Indices 1 2 3 4 5 6 
#
# 1 94.4861 54.7299 50.8478 0.0000 0.0000 0.0000
# 2 54.7299 94.4861 50.8478 0.0000 0.0000 0.0000
# 3 50.8478 50.8478 66.9560 0.0000 0.0000 0.0000
# 4 0.0000 0.0000 0.0000 27.4582 0.0000 0.0000
# 5 0.0000 0.0000 0.0000 0.0000 27.4582 0.0000
# 6 0.0000 0.0000 0.0000 0.0000 0.0000 21.6738
#
#
#
# Elastic Compliance Matrix: (Units=1/GPa)
#
#
# Indices 1 2 3 4 5 6 
#
# 1 0.019522 -0.005631 -0.010550 0.000000 0.000000 0.000000
# 2 -0.005631 0.019522 -0.010550 0.000000 0.000000 0.000000
# 3 -0.010550 -0.010550 0.030958 0.000000 0.000000 0.000000
# 4 0.000000 0.000000 0.000000 0.036419 0.000000 0.000000
# 5 0.000000 0.000000 0.000000 0.000000 0.036419 0.000000
# 6 0.000000 0.000000 0.000000 0.000000 0.000000 0.046139
#
#
# Mechanical properties :
#
#
# Convention : Reuss Voigt Hill
#
# Bulk Modulus (GPa) = 60.44771 63.19767 61.82269
# Shear Modulus (GPa) = 20.16504 21.95156 21.05830
#
# Velocity S-wave (km/s) = 3.56696 3.72162 3.64511
# Velocity P-wave (km/s) = 7.42321 7.63820 7.53147
#
# Compressibility (1/GPa) = 0.01654322
#
# Stress axis : x y z
#
# Youngs Moduli (GPa) = 51.22319 51.22319 32.30161
#
# Poissons Ratio (x) = 0.28843 0.34077
# Poissons Ratio (y) = 0.28843 0.34077
# Poissons Ratio (z) = 0.54038 0.54038
#
# Static dielectric constant tensor:
#      x y z
#    x 3.026760 0.000000 0.000000 
#    y 0.000000 3.026760 0.000000 
#    z 0.000000 0.000000 3.145300 
# 
# 
# High freq. dielectric constant tensor:
#      x y z
#    x 1.605450 0.000000 0.000000 
#    y 0.000000 1.605450 0.000000 
#    z 0.000000 0.000000 1.612710 
# 
# From -- ./inp_files/6247.got.cif
#   From: 2010.03.12/outbox.cif.g09.slc.cpg/sg123_4_cif.got.tgz:6247.got - 2010.04.06 16:26:55.
