data_PCOD8313049
_publ_section_title
;
Structure prediction by ZEFSAII (Michael W. Deem and Ramdas Pophale) SiO2 
 PCOD8313049
Probable space group: P 4/M M M
;
_chemical_formula_sum "Si O2"
_cell_formula_units_Z 72
_cell_length_a 14.577476
_cell_length_b 14.577476
_cell_length_c 22.514396
_cell_angle_alpha 90.000000
_cell_angle_beta 90.000000
_cell_angle_gamma 90.000000
_cell_volume 4784.372337
_symmetry_space_group_name_H-M "P 4/M M M"
_symmetry_group_IT_number 123
_symmetry_cell_setting 'tetragonal'
loop_
_space_group_symop_operation_xyz
x,y,z
-y,x,z
-x,-y,z
y,-x,z
x,-y,-z
-x,y,-z
y,x,-z
-y,-x,-z
-x,-y,-z
y,-x,-z
x,y,-z
-y,x,-z
-x,y,z
x,-y,z
-y,-x,z
y,x,z
loop_
_atom_site_type_symbol
_atom_site_label
_atom_site_fract_x
_atom_site_fract_y
_atom_site_fract_z
Si Si1 0.755605 0.606037 0.098119
Si Si2 0.253408 0.105214 0.432506
Si Si3 0.897476 0.608233 0.000000
Si Si4 0.246905 0.604852 0.766232
Si Si5 0.105231 0.605262 0.666969
O O1 0.730565 0.500000 0.084618
O O2 0.665797 0.665797 0.082710
O O3 0.785831 0.619990 0.166220
O O4 0.841276 0.639605 0.058368
O O5 0.286382 0.121853 0.500000
O O6 0.163947 0.163947 0.416945
O O7 0.336371 0.135628 0.390112
O O8 0.225699 0.000000 0.421983
O O9 0.908290 0.500000 0.000000
O O10 0.000000 0.652657 0.000000
O O11 0.275331 0.500000 0.755049
O O12 0.335835 0.664166 0.750687
O O13 0.163521 0.635238 0.724178
O O14 0.122705 0.500000 0.649817
O O15 0.000000 0.623179 0.684016
#
# Coordination Sequence:
#
# PCOD8313049 Si02
#       5
#    16  16   8  16  16
#     4   9  17  28  42  61  84 109 136 165 198 237
#     4   9  17  28  42  60  81 105 132 163 201 244
#     4   9  17  28  41  57  79 107 135 163 195 230
#     4   9  17  28  42  60  82 108 136 166 199 235
#     4   9  17  28  42  60  81 106 136 168 201 237
#
# _framework density 15.048996000000001
#
# number of rings (size 3 to 8) (size 9 to 14) (size 15 to 20)
#    0.000    3.000    0.000    1.000    0.000    2.000 
#    0.000   10.000    0.000    2.000    0.000    0.000 
#    0.000    3.556    0.000   37.111    0.000    2.000 
#
# Total GULP energy -892684.889363 kJ/mol
# GULP energy per Si atom -12398.401241 kJ/mol
# Density = 1.501474 g / cm^3
# Si number density = 15.048996 Si / 1000 Ang^3
#
#
#
# Elastic Constant Matrix: (Units=GPa)
#
#
# Indices 1 2 3 4 5 6 
#
# 1 82.2310 53.8184 63.9358 0.0000 0.0000 0.0000
# 2 53.8184 82.2310 63.9358 0.0000 0.0000 0.0000
# 3 63.9358 63.9358 107.0749 0.0000 0.0000 0.0000
# 4 0.0000 0.0000 0.0000 25.1947 0.0000 0.0000
# 5 0.0000 0.0000 0.0000 0.0000 25.1947 0.0000
# 6 0.0000 0.0000 0.0000 0.0000 0.0000 19.8440
#
#
#
# Elastic Compliance Matrix: (Units=1/GPa)
#
#
# Indices 1 2 3 4 5 6 
#
# 1 0.025974 -0.009222 -0.010003 0.000000 0.000000 0.000000
# 2 -0.009222 0.025974 -0.010003 0.000000 0.000000 0.000000
# 3 -0.010003 -0.010003 0.021285 0.000000 0.000000 0.000000
# 4 0.000000 0.000000 0.000000 0.039691 0.000000 0.000000
# 5 0.000000 0.000000 0.000000 0.000000 0.039691 0.000000
# 6 0.000000 0.000000 0.000000 0.000000 0.000000 0.050393
#
#
# Mechanical properties :
#
#
# Convention : Reuss Voigt Hill
#
# Bulk Modulus (GPa) = 67.67071 70.54634 69.10852
# Shear Modulus (GPa) = 18.76968 20.03647 19.40307
#
# Velocity S-wave (km/s) = 3.53546 3.65282 3.59462
# Velocity P-wave (km/s) = 7.85688 8.04800 7.95301
#
# Compressibility (1/GPa) = 0.01477744
#
# Stress axis : x y z
#
# Youngs Moduli (GPa) = 38.50057 38.50057 46.98221
#
# Poissons Ratio (x) = 0.35505 0.46995
# Poissons Ratio (y) = 0.35505 0.46995
# Poissons Ratio (z) = 0.38511 0.38511
#
# Static dielectric constant tensor:
#      x y z
#    x 2.879550 0.000000 0.000000 
#    y 0.000000 2.879550 0.000000 
#    z 0.000000 0.000000 3.039550 
# 
# 
# High freq. dielectric constant tensor:
#      x y z
#    x 1.563960 0.000000 0.000000 
#    y 0.000000 1.563960 0.000000 
#    z 0.000000 0.000000 1.584850 
# 
# From -- ./inp_files/5141.got.cif
#   From: 2010.03.12/outbox.cif.g09.slc.cpg/sg123_3_cif.got.tgz:5141.got - 2010.04.06 16:26:55.
