data_PCOD8313854
_publ_section_title
;
Structure prediction by ZEFSAII (Michael W. Deem and Ramdas Pophale) SiO2 
 PCOD8313854
Probable space group: P 4/M B M
;
_chemical_formula_sum "Si O2"
_cell_formula_units_Z 88
_cell_length_a 26.458949
_cell_length_b 26.458949
_cell_length_c 9.115232
_cell_angle_alpha 90.000000
_cell_angle_beta 90.000000
_cell_angle_gamma 90.000000
_cell_volume 6381.354995
_symmetry_space_group_name_H-M "P 4/M B M"
_symmetry_group_IT_number 127
_symmetry_cell_setting 'tetragonal'
loop_
_space_group_symop_operation_xyz
x,y,z
-y,x,z
-x,-y,z
y,-x,z
1/2+x,1/2-y,-z
1/2-x,1/2+y,-z
1/2+y,1/2+x,-z
1/2-y,1/2-x,-z
-x,-y,-z
y,-x,-z
x,y,-z
-y,x,-z
1/2-x,1/2+y,z
1/2+x,1/2-y,z
1/2-y,1/2-x,z
1/2+y,1/2+x,z
loop_
_atom_site_type_symbol
_atom_site_label
_atom_site_fract_x
_atom_site_fract_y
_atom_site_fract_z
Si Si1 0.748316 0.836568 0.335029
Si Si2 0.268035 0.317140 0.834757
Si Si3 0.196758 0.385103 0.331521
Si Si4 0.959827 0.540174 0.325672
Si Si5 0.509145 0.150026 0.328644
Si Si6 0.675765 0.906801 0.827181
O O1 0.761504 0.854084 0.500000
O O2 0.708161 0.791840 0.337813
O O3 0.799309 0.817099 0.256248
O O4 0.725931 0.883498 0.245029
O O5 0.226413 0.273588 0.831091
O O6 0.244497 0.367673 0.764555
O O7 0.285100 0.329211 0.000000
O O8 0.210747 0.375138 0.500000
O O9 0.146106 0.353895 0.290501
O O10 0.187500 0.444061 0.301562
O O11 0.958462 0.541539 0.500000
O O12 0.904939 0.524478 0.267390
O O13 0.000000 0.500000 0.264680
O O14 0.494273 0.147671 0.500000
O O15 0.462534 0.169567 0.235220
O O16 0.626596 0.873405 0.786464
O O17 0.684259 0.908822 0.000000
#
# Coordination Sequence:
#
# PCOD8313854 Si02
#       6
#    16  16  16   8  16  16
#     4   9  16  27  43  60  75  94 122 156 193 235
#     4   9  16  25  39  59  80  99 119 147 191 241
#     4   9  16  27  41  57  77  99 128 164 200 237
#     4   9  16  26  41  57  71  93 133 181 219 245
#     4  10  18  29  43  58  74  99 135 174 209 242
#     4  10  20  31  41  55  77 102 129 165 208 249
#
# _framework density 13.790174
#
# number of rings (size 3 to 8) (size 9 to 14) (size 15 to 20)
#    0.000    2.636    0.909    2.182    0.000    6.909 
#    0.000    0.455    0.000    1.636    0.000    0.000 
#    0.000    0.000    0.000    0.000    0.000    0.909 
#
# Total GULP energy -1091155.021293 kJ/mol
# GULP energy per Si atom -12399.488878 kJ/mol
# Density = 1.375879 g / cm^3
# Si number density = 13.790174 Si / 1000 Ang^3
#
#
#
# Elastic Constant Matrix: (Units=GPa)
#
#
# Indices 1 2 3 4 5 6 
#
# 1 59.2601 52.8559 44.6539 0.0000 0.0000 0.0000
# 2 52.8559 59.2602 44.6539 0.0000 0.0000 0.0000
# 3 44.6539 44.6539 90.5846 0.0000 0.0000 0.0000
# 4 0.0000 0.0000 0.0000 18.5723 0.0000 0.0000
# 5 0.0000 0.0000 0.0000 0.0000 18.5723 0.0000
# 6 0.0000 0.0000 0.0000 0.0000 0.0000 22.5477
#
#
#
# Elastic Compliance Matrix: (Units=1/GPa)
#
#
# Indices 1 2 3 4 5 6 
#
# 1 0.085417 -0.070730 -0.007240 0.000000 0.000000 0.000000
# 2 -0.070730 0.085416 -0.007240 0.000000 0.000000 0.000000
# 3 -0.007240 -0.007240 0.018177 0.000000 0.000000 0.000000
# 4 0.000000 0.000000 0.000000 0.053844 0.000000 0.000000
# 5 0.000000 0.000000 0.000000 0.000000 0.053844 0.000000
# 6 0.000000 0.000000 0.000000 0.000000 0.000000 0.044350
#
#
# Mechanical properties :
#
#
# Convention : Reuss Voigt Hill
#
# Bulk Modulus (GPa) = 53.78972 54.82583 54.30778
# Shear Modulus (GPa) = 9.65878 16.40119 13.02999
#
# Velocity S-wave (km/s) = 2.64940 3.45242 3.07722
# Velocity P-wave (km/s) = 6.96057 7.46564 7.21753
#
# Compressibility (1/GPa) = 0.01859091
#
# Stress axis : x y z
#
# Youngs Moduli (GPa) = 11.70732 11.70736 55.01482
#
# Poissons Ratio (x) = 0.82807 0.39829
# Poissons Ratio (y) = 0.82806 0.39828
# Poissons Ratio (z) = 0.08476 0.08476
#
# Static dielectric constant tensor:
#      x y z
#    x 2.569570 0.000000 0.000000 
#    y 0.000000 2.569570 0.000000 
#    z 0.000000 0.000000 2.781030 
# 
# 
# High freq. dielectric constant tensor:
#      x y z
#    x 1.496600 0.000000 0.000000 
#    y 0.000000 1.496600 0.000000 
#    z 0.000000 0.000000 1.531760 
# 
# From -- ./inp_files/2177.got.cif
#   From: 2010.03.12/outbox.cif.g09.slc.cpg/sg127_2_cif.got.tgz:2177.got - 2010.04.06 17:03:15.
