data_PCOD8313223
_publ_section_title
;
Structure prediction by ZEFSAII (Michael W. Deem and Ramdas Pophale) SiO2 
 PCOD8313223
Probable space group: P 4/M C C
;
_chemical_formula_sum "Si O2"
_cell_formula_units_Z 80
_cell_length_a 15.847832
_cell_length_b 15.847832
_cell_length_c 16.601181
_cell_angle_alpha 90.000000
_cell_angle_beta 90.000000
_cell_angle_gamma 90.000000
_cell_volume 4169.449346
_symmetry_space_group_name_H-M "P 4/M C C"
_symmetry_group_IT_number 124
_symmetry_cell_setting 'tetragonal'
loop_
_space_group_symop_operation_xyz
x,y,z
-y,x,z
-x,-y,z
y,-x,z
x,-y,1/2-z
-x,y,1/2-z
y,x,1/2-z
-y,-x,1/2-z
-x,-y,-z
y,-x,-z
x,y,-z
-y,x,-z
-x,y,1/2+z
x,-y,1/2+z
-y,-x,1/2+z
y,x,1/2+z
loop_
_atom_site_type_symbol
_atom_site_label
_atom_site_fract_x
_atom_site_fract_y
_atom_site_fract_z
Si Si1 0.366019 0.203845 0.905399
Si Si2 0.585422 0.031150 0.341482
Si Si3 0.016179 0.236264 0.156004
Si Si4 0.620199 0.557982 0.404346
Si Si5 0.177793 0.153219 0.091916
O O1 0.410907 0.132383 0.851427
O O2 0.400099 0.293518 0.872500
O O3 0.266001 0.199286 0.890211
O O4 0.386511 0.189880 0.000000
O O5 0.669260 0.990654 0.381957
O O6 0.500000 0.000000 0.386024
O O7 0.581183 0.000000 0.250000
O O8 0.945685 0.178568 0.113842
O O9 0.000000 0.241613 0.250000
O O10 0.108466 0.199382 0.145233
O O11 0.538993 0.611656 0.373639
O O12 0.620752 0.559484 0.500000
O O13 0.150652 0.162895 0.000000
#
# Coordination Sequence:
#
# PCOD8313223 Si02
#       5
#    16  16  16  16  16
#     4   9  18  31  49  76 106 135 171 213 254 300
#     4   9  19  35  52  71 100 133 169 210 254 302
#     4  10  20  35  54  74  99 132 172 209 248 305
#     4   8  14  26  45  72 108 143 171 203 245 296
#     4  10  20  34  51  74 104 133 165 211 261 301
#
# _framework density 19.187184999999999
#
# number of rings (size 3 to 8) (size 9 to 14) (size 15 to 20)
#    0.000    2.800    0.000    1.800    0.000    3.200 
#    0.000    4.000    0.000    0.000    0.000    0.000 
#    0.000    6.400    0.000    0.000    0.000    0.000 
#
# Total GULP energy -991608.976088 kJ/mol
# GULP energy per Si atom -12395.112201 kJ/mol
# Density = 1.914351 g / cm^3
# Si number density = 19.187185 Si / 1000 Ang^3
#
#
#
# Elastic Constant Matrix: (Units=GPa)
#
#
# Indices 1 2 3 4 5 6 
#
# 1 155.0661 94.5282 31.7947 0.0000 0.0000 0.0000
# 2 94.5282 155.0661 31.7947 0.0000 0.0000 0.0000
# 3 31.7947 31.7947 42.9316 0.0000 0.0000 0.0000
# 4 0.0000 0.0000 0.0000 19.7635 0.0000 0.0000
# 5 0.0000 0.0000 0.0000 0.0000 19.7635 0.0000
# 6 0.0000 0.0000 0.0000 0.0000 0.0000 24.7289
#
#
#
# Elastic Compliance Matrix: (Units=1/GPa)
#
#
# Indices 1 2 3 4 5 6 
#
# 1 0.010728 -0.005790 -0.003657 0.000000 0.000000 0.000000
# 2 -0.005790 0.010728 -0.003657 0.000000 0.000000 0.000000
# 3 -0.003657 -0.003657 0.028710 0.000000 0.000000 0.000000
# 4 0.000000 0.000000 0.000000 0.050598 0.000000 0.000000
# 5 0.000000 0.000000 0.000000 0.000000 0.050598 0.000000
# 6 0.000000 0.000000 0.000000 0.000000 0.000000 0.040438
#
#
# Mechanical properties :
#
#
# Convention : Reuss Voigt Hill
#
# Bulk Modulus (GPa) = 41.74057 74.36654 58.05356
# Shear Modulus (GPa) = 22.12422 25.84762 23.98592
#
# Velocity S-wave (km/s) = 3.39938 3.67431 3.53951
# Velocity P-wave (km/s) = 6.09994 7.53945 6.85757
#
# Compressibility (1/GPa) = 0.02395751
#
# Stress axis : x y z
#
# Youngs Moduli (GPa) = 93.21041 93.21041 34.83124
#
# Poissons Ratio (x) = 0.53970 0.12739
# Poissons Ratio (y) = 0.53970 0.12739
# Poissons Ratio (z) = 0.34089 0.34089
#
# Static dielectric constant tensor:
#      x y z
#    x 3.825020 0.000000 0.000000 
#    y 0.000000 3.825020 0.000000 
#    z 0.000000 0.000000 3.169240 
# 
# 
# High freq. dielectric constant tensor:
#      x y z
#    x 1.751350 0.000000 0.000000 
#    y 0.000000 1.751350 0.000000 
#    z 0.000000 0.000000 1.715710 
# 
# From -- ./inp_files/5070.got.cif
#   From: 2010.03.12/outbox.cif.g09.slc.cpg/sg124_3_cif.got.tgz:5070.got - 2010.04.06 16:38:57.
