data_PCOD8313851
_publ_section_title
;
Structure prediction by ZEFSAII (Michael W. Deem and Ramdas Pophale) SiO2 
 PCOD8313851
Probable space group: P 4/M B M
;
_chemical_formula_sum "Si O2"
_cell_formula_units_Z 128
_cell_length_a 26.895417
_cell_length_b 26.895417
_cell_length_c 9.630443
_cell_angle_alpha 90.000000
_cell_angle_beta 90.000000
_cell_angle_gamma 90.000000
_cell_volume 6966.310527
_symmetry_space_group_name_H-M "P 4/M B M"
_symmetry_group_IT_number 127
_symmetry_cell_setting 'tetragonal'
loop_
_space_group_symop_operation_xyz
x,y,z
-y,x,z
-x,-y,z
y,-x,z
1/2+x,1/2-y,-z
1/2-x,1/2+y,-z
1/2+y,1/2+x,-z
1/2-y,1/2-x,-z
-x,-y,-z
y,-x,-z
x,y,-z
-y,x,-z
1/2-x,1/2+y,z
1/2+x,1/2-y,z
1/2-y,1/2-x,z
1/2+y,1/2+x,z
loop_
_atom_site_type_symbol
_atom_site_label
_atom_site_fract_x
_atom_site_fract_y
_atom_site_fract_z
Si Si1 0.857208 0.563290 0.339955
Si Si2 0.123259 0.072833 0.664623
Si Si3 0.731589 0.690647 0.334868
Si Si4 0.246053 0.919430 0.334807
Si Si5 0.643207 0.536418 0.665701
Si Si6 0.875088 0.223761 0.336422
Si Si7 0.102516 0.522624 0.159767
Si Si8 0.104456 0.684549 0.842081
O O1 0.857347 0.546357 0.500000
O O2 0.881686 0.618315 0.325495
O O3 0.800428 0.563136 0.280999
O O4 0.891575 0.525452 0.254999
O O5 0.118950 0.073030 0.500000
O O6 0.078000 0.105549 0.726402
O O7 0.174574 0.096790 0.712353
O O8 0.122815 0.016332 0.721264
O O9 0.731904 0.687866 0.500000
O O10 0.778111 0.721890 0.277663
O O11 0.734725 0.635268 0.273558
O O12 0.681630 0.718261 0.286662
O O13 0.247934 0.917058 0.500000
O O14 0.200460 0.954596 0.284170
O O15 0.643041 0.538137 0.500000
O O16 0.879931 0.232666 0.500000
O O17 0.900912 0.269617 0.261158
O O18 0.052285 0.552285 0.200849
O O19 0.149765 0.557479 0.184005
O O20 0.099313 0.505702 0.000000
O O21 0.154745 0.654745 0.808261
O O22 0.105261 0.703758 0.000000
#
# Coordination Sequence:
#
# PCOD8313851 Si02
#       8
#    16  16  16  16  16  16  16  16
#     4  10  21  34  51  79 107 131 166 212 260 304
#     4   9  17  27  41  66  98 132 170 210 253 299
#     4   9  15  24  41  65  95 129 163 200 241 291
#     4   9  16  28  44  65  99 137 166 198 248 305
#     4   9  16  27  41  62  97 137 171 208 252 298
#     4  10  18  28  46  75 102 126 165 213 253 296
#     4   9  20  39  58  74  97 134 175 209 249 307
#     4   9  19  35  51  69  98 133 166 204 253 307
#
# _framework density 18.374144999999999
#
# number of rings (size 3 to 8) (size 9 to 14) (size 15 to 20)
#    0.000    2.750    1.250    1.500    1.750    3.750 
#    0.000    3.750    0.000    0.750    0.000    0.875 
#    0.000    0.000    0.000    1.125    0.000    1.250 
#
# Total GULP energy -1586677.363308 kJ/mol
# GULP energy per Si atom -12395.916901 kJ/mol
# Density = 1.833232 g / cm^3
# Si number density = 18.374145 Si / 1000 Ang^3
#
#
#
# Elastic Constant Matrix: (Units=GPa)
#
#
# Indices 1 2 3 4 5 6 
#
# 1 120.1182 44.1587 23.3173 0.0000 0.0000 0.0000
# 2 44.1587 120.1182 23.3173 0.0000 0.0000 0.0000
# 3 23.3173 23.3173 27.0073 0.0000 0.0000 0.0000
# 4 0.0000 0.0000 0.0000 10.8308 0.0000 0.0000
# 5 0.0000 0.0000 0.0000 0.0000 10.8308 0.0000
# 6 0.0000 0.0000 0.0000 0.0000 0.0000 26.2049
#
#
#
# Elastic Compliance Matrix: (Units=1/GPa)
#
#
# Indices 1 2 3 4 5 6 
#
# 1 0.010614 -0.002551 -0.006962 0.000000 0.000000 0.000000
# 2 -0.002551 0.010614 -0.006962 0.000000 0.000000 0.000000
# 3 -0.006962 -0.006962 0.049048 0.000000 0.000000 0.000000
# 4 0.000000 0.000000 0.000000 0.092329 0.000000 0.000000
# 5 0.000000 0.000000 0.000000 0.000000 0.092329 0.000000
# 6 0.000000 0.000000 0.000000 0.000000 0.000000 0.038161
#
#
# Mechanical properties :
#
#
# Convention : Reuss Voigt Hill
#
# Bulk Modulus (GPa) = 26.78945 49.87003 38.32974
# Shear Modulus (GPa) = 14.77157 21.33666 18.05411
#
# Velocity S-wave (km/s) = 2.83845 3.41138 3.13802
# Velocity P-wave (km/s) = 5.03527 6.53583 5.83400
#
# Compressibility (1/GPa) = 0.03732813
#
# Stress axis : x y z
#
# Youngs Moduli (GPa) = 94.21292 94.21292 20.38799
#
# Poissons Ratio (x) = 0.24030 0.14194
# Poissons Ratio (y) = 0.24030 0.14194
# Poissons Ratio (z) = 0.65590 0.65590
#
# Static dielectric constant tensor:
#      x y z
#    x 3.530360 0.000000 0.000000 
#    y 0.000000 3.530360 0.000000 
#    z 0.000000 0.000000 2.753670 
# 
# 
# High freq. dielectric constant tensor:
#      x y z
#    x 1.723110 0.000000 0.000000 
#    y 0.000000 1.723110 0.000000 
#    z 0.000000 0.000000 1.639700 
# 
# From -- ./inp_files/3887.got.cif
#   From: 2010.03.12/outbox.cif.g09.slc.cpg/sg127_2_cif.got.tgz:3887.got - 2010.04.06 17:03:15.
