data_PCOD8313394
_publ_section_title
;
Structure prediction by ZEFSAII (Michael W. Deem and Ramdas Pophale) SiO2 
 PCOD8313394
Probable space group: P 4/M C C
;
_chemical_formula_sum "Si O2"
_cell_formula_units_Z 64
_cell_length_a 15.395213
_cell_length_b 15.395213
_cell_length_c 14.306389
_cell_angle_alpha 90.000000
_cell_angle_beta 90.000000
_cell_angle_gamma 90.000000
_cell_volume 3390.794215
_symmetry_space_group_name_H-M "P 4/M C C"
_symmetry_group_IT_number 124
_symmetry_cell_setting 'tetragonal'
loop_
_space_group_symop_operation_xyz
x,y,z
-y,x,z
-x,-y,z
y,-x,z
x,-y,1/2-z
-x,y,1/2-z
y,x,1/2-z
-y,-x,1/2-z
-x,-y,-z
y,-x,-z
x,y,-z
-y,x,-z
-x,y,1/2+z
x,-y,1/2+z
-y,-x,1/2+z
y,x,1/2+z
loop_
_atom_site_type_symbol
_atom_site_label
_atom_site_fract_x
_atom_site_fract_y
_atom_site_fract_z
Si Si1 0.921002 0.382207 0.895002
Si Si2 0.722994 0.859320 0.727793
Si Si3 0.429968 0.121330 0.604456
Si Si4 0.133360 0.046801 0.609806
O O1 0.903772 0.302918 0.825509
O O2 0.866726 0.469001 0.866448
O O3 0.020852 0.405897 0.889516
O O4 0.896002 0.352283 0.000000
O O5 0.770490 0.770490 0.750000
O O6 0.636110 0.829699 0.672911
O O7 0.782552 0.924715 0.667543
O O8 0.416394 0.157121 0.500000
O O9 0.154249 0.053660 0.500000
O O10 0.052332 0.109124 0.636371
#
# Coordination Sequence:
#
# PCOD8313394 Si02
#       4
#    16  16  16  16
#     4   9  20  38  58  76 103 140 182 228 280 336
#     4  12  24  31  52  84 111 138 180 232 283 321
#     4   9  19  38  59  77  99 139 185 229 280 336
#     4   9  21  40  54  67  99 151 202 238 266 303
#
# _framework density 18.874634
#
# number of rings (size 3 to 8) (size 9 to 14) (size 15 to 20)
#    0.000    2.250    0.000    4.500    7.000    4.000 
#    0.000    1.250    0.000    0.000    0.000    1.750 
#    0.000    8.000    0.000   22.000    0.000    0.000 
#
# Total GULP energy -793476.029487 kJ/mol
# GULP energy per Si atom -12398.062961 kJ/mol
# Density = 1.883167 g / cm^3
# Si number density = 18.874634 Si / 1000 Ang^3
#
#
#
# Elastic Constant Matrix: (Units=GPa)
#
#
# Indices 1 2 3 4 5 6 
#
# 1 79.5681 26.1933 49.7758 0.0000 0.0000 0.0000
# 2 26.1933 79.5681 49.7758 0.0000 0.0000 0.0000
# 3 49.7758 49.7758 105.2151 0.0000 0.0000 0.0000
# 4 0.0000 0.0000 0.0000 31.7433 0.0000 0.0000
# 5 0.0000 0.0000 0.0000 0.0000 31.7433 0.0000
# 6 0.0000 0.0000 0.0000 0.0000 0.0000 19.8396
#
#
#
# Elastic Compliance Matrix: (Units=1/GPa)
#
#
# Indices 1 2 3 4 5 6 
#
# 1 0.017891 -0.000845 -0.008064 0.000000 0.000000 0.000000
# 2 -0.000845 0.017891 -0.008064 0.000000 0.000000 0.000000
# 3 -0.008064 -0.008064 0.017134 0.000000 0.000000 0.000000
# 4 0.000000 0.000000 0.000000 0.031503 0.000000 0.000000
# 5 0.000000 0.000000 0.000000 0.000000 0.031503 0.000000
# 6 0.000000 0.000000 0.000000 0.000000 0.000000 0.050404
#
#
# Mechanical properties :
#
#
# Convention : Reuss Voigt Hill
#
# Bulk Modulus (GPa) = 52.71602 57.31565 55.01584
# Shear Modulus (GPa) = 24.20195 25.90568 25.05381
#
# Velocity S-wave (km/s) = 3.58473 3.70876 3.64728
# Velocity P-wave (km/s) = 6.71744 6.98372 6.85187
#
# Compressibility (1/GPa) = 0.01896956
#
# Stress axis : x y z
#
# Youngs Moduli (GPa) = 55.89501 55.89501 58.36197
#
# Poissons Ratio (x) = 0.04722 0.47064
# Poissons Ratio (y) = 0.04722 0.47064
# Poissons Ratio (z) = 0.45075 0.45075
#
# Static dielectric constant tensor:
#      x y z
#    x 4.363630 0.000000 0.000000 
#    y 0.000000 4.363630 0.000000 
#    z 0.000000 0.000000 4.001260 
# 
# 
# High freq. dielectric constant tensor:
#      x y z
#    x 1.701110 0.000000 0.000000 
#    y 0.000000 1.701110 0.000000 
#    z 0.000000 0.000000 1.759710 
# 
# From -- ./inp_files/2967.got.cif
#   From: 2010.03.12/outbox.cif.g09.slc.cpg/sg124_2_cif.got.tgz:2967.got - 2010.04.06 16:38:57.
