data_PCOD8313218
_publ_section_title
;
Structure prediction by ZEFSAII (Michael W. Deem and Ramdas Pophale) SiO2 
 PCOD8313218
Probable space group: P 4/M C C
;
_chemical_formula_sum "Si O2"
_cell_formula_units_Z 80
_cell_length_a 15.621796
_cell_length_b 15.621796
_cell_length_c 18.548714
_cell_angle_alpha 90.000000
_cell_angle_beta 90.000000
_cell_angle_gamma 90.000000
_cell_volume 4526.637629
_symmetry_space_group_name_H-M "P 4/M C C"
_symmetry_group_IT_number 124
_symmetry_cell_setting 'tetragonal'
loop_
_space_group_symop_operation_xyz
x,y,z
-y,x,z
-x,-y,z
y,-x,z
x,-y,1/2-z
-x,y,1/2-z
y,x,1/2-z
-y,-x,1/2-z
-x,-y,-z
y,-x,-z
x,y,-z
-y,x,-z
-x,y,1/2+z
x,-y,1/2+z
-y,-x,1/2+z
y,x,1/2+z
loop_
_atom_site_type_symbol
_atom_site_label
_atom_site_fract_x
_atom_site_fract_y
_atom_site_fract_z
Si Si1 0.495869 0.246256 0.168383
Si Si2 0.912746 0.107330 0.333032
Si Si3 0.549914 0.915901 0.585059
Si Si4 0.325636 0.683014 0.832013
Si Si5 0.845538 0.269486 0.414940
O O1 0.500000 0.211185 0.250000
O O2 0.501650 0.165264 0.116728
O O3 0.572002 0.314639 0.159451
O O4 0.410373 0.294815 0.145747
O O5 0.884554 0.115447 0.250000
O O6 0.869584 0.179903 0.379945
O O7 0.012391 0.117871 0.352574
O O8 0.540654 0.911568 0.500000
O O9 0.651507 0.909872 0.606522
O O10 0.500000 0.000000 0.614830
O O11 0.296363 0.703638 0.750000
O O12 0.286746 0.750648 0.887072
O O13 0.843359 0.257622 0.500000
#
# Coordination Sequence:
#
# PCOD8313218 Si02
#       5
#    16  16  16  16  16
#     4   9  18  32  51  74  99 128 163 204 247 295
#     4   9  19  36  55  75 101 132 166 207 256 305
#     4   9  19  35  51  70 101 135 166 205 250 294
#     4   9  18  33  51  73 101 131 166 206 249 297
#     4  10  20  33  51  76 103 133 170 209 251 300
#
# _framework density 17.673161
#
# number of rings (size 3 to 8) (size 9 to 14) (size 15 to 20)
#    0.000    2.800    0.000    1.200    0.000    4.000 
#    0.000    9.000    0.000    0.000    0.000    5.600 
#    0.000    0.000    0.000    0.000    0.000    0.000 
#
# Total GULP energy -991391.811833 kJ/mol
# GULP energy per Si atom -12392.397648 kJ/mol
# Density = 1.763294 g / cm^3
# Si number density = 17.673161 Si / 1000 Ang^3
#
#
#
# Elastic Constant Matrix: (Units=GPa)
#
#
# Indices 1 2 3 4 5 6 
#
# 1 112.8624 70.8184 51.1242 0.0000 0.0000 0.0000
# 2 70.8184 112.8611 51.1241 0.0000 0.0000 0.0000
# 3 51.1242 51.1241 45.4159 0.0000 0.0000 0.0000
# 4 0.0000 0.0000 0.0000 27.1466 0.0000 0.0000
# 5 0.0000 0.0000 0.0000 0.0000 27.1467 0.0000
# 6 0.0000 0.0000 0.0000 0.0000 0.0000 29.8453
#
#
#
# Elastic Compliance Matrix: (Units=1/GPa)
#
#
# Indices 1 2 3 4 5 6 
#
# 1 0.019183 -0.004602 -0.016414 0.000000 0.000000 0.000000
# 2 -0.004602 0.019183 -0.016414 0.000000 0.000000 0.000000
# 3 -0.016414 -0.016414 0.058973 0.000000 0.000000 0.000000
# 4 0.000000 0.000000 0.000000 0.036837 0.000000 0.000000
# 5 0.000000 0.000000 0.000000 0.000000 0.036837 0.000000
# 6 0.000000 0.000000 0.000000 0.000000 0.000000 0.033506
#
#
# Mechanical properties :
#
#
# Convention : Reuss Voigt Hill
#
# Bulk Modulus (GPa) = 44.48516 68.58589 56.53552
# Shear Modulus (GPa) = 17.42933 23.36590 20.39762
#
# Velocity S-wave (km/s) = 3.14379 3.64003 3.40098
# Velocity P-wave (km/s) = 6.19706 7.52055 6.89065
#
# Compressibility (1/GPa) = 0.02247941
#
# Stress axis : x y z
#
# Youngs Moduli (GPa) = 52.12943 52.12848 16.95688
#
# Poissons Ratio (x) = 0.23988 0.27833
# Poissons Ratio (y) = 0.23989 0.27834
# Poissons Ratio (z) = 0.85565 0.85565
#
# Static dielectric constant tensor:
#      x y z
#    x 3.352270 0.000000 0.000000 
#    y 0.000000 3.352270 0.000000 
#    z 0.000000 0.000000 3.241320 
# 
# 
# High freq. dielectric constant tensor:
#      x y z
#    x 1.685180 0.000000 0.000000 
#    y 0.000000 1.685180 0.000000 
#    z 0.000000 0.000000 1.679420 
# 
# From -- ./inp_files/5085.got.cif
#   From: 2010.03.12/outbox.cif.g09.slc.cpg/sg124_3_cif.got.tgz:5085.got - 2010.04.06 16:38:57.
