data_PCOD8313387
_publ_section_title
;
Structure prediction by ZEFSAII (Michael W. Deem and Ramdas Pophale) SiO2 
 PCOD8313387
Probable space group: P 4/M C C
;
_chemical_formula_sum "Si O2"
_cell_formula_units_Z 96
_cell_length_a 14.089464
_cell_length_b 14.089464
_cell_length_c 22.624415
_cell_angle_alpha 90.000000
_cell_angle_beta 90.000000
_cell_angle_gamma 90.000000
_cell_volume 4491.240400
_symmetry_space_group_name_H-M "P 4/M C C"
_symmetry_group_IT_number 124
_symmetry_cell_setting 'tetragonal'
loop_
_space_group_symop_operation_xyz
x,y,z
-y,x,z
-x,-y,z
y,-x,z
x,-y,1/2-z
-x,y,1/2-z
y,x,1/2-z
-y,-x,1/2-z
-x,-y,-z
y,-x,-z
x,y,-z
-y,x,-z
-x,y,1/2+z
x,-y,1/2+z
-y,-x,1/2+z
y,x,1/2+z
loop_
_atom_site_type_symbol
_atom_site_label
_atom_site_fract_x
_atom_site_fract_y
_atom_site_fract_z
Si Si1 0.003177 0.604787 0.568983
Si Si2 0.290549 0.162162 0.129595
Si Si3 0.647506 0.196284 0.873427
Si Si4 0.612332 0.110914 0.250338
Si Si5 0.913626 0.871585 0.565017
Si Si6 0.649923 0.464685 0.568965
O O1 0.016044 0.598561 0.500000
O O2 0.095476 0.659912 0.593345
O O3 0.000000 0.500000 0.598226
O O4 0.901524 0.650180 0.583616
O O5 0.274119 0.271430 0.110835
O O6 0.336627 0.157075 0.193687
O O7 0.184143 0.121565 0.122966
O O8 0.651144 0.170539 0.804626
O O9 0.552492 0.252899 0.893723
O O10 0.500000 0.123749 0.250000
O O11 0.639951 0.000000 0.250000
O O12 0.885625 0.827926 0.500000
O O13 0.025718 0.869970 0.569259
O O14 0.612204 0.569005 0.585183
O O15 0.675326 0.457715 0.500000
#
# Coordination Sequence:
#
# PCOD8313387 Si02
#       6
#    16  16  16  16  16  16
#     4  11  25  43  66 101 142 181 225 278 341 414
#     4  12  24  40  65  98 129 172 225 283 336 401
#     4  12  25  42  71 102 133 179 239 282 341 411
#     4  11  25  47  70  90 128 179 229 289 351 402
#     4   9  19  37  62  94 134 174 209 261 340 417
#     4   9  21  42  69 104 144 181 218 277 356 421
#
# _framework density 21.374942999999998
#
# number of rings (size 3 to 8) (size 9 to 14) (size 15 to 20)
#    0.000    1.333    1.667    4.500    4.667    4.000 
#    0.000    0.000    0.000    0.000    0.000    0.000 
#    0.000    0.000    0.000    0.000    0.000    0.000 
#
# Total GULP energy -1189584.200694 kJ/mol
# GULP energy per Si atom -12391.502091 kJ/mol
# Density = 2.132629 g / cm^3
# Si number density = 21.374943 Si / 1000 Ang^3
#
#
#
# Elastic Constant Matrix: (Units=GPa)
#
#
# Indices 1 2 3 4 5 6 
#
# 1 73.4319 21.4761 31.3985 0.0000 0.0000 0.0000
# 2 21.4761 73.4319 31.3985 0.0000 0.0000 0.0000
# 3 31.3985 31.3985 95.8686 0.0000 0.0000 0.0000
# 4 0.0000 0.0000 0.0000 37.5500 0.0000 0.0000
# 5 0.0000 0.0000 0.0000 0.0000 37.5500 0.0000
# 6 0.0000 0.0000 0.0000 0.0000 0.0000 37.3041
#
#
#
# Elastic Compliance Matrix: (Units=1/GPa)
#
#
# Indices 1 2 3 4 5 6 
#
# 1 0.016349 -0.002898 -0.004406 0.000000 0.000000 0.000000
# 2 -0.002898 0.016349 -0.004406 0.000000 0.000000 0.000000
# 3 -0.004406 -0.004406 0.013317 0.000000 0.000000 0.000000
# 4 0.000000 0.000000 0.000000 0.026631 0.000000 0.000000
# 5 0.000000 0.000000 0.000000 0.000000 0.026631 0.000000
# 6 0.000000 0.000000 0.000000 0.000000 0.000000 0.026807
#
#
# Mechanical properties :
#
#
# Convention : Reuss Voigt Hill
#
# Bulk Modulus (GPa) = 44.25278 45.69761 44.97519
# Shear Modulus (GPa) = 31.84006 33.04478 32.44242
#
# Velocity S-wave (km/s) = 3.86372 3.93613 3.90009
# Velocity P-wave (km/s) = 6.37593 6.48714 6.43178
#
# Compressibility (1/GPa) = 0.02259745
#
# Stress axis : x y z
#
# Youngs Moduli (GPa) = 61.16459 61.16459 75.09338
#
# Poissons Ratio (x) = 0.17724 0.33083
# Poissons Ratio (y) = 0.17724 0.33083
# Poissons Ratio (z) = 0.26947 0.26947
#
# Static dielectric constant tensor:
#      x y z
#    x 4.008150 0.000000 0.000000 
#    y 0.000000 4.008150 0.000000 
#    z 0.000000 0.000000 3.741730 
# 
# 
# High freq. dielectric constant tensor:
#      x y z
#    x 1.848430 0.000000 0.000000 
#    y 0.000000 1.848430 0.000000 
#    z 0.000000 0.000000 1.823390 
# 
# From -- ./inp_files/5325.got.cif
#   From: 2010.03.12/outbox.cif.g09.slc.cpg/sg124_3_cif.got.tgz:5325.got - 2010.04.06 16:38:57.
