data_PCOD8313821
_publ_section_title
;
Structure prediction by ZEFSAII (Michael W. Deem and Ramdas Pophale) SiO2 
 PCOD8313821
Probable space group: P 4/N N C
;
_chemical_formula_sum "Si O2"
_cell_formula_units_Z 60
_cell_length_a 13.822345
_cell_length_b 13.822345
_cell_length_c 14.282233
_cell_angle_alpha 90.000000
_cell_angle_beta 90.000000
_cell_angle_gamma 90.000000
_cell_volume 2728.723751
_symmetry_space_group_name_H-M "P 4/N N C"
_symmetry_group_IT_number 126
_space_group.IT_coordinate_system_code '2'
_symmetry_cell_setting 'tetragonal'
loop_
_space_group_symop_operation_xyz
x,y,z
1/2-y,x,z
1/2-x,1/2-y,z
y,1/2-x,z
x,1/2-y,1/2-z
1/2-x,y,1/2-z
y,x,1/2-z
1/2-y,1/2-x,1/2-z
-x,-y,-z
1/2+y,-x,-z
1/2+x,1/2+y,-z
-y,1/2+x,-z
-x,1/2+y,1/2+z
1/2+x,-y,1/2+z
-y,-x,1/2+z
1/2+y,1/2+x,1/2+z
loop_
_atom_site_type_symbol
_atom_site_label
_atom_site_fract_x
_atom_site_fract_y
_atom_site_fract_z
Si Si1 0.884683 0.188812 0.159577
Si Si2 0.397321 0.199740 0.611937
Si Si3 0.250000 0.750000 0.500000
Si Si4 0.798434 0.599285 0.895060
Si Si5 0.750000 0.042627 0.250000
O O1 0.858099 0.250000 0.250000
O O2 0.821721 0.093653 0.176356
O O3 0.000562 0.171295 0.156881
O O4 0.845851 0.240348 0.064948
O O5 0.370383 0.309978 0.636078
O O6 0.424804 0.190810 0.503856
O O7 0.484906 0.176444 0.681507
O O8 0.869927 0.688167 0.868203
#
# Coordination Sequence:
#
# PCOD8313821 Si02
#       5
#    16  16   4  16   8
#     4  12  25  43  65  95 131 178 221 269 334 393
#     4   9  19  40  68  98 134 173 218 275 335 390
#     4  12  22  48  64  86 140 180 218 280 328 394
#     4   9  21  45  72  97 129 175 224 274 332 393
#     4  12  21  39  58 102 136 174 222 275 329 398
#
# _framework density 21.988299999999999
#
# number of rings (size 3 to 8) (size 9 to 14) (size 15 to 20)
#    0.000    1.600    2.667    4.000    0.000    2.133 
#    9.600    5.333    0.000    0.000    0.000    0.000 
#    0.000    0.000    0.000    0.000    0.000    0.000 
#
# Total GULP energy -743627.548305 kJ/mol
# GULP energy per Si atom -12393.792472 kJ/mol
# Density = 2.193825 g / cm^3
# Si number density = 21.988300 Si / 1000 Ang^3
#
#
#
# Elastic Constant Matrix: (Units=GPa)
#
#
# Indices 1 2 3 4 5 6 
#
# 1 98.8518 21.3372 35.3811 0.0000 0.0000 0.0000
# 2 21.3372 98.8518 35.3811 0.0000 0.0000 0.0000
# 3 35.3811 35.3811 85.2021 0.0000 0.0000 0.0000
# 4 0.0000 0.0000 0.0000 32.4895 0.0000 0.0000
# 5 0.0000 0.0000 0.0000 0.0000 32.4895 0.0000
# 6 0.0000 0.0000 0.0000 0.0000 0.0000 14.9437
#
#
#
# Elastic Compliance Matrix: (Units=1/GPa)
#
#
# Indices 1 2 3 4 5 6 
#
# 1 0.011957 -0.000944 -0.004573 0.000000 0.000000 0.000000
# 2 -0.000944 0.011957 -0.004573 0.000000 0.000000 0.000000
# 3 -0.004573 -0.004573 0.015535 0.000000 0.000000 0.000000
# 4 0.000000 0.000000 0.000000 0.030779 0.000000 0.000000
# 5 0.000000 0.000000 0.000000 0.000000 0.030779 0.000000
# 6 0.000000 0.000000 0.000000 0.000000 0.000000 0.066918
#
#
# Mechanical properties :
#
#
# Convention : Reuss Voigt Hill
#
# Bulk Modulus (GPa) = 51.90025 51.90049 51.90037
# Shear Modulus (GPa) = 25.70323 28.70493 27.20408
#
# Velocity S-wave (km/s) = 3.42270 3.61704 3.52121
# Velocity P-wave (km/s) = 6.26695 6.41084 6.33930
#
# Compressibility (1/GPa) = 0.01926773
#
# Stress axis : x y z
#
# Youngs Moduli (GPa) = 83.63477 83.63477 64.37123
#
# Poissons Ratio (x) = 0.07896 0.29438
# Poissons Ratio (y) = 0.07896 0.29438
# Poissons Ratio (z) = 0.38247 0.38247
#
# Static dielectric constant tensor:
#      x y z
#    x 3.852010 0.000000 0.000000 
#    y 0.000000 3.852010 0.000000 
#    z 0.000000 0.000000 4.096280 
# 
# 
# High freq. dielectric constant tensor:
#      x y z
#    x 1.851040 0.000000 0.000000 
#    y 0.000000 1.851040 0.000000 
#    z 0.000000 0.000000 1.885740 
# 
# From -- ./inp_files/3508.got.cif
#   From: 2010.03.12/outbox.cif.g09.slc.cpg/sg126_2_cif.got.tgz:3508.got - 2010.04.06 16:55:23.
