data_PCOD8313358
_publ_section_title
;
Structure prediction by ZEFSAII (Michael W. Deem and Ramdas Pophale) SiO2 
 PCOD8313358
Probable space group: P 4/M C C
;
_chemical_formula_sum "Si O2"
_cell_formula_units_Z 56
_cell_length_a 13.470398
_cell_length_b 13.470398
_cell_length_c 17.765919
_cell_angle_alpha 90.000000
_cell_angle_beta 90.000000
_cell_angle_gamma 90.000000
_cell_volume 3223.654824
_symmetry_space_group_name_H-M "P 4/M C C"
_symmetry_group_IT_number 124
_symmetry_cell_setting 'tetragonal'
loop_
_space_group_symop_operation_xyz
x,y,z
-y,x,z
-x,-y,z
y,-x,z
x,-y,1/2-z
-x,y,1/2-z
y,x,1/2-z
-y,-x,1/2-z
-x,-y,-z
y,-x,-z
x,y,-z
-y,x,-z
-x,y,1/2+z
x,-y,1/2+z
-y,-x,1/2+z
y,x,1/2+z
loop_
_atom_site_type_symbol
_atom_site_label
_atom_site_fract_x
_atom_site_fract_y
_atom_site_fract_z
Si Si1 0.018587 0.160939 0.415487
Si Si2 0.487503 0.858756 0.916650
Si Si3 0.487370 0.334275 0.500000
Si Si4 0.359034 0.990581 0.662348
O O1 0.023431 0.205362 0.500000
O O2 0.107917 0.085722 0.402736
O O3 0.030513 0.244720 0.353184
O O4 0.580763 0.895042 0.867656
O O5 0.389704 0.905817 0.878052
O O6 0.497886 0.904951 0.000000
O O7 0.482095 0.737677 0.925445
O O8 0.590863 0.394416 0.500000
O O9 0.379617 0.000000 0.750000
#
# Coordination Sequence:
#
# PCOD8313358 Si02
#       4
#    16  16   8  16
#     4   9  19  35  53  74 106 147 185 219 254 300
#     4   9  19  34  57  78 104 137 175 221 267 316
#     4   9  20  37  58  82 102 127 176 239 282 314
#     4  11  20  33  53  82 115 143 173 215 266 322
#
# _framework density 17.371587999999999
#
# number of rings (size 3 to 8) (size 9 to 14) (size 15 to 20)
#    0.857    1.571    0.000    6.000    0.000    3.429 
#    0.000    1.429    0.000    5.143    0.000    8.000 
#    0.000    0.000    0.000    0.000    0.000    0.000 
#
# Total GULP energy -693855.690349 kJ/mol
# GULP energy per Si atom -12390.280185 kJ/mol
# Density = 1.733205 g / cm^3
# Si number density = 17.371588 Si / 1000 Ang^3
#
#
#
# Elastic Constant Matrix: (Units=GPa)
#
#
# Indices 1 2 3 4 5 6 
#
# 1 65.8864 -10.6238 6.5367 0.0000 0.0000 0.0000
# 2 -10.6238 65.8864 6.5367 0.0000 0.0000 0.0000
# 3 6.5367 6.5367 94.4642 0.0000 0.0000 0.0000
# 4 0.0000 0.0000 0.0000 7.6087 0.0000 0.0000
# 5 0.0000 0.0000 0.0000 0.0000 7.6087 0.0000
# 6 0.0000 0.0000 0.0000 0.0000 0.0000 7.3803
#
#
#
# Elastic Compliance Matrix: (Units=1/GPa)
#
#
# Indices 1 2 3 4 5 6 
#
# 1 0.015733 0.002663 -0.001273 0.000000 0.000000 0.000000
# 2 0.002663 0.015733 -0.001273 0.000000 0.000000 0.000000
# 3 -0.001273 -0.001273 0.010762 0.000000 0.000000 0.000000
# 4 0.000000 0.000000 0.000000 0.131428 0.000000 0.000000
# 5 0.000000 0.000000 0.000000 0.000000 0.131428 0.000000
# 6 0.000000 0.000000 0.000000 0.000000 0.000000 0.135496
#
#
# Mechanical properties :
#
#
# Convention : Reuss Voigt Hill
#
# Bulk Modulus (GPa) = 23.54969 25.68177 24.61573
# Shear Modulus (GPa) = 11.00110 19.43872 15.21991
#
# Velocity S-wave (km/s) = 2.51924 3.34877 2.96317
# Velocity P-wave (km/s) = 4.69552 5.45602 5.09000
#
# Compressibility (1/GPa) = 0.04246340
#
# Stress axis : x y z
#
# Youngs Moduli (GPa) = 63.55918 63.55918 92.91781
#
# Poissons Ratio (x) = -0.16927 0.11828
# Poissons Ratio (y) = -0.16927 0.11828
# Poissons Ratio (z) = 0.08091 0.08091
#
# Static dielectric constant tensor:
#      x y z
#    x 3.122130 0.000000 0.000000 
#    y 0.000000 3.122130 0.000000 
#    z 0.000000 0.000000 3.102950 
# 
# 
# High freq. dielectric constant tensor:
#      x y z
#    x 1.666290 0.000000 0.000000 
#    y 0.000000 1.666290 0.000000 
#    z 0.000000 0.000000 1.658850 
# 
# From -- ./inp_files/2883.got.cif
#   From: 2010.03.12/outbox.cif.g09.slc.cpg/sg124_2_cif.got.tgz:2883.got - 2010.04.06 16:38:57.
