data_PCOD8313986
_publ_section_title
;
Structure prediction by ZEFSAII (Michael W. Deem and Ramdas Pophale) SiO2 
 PCOD8313986
Probable space group: P 4/M B M
;
_chemical_formula_sum "Si O2"
_cell_formula_units_Z 88
_cell_length_a 17.842364
_cell_length_b 17.842364
_cell_length_c 15.886301
_cell_angle_alpha 90.000000
_cell_angle_beta 90.000000
_cell_angle_gamma 90.000000
_cell_volume 5057.403178
_symmetry_space_group_name_H-M "P 4/M B M"
_symmetry_group_IT_number 127
_symmetry_cell_setting 'tetragonal'
loop_
_space_group_symop_operation_xyz
x,y,z
-y,x,z
-x,-y,z
y,-x,z
1/2+x,1/2-y,-z
1/2-x,1/2+y,-z
1/2+y,1/2+x,-z
1/2-y,1/2-x,-z
-x,-y,-z
y,-x,-z
x,y,-z
-y,x,-z
1/2-x,1/2+y,z
1/2+x,1/2-y,z
1/2-y,1/2-x,z
1/2+y,1/2+x,z
loop_
_atom_site_type_symbol
_atom_site_label
_atom_site_fract_x
_atom_site_fract_y
_atom_site_fract_z
Si Si1 0.100596 0.932546 0.900477
Si Si2 0.713699 0.041271 0.670887
Si Si3 0.303786 0.611910 0.500000
Si Si4 0.222497 0.843491 0.796434
Si Si5 0.243839 0.626323 0.677833
Si Si6 0.061557 0.438444 0.405458
Si Si7 0.789485 0.060752 0.500000
O O1 0.171793 0.885992 0.865449
O O2 0.020294 0.897043 0.871799
O O3 0.107106 0.927877 0.000000
O O4 0.725124 0.097127 0.748416
O O5 0.627482 0.026478 0.650084
O O6 0.745288 0.078624 0.585697
O O7 0.748122 0.961692 0.697691
O O8 0.258122 0.641459 0.579763
O O9 0.314108 0.524036 0.500000
O O10 0.388992 0.637504 0.500000
O O11 0.278402 0.778402 0.834162
O O12 0.164558 0.809100 0.730734
O O13 0.163581 0.663581 0.700792
O O14 0.087035 0.412966 0.500000
O O15 0.000000 0.500000 0.417209
#
# Coordination Sequence:
#
# PCOD8313986 Si02
#       7
#    16  16   8  16  16   8   8
#     4   9  19  38  62  85 110 140 172 211 262 322
#     4  11  20  35  49  71 102 137 182 224 270 313
#     4  10  19  33  47  66  95 138 180 226 264 314
#     4  11  21  33  54  81 110 139 169 215 269 322
#     4  10  21  33  49  71  98 136 179 224 265 311
#     4  11  22  34  50  70  97 141 191 236 267 302
#     4  10  20  32  49  65  98 137 179 225 266 310
#
# _framework density 17.400233
#
# number of rings (size 3 to 8) (size 9 to 14) (size 15 to 20)
#    0.000    1.727    3.636    2.455    0.000    0.545 
#    1.636    0.000    0.000    0.000    0.000    0.000 
#    0.000    0.727    0.000    0.000    0.000    0.000 
#
# Total GULP energy -1090628.217339 kJ/mol
# GULP energy per Si atom -12393.502470 kJ/mol
# Density = 1.736063 g / cm^3
# Si number density = 17.400233 Si / 1000 Ang^3
#
#
#
# Elastic Constant Matrix: (Units=GPa)
#
#
# Indices 1 2 3 4 5 6 
#
# 1 29.5275 100.1918 30.6499 0.0000 0.0000 0.0000
# 2 100.1918 29.5260 30.6506 0.0000 0.0000 0.0000
# 3 30.6499 30.6506 51.4513 0.0000 0.0000 0.0000
# 4 0.0000 0.0000 0.0000 27.2318 0.0000 0.0000
# 5 0.0000 0.0000 0.0000 0.0000 27.2320 0.0000
# 6 0.0000 0.0000 0.0000 0.0000 0.0000 31.0446
#
#
#
# Elastic Compliance Matrix: (Units=1/GPa)
#
#
# Indices 1 2 3 4 5 6 
#
# 1 -0.001711 0.012440 -0.006392 0.000000 0.000000 0.000000
# 2 0.012440 -0.001711 -0.006392 0.000000 0.000000 0.000000
# 3 -0.006392 -0.006392 0.027051 0.000000 0.000000 0.000000
# 4 0.000000 0.000000 0.000000 0.036722 0.000000 0.000000
# 5 0.000000 0.000000 0.000000 0.000000 0.036721 0.000000
# 6 0.000000 0.000000 0.000000 0.000000 0.000000 0.032212
#
#
# Mechanical properties :
#
#
# Convention : Reuss Voigt Hill
#
# Bulk Modulus (GPa) = 43.58576 48.16549 45.87562
# Shear Modulus (GPa) = 36.33247 13.70254 25.01750
#
# Velocity S-wave (km/s) = 4.57447 2.80927 3.79591
# Velocity P-wave (km/s) = 7.28041 6.18577 6.75530
#
# Compressibility (1/GPa) = 0.02294327
#
# Stress axis : x y z
#
# Youngs Moduli (GPa) = -584.55027 -584.43334 36.96708
#
# Poissons Ratio (x) = 7.27057 0.23629
# Poissons Ratio (y) = 7.27203 0.23628
# Poissons Ratio (z) = -3.73639 -3.73541
#
# Static dielectric constant tensor:
#      x y z
#    x 3.270840 0.000000 0.000000 
#    y 0.000000 3.270840 0.000000 
#    z 0.000000 0.000000 3.049180 
# 
# 
# High freq. dielectric constant tensor:
#      x y z
#    x 1.678260 0.000000 0.000000 
#    y 0.000000 1.678260 0.000000 
#    z 0.000000 0.000000 1.642800 
# 
# From -- ./inp_files/4420.got.cif
#   From: 2010.03.12/outbox.cif.g09.slc.cpg/sg127_3_cif.got.tgz:4420.got - 2010.04.06 17:03:15.
