data_PCOD8313123
_publ_section_title
;
Structure prediction by ZEFSAII (Michael W. Deem and Ramdas Pophale) SiO2 
 PCOD8313123
Probable space group: P 4/M C C
;
_chemical_formula_sum "Si O2"
_cell_formula_units_Z 96
_cell_length_a 25.148627
_cell_length_b 25.148627
_cell_length_c 8.815278
_cell_angle_alpha 90.000000
_cell_angle_beta 90.000000
_cell_angle_gamma 90.000000
_cell_volume 5575.252896
_symmetry_space_group_name_H-M "P 4/M C C"
_symmetry_group_IT_number 124
_symmetry_cell_setting 'tetragonal'
loop_
_space_group_symop_operation_xyz
x,y,z
-y,x,z
-x,-y,z
y,-x,z
x,-y,1/2-z
-x,y,1/2-z
y,x,1/2-z
-y,-x,1/2-z
-x,-y,-z
y,-x,-z
x,y,-z
-y,x,-z
-x,y,1/2+z
x,-y,1/2+z
-y,-x,1/2+z
y,x,1/2+z
loop_
_atom_site_type_symbol
_atom_site_label
_atom_site_fract_x
_atom_site_fract_y
_atom_site_fract_z
Si Si1 0.261745 0.551575 0.170279
Si Si2 0.331332 0.851013 0.318883
Si Si3 0.142772 0.221765 0.177064
Si Si4 0.864633 0.447579 0.832825
Si Si5 0.342513 0.737554 0.821355
Si Si6 0.055907 0.133110 0.176279
O O1 0.286233 0.500000 0.250000
O O2 0.198417 0.547486 0.161408
O O3 0.279900 0.598030 0.281901
O O4 0.284605 0.558937 0.000000
O O5 0.329776 0.853003 0.500000
O O6 0.277888 0.876900 0.249821
O O7 0.388122 0.877571 0.262869
O O8 0.327965 0.791220 0.263160
O O9 0.196722 0.196722 0.250000
O O10 0.094131 0.182618 0.208904
O O11 0.154194 0.230028 0.000000
O O12 0.888806 0.500000 0.750000
O O13 0.889438 0.449922 0.000000
O O14 0.306496 0.693505 0.750000
O O15 0.334178 0.743872 0.000000
O O16 0.079913 0.079913 0.250000
O O17 0.000000 0.147302 0.250000
O O18 0.048244 0.122260 0.000000
#
# Coordination Sequence:
#
# PCOD8313123 Si02
#       6
#    16  16  16  16  16  16
#     4   9  16  27  40  55  74 100 134 171 214 264
#     4  10  19  30  43  62  89 122 158 194 232 279
#     4  10  20  33  49  70  96 128 162 198 239 286
#     4   8  15  25  38  56  80 111 148 188 228 268
#     4  11  20  29  40  56  80 110 143 181 220 262
#     4  10  21  37  57  80 106 134 167 204 245 289
#
# _framework density 17.218948000000001
#
# number of rings (size 3 to 8) (size 9 to 14) (size 15 to 20)
#    0.000    2.333    0.000    5.000    0.000    6.833 
#    0.000    0.833    0.000    0.000    0.000    0.000 
#    0.000    1.000    0.000   10.667    0.000    7.667 
#
# Total GULP energy -1189547.492949 kJ/mol
# GULP energy per Si atom -12391.119718 kJ/mol
# Density = 1.717976 g / cm^3
# Si number density = 17.218948 Si / 1000 Ang^3
#
#
#
# Elastic Constant Matrix: (Units=GPa)
#
#
# Indices 1 2 3 4 5 6 
#
# 1 82.1144 17.9506 36.3590 0.0000 0.0000 0.0000
# 2 17.9506 82.1154 36.3633 0.0000 0.0000 0.0000
# 3 36.3590 36.3633 83.2885 0.0000 0.0000 0.0000
# 4 0.0000 0.0000 0.0000 26.5937 0.0000 0.0000
# 5 0.0000 0.0000 0.0000 0.0000 26.5938 0.0000
# 6 0.0000 0.0000 0.0000 0.0000 0.0000 7.9082
#
#
#
# Elastic Compliance Matrix: (Units=1/GPa)
#
#
# Indices 1 2 3 4 5 6 
#
# 1 0.015111 -0.000474 -0.006390 0.000000 0.000000 0.000000
# 2 -0.000474 0.015112 -0.006391 0.000000 0.000000 0.000000
# 3 -0.006390 -0.006391 0.017586 0.000000 0.000000 0.000000
# 4 0.000000 0.000000 0.000000 0.037603 0.000000 0.000000
# 5 0.000000 0.000000 0.000000 0.000000 0.037603 0.000000
# 6 0.000000 0.000000 0.000000 0.000000 0.000000 0.126451
#
#
# Mechanical properties :
#
#
# Convention : Reuss Voigt Hill
#
# Bulk Modulus (GPa) = 46.94833 47.65157 47.29995
# Shear Modulus (GPa) = 17.66325 22.67551 20.16938
#
# Velocity S-wave (km/s) = 3.20629 3.63284 3.42621
# Velocity P-wave (km/s) = 6.40560 6.73281 6.57124
#
# Compressibility (1/GPa) = 0.02130001
#
# Stress axis : x y z
#
# Youngs Moduli (GPa) = 66.17708 66.17439 56.86322
#
# Poissons Ratio (x) = 0.03135 0.36334
# Poissons Ratio (y) = 0.03135 0.36340
# Poissons Ratio (z) = 0.42286 0.42291
#
# Static dielectric constant tensor:
#      x y z
#    x 3.226650 0.000000 0.000000 
#    y 0.000000 3.226620 0.000000 
#    z 0.000000 0.000000 3.450550 
# 
# 
# High freq. dielectric constant tensor:
#      x y z
#    x 1.640280 0.000000 0.000000 
#    y 0.000000 1.640280 0.000000 
#    z 0.000000 0.000000 1.679610 
# 
# From -- ./inp_files/1381.got.cif
#   From: 2010.03.12/outbox.cif.g09.slc.cpg/sg124_1_cif.got.tgz:1381.got - 2010.04.06 16:38:57.
