data_PCOD8313454
_publ_section_title
;
Structure prediction by ZEFSAII (Michael W. Deem and Ramdas Pophale) SiO2 
 PCOD8313454
Probable space group: P 4/N B M
;
_chemical_formula_sum "Si O2"
_cell_formula_units_Z 96
_cell_length_a 26.317953
_cell_length_b 26.317953
_cell_length_c 7.648052
_cell_angle_alpha 90.000000
_cell_angle_beta 90.000000
_cell_angle_gamma 90.000000
_cell_volume 5297.305821
_symmetry_space_group_name_H-M "P 4/N B M"
_symmetry_group_IT_number 125
_space_group.IT_coordinate_system_code '2'
_symmetry_cell_setting 'tetragonal'
loop_
_space_group_symop_operation_xyz
x,y,z
1/2-y,x,z
1/2-x,1/2-y,z
y,1/2-x,z
x,1/2-y,-z
1/2-x,y,-z
y,x,-z
1/2-y,1/2-x,-z
-x,-y,-z
1/2+y,-x,-z
1/2+x,1/2+y,-z
-y,1/2+x,-z
-x,1/2+y,z
1/2+x,-y,z
-y,-x,z
1/2+y,1/2+x,z
loop_
_atom_site_type_symbol
_atom_site_label
_atom_site_fract_x
_atom_site_fract_y
_atom_site_fract_z
Si Si1 0.692295 0.000197 0.509864
Si Si2 0.880465 0.038382 0.783627
Si Si3 0.610802 0.692901 0.945787
Si Si4 0.854042 0.511746 0.882806
Si Si5 0.886932 0.695344 0.456742
Si Si6 0.543419 0.538155 0.303744
O O1 0.750000 0.019390 0.500000
O O2 0.659205 0.033302 0.375387
O O3 0.675223 0.008075 0.710834
O O4 0.688723 0.941030 0.445918
O O5 0.907070 0.092931 0.759168
O O6 0.921673 0.993664 0.783346
O O7 0.857007 0.034968 0.979603
O O8 0.555471 0.673068 0.005148
O O9 0.601304 0.691213 0.742977
O O10 0.623850 0.750000 0.000000
O O11 0.657670 0.657670 0.000000
O O12 0.907532 0.534130 0.817027
O O13 0.862118 0.750000 0.500000
O O14 0.848442 0.651559 0.500000
O O15 0.557330 0.557330 0.500000
O O16 0.517370 0.482631 0.316546
#
# Coordination Sequence:
#
# PCOD8313454 Si02
#       6
#    16  16  16  16  16  16
#     4  10  24  39  57  82 115 154 192 234 280 347
#     4  11  23  36  59  85 115 148 191 235 285 345
#     4  11  24  37  54  76 101 137 185 248 298 349
#     4  11  23  35  58  79 111 150 192 239 292 340
#     4  10  22  37  57  76 100 140 190 244 296 347
#     4  10  19  34  54  81 114 148 187 237 288 339
#
# _framework density 18.122420000000002
#
# number of rings (size 3 to 8) (size 9 to 14) (size 15 to 20)
#    0.000    1.500    1.667    3.000   14.000    2.333 
#    0.000    1.667    0.000    0.000    0.000    0.000 
#    0.000    0.333    0.000    0.333    0.000    0.000 
#
# Total GULP energy -1190050.301039 kJ/mol
# GULP energy per Si atom -12396.357302 kJ/mol
# Density = 1.808117 g / cm^3
# Si number density = 18.122420 Si / 1000 Ang^3
#
#
#
# Elastic Constant Matrix: (Units=GPa)
#
#
# Indices 1 2 3 4 5 6 
#
# 1 89.3537 54.4230 41.5573 0.0000 0.0000 0.0000
# 2 54.4230 89.3545 41.5570 0.0000 0.0000 0.0000
# 3 41.5573 41.5570 100.6754 0.0000 0.0000 0.0000
# 4 0.0000 0.0000 0.0000 24.8025 0.0000 0.0000
# 5 0.0000 0.0000 0.0000 0.0000 24.8023 0.0000
# 6 0.0000 0.0000 0.0000 0.0000 0.0000 30.2688
#
#
#
# Elastic Compliance Matrix: (Units=1/GPa)
#
#
# Indices 1 2 3 4 5 6 
#
# 1 0.018882 -0.009746 -0.003771 0.000000 0.000000 0.000000
# 2 -0.009746 0.018881 -0.003771 0.000000 0.000000 0.000000
# 3 -0.003771 -0.003771 0.013046 0.000000 0.000000 0.000000
# 4 0.000000 0.000000 0.000000 0.040319 0.000000 0.000000
# 5 0.000000 0.000000 0.000000 0.000000 0.040319 0.000000
# 6 0.000000 0.000000 0.000000 0.000000 0.000000 0.033037
#
#
# Mechanical properties :
#
#
# Convention : Reuss Voigt Hill
#
# Bulk Modulus (GPa) = 61.60349 61.60646 61.60497
# Shear Modulus (GPa) = 24.45343 25.43115 24.94229
#
# Velocity S-wave (km/s) = 3.67733 3.75013 3.71391
# Velocity P-wave (km/s) = 7.21783 7.26771 7.24282
#
# Compressibility (1/GPa) = 0.01623285
#
# Stress axis : x y z
#
# Youngs Moduli (GPa) = 52.96178 52.96249 76.65214
#
# Poissons Ratio (x) = 0.51619 0.28905
# Poissons Ratio (y) = 0.51619 0.28903
# Poissons Ratio (z) = 0.19971 0.19971
#
# Static dielectric constant tensor:
#      x y z
#    x 3.274040 0.000000 0.000000 
#    y 0.000000 3.274020 0.000000 
#    z 0.000000 0.000000 3.523920 
# 
# 
# High freq. dielectric constant tensor:
#      x y z
#    x 1.675960 0.000000 0.000000 
#    y 0.000000 1.675960 0.000000 
#    z 0.000000 0.000000 1.722030 
# 
# From -- ./inp_files/2854.got.cif
#   From: 2010.03.12/outbox.cif.g09.slc.cpg/sg125_2_cif.got.tgz:2854.got - 2010.04.06 16:47:52.
