data_PCOD8313742
_publ_section_title
;
Structure prediction by ZEFSAII (Michael W. Deem and Ramdas Pophale) SiO2 
 PCOD8313742
Probable space group: P 4/N N C
;
_chemical_formula_sum "Si O2"
_cell_formula_units_Z 88
_cell_length_a 11.554478
_cell_length_b 11.554478
_cell_length_c 31.927868
_cell_angle_alpha 90.000000
_cell_angle_beta 90.000000
_cell_angle_gamma 90.000000
_cell_volume 4262.560727
_symmetry_space_group_name_H-M "P 4/N N C"
_symmetry_group_IT_number 126
_space_group.IT_coordinate_system_code '2'
_symmetry_cell_setting 'tetragonal'
loop_
_space_group_symop_operation_xyz
x,y,z
1/2-y,x,z
1/2-x,1/2-y,z
y,1/2-x,z
x,1/2-y,1/2-z
1/2-x,y,1/2-z
y,x,1/2-z
1/2-y,1/2-x,1/2-z
-x,-y,-z
1/2+y,-x,-z
1/2+x,1/2+y,-z
-y,1/2+x,-z
-x,1/2+y,1/2+z
1/2+x,-y,1/2+z
-y,-x,1/2+z
1/2+y,1/2+x,1/2+z
loop_
_atom_site_type_symbol
_atom_site_label
_atom_site_fract_x
_atom_site_fract_y
_atom_site_fract_z
Si Si1 0.750000 0.942090 0.750000
Si Si2 0.840920 0.095642 0.012504
Si Si3 0.850324 0.427666 0.393356
Si Si4 0.623475 0.260048 0.321540
Si Si5 0.081675 0.159840 0.444984
Si Si6 0.047023 0.588986 0.380280
O O1 0.636150 0.863851 0.750000
O O2 0.773172 0.021978 0.709848
O O3 0.894506 0.098481 0.059341
O O4 0.701736 0.106896 0.014004
O O5 0.874959 0.975827 0.989533
O O6 0.873370 0.318192 0.363597
O O7 0.717016 0.461661 0.399034
O O8 0.918643 0.537579 0.374631
O O9 0.750000 0.250000 0.299612
O O10 0.599244 0.392111 0.335006
O O11 0.202825 0.095689 0.441253
O O12 0.997647 0.123511 0.407728
#
# Coordination Sequence:
#
# PCOD8313742 Si02
#       6
#     8  16  16  16  16  16
#     4  11  23  40  68 102 129 155 188 244 310 371
#     4  11  22  36  59  82 114 158 215 262 314 371
#     4  11  24  38  62  88 120 165 210 261 313 372
#     4  10  22  41  65  92 125 162 203 243 300 376
#     4  11  24  39  57  85 120 162 215 276 329 374
#     4  11  22  41  60  87 122 165 211 259 318 373
#
# _framework density 20.644867999999999
#
# number of rings (size 3 to 8) (size 9 to 14) (size 15 to 20)
#    0.000    1.182    1.818    4.636    7.636    1.818 
#    0.000    1.818    0.000    0.000    0.000    0.000 
#    0.000   13.091    0.000    0.000    0.000    0.000 
#
# Total GULP energy -1091167.514965 kJ/mol
# GULP energy per Si atom -12399.630852 kJ/mol
# Density = 2.059788 g / cm^3
# Si number density = 20.644868 Si / 1000 Ang^3
#
#
#
# Elastic Constant Matrix: (Units=GPa)
#
#
# Indices 1 2 3 4 5 6 
#
# 1 105.8242 32.7904 35.4926 0.0000 0.0000 0.0000
# 2 32.7904 105.8236 35.4925 0.0000 0.0000 0.0000
# 3 35.4926 35.4925 81.6418 0.0000 0.0000 0.0000
# 4 0.0000 0.0000 0.0000 25.0079 0.0000 0.0000
# 5 0.0000 0.0000 0.0000 0.0000 25.0088 0.0000
# 6 0.0000 0.0000 0.0000 0.0000 0.0000 27.5008
#
#
#
# Elastic Compliance Matrix: (Units=1/GPa)
#
#
# Indices 1 2 3 4 5 6 
#
# 1 0.011486 -0.002206 -0.004034 0.000000 0.000000 0.000000
# 2 -0.002206 0.011486 -0.004035 0.000000 0.000000 0.000000
# 3 -0.004034 -0.004035 0.015757 0.000000 0.000000 0.000000
# 4 0.000000 0.000000 0.000000 0.039987 0.000000 0.000000
# 5 0.000000 0.000000 0.000000 0.000000 0.039986 0.000000
# 6 0.000000 0.000000 0.000000 0.000000 0.000000 0.036363
#
#
# Mechanical properties :
#
#
# Convention : Reuss Voigt Hill
#
# Bulk Modulus (GPa) = 55.00785 55.64895 55.32840
# Shear Modulus (GPa) = 27.52171 28.13777 27.82974
#
# Velocity S-wave (km/s) = 3.65513 3.69581 3.67553
# Velocity P-wave (km/s) = 6.67203 6.72502 6.69857
#
# Compressibility (1/GPa) = 0.01817922
#
# Stress axis : x y z
#
# Youngs Moduli (GPa) = 87.06009 87.05961 63.46583
#
# Poissons Ratio (x) = 0.19205 0.25605
# Poissons Ratio (y) = 0.19205 0.25605
# Poissons Ratio (z) = 0.35124 0.35124
#
# Static dielectric constant tensor:
#      x y z
#    x 3.925320 0.000000 0.000000 
#    y 0.000000 3.925320 0.000000 
#    z 0.000000 0.000000 3.457710 
# 
# 
# High freq. dielectric constant tensor:
#      x y z
#    x 1.820200 0.000000 0.000000 
#    y 0.000000 1.820200 0.000000 
#    z 0.000000 0.000000 1.782570 
# 
# From -- ./inp_files/6549.got.cif
#   From: 2010.03.12/outbox.cif.g09.slc.cpg/sg126_4_cif.got.tgz:6549.got - 2010.04.06 16:55:23.
