data_PCOD8313027
_publ_section_title
;
Structure prediction by ZEFSAII (Michael W. Deem and Ramdas Pophale) SiO2 
 PCOD8313027
Probable space group: P 4/M M M
;
_chemical_formula_sum "Si O2"
_cell_formula_units_Z 96
_cell_length_a 25.186059
_cell_length_b 25.186059
_cell_length_c 9.404820
_cell_angle_alpha 90.000000
_cell_angle_beta 90.000000
_cell_angle_gamma 90.000000
_cell_volume 5965.830646
_symmetry_space_group_name_H-M "P 4/M M M"
_symmetry_group_IT_number 123
_symmetry_cell_setting 'tetragonal'
loop_
_space_group_symop_operation_xyz
x,y,z
-y,x,z
-x,-y,z
y,-x,z
x,-y,-z
-x,y,-z
y,x,-z
-y,-x,-z
-x,-y,-z
y,-x,-z
x,y,-z
-y,x,-z
-x,y,z
x,-y,z
-y,-x,z
y,x,z
loop_
_atom_site_type_symbol
_atom_site_label
_atom_site_fract_x
_atom_site_fract_y
_atom_site_fract_z
Si Si1 0.060613 0.145750 0.666282
Si Si2 0.252510 0.563085 0.660811
Si Si3 0.754991 0.936943 0.157626
Si Si4 0.439077 0.646882 0.164019
Si Si5 0.638549 0.058925 0.830890
Si Si6 0.561679 0.150814 0.833888
O O1 0.064820 0.156289 0.500000
O O2 0.095027 0.095027 0.713466
O O3 0.084167 0.198270 0.741168
O O4 0.000000 0.134121 0.712389
O O5 0.251493 0.585366 0.500000
O O6 0.252673 0.500000 0.661953
O O7 0.305188 0.583566 0.740407
O O8 0.201037 0.583341 0.745890
O O9 0.696929 0.920490 0.218433
O O10 0.756424 0.000000 0.150494
O O11 0.764040 0.913064 0.000000
O O12 0.500000 0.633642 0.201636
O O13 0.405651 0.594350 0.198581
O O14 0.433440 0.664121 0.000000
O O15 0.593743 0.099602 0.777728
O O16 0.626178 0.000000 0.768715
O O17 0.638786 0.055489 0.000000
O O18 0.500000 0.139605 0.803807
O O19 0.571892 0.162023 0.000000
#
# Coordination Sequence:
#
# PCOD8313027 Si02
#       6
#    16  16  16  16  16  16
#     4   9  17  28  42  61  84 108 134 166 204 245
#     4   9  17  29  44  61  84 116 151 182 211 248
#     4   8  14  26  43  60  80 109 142 171 199 237
#     4   9  17  29  46  68  92 116 142 174 213 257
#     4   8  14  25  42  65  90 113 139 173 212 254
#     4   9  16  26  43  66  89 113 142 177 215 254
#
# _framework density 16.091640000000002
#
# number of rings (size 3 to 8) (size 9 to 14) (size 15 to 20)
#    0.000    3.333    0.000    1.500    0.000    3.333 
#    0.000    4.167    0.000    2.500    0.000    9.333 
#    0.000    0.000    0.000    0.000    0.000    0.000 
#
# Total GULP energy -1189934.329919 kJ/mol
# GULP energy per Si atom -12395.149270 kJ/mol
# Density = 1.605501 g / cm^3
# Si number density = 16.091640 Si / 1000 Ang^3
#
#
#
# Elastic Constant Matrix: (Units=GPa)
#
#
# Indices 1 2 3 4 5 6 
#
# 1 99.1047 62.4500 43.5350 0.0000 0.0000 0.0000
# 2 62.4500 99.1047 43.5350 0.0000 0.0000 0.0000
# 3 43.5350 43.5350 58.5289 0.0000 0.0000 0.0000
# 4 0.0000 0.0000 0.0000 16.2804 0.0000 0.0000
# 5 0.0000 0.0000 0.0000 0.0000 16.2804 0.0000
# 6 0.0000 0.0000 0.0000 0.0000 0.0000 5.8301
#
#
#
# Elastic Compliance Matrix: (Units=1/GPa)
#
#
# Indices 1 2 3 4 5 6 
#
# 1 0.018807 -0.008475 -0.007685 0.000000 0.000000 0.000000
# 2 -0.008475 0.018807 -0.007685 0.000000 0.000000 0.000000
# 3 -0.007685 -0.007685 0.028518 0.000000 0.000000 0.000000
# 4 0.000000 0.000000 0.000000 0.061423 0.000000 0.000000
# 5 0.000000 0.000000 0.000000 0.000000 0.061423 0.000000
# 6 0.000000 0.000000 0.000000 0.000000 0.000000 0.171523
#
#
# Mechanical properties :
#
#
# Convention : Reuss Voigt Hill
#
# Bulk Modulus (GPa) = 54.22504 61.75315 57.98909
# Shear Modulus (GPa) = 12.06745 14.82608 13.44677
#
# Velocity S-wave (km/s) = 2.74144 3.03867 2.89387
# Velocity P-wave (km/s) = 6.61751 7.12535 6.87612
#
# Compressibility (1/GPa) = 0.01844167
#
# Stress axis : x y z
#
# Youngs Moduli (GPa) = 53.17273 53.17273 35.06564
#
# Poissons Ratio (x) = 0.45064 0.26948
# Poissons Ratio (y) = 0.45064 0.26948
# Poissons Ratio (z) = 0.40863 0.40863
#
# Static dielectric constant tensor:
#      x y z
#    x 3.088280 0.000000 0.000000 
#    y 0.000000 3.088280 0.000000 
#    z 0.000000 0.000000 3.025700 
# 
# 
# High freq. dielectric constant tensor:
#      x y z
#    x 1.603140 0.000000 0.000000 
#    y 0.000000 1.603140 0.000000 
#    z 0.000000 0.000000 1.601990 
# 
# From -- ./inp_files/1615.got.cif
#   From: 2010.03.12/outbox.cif.g09.slc.cpg/sg123_1_cif.got.tgz:1615.got - 2010.04.06 16:26:55.
