data_PCOD8313837
_publ_section_title
;
Structure prediction by ZEFSAII (Michael W. Deem and Ramdas Pophale) SiO2 
 PCOD8313837
Probable space group: P 4/M B M
;
_chemical_formula_sum "Si O2"
_cell_formula_units_Z 96
_cell_length_a 16.355211
_cell_length_b 16.355211
_cell_length_c 20.745469
_cell_angle_alpha 90.000000
_cell_angle_beta 90.000000
_cell_angle_gamma 90.000000
_cell_volume 5549.266222
_symmetry_space_group_name_H-M "P 4/M B M"
_symmetry_group_IT_number 127
_symmetry_cell_setting 'tetragonal'
loop_
_space_group_symop_operation_xyz
x,y,z
-y,x,z
-x,-y,z
y,-x,z
1/2+x,1/2-y,-z
1/2-x,1/2+y,-z
1/2+y,1/2+x,-z
1/2-y,1/2-x,-z
-x,-y,-z
y,-x,-z
x,y,-z
-y,x,-z
1/2-x,1/2+y,z
1/2+x,1/2-y,z
1/2-y,1/2-x,z
1/2+y,1/2+x,z
loop_
_atom_site_type_symbol
_atom_site_label
_atom_site_fract_x
_atom_site_fract_y
_atom_site_fract_z
Si Si1 0.995822 0.367169 0.071412
Si Si2 0.882138 0.057772 0.768628
Si Si3 0.209912 0.422327 0.427494
Si Si4 0.058131 0.117301 0.383002
Si Si5 0.928378 0.708465 0.190095
Si Si6 0.495875 0.132441 0.687773
O O1 0.906813 0.406813 0.085707
O O2 0.061106 0.438895 0.074802
O O3 0.018940 0.300686 0.124904
O O4 0.996368 0.326686 0.000000
O O5 0.868534 0.065006 0.692783
O O6 0.803642 0.096348 0.804672
O O7 0.962713 0.107823 0.788896
O O8 0.190437 0.452209 0.500000
O O9 0.160771 0.339230 0.411484
O O10 0.305895 0.403016 0.420122
O O11 0.184958 0.493812 0.377555
O O12 0.963305 0.107753 0.403455
O O13 0.846730 0.653271 0.190307
O O14 0.988018 0.687619 0.249685
O O15 0.558403 0.058403 0.687406
O O16 0.403876 0.096125 0.690279
#
# Coordination Sequence:
#
# PCOD8313837 Si02
#       6
#    16  16  16  16  16  16
#     4   8  14  25  43  71 106 138 164 193 238 295
#     4   9  18  33  52  72  97 129 165 204 247 294
#     4  10  20  33  49  69  97 130 158 194 247 297
#     4   9  18  34  55  73  90 120 164 208 247 291
#     4  10  17  28  51  77  99 126 163 206 248 288
#     4   9  17  29  45  67  95 126 159 192 229 284
#
# _framework density 17.299583999999999
#
# number of rings (size 3 to 8) (size 9 to 14) (size 15 to 20)
#    0.000    2.833    1.667    2.000    0.000    3.000 
#    0.000    5.000    0.000    1.000    0.000    3.500 
#    0.000    0.000    0.000    0.000    0.000    0.000 
#
# Total GULP energy -1189963.779681 kJ/mol
# GULP energy per Si atom -12395.456038 kJ/mol
# Density = 1.726021 g / cm^3
# Si number density = 17.299584 Si / 1000 Ang^3
#
#
#
# Elastic Constant Matrix: (Units=GPa)
#
#
# Indices 1 2 3 4 5 6 
#
# 1 76.3734 26.1714 30.4506 0.0000 0.0000 0.0000
# 2 26.1714 76.3734 30.4506 0.0000 0.0000 0.0000
# 3 30.4506 30.4506 95.7675 0.0000 0.0000 0.0000
# 4 0.0000 0.0000 0.0000 19.5078 0.0000 0.0000
# 5 0.0000 0.0000 0.0000 0.0000 19.5078 0.0000
# 6 0.0000 0.0000 0.0000 0.0000 0.0000 14.6168
#
#
#
# Elastic Compliance Matrix: (Units=1/GPa)
#
#
# Indices 1 2 3 4 5 6 
#
# 1 0.015971 -0.003949 -0.003823 0.000000 0.000000 0.000000
# 2 -0.003949 0.015971 -0.003823 0.000000 0.000000 0.000000
# 3 -0.003823 -0.003823 0.012873 0.000000 0.000000 0.000000
# 4 0.000000 0.000000 0.000000 0.051261 0.000000 0.000000
# 5 0.000000 0.000000 0.000000 0.000000 0.051261 0.000000
# 6 0.000000 0.000000 0.000000 0.000000 0.000000 0.068415
#
#
# Mechanical properties :
#
#
# Convention : Reuss Voigt Hill
#
# Bulk Modulus (GPa) = 46.23926 46.96216 46.60071
# Shear Modulus (GPa) = 20.31294 21.48926 20.90110
#
# Velocity S-wave (km/s) = 3.43036 3.52829 3.47967
# Velocity P-wave (km/s) = 6.51739 6.61844 6.56811
#
# Compressibility (1/GPa) = 0.02162664
#
# Stress axis : x y z
#
# Youngs Moduli (GPa) = 62.61427 62.61427 77.68291
#
# Poissons Ratio (x) = 0.24725 0.29695
# Poissons Ratio (y) = 0.24725 0.29695
# Poissons Ratio (z) = 0.23935 0.23935
#
# Static dielectric constant tensor:
#      x y z
#    x 3.113350 0.000000 0.000000 
#    y 0.000000 3.113350 0.000000 
#    z 0.000000 0.000000 3.304200 
# 
# 
# High freq. dielectric constant tensor:
#      x y z
#    x 1.646020 0.000000 0.000000 
#    y 0.000000 1.646020 0.000000 
#    z 0.000000 0.000000 1.661560 
# 
# From -- ./inp_files/5764.got.cif
#   From: 2010.03.12/outbox.cif.g09.slc.cpg/sg127_3_cif.got.tgz:5764.got - 2010.04.06 17:03:15.
