data_PCOD8313591
_publ_section_title
;
Structure prediction by ZEFSAII (Michael W. Deem and Ramdas Pophale) SiO2 
 PCOD8313591
Probable space group: P 4/N B M
;
_chemical_formula_sum "Si O2"
_cell_formula_units_Z 80
_cell_length_a 13.650707
_cell_length_b 13.650707
_cell_length_c 23.360247
_cell_angle_alpha 90.000000
_cell_angle_beta 90.000000
_cell_angle_gamma 90.000000
_cell_volume 4352.990512
_symmetry_space_group_name_H-M "P 4/N B M"
_symmetry_group_IT_number 125
_space_group.IT_coordinate_system_code '2'
_symmetry_cell_setting 'tetragonal'
loop_
_space_group_symop_operation_xyz
x,y,z
1/2-y,x,z
1/2-x,1/2-y,z
y,1/2-x,z
x,1/2-y,-z
1/2-x,y,-z
y,x,-z
1/2-y,1/2-x,-z
-x,-y,-z
1/2+y,-x,-z
1/2+x,1/2+y,-z
-y,1/2+x,-z
-x,1/2+y,z
1/2+x,-y,z
-y,-x,z
1/2+y,1/2+x,z
loop_
_atom_site_type_symbol
_atom_site_label
_atom_site_fract_x
_atom_site_fract_y
_atom_site_fract_z
Si Si1 0.127284 0.145059 0.062761
Si Si2 0.905951 0.705316 0.653324
Si Si3 0.011743 0.152293 0.531825
Si Si4 0.656521 0.996936 0.230855
Si Si5 0.359482 0.486789 0.826871
O O1 0.239114 0.115248 0.070478
O O2 0.055286 0.105199 0.111427
O O3 0.100921 0.100921 0.000000
O O4 0.869584 0.816239 0.656490
O O5 0.963845 0.682297 0.596007
O O6 0.983648 0.693324 0.704575
O O7 0.977633 0.250000 0.500000
O O8 0.106421 0.106421 0.500000
O O9 0.922678 0.077323 0.531088
O O10 0.599285 0.099285 0.224047
O O11 0.744175 0.995772 0.184523
O O12 0.586579 0.904489 0.219700
O O13 0.405342 0.594659 0.820709
#
# Coordination Sequence:
#
# PCOD8313591 Si02
#       5
#    16  16  16  16  16
#     4   9  17  31  55  85 115 147 190 243 296 338
#     4  11  21  36  63  91 116 151 196 250 302 346
#     4  11  23  40  62  87 120 157 195 243 298 359
#     4  11  23  39  58  85 121 154 195 245 292 352
#     4  11  22  36  59  85 113 157 199 237 293 352
#
# _framework density 18.378170999999998
#
# number of rings (size 3 to 8) (size 9 to 14) (size 15 to 20)
#    0.000    1.400    6.000    1.200    0.000    1.600 
#    0.000    1.000    0.000    2.400    0.000    0.000 
#    0.000    0.000    0.000    0.000    0.000    0.000 
#
# Total GULP energy -991737.909823 kJ/mol
# GULP energy per Si atom -12396.723873 kJ/mol
# Density = 1.833634 g / cm^3
# Si number density = 18.378171 Si / 1000 Ang^3
#
#
#
# Elastic Constant Matrix: (Units=GPa)
#
#
# Indices 1 2 3 4 5 6 
#
# 1 80.4878 39.1414 32.3813 0.0000 0.0000 0.0000
# 2 39.1414 80.4878 32.3813 0.0000 0.0000 0.0000
# 3 32.3813 32.3813 131.6234 0.0000 0.0000 0.0000
# 4 0.0000 0.0000 0.0000 12.7159 0.0000 0.0000
# 5 0.0000 0.0000 0.0000 0.0000 12.7159 0.0000
# 6 0.0000 0.0000 0.0000 0.0000 0.0000 33.6511
#
#
#
# Elastic Compliance Matrix: (Units=1/GPa)
#
#
# Indices 1 2 3 4 5 6 
#
# 1 0.016915 -0.007271 -0.002372 0.000000 0.000000 0.000000
# 2 -0.007271 0.016915 -0.002372 0.000000 0.000000 0.000000
# 3 -0.002372 -0.002372 0.008765 0.000000 0.000000 0.000000
# 4 0.000000 0.000000 0.000000 0.078642 0.000000 0.000000
# 5 0.000000 0.000000 0.000000 0.000000 0.078642 0.000000
# 6 0.000000 0.000000 0.000000 0.000000 0.000000 0.029717
#
#
# Mechanical properties :
#
#
# Convention : Reuss Voigt Hill
#
# Bulk Modulus (GPa) = 53.87358 55.60081 54.73719
# Shear Modulus (GPa) = 19.24456 24.39625 21.82040
#
# Velocity S-wave (km/s) = 3.23947 3.64738 3.44946
# Velocity P-wave (km/s) = 6.58557 6.93233 6.76118
#
# Compressibility (1/GPa) = 0.01856198
#
# Stress axis : x y z
#
# Youngs Moduli (GPa) = 59.12015 59.12015 114.09339
#
# Poissons Ratio (x) = 0.42987 0.27068
# Poissons Ratio (y) = 0.42987 0.27068
# Poissons Ratio (z) = 0.14026 0.14026
#
# Static dielectric constant tensor:
#      x y z
#    x 3.210880 0.000000 0.000000 
#    y 0.000000 3.210880 0.000000 
#    z 0.000000 0.000000 3.555180 
# 
# 
# High freq. dielectric constant tensor:
#      x y z
#    x 1.699670 0.000000 0.000000 
#    y 0.000000 1.699670 0.000000 
#    z 0.000000 0.000000 1.730130 
# 
# From -- ./inp_files/5796.got.cif
#   From: 2010.03.12/outbox.cif.g09.slc.cpg/sg125_3_cif.got.tgz:5796.got - 2010.04.06 16:47:52.
