data_PCOD8313671
_publ_section_title
;
Structure prediction by ZEFSAII (Michael W. Deem and Ramdas Pophale) SiO2 
 PCOD8313671
Probable space group: P 4/N N C
;
_chemical_formula_sum "Si O2"
_cell_formula_units_Z 96
_cell_length_a 13.578169
_cell_length_b 13.578169
_cell_length_c 31.995603
_cell_angle_alpha 90.000000
_cell_angle_beta 90.000000
_cell_angle_gamma 90.000000
_cell_volume 5898.922888
_symmetry_space_group_name_H-M "P 4/N N C"
_symmetry_group_IT_number 126
_space_group.IT_coordinate_system_code '2'
_symmetry_cell_setting 'tetragonal'
loop_
_space_group_symop_operation_xyz
x,y,z
1/2-y,x,z
1/2-x,1/2-y,z
y,1/2-x,z
x,1/2-y,1/2-z
1/2-x,y,1/2-z
y,x,1/2-z
1/2-y,1/2-x,1/2-z
-x,-y,-z
1/2+y,-x,-z
1/2+x,1/2+y,-z
-y,1/2+x,-z
-x,1/2+y,1/2+z
1/2+x,-y,1/2+z
-y,-x,1/2+z
1/2+y,1/2+x,1/2+z
loop_
_atom_site_type_symbol
_atom_site_label
_atom_site_fract_x
_atom_site_fract_y
_atom_site_fract_z
Si Si1 0.596837 0.063843 0.495650
Si Si2 0.441313 0.464610 0.875725
Si Si3 0.627994 0.144264 0.585889
Si Si4 0.126154 0.651787 0.590029
Si Si5 0.811349 0.898409 0.050914
Si Si6 0.137368 0.134443 0.797344
O O1 0.624490 0.124364 0.536536
O O2 0.588643 0.140952 0.457623
O O3 0.500000 0.000000 0.500000
O O4 0.677054 0.980610 0.484479
O O5 0.543187 0.417651 0.891386
O O6 0.442324 0.583938 0.879636
O O7 0.345742 0.435402 0.903460
O O8 0.426689 0.432938 0.827957
O O9 0.734845 0.111605 0.603561
O O10 0.615996 0.260243 0.593374
O O11 0.697352 0.877633 0.045613
O O12 0.251777 0.113553 0.805755
O O13 0.107573 0.107573 0.750000
#
# Coordination Sequence:
#
# PCOD8313671 Si02
#       6
#    16  16  16  16  16  16
#     4  11  20  30  45  63  88 127 164 201 237 282
#     4  11  19  32  52  69  95 127 161 199 242 293
#     4  11  21  34  49  69  95 128 169 207 243 289
#     4  10  22  33  49  71  94 127 169 208 243 287
#     4  10  20  30  44  67  92 117 153 199 245 286
#     4   9  17  29  49  78 106 128 152 187 240 308
#
# _framework density 16.274158
#
# number of rings (size 3 to 8) (size 9 to 14) (size 15 to 20)
#    0.000    1.667    3.333    5.500    2.333    2.667 
#    0.000    0.000    0.000    1.500    0.000    4.667 
#    0.000    0.000    0.000    1.500    0.000    0.333 
#
# Total GULP energy -1189710.149293 kJ/mol
# GULP energy per Si atom -12392.814055 kJ/mol
# Density = 1.623712 g / cm^3
# Si number density = 16.274158 Si / 1000 Ang^3
#
#
#
# Elastic Constant Matrix: (Units=GPa)
#
#
# Indices 1 2 3 4 5 6 
#
# 1 249.0736 -133.9991 40.2549 0.0000 0.0000 0.0000
# 2 -133.9991 249.0736 40.2549 0.0000 0.0000 0.0000
# 3 40.2549 40.2549 93.9548 0.0000 0.0000 0.0000
# 4 0.0000 0.0000 0.0000 19.2988 0.0000 0.0000
# 5 0.0000 0.0000 0.0000 0.0000 19.2988 0.0000
# 6 0.0000 0.0000 0.0000 0.0000 0.0000 48.5000
#
#
#
# Elastic Compliance Matrix: (Units=1/GPa)
#
#
# Indices 1 2 3 4 5 6 
#
# 1 0.007510 0.004900 -0.005317 0.000000 0.000000 0.000000
# 2 0.004900 0.007510 -0.005317 0.000000 0.000000 0.000000
# 3 -0.005317 -0.005317 0.015200 0.000000 0.000000 0.000000
# 4 0.000000 0.000000 0.000000 0.051817 0.000000 0.000000
# 5 0.000000 0.000000 0.000000 0.000000 0.051817 0.000000
# 6 0.000000 0.000000 0.000000 0.000000 0.000000 0.020619
#
#
# Mechanical properties :
#
#
# Convention : Reuss Voigt Hill
#
# Bulk Modulus (GPa) = 53.32945 53.90261 53.61603
# Shear Modulus (GPa) = 29.03748 60.45893 44.74821
#
# Velocity S-wave (km/s) = 4.22864 6.10171 5.24940
# Velocity P-wave (km/s) = 7.52878 9.10136 8.35216
#
# Compressibility (1/GPa) = 0.01875137
#
# Stress axis : x y z
#
# Youngs Moduli (GPa) = 133.15149 133.15149 65.79120
#
# Poissons Ratio (x) = -0.65241 0.34982
# Poissons Ratio (y) = -0.65241 0.34982
# Poissons Ratio (z) = 0.70798 0.70798
#
# Static dielectric constant tensor:
#      x y z
#    x 3.465260 0.000000 0.000000 
#    y 0.000000 3.465260 0.000000 
#    z 0.000000 0.000000 2.441920 
# 
# 
# High freq. dielectric constant tensor:
#      x y z
#    x 1.627680 0.000000 0.000000 
#    y 0.000000 1.627680 0.000000 
#    z 0.000000 0.000000 1.587800 
# 
# From -- ./inp_files/6606.got.cif
#   From: 2010.03.12/outbox.cif.g09.slc.cpg/sg126_4_cif.got.tgz:6606.got - 2010.04.06 16:55:23.
