data_PCOD8313228
_publ_section_title
;
Structure prediction by ZEFSAII (Michael W. Deem and Ramdas Pophale) SiO2 
 PCOD8313228
Probable space group: P 4/M C C
;
_chemical_formula_sum "Si O2"
_cell_formula_units_Z 88
_cell_length_a 18.515420
_cell_length_b 18.515420
_cell_length_c 15.114332
_cell_angle_alpha 90.000000
_cell_angle_beta 90.000000
_cell_angle_gamma 90.000000
_cell_volume 5181.507052
_symmetry_space_group_name_H-M "P 4/M C C"
_symmetry_group_IT_number 124
_symmetry_cell_setting 'tetragonal'
loop_
_space_group_symop_operation_xyz
x,y,z
-y,x,z
-x,-y,z
y,-x,z
x,-y,1/2-z
-x,y,1/2-z
y,x,1/2-z
-y,-x,1/2-z
-x,-y,-z
y,-x,-z
x,y,-z
-y,x,-z
-x,y,1/2+z
x,-y,1/2+z
-y,-x,1/2+z
y,x,1/2+z
loop_
_atom_site_type_symbol
_atom_site_label
_atom_site_fract_x
_atom_site_fract_y
_atom_site_fract_z
Si Si1 0.354953 0.222844 0.401429
Si Si2 0.154272 0.269536 0.746584
Si Si3 0.514543 0.195419 0.648760
Si Si4 0.571463 0.041257 0.399392
Si Si5 0.247485 0.343492 0.398263
Si Si6 0.000000 0.316690 0.750000
O O1 0.331258 0.198570 0.500000
O O2 0.320262 0.170106 0.330524
O O3 0.441454 0.220667 0.398127
O O4 0.323825 0.303163 0.381580
O O5 0.190268 0.190268 0.750000
O O6 0.182544 0.307760 0.657778
O O7 0.068161 0.262617 0.751268
O O8 0.500000 0.178956 0.750000
O O9 0.553018 0.125820 0.606528
O O10 0.573758 0.258806 0.634079
O O11 0.593933 0.022582 0.500000
O O12 0.500000 0.000000 0.370028
O O13 0.634096 0.011209 0.336414
O O14 0.223631 0.339103 0.500000
#
# Coordination Sequence:
#
# PCOD8313228 Si02
#       6
#    16  16  16  16  16   8
#     4  10  20  34  53  75 103 140 181 221 262 311
#     4  10  21  36  53  76 103 135 176 219 262 315
#     4  12  20  32  52  75 106 142 177 218 264 318
#     4  11  22  32  47  76 111 139 168 206 258 325
#     4  10  20  35  53  74 102 138 180 222 262 311
#     4  12  21  34  54  75 104 140 174 210 266 315
#
# _framework density 16.983474999999999
#
# number of rings (size 3 to 8) (size 9 to 14) (size 15 to 20)
#    0.000    1.273    3.636    4.091    0.000    2.182 
#    0.000    0.000    0.000    0.818    0.000    3.818 
#    0.000    0.000    0.000   10.727    0.000    0.000 
#
# Total GULP energy -1090795.858663 kJ/mol
# GULP energy per Si atom -12395.407485 kJ/mol
# Density = 1.694482 g / cm^3
# Si number density = 16.983475 Si / 1000 Ang^3
#
#
#
# Elastic Constant Matrix: (Units=GPa)
#
#
# Indices 1 2 3 4 5 6 
#
# 1 105.6195 58.0446 31.6297 0.0000 0.0000 0.0000
# 2 58.0446 105.6195 31.6297 0.0000 0.0000 0.0000
# 3 31.6297 31.6297 93.1294 0.0000 0.0000 0.0000
# 4 0.0000 0.0000 0.0000 17.4865 0.0000 0.0000
# 5 0.0000 0.0000 0.0000 0.0000 17.4865 0.0000
# 6 0.0000 0.0000 0.0000 0.0000 0.0000 26.1321
#
#
#
# Elastic Compliance Matrix: (Units=1/GPa)
#
#
# Indices 1 2 3 4 5 6 
#
# 1 0.014026 -0.006993 -0.002389 0.000000 0.000000 0.000000
# 2 -0.006993 0.014026 -0.002389 0.000000 0.000000 0.000000
# 3 -0.002389 -0.002389 0.012360 0.000000 0.000000 0.000000
# 4 0.000000 0.000000 0.000000 0.057187 0.000000 0.000000
# 5 0.000000 0.000000 0.000000 0.000000 0.057187 0.000000
# 6 0.000000 0.000000 0.000000 0.000000 0.000000 0.038267
#
#
# Mechanical properties :
#
#
# Convention : Reuss Voigt Hill
#
# Bulk Modulus (GPa) = 59.26957 60.77516 60.02237
# Shear Modulus (GPa) = 22.50029 24.42531 23.46280
#
# Velocity S-wave (km/s) = 3.64378 3.79645 3.72090
# Velocity P-wave (km/s) = 7.25789 7.42159 7.34019
#
# Compressibility (1/GPa) = 0.01687206
#
# Stress axis : x y z
#
# Youngs Moduli (GPa) = 71.29401 71.29401 80.90386
#
# Poissons Ratio (x) = 0.49856 0.19326
# Poissons Ratio (y) = 0.49856 0.19326
# Poissons Ratio (z) = 0.17030 0.17030
#
# Static dielectric constant tensor:
#      x y z
#    x 3.219550 0.000000 0.000000 
#    y 0.000000 3.219550 0.000000 
#    z 0.000000 0.000000 3.424750 
# 
# 
# High freq. dielectric constant tensor:
#      x y z
#    x 1.634520 0.000000 0.000000 
#    y 0.000000 1.634520 0.000000 
#    z 0.000000 0.000000 1.681030 
# 
# From -- ./inp_files/3190.got.cif
#   From: 2010.03.12/outbox.cif.g09.slc.cpg/sg124_2_cif.got.tgz:3190.got - 2010.04.06 16:38:57.
