data_PCOD8313766
_publ_section_title
;
Structure prediction by ZEFSAII (Michael W. Deem and Ramdas Pophale) SiO2 
 PCOD8313766
Probable space group: P 4/N N C
;
_chemical_formula_sum "Si O2"
_cell_formula_units_Z 96
_cell_length_a 23.762652
_cell_length_b 23.762652
_cell_length_c 8.634207
_cell_angle_alpha 90.000000
_cell_angle_beta 90.000000
_cell_angle_gamma 90.000000
_cell_volume 4875.422667
_symmetry_space_group_name_H-M "P 4/N N C"
_symmetry_group_IT_number 126
_space_group.IT_coordinate_system_code '2'
_symmetry_cell_setting 'tetragonal'
loop_
_space_group_symop_operation_xyz
x,y,z
1/2-y,x,z
1/2-x,1/2-y,z
y,1/2-x,z
x,1/2-y,1/2-z
1/2-x,y,1/2-z
y,x,1/2-z
1/2-y,1/2-x,1/2-z
-x,-y,-z
1/2+y,-x,-z
1/2+x,1/2+y,-z
-y,1/2+x,-z
-x,1/2+y,1/2+z
1/2+x,-y,1/2+z
-y,-x,1/2+z
1/2+y,1/2+x,1/2+z
loop_
_atom_site_type_symbol
_atom_site_label
_atom_site_fract_x
_atom_site_fract_y
_atom_site_fract_z
Si Si1 0.089147 0.586621 0.217973
Si Si2 0.005475 0.564072 0.966095
Si Si3 0.187695 0.401092 0.312471
Si Si4 0.575797 0.855914 0.126421
Si Si5 0.692521 0.019929 0.827677
Si Si6 0.972573 0.308334 0.682032
O O1 0.056983 0.593613 0.056700
O O2 0.068371 0.526571 0.289784
O O3 0.155129 0.576165 0.193529
O O4 0.075515 0.643164 0.315402
O O5 0.947216 0.593195 0.017380
O O6 0.000000 0.500000 0.000000
O O7 0.250000 0.387613 0.250000
O O8 0.145018 0.354983 0.250000
O O9 0.187510 0.397675 0.501407
O O10 0.168703 0.463658 0.256675
O O11 0.621395 0.878606 0.250000
O O12 0.526517 0.825761 0.218723
O O13 0.750000 0.038144 0.750000
O O14 0.700918 0.006238 0.007814
O O15 0.947739 0.250000 0.750000
#
# Coordination Sequence:
#
# PCOD8313766 Si02
#       6
#    16  16  16  16  16  16
#     4  11  22  36  57  85 123 159 200 246 306 375
#     4  11  21  34  52  89 124 163 192 241 308 382
#     4  11  24  41  64  90 120 163 212 263 317 374
#     4  11  23  38  59  91 127 162 207 252 317 376
#     4  11  23  39  62  89 118 158 205 256 311 371
#     4  11  23  39  60  86 126 166 206 252 304 370
#
# _framework density 19.690601000000001
#
# number of rings (size 3 to 8) (size 9 to 14) (size 15 to 20)
#    0.000    1.000    3.333    5.500    4.667    0.167 
#    0.000    0.000    0.000    0.500    0.000    8.167 
#    0.000    0.000    0.000    0.000    0.000    0.000 
#
# Total GULP energy -1189879.115184 kJ/mol
# GULP energy per Si atom -12394.574116 kJ/mol
# Density = 1.964578 g / cm^3
# Si number density = 19.690601 Si / 1000 Ang^3
#
#
#
# Elastic Constant Matrix: (Units=GPa)
#
#
# Indices 1 2 3 4 5 6 
#
# 1 92.1031 36.8889 34.2382 0.0000 0.0000 0.0000
# 2 36.8889 92.1016 34.2376 0.0000 0.0000 0.0000
# 3 34.2382 34.2376 123.7869 0.0000 0.0000 0.0000
# 4 0.0000 0.0000 0.0000 32.1643 0.0000 0.0000
# 5 0.0000 0.0000 0.0000 0.0000 32.1638 0.0000
# 6 0.0000 0.0000 0.0000 0.0000 0.0000 24.8397
#
#
#
# Elastic Compliance Matrix: (Units=1/GPa)
#
#
# Indices 1 2 3 4 5 6 
#
# 1 0.013599 -0.004512 -0.002513 0.000000 0.000000 0.000000
# 2 -0.004512 0.013599 -0.002513 0.000000 0.000000 0.000000
# 3 -0.002513 -0.002513 0.009469 0.000000 0.000000 0.000000
# 4 0.000000 0.000000 0.000000 0.031090 0.000000 0.000000
# 5 0.000000 0.000000 0.000000 0.000000 0.031091 0.000000
# 6 0.000000 0.000000 0.000000 0.000000 0.000000 0.040258
#
#
# Mechanical properties :
#
#
# Convention : Reuss Voigt Hill
#
# Bulk Modulus (GPa) = 56.85391 57.63568 57.24479
# Shear Modulus (GPa) = 30.47906 31.34202 30.91054
#
# Velocity S-wave (km/s) = 3.93860 3.99397 3.96638
# Velocity P-wave (km/s) = 7.04413 7.11360 7.07895
#
# Compressibility (1/GPa) = 0.01758894
#
# Stress axis : x y z
#
# Youngs Moduli (GPa) = 73.53496 73.53389 105.61150
#
# Poissons Ratio (x) = 0.33182 0.26543
# Poissons Ratio (y) = 0.33182 0.26543
# Poissons Ratio (z) = 0.18481 0.18481
#
# Static dielectric constant tensor:
#      x y z
#    x 3.490590 0.000000 0.000000 
#    y 0.000000 3.490580 0.000000 
#    z 0.000000 0.000000 4.223640 
# 
# 
# High freq. dielectric constant tensor:
#      x y z
#    x 1.745950 0.000000 0.000000 
#    y 0.000000 1.745950 0.000000 
#    z 0.000000 0.000000 1.793600 
# 
# From -- ./inp_files/1776.got.cif
#   From: 2010.03.12/outbox.cif.g09.slc.cpg/sg126_1_cif.got.tgz:1776.got - 2010.04.06 16:55:23.
