data_PCOD8313903
_publ_section_title
;
Structure prediction by ZEFSAII (Michael W. Deem and Ramdas Pophale) SiO2 
 PCOD8313903
Probable space group: P 4/M B M
;
_chemical_formula_sum "Si O2"
_cell_formula_units_Z 64
_cell_length_a 19.462233
_cell_length_b 19.462233
_cell_length_c 9.498137
_cell_angle_alpha 90.000000
_cell_angle_beta 90.000000
_cell_angle_gamma 90.000000
_cell_volume 3597.690212
_symmetry_space_group_name_H-M "P 4/M B M"
_symmetry_group_IT_number 127
_symmetry_cell_setting 'tetragonal'
loop_
_space_group_symop_operation_xyz
x,y,z
-y,x,z
-x,-y,z
y,-x,z
1/2+x,1/2-y,-z
1/2-x,1/2+y,-z
1/2+y,1/2+x,-z
1/2-y,1/2-x,-z
-x,-y,-z
y,-x,-z
x,y,-z
-y,x,-z
1/2-x,1/2+y,z
1/2+x,1/2-y,z
1/2-y,1/2-x,z
1/2+y,1/2+x,z
loop_
_atom_site_type_symbol
_atom_site_label
_atom_site_fract_x
_atom_site_fract_y
_atom_site_fract_z
Si Si1 0.825749 0.103327 0.770047
Si Si2 0.589452 0.572253 0.500000
Si Si3 0.024102 0.110146 0.000000
Si Si4 0.445070 0.167549 0.000000
Si Si5 0.782180 0.831697 0.000000
Si Si6 0.816891 0.574861 0.156702
O O1 0.872684 0.105763 0.632780
O O2 0.845783 0.035660 0.860145
O O3 0.835819 0.172854 0.858432
O O4 0.744948 0.091840 0.734725
O O5 0.510203 0.595381 0.500000
O O6 0.948398 0.081966 0.000000
O O7 0.398622 0.234736 0.000000
O O8 0.493380 0.167033 0.140710
O O9 0.401483 0.098518 0.000000
O O10 0.737538 0.762463 0.000000
O O11 0.885167 0.614834 0.207876
O O12 0.793543 0.601895 0.000000
#
# Coordination Sequence:
#
# PCOD8313903 Si02
#       6
#    16   8   8   8   8  16
#     4  11  21  33  57  73 110 150 183 231 282 330
#     4  11  26  40  51  80 118 153 196 239 275 331
#     4  10  19  28  46  74  98 131 177 221 271 331
#     4   9  18  29  52  88 116 139 169 226 290 342
#     4  10  20  34  56  86 114 137 184 238 287 347
#     4   9  18  32  52  79 109 137 177 225 275 338
#
# _framework density 17.789193000000001
#
# number of rings (size 3 to 8) (size 9 to 14) (size 15 to 20)
#    0.750    1.250    2.500    2.250   10.500    3.000 
#    0.000    2.500    0.000    0.000    0.000    0.875 
#    0.000    2.000    0.000    0.000    0.000    0.000 
#
# Total GULP energy -793152.349617 kJ/mol
# GULP energy per Si atom -12393.005463 kJ/mol
# Density = 1.774870 g / cm^3
# Si number density = 17.789193 Si / 1000 Ang^3
#
#
#
# Elastic Constant Matrix: (Units=GPa)
#
#
# Indices 1 2 3 4 5 6 
#
# 1 127.0773 60.4593 35.4327 0.0000 0.0000 0.0000
# 2 60.4593 127.0796 35.4321 0.0000 0.0000 0.0000
# 3 35.4327 35.4321 84.8211 0.0000 0.0000 0.0000
# 4 0.0000 0.0000 0.0000 7.9094 0.0000 0.0000
# 5 0.0000 0.0000 0.0000 0.0000 7.9102 0.0000
# 6 0.0000 0.0000 0.0000 0.0000 0.0000 18.6213
#
#
#
# Elastic Compliance Matrix: (Units=1/GPa)
#
#
# Indices 1 2 3 4 5 6 
#
# 1 0.010671 -0.004339 -0.002645 0.000000 0.000000 0.000000
# 2 -0.004339 0.010671 -0.002645 0.000000 0.000000 0.000000
# 3 -0.002645 -0.002645 0.013999 0.000000 0.000000 0.000000
# 4 0.000000 0.000000 0.000000 0.126431 0.000000 0.000000
# 5 0.000000 0.000000 0.000000 0.000000 0.126419 0.000000
# 6 0.000000 0.000000 0.000000 0.000000 0.000000 0.053702
#
#
# Mechanical properties :
#
#
# Convention : Reuss Voigt Hill
#
# Bulk Modulus (GPa) = 62.17789 66.84735 64.51262
# Shear Modulus (GPa) = 13.64205 20.73179 17.18692
#
# Velocity S-wave (km/s) = 2.77225 3.41752 3.11166
# Velocity P-wave (km/s) = 6.72872 7.29600 7.01810
#
# Compressibility (1/GPa) = 0.01608289
#
# Stress axis : x y z
#
# Youngs Moduli (GPa) = 93.70906 93.71140 71.43230
#
# Poissons Ratio (x) = 0.40666 0.18894
# Poissons Ratio (y) = 0.40665 0.18893
# Poissons Ratio (z) = 0.24787 0.24785
#
# Static dielectric constant tensor:
#      x y z
#    x 3.364320 0.000000 0.000000 
#    y 0.000000 3.364320 0.000000 
#    z 0.000000 0.000000 3.005810 
# 
# 
# High freq. dielectric constant tensor:
#      x y z
#    x 1.698600 0.000000 0.000000 
#    y 0.000000 1.698600 0.000000 
#    z 0.000000 0.000000 1.629700 
# 
# From -- ./inp_files/1479.got.cif
#   From: 2010.03.12/outbox.cif.g09.slc.cpg/sg127_1_cif.got.tgz:1479.got - 2010.04.06 17:03:15.
