data_PCOD8313029
_publ_section_title
;
Structure prediction by ZEFSAII (Michael W. Deem and Ramdas Pophale) SiO2 
 PCOD8313029
Probable space group: P 4/M M M
;
_chemical_formula_sum "Si O2"
_cell_formula_units_Z 80
_cell_length_a 16.478594
_cell_length_b 16.478594
_cell_length_c 18.979259
_cell_angle_alpha 90.000000
_cell_angle_beta 90.000000
_cell_angle_gamma 90.000000
_cell_volume 5153.705049
_symmetry_space_group_name_H-M "P 4/M M M"
_symmetry_group_IT_number 123
_symmetry_cell_setting 'tetragonal'
loop_
_space_group_symop_operation_xyz
x,y,z
-y,x,z
-x,-y,z
y,-x,z
x,-y,-z
-x,y,-z
y,x,-z
-y,-x,-z
-x,-y,-z
y,-x,-z
x,y,-z
-y,x,-z
-x,y,z
x,-y,z
-y,-x,z
y,x,z
loop_
_atom_site_type_symbol
_atom_site_label
_atom_site_fract_x
_atom_site_fract_y
_atom_site_fract_z
Si Si1 0.908146 0.226589 0.843995
Si Si2 0.795941 0.339646 0.077331
Si Si3 0.727547 0.591581 0.787496
Si Si4 0.838156 0.703170 0.710599
Si Si5 0.906575 0.226019 0.579358
O O1 0.854797 0.145204 0.847608
O O2 0.878041 0.293623 0.899957
O O3 0.905102 0.268226 0.766920
O O4 0.000000 0.202340 0.861753
O O5 0.726154 0.273847 0.073844
O O6 0.768571 0.405762 0.134941
O O7 0.808477 0.380033 0.000000
O O8 0.700459 0.500000 0.771040
O O9 0.648195 0.648195 0.782624
O O10 0.797281 0.617120 0.730854
O O11 0.765455 0.765455 0.715739
O O12 0.877928 0.702766 0.632662
O O13 0.892131 0.258313 0.500000
O O14 0.856030 0.143971 0.593815
O O15 0.000000 0.203548 0.592149
#
# Coordination Sequence:
#
# PCOD8313029 Si02
#       5
#    16  16  16  16  16
#     4   9  16  25  39  58  79 107 142 179 217 248
#     4   8  15  28  43  58  79 110 143 166 190 238
#     4   9  17  29  47  69  88 106 128 158 200 247
#     4   8  15  28  42  57  81 113 147 172 192 237
#     4   9  16  25  40  63  89 117 147 179 214 246
#
# _framework density 15.522814
#
# number of rings (size 3 to 8) (size 9 to 14) (size 15 to 20)
#    0.000    3.400    0.000    3.000    0.000    1.400 
#    0.000    1.000    0.000   19.200    0.000   12.600 
#    0.000    0.000    0.000    7.800    0.000    0.000 
#
# Total GULP energy -991217.369423 kJ/mol
# GULP energy per Si atom -12390.217118 kJ/mol
# Density = 1.548748 g / cm^3
# Si number density = 15.522814 Si / 1000 Ang^3
#
#
#
# Elastic Constant Matrix: (Units=GPa)
#
#
# Indices 1 2 3 4 5 6 
#
# 1 67.8002 40.7001 33.3082 0.0000 0.0000 0.0000
# 2 40.7001 67.8002 33.3082 0.0000 0.0000 0.0000
# 3 33.3082 33.3082 109.2129 0.0000 0.0000 0.0000
# 4 0.0000 0.0000 0.0000 11.7496 0.0000 0.0000
# 5 0.0000 0.0000 0.0000 0.0000 11.7496 0.0000
# 6 0.0000 0.0000 0.0000 0.0000 0.0000 12.1818
#
#
#
# Elastic Compliance Matrix: (Units=1/GPa)
#
#
# Indices 1 2 3 4 5 6 
#
# 1 0.024120 -0.012780 -0.003459 0.000000 0.000000 0.000000
# 2 -0.012780 0.024120 -0.003459 0.000000 0.000000 0.000000
# 3 -0.003459 -0.003459 0.011266 0.000000 0.000000 0.000000
# 4 0.000000 0.000000 0.000000 0.085109 0.000000 0.000000
# 5 0.000000 0.000000 0.000000 0.000000 0.085109 0.000000
# 6 0.000000 0.000000 0.000000 0.000000 0.000000 0.082089
#
#
# Mechanical properties :
#
#
# Convention : Reuss Voigt Hill
#
# Bulk Modulus (GPa) = 49.72170 51.04959 50.38564
# Shear Modulus (GPa) = 13.96988 16.30265 15.13627
#
# Velocity S-wave (km/s) = 3.00318 3.24425 3.12604
# Velocity P-wave (km/s) = 6.64277 6.85506 6.74975
#
# Compressibility (1/GPa) = 0.02011194
#
# Stress axis : x y z
#
# Youngs Moduli (GPa) = 41.45907 41.45907 88.76256
#
# Poissons Ratio (x) = 0.52985 0.30699
# Poissons Ratio (y) = 0.52985 0.30699
# Poissons Ratio (z) = 0.14339 0.14339
#
# Static dielectric constant tensor:
#      x y z
#    x 2.706530 0.000000 0.000000 
#    y 0.000000 2.706530 0.000000 
#    z 0.000000 0.000000 3.566690 
# 
# 
# High freq. dielectric constant tensor:
#      x y z
#    x 1.569090 0.000000 0.000000 
#    y 0.000000 1.569090 0.000000 
#    z 0.000000 0.000000 1.598520 
# 
# From -- ./inp_files/6271.got.cif
#   From: 2010.03.12/outbox.cif.g09.slc.cpg/sg123_4_cif.got.tgz:6271.got - 2010.04.06 16:26:55.
