data_PCOD8313264
_publ_section_title
;
Structure prediction by ZEFSAII (Michael W. Deem and Ramdas Pophale) SiO2 
 PCOD8313264
Probable space group: P 4/M C C
;
_chemical_formula_sum "Si O2"
_cell_formula_units_Z 112
_cell_length_a 15.851672
_cell_length_b 15.851672
_cell_length_c 21.747320
_cell_angle_alpha 90.000000
_cell_angle_beta 90.000000
_cell_angle_gamma 90.000000
_cell_volume 5464.568820
_symmetry_space_group_name_H-M "P 4/M C C"
_symmetry_group_IT_number 124
_symmetry_cell_setting 'tetragonal'
loop_
_space_group_symop_operation_xyz
x,y,z
-y,x,z
-x,-y,z
y,-x,z
x,-y,1/2-z
-x,y,1/2-z
y,x,1/2-z
-y,-x,1/2-z
-x,-y,-z
y,-x,-z
x,y,-z
-y,x,-z
-x,y,1/2+z
x,-y,1/2+z
-y,-x,1/2+z
y,x,1/2+z
loop_
_atom_site_type_symbol
_atom_site_label
_atom_site_fract_x
_atom_site_fract_y
_atom_site_fract_z
Si Si1 0.956931 0.131039 0.568460
Si Si2 0.406897 0.027420 0.141610
Si Si3 0.189838 0.546191 0.069857
Si Si4 0.641867 0.862063 0.429908
Si Si5 0.626177 0.458727 0.073302
Si Si6 0.843696 0.780202 0.156250
Si Si7 0.742621 0.081242 0.721219
O O1 0.943342 0.169552 0.500000
O O2 0.932392 0.196153 0.622203
O O3 0.052486 0.105147 0.576917
O O4 0.408779 0.116218 0.106652
O O5 0.346840 0.044063 0.199654
O O6 0.500000 0.000000 0.164519
O O7 0.368257 0.956331 0.097444
O O8 0.186600 0.445483 0.074205
O O9 0.281845 0.570970 0.097602
O O10 0.179876 0.576707 0.000000
O O11 0.672472 0.869720 0.500000
O O12 0.710858 0.806170 0.391379
O O13 0.604797 0.553803 0.096841
O O14 0.629260 0.461845 0.000000
O O15 0.857280 0.731464 0.220315
O O16 0.788874 0.865453 0.167213
O O17 0.794462 0.000000 0.750000
#
# Coordination Sequence:
#
# PCOD8313264 Si02
#       7
#    16  16  16  16  16  16  16
#     4   9  18  33  54  80 110 144 186 232 283 350
#     4  10  21  39  60  83 111 148 198 244 291 355
#     4   9  18  33  54  84 118 153 190 234 292 359
#     4  10  20  36  57  84 119 152 186 238 301 358
#     4   8  14  26  47  76 112 152 189 225 272 343
#     4  11  22  37  56  81 117 145 192 246 296 342
#     4  11  23  40  58  81 110 151 198 245 290 342
#
# _framework density 20.49567
#
# number of rings (size 3 to 8) (size 9 to 14) (size 15 to 20)
#    0.000    2.286    1.429    2.571    0.000    3.143 
#    0.000    3.571    0.000    3.429    0.000    0.000 
#    0.000    0.000    0.000    6.286    0.000    2.143 
#
# Total GULP energy -1387474.942054 kJ/mol
# GULP energy per Si atom -12388.169125 kJ/mol
# Density = 2.044902 g / cm^3
# Si number density = 20.495670 Si / 1000 Ang^3
#
#
#
# Elastic Constant Matrix: (Units=GPa)
#
#
# Indices 1 2 3 4 5 6 
#
# 1 75.7425 9.8473 26.2879 0.0000 0.0000 0.0000
# 2 9.8473 75.7425 26.2879 0.0000 0.0000 0.0000
# 3 26.2879 26.2879 93.5299 0.0000 0.0000 0.0000
# 4 0.0000 0.0000 0.0000 27.0821 0.0000 0.0000
# 5 0.0000 0.0000 0.0000 0.0000 27.0821 0.0000
# 6 0.0000 0.0000 0.0000 0.0000 0.0000 17.2497
#
#
#
# Elastic Compliance Matrix: (Units=1/GPa)
#
#
# Indices 1 2 3 4 5 6 
#
# 1 0.014649 -0.000527 -0.003969 0.000000 0.000000 0.000000
# 2 -0.000527 0.014649 -0.003969 0.000000 0.000000 0.000000
# 3 -0.003969 -0.003969 0.012923 0.000000 0.000000 0.000000
# 4 0.000000 0.000000 0.000000 0.036925 0.000000 0.000000
# 5 0.000000 0.000000 0.000000 0.000000 0.036925 0.000000
# 6 0.000000 0.000000 0.000000 0.000000 0.000000 0.057972
#
#
# Mechanical properties :
#
#
# Convention : Reuss Voigt Hill
#
# Bulk Modulus (GPa) = 39.54135 41.09568 40.31851
# Shear Modulus (GPa) = 25.07494 26.45556 25.76525
#
# Velocity S-wave (km/s) = 3.50155 3.59665 3.54942
# Velocity P-wave (km/s) = 5.97346 6.11083 6.04254
#
# Compressibility (1/GPa) = 0.02528998
#
# Stress axis : x y z
#
# Youngs Moduli (GPa) = 68.26544 68.26544 77.38186
#
# Poissons Ratio (x) = 0.03597 0.30714
# Poissons Ratio (y) = 0.03597 0.30714
# Poissons Ratio (z) = 0.27095 0.27095
#
# Static dielectric constant tensor:
#      x y z
#    x 3.771330 0.000000 0.000000 
#    y 0.000000 3.771330 0.000000 
#    z 0.000000 0.000000 3.628260 
# 
# 
# High freq. dielectric constant tensor:
#      x y z
#    x 1.794460 0.000000 0.000000 
#    y 0.000000 1.794460 0.000000 
#    z 0.000000 0.000000 1.782420 
# 
# From -- ./inp_files/5549.got.cif
#   From: 2010.03.12/outbox.cif.g09.slc.cpg/sg124_3_cif.got.tgz:5549.got - 2010.04.06 16:38:57.
