data_PCOD8313293
_publ_section_title
;
Structure prediction by ZEFSAII (Michael W. Deem and Ramdas Pophale) SiO2 
 PCOD8313293
Probable space group: P 4/M C C
;
_chemical_formula_sum "Si O2"
_cell_formula_units_Z 64
_cell_length_a 18.624703
_cell_length_b 18.624703
_cell_length_c 9.331386
_cell_angle_alpha 90.000000
_cell_angle_beta 90.000000
_cell_angle_gamma 90.000000
_cell_volume 3236.867087
_symmetry_space_group_name_H-M "P 4/M C C"
_symmetry_group_IT_number 124
_symmetry_cell_setting 'tetragonal'
loop_
_space_group_symop_operation_xyz
x,y,z
-y,x,z
-x,-y,z
y,-x,z
x,-y,1/2-z
-x,y,1/2-z
y,x,1/2-z
-y,-x,1/2-z
-x,-y,-z
y,-x,-z
x,y,-z
-y,x,-z
-x,y,1/2+z
x,-y,1/2+z
-y,-x,1/2+z
y,x,1/2+z
loop_
_atom_site_type_symbol
_atom_site_label
_atom_site_fract_x
_atom_site_fract_y
_atom_site_fract_z
Si Si1 0.098296 0.382198 0.000000
Si Si2 0.245253 0.173498 0.500000
Si Si3 0.918126 0.780237 0.728006
Si Si4 0.405542 0.000000 0.250000
Si Si5 0.543466 0.097449 0.500000
Si Si6 0.059433 0.896614 0.000000
Si Si7 0.307709 0.844829 0.500000
O O1 0.129524 0.463074 0.000000
O O2 0.051831 0.360832 0.141810
O O3 0.167790 0.331128 0.000000
O O4 0.209343 0.132427 0.633733
O O5 0.227932 0.259152 0.500000
O O6 0.915212 0.854378 0.639984
O O7 0.889594 0.711959 0.640135
O O8 0.000000 0.758689 0.750000
O O9 0.453395 0.048741 0.142548
O O10 0.604811 0.160741 0.500000
O O11 0.973477 0.902696 0.000000
#
# Coordination Sequence:
#
# PCOD8313293 Si02
#       7
#     8   8  16   8   8   8   8
#     4  11  22  37  58  81 115 143 179 221 276 335
#     4  12  26  40  57  86 113 141 183 235 284 337
#     4  11  26  40  59  75 106 141 186 228 290 337
#     4  10  21  34  56  84 110 140 179 222 269 332
#     4  11  21  38  57  82 112 146 179 221 272 337
#     4  10  25  46  62  72  96 139 193 252 294 331
#     4  11  26  39  58  81 112 142 185 228 275 339
#
# _framework density 19.772205
#
# number of rings (size 3 to 8) (size 9 to 14) (size 15 to 20)
#    0.000    1.125    0.000    6.750   21.000    0.000 
#    0.000    1.250    0.000    1.500    0.000    0.000 
#    0.000    0.500    0.000    0.000    0.000   18.000 
#
# Total GULP energy -793131.571652 kJ/mol
# GULP energy per Si atom -12392.680807 kJ/mol
# Density = 1.972720 g / cm^3
# Si number density = 19.772205 Si / 1000 Ang^3
#
#
#
# Elastic Constant Matrix: (Units=GPa)
#
#
# Indices 1 2 3 4 5 6 
#
# 1 134.2434 55.6259 33.2242 0.0000 0.0000 0.0000
# 2 55.6259 134.2434 33.2242 0.0000 0.0000 0.0000
# 3 33.2242 33.2242 152.1966 0.0000 0.0000 0.0000
# 4 0.0000 0.0000 0.0000 338.3411 0.0000 0.0000
# 5 0.0000 0.0000 0.0000 0.0000 338.3411 0.0000
# 6 0.0000 0.0000 0.0000 0.0000 0.0000 24.7721
#
#
#
# Elastic Compliance Matrix: (Units=1/GPa)
#
#
# Indices 1 2 3 4 5 6 
#
# 1 0.009211 -0.003509 -0.001245 0.000000 0.000000 0.000000
# 2 -0.003509 0.009211 -0.001245 0.000000 0.000000 0.000000
# 3 -0.001245 -0.001245 0.007114 0.000000 0.000000 0.000000
# 4 0.000000 0.000000 0.000000 0.002956 0.000000 0.000000
# 5 0.000000 0.000000 0.000000 0.000000 0.002956 0.000000
# 6 0.000000 0.000000 0.000000 0.000000 0.000000 0.040368
#
#
# Mechanical properties :
#
#
# Convention : Reuss Voigt Hill
#
# Bulk Modulus (GPa) = 73.85806 73.87023 73.86415
# Shear Modulus (GPa) = 56.60893 160.19812 108.40352
#
# Velocity S-wave (km/s) = 5.35656 9.01098 7.41251
# Velocity P-wave (km/s) = 8.70015 12.07085 10.52136
#
# Compressibility (1/GPa) = 0.01353948
#
# Stress axis : x y z
#
# Youngs Moduli (GPa) = 108.56434 108.56434 140.56919
#
# Poissons Ratio (x) = 0.38092 0.17498
# Poissons Ratio (y) = 0.38092 0.17498
# Poissons Ratio (z) = 0.13514 0.13514
#
# Static dielectric constant tensor:
#      x y z
#    x 3.415490 0.000000 0.000000 
#    y 0.000000 3.415490 0.000000 
#    z 0.000000 0.000000 3.762320 
# 
# 
# High freq. dielectric constant tensor:
#      x y z
#    x 1.740260 0.000000 0.000000 
#    y 0.000000 1.740260 0.000000 
#    z 0.000000 0.000000 1.811530 
# 
# From -- ./inp_files/976.got.cif
#   From: 2010.03.12/outbox.cif.g09.slc.cpg/sg124_1_cif.got.tgz:976.got - 2010.04.06 16:38:57.
