data_PCOD8313137
_publ_section_title
;
Structure prediction by ZEFSAII (Michael W. Deem and Ramdas Pophale) SiO2 
 PCOD8313137
Probable space group: P 4/M C C
;
_chemical_formula_sum "Si O2"
_cell_formula_units_Z 96
_cell_length_a 23.170922
_cell_length_b 23.170922
_cell_length_c 8.972650
_cell_angle_alpha 90.000000
_cell_angle_beta 90.000000
_cell_angle_gamma 90.000000
_cell_volume 4817.340651
_symmetry_space_group_name_H-M "P 4/M C C"
_symmetry_group_IT_number 124
_symmetry_cell_setting 'tetragonal'
loop_
_space_group_symop_operation_xyz
x,y,z
-y,x,z
-x,-y,z
y,-x,z
x,-y,1/2-z
-x,y,1/2-z
y,x,1/2-z
-y,-x,1/2-z
-x,-y,-z
y,-x,-z
x,y,-z
-y,x,-z
-x,y,1/2+z
x,-y,1/2+z
-y,-x,1/2+z
y,x,1/2+z
loop_
_atom_site_type_symbol
_atom_site_label
_atom_site_fract_x
_atom_site_fract_y
_atom_site_fract_z
Si Si1 0.053972 0.868561 0.164592
Si Si2 0.436700 0.350786 0.678697
Si Si3 0.887199 0.439247 0.171047
Si Si4 0.850687 0.228625 0.164895
Si Si5 0.240492 0.561112 0.826679
Si Si6 0.939901 0.321705 0.177861
O O1 0.073887 0.926114 0.250000
O O2 0.105391 0.823734 0.157834
O O3 0.000000 0.840240 0.250000
O O4 0.033987 0.885999 0.000000
O O5 0.500000 0.351157 0.750000
O O6 0.404730 0.404730 0.750000
O O7 0.437883 0.354635 0.500000
O O8 0.405529 0.291323 0.735884
O O9 0.899533 0.500000 0.250000
O O10 0.822929 0.411669 0.192526
O O11 0.929456 0.388373 0.226214
O O12 0.897881 0.453586 0.000000
O O13 0.792487 0.207514 0.250000
O O14 0.886066 0.282507 0.237313
O O15 0.829773 0.246341 0.000000
O O16 0.233853 0.500000 0.750000
O O17 0.258438 0.555673 0.000000
O O18 0.000000 0.301051 0.250000
O O19 0.944294 0.314393 0.000000
#
# Coordination Sequence:
#
# PCOD8313137 Si02
#       6
#    16  16  16  16  16  16
#     4  10  19  31  47  68  92 122 158 200 246 298
#     4  11  21  34  51  74 103 138 180 229 284 346
#     4   9  19  35  56  80 111 146 183 226 276 331
#     4   9  19  35  55  76 102 135 175 219 266 313
#     4   9  16  30  51  73  96 129 170 216 266 320
#     4  10  21  37  56  83 116 151 187 229 275 326
#
# _framework density 19.928007000000001
#
# number of rings (size 3 to 8) (size 9 to 14) (size 15 to 20)
#    0.000    2.333    0.000    4.000    0.000    3.333 
#    0.000    4.167    0.000    2.000    0.000    0.000 
#    0.000    0.000    0.000    0.000    0.000    0.000 
#
# Total GULP energy -1189350.922527 kJ/mol
# GULP energy per Si atom -12389.072110 kJ/mol
# Density = 1.988265 g / cm^3
# Si number density = 19.928007 Si / 1000 Ang^3
#
#
#
# Elastic Constant Matrix: (Units=GPa)
#
#
# Indices 1 2 3 4 5 6 
#
# 1 84.8675 34.2541 35.8484 0.0000 0.0000 0.0000
# 2 34.2541 84.8657 35.8476 0.0000 0.0000 0.0000
# 3 35.8484 35.8476 119.1142 0.0000 0.0000 0.0000
# 4 0.0000 0.0000 0.0000 24.4342 0.0000 0.0000
# 5 0.0000 0.0000 0.0000 0.0000 24.4347 0.0000
# 6 0.0000 0.0000 0.0000 0.0000 0.0000 27.2918
#
#
#
# Elastic Compliance Matrix: (Units=1/GPa)
#
#
# Indices 1 2 3 4 5 6 
#
# 1 0.015005 -0.004753 -0.003085 0.000000 0.000000 0.000000
# 2 -0.004753 0.015005 -0.003085 0.000000 0.000000 0.000000
# 3 -0.003085 -0.003085 0.010252 0.000000 0.000000 0.000000
# 4 0.000000 0.000000 0.000000 0.040926 0.000000 0.000000
# 5 0.000000 0.000000 0.000000 0.000000 0.040925 0.000000
# 6 0.000000 0.000000 0.000000 0.000000 0.000000 0.036641
#
#
# Mechanical properties :
#
#
# Convention : Reuss Voigt Hill
#
# Bulk Modulus (GPa) = 54.30438 55.63862 54.97150
# Shear Modulus (GPa) = 26.77513 27.42531 27.10022
#
# Velocity S-wave (km/s) = 3.66948 3.71377 3.69169
# Velocity P-wave (km/s) = 6.72777 6.80954 6.76878
#
# Compressibility (1/GPa) = 0.01841472
#
# Stress axis : x y z
#
# Youngs Moduli (GPa) = 66.64554 66.64425 97.53807
#
# Poissons Ratio (x) = 0.31676 0.30094
# Poissons Ratio (y) = 0.31677 0.30094
# Poissons Ratio (z) = 0.20563 0.20562
#
# Static dielectric constant tensor:
#      x y z
#    x 3.832490 0.000000 0.000000 
#    y 0.000000 3.832500 0.000000 
#    z 0.000000 0.000000 3.874870 
# 
# 
# High freq. dielectric constant tensor:
#      x y z
#    x 1.766290 0.000000 0.000000 
#    y 0.000000 1.766290 0.000000 
#    z 0.000000 0.000000 1.777530 
# 
# From -- ./inp_files/1384.got.cif
#   From: 2010.03.12/outbox.cif.g09.slc.cpg/sg124_1_cif.got.tgz:1384.got - 2010.04.06 16:38:57.
