data_PCOD8313042
_publ_section_title
;
Structure prediction by ZEFSAII (Michael W. Deem and Ramdas Pophale) SiO2 
 PCOD8313042
Probable space group: P 4/M M M
;
_chemical_formula_sum "Si O2"
_cell_formula_units_Z 112
_cell_length_a 18.365941
_cell_length_b 18.365941
_cell_length_c 22.245855
_cell_angle_alpha 90.000000
_cell_angle_beta 90.000000
_cell_angle_gamma 90.000000
_cell_volume 7503.700160
_symmetry_space_group_name_H-M "P 4/M M M"
_symmetry_group_IT_number 123
_symmetry_cell_setting 'tetragonal'
loop_
_space_group_symop_operation_xyz
x,y,z
-y,x,z
-x,-y,z
y,-x,z
x,-y,-z
-x,y,-z
y,x,-z
-y,-x,-z
-x,-y,-z
y,-x,-z
x,y,-z
-y,x,-z
-x,y,z
x,-y,z
-y,-x,z
y,x,z
loop_
_atom_site_type_symbol
_atom_site_label
_atom_site_fract_x
_atom_site_fract_y
_atom_site_fract_z
Si Si1 0.151154 0.416668 0.150593
Si Si2 0.082578 0.334106 0.256922
Si Si3 0.084906 0.696176 0.931532
Si Si4 0.342673 0.225675 0.326218
Si Si5 0.416214 0.701559 0.568821
Si Si6 0.701729 0.583917 0.214602
Si Si7 0.918300 0.199010 0.827416
O O1 0.135626 0.500000 0.136406
O O2 0.100850 0.394516 0.207011
O O3 0.131074 0.372801 0.090622
O O4 0.235812 0.402222 0.165179
O O5 0.139587 0.337418 0.312071
O O6 0.090406 0.255820 0.226359
O O7 0.000000 0.346710 0.280681
O O8 0.105418 0.765452 0.890781
O O9 0.000000 0.677141 0.923655
O O10 0.105373 0.714240 0.000000
O O11 0.262338 0.262338 0.325221
O O12 0.380390 0.234660 0.391149
O O13 0.394277 0.266959 0.279226
O O14 0.408064 0.726787 0.500000
O O15 0.500000 0.688792 0.586310
O O16 0.374477 0.625524 0.580811
O O17 0.677544 0.500000 0.216401
O O18 0.631971 0.631971 0.196727
O O19 0.868742 0.131259 0.812009
O O20 0.000000 0.169606 0.831869
#
# Coordination Sequence:
#
# PCOD8313042 Si02
#       7
#    16  16  16  16  16  16  16
#     4   9  17  28  41  59  82 103 127 163 202 240
#     4   9  17  28  43  62  82 106 135 166 201 241
#     4   9  18  30  42  58  80 106 134 162 195 235
#     4   9  16  27  43  61  82 108 137 168 203 241
#     4   9  17  28  42  61  85 113 144 176 208 241
#     4   9  17  28  42  60  81 104 130 162 200 241
#     4   9  17  29  44  62  84 107 132 163 197 235
#
# _framework density 14.925969
#
# number of rings (size 3 to 8) (size 9 to 14) (size 15 to 20)
#    0.000    3.000    0.000    2.143    0.000    6.143 
#    0.000    1.429    0.000    3.000    0.000    3.000 
#    0.000    0.000    0.000    3.143    0.000    0.000 
#
# Total GULP energy -1388625.622939 kJ/mol
# GULP energy per Si atom -12398.443062 kJ/mol
# Density = 1.489200 g / cm^3
# Si number density = 14.925969 Si / 1000 Ang^3
#
#
#
# Elastic Constant Matrix: (Units=GPa)
#
#
# Indices 1 2 3 4 5 6 
#
# 1 91.7139 47.2022 27.5127 0.0000 0.0000 0.0000
# 2 47.2022 91.7139 27.5127 0.0000 0.0000 0.0000
# 3 27.5127 27.5127 56.8555 0.0000 0.0000 0.0000
# 4 0.0000 0.0000 0.0000 18.1885 0.0000 0.0000
# 5 0.0000 0.0000 0.0000 0.0000 18.1885 0.0000
# 6 0.0000 0.0000 0.0000 0.0000 0.0000 21.3649
#
#
#
# Elastic Compliance Matrix: (Units=1/GPa)
#
#
# Indices 1 2 3 4 5 6 
#
# 1 0.015686 -0.006780 -0.004309 0.000000 0.000000 0.000000
# 2 -0.006780 0.015686 -0.004309 0.000000 0.000000 0.000000
# 3 -0.004309 -0.004309 0.021759 0.000000 0.000000 0.000000
# 4 0.000000 0.000000 0.000000 0.054980 0.000000 0.000000
# 5 0.000000 0.000000 0.000000 0.000000 0.054980 0.000000
# 6 0.000000 0.000000 0.000000 0.000000 0.000000 0.046806
#
#
# Mechanical properties :
#
#
# Convention : Reuss Voigt Hill
#
# Bulk Modulus (GPa) = 44.77778 49.41540 47.09659
# Shear Modulus (GPa) = 20.15001 20.75207 20.45104
#
# Velocity S-wave (km/s) = 3.67822 3.73276 3.70559
# Velocity P-wave (km/s) = 6.93571 7.19423 7.06615
#
# Compressibility (1/GPa) = 0.02233250
#
# Stress axis : x y z
#
# Youngs Moduli (GPa) = 63.75190 63.75190 45.95757
#
# Poissons Ratio (x) = 0.43225 0.19805
# Poissons Ratio (y) = 0.43225 0.19805
# Poissons Ratio (z) = 0.27474 0.27474
#
# Static dielectric constant tensor:
#      x y z
#    x 2.866920 0.000000 0.000000 
#    y 0.000000 2.866920 0.000000 
#    z 0.000000 0.000000 2.767720 
# 
# 
# High freq. dielectric constant tensor:
#      x y z
#    x 1.566570 0.000000 0.000000 
#    y 0.000000 1.566570 0.000000 
#    z 0.000000 0.000000 1.549030 
# 
# From -- ./inp_files/6688.got.cif
#   From: 2010.03.12/outbox.cif.g09.slc.cpg/sg123_4_cif.got.tgz:6688.got - 2010.04.06 16:26:55.
