data_PCOD8313523
_publ_section_title
;
Structure prediction by ZEFSAII (Michael W. Deem and Ramdas Pophale) SiO2 
 PCOD8313523
Probable space group: P 4/N B M
;
_chemical_formula_sum "Si O2"
_cell_formula_units_Z 80
_cell_length_a 13.774045
_cell_length_b 13.774045
_cell_length_c 23.037155
_cell_angle_alpha 90.000000
_cell_angle_beta 90.000000
_cell_angle_gamma 90.000000
_cell_volume 4370.708467
_symmetry_space_group_name_H-M "P 4/N B M"
_symmetry_group_IT_number 125
_space_group.IT_coordinate_system_code '2'
_symmetry_cell_setting 'tetragonal'
loop_
_space_group_symop_operation_xyz
x,y,z
1/2-y,x,z
1/2-x,1/2-y,z
y,1/2-x,z
x,1/2-y,-z
1/2-x,y,-z
y,x,-z
1/2-y,1/2-x,-z
-x,-y,-z
1/2+y,-x,-z
1/2+x,1/2+y,-z
-y,1/2+x,-z
-x,1/2+y,z
1/2+x,-y,z
-y,-x,z
1/2+y,1/2+x,z
loop_
_atom_site_type_symbol
_atom_site_label
_atom_site_fract_x
_atom_site_fract_y
_atom_site_fract_z
Si Si1 0.991880 0.652397 0.835510
Si Si2 0.850205 0.989319 0.970233
Si Si3 0.806650 0.599301 0.652272
Si Si4 0.013394 0.351797 0.774534
Si Si5 0.849637 0.510972 0.530797
O O1 0.017366 0.755521 0.808290
O O2 0.897304 0.608755 0.804135
O O3 0.084469 0.584469 0.825339
O O4 0.967134 0.664859 0.902810
O O5 0.920374 0.079627 0.980978
O O6 0.750000 0.017742 0.000000
O O7 0.893080 0.893080 0.000000
O O8 0.873610 0.693963 0.651475
O O9 0.828930 0.534949 0.708030
O O10 0.831875 0.532460 0.597949
O O11 0.923552 0.423552 0.779707
O O12 0.750000 0.482491 0.500000
O O13 0.920219 0.420219 0.523768
O O14 0.893784 0.606217 0.500000
#
# Coordination Sequence:
#
# PCOD8313523 Si02
#       5
#    16  16  16  16  16
#     4  10  22  38  59  85 114 153 197 239 293 359
#     4  10  21  38  58  84 116 150 192 241 295 353
#     4  11  21  37  63  91 120 156 198 249 297 345
#     4  11  22  39  60  84 120 157 194 246 297 345
#     4  11  23  40  63  90 123 160 199 245 295 351
#
# _framework density 18.303668999999999
#
# number of rings (size 3 to 8) (size 9 to 14) (size 15 to 20)
#    0.000    1.400    4.000    1.800    0.000    4.000 
#    0.000    5.000    0.000    2.400    0.000    0.000 
#    0.000    0.000    0.000    0.000    0.000    0.000 
#
# Total GULP energy -992525.069332 kJ/mol
# GULP energy per Si atom -12406.563367 kJ/mol
# Density = 1.826201 g / cm^3
# Si number density = 18.303669 Si / 1000 Ang^3
#
#
#
# Elastic Constant Matrix: (Units=GPa)
#
#
# Indices 1 2 3 4 5 6 
#
# 1 97.9879 33.1900 55.6140 0.0000 0.0000 0.0000
# 2 33.1900 97.9875 55.6138 0.0000 0.0000 0.0000
# 3 55.6140 55.6138 154.5892 0.0000 0.0000 0.0000
# 4 0.0000 0.0000 0.0000 21.1022 0.0000 0.0000
# 5 0.0000 0.0000 0.0000 0.0000 21.0733 0.0000
# 6 0.0000 0.0000 0.0000 0.0000 0.0000 15.0671
#
#
#
# Elastic Compliance Matrix: (Units=1/GPa)
#
#
# Indices 1 2 3 4 5 6 
#
# 1 0.013201 -0.002232 -0.003946 0.000000 0.000000 0.000000
# 2 -0.002232 0.013201 -0.003946 0.000000 0.000000 0.000000
# 3 -0.003946 -0.003946 0.009308 0.000000 0.000000 0.000000
# 4 0.000000 0.000000 0.000000 0.047388 0.000000 0.000000
# 5 0.000000 0.000000 0.000000 0.000000 0.047453 0.000000
# 6 0.000000 0.000000 0.000000 0.000000 0.000000 0.066370
#
#
# Mechanical properties :
#
#
# Convention : Reuss Voigt Hill
#
# Bulk Modulus (GPa) = 64.67558 71.04446 67.86002
# Shear Modulus (GPa) = 22.48971 25.19165 23.84068
#
# Velocity S-wave (km/s) = 3.50908 3.71390 3.61294
# Velocity P-wave (km/s) = 7.19928 7.56897 7.38644
#
# Compressibility (1/GPa) = 0.01546179
#
# Stress axis : x y z
#
# Youngs Moduli (GPa) = 75.75201 75.75175 107.43317
#
# Poissons Ratio (x) = 0.16905 0.42396
# Poissons Ratio (y) = 0.16905 0.42396
# Poissons Ratio (z) = 0.29894 0.29894
#
# Static dielectric constant tensor:
#      x y z
#    x 3.326290 0.000000 0.000000 
#    y 0.000000 3.326300 0.000000 
#    z 0.000000 0.000000 3.547180 
# 
# 
# High freq. dielectric constant tensor:
#      x y z
#    x 1.710320 0.000000 0.000000 
#    y 0.000000 1.710320 0.000000 
#    z 0.000000 0.000000 1.730820 
# 
# From -- ./inp_files/5810.got.cif
#   From: 2010.03.12/outbox.cif.g09.slc.cpg/sg125_3_cif.got.tgz:5810.got - 2010.04.06 16:47:52.
