data_PCOD8313070
_publ_section_title
;
Structure prediction by ZEFSAII (Michael W. Deem and Ramdas Pophale) SiO2 
 PCOD8313070
Probable space group: P 4/M C C
;
_chemical_formula_sum "Si O2"
_cell_formula_units_Z 64
_cell_length_a 22.947676
_cell_length_b 22.947676
_cell_length_c 8.744956
_cell_angle_alpha 90.000000
_cell_angle_beta 90.000000
_cell_angle_gamma 90.000000
_cell_volume 4605.057396
_symmetry_space_group_name_H-M "P 4/M C C"
_symmetry_group_IT_number 124
_symmetry_cell_setting 'tetragonal'
loop_
_space_group_symop_operation_xyz
x,y,z
-y,x,z
-x,-y,z
y,-x,z
x,-y,1/2-z
-x,y,1/2-z
y,x,1/2-z
-y,-x,1/2-z
-x,-y,-z
y,-x,-z
x,y,-z
-y,x,-z
-x,y,1/2+z
x,-y,1/2+z
-y,-x,1/2+z
y,x,1/2+z
loop_
_atom_site_type_symbol
_atom_site_label
_atom_site_fract_x
_atom_site_fract_y
_atom_site_fract_z
Si Si1 0.564468 0.057734 0.682919
Si Si2 0.730178 0.648043 0.670638
Si Si3 0.632007 0.554013 0.665233
Si Si4 0.564494 0.177014 0.182044
O O1 0.500000 0.056563 0.750000
O O2 0.564927 0.057237 0.500000
O O3 0.591651 0.117345 0.748126
O O4 0.597274 0.000000 0.750000
O O5 0.708720 0.708720 0.750000
O O6 0.755454 0.661373 0.500000
O O7 0.674630 0.607807 0.652304
O O8 0.775730 0.613185 0.775195
O O9 0.662940 0.500000 0.750000
O O10 0.573062 0.573062 0.750000
O O11 0.613979 0.531099 0.500000
O O12 0.500000 0.191235 0.250000
O O13 0.558029 0.172821 0.000000
#
# Coordination Sequence:
#
# PCOD8313070 Si02
#       4
#    16  16  16  16
#     4  10  17  27  41  59  82 105 127 152 183 222
#     4  10  20  33  46  60  76  96 120 151 187 224
#     4  10  20  32  45  57  70  85 106 135 173 217
#     4  11  20  30  44  62  81 103 129 157 189 230
#
# _framework density 13.897764
#
# number of rings (size 3 to 8) (size 9 to 14) (size 15 to 20)
#    0.000    1.750    0.000    9.000    0.000    5.250 
#    0.000    1.250    0.000    0.000    0.000    0.000 
#    0.000    0.000    0.000    0.000    0.000    0.000 
#
# Total GULP energy -792940.893907 kJ/mol
# GULP energy per Si atom -12389.701467 kJ/mol
# Density = 1.386613 g / cm^3
# Si number density = 13.897764 Si / 1000 Ang^3
#
#
#
# Elastic Constant Matrix: (Units=GPa)
#
#
# Indices 1 2 3 4 5 6 
#
# 1 58.2175 20.2079 32.6390 0.0000 0.0000 0.0000
# 2 20.2079 58.2175 32.6390 0.0000 0.0000 0.0000
# 3 32.6390 32.6390 148.3596 0.0000 0.0000 0.0000
# 4 0.0000 0.0000 0.0000 17.1947 0.0000 0.0000
# 5 0.0000 0.0000 0.0000 0.0000 17.1947 0.0000
# 6 0.0000 0.0000 0.0000 0.0000 0.0000 3.3502
#
#
#
# Elastic Compliance Matrix: (Units=1/GPa)
#
#
# Indices 1 2 3 4 5 6 
#
# 1 0.020959 -0.005350 -0.003434 0.000000 0.000000 0.000000
# 2 -0.005350 0.020959 -0.003434 0.000000 0.000000 0.000000
# 3 -0.003434 -0.003434 0.008251 0.000000 0.000000 0.000000
# 4 0.000000 0.000000 0.000000 0.058158 0.000000 0.000000
# 5 0.000000 0.000000 0.000000 0.000000 0.058158 0.000000
# 6 0.000000 0.000000 0.000000 0.000000 0.000000 0.298492
#
#
# Mechanical properties :
#
#
# Convention : Reuss Voigt Hill
#
# Bulk Modulus (GPa) = 38.85935 48.41848 43.63891
# Shear Modulus (GPa) = 10.04034 19.50181 14.77108
#
# Velocity S-wave (km/s) = 2.69075 3.75004 3.26366
# Velocity P-wave (km/s) = 6.13800 7.32564 6.75796
#
# Compressibility (1/GPa) = 0.02573383
#
# Stress axis : x y z
#
# Youngs Moduli (GPa) = 47.71165 47.71165 121.19229
#
# Poissons Ratio (x) = 0.25525 0.41618
# Poissons Ratio (y) = 0.25525 0.41618
# Poissons Ratio (z) = 0.16384 0.16384
#
# Static dielectric constant tensor:
#      x y z
#    x 2.939190 0.000000 0.000000 
#    y 0.000000 2.939190 0.000000 
#    z 0.000000 0.000000 3.195470 
# 
# 
# High freq. dielectric constant tensor:
#      x y z
#    x 1.492030 0.000000 0.000000 
#    y 0.000000 1.492030 0.000000 
#    z 0.000000 0.000000 1.561260 
# 
# From -- ./inp_files/882.got.cif
#   From: 2010.03.12/outbox.cif.g09.slc.cpg/sg124_1_cif.got.tgz:882.got - 2010.04.06 16:38:57.
