data_PCOD8313794
_publ_section_title
;
Structure prediction by ZEFSAII (Michael W. Deem and Ramdas Pophale) SiO2 
 PCOD8313794
Probable space group: P 4/N N C
;
_chemical_formula_sum "Si O2"
_cell_formula_units_Z 64
_cell_length_a 10.435577
_cell_length_b 10.435577
_cell_length_c 28.345367
_cell_angle_alpha 90.000000
_cell_angle_beta 90.000000
_cell_angle_gamma 90.000000
_cell_volume 3086.846389
_symmetry_space_group_name_H-M "P 4/N N C"
_symmetry_group_IT_number 126
_space_group.IT_coordinate_system_code '2'
_symmetry_cell_setting 'tetragonal'
loop_
_space_group_symop_operation_xyz
x,y,z
1/2-y,x,z
1/2-x,1/2-y,z
y,1/2-x,z
x,1/2-y,1/2-z
1/2-x,y,1/2-z
y,x,1/2-z
1/2-y,1/2-x,1/2-z
-x,-y,-z
1/2+y,-x,-z
1/2+x,1/2+y,-z
-y,1/2+x,-z
-x,1/2+y,1/2+z
1/2+x,-y,1/2+z
-y,-x,1/2+z
1/2+y,1/2+x,1/2+z
loop_
_atom_site_type_symbol
_atom_site_label
_atom_site_fract_x
_atom_site_fract_y
_atom_site_fract_z
Si Si1 0.387675 0.090432 0.197630
Si Si2 0.549942 0.802513 0.522132
Si Si3 0.101585 0.786398 0.067370
Si Si4 0.464401 0.973205 0.104653
O O1 0.426381 0.236876 0.189869
O O2 0.440974 0.059027 0.250000
O O3 0.448123 0.991386 0.160559
O O4 0.596065 0.660173 0.511402
O O5 0.428948 0.818486 0.487577
O O6 0.510165 0.833189 0.576034
O O7 0.250000 0.750000 0.073826
O O8 0.011822 0.675651 0.090753
O O9 0.066137 0.918269 0.092693
#
# Coordination Sequence:
#
# PCOD8313794 Si02
#       4
#    16  16  16  16
#     4   9  18  37  66  95 122 157 209 276 334 379
#     4  11  23  40  60  86 123 168 211 259 312 367
#     4  12  26  39  63  90 127 173 215 262 318 381
#     4  12  25  41  61  92 128 170 217 266 320 385
#
# _framework density 20.733135000000001
#
# number of rings (size 3 to 8) (size 9 to 14) (size 15 to 20)
#    0.000    1.000    2.500    6.000    3.500    2.500 
#    0.000    1.250    0.000    4.500    0.000    1.750 
#    0.000    0.000    0.000    0.000    0.000    0.000 
#
# Total GULP energy -792894.378668 kJ/mol
# GULP energy per Si atom -12388.974667 kJ/mol
# Density = 2.068595 g / cm^3
# Si number density = 20.733135 Si / 1000 Ang^3
#
#
#
# Elastic Constant Matrix: (Units=GPa)
#
#
# Indices 1 2 3 4 5 6 
#
# 1 101.7974 42.0407 45.8063 0.0000 0.0000 0.0000
# 2 42.0407 101.7978 45.8066 0.0000 0.0000 0.0000
# 3 45.8063 45.8066 163.6215 0.0000 0.0000 0.0000
# 4 0.0000 0.0000 0.0000 31.7699 0.0000 0.0000
# 5 0.0000 0.0000 0.0000 0.0000 31.7698 0.0000
# 6 0.0000 0.0000 0.0000 0.0000 0.0000 11.7688
#
#
#
# Elastic Compliance Matrix: (Units=1/GPa)
#
#
# Indices 1 2 3 4 5 6 
#
# 1 0.012598 -0.004137 -0.002369 0.000000 0.000000 0.000000
# 2 -0.004137 0.012598 -0.002369 0.000000 0.000000 0.000000
# 3 -0.002369 -0.002369 0.007438 0.000000 0.000000 0.000000
# 4 0.000000 0.000000 0.000000 0.031476 0.000000 0.000000
# 5 0.000000 0.000000 0.000000 0.000000 0.031476 0.000000
# 6 0.000000 0.000000 0.000000 0.000000 0.000000 0.084971
#
#
# Mechanical properties :
#
#
# Convention : Reuss Voigt Hill
#
# Bulk Modulus (GPa) = 67.18153 70.50263 68.84208
# Shear Modulus (GPa) = 24.59826 30.63257 27.61541
#
# Velocity S-wave (km/s) = 3.44819 3.84796 3.65354
# Velocity P-wave (km/s) = 6.95174 7.33628 7.14659
#
# Compressibility (1/GPa) = 0.01488504
#
# Stress axis : x y z
#
# Youngs Moduli (GPa) = 79.37959 79.37985 134.44665
#
# Poissons Ratio (x) = 0.32838 0.31846
# Poissons Ratio (y) = 0.32838 0.31846
# Poissons Ratio (z) = 0.18802 0.18802
#
# Static dielectric constant tensor:
#      x y z
#    x 3.938960 0.000000 0.000000 
#    y 0.000000 3.938960 0.000000 
#    z 0.000000 0.000000 3.662340 
# 
# 
# High freq. dielectric constant tensor:
#      x y z
#    x 1.812550 0.000000 0.000000 
#    y 0.000000 1.812550 0.000000 
#    z 0.000000 0.000000 1.790960 
# 
# From -- ./inp_files/6055.got.cif
#   From: 2010.03.12/outbox.cif.g09.slc.cpg/sg126_4_cif.got.tgz:6055.got - 2010.04.06 16:55:23.
