data_PCOD8313578
_publ_section_title
;
Structure prediction by ZEFSAII (Michael W. Deem and Ramdas Pophale) SiO2 
 PCOD8313578
Probable space group: P 4/N B M
;
_chemical_formula_sum "Si O2"
_cell_formula_units_Z 96
_cell_length_a 15.430027
_cell_length_b 15.430027
_cell_length_c 19.359655
_cell_angle_alpha 90.000000
_cell_angle_beta 90.000000
_cell_angle_gamma 90.000000
_cell_volume 4609.257656
_symmetry_space_group_name_H-M "P 4/N B M"
_symmetry_group_IT_number 125
_space_group.IT_coordinate_system_code '2'
_symmetry_cell_setting 'tetragonal'
loop_
_space_group_symop_operation_xyz
x,y,z
1/2-y,x,z
1/2-x,1/2-y,z
y,1/2-x,z
x,1/2-y,-z
1/2-x,y,-z
y,x,-z
1/2-y,1/2-x,-z
-x,-y,-z
1/2+y,-x,-z
1/2+x,1/2+y,-z
-y,1/2+x,-z
-x,1/2+y,z
1/2+x,-y,z
-y,-x,z
1/2+y,1/2+x,z
loop_
_atom_site_type_symbol
_atom_site_label
_atom_site_fract_x
_atom_site_fract_y
_atom_site_fract_z
Si Si1 0.739063 0.889722 0.581263
Si Si2 0.841385 0.483334 0.676960
Si Si3 0.138299 0.171706 0.898901
Si Si4 0.317961 0.539456 0.060844
Si Si5 0.890091 0.249635 0.800241
Si Si6 0.152128 0.347843 0.736348
O O1 0.656751 0.829200 0.604496
O O2 0.750000 0.900008 0.500000
O O3 0.718067 0.985334 0.612320
O O4 0.909414 0.409414 0.653585
O O5 0.776158 0.448399 0.735551
O O6 0.896702 0.566369 0.707959
O O7 0.227754 0.131241 0.924795
O O8 0.140293 0.160163 0.817301
O O9 0.052828 0.130514 0.933869
O O10 0.385679 0.614322 0.046881
O O11 0.269234 0.549269 0.134200
O O12 0.250000 0.543568 0.000000
O O13 0.835357 0.164644 0.779343
O O14 0.827205 0.327205 0.822572
O O15 0.128108 0.248417 0.709563
#
# Coordination Sequence:
#
# PCOD8313578 Si02
#       6
#    16  16  16  16  16  16
#     4   9  19  39  64  85 111 152 197 233 273 336
#     4  11  21  33  55  89 123 149 184 237 290 336
#     4   9  19  37  58  80 111 148 183 226 290 361
#     4  11  23  39  60  83 108 145 198 253 301 353
#     4   9  19  36  55  76 109 154 197 235 282 346
#     4   9  17  32  55  80 109 147 187 225 273 338
#
# _framework density 20.827650999999999
#
# number of rings (size 3 to 8) (size 9 to 14) (size 15 to 20)
#    0.000    2.333    0.000    5.000    0.000    3.500 
#    0.000   10.833    0.000    0.000    0.000    0.000 
#    0.000    0.000    0.000    0.000    0.000    0.000 
#
# Total GULP energy -1189345.374682 kJ/mol
# GULP energy per Si atom -12389.014320 kJ/mol
# Density = 2.078025 g / cm^3
# Si number density = 20.827651 Si / 1000 Ang^3
#
#
#
# Elastic Constant Matrix: (Units=GPa)
#
#
# Indices 1 2 3 4 5 6 
#
# 1 83.3392 23.4629 52.0476 0.0000 0.0000 0.0000
# 2 23.4629 83.3392 52.0476 0.0000 0.0000 0.0000
# 3 52.0476 52.0476 92.1116 0.0000 0.0000 0.0000
# 4 0.0000 0.0000 0.0000 29.2586 0.0000 0.0000
# 5 0.0000 0.0000 0.0000 0.0000 29.2586 0.0000
# 6 0.0000 0.0000 0.0000 0.0000 0.0000 17.8813
#
#
#
# Elastic Compliance Matrix: (Units=1/GPa)
#
#
# Indices 1 2 3 4 5 6 
#
# 1 0.018771 0.002070 -0.011776 0.000000 0.000000 0.000000
# 2 0.002070 0.018771 -0.011776 0.000000 0.000000 0.000000
# 3 -0.011776 -0.011776 0.024164 0.000000 0.000000 0.000000
# 4 0.000000 0.000000 0.000000 0.034178 0.000000 0.000000
# 5 0.000000 0.000000 0.000000 0.000000 0.034178 0.000000
# 6 0.000000 0.000000 0.000000 0.000000 0.000000 0.055924
#
#
# Mechanical properties :
#
#
# Convention : Reuss Voigt Hill
#
# Bulk Modulus (GPa) = 53.35681 57.10070 55.22876
# Shear Modulus (GPa) = 21.25865 24.02849 22.64357
#
# Velocity S-wave (km/s) = 3.19830 3.40027 3.30083
# Velocity P-wave (km/s) = 6.26998 6.54913 6.41108
#
# Compressibility (1/GPa) = 0.01874175
#
# Stress axis : x y z
#
# Youngs Moduli (GPa) = 53.27396 53.27396 41.38307
#
# Poissons Ratio (x) = -0.11027 0.48733
# Poissons Ratio (y) = -0.11027 0.48733
# Poissons Ratio (z) = 0.62736 0.62736
#
# Static dielectric constant tensor:
#      x y z
#    x 3.776990 0.000000 0.000000 
#    y 0.000000 3.776990 0.000000 
#    z 0.000000 0.000000 3.866250 
# 
# 
# High freq. dielectric constant tensor:
#      x y z
#    x 1.800790 0.000000 0.000000 
#    y 0.000000 1.800790 0.000000 
#    z 0.000000 0.000000 1.835830 
# 
# From -- ./inp_files/5911.got.cif
#   From: 2010.03.12/outbox.cif.g09.slc.cpg/sg125_3_cif.got.tgz:5911.got - 2010.04.06 16:47:52.
