data_PCOD8313839
_publ_section_title
;
Structure prediction by ZEFSAII (Michael W. Deem and Ramdas Pophale) SiO2 
 PCOD8313839
Probable space group: P 4/M B M
;
_chemical_formula_sum "Si O2"
_cell_formula_units_Z 96
_cell_length_a 23.423271
_cell_length_b 23.423271
_cell_length_c 8.808759
_cell_angle_alpha 90.000000
_cell_angle_beta 90.000000
_cell_angle_gamma 90.000000
_cell_volume 4832.922316
_symmetry_space_group_name_H-M "P 4/M B M"
_symmetry_group_IT_number 127
_symmetry_cell_setting 'tetragonal'
loop_
_space_group_symop_operation_xyz
x,y,z
-y,x,z
-x,-y,z
y,-x,z
1/2+x,1/2-y,-z
1/2-x,1/2+y,-z
1/2+y,1/2+x,-z
1/2-y,1/2-x,-z
-x,-y,-z
y,-x,-z
x,y,-z
-y,x,-z
1/2-x,1/2+y,z
1/2+x,1/2-y,z
1/2-y,1/2-x,z
1/2+y,1/2+x,z
loop_
_atom_site_type_symbol
_atom_site_label
_atom_site_fract_x
_atom_site_fract_y
_atom_site_fract_z
Si Si1 0.630026 0.958111 0.819550
Si Si2 0.018108 0.756583 0.820026
Si Si3 0.848243 0.651758 0.675565
Si Si4 0.440935 0.428317 0.165430
Si Si5 0.112492 0.834533 0.672681
Si Si6 0.432614 0.932614 0.178194
Si Si7 0.605016 0.275191 0.322567
O O1 0.603401 0.896600 0.769919
O O2 0.693186 0.969030 0.754136
O O3 0.587621 0.006826 0.753760
O O4 0.633023 0.962040 0.000000
O O5 0.074559 0.792031 0.774021
O O6 0.957454 0.779846 0.756839
O O7 0.013032 0.757300 0.000000
O O8 0.861878 0.638123 0.500000
O O9 0.885684 0.614317 0.786521
O O10 0.862909 0.716715 0.715980
O O11 0.507818 0.420725 0.177142
O O12 0.415665 0.396520 0.310189
O O13 0.421335 0.403552 0.000000
O O14 0.111338 0.812828 0.500000
O O15 0.177238 0.847927 0.729941
O O16 0.439013 0.939013 0.000000
O O17 0.592655 0.282714 0.500000
#
# Coordination Sequence:
#
# PCOD8313839 Si02
#       7
#    16  16   8  16  16   8  16
#     4   9  18  33  56  87 120 150 183 226 282 343
#     4  11  22  37  60  86 115 151 191 240 291 340
#     4  10  20  37  61  85 114 152 194 239 285 330
#     4   9  18  33  53  78 107 138 176 227 285 338
#     4  11  23  37  53  78 110 148 192 233 279 337
#     4  10  17  32  60  92 118 146 186 230 279 341
#     4  10  22  40  61  83 113 153 195 240 286 340
#
# _framework density 19.863759000000002
#
# number of rings (size 3 to 8) (size 9 to 14) (size 15 to 20)
#    0.000    2.000    1.667    2.750    0.000    5.667 
#    1.500    0.833    0.000    4.500    0.000    0.000 
#    0.000    0.000    0.000    0.000    0.000    0.000 
#
# Total GULP energy -1189288.744700 kJ/mol
# GULP energy per Si atom -12388.424424 kJ/mol
# Density = 1.981855 g / cm^3
# Si number density = 19.863759 Si / 1000 Ang^3
#
#
#
# Elastic Constant Matrix: (Units=GPa)
#
#
# Indices 1 2 3 4 5 6 
#
# 1 75.6144 54.5996 25.6545 0.0000 0.0000 0.0000
# 2 54.5996 75.6146 25.6544 0.0000 0.0000 0.0000
# 3 25.6545 25.6544 32.6318 0.0000 0.0000 0.0000
# 4 0.0000 0.0000 0.0000 21.8002 0.0000 0.0000
# 5 0.0000 0.0000 0.0000 0.0000 21.8002 0.0000
# 6 0.0000 0.0000 0.0000 0.0000 0.0000 38.3120
#
#
#
# Elastic Compliance Matrix: (Units=1/GPa)
#
#
# Indices 1 2 3 4 5 6 
#
# 1 0.029356 -0.018230 -0.008748 0.000000 0.000000 0.000000
# 2 -0.018230 0.029356 -0.008747 0.000000 0.000000 0.000000
# 3 -0.008748 -0.008747 0.044399 0.000000 0.000000 0.000000
# 4 0.000000 0.000000 0.000000 0.045871 0.000000 0.000000
# 5 0.000000 0.000000 0.000000 0.000000 0.045871 0.000000
# 6 0.000000 0.000000 0.000000 0.000000 0.000000 0.026102
#
#
# Mechanical properties :
#
#
# Convention : Reuss Voigt Hill
#
# Bulk Modulus (GPa) = 31.58324 43.96418 37.77371
# Shear Modulus (GPa) = 16.50400 21.57931 19.04165
#
# Velocity S-wave (km/s) = 2.88559 3.29958 3.09951
# Velocity P-wave (km/s) = 5.19968 6.05782 5.64508
#
# Compressibility (1/GPa) = 0.03166236
#
# Stress axis : x y z
#
# Youngs Moduli (GPa) = 34.06455 34.06482 22.52307
#
# Poissons Ratio (x) = 0.62098 0.19702
# Poissons Ratio (y) = 0.62098 0.19701
# Poissons Ratio (z) = 0.29798 0.29797
#
# Static dielectric constant tensor:
#      x y z
#    x 3.852460 0.000000 0.000000 
#    y 0.000000 3.852460 0.000000 
#    z 0.000000 0.000000 3.424030 
# 
# 
# High freq. dielectric constant tensor:
#      x y z
#    x 1.779570 0.000000 0.000000 
#    y 0.000000 1.779570 0.000000 
#    z 0.000000 0.000000 1.749110 
# 
# From -- ./inp_files/2080.got.cif
#   From: 2010.03.12/outbox.cif.g09.slc.cpg/sg127_2_cif.got.tgz:2080.got - 2010.04.06 17:03:15.
