data_PCOD8313557
_publ_section_title
;
Structure prediction by ZEFSAII (Michael W. Deem and Ramdas Pophale) SiO2 
 PCOD8313557
Probable space group: P 4/N B M
;
_chemical_formula_sum "Si O2"
_cell_formula_units_Z 42
_cell_length_a 11.786089
_cell_length_b 11.786089
_cell_length_c 16.079641
_cell_angle_alpha 90.000000
_cell_angle_beta 90.000000
_cell_angle_gamma 90.000000
_cell_volume 2233.653385
_symmetry_space_group_name_H-M "P 4/N B M"
_symmetry_group_IT_number 125
_space_group.IT_coordinate_system_code '2'
_symmetry_cell_setting 'tetragonal'
loop_
_space_group_symop_operation_xyz
x,y,z
1/2-y,x,z
1/2-x,1/2-y,z
y,1/2-x,z
x,1/2-y,-z
1/2-x,y,-z
y,x,-z
1/2-y,1/2-x,-z
-x,-y,-z
1/2+y,-x,-z
1/2+x,1/2+y,-z
-y,1/2+x,-z
-x,1/2+y,z
1/2+x,-y,z
-y,-x,z
1/2+y,1/2+x,z
loop_
_atom_site_type_symbol
_atom_site_label
_atom_site_fract_x
_atom_site_fract_y
_atom_site_fract_z
Si Si1 0.721526 0.931881 0.253704
Si Si2 0.661570 0.338431 0.659581
Si Si3 0.255123 0.565402 0.907361
Si Si4 0.750000 0.250000 0.500000
O O1 0.621950 0.843400 0.273033
O O2 0.697680 0.036757 0.313619
O O3 0.723449 0.967218 0.157127
O O4 0.750000 0.250000 0.702314
O O5 0.670904 0.329097 0.558989
O O6 0.379512 0.620489 0.889503
O O7 0.163642 0.663642 0.899534
O O8 0.250000 0.512405 0.000000
#
# Coordination Sequence:
#
# PCOD8313557 Si02
#       4
#    16   8  16   2
#     4  11  24  38  59  94 129 165 206 252 303 356
#     4  10  22  43  70  90 118 155 197 247 303 376
#     4   9  18  33  55  85 122 167 215 259 301 346
#     4   8  24  44  72 104 106 152 204 228 312 388
#
# _framework density 18.803273999999998
#
# number of rings (size 3 to 8) (size 9 to 14) (size 15 to 20)
#    0.571    1.524    1.905    2.286    5.333    1.524 
#    0.000    9.524    0.000    2.286    0.000    0.000 
#    0.000    0.000    0.000    0.000    0.000    0.000 
#
# Total GULP energy -520633.844458 kJ/mol
# GULP energy per Si atom -12396.043916 kJ/mol
# Density = 1.876048 g / cm^3
# Si number density = 18.803274 Si / 1000 Ang^3
#
#
#
# Elastic Constant Matrix: (Units=GPa)
#
#
# Indices 1 2 3 4 5 6 
#
# 1 124.7425 61.9644 67.2514 0.0000 0.0000 0.0000
# 2 61.9644 124.7425 67.2514 0.0000 0.0000 0.0000
# 3 67.2514 67.2514 133.6473 0.0000 0.0000 0.0000
# 4 0.0000 0.0000 0.0000 6.9399 0.0000 0.0000
# 5 0.0000 0.0000 0.0000 0.0000 6.9399 0.0000
# 6 0.0000 0.0000 0.0000 0.0000 0.0000 15.2142
#
#
#
# Elastic Compliance Matrix: (Units=1/GPa)
#
#
# Indices 1 2 3 4 5 6 
#
# 1 0.012165 -0.003764 -0.004228 0.000000 0.000000 0.000000
# 2 -0.003764 0.012165 -0.004228 0.000000 0.000000 0.000000
# 3 -0.004228 -0.004228 0.011737 0.000000 0.000000 0.000000
# 4 0.000000 0.000000 0.000000 0.144094 0.000000 0.000000
# 5 0.000000 0.000000 0.000000 0.000000 0.144094 0.000000
# 6 0.000000 0.000000 0.000000 0.000000 0.000000 0.065728
#
#
# Mechanical properties :
#
#
# Convention : Reuss Voigt Hill
#
# Bulk Modulus (GPa) = 85.98767 86.22960 86.10863
# Shear Modulus (GPa) = 11.95317 18.26314 15.10816
#
# Velocity S-wave (km/s) = 2.52404 3.11991 2.83766
# Velocity P-wave (km/s) = 7.37047 7.67703 7.52531
#
# Compressibility (1/GPa) = 0.01162958
#
# Stress axis : x y z
#
# Youngs Moduli (GPa) = 82.20065 82.20065 85.19973
#
# Poissons Ratio (x) = 0.30938 0.36020
# Poissons Ratio (y) = 0.30938 0.36020
# Poissons Ratio (z) = 0.34752 0.34752
#
# Static dielectric constant tensor:
#      x y z
#    x 3.514800 0.000000 0.000000 
#    y 0.000000 3.514800 0.000000 
#    z 0.000000 0.000000 3.462870 
# 
# 
# High freq. dielectric constant tensor:
#      x y z
#    x 1.727130 0.000000 0.000000 
#    y 0.000000 1.727130 0.000000 
#    z 0.000000 0.000000 1.714280 
# 
# From -- ./inp_files/5176.got.cif
#   From: 2010.03.12/outbox.cif.g09.slc.cpg/sg125_3_cif.got.tgz:5176.got - 2010.04.06 16:47:52.
