data_PCOD8313823
_publ_section_title
;
Structure prediction by ZEFSAII (Michael W. Deem and Ramdas Pophale) SiO2 
 PCOD8313823
Probable space group: P 4/N N C
;
_chemical_formula_sum "Si O2"
_cell_formula_units_Z 64
_cell_length_a 11.150128
_cell_length_b 11.150128
_cell_length_c 27.755530
_cell_angle_alpha 90.000000
_cell_angle_beta 90.000000
_cell_angle_gamma 90.000000
_cell_volume 3450.716104
_symmetry_space_group_name_H-M "P 4/N N C"
_symmetry_group_IT_number 126
_space_group.IT_coordinate_system_code '2'
_symmetry_cell_setting 'tetragonal'
loop_
_space_group_symop_operation_xyz
x,y,z
1/2-y,x,z
1/2-x,1/2-y,z
y,1/2-x,z
x,1/2-y,1/2-z
1/2-x,y,1/2-z
y,x,1/2-z
1/2-y,1/2-x,1/2-z
-x,-y,-z
1/2+y,-x,-z
1/2+x,1/2+y,-z
-y,1/2+x,-z
-x,1/2+y,1/2+z
1/2+x,-y,1/2+z
-y,-x,1/2+z
1/2+y,1/2+x,1/2+z
loop_
_atom_site_type_symbol
_atom_site_label
_atom_site_fract_x
_atom_site_fract_y
_atom_site_fract_z
Si Si1 0.937857 0.696609 0.074828
Si Si2 0.557240 0.770032 0.963238
Si Si3 0.692206 0.124506 0.888333
Si Si4 0.945126 0.737602 0.695299
O O1 0.895615 0.831053 0.087996
O O2 0.050917 0.644645 0.103212
O O3 0.973082 0.707067 0.018756
O O4 0.621246 0.644800 0.949415
O O5 0.436354 0.765536 0.932420
O O6 0.750000 0.250000 0.880123
O O7 0.717706 0.056212 0.839162
O O8 0.874506 0.859397 0.684663
O O9 0.991424 0.750000 0.750000
#
# Coordination Sequence:
#
# PCOD8313823 Si02
#       4
#    16  16  16  16
#     4   9  22  40  54  76 121 168 196 230 283 344
#     4   9  20  38  57  77 112 158 200 246 291 330
#     4  12  25  31  58  91 118 148 198 240 286 348
#     4   9  20  42  68  89 113 144 184 244 310 351
#
# _framework density 18.546876000000001
#
# number of rings (size 3 to 8) (size 9 to 14) (size 15 to 20)
#    0.000    2.250    0.000    3.750   10.500    4.500 
#    0.000    0.000    0.000    0.000    0.000    0.000 
#    0.000    0.000    0.000    0.000    0.000    0.000 
#
# Total GULP energy -793156.306988 kJ/mol
# GULP energy per Si atom -12393.067297 kJ/mol
# Density = 1.850466 g / cm^3
# Si number density = 18.546876 Si / 1000 Ang^3
#
#
#
# Elastic Constant Matrix: (Units=GPa)
#
#
# Indices 1 2 3 4 5 6 
#
# 1 105.0037 51.2741 68.4348 0.0000 0.0000 0.0000
# 2 51.2741 105.0037 68.4348 0.0000 0.0000 0.0000
# 3 68.4348 68.4348 96.7113 0.0000 0.0000 0.0000
# 4 0.0000 0.0000 0.0000 27.7325 0.0000 0.0000
# 5 0.0000 0.0000 0.0000 0.0000 27.7325 0.0000
# 6 0.0000 0.0000 0.0000 0.0000 0.0000 20.3811
#
#
#
# Elastic Compliance Matrix: (Units=1/GPa)
#
#
# Indices 1 2 3 4 5 6 
#
# 1 0.017720 -0.000892 -0.011908 0.000000 0.000000 0.000000
# 2 -0.000892 0.017720 -0.011908 0.000000 0.000000 0.000000
# 3 -0.011908 -0.011908 0.027192 0.000000 0.000000 0.000000
# 4 0.000000 0.000000 0.000000 0.036059 0.000000 0.000000
# 5 0.000000 0.000000 0.000000 0.000000 0.036059 0.000000
# 6 0.000000 0.000000 0.000000 0.000000 0.000000 0.049065
#
#
# Mechanical properties :
#
#
# Convention : Reuss Voigt Hill
#
# Bulk Modulus (GPa) = 75.65950 75.88958 75.77454
# Shear Modulus (GPa) = 21.04078 23.07425 22.05751
#
# Velocity S-wave (km/s) = 3.37184 3.53101 3.45234
# Velocity P-wave (km/s) = 7.48607 7.59148 7.53896
#
# Compressibility (1/GPa) = 0.01321711
#
# Stress axis : x y z
#
# Youngs Moduli (GPa) = 56.43451 56.43451 36.77539
#
# Poissons Ratio (x) = 0.05034 0.43790
# Poissons Ratio (y) = 0.05034 0.43790
# Poissons Ratio (z) = 0.67200 0.67200
#
# Static dielectric constant tensor:
#      x y z
#    x 3.440680 0.000000 0.000000 
#    y 0.000000 3.440680 0.000000 
#    z 0.000000 0.000000 3.230290 
# 
# 
# High freq. dielectric constant tensor:
#      x y z
#    x 1.723340 0.000000 0.000000 
#    y 0.000000 1.723340 0.000000 
#    z 0.000000 0.000000 1.700390 
# 
# From -- ./inp_files/5639.got.cif
#   From: 2010.03.12/outbox.cif.g09.slc.cpg/sg126_3_cif.got.tgz:5639.got - 2010.04.06 16:55:23.
