data_PCOD8313463
_publ_section_title
;
Structure prediction by ZEFSAII (Michael W. Deem and Ramdas Pophale) SiO2 
 PCOD8313463
Probable space group: P 4/N B M
;
_chemical_formula_sum "Si O2"
_cell_formula_units_Z 128
_cell_length_a 24.730491
_cell_length_b 24.730491
_cell_length_c 11.305172
_cell_angle_alpha 90.000000
_cell_angle_beta 90.000000
_cell_angle_gamma 90.000000
_cell_volume 6914.211372
_symmetry_space_group_name_H-M "P 4/N B M"
_symmetry_group_IT_number 125
_space_group.IT_coordinate_system_code '2'
_symmetry_cell_setting 'tetragonal'
loop_
_space_group_symop_operation_xyz
x,y,z
1/2-y,x,z
1/2-x,1/2-y,z
y,1/2-x,z
x,1/2-y,-z
1/2-x,y,-z
y,x,-z
1/2-y,1/2-x,-z
-x,-y,-z
1/2+y,-x,-z
1/2+x,1/2+y,-z
-y,1/2+x,-z
-x,1/2+y,z
1/2+x,-y,z
-y,-x,z
1/2+y,1/2+x,z
loop_
_atom_site_type_symbol
_atom_site_label
_atom_site_fract_x
_atom_site_fract_y
_atom_site_fract_z
Si Si1 0.952111 0.962408 0.631713
Si Si2 0.242161 0.164418 0.638682
Si Si3 0.846642 0.541947 0.917566
Si Si4 0.431122 0.373548 0.828988
Si Si5 0.335698 0.750312 0.640634
Si Si6 0.245975 0.438833 0.776556
Si Si7 0.620941 0.036885 0.731351
Si Si8 0.266082 0.956216 0.365414
O O1 0.939307 0.939307 0.500000
O O2 0.899731 0.963841 0.718168
O O3 0.996534 0.924073 0.686429
O O4 0.976634 0.023367 0.622653
O O5 0.298098 0.192254 0.680736
O O6 0.250000 0.158262 0.500000
O O7 0.227973 0.105486 0.689954
O O8 0.878802 0.590915 0.855983
O O9 0.783102 0.555532 0.894774
O O10 0.858064 0.484421 0.857099
O O11 0.866098 0.532946 0.052047
O O12 0.413878 0.312593 0.801654
O O13 0.337330 0.750000 0.500000
O O14 0.303056 0.696945 0.684883
O O15 0.304073 0.804073 0.685206
O O16 0.397502 0.751338 0.687330
O O17 0.239401 0.497015 0.713756
O O18 0.596416 0.096416 0.748679
O O19 0.669054 0.039509 0.637039
O O20 0.250000 0.964602 0.500000
#
# Coordination Sequence:
#
# PCOD8313463 Si02
#       8
#    16  16  16  16  16  16  16  16
#     4   9  19  35  53  76 104 133 169 208 254 318
#     4   9  18  33  50  69  96 133 179 223 260 309
#     4   9  20  36  52  75  98 125 182 221 251 312
#     4  10  20  35  55  73  98 137 169 215 265 305
#     4   8  14  27  46  65  89 128 173 207 236 283
#     4  11  20  32  48  73 103 136 164 211 269 320
#     4   9  18  33  53  72  98 133 167 213 256 297
#     4  10  20  29  43  72 107 133 167 201 252 319
#
# _framework density 18.512595999999998
#
# number of rings (size 3 to 8) (size 9 to 14) (size 15 to 20)
#    0.000    2.625    0.000    2.625    1.750    1.000 
#    4.500    3.125    0.000    0.000    0.000    5.250 
#    0.000    0.000    0.000   19.750    0.000    1.750 
#
# Total GULP energy -1585947.521913 kJ/mol
# GULP energy per Si atom -12390.215015 kJ/mol
# Density = 1.847046 g / cm^3
# Si number density = 18.512596 Si / 1000 Ang^3
#
#
#
# Elastic Constant Matrix: (Units=GPa)
#
#
# Indices 1 2 3 4 5 6 
#
# 1 96.8183 20.9235 35.9648 0.0000 0.0000 0.0000
# 2 20.9235 96.8183 35.9648 0.0000 0.0000 0.0000
# 3 35.9648 35.9648 101.2400 0.0000 0.0000 0.0000
# 4 0.0000 0.0000 0.0000 20.2924 0.0000 0.0000
# 5 0.0000 0.0000 0.0000 0.0000 20.2924 0.0000
# 6 0.0000 0.0000 0.0000 0.0000 0.0000 9.9917
#
#
#
# Elastic Compliance Matrix: (Units=1/GPa)
#
#
# Indices 1 2 3 4 5 6 
#
# 1 0.012012 -0.001164 -0.003853 0.000000 0.000000 0.000000
# 2 -0.001164 0.012012 -0.003853 0.000000 0.000000 0.000000
# 3 -0.003853 -0.003853 0.012615 0.000000 0.000000 0.000000
# 4 0.000000 0.000000 0.000000 0.049280 0.000000 0.000000
# 5 0.000000 0.000000 0.000000 0.000000 0.049280 0.000000
# 6 0.000000 0.000000 0.000000 0.000000 0.000000 0.100083
#
#
# Mechanical properties :
#
#
# Convention : Reuss Voigt Hill
#
# Bulk Modulus (GPa) = 52.92077 53.39807 53.15942
# Shear Modulus (GPa) = 19.28101 23.58351 21.43226
#
# Velocity S-wave (km/s) = 3.23074 3.57307 3.40621
# Velocity P-wave (km/s) = 6.52421 6.77711 6.65186
#
# Compressibility (1/GPa) = 0.01889617
#
# Stress axis : x y z
#
# Youngs Moduli (GPa) = 83.25223 83.25223 79.26877
#
# Poissons Ratio (x) = 0.09694 0.30545
# Poissons Ratio (y) = 0.09694 0.30545
# Poissons Ratio (z) = 0.32080 0.32080
#
# Static dielectric constant tensor:
#      x y z
#    x 3.576060 0.000000 0.000000 
#    y 0.000000 3.576060 0.000000 
#    z 0.000000 0.000000 3.263480 
# 
# 
# High freq. dielectric constant tensor:
#      x y z
#    x 1.716950 0.000000 0.000000 
#    y 0.000000 1.716950 0.000000 
#    z 0.000000 0.000000 1.692860 
# 
# From -- ./inp_files/4387.got.cif
#   From: 2010.03.12/outbox.cif.g09.slc.cpg/sg125_3_cif.got.tgz:4387.got - 2010.04.06 16:47:52.
