data_PCOD8313193
_publ_section_title
;
Structure prediction by ZEFSAII (Michael W. Deem and Ramdas Pophale) SiO2 
 PCOD8313193
Probable space group: P 4/M C C
;
_chemical_formula_sum "Si O2"
_cell_formula_units_Z 96
_cell_length_a 25.488576
_cell_length_b 25.488576
_cell_length_c 8.713154
_cell_angle_alpha 90.000000
_cell_angle_beta 90.000000
_cell_angle_gamma 90.000000
_cell_volume 5660.653033
_symmetry_space_group_name_H-M "P 4/M C C"
_symmetry_group_IT_number 124
_symmetry_cell_setting 'tetragonal'
loop_
_space_group_symop_operation_xyz
x,y,z
-y,x,z
-x,-y,z
y,-x,z
x,-y,1/2-z
-x,y,1/2-z
y,x,1/2-z
-y,-x,1/2-z
-x,-y,-z
y,-x,-z
x,y,-z
-y,x,-z
-x,y,1/2+z
x,-y,1/2+z
-y,-x,1/2+z
y,x,1/2+z
loop_
_atom_site_type_symbol
_atom_site_label
_atom_site_fract_x
_atom_site_fract_y
_atom_site_fract_z
Si Si1 0.253718 0.665900 0.819374
Si Si2 0.859405 0.665191 0.177531
Si Si3 0.549515 0.858619 0.678047
Si Si4 0.255093 0.448879 0.679241
Si Si5 0.861801 0.943419 0.183380
Si Si6 0.750041 0.055600 0.182682
O O1 0.289344 0.710657 0.750000
O O2 0.193860 0.674363 0.769499
O O3 0.276230 0.608448 0.767242
O O4 0.255443 0.670894 0.000000
O O5 0.884372 0.606831 0.204179
O O6 0.902381 0.706640 0.233037
O O7 0.845385 0.673201 0.000000
O O8 0.500000 0.891802 0.750000
O O9 0.539072 0.848031 0.500000
O O10 0.549822 0.804863 0.770968
O O11 0.285112 0.500000 0.750000
O O12 0.260179 0.454635 0.500000
O O13 0.902375 0.902375 0.250000
O O14 0.804405 0.926522 0.241028
O O15 0.876990 0.000000 0.250000
O O16 0.863571 0.944541 0.000000
O O17 0.731789 0.000000 0.250000
O O18 0.756807 0.051441 0.000000
#
# Coordination Sequence:
#
# PCOD8313193 Si02
#       6
#    16  16  16  16  16  16
#     4  10  20  31  45  67  97 128 159 193 235 281
#     4   9  19  33  49  68  94 126 160 195 238 286
#     4   9  15  25  42  65  90 118 151 192 236 280
#     4   9  16  26  41  62  86 118 156 192 229 275
#     4  11  22  38  58  81 105 130 158 192 233 279
#     4  10  20  36  55  75  97 126 162 200 238 280
#
# _framework density 16.959174000000001
#
# number of rings (size 3 to 8) (size 9 to 14) (size 15 to 20)
#    0.000    2.333    0.000    5.500    0.000    4.833 
#    0.000    0.833    0.000    0.500    0.000    3.500 
#    0.000    0.333    0.000    3.667    0.000    2.667 
#
# Total GULP energy -1189486.775571 kJ/mol
# GULP energy per Si atom -12390.487246 kJ/mol
# Density = 1.692057 g / cm^3
# Si number density = 16.959174 Si / 1000 Ang^3
#
#
#
# Elastic Constant Matrix: (Units=GPa)
#
#
# Indices 1 2 3 4 5 6 
#
# 1 123.3327 73.3994 44.6296 0.0000 0.0000 0.0000
# 2 73.3994 123.3365 44.6097 0.0000 0.0000 0.0000
# 3 44.6296 44.6097 56.8043 0.0000 0.0000 0.0000
# 4 0.0000 0.0000 0.0000 25.8588 0.0000 0.0000
# 5 0.0000 0.0000 0.0000 0.0000 25.8589 0.0000
# 6 0.0000 0.0000 0.0000 0.0000 0.0000 -3.9811
#
#
#
# Elastic Compliance Matrix: (Units=1/GPa)
#
#
# Indices 1 2 3 4 5 6 
#
# 1 0.013964 -0.006065 -0.006208 0.000000 0.000000 0.000000
# 2 -0.006065 0.013959 -0.006197 0.000000 0.000000 0.000000
# 3 -0.006208 -0.006197 0.027349 0.000000 0.000000 0.000000
# 4 0.000000 0.000000 0.000000 0.038672 0.000000 0.000000
# 5 0.000000 0.000000 0.000000 0.000000 0.038671 0.000000
# 6 0.000000 0.000000 0.000000 0.000000 0.000000 -0.251185
#
#
# Mechanical properties :
#
#
# Convention : Reuss Voigt Hill
#
# Bulk Modulus (GPa) = 54.55250 69.86122 62.20686
# Shear Modulus (GPa) = -66.20758 18.93631 -23.63564
#
# Velocity S-wave (km/s) = -6.25493 3.34515 -3.73725
# Velocity P-wave (km/s) = 4.46416 7.49688 4.25879
#
# Compressibility (1/GPa) = 0.01833097
#
# Stress axis : x y z
#
# Youngs Moduli (GPa) = 71.61238 71.64087 36.56460
#
# Poissons Ratio (x) = 0.43448 0.22701
# Poissons Ratio (y) = 0.43431 0.22659
# Poissons Ratio (z) = 0.44460 0.44396
#
# Static dielectric constant tensor:
#      x y z
#    x 3.524030 0.000000 0.000000 
#    y 0.000000 3.524040 0.000000 
#    z 0.000000 0.000000 3.317510 
# 
# 
# High freq. dielectric constant tensor:
#      x y z
#    x 1.639560 0.000000 0.000000 
#    y 0.000000 1.639560 0.000000 
#    z 0.000000 0.000000 1.672100 
# 
# From -- ./inp_files/1509.got.cif
#   From: 2010.03.12/outbox.cif.g09.slc.cpg/sg124_1_cif.got.tgz:1509.got - 2010.04.06 16:38:57.
