data_PCOD8313737
_publ_section_title
;
Structure prediction by ZEFSAII (Michael W. Deem and Ramdas Pophale) SiO2 
 PCOD8313737
Probable space group: P 4/N N C
;
_chemical_formula_sum "Si O2"
_cell_formula_units_Z 72
_cell_length_a 15.894339
_cell_length_b 15.894339
_cell_length_c 14.943770
_cell_angle_alpha 90.000000
_cell_angle_beta 90.000000
_cell_angle_gamma 90.000000
_cell_volume 3775.244798
_symmetry_space_group_name_H-M "P 4/N N C"
_symmetry_group_IT_number 126
_space_group.IT_coordinate_system_code '2'
_symmetry_cell_setting 'tetragonal'
loop_
_space_group_symop_operation_xyz
x,y,z
1/2-y,x,z
1/2-x,1/2-y,z
y,1/2-x,z
x,1/2-y,1/2-z
1/2-x,y,1/2-z
y,x,1/2-z
1/2-y,1/2-x,1/2-z
-x,-y,-z
1/2+y,-x,-z
1/2+x,1/2+y,-z
-y,1/2+x,-z
-x,1/2+y,1/2+z
1/2+x,-y,1/2+z
-y,-x,1/2+z
1/2+y,1/2+x,1/2+z
loop_
_atom_site_type_symbol
_atom_site_label
_atom_site_fract_x
_atom_site_fract_y
_atom_site_fract_z
Si Si1 0.629734 0.680694 0.056849
Si Si2 0.671181 0.016154 0.185659
Si Si3 0.490112 0.418060 0.062205
Si Si4 0.868309 0.316968 0.512777
Si Si5 0.490710 0.009291 0.250000
O O1 0.719102 0.635921 0.056213
O O2 0.577359 0.657998 0.145474
O O3 0.581205 0.646107 0.970775
O O4 0.750000 0.021496 0.250000
O O5 0.681680 0.084905 0.107903
O O6 0.588634 0.032685 0.243426
O O7 0.460217 0.442906 0.161226
O O8 0.500000 0.500000 0.000000
O O9 0.579084 0.369327 0.060684
O O10 0.859970 0.222371 0.476067
#
# Coordination Sequence:
#
# PCOD8313737 Si02
#       5
#    16  16  16  16   8
#     4  10  22  40  63  91 127 166 205 258 323 383
#     4  11  22  36  64  94 130 159 207 266 323 394
#     4  11  23  40  65  86 127 166 212 261 322 385
#     4  10  22  41  63  90 127 171 210 258 323 385
#     4  12  22  38  58  98 114 164 216 250 324 380
#
# _framework density 19.071611999999998
#
# number of rings (size 3 to 8) (size 9 to 14) (size 15 to 20)
#    0.000    1.333    4.444    2.667    6.222    0.000 
#    0.000   12.222    0.000    1.333    0.000    0.000 
#    0.000    0.000    0.000    0.000    0.000    0.000 
#
# Total GULP energy -892814.999048 kJ/mol
# GULP energy per Si atom -12400.208320 kJ/mol
# Density = 1.902820 g / cm^3
# Si number density = 19.071612 Si / 1000 Ang^3
#
#
#
# Elastic Constant Matrix: (Units=GPa)
#
#
# Indices 1 2 3 4 5 6 
#
# 1 83.5111 48.7851 33.2674 0.0000 0.0000 0.0000
# 2 48.7851 83.5105 33.2678 0.0000 0.0000 0.0000
# 3 33.2674 33.2678 122.8881 0.0000 0.0000 0.0000
# 4 0.0000 0.0000 0.0000 28.4577 0.0000 0.0000
# 5 0.0000 0.0000 0.0000 0.0000 28.4583 0.0000
# 6 0.0000 0.0000 0.0000 0.0000 0.0000 32.7475
#
#
#
# Elastic Compliance Matrix: (Units=1/GPa)
#
#
# Indices 1 2 3 4 5 6 
#
# 1 0.018774 -0.010024 -0.002369 0.000000 0.000000 0.000000
# 2 -0.010024 0.018774 -0.002369 0.000000 0.000000 0.000000
# 3 -0.002369 -0.002369 0.009420 0.000000 0.000000 0.000000
# 4 0.000000 0.000000 0.000000 0.035140 0.000000 0.000000
# 5 0.000000 0.000000 0.000000 0.000000 0.035139 0.000000
# 6 0.000000 0.000000 0.000000 0.000000 0.000000 0.030537
#
#
# Mechanical properties :
#
#
# Convention : Reuss Voigt Hill
#
# Bulk Modulus (GPa) = 57.32259 57.83895 57.58077
# Shear Modulus (GPa) = 27.30446 29.57198 28.43822
#
# Velocity S-wave (km/s) = 3.78786 3.94201 3.86570
# Velocity P-wave (km/s) = 7.01800 7.14929 7.08395
#
# Compressibility (1/GPa) = 0.01744513
#
# Stress axis : x y z
#
# Youngs Moduli (GPa) = 53.26648 53.26587 106.15695
#
# Poissons Ratio (x) = 0.53391 0.25146
# Poissons Ratio (y) = 0.53392 0.25147
# Poissons Ratio (z) = 0.12617 0.12618
#
# Static dielectric constant tensor:
#      x y z
#    x 3.677020 0.000000 0.000000 
#    y 0.000000 3.677040 0.000000 
#    z 0.000000 0.000000 3.479490 
# 
# 
# High freq. dielectric constant tensor:
#      x y z
#    x 1.751730 0.000000 0.000000 
#    y 0.000000 1.751730 0.000000 
#    z 0.000000 0.000000 1.732760 
# 
# From -- ./inp_files/4343.got.cif
#   From: 2010.03.12/outbox.cif.g09.slc.cpg/sg126_3_cif.got.tgz:4343.got - 2010.04.06 16:55:23.
