data_PCOD8313085
_publ_section_title
;
Structure prediction by ZEFSAII (Michael W. Deem and Ramdas Pophale) SiO2 
 PCOD8313085
Probable space group: P 4/M C C
;
_chemical_formula_sum "Si O2"
_cell_formula_units_Z 112
_cell_length_a 29.260840
_cell_length_b 29.260840
_cell_length_c 9.818477
_cell_angle_alpha 90.000000
_cell_angle_beta 90.000000
_cell_angle_gamma 90.000000
_cell_volume 8406.548171
_symmetry_space_group_name_H-M "P 4/M C C"
_symmetry_group_IT_number 124
_symmetry_cell_setting 'tetragonal'
loop_
_space_group_symop_operation_xyz
x,y,z
-y,x,z
-x,-y,z
y,-x,z
x,-y,1/2-z
-x,y,1/2-z
y,x,1/2-z
-y,-x,1/2-z
-x,-y,-z
y,-x,-z
x,y,-z
-y,x,-z
-x,y,1/2+z
x,-y,1/2+z
-y,-x,1/2+z
y,x,1/2+z
loop_
_atom_site_type_symbol
_atom_site_label
_atom_site_fract_x
_atom_site_fract_y
_atom_site_fract_z
Si Si1 0.198661 0.859754 0.344537
Si Si2 0.669421 0.068820 0.343726
Si Si3 0.570021 0.961061 0.153343
Si Si4 0.458283 0.141733 0.159007
Si Si5 0.726370 0.214993 0.656888
Si Si6 0.836136 0.360604 0.160584
Si Si7 0.766262 0.959694 0.159256
O O1 0.157602 0.842399 0.250000
O O2 0.183480 0.852501 0.500000
O O3 0.244841 0.831049 0.314903
O O4 0.206926 0.912749 0.312860
O O5 0.682401 0.078412 0.500000
O O6 0.624925 0.037133 0.330442
O O7 0.659043 0.117506 0.271263
O O8 0.714521 0.045634 0.281581
O O9 0.550942 0.911406 0.192561
O O10 0.548442 0.000000 0.250000
O O11 0.555960 0.973516 0.000000
O O12 0.500000 0.159808 0.250000
O O13 0.413497 0.171316 0.204429
O O14 0.469884 0.148637 0.000000
O O15 0.743534 0.256467 0.750000
O O16 0.730598 0.230063 0.500000
O O17 0.673208 0.205678 0.696816
O O18 0.845168 0.361740 0.000000
O O19 0.788925 0.000000 0.250000
O O20 0.768290 0.973116 0.000000
#
# Coordination Sequence:
#
# PCOD8313085 Si02
#       7
#    16  16  16  16  16  16  16
#     4   9  17  28  42  58  78 103 126 147 174 209
#     4   8  13  24  39  53  71  95 122 147 177 219
#     4   9  17  27  39  52  66  87 116 151 191 231
#     4   9  18  30  42  54  67  90 123 157 193 231
#     4   9  15  25  42  61  79 100 125 151 180 222
#     4   8  13  25  43  56  71  99 128 149 180 231
#     4  10  18  27  40  58  78 100 124 149 176 207
#
# _framework density 13.322946999999999
#
# number of rings (size 3 to 8) (size 9 to 14) (size 15 to 20)
#    0.000    3.143    1.429    2.143    0.000    1.429 
#    0.000    2.143    0.000    1.714    0.000    0.000 
#    0.000    0.286    0.000    3.143    0.000    2.286 
#
# Total GULP energy -1387833.096574 kJ/mol
# GULP energy per Si atom -12391.366934 kJ/mol
# Density = 1.329262 g / cm^3
# Si number density = 13.322947 Si / 1000 Ang^3
#
#
#
# Elastic Constant Matrix: (Units=GPa)
#
#
# Indices 1 2 3 4 5 6 
#
# 1 67.5418 34.6251 36.3919 0.0000 0.0000 0.0000
# 2 34.6251 67.5390 36.3913 0.0000 0.0000 0.0000
# 3 36.3919 36.3913 48.6175 0.0000 0.0000 0.0000
# 4 0.0000 0.0000 0.0000 18.0525 0.0000 0.0000
# 5 0.0000 0.0000 0.0000 0.0000 18.0526 0.0000
# 6 0.0000 0.0000 0.0000 0.0000 0.0000 10.4884
#
#
#
# Elastic Compliance Matrix: (Units=1/GPa)
#
#
# Indices 1 2 3 4 5 6 
#
# 1 0.025675 -0.004705 -0.015697 0.000000 0.000000 0.000000
# 2 -0.004705 0.025677 -0.015698 0.000000 0.000000 0.000000
# 3 -0.015697 -0.015698 0.044069 0.000000 0.000000 0.000000
# 4 0.000000 0.000000 0.000000 0.055394 0.000000 0.000000
# 5 0.000000 0.000000 0.000000 0.000000 0.055394 0.000000
# 6 0.000000 0.000000 0.000000 0.000000 0.000000 0.095344
#
#
# Mechanical properties :
#
#
# Convention : Reuss Voigt Hill
#
# Bulk Modulus (GPa) = 43.06441 44.27944 43.67192
# Shear Modulus (GPa) = 13.10645 14.40469 13.75557
#
# Velocity S-wave (km/s) = 3.13988 3.29172 3.21670
# Velocity P-wave (km/s) = 6.74824 6.91049 6.82985
#
# Compressibility (1/GPa) = 0.02322103
#
# Stress axis : x y z
#
# Youngs Moduli (GPa) = 38.94789 38.94601 22.69193
#
# Poissons Ratio (x) = 0.18324 0.35620
# Poissons Ratio (y) = 0.18325 0.35621
# Poissons Ratio (z) = 0.61137 0.61136
#
# Static dielectric constant tensor:
#      x y z
#    x 2.526400 0.000000 0.000000 
#    y 0.000000 2.526400 0.000000 
#    z 0.000000 0.000000 2.490900 
# 
# 
# High freq. dielectric constant tensor:
#      x y z
#    x 1.479480 0.000000 0.000000 
#    y 0.000000 1.479480 0.000000 
#    z 0.000000 0.000000 1.491290 
# 
# From -- ./inp_files/2517.got.cif
#   From: 2010.03.12/outbox.cif.g09.slc.cpg/sg124_2_cif.got.tgz:2517.got - 2010.04.06 16:38:57.
