data_PCOD8313992
_publ_section_title
;
Structure prediction by ZEFSAII (Michael W. Deem and Ramdas Pophale) SiO2 
 PCOD8313992
Probable space group: P 4/M B M
;
_chemical_formula_sum "Si O2"
_cell_formula_units_Z 80
_cell_length_a 17.546014
_cell_length_b 17.546014
_cell_length_c 13.610667
_cell_angle_alpha 90.000000
_cell_angle_beta 90.000000
_cell_angle_gamma 90.000000
_cell_volume 4190.215430
_symmetry_space_group_name_H-M "P 4/M B M"
_symmetry_group_IT_number 127
_symmetry_cell_setting 'tetragonal'
loop_
_space_group_symop_operation_xyz
x,y,z
-y,x,z
-x,-y,z
y,-x,z
1/2+x,1/2-y,-z
1/2-x,1/2+y,-z
1/2+y,1/2+x,-z
1/2-y,1/2-x,-z
-x,-y,-z
y,-x,-z
x,y,-z
-y,x,-z
1/2-x,1/2+y,z
1/2+x,1/2-y,z
1/2-y,1/2-x,z
1/2+y,1/2+x,z
loop_
_atom_site_type_symbol
_atom_site_label
_atom_site_fract_x
_atom_site_fract_y
_atom_site_fract_z
Si Si1 0.092394 0.079836 0.803992
Si Si2 0.804971 0.426801 0.388542
Si Si3 0.792534 0.586715 0.703809
Si Si4 0.143775 0.142439 0.610589
Si Si5 0.224189 0.845066 0.888348
O O1 0.099484 0.087354 0.686007
O O2 0.153614 0.134550 0.858652
O O3 0.007205 0.106305 0.835057
O O4 0.809942 0.457675 0.500000
O O5 0.880384 0.380384 0.360147
O O6 0.798324 0.497324 0.315189
O O7 0.733682 0.370444 0.377128
O O8 0.873422 0.626579 0.682369
O O9 0.730127 0.626124 0.634092
O O10 0.768861 0.596449 0.817742
O O11 0.116333 0.123368 0.500000
O O12 0.259824 0.759824 0.874588
O O13 0.234466 0.872819 0.000000
#
# Coordination Sequence:
#
# PCOD8313992 Si02
#       5
#    16  16  16  16  16
#     4  10  21  35  52  79 112 141 170 210 264 319
#     4  10  21  35  52  78 111 143 175 215 261 308
#     4  10  20  34  54  78 103 136 177 218 263 315
#     4  10  19  33  52  74 104 142 182 216 248 298
#     4   9  19  37  58  77 100 134 177 221 262 309
#
# _framework density 19.092098
#
# number of rings (size 3 to 8) (size 9 to 14) (size 15 to 20)
#    0.000    2.200    0.000    3.600    0.000    6.800 
#    0.000    3.000    0.000    0.600    0.000    2.800 
#    0.000    0.000    0.000    0.000    0.000    0.000 
#
# Total GULP energy -991797.116049 kJ/mol
# GULP energy per Si atom -12397.463951 kJ/mol
# Density = 1.904864 g / cm^3
# Si number density = 19.092098 Si / 1000 Ang^3
#
#
#
# Elastic Constant Matrix: (Units=GPa)
#
#
# Indices 1 2 3 4 5 6 
#
# 1 81.0715 46.7975 36.2556 0.0000 0.0000 0.0000
# 2 46.7975 81.0715 36.2556 0.0000 0.0000 0.0000
# 3 36.2556 36.2556 94.8359 0.0000 0.0000 0.0000
# 4 0.0000 0.0000 0.0000 19.7618 0.0000 0.0000
# 5 0.0000 0.0000 0.0000 0.0000 19.7618 0.0000
# 6 0.0000 0.0000 0.0000 0.0000 0.0000 31.2542
#
#
#
# Elastic Compliance Matrix: (Units=1/GPa)
#
#
# Indices 1 2 3 4 5 6 
#
# 1 0.019581 -0.009596 -0.003817 0.000000 0.000000 0.000000
# 2 -0.009596 0.019581 -0.003817 0.000000 0.000000 0.000000
# 3 -0.003817 -0.003817 0.013463 0.000000 0.000000 0.000000
# 4 0.000000 0.000000 0.000000 0.050603 0.000000 0.000000
# 5 0.000000 0.000000 0.000000 0.000000 0.050603 0.000000
# 6 0.000000 0.000000 0.000000 0.000000 0.000000 0.031996
#
#
# Mechanical properties :
#
#
# Convention : Reuss Voigt Hill
#
# Bulk Modulus (GPa) = 55.05291 55.06628 55.05960
# Shear Modulus (GPa) = 22.09049 23.33356 22.71202
#
# Velocity S-wave (km/s) = 3.40523 3.49973 3.45280
# Velocity P-wave (km/s) = 6.66024 6.72576 6.69308
#
# Compressibility (1/GPa) = 0.01816434
#
# Stress axis : x y z
#
# Youngs Moduli (GPa) = 51.07014 51.07014 74.27622
#
# Poissons Ratio (x) = 0.49005 0.28354
# Poissons Ratio (y) = 0.49005 0.28354
# Poissons Ratio (z) = 0.19495 0.19495
#
# Static dielectric constant tensor:
#      x y z
#    x 3.441190 0.000000 0.000000 
#    y 0.000000 3.441190 0.000000 
#    z 0.000000 0.000000 3.565500 
# 
# 
# High freq. dielectric constant tensor:
#      x y z
#    x 1.732870 0.000000 0.000000 
#    y 0.000000 1.732870 0.000000 
#    z 0.000000 0.000000 1.737400 
# 
# From -- ./inp_files/4229.got.cif
#   From: 2010.03.12/outbox.cif.g09.slc.cpg/sg127_3_cif.got.tgz:4229.got - 2010.04.06 17:03:15.
