data_PCOD8313421
_publ_section_title
;
Structure prediction by ZEFSAII (Michael W. Deem and Ramdas Pophale) SiO2 
 PCOD8313421
Probable space group: P 4/N B M
;
_chemical_formula_sum "Si O2"
_cell_formula_units_Z 96
_cell_length_a 14.773769
_cell_length_b 14.773769
_cell_length_c 23.901712
_cell_angle_alpha 90.000000
_cell_angle_beta 90.000000
_cell_angle_gamma 90.000000
_cell_volume 5216.889255
_symmetry_space_group_name_H-M "P 4/N B M"
_symmetry_group_IT_number 125
_space_group.IT_coordinate_system_code '2'
_symmetry_cell_setting 'tetragonal'
loop_
_space_group_symop_operation_xyz
x,y,z
1/2-y,x,z
1/2-x,1/2-y,z
y,1/2-x,z
x,1/2-y,-z
1/2-x,y,-z
y,x,-z
1/2-y,1/2-x,-z
-x,-y,-z
1/2+y,-x,-z
1/2+x,1/2+y,-z
-y,1/2+x,-z
-x,1/2+y,z
1/2+x,-y,z
-y,-x,z
1/2+y,1/2+x,z
loop_
_atom_site_type_symbol
_atom_site_label
_atom_site_fract_x
_atom_site_fract_y
_atom_site_fract_z
Si Si1 0.674481 0.325520 0.644614
Si Si2 0.780911 0.896651 0.262194
Si Si3 0.428440 0.076155 0.565581
Si Si4 0.897201 0.254510 0.061173
Si Si5 0.454691 0.696442 0.825875
Si Si6 0.985856 0.748025 0.621394
Si Si7 0.175154 0.824847 0.232697
O O1 0.750000 0.250000 0.646167
O O2 0.713681 0.412356 0.613852
O O3 0.642745 0.357256 0.706469
O O4 0.680947 0.855832 0.262675
O O5 0.783381 0.961432 0.316318
O O6 0.810136 0.950628 0.206227
O O7 0.414172 0.085829 0.500000
O O8 0.481625 0.166023 0.581650
O O9 0.333316 0.077668 0.599263
O O10 0.487192 0.987192 0.581140
O O11 0.813871 0.186130 0.061863
O O12 0.854839 0.354839 0.072708
O O13 0.968614 0.221869 0.108507
O O14 0.945054 0.250000 0.000000
O O15 0.395007 0.604994 0.817880
O O16 0.407755 0.784867 0.800976
O O17 0.250000 0.750000 0.241388
#
# Coordination Sequence:
#
# PCOD8313421 Si02
#       7
#     8  16  16  16  16  16   8
#     4  11  22  36  59  93 123 153 188 235 299 355
#     4  11  24  41  57  79 115 151 189 237 289 346
#     4  11  25  43  64  90 124 156 197 243 291 351
#     4   8  13  23  45  79 117 153 185 227 286 341
#     4  10  18  32  53  83 115 149 188 229 284 340
#     4  12  22  41  65  89 116 157 197 240 293 351
#     4   9  16  26  48  79 115 143 168 220 280 334
#
# _framework density 18.401771
#
# number of rings (size 3 to 8) (size 9 to 14) (size 15 to 20)
#    0.000    1.667    5.000    1.500    0.000    1.000 
#    3.000    0.833    0.000    1.000    0.000    4.667 
#    0.000    0.000    0.000    0.000    0.000    0.000 
#
# Total GULP energy -1189897.278918 kJ/mol
# GULP energy per Si atom -12394.763322 kJ/mol
# Density = 1.835989 g / cm^3
# Si number density = 18.401771 Si / 1000 Ang^3
#
#
#
# Elastic Constant Matrix: (Units=GPa)
#
#
# Indices 1 2 3 4 5 6 
#
# 1 69.1340 23.4648 44.9936 0.0000 0.0000 0.0000
# 2 23.4648 69.1340 44.9934 0.0000 0.0000 0.0000
# 3 44.9936 44.9934 127.9385 0.0000 0.0000 0.0000
# 4 0.0000 0.0000 0.0000 24.4241 0.0000 0.0000
# 5 0.0000 0.0000 0.0000 0.0000 24.4240 0.0000
# 6 0.0000 0.0000 0.0000 0.0000 0.0000 21.7595
#
#
#
# Elastic Compliance Matrix: (Units=1/GPa)
#
#
# Indices 1 2 3 4 5 6 
#
# 1 0.019152 -0.002745 -0.005770 0.000000 0.000000 0.000000
# 2 -0.002745 0.019151 -0.005770 0.000000 0.000000 0.000000
# 3 -0.005770 -0.005770 0.011875 0.000000 0.000000 0.000000
# 4 0.000000 0.000000 0.000000 0.040943 0.000000 0.000000
# 5 0.000000 0.000000 0.000000 0.000000 0.040943 0.000000
# 6 0.000000 0.000000 0.000000 0.000000 0.000000 0.045957
#
#
# Mechanical properties :
#
#
# Convention : Reuss Voigt Hill
#
# Bulk Modulus (GPa) = 46.27917 54.79002 50.53460
# Shear Modulus (GPa) = 23.38712 24.30517 23.84614
#
# Velocity S-wave (km/s) = 3.56886 3.63823 3.60371
# Velocity P-wave (km/s) = 6.49509 6.89115 6.69605
#
# Compressibility (1/GPa) = 0.02160800
#
# Stress axis : x y z
#
# Youngs Moduli (GPa) = 52.21522 52.21537 84.21404
#
# Poissons Ratio (x) = 0.14334 0.48590
# Poissons Ratio (y) = 0.14334 0.48590
# Poissons Ratio (z) = 0.30127 0.30127
#
# Static dielectric constant tensor:
#      x y z
#    x 3.105390 0.000000 0.000000 
#    y 0.000000 3.105390 0.000000 
#    z 0.000000 0.000000 3.738150 
# 
# 
# High freq. dielectric constant tensor:
#      x y z
#    x 1.694630 0.000000 0.000000 
#    y 0.000000 1.694630 0.000000 
#    z 0.000000 0.000000 1.722120 
# 
# From -- ./inp_files/5967.got.cif
#   From: 2010.03.12/outbox.cif.g09.slc.cpg/sg125_3_cif.got.tgz:5967.got - 2010.04.06 16:47:52.
