data_PCOD8313951
_publ_section_title
;
Structure prediction by ZEFSAII (Michael W. Deem and Ramdas Pophale) SiO2 
 PCOD8313951
Probable space group: P 4/M B M
;
_chemical_formula_sum "Si O2"
_cell_formula_units_Z 80
_cell_length_a 16.391458
_cell_length_b 16.391458
_cell_length_c 15.731063
_cell_angle_alpha 90.000000
_cell_angle_beta 90.000000
_cell_angle_gamma 90.000000
_cell_volume 4226.620361
_symmetry_space_group_name_H-M "P 4/M B M"
_symmetry_group_IT_number 127
_symmetry_cell_setting 'tetragonal'
loop_
_space_group_symop_operation_xyz
x,y,z
-y,x,z
-x,-y,z
y,-x,z
1/2+x,1/2-y,-z
1/2-x,1/2+y,-z
1/2+y,1/2+x,-z
1/2-y,1/2-x,-z
-x,-y,-z
y,-x,-z
x,y,-z
-y,x,-z
1/2-x,1/2+y,z
1/2+x,1/2-y,z
1/2-y,1/2-x,z
1/2+y,1/2+x,z
loop_
_atom_site_type_symbol
_atom_site_label
_atom_site_fract_x
_atom_site_fract_y
_atom_site_fract_z
Si Si1 0.870354 0.494750 0.855023
Si Si2 0.693213 0.937157 0.316321
Si Si3 0.679766 0.316245 0.258851
Si Si4 0.594278 0.227844 0.595375
Si Si5 0.615836 0.253103 0.907037
O O1 0.905724 0.405724 0.886826
O O2 0.852551 0.489635 0.755067
O O3 0.788396 0.525382 0.901937
O O4 0.940272 0.559729 0.870802
O O5 0.637155 0.862846 0.350258
O O6 0.777693 0.902877 0.276421
O O7 0.710035 0.998125 0.393980
O O8 0.748335 0.248335 0.251434
O O9 0.619963 0.296977 0.337317
O O10 0.629584 0.318062 0.169322
O O11 0.608918 0.261133 0.500000
O O12 0.645271 0.145271 0.610748
O O13 0.681963 0.181963 0.897461
O O14 0.622991 0.295807 0.000000
#
# Coordination Sequence:
#
# PCOD8313951 Si02
#       5
#    16  16  16  16  16
#     4   9  16  27  46  74 106 133 160 203 259 314
#     4  10  19  31  51  76 103 135 169 207 253 304
#     4   9  18  33  50  71 102 136 172 211 250 298
#     4  10  20  34  53  76 103 135 169 209 260 313
#     4   9  16  28  48  71  99 138 174 202 242 300
#
# _framework density 18.927651999999998
#
# number of rings (size 3 to 8) (size 9 to 14) (size 15 to 20)
#    0.000    2.600    2.000    0.600    0.000    2.800 
#    0.000    6.000    0.000    4.200    0.000    1.400 
#    0.000    1.600    0.000    0.000    0.000    0.000 
#
# Total GULP energy -991247.775375 kJ/mol
# GULP energy per Si atom -12390.597192 kJ/mol
# Density = 1.888457 g / cm^3
# Si number density = 18.927652 Si / 1000 Ang^3
#
#
#
# Elastic Constant Matrix: (Units=GPa)
#
#
# Indices 1 2 3 4 5 6 
#
# 1 37.4113 20.0601 25.9454 0.0000 0.0000 0.0000
# 2 20.0601 37.4113 25.9454 0.0000 0.0000 0.0000
# 3 25.9454 25.9454 128.1417 0.0000 0.0000 0.0000
# 4 0.0000 0.0000 0.0000 13.9401 0.0000 0.0000
# 5 0.0000 0.0000 0.0000 0.0000 13.9401 0.0000
# 6 0.0000 0.0000 0.0000 0.0000 0.0000 16.1472
#
#
#
# Elastic Compliance Matrix: (Units=1/GPa)
#
#
# Indices 1 2 3 4 5 6 
#
# 1 0.039463 -0.018170 -0.004311 0.000000 0.000000 0.000000
# 2 -0.018170 0.039463 -0.004311 0.000000 0.000000 0.000000
# 3 -0.004311 -0.004311 0.009550 0.000000 0.000000 0.000000
# 4 0.000000 0.000000 0.000000 0.071735 0.000000 0.000000
# 5 0.000000 0.000000 0.000000 0.000000 0.071735 0.000000
# 6 0.000000 0.000000 0.000000 0.000000 0.000000 0.061930
#
#
# Mechanical properties :
#
#
# Convention : Reuss Voigt Hill
#
# Bulk Modulus (GPa) = 28.66154 38.54070 33.60112
# Shear Modulus (GPa) = 13.92405 17.53971 15.73188
#
# Velocity S-wave (km/s) = 2.71522 3.04743 2.88611
# Velocity P-wave (km/s) = 5.00055 5.72615 5.37560
#
# Compressibility (1/GPa) = 0.03488995
#
# Stress axis : x y z
#
# Youngs Moduli (GPa) = 25.34043 25.34043 104.71556
#
# Poissons Ratio (x) = 0.46044 0.45145
# Poissons Ratio (y) = 0.46044 0.45145
# Poissons Ratio (z) = 0.10925 0.10925
#
# Static dielectric constant tensor:
#      x y z
#    x 3.355830 0.000000 0.000000 
#    y 0.000000 3.355830 0.000000 
#    z 0.000000 0.000000 3.489450 
# 
# 
# High freq. dielectric constant tensor:
#      x y z
#    x 1.701060 0.000000 0.000000 
#    y 0.000000 1.701060 0.000000 
#    z 0.000000 0.000000 1.734110 
# 
# From -- ./inp_files/4252.got.cif
#   From: 2010.03.12/outbox.cif.g09.slc.cpg/sg127_3_cif.got.tgz:4252.got - 2010.04.06 17:03:15.
