data_PCOD8313977
_publ_section_title
;
Structure prediction by ZEFSAII (Michael W. Deem and Ramdas Pophale) SiO2 
 PCOD8313977
Probable space group: P 4/M B M
;
_chemical_formula_sum "Si O2"
_cell_formula_units_Z 112
_cell_length_a 14.386666
_cell_length_b 14.386666
_cell_length_c 28.249347
_cell_angle_alpha 90.000000
_cell_angle_beta 90.000000
_cell_angle_gamma 90.000000
_cell_volume 5846.941325
_symmetry_space_group_name_H-M "P 4/M B M"
_symmetry_group_IT_number 127
_symmetry_cell_setting 'tetragonal'
loop_
_space_group_symop_operation_xyz
x,y,z
-y,x,z
-x,-y,z
y,-x,z
1/2+x,1/2-y,-z
1/2-x,1/2+y,-z
1/2+y,1/2+x,-z
1/2-y,1/2-x,-z
-x,-y,-z
y,-x,-z
x,y,-z
-y,x,-z
1/2-x,1/2+y,z
1/2+x,1/2-y,z
1/2-y,1/2-x,z
1/2+y,1/2+x,z
loop_
_atom_site_type_symbol
_atom_site_label
_atom_site_fract_x
_atom_site_fract_y
_atom_site_fract_z
Si Si1 0.852291 0.505813 0.113940
Si Si2 0.769245 0.886605 0.946517
Si Si3 0.149827 0.499697 0.444098
Si Si4 0.228147 0.578031 0.204613
Si Si5 0.503639 0.652559 0.606824
Si Si6 0.009922 0.849527 0.716216
Si Si7 0.097698 0.883726 0.140244
O O1 0.888319 0.611682 0.107176
O O2 0.778752 0.480880 0.072954
O O3 0.810636 0.495175 0.166331
O O4 0.937413 0.437413 0.107744
O O5 0.700020 0.799981 0.943060
O O6 0.857556 0.868338 0.912711
O O7 0.803338 0.903236 0.000000
O O8 0.162647 0.499026 0.500000
O O9 0.093241 0.406760 0.428325
O O10 0.252070 0.503213 0.421941
O O11 0.090641 0.590641 0.428668
O O12 0.150010 0.650010 0.221299
O O13 0.259408 0.520528 0.250824
O O14 0.311848 0.637167 0.179355
O O15 0.410625 0.593738 0.594638
O O16 0.508130 0.680531 0.661718
O O17 0.915345 0.902877 0.728088
O O18 0.987351 0.870931 0.148767
#
# Coordination Sequence:
#
# PCOD8313977 Si02
#       7
#    16  16  16  16  16  16  16
#     4   8  15  29  47  66  91 123 155 186 225 280
#     4   9  18  33  51  70  94 120 146 186 238 284
#     4   9  19  36  56  79 111 152 194 234 280 336
#     4  10  19  32  51  74  99 125 158 203 247 287
#     4   9  19  35  55  81 112 146 186 235 286 333
#     4   9  18  35  55  73 100 137 173 208 251 305
#     4  10  20  34  52  70  90 122 160 193 232 287
#
# _framework density 19.155313
#
# number of rings (size 3 to 8) (size 9 to 14) (size 15 to 20)
#    0.000    2.857    0.000    3.429    0.000    3.714 
#    0.000   16.429    0.000    1.714    0.000    0.000 
#    0.000    0.000    0.000    0.000    0.000    0.000 
#
# Total GULP energy -1387935.352171 kJ/mol
# GULP energy per Si atom -12392.279930 kJ/mol
# Density = 1.911171 g / cm^3
# Si number density = 19.155313 Si / 1000 Ang^3
#
#
#
# Elastic Constant Matrix: (Units=GPa)
#
#
# Indices 1 2 3 4 5 6 
#
# 1 63.7357 17.4985 21.4097 0.0000 0.0000 0.0000
# 2 17.4985 63.7357 21.4097 0.0000 0.0000 0.0000
# 3 21.4097 21.4097 63.7504 0.0000 0.0000 0.0000
# 4 0.0000 0.0000 0.0000 26.5692 0.0000 0.0000
# 5 0.0000 0.0000 0.0000 0.0000 26.5692 0.0000
# 6 0.0000 0.0000 0.0000 0.0000 0.0000 -7.0995
#
#
#
# Elastic Compliance Matrix: (Units=1/GPa)
#
#
# Indices 1 2 3 4 5 6 
#
# 1 0.018293 -0.003335 -0.005023 0.000000 0.000000 0.000000
# 2 -0.003335 0.018293 -0.005023 0.000000 0.000000 0.000000
# 3 -0.005023 -0.005023 0.019060 0.000000 0.000000 0.000000
# 4 0.000000 0.000000 0.000000 0.037638 0.000000 0.000000
# 5 0.000000 0.000000 0.000000 0.000000 0.037638 0.000000
# 6 0.000000 0.000000 0.000000 0.000000 0.000000 -0.140854
#
#
# Mechanical properties :
#
#
# Convention : Reuss Voigt Hill
#
# Bulk Modulus (GPa) = 34.62301 34.65084 34.63693
# Shear Modulus (GPa) = 188.98321 17.93470 103.45895
#
# Velocity S-wave (km/s) = 9.94347 3.06319 7.35716
# Velocity P-wave (km/s) = 12.24517 5.53530 9.50220
#
# Compressibility (1/GPa) = 0.02888252
#
# Stress axis : x y z
#
# Youngs Moduli (GPa) = 54.66634 54.66634 52.46518
#
# Poissons Ratio (x) = 0.18230 0.26355
# Poissons Ratio (y) = 0.18230 0.26355
# Poissons Ratio (z) = 0.27461 0.27461
#
# Static dielectric constant tensor:
#      x y z
#    x 3.544860 0.000000 0.000000 
#    y 0.000000 3.544860 0.000000 
#    z 0.000000 0.000000 3.421100 
# 
# 
# High freq. dielectric constant tensor:
#      x y z
#    x 1.737720 0.000000 0.000000 
#    y 0.000000 1.737720 0.000000 
#    z 0.000000 0.000000 1.736650 
# 
# From -- ./inp_files/6662.got.cif
#   From: 2010.03.12/outbox.cif.g09.slc.cpg/sg127_4_cif.got.tgz:6662.got - 2010.04.06 17:03:15.
