data_PCOD8313968
_publ_section_title
;
Structure prediction by ZEFSAII (Michael W. Deem and Ramdas Pophale) SiO2 
 PCOD8313968
Probable space group: P 4/M B M
;
_chemical_formula_sum "Si O2"
_cell_formula_units_Z 72
_cell_length_a 22.708592
_cell_length_b 22.708592
_cell_length_c 8.740788
_cell_angle_alpha 90.000000
_cell_angle_beta 90.000000
_cell_angle_gamma 90.000000
_cell_volume 4507.450872
_symmetry_space_group_name_H-M "P 4/M B M"
_symmetry_group_IT_number 127
_symmetry_cell_setting 'tetragonal'
loop_
_space_group_symop_operation_xyz
x,y,z
-y,x,z
-x,-y,z
y,-x,z
1/2+x,1/2-y,-z
1/2-x,1/2+y,-z
1/2+y,1/2+x,-z
1/2-y,1/2-x,-z
-x,-y,-z
y,-x,-z
x,y,-z
-y,x,-z
1/2-x,1/2+y,z
1/2+x,1/2-y,z
1/2-y,1/2-x,z
1/2+y,1/2+x,z
loop_
_atom_site_type_symbol
_atom_site_label
_atom_site_fract_x
_atom_site_fract_y
_atom_site_fract_z
Si Si1 0.049264 0.450737 0.326735
Si Si2 0.516767 0.170981 0.820102
Si Si3 0.188870 0.787688 0.828135
Si Si4 0.128560 0.274932 0.320348
Si Si5 0.202493 0.604662 0.322808
O O1 0.066907 0.433094 0.500000
O O2 0.023639 0.394525 0.242363
O O3 0.000000 0.500000 0.326639
O O4 0.563896 0.214620 0.745117
O O5 0.452436 0.194302 0.780246
O O6 0.526314 0.170505 0.000000
O O7 0.239605 0.739605 0.829094
O O8 0.214853 0.846800 0.753318
O O9 0.134807 0.763784 0.726988
O O10 0.167014 0.801116 0.000000
O O11 0.125815 0.265419 0.500000
O O12 0.169017 0.330984 0.276996
O O13 0.205961 0.586855 0.500000
O O14 0.148111 0.648111 0.291460
#
# Coordination Sequence:
#
# PCOD8313968 Si02
#       5
#     8  16  16  16  16
#     4  11  23  37  49  63  89 129 171 207 243 286
#     4  12  23  33  48  69  95 125 163 206 246 284
#     4   9  17  30  49  71  94 118 152 197 244 289
#     4  10  19  32  50  69  93 124 159 197 242 292
#     4  10  20  34  50  68  93 127 164 199 241 291
#
# _framework density 15.973552
#
# number of rings (size 3 to 8) (size 9 to 14) (size 15 to 20)
#    0.000    1.667    1.111    5.000    0.000    8.444 
#    0.000    0.000    0.000    0.000    0.000    0.000 
#    0.000    0.889    0.000    8.889    0.000    5.333 
#
# Total GULP energy -893063.686416 kJ/mol
# GULP energy per Si atom -12403.662311 kJ/mol
# Density = 1.593720 g / cm^3
# Si number density = 15.973552 Si / 1000 Ang^3
#
#
#
# Elastic Constant Matrix: (Units=GPa)
#
#
# Indices 1 2 3 4 5 6 
#
# 1 50.7878 46.5774 17.1572 0.0000 0.0000 0.0000
# 2 46.5774 50.7881 17.1569 0.0000 0.0000 0.0000
# 3 17.1572 17.1569 68.8292 0.0000 0.0000 0.0000
# 4 0.0000 0.0000 0.0000 21.8458 0.0000 0.0000
# 5 0.0000 0.0000 0.0000 0.0000 21.8465 0.0000
# 6 0.0000 0.0000 0.0000 0.0000 0.0000 23.6964
#
#
#
# Elastic Compliance Matrix: (Units=1/GPa)
#
#
# Indices 1 2 3 4 5 6 
#
# 1 0.124379 -0.113119 -0.002807 0.000000 0.000000 0.000000
# 2 -0.113119 0.124378 -0.002806 0.000000 0.000000 0.000000
# 3 -0.002807 -0.002806 0.015928 0.000000 0.000000 0.000000
# 4 0.000000 0.000000 0.000000 0.045775 0.000000 0.000000
# 5 0.000000 0.000000 0.000000 0.000000 0.045774 0.000000
# 6 0.000000 0.000000 0.000000 0.000000 0.000000 0.042201
#
#
# Mechanical properties :
#
#
# Convention : Reuss Voigt Hill
#
# Bulk Modulus (GPa) = 36.73685 36.90977 36.82331
# Shear Modulus (GPa) = 7.75227 19.44531 13.59879
#
# Velocity S-wave (km/s) = 2.20539 3.49283 2.92092
# Velocity P-wave (km/s) = 5.43447 6.27881 5.87184
#
# Compressibility (1/GPa) = 0.02722063
#
# Stress axis : x y z
#
# Youngs Moduli (GPa) = 8.03994 8.04002 62.78264
#
# Poissons Ratio (x) = 0.90948 0.17626
# Poissons Ratio (y) = 0.90947 0.17617
# Poissons Ratio (z) = 0.02257 0.02256
#
# Static dielectric constant tensor:
#      x y z
#    x 2.929350 0.000000 0.000000 
#    y 0.000000 2.929360 0.000000 
#    z 0.000000 0.000000 3.248790 
# 
# 
# High freq. dielectric constant tensor:
#      x y z
#    x 1.592330 0.000000 0.000000 
#    y 0.000000 1.592330 0.000000 
#    z 0.000000 0.000000 1.637160 
# 
# From -- ./inp_files/1530.got.cif
#   From: 2010.03.12/outbox.cif.g09.slc.cpg/sg127_1_cif.got.tgz:1530.got - 2010.04.06 17:03:15.
