data_PCOD8313226
_publ_section_title
;
Structure prediction by ZEFSAII (Michael W. Deem and Ramdas Pophale) SiO2 
 PCOD8313226
Probable space group: P 4/M C C
;
_chemical_formula_sum "Si O2"
_cell_formula_units_Z 52
_cell_length_a 18.783075
_cell_length_b 18.783075
_cell_length_c 8.686357
_cell_angle_alpha 90.000000
_cell_angle_beta 90.000000
_cell_angle_gamma 90.000000
_cell_volume 3064.580682
_symmetry_space_group_name_H-M "P 4/M C C"
_symmetry_group_IT_number 124
_symmetry_cell_setting 'tetragonal'
loop_
_space_group_symop_operation_xyz
x,y,z
-y,x,z
-x,-y,z
y,-x,z
x,-y,1/2-z
-x,y,1/2-z
y,x,1/2-z
-y,-x,1/2-z
-x,-y,-z
y,-x,-z
x,y,-z
-y,x,-z
-x,y,1/2+z
x,-y,1/2+z
-y,-x,1/2+z
y,x,1/2+z
loop_
_atom_site_type_symbol
_atom_site_label
_atom_site_fract_x
_atom_site_fract_y
_atom_site_fract_z
Si Si1 0.639469 0.931199 0.671429
Si Si2 0.575276 0.677073 0.318322
Si Si3 0.786760 0.314766 0.817540
Si Si4 0.500000 0.000000 0.250000
O O1 0.668911 0.918208 0.500000
O O2 0.663736 0.867036 0.779725
O O3 0.553418 0.946242 0.658232
O O4 0.676272 0.000000 0.750000
O O5 0.500000 0.697579 0.250000
O O6 0.601680 0.601680 0.250000
O O7 0.571116 0.671844 0.500000
O O8 0.628126 0.738719 0.268570
O O9 0.762884 0.237117 0.750000
O O10 0.774689 0.316956 0.000000
#
# Coordination Sequence:
#
# PCOD8313226 Si02
#       4
#    16  16  16   4
#     4  10  20  34  52  77 108 140 178 217 261 316
#     4  11  22  37  53  71  93 122 163 210 261 312
#     4  11  22  37  55  76 104 139 177 218 264 316
#     4   8  22  32  54  76 114 140 178 212 274 312
#
# _framework density 16.968063999999998
#
# number of rings (size 3 to 8) (size 9 to 14) (size 15 to 20)
#    0.923    0.615    0.000    8.769    2.154    0.308 
#    0.000    1.538    0.000    0.000    0.000    0.000 
#    0.000    0.615    0.000    6.154    0.000    3.692 
#
# Total GULP energy -644230.128418 kJ/mol
# GULP energy per Si atom -12389.040931 kJ/mol
# Density = 1.692944 g / cm^3
# Si number density = 16.968064 Si / 1000 Ang^3
#
#
#
# Elastic Constant Matrix: (Units=GPa)
#
#
# Indices 1 2 3 4 5 6 
#
# 1 74.9749 39.0141 27.4573 0.0000 0.0000 0.0000
# 2 39.0141 74.9755 27.4517 0.0000 0.0000 0.0000
# 3 27.4573 27.4517 155.7816 0.0000 0.0000 0.0000
# 4 0.0000 0.0000 0.0000 52.2696 0.0000 0.0000
# 5 0.0000 0.0000 0.0000 0.0000 52.2478 0.0000
# 6 0.0000 0.0000 0.0000 0.0000 0.0000 24.8025
#
#
#
# Elastic Compliance Matrix: (Units=1/GPa)
#
#
# Indices 1 2 3 4 5 6 
#
# 1 0.018698 -0.009111 -0.001690 0.000000 0.000000 0.000000
# 2 -0.009111 0.018697 -0.001689 0.000000 0.000000 0.000000
# 3 -0.001690 -0.001689 0.007015 0.000000 0.000000 0.000000
# 4 0.000000 0.000000 0.000000 0.019132 0.000000 0.000000
# 5 0.000000 0.000000 0.000000 0.000000 0.019140 0.000000
# 6 0.000000 0.000000 0.000000 0.000000 0.000000 0.040319
#
#
# Mechanical properties :
#
#
# Convention : Reuss Voigt Hill
#
# Bulk Modulus (GPa) = 51.46709 54.84202 53.15456
# Shear Modulus (GPa) = 32.37195 39.98457 36.17826
#
# Velocity S-wave (km/s) = 4.37259 4.85960 4.62252
# Velocity P-wave (km/s) = 7.47599 7.99241 7.73851
#
# Compressibility (1/GPa) = 0.01942989
#
# Stress axis : x y z
#
# Youngs Moduli (GPa) = 53.48298 53.48493 142.55663
#
# Poissons Ratio (x) = 0.48728 0.24093
# Poissons Ratio (y) = 0.48726 0.24077
# Poissons Ratio (z) = 0.09039 0.09033
#
# Static dielectric constant tensor:
#      x y z
#    x 3.016060 0.000000 0.000000 
#    y 0.000000 3.016090 0.000000 
#    z 0.000000 0.000000 3.236600 
# 
# 
# High freq. dielectric constant tensor:
#      x y z
#    x 1.633350 0.000000 0.000000 
#    y 0.000000 1.633350 0.000000 
#    z 0.000000 0.000000 1.677060 
# 
# From -- ./inp_files/567.got.cif
#   From: 2010.03.12/outbox.cif.g09.slc.cpg/sg124_1_cif.got.tgz:567.got - 2010.04.06 16:38:57.
