data_PCOD8313661
_publ_section_title
;
Structure prediction by ZEFSAII (Michael W. Deem and Ramdas Pophale) SiO2 
 PCOD8313661
Probable space group: P 4/N N C
;
_chemical_formula_sum "Si O2"
_cell_formula_units_Z 128
_cell_length_a 19.317742
_cell_length_b 19.317742
_cell_length_c 19.229554
_cell_angle_alpha 90.000000
_cell_angle_beta 90.000000
_cell_angle_gamma 90.000000
_cell_volume 7175.991813
_symmetry_space_group_name_H-M "P 4/N N C"
_symmetry_group_IT_number 126
_space_group.IT_coordinate_system_code '2'
_symmetry_cell_setting 'tetragonal'
loop_
_space_group_symop_operation_xyz
x,y,z
1/2-y,x,z
1/2-x,1/2-y,z
y,1/2-x,z
x,1/2-y,1/2-z
1/2-x,y,1/2-z
y,x,1/2-z
1/2-y,1/2-x,1/2-z
-x,-y,-z
1/2+y,-x,-z
1/2+x,1/2+y,-z
-y,1/2+x,-z
-x,1/2+y,1/2+z
1/2+x,-y,1/2+z
-y,-x,1/2+z
1/2+y,1/2+x,1/2+z
loop_
_atom_site_type_symbol
_atom_site_label
_atom_site_fract_x
_atom_site_fract_y
_atom_site_fract_z
Si Si1 0.827824 0.942254 0.469178
Si Si2 0.123677 0.487333 0.385709
Si Si3 0.861048 0.403650 0.073040
Si Si4 0.175589 0.060412 0.250000
Si Si5 0.942254 0.672175 0.030822
Si Si6 0.138952 0.596350 0.573040
Si Si7 0.623678 0.987333 0.885709
Si Si8 0.250000 0.667762 0.831592
O O1 0.885045 0.885045 0.444449
O O2 0.750000 0.914984 0.452358
O O3 0.833113 0.954157 0.551481
O O4 0.837320 0.016654 0.432483
O O5 0.093634 0.561488 0.401441
O O6 0.170751 0.488976 0.317218
O O7 0.166887 0.454157 0.448519
O O8 0.056527 0.443473 0.368689
O O9 0.816572 0.363346 0.129963
O O10 0.860846 0.360845 0.000000
O O11 0.250000 0.096755 0.250000
O O12 0.121498 0.121498 0.250000
O O13 0.170751 0.011023 0.317217
O O14 0.016654 0.662679 0.067518
O O15 0.183428 0.636653 0.629963
O O16 0.061488 0.593634 0.598559
O O17 0.250000 0.750000 0.839799
O O18 0.250000 0.646610 0.750000
#
# Coordination Sequence:
#
# PCOD8313661 Si02
#       8
#    16  16  16  16  16  16  16  16
#     4  10  19  34  56  83 111 144 187 235 285 337
#     4   9  19  34  53  77 105 141 187 232 277 330
#     4  10  21  37  60  80 110 148 190 231 277 338
#     4  10  20  33  50  75 109 147 184 226 276 332
#     4  10  19  34  56  83 111 144 187 235 285 337
#     4  10  21  37  60  80 110 148 190 231 277 338
#     4   9  19  34  53  77 105 141 187 232 277 330
#     4  11  26  40  54  84 119 149 183 229 285 340
#
# _framework density 17.837254999999999
#
# number of rings (size 3 to 8) (size 9 to 14) (size 15 to 20)
#    0.000    2.125    1.250    1.500    3.500    5.375 
#    0.000    0.000    0.000    4.500    0.000    0.000 
#    0.000    1.000    0.000    0.000    0.000    0.000 
#
# Total GULP energy -1586417.114784 kJ/mol
# GULP energy per Si atom -12393.883709 kJ/mol
# Density = 1.779666 g / cm^3
# Si number density = 17.837255 Si / 1000 Ang^3
#
#
#
# Elastic Constant Matrix: (Units=GPa)
#
#
# Indices 1 2 3 4 5 6 
#
# 1 96.4856 41.0189 41.6482 0.0000 0.0000 0.0000
# 2 41.0189 96.4856 41.6482 0.0000 0.0000 0.0000
# 3 41.6482 41.6482 105.3484 0.0000 0.0000 0.0000
# 4 0.0000 0.0000 0.0000 21.5424 0.0000 0.0000
# 5 0.0000 0.0000 0.0000 0.0000 21.5424 0.0000
# 6 0.0000 0.0000 0.0000 0.0000 0.0000 -8.9199
#
#
#
# Elastic Compliance Matrix: (Units=1/GPa)
#
#
# Indices 1 2 3 4 5 6 
#
# 1 0.013796 -0.004233 -0.003780 0.000000 0.000000 0.000000
# 2 -0.004233 0.013796 -0.003780 0.000000 0.000000 0.000000
# 3 -0.003780 -0.003780 0.012481 0.000000 0.000000 0.000000
# 4 0.000000 0.000000 0.000000 0.046420 0.000000 0.000000
# 5 0.000000 0.000000 0.000000 0.000000 0.046420 0.000000
# 6 0.000000 0.000000 0.000000 0.000000 0.000000 -0.112109
#
#
# Mechanical properties :
#
#
# Convention : Reuss Voigt Hill
#
# Bulk Modulus (GPa) = 60.66199 60.77224 60.71712
# Shear Modulus (GPa) = 100.22539 18.43325 59.32932
#
# Velocity S-wave (km/s) = 7.50405 3.21816 5.77353
# Velocity P-wave (km/s) = 10.44813 6.92482 8.86331
#
# Compressibility (1/GPa) = 0.01648479
#
# Stress axis : x y z
#
# Youngs Moduli (GPa) = 72.48630 72.48630 80.11910
#
# Poissons Ratio (x) = 0.30684 0.30289
# Poissons Ratio (y) = 0.30684 0.30289
# Poissons Ratio (z) = 0.27403 0.27403
#
# Static dielectric constant tensor:
#      x y z
#    x 3.433570 0.000000 0.000000 
#    y 0.000000 3.433570 0.000000 
#    z 0.000000 0.000000 3.587710 
# 
# 
# High freq. dielectric constant tensor:
#      x y z
#    x 1.692630 0.000000 0.000000 
#    y 0.000000 1.692630 0.000000 
#    z 0.000000 0.000000 1.680410 
# 
# From -- ./inp_files/4719.got.cif
#   From: 2010.03.12/outbox.cif.g09.slc.cpg/sg126_3_cif.got.tgz:4719.got - 2010.04.06 16:55:23.
