data_PCOD8313583
_publ_section_title
;
Structure prediction by ZEFSAII (Michael W. Deem and Ramdas Pophale) SiO2 
 PCOD8313583
Probable space group: P 4/N B M
;
_chemical_formula_sum "Si O2"
_cell_formula_units_Z 96
_cell_length_a 14.391845
_cell_length_b 14.391845
_cell_length_c 23.174519
_cell_angle_alpha 90.000000
_cell_angle_beta 90.000000
_cell_angle_gamma 90.000000
_cell_volume 4800.026941
_symmetry_space_group_name_H-M "P 4/N B M"
_symmetry_group_IT_number 125
_space_group.IT_coordinate_system_code '2'
_symmetry_cell_setting 'tetragonal'
loop_
_space_group_symop_operation_xyz
x,y,z
1/2-y,x,z
1/2-x,1/2-y,z
y,1/2-x,z
x,1/2-y,-z
1/2-x,y,-z
y,x,-z
1/2-y,1/2-x,-z
-x,-y,-z
1/2+y,-x,-z
1/2+x,1/2+y,-z
-y,1/2+x,-z
-x,1/2+y,z
1/2+x,-y,z
-y,-x,z
1/2+y,1/2+x,z
loop_
_atom_site_type_symbol
_atom_site_label
_atom_site_fract_x
_atom_site_fract_y
_atom_site_fract_z
Si Si1 0.816038 0.886146 0.761178
Si Si2 0.791791 0.055501 0.560558
Si Si3 0.198975 0.954139 0.158983
Si Si4 0.672598 0.327403 0.229712
Si Si5 0.327967 0.827967 0.359314
Si Si6 0.185202 0.386217 0.628864
Si Si7 0.098863 0.245955 0.932987
O O1 0.707277 0.871551 0.775583
O O2 0.829519 0.914809 0.695023
O O3 0.852848 0.969617 0.801023
O O4 0.750000 0.023211 0.500000
O O5 0.858511 0.141490 0.548162
O O6 0.711525 0.083447 0.606146
O O7 0.849218 0.969709 0.588001
O O8 0.125658 0.874343 0.141494
O O9 0.285976 0.913965 0.194718
O O10 0.239534 0.002485 0.101661
O O11 0.750000 0.250000 0.236757
O O12 0.641389 0.358612 0.294450
O O13 0.250000 0.750000 0.355151
O O14 0.128577 0.293881 0.614894
O O15 0.161333 0.156232 0.917164
O O16 0.072955 0.250000 0.000000
#
# Coordination Sequence:
#
# PCOD8313583 Si02
#       7
#    16  16  16   8   8  16  16
#     4   9  18  36  60  82 110 150 194 236 285 346
#     4  11  21  36  58  83 110 142 189 238 283 348
#     4  11  21  35  55  86 123 150 190 238 288 347
#     4   9  20  36  52  75 114 160 186 220 287 358
#     4   9  18  34  58  77 106 150 190 234 283 338
#     4   9  20  39  59  80 111 151 189 232 292 349
#     4   9  19  40  65  85 112 157 206 243 283 335
#
# _framework density 19.999889
#
# number of rings (size 3 to 8) (size 9 to 14) (size 15 to 20)
#    0.000    2.333    0.833    3.500    0.000    4.000 
#    9.000    2.500    0.000    0.000    0.000    0.000 
#    0.000    0.000    0.000    0.000    0.000    0.000 
#
# Total GULP energy -1190376.736317 kJ/mol
# GULP energy per Si atom -12399.757670 kJ/mol
# Density = 1.995437 g / cm^3
# Si number density = 19.999889 Si / 1000 Ang^3
#
#
#
# Elastic Constant Matrix: (Units=GPa)
#
#
# Indices 1 2 3 4 5 6 
#
# 1 58.3877 5.7021 36.9423 0.0000 0.0000 0.0000
# 2 5.7021 58.3877 36.9423 0.0000 0.0000 0.0000
# 3 36.9423 36.9423 117.7736 0.0000 0.0000 0.0000
# 4 0.0000 0.0000 0.0000 30.5798 0.0000 0.0000
# 5 0.0000 0.0000 0.0000 0.0000 30.5798 0.0000
# 6 0.0000 0.0000 0.0000 0.0000 0.0000 15.7907
#
#
#
# Elastic Compliance Matrix: (Units=1/GPa)
#
#
# Indices 1 2 3 4 5 6 
#
# 1 0.021711 0.002730 -0.007667 0.000000 0.000000 0.000000
# 2 0.002730 0.021711 -0.007667 0.000000 0.000000 0.000000
# 3 -0.007667 -0.007667 0.013300 0.000000 0.000000 0.000000
# 4 0.000000 0.000000 0.000000 0.032701 0.000000 0.000000
# 5 0.000000 0.000000 0.000000 0.000000 0.032701 0.000000
# 6 0.000000 0.000000 0.000000 0.000000 0.000000 0.063329
#
#
# Mechanical properties :
#
#
# Convention : Reuss Voigt Hill
#
# Bulk Modulus (GPa) = 31.72906 43.74695 37.73801
# Shear Modulus (GPa) = 22.60761 25.72089 24.16425
#
# Velocity S-wave (km/s) = 3.36577 3.59005 3.47972
# Velocity P-wave (km/s) = 5.56809 6.25345 5.92070
#
# Compressibility (1/GPa) = 0.03151685
#
# Stress axis : x y z
#
# Youngs Moduli (GPa) = 46.05978 46.05978 75.18547
#
# Poissons Ratio (x) = -0.12576 0.57641
# Poissons Ratio (y) = -0.12576 0.57641
# Poissons Ratio (z) = 0.35312 0.35312
#
# Static dielectric constant tensor:
#      x y z
#    x 3.438930 0.000000 0.000000 
#    y 0.000000 3.438930 0.000000 
#    z 0.000000 0.000000 3.664870 
# 
# 
# High freq. dielectric constant tensor:
#      x y z
#    x 1.763060 0.000000 0.000000 
#    y 0.000000 1.763060 0.000000 
#    z 0.000000 0.000000 1.789310 
# 
# From -- ./inp_files/6197.got.cif
#   From: 2010.03.12/outbox.cif.g09.slc.cpg/sg125_4_cif.got.tgz:6197.got - 2010.04.06 16:47:52.
