data_PCOD8313450
_publ_section_title
;
Structure prediction by ZEFSAII (Michael W. Deem and Ramdas Pophale) SiO2 
 PCOD8313450
Probable space group: P 4/N B M
;
_chemical_formula_sum "Si O2"
_cell_formula_units_Z 96
_cell_length_a 23.521768
_cell_length_b 23.521768
_cell_length_c 9.789192
_cell_angle_alpha 90.000000
_cell_angle_beta 90.000000
_cell_angle_gamma 90.000000
_cell_volume 5416.101204
_symmetry_space_group_name_H-M "P 4/N B M"
_symmetry_group_IT_number 125
_space_group.IT_coordinate_system_code '2'
_symmetry_cell_setting 'tetragonal'
loop_
_space_group_symop_operation_xyz
x,y,z
1/2-y,x,z
1/2-x,1/2-y,z
y,1/2-x,z
x,1/2-y,-z
1/2-x,y,-z
y,x,-z
1/2-y,1/2-x,-z
-x,-y,-z
1/2+y,-x,-z
1/2+x,1/2+y,-z
-y,1/2+x,-z
-x,1/2+y,z
1/2+x,-y,z
-y,-x,z
1/2+y,1/2+x,z
loop_
_atom_site_type_symbol
_atom_site_label
_atom_site_fract_x
_atom_site_fract_y
_atom_site_fract_z
Si Si1 0.789471 0.117860 0.114326
Si Si2 0.497298 0.407382 0.712660
Si Si3 0.685188 0.012541 0.500299
Si Si4 0.001947 0.593513 0.279806
Si Si5 0.370884 0.782562 0.622876
Si Si6 0.372433 0.964293 0.996155
O O1 0.841034 0.158967 0.155119
O O2 0.756071 0.104944 0.254669
O O3 0.810671 0.058653 0.045037
O O4 0.750000 0.147785 0.000000
O O5 0.554567 0.445434 0.688217
O O6 0.484312 0.357162 0.607293
O O7 0.442672 0.446425 0.687425
O O8 0.498314 0.375019 0.858841
O O9 0.750000 0.986982 0.500000
O O10 0.655154 0.004312 0.647629
O O11 0.687306 0.077985 0.456603
O O12 0.058671 0.558671 0.322352
O O13 0.998579 0.601272 0.117199
O O14 0.338030 0.750000 0.500000
O O15 0.328899 0.828899 0.689264
O O16 0.408428 0.908428 0.964910
#
# Coordination Sequence:
#
# PCOD8313450 Si02
#       6
#    16  16  16  16  16  16
#     4  11  22  34  48  66  93 133 178 221 258 295
#     4  10  19  33  55  78 100 129 167 212 260 314
#     4  11  22  34  48  70 100 134 168 207 259 311
#     4  10  19  33  54  78 102 129 166 212 259 313
#     4  11  22  34  47  63  88 128 177 226 267 297
#     4   9  18  32  49  72  98 122 156 206 264 315
#
# _framework density 17.724927999999998
#
# number of rings (size 3 to 8) (size 9 to 14) (size 15 to 20)
#    0.000    1.667    0.000    6.500    0.000    8.000 
#    0.000    0.000    0.000    0.000    0.000    0.000 
#    0.000    5.333    0.000    0.000    0.000   34.333 
#
# Total GULP energy -1189441.304077 kJ/mol
# GULP energy per Si atom -12390.013584 kJ/mol
# Density = 1.768458 g / cm^3
# Si number density = 17.724928 Si / 1000 Ang^3
#
#
#
# Elastic Constant Matrix: (Units=GPa)
#
#
# Indices 1 2 3 4 5 6 
#
# 1 69.3258 24.4622 15.9971 0.0000 0.0000 0.0000
# 2 24.4622 69.3258 15.9971 0.0000 0.0000 0.0000
# 3 15.9971 15.9971 76.1542 0.0000 0.0000 0.0000
# 4 0.0000 0.0000 0.0000 29.4029 0.0000 0.0000
# 5 0.0000 0.0000 0.0000 0.0000 29.4029 0.0000
# 6 0.0000 0.0000 0.0000 0.0000 0.0000 20.1196
#
#
#
# Elastic Compliance Matrix: (Units=1/GPa)
#
#
# Indices 1 2 3 4 5 6 
#
# 1 0.016888 -0.005402 -0.002413 0.000000 0.000000 0.000000
# 2 -0.005402 0.016888 -0.002413 0.000000 0.000000 0.000000
# 3 -0.002413 -0.002413 0.014145 0.000000 0.000000 0.000000
# 4 0.000000 0.000000 0.000000 0.034010 0.000000 0.000000
# 5 0.000000 0.000000 0.000000 0.000000 0.034010 0.000000
# 6 0.000000 0.000000 0.000000 0.000000 0.000000 0.049703
#
#
# Mechanical properties :
#
#
# Convention : Reuss Voigt Hill
#
# Bulk Modulus (GPa) = 36.40990 36.41317 36.41154
# Shear Modulus (GPa) = 25.60775 26.34170 25.97472
#
# Velocity S-wave (km/s) = 3.80508 3.85923 3.83225
# Velocity P-wave (km/s) = 6.31594 6.35974 6.33788
#
# Compressibility (1/GPa) = 0.02746506
#
# Stress axis : x y z
#
# Youngs Moduli (GPa) = 59.21506 59.21506 70.69712
#
# Poissons Ratio (x) = 0.31989 0.17057
# Poissons Ratio (y) = 0.31989 0.17057
# Poissons Ratio (z) = 0.14286 0.14286
#
# Static dielectric constant tensor:
#      x y z
#    x 3.231310 0.000000 0.000000 
#    y 0.000000 3.231310 0.000000 
#    z 0.000000 0.000000 3.532430 
# 
# 
# High freq. dielectric constant tensor:
#      x y z
#    x 1.653610 0.000000 0.000000 
#    y 0.000000 1.653610 0.000000 
#    z 0.000000 0.000000 1.712310 
# 
# From -- ./inp_files/2867.got.cif
#   From: 2010.03.12/outbox.cif.g09.slc.cpg/sg125_2_cif.got.tgz:2867.got - 2010.04.06 16:47:52.
