data_PCOD8313870
_publ_section_title
;
Structure prediction by ZEFSAII (Michael W. Deem and Ramdas Pophale) SiO2 
 PCOD8313870
Probable space group: P 4/M B M
;
_chemical_formula_sum "Si O2"
_cell_formula_units_Z 112
_cell_length_a 15.770599
_cell_length_b 15.770599
_cell_length_c 23.739893
_cell_angle_alpha 90.000000
_cell_angle_beta 90.000000
_cell_angle_gamma 90.000000
_cell_volume 5904.391349
_symmetry_space_group_name_H-M "P 4/M B M"
_symmetry_group_IT_number 127
_symmetry_cell_setting 'tetragonal'
loop_
_space_group_symop_operation_xyz
x,y,z
-y,x,z
-x,-y,z
y,-x,z
1/2+x,1/2-y,-z
1/2-x,1/2+y,-z
1/2+y,1/2+x,-z
1/2-y,1/2-x,-z
-x,-y,-z
y,-x,-z
x,y,-z
-y,x,-z
1/2-x,1/2+y,z
1/2+x,1/2-y,z
1/2-y,1/2-x,z
1/2+y,1/2+x,z
loop_
_atom_site_type_symbol
_atom_site_label
_atom_site_fract_x
_atom_site_fract_y
_atom_site_fract_z
Si Si1 0.621500 0.571974 0.771469
Si Si2 0.003439 0.634395 0.256705
Si Si3 0.767987 0.594405 0.562900
Si Si4 0.417720 0.775014 0.838980
Si Si5 0.305791 0.057540 0.631461
Si Si6 0.173256 0.189053 0.668683
Si Si7 0.137923 0.504324 0.063036
O O1 0.529632 0.614648 0.772816
O O2 0.675980 0.603847 0.826670
O O3 0.671685 0.601753 0.715347
O O4 0.941346 0.558655 0.241995
O O5 0.982732 0.706966 0.212308
O O6 0.100536 0.600536 0.249563
O O7 0.990146 0.663448 0.321163
O O8 0.729522 0.602689 0.500000
O O9 0.858011 0.641990 0.566488
O O10 0.780487 0.495107 0.576393
O O11 0.702110 0.632594 0.607303
O O12 0.332782 0.832782 0.839441
O O13 0.473391 0.787228 0.895639
O O14 0.378572 0.121429 0.611588
O O15 0.229590 0.105992 0.661604
O O16 0.229684 0.270317 0.687555
O O17 0.094339 0.594339 0.081128
O O18 0.065143 0.434857 0.064553
O O19 0.175873 0.512348 0.000000
#
# Coordination Sequence:
#
# PCOD8313870 Si02
#       7
#    16  16  16  16  16  16  16
#     4  11  23  37  53  74 102 136 173 211 256 315
#     4   9  16  26  44  73 105 131 157 196 251 312
#     4  10  21  35  50  70  98 131 164 200 246 302
#     4  10  18  30  51  77 105 137 173 214 261 308
#     4  10  20  33  52  75  96 122 158 201 251 306
#     4  10  20  36  56  75  97 126 165 213 260 303
#     4   8  14  26  47  78 114 147 177 211 256 308
#
# _framework density 18.968931999999999
#
# number of rings (size 3 to 8) (size 9 to 14) (size 15 to 20)
#    0.000    2.286    0.000    4.286    0.000    5.714 
#    0.000    4.286    0.000    0.857    0.000    6.000 
#    0.000    0.000    0.000    0.000    0.000    0.000 
#
# Total GULP energy -1388129.253690 kJ/mol
# GULP energy per Si atom -12394.011194 kJ/mol
# Density = 1.892576 g / cm^3
# Si number density = 18.968932 Si / 1000 Ang^3
#
#
#
# Elastic Constant Matrix: (Units=GPa)
#
#
# Indices 1 2 3 4 5 6 
#
# 1 85.1073 26.0171 40.6390 0.0000 0.0000 0.0000
# 2 26.0171 85.1073 40.6390 0.0000 0.0000 0.0000
# 3 40.6390 40.6390 103.3418 0.0000 0.0000 0.0000
# 4 0.0000 0.0000 0.0000 20.9874 0.0000 0.0000
# 5 0.0000 0.0000 0.0000 0.0000 20.9874 0.0000
# 6 0.0000 0.0000 0.0000 0.0000 0.0000 11.9343
#
#
#
# Elastic Compliance Matrix: (Units=1/GPa)
#
#
# Indices 1 2 3 4 5 6 
#
# 1 0.014778 -0.002145 -0.004968 0.000000 0.000000 0.000000
# 2 -0.002145 0.014778 -0.004968 0.000000 0.000000 0.000000
# 3 -0.004968 -0.004968 0.013584 0.000000 0.000000 0.000000
# 4 0.000000 0.000000 0.000000 0.047648 0.000000 0.000000
# 5 0.000000 0.000000 0.000000 0.000000 0.047648 0.000000
# 6 0.000000 0.000000 0.000000 0.000000 0.000000 0.083792
#
#
# Mechanical properties :
#
#
# Convention : Reuss Voigt Hill
#
# Bulk Modulus (GPa) = 52.69329 54.23852 53.46590
# Shear Modulus (GPa) = 19.78523 21.86593 20.82558
#
# Velocity S-wave (km/s) = 3.23311 3.39886 3.31702
# Velocity P-wave (km/s) = 6.46346 6.63765 6.55114
#
# Compressibility (1/GPa) = 0.01897775
#
# Stress axis : x y z
#
# Youngs Moduli (GPa) = 67.66904 67.66904 73.61786
#
# Poissons Ratio (x) = 0.14518 0.36571
# Poissons Ratio (y) = 0.14518 0.36571
# Poissons Ratio (z) = 0.33616 0.33616
#
# Static dielectric constant tensor:
#      x y z
#    x 3.470780 0.000000 0.000000 
#    y 0.000000 3.470780 0.000000 
#    z 0.000000 0.000000 3.506430 
# 
# 
# High freq. dielectric constant tensor:
#      x y z
#    x 1.724740 0.000000 0.000000 
#    y 0.000000 1.724740 0.000000 
#    z 0.000000 0.000000 1.723520 
# 
# From -- ./inp_files/6167.got.cif
#   From: 2010.03.12/outbox.cif.g09.slc.cpg/sg127_4_cif.got.tgz:6167.got - 2010.04.06 17:03:15.
