data_PCOD8313064
_publ_section_title
;
Structure prediction by ZEFSAII (Michael W. Deem and Ramdas Pophale) SiO2 
 PCOD8313064
Probable space group: P 4/M C C
;
_chemical_formula_sum "Si O2"
_cell_formula_units_Z 96
_cell_length_a 28.754062
_cell_length_b 28.754062
_cell_length_c 10.392287
_cell_angle_alpha 90.000000
_cell_angle_beta 90.000000
_cell_angle_gamma 90.000000
_cell_volume 8592.302169
_symmetry_space_group_name_H-M "P 4/M C C"
_symmetry_group_IT_number 124
_symmetry_cell_setting 'tetragonal'
loop_
_space_group_symop_operation_xyz
x,y,z
-y,x,z
-x,-y,z
y,-x,z
x,-y,1/2-z
-x,y,1/2-z
y,x,1/2-z
-y,-x,1/2-z
-x,-y,-z
y,-x,-z
x,y,-z
-y,x,-z
-x,y,1/2+z
x,-y,1/2+z
-y,-x,1/2+z
y,x,1/2+z
loop_
_atom_site_type_symbol
_atom_site_label
_atom_site_fract_x
_atom_site_fract_y
_atom_site_fract_z
Si Si1 0.450029 0.054070 0.500000
Si Si2 0.055325 0.608588 0.747863
Si Si3 0.964684 0.771870 0.860261
Si Si4 0.944631 0.553142 0.500000
Si Si5 0.109590 0.691509 0.643145
Si Si6 0.185835 0.761677 0.353079
Si Si7 0.157464 0.110435 0.357922
O O1 0.423205 0.069320 0.627623
O O2 0.501352 0.077529 0.500000
O O3 0.454125 0.999157 0.500000
O O4 0.088065 0.654120 0.741941
O O5 0.000000 0.621444 0.750000
O O6 0.071009 0.581488 0.874924
O O7 0.925236 0.733875 0.863177
O O8 0.940725 0.821538 0.834013
O O9 0.000000 0.758753 0.750000
O O10 0.990056 0.772543 0.000000
O O11 0.113674 0.669354 0.500000
O O12 0.159883 0.712891 0.685326
O O13 0.227182 0.772819 0.250000
O O14 0.205549 0.758057 0.500000
O O15 0.148748 0.802669 0.346429
O O16 0.118322 0.118322 0.250000
O O17 0.134695 0.113262 0.500000
#
# Coordination Sequence:
#
# PCOD8313064 Si02
#       7
#     8  16  16   8  16  16  16
#     4   9  16  28  40  46  63  88 108 132 167 200
#     4  10  17  26  38  50  67  86 107 136 166 194
#     4   9  17  27  36  49  68  87 103 121 143 172
#     4   9  18  26  36  54  63  78 112 142 161 188
#     4   9  16  27  38  48  66  90 107 123 155 190
#     4   8  14  25  38  49  62  81 104 125 147 179
#     4   8  14  24  37  49  63  80 101 123 140 161
#
# _framework density 11.172791
#
# number of rings (size 3 to 8) (size 9 to 14) (size 15 to 20)
#    0.000    3.167    0.833    3.000    0.000    2.667 
#    3.000    1.667    0.000    0.000    0.000    0.000 
#    0.000    0.333    0.000    3.667    0.000    3.000 
#
# Total GULP energy -1189262.166746 kJ/mol
# GULP energy per Si atom -12388.147570 kJ/mol
# Density = 1.114736 g / cm^3
# Si number density = 11.172791 Si / 1000 Ang^3
#
#
#
# Elastic Constant Matrix: (Units=GPa)
#
#
# Indices 1 2 3 4 5 6 
#
# 1 31.1644 26.5999 28.7765 0.0000 0.0000 0.0000
# 2 26.5999 31.1649 28.7766 0.0000 0.0000 0.0000
# 3 28.7765 28.7766 84.8640 0.0000 0.0000 0.0000
# 4 0.0000 0.0000 0.0000 36.5657 0.0000 0.0000
# 5 0.0000 0.0000 0.0000 0.0000 36.5655 0.0000
# 6 0.0000 0.0000 0.0000 0.0000 0.0000 5.9589
#
#
#
# Elastic Compliance Matrix: (Units=1/GPa)
#
#
# Indices 1 2 3 4 5 6 
#
# 1 0.122609 -0.096463 -0.008866 0.000000 0.000000 0.000000
# 2 -0.096463 0.122606 -0.008865 0.000000 0.000000 0.000000
# 3 -0.008866 -0.008865 0.017796 0.000000 0.000000 0.000000
# 4 0.000000 0.000000 0.000000 0.027348 0.000000 0.000000
# 5 0.000000 0.000000 0.000000 0.000000 0.027348 0.000000
# 6 0.000000 0.000000 0.000000 0.000000 0.000000 0.167815
#
#
# Mechanical properties :
#
#
# Convention : Reuss Voigt Hill
#
# Bulk Modulus (GPa) = 28.88211 35.05549 31.96880
# Shear Modulus (GPa) = 6.89225 20.02072 13.45649
#
# Velocity S-wave (km/s) = 2.48640 4.23770 3.47421
# Velocity P-wave (km/s) = 5.84375 7.44231 6.69094
#
# Compressibility (1/GPa) = 0.03462351
#
# Stress axis : x y z
#
# Youngs Moduli (GPa) = 8.15599 8.15618 56.19287
#
# Poissons Ratio (x) = 0.78677 0.49819
# Poissons Ratio (y) = 0.78675 0.49815
# Poissons Ratio (z) = 0.07231 0.07230
#
# Static dielectric constant tensor:
#      x y z
#    x 2.257640 0.000000 0.000000 
#    y 0.000000 2.257640 0.000000 
#    z 0.000000 0.000000 2.613240 
# 
# 
# High freq. dielectric constant tensor:
#      x y z
#    x 1.383980 0.000000 0.000000 
#    y 0.000000 1.383980 0.000000 
#    z 0.000000 0.000000 1.436280 
# 
# From -- ./inp_files/2491.got.cif
#   From: 2010.03.12/outbox.cif.g09.slc.cpg/sg124_2_cif.got.tgz:2491.got - 2010.04.06 16:38:57.
