data_PCOD8313464
_publ_section_title
;
Structure prediction by ZEFSAII (Michael W. Deem and Ramdas Pophale) SiO2 
 PCOD8313464
Probable space group: P 4/N B M
;
_chemical_formula_sum "Si O2"
_cell_formula_units_Z 96
_cell_length_a 20.131235
_cell_length_b 20.131235
_cell_length_c 13.785843
_cell_angle_alpha 90.000000
_cell_angle_beta 90.000000
_cell_angle_gamma 90.000000
_cell_volume 5586.942033
_symmetry_space_group_name_H-M "P 4/N B M"
_symmetry_group_IT_number 125
_space_group.IT_coordinate_system_code '2'
_symmetry_cell_setting 'tetragonal'
loop_
_space_group_symop_operation_xyz
x,y,z
1/2-y,x,z
1/2-x,1/2-y,z
y,1/2-x,z
x,1/2-y,-z
1/2-x,y,-z
y,x,-z
1/2-y,1/2-x,-z
-x,-y,-z
1/2+y,-x,-z
1/2+x,1/2+y,-z
-y,1/2+x,-z
-x,1/2+y,z
1/2+x,-y,z
-y,-x,z
1/2+y,1/2+x,z
loop_
_atom_site_type_symbol
_atom_site_label
_atom_site_fract_x
_atom_site_fract_y
_atom_site_fract_z
Si Si1 0.581771 0.191146 0.923263
Si Si2 0.585434 0.973652 0.909315
Si Si3 0.541484 0.570477 0.287727
Si Si4 0.397866 0.793232 0.295273
Si Si5 0.448662 0.838239 0.612727
Si Si6 0.486852 0.881204 0.416197
O O1 0.638226 0.138226 0.953450
O O2 0.509682 0.156415 0.919803
O O3 0.597915 0.222645 0.818538
O O4 0.580980 0.250000 0.000000
O O5 0.581431 0.927313 0.813446
O O6 0.528795 0.028795 0.905119
O O7 0.575114 0.924887 0.000000
O O8 0.490619 0.509382 0.284914
O O9 0.502404 0.639600 0.305666
O O10 0.592773 0.558474 0.378064
O O11 0.325460 0.825460 0.320007
O O12 0.410728 0.728419 0.358822
O O13 0.454113 0.846523 0.322393
O O14 0.392100 0.892100 0.601566
O O15 0.487953 0.831860 0.509397
O O16 0.445017 0.945017 0.449633
#
# Coordination Sequence:
#
# PCOD8313464 Si02
#       6
#    16  16  16  16  16  16
#     4  10  21  35  50  68  94 132 172 208 251 300
#     4   9  17  30  49  70  91 120 157 204 262 311
#     4   9  16  29  48  70  95 120 155 208 266 308
#     4  10  20  34  48  64  97 139 168 198 247 299
#     4  10  20  29  46  74  96 126 173 213 241 291
#     4   9  16  31  49  66  93 127 161 200 255 304
#
# _framework density 17.182922999999999
#
# number of rings (size 3 to 8) (size 9 to 14) (size 15 to 20)
#    0.000    2.500    1.667    1.000    2.333    3.167 
#    0.000    1.667    0.000    3.000    0.000    0.000 
#    0.000    1.000    1.333    3.333    1.000    0.667 
#
# Total GULP energy -1189600.436902 kJ/mol
# GULP energy per Si atom -12391.671218 kJ/mol
# Density = 1.714381 g / cm^3
# Si number density = 17.182923 Si / 1000 Ang^3
#
#
#
# Elastic Constant Matrix: (Units=GPa)
#
#
# Indices 1 2 3 4 5 6 
#
# 1 47.7309 46.9405 43.0478 0.0000 0.0000 0.0000
# 2 46.9405 47.7310 43.0476 0.0000 0.0000 0.0000
# 3 43.0478 43.0476 113.3530 0.0000 0.0000 0.0000
# 4 0.0000 0.0000 0.0000 24.5202 0.0000 0.0000
# 5 0.0000 0.0000 0.0000 0.0000 24.5203 0.0000
# 6 0.0000 0.0000 0.0000 0.0000 0.0000 24.1646
#
#
#
# Elastic Compliance Matrix: (Units=1/GPa)
#
#
# Indices 1 2 3 4 5 6 
#
# 1 0.640621 -0.624483 -0.006130 0.000000 0.000000 0.000000
# 2 -0.624483 0.640616 -0.006126 0.000000 0.000000 0.000000
# 3 -0.006130 -0.006126 0.013476 0.000000 0.000000 0.000000
# 4 0.000000 0.000000 0.000000 0.040783 0.000000 0.000000
# 5 0.000000 0.000000 0.000000 0.000000 0.040783 0.000000
# 6 0.000000 0.000000 0.000000 0.000000 0.000000 0.041383
#
#
# Mechanical properties :
#
#
# Convention : Reuss Voigt Hill
#
# Bulk Modulus (GPa) = 47.08924 52.76518 49.92721
# Shear Modulus (GPa) = 1.85308 19.69295 10.77301
#
# Velocity S-wave (km/s) = 1.03961 3.38905 2.50663
# Velocity P-wave (km/s) = 5.37636 6.78887 6.12348
#
# Compressibility (1/GPa) = 0.02123627
#
# Stress axis : x y z
#
# Youngs Moduli (GPa) = 1.56099 1.56100 74.20496
#
# Poissons Ratio (x) = 0.97482 0.45486
# Poissons Ratio (y) = 0.97481 0.45455
# Poissons Ratio (z) = 0.00957 0.00956
#
# Static dielectric constant tensor:
#      x y z
#    x 2.984140 0.000000 0.000000 
#    y 0.000000 2.984140 0.000000 
#    z 0.000000 0.000000 3.433810 
# 
# 
# High freq. dielectric constant tensor:
#      x y z
#    x 1.625070 0.000000 0.000000 
#    y 0.000000 1.625070 0.000000 
#    z 0.000000 0.000000 1.683990 
# 
# From -- ./inp_files/4121.got.cif
#   From: 2010.03.12/outbox.cif.g09.slc.cpg/sg125_3_cif.got.tgz:4121.got - 2010.04.06 16:47:52.
