data_PCOD8313885
_publ_section_title
;
Structure prediction by ZEFSAII (Michael W. Deem and Ramdas Pophale) SiO2 
 PCOD8313885
Probable space group: P 4/M B M
;
_chemical_formula_sum "Si O2"
_cell_formula_units_Z 96
_cell_length_a 24.221858
_cell_length_b 24.221858
_cell_length_c 9.110636
_cell_angle_alpha 90.000000
_cell_angle_beta 90.000000
_cell_angle_gamma 90.000000
_cell_volume 5345.195609
_symmetry_space_group_name_H-M "P 4/M B M"
_symmetry_group_IT_number 127
_symmetry_cell_setting 'tetragonal'
loop_
_space_group_symop_operation_xyz
x,y,z
-y,x,z
-x,-y,z
y,-x,z
1/2+x,1/2-y,-z
1/2-x,1/2+y,-z
1/2+y,1/2+x,-z
1/2-y,1/2-x,-z
-x,-y,-z
y,-x,-z
x,y,-z
-y,x,-z
1/2-x,1/2+y,z
1/2+x,1/2-y,z
1/2-y,1/2-x,z
1/2+y,1/2+x,z
loop_
_atom_site_type_symbol
_atom_site_label
_atom_site_fract_x
_atom_site_fract_y
_atom_site_fract_z
Si Si1 0.999129 0.659655 0.163910
Si Si2 0.196010 0.696010 0.672749
Si Si3 0.361384 0.309241 0.327089
Si Si4 0.906204 0.801887 0.172590
Si Si5 0.712856 0.471592 0.836502
Si Si6 0.886874 0.386874 0.173221
Si Si7 0.399698 0.810204 0.335226
O O1 0.948209 0.650411 0.273621
O O2 0.017158 0.722709 0.162537
O O3 0.050575 0.624326 0.222151
O O4 0.981801 0.641006 0.000000
O O5 0.188801 0.688801 0.500000
O O6 0.179458 0.758664 0.719825
O O7 0.154441 0.654441 0.748611
O O8 0.358724 0.317826 0.500000
O O9 0.345143 0.366108 0.249657
O O10 0.424515 0.298850 0.281659
O O11 0.891082 0.741695 0.231365
O O12 0.970440 0.817043 0.206855
O O13 0.895305 0.802159 0.000000
O O14 0.693945 0.452664 0.000000
O O15 0.878342 0.378342 0.000000
O O16 0.414950 0.790971 0.500000
O O17 0.342681 0.842681 0.335966
#
# Coordination Sequence:
#
# PCOD8313885 Si02
#       7
#    16   8  16  16  16   8  16
#     4   9  18  32  52  76 101 135 180 224 267 318
#     4  10  22  34  48  79 117 146 174 212 267 322
#     4  11  22  35  54  82 116 146 177 218 264 319
#     4  10  22  38  57  81 108 142 181 220 264 316
#     4   9  18  35  56  77 104 139 180 220 261 316
#     4  10  18  32  53  77 104 137 178 224 267 315
#     4  10  21  36  53  73 102 140 180 223 271 322
#
# _framework density 17.960054
#
# number of rings (size 3 to 8) (size 9 to 14) (size 15 to 20)
#    0.000    2.167    1.667    2.500    1.167    6.000 
#    0.000    0.417    0.000    3.000    0.000    3.500 
#    0.000    0.000    0.000    0.000    0.000    0.000 
#
# Total GULP energy -1190184.152807 kJ/mol
# GULP energy per Si atom -12397.751592 kJ/mol
# Density = 1.791918 g / cm^3
# Si number density = 17.960054 Si / 1000 Ang^3
#
#
#
# Elastic Constant Matrix: (Units=GPa)
#
#
# Indices 1 2 3 4 5 6 
#
# 1 62.5135 39.3375 39.0566 0.0000 0.0000 0.0000
# 2 39.3375 62.5135 39.0566 0.0000 0.0000 0.0000
# 3 39.0566 39.0566 85.1631 0.0000 0.0000 0.0000
# 4 0.0000 0.0000 0.0000 28.7910 0.0000 0.0000
# 5 0.0000 0.0000 0.0000 0.0000 28.7910 0.0000
# 6 0.0000 0.0000 0.0000 0.0000 0.0000 23.4267
#
#
#
# Elastic Compliance Matrix: (Units=1/GPa)
#
#
# Indices 1 2 3 4 5 6 
#
# 1 0.029147 -0.014001 -0.006946 0.000000 0.000000 0.000000
# 2 -0.014001 0.029147 -0.006946 0.000000 0.000000 0.000000
# 3 -0.006946 -0.006946 0.018113 0.000000 0.000000 0.000000
# 4 0.000000 0.000000 0.000000 0.034733 0.000000 0.000000
# 5 0.000000 0.000000 0.000000 0.000000 0.034733 0.000000
# 6 0.000000 0.000000 0.000000 0.000000 0.000000 0.042686
#
#
# Mechanical properties :
#
#
# Convention : Reuss Voigt Hill
#
# Bulk Modulus (GPa) = 48.49567 49.45463 48.97515
# Shear Modulus (GPa) = 19.90305 22.38437 21.14371
#
# Velocity S-wave (km/s) = 3.33255 3.53419 3.43485
# Velocity P-wave (km/s) = 6.47058 6.65204 6.56194
#
# Compressibility (1/GPa) = 0.02062040
#
# Stress axis : x y z
#
# Youngs Moduli (GPa) = 34.30932 34.30932 55.20914
#
# Poissons Ratio (x) = 0.48038 0.38347
# Poissons Ratio (y) = 0.48038 0.38347
# Poissons Ratio (z) = 0.23830 0.23830
#
# Static dielectric constant tensor:
#      x y z
#    x 3.483370 0.000000 0.000000 
#    y 0.000000 3.483370 0.000000 
#    z 0.000000 0.000000 3.467320 
# 
# 
# High freq. dielectric constant tensor:
#      x y z
#    x 1.684270 0.000000 0.000000 
#    y 0.000000 1.684270 0.000000 
#    z 0.000000 0.000000 1.701810 
# 
# From -- ./inp_files/2096.got.cif
#   From: 2010.03.12/outbox.cif.g09.slc.cpg/sg127_2_cif.got.tgz:2096.got - 2010.04.06 17:03:15.
