data_PCOD8313019
_publ_section_title
;
Structure prediction by ZEFSAII (Michael W. Deem and Ramdas Pophale) SiO2 
 PCOD8313019
Probable space group: P 4/M M M
;
_chemical_formula_sum "Si O2"
_cell_formula_units_Z 96
_cell_length_a 24.814249
_cell_length_b 24.814249
_cell_length_c 9.888018
_cell_angle_alpha 90.000000
_cell_angle_beta 90.000000
_cell_angle_gamma 90.000000
_cell_volume 6088.516959
_symmetry_space_group_name_H-M "P 4/M M M"
_symmetry_group_IT_number 123
_symmetry_cell_setting 'tetragonal'
loop_
_space_group_symop_operation_xyz
x,y,z
-y,x,z
-x,-y,z
y,-x,z
x,-y,-z
-x,y,-z
y,x,-z
-y,-x,-z
-x,-y,-z
y,-x,-z
x,y,-z
-y,x,-z
-x,y,z
x,-y,z
-y,-x,z
y,x,z
loop_
_atom_site_type_symbol
_atom_site_label
_atom_site_fract_x
_atom_site_fract_y
_atom_site_fract_z
Si Si1 0.634611 0.846933 0.343667
Si Si2 0.059627 0.366130 0.151227
Si Si3 0.761808 0.940289 0.151745
Si Si4 0.561588 0.351223 0.845279
Si Si5 0.562130 0.253926 0.344336
Si Si6 0.846399 0.240882 0.655543
O O1 0.627157 0.862043 0.500000
O O2 0.611626 0.897049 0.257701
O O3 0.599260 0.795853 0.302498
O O4 0.696894 0.834083 0.309128
O O5 0.058686 0.302150 0.157909
O O6 0.000000 0.388208 0.188775
O O7 0.075486 0.385126 0.000000
O O8 0.783380 0.895415 0.255792
O O9 0.783598 0.000000 0.191765
O O10 0.781122 0.925552 0.000000
O O11 0.500000 0.366994 0.815560
O O12 0.596274 0.403727 0.811470
O O13 0.580754 0.303246 0.748576
O O14 0.569505 0.332403 0.000000
O O15 0.571455 0.270310 0.500000
O O16 0.500000 0.238405 0.317428
O O17 0.863736 0.234595 0.500000
O O18 0.792356 0.207645 0.688059
#
# Coordination Sequence:
#
# PCOD8313019 Si02
#       6
#    16  16  16  16  16  16
#     4   9  17  28  43  62  83 111 145 178 213 253
#     4   8  14  25  41  61  84 108 136 174 217 257
#     4   8  14  25  40  57  78 106 139 171 203 241
#     4   9  18  32  49  69  91 113 139 173 213 257
#     4   9  18  32  48  65  86 114 148 182 214 251
#     4   9  17  27  38  57  86 113 136 166 205 248
#
# _framework density 15.767386999999999
#
# number of rings (size 3 to 8) (size 9 to 14) (size 15 to 20)
#    0.000    3.333    0.000    1.000    0.000    2.833 
#    0.000    5.833    0.000    0.500    0.000    5.833 
#    0.000    0.333    0.000    3.667    0.000    3.000 
#
# Total GULP energy -1190046.637456 kJ/mol
# GULP energy per Si atom -12396.319140 kJ/mol
# Density = 1.573150 g / cm^3
# Si number density = 15.767387 Si / 1000 Ang^3
#
#
#
# Elastic Constant Matrix: (Units=GPa)
#
#
# Indices 1 2 3 4 5 6 
#
# 1 83.2219 55.4937 58.6126 0.0000 0.0000 0.0000
# 2 55.4937 83.2219 58.6126 0.0000 0.0000 0.0000
# 3 58.6126 58.6126 83.7925 0.0000 0.0000 0.0000
# 4 0.0000 0.0000 0.0000 25.2458 0.0000 0.0000
# 5 0.0000 0.0000 0.0000 0.0000 25.2458 0.0000
# 6 0.0000 0.0000 0.0000 0.0000 0.0000 3.8674
#
#
#
# Elastic Compliance Matrix: (Units=1/GPa)
#
#
# Indices 1 2 3 4 5 6 
#
# 1 0.026848 -0.009216 -0.012333 0.000000 0.000000 0.000000
# 2 -0.009216 0.026848 -0.012333 0.000000 0.000000 0.000000
# 3 -0.012333 -0.012333 0.029188 0.000000 0.000000 0.000000
# 4 0.000000 0.000000 0.000000 0.039611 0.000000 0.000000
# 5 0.000000 0.000000 0.000000 0.000000 0.039611 0.000000
# 6 0.000000 0.000000 0.000000 0.000000 0.000000 0.258574
#
#
# Mechanical properties :
#
#
# Convention : Reuss Voigt Hill
#
# Bulk Modulus (GPa) = 66.14393 66.18603 66.16498
# Shear Modulus (GPa) = 10.13204 16.03961 13.08582
#
# Velocity S-wave (km/s) = 2.53770 3.19292 2.88398
# Velocity P-wave (km/s) = 7.11530 7.46061 7.29000
#
# Compressibility (1/GPa) = 0.01511855
#
# Stress axis : x y z
#
# Youngs Moduli (GPa) = 37.24690 37.24690 34.26046
#
# Poissons Ratio (x) = 0.34329 0.42254
# Poissons Ratio (y) = 0.34329 0.42254
# Poissons Ratio (z) = 0.45937 0.45937
#
# Static dielectric constant tensor:
#      x y z
#    x 2.954590 0.000000 0.000000 
#    y 0.000000 2.954590 0.000000 
#    z 0.000000 0.000000 3.156940 
# 
# 
# High freq. dielectric constant tensor:
#      x y z
#    x 1.585350 0.000000 0.000000 
#    y 0.000000 1.585350 0.000000 
#    z 0.000000 0.000000 1.611230 
# 
# From -- ./inp_files/3133.got.cif
#   From: 2010.03.12/outbox.cif.g09.slc.cpg/sg123_2_cif.got.tgz:3133.got - 2010.04.06 16:26:55.
