data_PCOD8313134
_publ_section_title
;
Structure prediction by ZEFSAII (Michael W. Deem and Ramdas Pophale) SiO2 
 PCOD8313134
Probable space group: P 4/M C C
;
_chemical_formula_sum "Si O2"
_cell_formula_units_Z 96
_cell_length_a 24.919906
_cell_length_b 24.919906
_cell_length_c 9.150464
_cell_angle_alpha 90.000000
_cell_angle_beta 90.000000
_cell_angle_gamma 90.000000
_cell_volume 5682.453837
_symmetry_space_group_name_H-M "P 4/M C C"
_symmetry_group_IT_number 124
_symmetry_cell_setting 'tetragonal'
loop_
_space_group_symop_operation_xyz
x,y,z
-y,x,z
-x,-y,z
y,-x,z
x,-y,1/2-z
-x,y,1/2-z
y,x,1/2-z
-y,-x,1/2-z
-x,-y,-z
y,-x,-z
x,y,-z
-y,x,-z
-x,y,1/2+z
x,-y,1/2+z
-y,-x,1/2+z
y,x,1/2+z
loop_
_atom_site_type_symbol
_atom_site_label
_atom_site_fract_x
_atom_site_fract_y
_atom_site_fract_z
Si Si1 0.250970 0.329563 0.172529
Si Si2 0.450481 0.883370 0.838607
Si Si3 0.756394 0.836062 0.673378
Si Si4 0.550244 0.757614 0.338934
Si Si5 0.620622 0.050194 0.338030
Si Si6 0.052138 0.253270 0.334643
O O1 0.299665 0.299665 0.250000
O O2 0.194258 0.300057 0.207967
O O3 0.251908 0.390887 0.232341
O O4 0.260587 0.328636 0.000000
O O5 0.500000 0.909268 0.750000
O O6 0.458261 0.820514 0.851503
O O7 0.396002 0.896455 0.750638
O O8 0.447295 0.908814 0.000000
O O9 0.803872 0.803872 0.750000
O O10 0.766218 0.839610 0.500000
O O11 0.758730 0.895045 0.741217
O O12 0.500000 0.732190 0.250000
O O13 0.548399 0.731529 0.500000
O O14 0.595703 0.052049 0.500000
O O15 0.683723 0.045497 0.347618
O O16 0.596042 0.000000 0.250000
O O17 0.055845 0.229064 0.500000
O O18 0.000000 0.229250 0.250000
#
# Coordination Sequence:
#
# PCOD8313134 Si02
#       6
#    16  16  16  16  16  16
#     4   9  18  31  47  69  96 125 157 193 234 279
#     4  10  19  31  45  60  80 107 142 184 229 272
#     4  10  19  32  50  72  99 129 161 198 240 285
#     4   9  18  31  46  65  89 117 149 185 225 271
#     4  10  20  32  45  61  81 108 145 187 230 274
#     4  10  20  33  49  69  93 122 156 193 234 281
#
# _framework density 16.894110000000001
#
# number of rings (size 3 to 8) (size 9 to 14) (size 15 to 20)
#    0.000    2.333    0.000    3.000    0.000    5.667 
#    0.000    1.667    0.000    0.000    0.000    0.000 
#    0.000    0.667    0.000    7.000    0.000    4.667 
#
# Total GULP energy -1189770.623889 kJ/mol
# GULP energy per Si atom -12393.443999 kJ/mol
# Density = 1.685566 g / cm^3
# Si number density = 16.894110 Si / 1000 Ang^3
#
#
#
# Elastic Constant Matrix: (Units=GPa)
#
#
# Indices 1 2 3 4 5 6 
#
# 1 88.6725 27.1940 44.6278 0.0000 0.0000 0.0000
# 2 27.1940 88.6725 44.6278 0.0000 0.0000 0.0000
# 3 44.6278 44.6278 123.4251 0.0000 0.0000 0.0000
# 4 0.0000 0.0000 0.0000 24.7391 0.0000 0.0000
# 5 0.0000 0.0000 0.0000 0.0000 24.7391 0.0000
# 6 0.0000 0.0000 0.0000 0.0000 0.0000 20.0791
#
#
#
# Elastic Compliance Matrix: (Units=1/GPa)
#
#
# Indices 1 2 3 4 5 6 
#
# 1 0.014114 -0.002152 -0.004325 0.000000 0.000000 0.000000
# 2 -0.002152 0.014114 -0.004325 0.000000 0.000000 0.000000
# 3 -0.004325 -0.004325 0.011230 0.000000 0.000000 0.000000
# 4 0.000000 0.000000 0.000000 0.040422 0.000000 0.000000
# 5 0.000000 0.000000 0.000000 0.000000 0.040422 0.000000
# 6 0.000000 0.000000 0.000000 0.000000 0.000000 0.049803
#
#
# Mechanical properties :
#
#
# Convention : Reuss Voigt Hill
#
# Bulk Modulus (GPa) = 56.01111 59.29659 57.65385
# Shear Modulus (GPa) = 25.29579 26.19949 25.74764
#
# Velocity S-wave (km/s) = 3.87371 3.94230 3.90816
# Velocity P-wave (km/s) = 7.29614 7.47646 7.38685
#
# Compressibility (1/GPa) = 0.01785360
#
# Stress axis : x y z
#
# Youngs Moduli (GPa) = 70.85044 70.85044 89.04699
#
# Poissons Ratio (x) = 0.15244 0.38517
# Poissons Ratio (y) = 0.15244 0.38517
# Poissons Ratio (z) = 0.30646 0.30646
#
# Static dielectric constant tensor:
#      x y z
#    x 2.999440 0.000000 0.000000 
#    y 0.000000 2.999440 0.000000 
#    z 0.000000 0.000000 3.634280 
# 
# 
# High freq. dielectric constant tensor:
#      x y z
#    x 1.621920 0.000000 0.000000 
#    y 0.000000 1.621920 0.000000 
#    z 0.000000 0.000000 1.669660 
# 
# From -- ./inp_files/1336.got.cif
#   From: 2010.03.12/outbox.cif.g09.slc.cpg/sg124_1_cif.got.tgz:1336.got - 2010.04.06 16:38:57.
