data_PCOD8313184
_publ_section_title
;
Structure prediction by ZEFSAII (Michael W. Deem and Ramdas Pophale) SiO2 
 PCOD8313184
Probable space group: P 4/M C C
;
_chemical_formula_sum "Si O2"
_cell_formula_units_Z 80
_cell_length_a 15.326493
_cell_length_b 15.326493
_cell_length_c 15.512578
_cell_angle_alpha 90.000000
_cell_angle_beta 90.000000
_cell_angle_gamma 90.000000
_cell_volume 3643.926099
_symmetry_space_group_name_H-M "P 4/M C C"
_symmetry_group_IT_number 124
_symmetry_cell_setting 'tetragonal'
loop_
_space_group_symop_operation_xyz
x,y,z
-y,x,z
-x,-y,z
y,-x,z
x,-y,1/2-z
-x,y,1/2-z
y,x,1/2-z
-y,-x,1/2-z
-x,-y,-z
y,-x,-z
x,y,-z
-y,x,-z
-x,y,1/2+z
x,-y,1/2+z
-y,-x,1/2+z
y,x,1/2+z
loop_
_atom_site_type_symbol
_atom_site_label
_atom_site_fract_x
_atom_site_fract_y
_atom_site_fract_z
Si Si1 0.165603 0.193550 0.403110
Si Si2 0.979749 0.239800 0.349173
Si Si3 0.760256 0.470313 0.397196
Si Si4 0.296333 0.661199 0.898764
Si Si5 0.426693 0.947198 0.841340
O O1 0.198794 0.181051 0.500000
O O2 0.175057 0.101526 0.355541
O O3 0.223470 0.271404 0.359770
O O4 0.063199 0.211977 0.403289
O O5 0.951165 0.333446 0.387385
O O6 0.000000 0.246195 0.250000
O O7 0.781488 0.469191 0.500000
O O8 0.719895 0.562615 0.365577
O O9 0.691479 0.393813 0.373563
O O10 0.846056 0.454791 0.339020
O O11 0.283570 0.659853 0.000000
O O12 0.500000 0.000000 0.896237
O O13 0.421173 0.000000 0.750000
#
# Coordination Sequence:
#
# PCOD8313184 Si02
#       5
#    16  16  16  16  16
#     4  11  22  39  60  87 122 161 204 255 311 370
#     4  11  23  39  60  87 119 160 205 254 308 371
#     4  10  19  35  59  90 127 169 209 260 315 371
#     4   9  19  34  57  89 126 163 209 257 310 367
#     4  10  21  37  59  86 124 157 209 260 309 367
#
# _framework density 21.954343999999999
#
# number of rings (size 3 to 8) (size 9 to 14) (size 15 to 20)
#    0.000    1.800    2.000    2.400    0.000    2.000 
#    0.000    4.000    0.000    0.000    0.000    0.000 
#    0.000    6.400    0.000    0.000    0.000    0.000 
#
# Total GULP energy -991325.333383 kJ/mol
# GULP energy per Si atom -12391.566667 kJ/mol
# Density = 2.190437 g / cm^3
# Si number density = 21.954344 Si / 1000 Ang^3
#
#
#
# Elastic Constant Matrix: (Units=GPa)
#
#
# Indices 1 2 3 4 5 6 
#
# 1 203.6644 99.5199 18.0589 0.0000 0.0000 0.0000
# 2 99.5199 203.6644 18.0589 0.0000 0.0000 0.0000
# 3 18.0589 18.0589 35.7149 0.0000 0.0000 0.0000
# 4 0.0000 0.0000 0.0000 16.3009 0.0000 0.0000
# 5 0.0000 0.0000 0.0000 0.0000 16.3009 0.0000
# 6 0.0000 0.0000 0.0000 0.0000 0.0000 42.6631
#
#
#
# Elastic Compliance Matrix: (Units=1/GPa)
#
#
# Indices 1 2 3 4 5 6 
#
# 1 0.006556 -0.003046 -0.001775 0.000000 0.000000 0.000000
# 2 -0.003046 0.006556 -0.001775 0.000000 0.000000 0.000000
# 3 -0.001775 -0.001775 0.029794 0.000000 0.000000 0.000000
# 4 0.000000 0.000000 0.000000 0.061346 0.000000 0.000000
# 5 0.000000 0.000000 0.000000 0.000000 0.061346 0.000000
# 6 0.000000 0.000000 0.000000 0.000000 0.000000 0.023439
#
#
# Mechanical properties :
#
#
# Convention : Reuss Voigt Hill
#
# Bulk Modulus (GPa) = 33.65300 79.36879 56.51090
# Shear Modulus (GPa) = 23.57004 35.54674 29.55839
#
# Velocity S-wave (km/s) = 3.28013 4.02820 3.67325
# Velocity P-wave (km/s) = 5.45046 7.60693 6.61713
#
# Compressibility (1/GPa) = 0.02971503
#
# Stress axis : x y z
#
# Youngs Moduli (GPa) = 152.53466 152.53466 33.56356
#
# Poissons Ratio (x) = 0.46464 0.05956
# Poissons Ratio (y) = 0.46464 0.05956
# Poissons Ratio (z) = 0.27070 0.27070
#
# Static dielectric constant tensor:
#      x y z
#    x 4.383360 0.000000 0.000000 
#    y 0.000000 4.383360 0.000000 
#    z 0.000000 0.000000 3.508540 
# 
# 
# High freq. dielectric constant tensor:
#      x y z
#    x 1.875940 0.000000 0.000000 
#    y 0.000000 1.875940 0.000000 
#    z 0.000000 0.000000 1.828880 
# 
# From -- ./inp_files/5082.got.cif
#   From: 2010.03.12/outbox.cif.g09.slc.cpg/sg124_3_cif.got.tgz:5082.got - 2010.04.06 16:38:57.
