data_PCOD8313055
_publ_section_title
;
Structure prediction by ZEFSAII (Michael W. Deem and Ramdas Pophale) SiO2 
 PCOD8313055
Probable space group: P 4/M M M
;
_chemical_formula_sum "Si O2"
_cell_formula_units_Z 112
_cell_length_a 14.189430
_cell_length_b 14.189430
_cell_length_c 34.257793
_cell_angle_alpha 90.000000
_cell_angle_beta 90.000000
_cell_angle_gamma 90.000000
_cell_volume 6897.461430
_symmetry_space_group_name_H-M "P 4/M M M"
_symmetry_group_IT_number 123
_symmetry_cell_setting 'tetragonal'
loop_
_space_group_symop_operation_xyz
x,y,z
-y,x,z
-x,-y,z
y,-x,z
x,-y,-z
-x,y,-z
y,x,-z
-y,-x,-z
-x,-y,-z
y,-x,-z
x,y,-z
-y,x,-z
-x,y,z
x,-y,z
-y,-x,z
y,x,z
loop_
_atom_site_type_symbol
_atom_site_label
_atom_site_fract_x
_atom_site_fract_y
_atom_site_fract_z
Si Si1 0.241652 0.607474 0.681272
Si Si2 0.892183 0.739930 0.090765
Si Si3 0.391232 0.891522 0.612902
Si Si4 0.239859 0.392142 0.045588
Si Si5 0.390645 0.237022 0.229758
Si Si6 0.891501 0.739880 0.456264
Si Si7 0.260364 0.108009 0.181990
O O1 0.267400 0.500000 0.673055
O O2 0.336909 0.663092 0.673325
O O3 0.161894 0.643900 0.651624
O O4 0.205172 0.621803 0.725360
O O5 0.834741 0.834741 0.080015
O O6 0.849361 0.650594 0.068221
O O7 0.885072 0.717519 0.136364
O O8 0.000000 0.755252 0.077633
O O9 0.500000 0.872431 0.604375
O O10 0.337219 0.855059 0.574540
O O11 0.370105 0.000000 0.621150
O O12 0.255296 0.500000 0.058651
O O13 0.334757 0.334757 0.056277
O O14 0.217196 0.384879 0.000000
O O15 0.500000 0.254291 0.219127
O O16 0.333949 0.333949 0.221330
O O17 0.350068 0.151944 0.203965
O O18 0.874733 0.699731 0.500000
O O19 0.836453 0.836453 0.449530
O O20 0.000000 0.764416 0.449251
O O21 0.165406 0.165406 0.192740
O O22 0.245657 0.000000 0.195133
#
# Coordination Sequence:
#
# PCOD8313055 Si02
#       7
#    16  16  16  16  16  16  16
#     4   9  17  29  45  64  86 112 141 174 211 250
#     4   9  18  32  49  69  93 120 150 185 224 266
#     4   9  17  28  42  61  84 109 137 169 206 248
#     4   9  18  32  49  69  93 121 153 189 227 266
#     4   9  18  31  46  66  91 118 149 183 219 261
#     4   9  17  28  42  60  81 106 136 169 205 245
#     4   9  18  32  49  69  92 118 149 185 224 265
#
# _framework density 16.237857999999999
#
# number of rings (size 3 to 8) (size 9 to 14) (size 15 to 20)
#    0.000    3.000    0.000    0.429    0.000    3.143 
#    0.000    9.286    0.000    0.000    0.000    6.000 
#    0.000    3.429    0.000   13.286    0.000    0.429 
#
# Total GULP energy -1388696.918866 kJ/mol
# GULP energy per Si atom -12399.079633 kJ/mol
# Density = 1.620090 g / cm^3
# Si number density = 16.237858 Si / 1000 Ang^3
#
#
#
# Elastic Constant Matrix: (Units=GPa)
#
#
# Indices 1 2 3 4 5 6 
#
# 1 105.6656 56.4939 50.7190 0.0000 0.0000 0.0000
# 2 56.4939 105.6656 50.7190 0.0000 0.0000 0.0000
# 3 50.7190 50.7190 60.4975 0.0000 0.0000 0.0000
# 4 0.0000 0.0000 0.0000 27.8657 0.0000 0.0000
# 5 0.0000 0.0000 0.0000 0.0000 27.8657 0.0000
# 6 0.0000 0.0000 0.0000 0.0000 0.0000 19.4967
#
#
#
# Elastic Compliance Matrix: (Units=1/GPa)
#
#
# Indices 1 2 3 4 5 6 
#
# 1 0.016652 -0.003685 -0.010871 0.000000 0.000000 0.000000
# 2 -0.003685 0.016652 -0.010871 0.000000 0.000000 0.000000
# 3 -0.010871 -0.010871 0.034758 0.000000 0.000000 0.000000
# 4 0.000000 0.000000 0.000000 0.035886 0.000000 0.000000
# 5 0.000000 0.000000 0.000000 0.000000 0.035886 0.000000
# 6 0.000000 0.000000 0.000000 0.000000 0.000000 0.051291
#
#
# Mechanical properties :
#
#
# Convention : Reuss Voigt Hill
#
# Bulk Modulus (GPa) = 58.11534 65.29919 61.70726
# Shear Modulus (GPa) = 20.18440 22.63873 21.41157
#
# Velocity S-wave (km/s) = 3.52951 3.73794 3.63522
# Velocity P-wave (km/s) = 7.24415 7.67666 7.46354
#
# Compressibility (1/GPa) = 0.01720716
#
# Stress axis : x y z
#
# Youngs Moduli (GPa) = 60.05265 60.05265 28.77054
#
# Poissons Ratio (x) = 0.22128 0.31277
# Poissons Ratio (y) = 0.22128 0.31277
# Poissons Ratio (z) = 0.65285 0.65285
#
# Static dielectric constant tensor:
#      x y z
#    x 3.078860 0.000000 0.000000 
#    y 0.000000 3.078860 0.000000 
#    z 0.000000 0.000000 3.185850 
# 
# 
# High freq. dielectric constant tensor:
#      x y z
#    x 1.620110 0.000000 0.000000 
#    y 0.000000 1.620110 0.000000 
#    z 0.000000 0.000000 1.626810 
# 
# From -- ./inp_files/8163.got.cif
#   From: 2010.03.12/outbox.cif.g09.slc.cpg/sg123_5_cif.got.tgz:8163.got - 2010.04.06 16:26:55.
