data_PCOD8313551
_publ_section_title
;
Structure prediction by ZEFSAII (Michael W. Deem and Ramdas Pophale) SiO2 
 PCOD8313551
Probable space group: P 4/N B M
;
_chemical_formula_sum "Si O2"
_cell_formula_units_Z 96
_cell_length_a 14.412455
_cell_length_b 14.412455
_cell_length_c 23.205234
_cell_angle_alpha 90.000000
_cell_angle_beta 90.000000
_cell_angle_gamma 90.000000
_cell_volume 4820.164732
_symmetry_space_group_name_H-M "P 4/N B M"
_symmetry_group_IT_number 125
_space_group.IT_coordinate_system_code '2'
_symmetry_cell_setting 'tetragonal'
loop_
_space_group_symop_operation_xyz
x,y,z
1/2-y,x,z
1/2-x,1/2-y,z
y,1/2-x,z
x,1/2-y,-z
1/2-x,y,-z
y,x,-z
1/2-y,1/2-x,-z
-x,-y,-z
1/2+y,-x,-z
1/2+x,1/2+y,-z
-y,1/2+x,-z
-x,1/2+y,z
1/2+x,-y,z
-y,-x,z
1/2+y,1/2+x,z
loop_
_atom_site_type_symbol
_atom_site_label
_atom_site_fract_x
_atom_site_fract_y
_atom_site_fract_z
Si Si1 0.484236 0.245838 0.369809
Si Si2 0.851857 0.994187 0.025727
Si Si3 0.172179 0.672179 0.812757
Si Si4 0.104703 0.289469 0.747591
Si Si5 0.430753 0.417349 0.433757
Si Si6 0.312395 0.965357 0.151929
Si Si7 0.172455 0.827546 0.318501
O O1 0.435938 0.296068 0.315980
O O2 0.491142 0.327217 0.416962
O O3 0.423202 0.161959 0.395167
O O4 0.585178 0.210715 0.352973
O O5 0.913682 0.086319 0.014103
O O6 0.834549 0.978687 0.093620
O O7 0.750000 0.008705 0.000000
O O8 0.903478 0.903478 0.000000
O O9 0.250000 0.750000 0.809561
O O10 0.210324 0.583018 0.848082
O O11 0.144275 0.644275 0.747073
O O12 0.137282 0.185427 0.757423
O O13 0.030901 0.320111 0.794047
O O14 0.403963 0.403963 0.500000
O O15 0.489936 0.510065 0.423873
O O16 0.387220 0.887220 0.162670
O O17 0.250000 0.750000 0.317203
#
# Coordination Sequence:
#
# PCOD8313551 Si02
#       7
#    16  16   8  16  16  16   8
#     4  12  22  42  66  93 127 171 211 263 324 384
#     4  10  24  44  65  94 130 172 224 273 318 383
#     4   9  18  34  60  93 128 156 197 259 318 388
#     4  11  24  41  61  91 130 164 205 258 317 388
#     4  11  25  43  65  92 128 169 220 268 315 380
#     4  10  22  41  64  95 127 165 213 259 321 380
#     4  11  22  38  63  97 131 165 206 261 335 395
#
# _framework density 19.916333000000002
#
# number of rings (size 3 to 8) (size 9 to 14) (size 15 to 20)
#    0.000    1.333    4.167    1.000    3.500    1.333 
#    3.000    0.833    0.000    0.000    0.000    0.000 
#    0.000    0.000    0.000    0.000    0.000    0.000 
#
# Total GULP energy -1190401.261390 kJ/mol
# GULP energy per Si atom -12400.013139 kJ/mol
# Density = 1.987100 g / cm^3
# Si number density = 19.916333 Si / 1000 Ang^3
#
#
#
# Elastic Constant Matrix: (Units=GPa)
#
#
# Indices 1 2 3 4 5 6 
#
# 1 76.6435 20.6196 54.5551 0.0000 0.0000 0.0000
# 2 20.6196 76.6435 54.5551 0.0000 0.0000 0.0000
# 3 54.5551 54.5551 141.5365 0.0000 0.0000 0.0000
# 4 0.0000 0.0000 0.0000 34.0157 0.0000 0.0000
# 5 0.0000 0.0000 0.0000 0.0000 34.0157 0.0000
# 6 0.0000 0.0000 0.0000 0.0000 0.0000 187.2322
#
#
#
# Elastic Compliance Matrix: (Units=1/GPa)
#
#
# Indices 1 2 3 4 5 6 
#
# 1 0.017982 0.000132 -0.006982 0.000000 0.000000 0.000000
# 2 0.000132 0.017982 -0.006982 0.000000 0.000000 0.000000
# 3 -0.006982 -0.006982 0.012448 0.000000 0.000000 0.000000
# 4 0.000000 0.000000 0.000000 0.029398 0.000000 0.000000
# 5 0.000000 0.000000 0.000000 0.000000 0.029398 0.000000
# 6 0.000000 0.000000 0.000000 0.000000 0.000000 0.005341
#
#
# Mechanical properties :
#
#
# Convention : Reuss Voigt Hill
#
# Bulk Modulus (GPa) = 48.19867 61.58703 54.89285
# Shear Modulus (GPa) = 33.98411 62.05896 48.02153
#
# Velocity S-wave (km/s) = 4.13527 5.58816 4.91569
# Velocity P-wave (km/s) = 6.85957 8.52213 7.73564
#
# Compressibility (1/GPa) = 0.02074746
#
# Stress axis : x y z
#
# Youngs Moduli (GPa) = 55.61232 55.61232 80.33630
#
# Poissons Ratio (x) = -0.00735 0.56090
# Poissons Ratio (y) = -0.00735 0.56090
# Poissons Ratio (z) = 0.38828 0.38828
#
# Static dielectric constant tensor:
#      x y z
#    x 3.625160 0.000000 0.000000 
#    y 0.000000 3.625160 0.000000 
#    z 0.000000 0.000000 3.773220 
# 
# 
# High freq. dielectric constant tensor:
#      x y z
#    x 1.778130 0.000000 0.000000 
#    y 0.000000 1.778130 0.000000 
#    z 0.000000 0.000000 1.785690 
# 
# From -- ./inp_files/5980.got.cif
#   From: 2010.03.12/outbox.cif.g09.slc.cpg/sg125_3_cif.got.tgz:5980.got - 2010.04.06 16:47:52.
