data_PCOD8313131
_publ_section_title
;
Structure prediction by ZEFSAII (Michael W. Deem and Ramdas Pophale) SiO2 
 PCOD8313131
Probable space group: P 4/M C C
;
_chemical_formula_sum "Si O2"
_cell_formula_units_Z 96
_cell_length_a 24.895362
_cell_length_b 24.895362
_cell_length_c 8.923713
_cell_angle_alpha 90.000000
_cell_angle_beta 90.000000
_cell_angle_gamma 90.000000
_cell_volume 5530.730358
_symmetry_space_group_name_H-M "P 4/M C C"
_symmetry_group_IT_number 124
_symmetry_cell_setting 'tetragonal'
loop_
_space_group_symop_operation_xyz
x,y,z
-y,x,z
-x,-y,z
y,-x,z
x,-y,1/2-z
-x,y,1/2-z
y,x,1/2-z
-y,-x,1/2-z
-x,-y,-z
y,-x,-z
x,y,-z
-y,x,-z
-x,y,1/2+z
x,-y,1/2+z
-y,-x,1/2+z
y,x,1/2+z
loop_
_atom_site_type_symbol
_atom_site_label
_atom_site_fract_x
_atom_site_fract_y
_atom_site_fract_z
Si Si1 0.879175 0.949341 0.163924
Si Si2 0.248652 0.672392 0.181262
Si Si3 0.245622 0.166249 0.319650
Si Si4 0.449001 0.377997 0.835011
Si Si5 0.753293 0.053029 0.331370
Si Si6 0.748678 0.551911 0.664919
O O1 0.894768 0.894768 0.250000
O O2 0.816107 0.955241 0.153550
O O3 0.904499 0.000000 0.250000
O O4 0.904929 0.946917 0.000000
O O5 0.304377 0.695624 0.250000
O O6 0.200096 0.705476 0.252353
O O7 0.238976 0.610702 0.234666
O O8 0.250391 0.677038 0.000000
O O9 0.190047 0.190047 0.250000
O O10 0.243190 0.170092 0.500000
O O11 0.257136 0.105392 0.269583
O O12 0.500000 0.402996 0.750000
O O13 0.394700 0.394700 0.750000
O O14 0.453598 0.314689 0.841894
O O15 0.447136 0.402791 0.000000
O O16 0.728745 0.059208 0.500000
O O17 0.728424 0.000000 0.250000
O O18 0.773438 0.500000 0.750000
O O19 0.774082 0.549482 0.500000
#
# Coordination Sequence:
#
# PCOD8313131 Si02
#       6
#    16  16  16  16  16  16
#     4  10  20  32  46  62  82 109 145 186 230 273
#     4  10  19  32  49  72  99 129 163 201 244 291
#     4  11  21  33  50  73 100 132 166 203 245 291
#     4  10  19  31  44  60  80 107 143 185 230 275
#     4  10  20  34  51  71  95 124 156 194 236 285
#     4   9  19  32  48  68  92 121 154 191 234 283
#
# _framework density 17.357562999999999
#
# number of rings (size 3 to 8) (size 9 to 14) (size 15 to 20)
#    0.000    2.000    0.000    5.500    0.000    5.667 
#    0.000    1.667    0.000    0.000    0.000    0.000 
#    0.000    0.667    0.000    7.000    0.000    3.833 
#
# Total GULP energy -1189673.954086 kJ/mol
# GULP energy per Si atom -12392.437022 kJ/mol
# Density = 1.731806 g / cm^3
# Si number density = 17.357563 Si / 1000 Ang^3
#
#
#
# Elastic Constant Matrix: (Units=GPa)
#
#
# Indices 1 2 3 4 5 6 
#
# 1 83.8895 16.1910 37.4436 0.0000 0.0000 0.0000
# 2 16.1910 83.8906 37.4435 0.0000 0.0000 0.0000
# 3 37.4436 37.4435 140.3169 0.0000 0.0000 0.0000
# 4 0.0000 0.0000 0.0000 22.5569 0.0000 0.0000
# 5 0.0000 0.0000 0.0000 0.0000 22.5566 0.0000
# 6 0.0000 0.0000 0.0000 0.0000 0.0000 18.4769
#
#
#
# Elastic Compliance Matrix: (Units=1/GPa)
#
#
# Indices 1 2 3 4 5 6 
#
# 1 0.013628 -0.001143 -0.003332 0.000000 0.000000 0.000000
# 2 -0.001143 0.013628 -0.003332 0.000000 0.000000 0.000000
# 3 -0.003332 -0.003332 0.008905 0.000000 0.000000 0.000000
# 4 0.000000 0.000000 0.000000 0.044332 0.000000 0.000000
# 5 0.000000 0.000000 0.000000 0.000000 0.044333 0.000000
# 6 0.000000 0.000000 0.000000 0.000000 0.000000 0.054122
#
#
# Mechanical properties :
#
#
# Convention : Reuss Voigt Hill
#
# Bulk Modulus (GPa) = 48.66629 54.47258 51.56944
# Shear Modulus (GPa) = 24.82499 27.18600 26.00550
#
# Velocity S-wave (km/s) = 3.78592 3.96186 3.87489
# Velocity P-wave (km/s) = 6.87090 7.23735 7.05650
#
# Compressibility (1/GPa) = 0.02054810
#
# Stress axis : x y z
#
# Youngs Moduli (GPa) = 73.37770 73.37880 112.29929
#
# Poissons Ratio (x) = 0.08389 0.37414
# Poissons Ratio (y) = 0.08389 0.37413
# Poissons Ratio (z) = 0.24446 0.24446
#
# Static dielectric constant tensor:
#      x y z
#    x 3.094620 0.000000 0.000000 
#    y 0.000000 3.094620 0.000000 
#    z 0.000000 0.000000 3.856650 
# 
# 
# High freq. dielectric constant tensor:
#      x y z
#    x 1.641970 0.000000 0.000000 
#    y 0.000000 1.641970 0.000000 
#    z 0.000000 0.000000 1.691540 
# 
# From -- ./inp_files/1386.got.cif
#   From: 2010.03.12/outbox.cif.g09.slc.cpg/sg124_1_cif.got.tgz:1386.got - 2010.04.06 16:38:57.
