data_PCOD8313404
_publ_section_title
;
Structure prediction by ZEFSAII (Michael W. Deem and Ramdas Pophale) SiO2 
 PCOD8313404
Probable space group: P 4/N B M
;
_chemical_formula_sum "Si O2"
_cell_formula_units_Z 96
_cell_length_a 15.106724
_cell_length_b 15.106724
_cell_length_c 23.807816
_cell_angle_alpha 90.000000
_cell_angle_beta 90.000000
_cell_angle_gamma 90.000000
_cell_volume 5433.255732
_symmetry_space_group_name_H-M "P 4/N B M"
_symmetry_group_IT_number 125
_space_group.IT_coordinate_system_code '2'
_symmetry_cell_setting 'tetragonal'
loop_
_space_group_symop_operation_xyz
x,y,z
1/2-y,x,z
1/2-x,1/2-y,z
y,1/2-x,z
x,1/2-y,-z
1/2-x,y,-z
y,x,-z
1/2-y,1/2-x,-z
-x,-y,-z
1/2+y,-x,-z
1/2+x,1/2+y,-z
-y,1/2+x,-z
-x,1/2+y,z
1/2+x,-y,z
-y,-x,z
1/2+y,1/2+x,z
loop_
_atom_site_type_symbol
_atom_site_label
_atom_site_fract_x
_atom_site_fract_y
_atom_site_fract_z
Si Si1 0.798574 0.885738 0.754126
Si Si2 0.792731 0.058014 0.560024
Si Si3 0.201718 0.946346 0.176358
Si Si4 0.824382 0.175619 0.241697
Si Si5 0.324024 0.824024 0.366980
Si Si6 0.113425 0.201561 0.625497
Si Si7 0.605754 0.245331 0.939074
O O1 0.697198 0.861198 0.766079
O O2 0.809435 0.917374 0.689902
O O3 0.828929 0.961832 0.796701
O O4 0.750000 0.041114 0.500000
O O5 0.872515 0.127486 0.555250
O O6 0.714885 0.091632 0.600822
O O7 0.829097 0.965972 0.584972
O O8 0.120159 0.879842 0.181089
O O9 0.286830 0.909843 0.209862
O O10 0.230472 0.961213 0.111355
O O11 0.750000 0.250000 0.242920
O O12 0.852918 0.147083 0.304481
O O13 0.250000 0.750000 0.363653
O O14 0.196849 0.138948 0.612990
O O15 0.685180 0.314821 0.939904
O O16 0.648209 0.148209 0.928478
O O17 0.556728 0.250000 0.000000
#
# Coordination Sequence:
#
# PCOD8313404 Si02
#       7
#    16  16  16   8   8  16  16
#     4   9  19  37  56  72  99 139 174 208 261 322
#     4  11  21  36  56  78 106 137 172 207 248 311
#     4  10  17  28  49  78 108 130 166 217 259 305
#     4   9  16  26  44  74 105 128 154 205 266 305
#     4   9  18  30  48  69 101 141 162 192 254 312
#     4   9  20  40  60  76  99 134 174 216 264 311
#     4   8  13  23  41  68 104 144 174 202 251 308
#
# _framework density 17.668965
#
# number of rings (size 3 to 8) (size 9 to 14) (size 15 to 20)
#    0.000    2.667    1.667    2.500    0.000    2.667 
#    3.000    1.667    0.000    1.000    0.000    4.667 
#    0.000    0.000    0.000    0.000    0.000    0.000 
#
# Total GULP energy -1190145.636879 kJ/mol
# GULP energy per Si atom -12397.350384 kJ/mol
# Density = 1.762875 g / cm^3
# Si number density = 17.668965 Si / 1000 Ang^3
#
#
#
# Elastic Constant Matrix: (Units=GPa)
#
#
# Indices 1 2 3 4 5 6 
#
# 1 59.8838 4.2421 35.6345 0.0000 0.0000 0.0000
# 2 4.2421 59.8838 35.6345 0.0000 0.0000 0.0000
# 3 35.6345 35.6345 140.3082 0.0000 0.0000 0.0000
# 4 0.0000 0.0000 0.0000 20.3599 0.0000 0.0000
# 5 0.0000 0.0000 0.0000 0.0000 20.3599 0.0000
# 6 0.0000 0.0000 0.0000 0.0000 0.0000 9.8202
#
#
#
# Elastic Compliance Matrix: (Units=1/GPa)
#
#
# Indices 1 2 3 4 5 6 
#
# 1 0.019850 0.001877 -0.005518 0.000000 0.000000 0.000000
# 2 0.001877 0.019850 -0.005518 0.000000 0.000000 0.000000
# 3 -0.005518 -0.005518 0.009930 0.000000 0.000000 0.000000
# 4 0.000000 0.000000 0.000000 0.049116 0.000000 0.000000
# 5 0.000000 0.000000 0.000000 0.000000 0.049116 0.000000
# 6 0.000000 0.000000 0.000000 0.000000 0.000000 0.101831
#
#
# Mechanical properties :
#
#
# Convention : Reuss Voigt Hill
#
# Bulk Modulus (GPa) = 31.93681 45.67756 38.80718
# Shear Modulus (GPa) = 17.95673 22.41232 20.18452
#
# Velocity S-wave (km/s) = 3.19138 3.56540 3.38357
# Velocity P-wave (km/s) = 5.62976 6.54656 6.10539
#
# Compressibility (1/GPa) = 0.03131183
#
# Stress axis : x y z
#
# Youngs Moduli (GPa) = 50.37885 50.37885 100.70443
#
# Poissons Ratio (x) = -0.09458 0.55570
# Poissons Ratio (y) = -0.09458 0.55570
# Poissons Ratio (z) = 0.27799 0.27799
#
# Static dielectric constant tensor:
#      x y z
#    x 2.992150 0.000000 0.000000 
#    y 0.000000 2.992150 0.000000 
#    z 0.000000 0.000000 3.601180 
# 
# 
# High freq. dielectric constant tensor:
#      x y z
#    x 1.655800 0.000000 0.000000 
#    y 0.000000 1.655800 0.000000 
#    z 0.000000 0.000000 1.694420 
# 
# From -- ./inp_files/6198.got.cif
#   From: 2010.03.12/outbox.cif.g09.slc.cpg/sg125_4_cif.got.tgz:6198.got - 2010.04.06 16:47:52.
