data_PCOD8313414
_publ_section_title
;
Structure prediction by ZEFSAII (Michael W. Deem and Ramdas Pophale) SiO2 
 PCOD8313414
Probable space group: P 4/N B M
;
_chemical_formula_sum "Si O2"
_cell_formula_units_Z 128
_cell_length_a 23.397726
_cell_length_b 23.397726
_cell_length_c 12.778050
_cell_angle_alpha 90.000000
_cell_angle_beta 90.000000
_cell_angle_gamma 90.000000
_cell_volume 6995.389243
_symmetry_space_group_name_H-M "P 4/N B M"
_symmetry_group_IT_number 125
_space_group.IT_coordinate_system_code '2'
_symmetry_cell_setting 'tetragonal'
loop_
_space_group_symop_operation_xyz
x,y,z
1/2-y,x,z
1/2-x,1/2-y,z
y,1/2-x,z
x,1/2-y,-z
1/2-x,y,-z
y,x,-z
1/2-y,1/2-x,-z
-x,-y,-z
1/2+y,-x,-z
1/2+x,1/2+y,-z
-y,1/2+x,-z
-x,1/2+y,z
1/2+x,-y,z
-y,-x,z
1/2+y,1/2+x,z
loop_
_atom_site_type_symbol
_atom_site_label
_atom_site_fract_x
_atom_site_fract_y
_atom_site_fract_z
Si Si1 0.458497 0.862450 0.113884
Si Si2 0.890170 0.200036 0.282081
Si Si3 0.381790 0.425061 0.609196
Si Si4 0.531881 0.126687 0.114755
Si Si5 0.420263 0.825131 0.688680
Si Si6 0.049113 0.859407 0.533284
Si Si7 0.303250 0.178298 0.377598
Si Si8 0.447754 0.042163 0.201208
O O1 0.413822 0.913822 0.112558
O O2 0.436289 0.812914 0.190316
O O3 0.518317 0.888383 0.154853
O O4 0.468559 0.839054 0.995607
O O5 0.829083 0.170918 0.252999
O O6 0.884078 0.267602 0.294289
O O7 0.909399 0.176751 0.393706
O O8 0.404828 0.404828 0.500000
O O9 0.356866 0.488234 0.590949
O O10 0.335835 0.379762 0.655102
O O11 0.434494 0.426929 0.689280
O O12 0.587499 0.087499 0.117624
O O13 0.535479 0.168945 0.214339
O O14 0.474997 0.087847 0.121513
O O15 0.376089 0.876089 0.685604
O O16 0.455153 0.827837 0.579409
O O17 0.076109 0.923892 0.523872
O O18 0.329125 0.238307 0.333669
O O19 0.310337 0.189664 0.500000
O O20 0.491844 0.991844 0.226001
#
# Coordination Sequence:
#
# PCOD8313414 Si02
#       8
#    16  16  16  16  16  16  16  16
#     4   9  17  32  53  73  96 134 175 210 260 322
#     4  10  20  36  55  74  99 139 182 222 269 322
#     4  11  20  30  48  80 104 136 175 209 250 312
#     4   9  18  32  51  74 101 132 170 213 263 320
#     4  10  21  36  52  74 103 138 178 226 276 316
#     4  10  20  36  51  71 108 144 170 208 267 322
#     4   8  16  34  51  64  93 133 170 211 248 286
#     4  10  18  31  48  73 107 139 172 205 249 318
#
# _framework density 18.297767
#
# number of rings (size 3 to 8) (size 9 to 14) (size 15 to 20)
#    0.000    2.375    1.250    2.250    0.000    4.250 
#   11.250    0.000    0.000    2.250    0.000    3.500 
#    0.000    0.000    0.000    5.500    0.000    3.750 
#
# Total GULP energy -1586127.750634 kJ/mol
# GULP energy per Si atom -12391.623052 kJ/mol
# Density = 1.825612 g / cm^3
# Si number density = 18.297767 Si / 1000 Ang^3
#
#
#
# Elastic Constant Matrix: (Units=GPa)
#
#
# Indices 1 2 3 4 5 6 
#
# 1 61.7192 20.4147 16.4351 0.0000 0.0000 0.0000
# 2 20.4147 61.7192 16.4352 0.0000 0.0000 0.0000
# 3 16.4351 16.4352 110.4600 0.0000 0.0000 0.0000
# 4 0.0000 0.0000 0.0000 13.6009 0.0000 0.0000
# 5 0.0000 0.0000 0.0000 0.0000 13.6010 0.0000
# 6 0.0000 0.0000 0.0000 0.0000 0.0000 16.2728
#
#
#
# Elastic Compliance Matrix: (Units=1/GPa)
#
#
# Indices 1 2 3 4 5 6 
#
# 1 0.018578 -0.005632 -0.001926 0.000000 0.000000 0.000000
# 2 -0.005632 0.018578 -0.001926 0.000000 0.000000 0.000000
# 3 -0.001926 -0.001926 0.009626 0.000000 0.000000 0.000000
# 4 0.000000 0.000000 0.000000 0.073524 0.000000 0.000000
# 5 0.000000 0.000000 0.000000 0.000000 0.073524 0.000000
# 6 0.000000 0.000000 0.000000 0.000000 0.000000 0.061452
#
#
# Mechanical properties :
#
#
# Convention : Reuss Voigt Hill
#
# Bulk Modulus (GPa) = 35.95367 37.82982 36.89174
# Shear Modulus (GPa) = 17.63518 20.73583 19.18550
#
# Velocity S-wave (km/s) = 3.10786 3.37002 3.24159
# Velocity P-wave (km/s) = 5.70704 5.98850 5.84946
#
# Compressibility (1/GPa) = 0.02781358
#
# Stress axis : x y z
#
# Youngs Moduli (GPa) = 53.82634 53.82630 103.88257
#
# Poissons Ratio (x) = 0.30316 0.20010
# Poissons Ratio (y) = 0.30316 0.20010
# Poissons Ratio (z) = 0.10368 0.10368
#
# Static dielectric constant tensor:
#      x y z
#    x 3.314850 0.000000 0.000000 
#    y 0.000000 3.314850 0.000000 
#    z 0.000000 0.000000 3.611170 
# 
# 
# High freq. dielectric constant tensor:
#      x y z
#    x 1.687440 0.000000 0.000000 
#    y 0.000000 1.687440 0.000000 
#    z 0.000000 0.000000 1.705670 
# 
# From -- ./inp_files/4375.got.cif
#   From: 2010.03.12/outbox.cif.g09.slc.cpg/sg125_3_cif.got.tgz:4375.got - 2010.04.06 16:47:52.
