data_PCOD8313747
_publ_section_title
;
Structure prediction by ZEFSAII (Michael W. Deem and Ramdas Pophale) SiO2 
 PCOD8313747
Probable space group: P 4/N N C
;
_chemical_formula_sum "Si O2"
_cell_formula_units_Z 88
_cell_length_a 11.985683
_cell_length_b 11.985683
_cell_length_c 30.925795
_cell_angle_alpha 90.000000
_cell_angle_beta 90.000000
_cell_angle_gamma 90.000000
_cell_volume 4442.694468
_symmetry_space_group_name_H-M "P 4/N N C"
_symmetry_group_IT_number 126
_space_group.IT_coordinate_system_code '2'
_symmetry_cell_setting 'tetragonal'
loop_
_space_group_symop_operation_xyz
x,y,z
1/2-y,x,z
1/2-x,1/2-y,z
y,1/2-x,z
x,1/2-y,1/2-z
1/2-x,y,1/2-z
y,x,1/2-z
1/2-y,1/2-x,1/2-z
-x,-y,-z
1/2+y,-x,-z
1/2+x,1/2+y,-z
-y,1/2+x,-z
-x,1/2+y,1/2+z
1/2+x,-y,1/2+z
-y,-x,1/2+z
1/2+y,1/2+x,1/2+z
loop_
_atom_site_type_symbol
_atom_site_label
_atom_site_fract_x
_atom_site_fract_y
_atom_site_fract_z
Si Si1 0.865226 0.015443 0.832754
Si Si2 0.763895 0.377594 0.121992
Si Si3 0.783626 0.931480 0.444888
Si Si4 0.478326 0.638707 0.873396
Si Si5 0.118336 0.118336 0.250000
Si Si6 0.286056 0.429101 0.457554
O O1 0.882503 0.149047 0.837717
O O2 0.734182 0.988086 0.838349
O O3 0.919944 0.960158 0.789913
O O4 0.930277 0.957804 0.872272
O O5 0.750000 0.250000 0.104875
O O6 0.805061 0.461413 0.084846
O O7 0.641843 0.413846 0.138622
O O8 0.661947 0.877957 0.436188
O O9 0.794444 0.976545 0.493902
O O10 0.474858 0.691016 0.921949
O O11 0.250000 0.095010 0.250000
O O12 0.164853 0.378692 0.450122
#
# Coordination Sequence:
#
# PCOD8313747 Si02
#       6
#    16  16  16  16   8  16
#     4  11  22  38  61  88 117 151 192 241 305 369
#     4  10  23  39  52  81 125 164 194 228 301 381
#     4   9  18  37  61  83 109 155 223 276 293 329
#     4  11  20  36  59  84 121 161 194 246 304 368
#     4  11  22  38  66 100 116 133 182 250 303 362
#     4   9  17  31  56  86 112 149 211 273 311 332
#
# _framework density 19.8078
#
# number of rings (size 3 to 8) (size 9 to 14) (size 15 to 20)
#    0.000    1.909    3.636    2.182    0.000    0.364 
#    6.545    3.636    0.000    0.000    0.000    0.000 
#    0.000    1.455    0.000    0.000    0.000    0.000 
#
# Total GULP energy -1090297.226883 kJ/mol
# GULP energy per Si atom -12389.741215 kJ/mol
# Density = 1.976272 g / cm^3
# Si number density = 19.807800 Si / 1000 Ang^3
#
#
#
# Elastic Constant Matrix: (Units=GPa)
#
#
# Indices 1 2 3 4 5 6 
#
# 1 97.6951 30.0678 43.3697 0.0000 0.0000 0.0000
# 2 30.0678 97.6951 43.3697 0.0000 0.0000 0.0000
# 3 43.3697 43.3697 105.7587 0.0000 0.0000 0.0000
# 4 0.0000 0.0000 0.0000 27.2493 0.0000 0.0000
# 5 0.0000 0.0000 0.0000 0.0000 27.2493 0.0000
# 6 0.0000 0.0000 0.0000 0.0000 0.0000 17.8774
#
#
#
# Elastic Compliance Matrix: (Units=1/GPa)
#
#
# Indices 1 2 3 4 5 6 
#
# 1 0.012817 -0.001970 -0.004448 0.000000 0.000000 0.000000
# 2 -0.001970 0.012817 -0.004448 0.000000 0.000000 0.000000
# 3 -0.004448 -0.004448 0.013104 0.000000 0.000000 0.000000
# 4 0.000000 0.000000 0.000000 0.036698 0.000000 0.000000
# 5 0.000000 0.000000 0.000000 0.000000 0.036698 0.000000
# 6 0.000000 0.000000 0.000000 0.000000 0.000000 0.055937
#
#
# Mechanical properties :
#
#
# Convention : Reuss Voigt Hill
#
# Bulk Modulus (GPa) = 58.80632 59.41815 59.11224
# Shear Modulus (GPa) = 25.57922 26.76465 26.17193
#
# Velocity S-wave (km/s) = 3.59746 3.67988 3.63890
# Velocity P-wave (km/s) = 6.85628 6.93670 6.89661
#
# Compressibility (1/GPa) = 0.01700497
#
# Stress axis : x y z
#
# Youngs Moduli (GPa) = 78.02204 78.02204 76.31463
#
# Poissons Ratio (x) = 0.15371 0.33945
# Poissons Ratio (y) = 0.15371 0.33945
# Poissons Ratio (z) = 0.34705 0.34705
#
# Static dielectric constant tensor:
#      x y z
#    x 3.597610 0.000000 0.000000 
#    y 0.000000 3.597610 0.000000 
#    z 0.000000 0.000000 3.380410 
# 
# 
# High freq. dielectric constant tensor:
#      x y z
#    x 1.767780 0.000000 0.000000 
#    y 0.000000 1.767780 0.000000 
#    z 0.000000 0.000000 1.746880 
# 
# From -- ./inp_files/6545.got.cif
#   From: 2010.03.12/outbox.cif.g09.slc.cpg/sg126_4_cif.got.tgz:6545.got - 2010.04.06 16:55:23.
