data_PCOD8313623
_publ_section_title
;
Structure prediction by ZEFSAII (Michael W. Deem and Ramdas Pophale) SiO2 
 PCOD8313623
Probable space group: P 4/N B M
;
_chemical_formula_sum "Si O2"
_cell_formula_units_Z 96
_cell_length_a 23.462072
_cell_length_b 23.462072
_cell_length_c 8.664526
_cell_angle_alpha 90.000000
_cell_angle_beta 90.000000
_cell_angle_gamma 90.000000
_cell_volume 4769.551425
_symmetry_space_group_name_H-M "P 4/N B M"
_symmetry_group_IT_number 125
_space_group.IT_coordinate_system_code '2'
_symmetry_cell_setting 'tetragonal'
loop_
_space_group_symop_operation_xyz
x,y,z
1/2-y,x,z
1/2-x,1/2-y,z
y,1/2-x,z
x,1/2-y,-z
1/2-x,y,-z
y,x,-z
1/2-y,1/2-x,-z
-x,-y,-z
1/2+y,-x,-z
1/2+x,1/2+y,-z
-y,1/2+x,-z
-x,1/2+y,z
1/2+x,-y,z
-y,-x,z
1/2+y,1/2+x,z
loop_
_atom_site_type_symbol
_atom_site_label
_atom_site_fract_x
_atom_site_fract_y
_atom_site_fract_z
Si Si1 0.749229 0.606596 0.327490
Si Si2 0.546487 0.364821 0.172383
Si Si3 0.124236 0.967977 0.177050
Si Si4 0.249083 0.523847 0.672571
Si Si5 0.569814 0.947661 0.678421
Si Si6 0.140547 0.356450 0.820685
O O1 0.750000 0.632723 0.500000
O O2 0.730373 0.541417 0.332805
O O3 0.809154 0.605439 0.243153
O O4 0.710234 0.646951 0.218693
O O5 0.610663 0.389338 0.166952
O O6 0.553346 0.299817 0.231249
O O7 0.511070 0.411104 0.274212
O O8 0.519350 0.363303 0.001832
O O9 0.092839 0.907162 0.203317
O O10 0.185367 0.967234 0.262084
O O11 0.080411 0.017214 0.229985
O O12 0.250000 0.549232 0.500000
O O13 0.553277 0.946724 0.500000
O O14 0.626653 0.913130 0.717172
O O15 0.131873 0.368128 0.000000
#
# Coordination Sequence:
#
# PCOD8313623 Si02
#       6
#    16  16  16  16  16  16
#     4  11  23  40  60  85 117 157 203 252 302 354
#     4  11  24  41  63  92 125 161 202 248 300 358
#     4  11  24  41  63  92 125 161 202 248 300 358
#     4  11  23  39  64  91 121 160 200 244 299 361
#     4  12  23  37  59  90 125 162 201 247 302 357
#     4  12  24  38  60  86 115 157 206 254 298 352
#
# _framework density 20.127679000000001
#
# number of rings (size 3 to 8) (size 9 to 14) (size 15 to 20)
#    0.000    0.667    3.333    5.500    0.000    6.333 
#    0.000    1.667    0.000    0.500    0.000    3.500 
#    0.000    0.000    0.000    0.000    0.000    0.000 
#
# Total GULP energy -1189905.919612 kJ/mol
# GULP energy per Si atom -12394.853329 kJ/mol
# Density = 2.008187 g / cm^3
# Si number density = 20.127679 Si / 1000 Ang^3
#
#
#
# Elastic Constant Matrix: (Units=GPa)
#
#
# Indices 1 2 3 4 5 6 
#
# 1 78.9377 35.0995 29.4569 0.0000 0.0000 0.0000
# 2 35.0995 78.9380 29.4568 0.0000 0.0000 0.0000
# 3 29.4569 29.4568 124.5388 0.0000 0.0000 0.0000
# 4 0.0000 0.0000 0.0000 21.2901 0.0000 0.0000
# 5 0.0000 0.0000 0.0000 0.0000 21.2902 0.0000
# 6 0.0000 0.0000 0.0000 0.0000 0.0000 24.7193
#
#
#
# Elastic Compliance Matrix: (Units=1/GPa)
#
#
# Indices 1 2 3 4 5 6 
#
# 1 0.016400 -0.006411 -0.002363 0.000000 0.000000 0.000000
# 2 -0.006411 0.016400 -0.002363 0.000000 0.000000 0.000000
# 3 -0.002363 -0.002363 0.009147 0.000000 0.000000 0.000000
# 4 0.000000 0.000000 0.000000 0.046970 0.000000 0.000000
# 5 0.000000 0.000000 0.000000 0.000000 0.046970 0.000000
# 6 0.000000 0.000000 0.000000 0.000000 0.000000 0.040454
#
#
# Mechanical properties :
#
#
# Convention : Reuss Voigt Hill
#
# Bulk Modulus (GPa) = 50.82470 52.27123 51.54797
# Shear Modulus (GPa) = 24.36958 26.02000 25.19479
#
# Velocity S-wave (km/s) = 3.48336 3.59938 3.54184
# Velocity P-wave (km/s) = 6.44083 6.58029 6.51094
#
# Compressibility (1/GPa) = 0.01967547
#
# Stress axis : x y z
#
# Youngs Moduli (GPa) = 60.97385 60.97422 109.32087
#
# Poissons Ratio (x) = 0.39089 0.25831
# Poissons Ratio (y) = 0.39088 0.25831
# Poissons Ratio (z) = 0.14407 0.14407
#
# Static dielectric constant tensor:
#      x y z
#    x 3.628150 0.000000 0.000000 
#    y 0.000000 3.628140 0.000000 
#    z 0.000000 0.000000 3.389560 
# 
# 
# High freq. dielectric constant tensor:
#      x y z
#    x 1.776330 0.000000 0.000000 
#    y 0.000000 1.776330 0.000000 
#    z 0.000000 0.000000 1.801080 
# 
# From -- ./inp_files/2878.got.cif
#   From: 2010.03.12/outbox.cif.g09.slc.cpg/sg125_2_cif.got.tgz:2878.got - 2010.04.06 16:47:52.
