data_PCOD8313593
_publ_section_title
;
Structure prediction by ZEFSAII (Michael W. Deem and Ramdas Pophale) SiO2 
 PCOD8313593
Probable space group: P 4/N B M
;
_chemical_formula_sum "Si O2"
_cell_formula_units_Z 80
_cell_length_a 13.686806
_cell_length_b 13.686806
_cell_length_c 23.489512
_cell_angle_alpha 90.000000
_cell_angle_beta 90.000000
_cell_angle_gamma 90.000000
_cell_volume 4400.258771
_symmetry_space_group_name_H-M "P 4/N B M"
_symmetry_group_IT_number 125
_space_group.IT_coordinate_system_code '2'
_symmetry_cell_setting 'tetragonal'
loop_
_space_group_symop_operation_xyz
x,y,z
1/2-y,x,z
1/2-x,1/2-y,z
y,1/2-x,z
x,1/2-y,-z
1/2-x,y,-z
y,x,-z
1/2-y,1/2-x,-z
-x,-y,-z
1/2+y,-x,-z
1/2+x,1/2+y,-z
-y,1/2+x,-z
-x,1/2+y,z
1/2+x,-y,z
-y,-x,z
1/2+y,1/2+x,z
loop_
_atom_site_type_symbol
_atom_site_label
_atom_site_fract_x
_atom_site_fract_y
_atom_site_fract_z
Si Si1 0.604189 0.680390 0.646969
Si Si2 0.839284 0.997773 0.828522
Si Si3 0.511293 0.649054 0.529352
Si Si4 0.357164 0.017391 0.231692
Si Si5 0.262920 0.410536 0.062480
O O1 0.704627 0.621637 0.643177
O O2 0.530113 0.654980 0.596519
O O3 0.555519 0.643412 0.704501
O O4 0.753201 0.010595 0.783398
O O5 0.900324 0.900835 0.811179
O O6 0.785483 0.991431 0.889995
O O7 0.907276 0.092725 0.827423
O O8 0.482909 0.750000 0.500000
O O9 0.609842 0.609842 0.500000
O O10 0.421345 0.578656 0.517039
O O11 0.420245 0.920245 0.227305
O O12 0.162557 0.353196 0.070061
O O13 0.250000 0.459845 0.000000
#
# Coordination Sequence:
#
# PCOD8313593 Si02
#       5
#    16  16  16  16  16
#     4  11  21  36  63  92 118 151 196 254 307 347
#     4  11  22  37  60  87 118 159 201 243 298 359
#     4  11  23  40  62  87 121 160 199 245 297 360
#     4  11  23  39  59  86 121 158 197 246 298 355
#     4   9  17  32  57  86 115 145 192 248 296 340
#
# _framework density 18.18075
#
# number of rings (size 3 to 8) (size 9 to 14) (size 15 to 20)
#    0.000    1.400    6.000    1.200    0.000    1.200 
#    0.000    4.000    0.000    2.400    0.000    0.000 
#    0.000    0.000    0.000    0.000    0.000    0.000 
#
# Total GULP energy -991797.955367 kJ/mol
# GULP energy per Si atom -12397.474442 kJ/mol
# Density = 1.813937 g / cm^3
# Si number density = 18.180750 Si / 1000 Ang^3
#
#
#
# Elastic Constant Matrix: (Units=GPa)
#
#
# Indices 1 2 3 4 5 6 
#
# 1 86.1540 37.3914 32.9978 0.0000 0.0000 0.0000
# 2 37.3914 86.1540 32.9978 0.0000 0.0000 0.0000
# 3 32.9978 32.9978 125.4383 0.0000 0.0000 0.0000
# 4 0.0000 0.0000 0.0000 25.3184 0.0000 0.0000
# 5 0.0000 0.0000 0.0000 0.0000 25.3184 0.0000
# 6 0.0000 0.0000 0.0000 0.0000 0.0000 10.5324
#
#
#
# Elastic Compliance Matrix: (Units=1/GPa)
#
#
# Indices 1 2 3 4 5 6 
#
# 1 0.014963 -0.005545 -0.002477 0.000000 0.000000 0.000000
# 2 -0.005545 0.014963 -0.002477 0.000000 0.000000 0.000000
# 3 -0.002477 -0.002477 0.009275 0.000000 0.000000 0.000000
# 4 0.000000 0.000000 0.000000 0.039497 0.000000 0.000000
# 5 0.000000 0.000000 0.000000 0.000000 0.039497 0.000000
# 6 0.000000 0.000000 0.000000 0.000000 0.000000 0.094945
#
#
# Mechanical properties :
#
#
# Convention : Reuss Voigt Hill
#
# Bulk Modulus (GPa) = 54.94195 56.05783 55.49989
# Shear Modulus (GPa) = 20.81548 25.19115 23.00331
#
# Velocity S-wave (km/s) = 3.38734 3.72640 3.56090
# Velocity P-wave (km/s) = 6.75161 7.02960 6.89200
#
# Compressibility (1/GPa) = 0.01820103
#
# Stress axis : x y z
#
# Youngs Moduli (GPa) = 66.83358 66.83358 107.81149
#
# Poissons Ratio (x) = 0.37059 0.26709
# Poissons Ratio (y) = 0.37059 0.26709
# Poissons Ratio (z) = 0.16557 0.16557
#
# Static dielectric constant tensor:
#      x y z
#    x 3.192720 0.000000 0.000000 
#    y 0.000000 3.192720 0.000000 
#    z 0.000000 0.000000 3.531030 
# 
# 
# High freq. dielectric constant tensor:
#      x y z
#    x 1.691770 0.000000 0.000000 
#    y 0.000000 1.691770 0.000000 
#    z 0.000000 0.000000 1.723160 
# 
# From -- ./inp_files/5807.got.cif
#   From: 2010.03.12/outbox.cif.g09.slc.cpg/sg125_3_cif.got.tgz:5807.got - 2010.04.06 16:47:52.
