data_PCOD8313071
_publ_section_title
;
Structure prediction by ZEFSAII (Michael W. Deem and Ramdas Pophale) SiO2 
 PCOD8313071
Probable space group: P 4/M C C
;
_chemical_formula_sum "Si O2"
_cell_formula_units_Z 96
_cell_length_a 27.051777
_cell_length_b 27.051777
_cell_length_c 8.651743
_cell_angle_alpha 90.000000
_cell_angle_beta 90.000000
_cell_angle_gamma 90.000000
_cell_volume 6331.333751
_symmetry_space_group_name_H-M "P 4/M C C"
_symmetry_group_IT_number 124
_symmetry_cell_setting 'tetragonal'
loop_
_space_group_symop_operation_xyz
x,y,z
-y,x,z
-x,-y,z
y,-x,z
x,-y,1/2-z
-x,y,1/2-z
y,x,1/2-z
-y,-x,1/2-z
-x,-y,-z
y,-x,-z
x,y,-z
-y,x,-z
-x,y,1/2+z
x,-y,1/2+z
-y,-x,1/2+z
y,x,1/2+z
loop_
_atom_site_type_symbol
_atom_site_label
_atom_site_fract_x
_atom_site_fract_y
_atom_site_fract_z
Si Si1 0.272109 0.549646 0.327980
Si Si2 0.344154 0.266626 0.817085
Si Si3 0.805213 0.727666 0.815936
Si Si4 0.875210 0.202750 0.815714
Si Si5 0.452877 0.612517 0.166544
Si Si6 0.868544 0.053807 0.184481
O O1 0.248613 0.500000 0.250000
O O2 0.248968 0.557015 0.500000
O O3 0.265511 0.598047 0.223227
O O4 0.329612 0.540678 0.345335
O O5 0.314212 0.314212 0.750000
O O6 0.324645 0.214501 0.747046
O O7 0.336980 0.267843 0.000000
O O8 0.766847 0.766847 0.750000
O O9 0.859349 0.742732 0.747630
O O10 0.806607 0.728064 0.000000
O O11 0.835688 0.164313 0.750000
O O12 0.927965 0.185238 0.747395
O O13 0.876239 0.202232 0.000000
O O14 0.500000 0.588588 0.250000
O O15 0.401731 0.598270 0.250000
O O16 0.450039 0.587938 0.000000
O O17 0.911334 0.088667 0.250000
O O18 0.879062 0.000000 0.250000
O O19 0.869198 0.054195 0.000000
#
# Coordination Sequence:
#
# PCOD8313071 Si02
#       6
#    16  16  16  16  16  16
#     4  10  20  33  46  60  77 100 126 155 190 234
#     4  11  20  30  44  63  84 106 132 166 203 244
#     4  10  17  27  42  62  85 108 133 166 206 251
#     4  10  17  28  44  63  85 111 140 175 217 263
#     4  10  20  32  45  57  70  86 110 142 181 224
#     4  11  21  34  48  65  86 115 153 195 237 275
#
# _framework density 15.162682
#
# number of rings (size 3 to 8) (size 9 to 14) (size 15 to 20)
#    0.000    1.667    0.000   10.500    0.000    3.667 
#    0.000    1.667    0.000    0.000    0.000    0.000 
#    0.000    0.000    0.000    0.000    0.000    0.833 
#
# Total GULP energy -1189526.428154 kJ/mol
# GULP energy per Si atom -12390.900293 kJ/mol
# Density = 1.512817 g / cm^3
# Si number density = 15.162682 Si / 1000 Ang^3
#
#
#
# Elastic Constant Matrix: (Units=GPa)
#
#
# Indices 1 2 3 4 5 6 
#
# 1 50.4871 46.7251 37.1291 0.0000 0.0000 0.0000
# 2 46.7251 50.4895 37.1298 0.0000 0.0000 0.0000
# 3 37.1291 37.1298 166.7218 0.0000 0.0000 0.0000
# 4 0.0000 0.0000 0.0000 19.7499 0.0000 0.0000
# 5 0.0000 0.0000 0.0000 0.0000 19.7500 0.0000
# 6 0.0000 0.0000 0.0000 0.0000 0.0000 19.3052
#
#
#
# Elastic Compliance Matrix: (Units=1/GPa)
#
#
# Indices 1 2 3 4 5 6 
#
# 1 0.139066 -0.126667 -0.002761 0.000000 0.000000 0.000000
# 2 -0.126667 0.139059 -0.002760 0.000000 0.000000 0.000000
# 3 -0.002761 -0.002760 0.007228 0.000000 0.000000 0.000000
# 4 0.000000 0.000000 0.000000 0.050633 0.000000 0.000000
# 5 0.000000 0.000000 0.000000 0.000000 0.050633 0.000000
# 6 0.000000 0.000000 0.000000 0.000000 0.000000 0.051799
#
#
# Mechanical properties :
#
#
# Convention : Reuss Voigt Hill
#
# Bulk Modulus (GPa) = 47.67294 56.62960 52.15127
# Shear Modulus (GPa) = 7.04437 21.54200 14.29319
#
# Velocity S-wave (km/s) = 2.15776 3.77334 3.07360
# Velocity P-wave (km/s) = 6.14143 7.51087 6.86041
#
# Compressibility (1/GPa) = 0.02097626
#
# Stress axis : x y z
#
# Youngs Moduli (GPa) = 7.19083 7.19119 138.35960
#
# Poissons Ratio (x) = 0.91089 0.38197
# Poissons Ratio (y) = 0.91084 0.38190
# Poissons Ratio (z) = 0.01985 0.01985
#
# Static dielectric constant tensor:
#      x y z
#    x 3.282370 0.000000 0.000000 
#    y 0.000000 3.282150 0.000000 
#    z 0.000000 0.000000 3.270940 
# 
# 
# High freq. dielectric constant tensor:
#      x y z
#    x 1.546360 0.000000 0.000000 
#    y 0.000000 1.546360 0.000000 
#    z 0.000000 0.000000 1.612170 
# 
# From -- ./inp_files/1540.got.cif
#   From: 2010.03.12/outbox.cif.g09.slc.cpg/sg124_1_cif.got.tgz:1540.got - 2010.04.06 16:38:57.
