data_PCOD8313500
_publ_section_title
;
Structure prediction by ZEFSAII (Michael W. Deem and Ramdas Pophale) SiO2 
 PCOD8313500
Probable space group: P 4/N B M
;
_chemical_formula_sum "Si O2"
_cell_formula_units_Z 72
_cell_length_a 18.141983
_cell_length_b 18.141983
_cell_length_c 10.105180
_cell_angle_alpha 90.000000
_cell_angle_beta 90.000000
_cell_angle_gamma 90.000000
_cell_volume 3325.933528
_symmetry_space_group_name_H-M "P 4/N B M"
_symmetry_group_IT_number 125
_space_group.IT_coordinate_system_code '2'
_symmetry_cell_setting 'tetragonal'
loop_
_space_group_symop_operation_xyz
x,y,z
1/2-y,x,z
1/2-x,1/2-y,z
y,1/2-x,z
x,1/2-y,-z
1/2-x,y,-z
y,x,-z
1/2-y,1/2-x,-z
-x,-y,-z
1/2+y,-x,-z
1/2+x,1/2+y,-z
-y,1/2+x,-z
-x,1/2+y,z
1/2+x,-y,z
-y,-x,z
1/2+y,1/2+x,z
loop_
_atom_site_type_symbol
_atom_site_label
_atom_site_fract_x
_atom_site_fract_y
_atom_site_fract_z
Si Si1 0.662612 0.662612 0.500000
Si Si2 0.611025 0.388976 0.460688
Si Si3 0.985961 0.485961 0.846250
Si Si4 0.905827 0.094174 0.753281
Si Si5 0.687821 0.312179 0.232059
Si Si6 0.646576 0.531939 0.314952
Si Si7 0.539318 0.242570 0.145720
O O1 0.750000 0.646605 0.500000
O O2 0.635707 0.615307 0.371313
O O3 0.625291 0.374710 0.615133
O O4 0.665244 0.334757 0.381346
O O5 0.629301 0.474602 0.432832
O O6 0.902576 0.508928 0.812219
O O7 0.032325 0.532325 0.738697
O O8 0.000000 0.500000 0.000000
O O9 0.944992 0.157349 0.835364
O O10 0.750000 0.250000 0.237518
O O11 0.616668 0.285541 0.153045
O O12 0.728997 0.518924 0.256976
O O13 0.504594 0.250000 0.000000
#
# Coordination Sequence:
#
# PCOD8313500 Si02
#       7
#     8   8   8   8   8  16  16
#     4  11  26  45  70  96 128 167 226 283 358 412
#     4   9  22  39  61  97 130 168 216 267 327 397
#     4  11  23  42  67 101 130 172 223 273 325 396
#     4  12  23  36  66  93 124 176 222 271 331 393
#     4  10  20  37  54  87 139 183 216 264 316 394
#     4  10  23  43  67  94 137 167 213 280 334 393
#     4  11  23  39  60  94 131 179 221 262 326 404
#
# _framework density 21.648057000000001
#
# number of rings (size 3 to 8) (size 9 to 14) (size 15 to 20)
#    0.000    1.444    1.111    4.000    6.222    4.444 
#    2.000    0.000    0.000    0.000    0.000    0.000 
#    0.000    0.000    0.000    0.000    0.000    0.000 
#
# Total GULP energy -892443.697434 kJ/mol
# GULP energy per Si atom -12395.051353 kJ/mol
# Density = 2.159879 g / cm^3
# Si number density = 21.648057 Si / 1000 Ang^3
#
#
#
# Elastic Constant Matrix: (Units=GPa)
#
#
# Indices 1 2 3 4 5 6 
#
# 1 215.4847 -94.2848 29.5524 0.0000 0.0000 0.0000
# 2 -94.2848 215.4847 29.5524 0.0000 0.0000 0.0000
# 3 29.5524 29.5524 124.5885 0.0000 0.0000 0.0000
# 4 0.0000 0.0000 0.0000 26.4043 0.0000 0.0000
# 5 0.0000 0.0000 0.0000 0.0000 26.4043 0.0000
# 6 0.0000 0.0000 0.0000 0.0000 0.0000 31.9340
#
#
#
# Elastic Compliance Matrix: (Units=1/GPa)
#
#
# Indices 1 2 3 4 5 6 
#
# 1 0.006279 0.003051 -0.002213 0.000000 0.000000 0.000000
# 2 0.003051 0.006279 -0.002213 0.000000 0.000000 0.000000
# 3 -0.002213 -0.002213 0.009076 0.000000 0.000000 0.000000
# 4 0.000000 0.000000 0.000000 0.037873 0.000000 0.000000
# 5 0.000000 0.000000 0.000000 0.000000 0.037873 0.000000
# 6 0.000000 0.000000 0.000000 0.000000 0.000000 0.031315
#
#
# Mechanical properties :
#
#
# Convention : Reuss Voigt Hill
#
# Bulk Modulus (GPa) = 52.95461 53.91087 53.43274
# Shear Modulus (GPa) = 36.30038 56.33104 46.31571
#
# Velocity S-wave (km/s) = 4.09937 5.10664 4.63048
# Velocity P-wave (km/s) = 6.84990 7.72837 7.30236
#
# Compressibility (1/GPa) = 0.01888410
#
# Stress axis : x y z
#
# Youngs Moduli (GPa) = 159.25737 159.25737 110.17683
#
# Poissons Ratio (x) = -0.48588 0.24383
# Poissons Ratio (y) = -0.48588 0.24383
# Poissons Ratio (z) = 0.35245 0.35245
#
# Static dielectric constant tensor:
#      x y z
#    x 4.090030 0.000000 0.000000 
#    y 0.000000 4.090030 0.000000 
#    z 0.000000 0.000000 3.586680 
# 
# 
# High freq. dielectric constant tensor:
#      x y z
#    x 1.848960 0.000000 0.000000 
#    y 0.000000 1.848960 0.000000 
#    z 0.000000 0.000000 1.842530 
# 
# From -- ./inp_files/2656.got.cif
#   From: 2010.03.12/outbox.cif.g09.slc.cpg/sg125_2_cif.got.tgz:2656.got - 2010.04.06 16:47:52.
