data_PCOD8313596
_publ_section_title
;
Structure prediction by ZEFSAII (Michael W. Deem and Ramdas Pophale) SiO2 
 PCOD8313596
Probable space group: P 4/N B M
;
_chemical_formula_sum "Si O2"
_cell_formula_units_Z 112
_cell_length_a 15.208639
_cell_length_b 15.208639
_cell_length_c 25.642811
_cell_angle_alpha 90.000000
_cell_angle_beta 90.000000
_cell_angle_gamma 90.000000
_cell_volume 5931.251426
_symmetry_space_group_name_H-M "P 4/N B M"
_symmetry_group_IT_number 125
_space_group.IT_coordinate_system_code '2'
_symmetry_cell_setting 'tetragonal'
loop_
_space_group_symop_operation_xyz
x,y,z
1/2-y,x,z
1/2-x,1/2-y,z
y,1/2-x,z
x,1/2-y,-z
1/2-x,y,-z
y,x,-z
1/2-y,1/2-x,-z
-x,-y,-z
1/2+y,-x,-z
1/2+x,1/2+y,-z
-y,1/2+x,-z
-x,1/2+y,z
1/2+x,-y,z
-y,-x,z
1/2+y,1/2+x,z
loop_
_atom_site_type_symbol
_atom_site_label
_atom_site_fract_x
_atom_site_fract_y
_atom_site_fract_z
Si Si1 0.323167 0.823167 0.254707
Si Si2 0.239562 0.495197 0.291295
Si Si3 0.233357 0.109482 0.195474
Si Si4 0.217385 0.579623 0.945204
Si Si5 0.110726 0.277435 0.075967
Si Si6 0.323964 0.676037 0.864613
Si Si7 0.934027 0.581662 0.658542
Si Si8 0.647325 0.851786 0.441014
O O1 0.250000 0.750000 0.250033
O O2 0.402787 0.785771 0.289338
O O3 0.350746 0.850746 0.194870
O O4 0.270884 0.474520 0.232411
O O5 0.155268 0.437904 0.309257
O O6 0.324018 0.476005 0.327098
O O7 0.325393 0.154669 0.208746
O O8 0.223127 0.082279 0.136006
O O9 0.125780 0.625780 0.930006
O O10 0.200968 0.476655 0.955606
O O11 0.287016 0.593341 0.897871
O O12 0.250000 0.620284 0.000000
O O13 0.149137 0.182104 0.061454
O O14 0.250000 0.750000 0.864632
O O15 0.909133 0.586941 0.597495
O O16 0.004535 0.504535 0.668050
O O17 0.628263 0.749481 0.430758
O O18 0.622056 0.877945 0.500000
#
# Coordination Sequence:
#
# PCOD8313596 Si02
#       8
#     8  16  16  16  16   8  16  16
#     4  11  24  42  58  80 122 165 197 237 307 370
#     4  12  22  37  59  86 122 155 201 255 296 362
#     4   9  17  32  58  85 112 146 186 232 291 350
#     4  11  21  38  62  86 111 143 189 239 286 343
#     4   9  20  39  59  83 115 150 184 227 288 354
#     4   9  20  38  64  83 109 158 193 236 296 355
#     4  12  24  37  58  92 121 164 212 251 310 365
#     4   9  18  35  61  89 118 157 205 261 318 364
#
# _framework density 18.883030999999999
#
# number of rings (size 3 to 8) (size 9 to 14) (size 15 to 20)
#    0.000    1.714    4.286    2.571    0.000    1.143 
#    1.286    2.143    4.714    0.000    0.000    0.000 
#    0.000    2.286    0.000    0.000    0.000    0.000 
#
# Total GULP energy -1388232.509309 kJ/mol
# GULP energy per Si atom -12394.933119 kJ/mol
# Density = 1.884005 g / cm^3
# Si number density = 18.883031 Si / 1000 Ang^3
#
#
#
# Elastic Constant Matrix: (Units=GPa)
#
#
# Indices 1 2 3 4 5 6 
#
# 1 92.7563 36.9778 26.2860 0.0000 0.0000 0.0000
# 2 36.9778 92.7563 26.2860 0.0000 0.0000 0.0000
# 3 26.2860 26.2860 79.9391 0.0000 0.0000 0.0000
# 4 0.0000 0.0000 0.0000 20.6269 0.0000 0.0000
# 5 0.0000 0.0000 0.0000 0.0000 20.6270 0.0000
# 6 0.0000 0.0000 0.0000 0.0000 0.0000 20.9795
#
#
#
# Elastic Compliance Matrix: (Units=1/GPa)
#
#
# Indices 1 2 3 4 5 6 
#
# 1 0.013411 -0.004517 -0.002924 0.000000 0.000000 0.000000
# 2 -0.004517 0.013411 -0.002924 0.000000 0.000000 0.000000
# 3 -0.002924 -0.002924 0.014433 0.000000 0.000000 0.000000
# 4 0.000000 0.000000 0.000000 0.048480 0.000000 0.000000
# 5 0.000000 0.000000 0.000000 0.000000 0.048480 0.000000
# 6 0.000000 0.000000 0.000000 0.000000 0.000000 0.047666
#
#
# Mechanical properties :
#
#
# Convention : Reuss Voigt Hill
#
# Bulk Modulus (GPa) = 48.72879 49.39458 49.06168
# Shear Modulus (GPa) = 23.42442 24.17348 23.79895
#
# Velocity S-wave (km/s) = 3.52590 3.58183 3.55397
# Velocity P-wave (km/s) = 6.51441 6.58187 6.54822
#
# Compressibility (1/GPa) = 0.02052175
#
# Stress axis : x y z
#
# Youngs Moduli (GPa) = 74.56810 74.56813 69.28728
#
# Poissons Ratio (x) = 0.33686 0.20261
# Poissons Ratio (y) = 0.33686 0.20261
# Poissons Ratio (z) = 0.21806 0.21806
#
# Static dielectric constant tensor:
#      x y z
#    x 3.288140 0.000000 0.000000 
#    y 0.000000 3.288130 0.000000 
#    z 0.000000 0.000000 3.511930 
# 
# 
# High freq. dielectric constant tensor:
#      x y z
#    x 1.721660 0.000000 0.000000 
#    y 0.000000 1.721660 0.000000 
#    z 0.000000 0.000000 1.738000 
# 
# From -- ./inp_files/6466.got.cif
#   From: 2010.03.12/outbox.cif.g09.slc.cpg/sg125_4_cif.got.tgz:6466.got - 2010.04.06 16:47:52.
