data_PCOD8313020
_publ_section_title
;
Structure prediction by ZEFSAII (Michael W. Deem and Ramdas Pophale) SiO2 
 PCOD8313020
Probable space group: P 4/M M M
;
_chemical_formula_sum "Si O2"
_cell_formula_units_Z 88
_cell_length_a 14.255740
_cell_length_b 14.255740
_cell_length_c 27.836666
_cell_angle_alpha 90.000000
_cell_angle_beta 90.000000
_cell_angle_gamma 90.000000
_cell_volume 5657.137707
_symmetry_space_group_name_H-M "P 4/M M M"
_symmetry_group_IT_number 123
_symmetry_cell_setting 'tetragonal'
loop_
_space_group_symop_operation_xyz
x,y,z
-y,x,z
-x,-y,z
y,-x,z
x,-y,-z
-x,y,-z
y,x,-z
-y,-x,-z
-x,-y,-z
y,-x,-z
x,y,-z
-y,x,-z
-x,y,z
x,-y,z
-y,-x,z
y,x,z
loop_
_atom_site_type_symbol
_atom_site_label
_atom_site_fract_x
_atom_site_fract_y
_atom_site_fract_z
Si Si1 0.390732 0.237581 0.831508
Si Si2 0.894911 0.745978 0.000000
Si Si3 0.242941 0.393172 0.721614
Si Si4 0.107948 0.258998 0.553945
Si Si5 0.111019 0.733136 0.895167
Si Si6 0.608155 0.892106 0.361689
O O1 0.500000 0.253598 0.844946
O O2 0.333886 0.333886 0.842627
O O3 0.379048 0.208070 0.776038
O O4 0.348371 0.150740 0.861132
O O5 0.873217 0.692333 0.050228
O O6 0.843279 0.843279 0.000000
O O7 0.000000 0.779796 0.000000
O O8 0.269363 0.500000 0.711417
O O9 0.336729 0.336729 0.710862
O O10 0.161887 0.357844 0.685878
O O11 0.124659 0.298052 0.500000
O O12 0.163479 0.163479 0.562900
O O13 0.143550 0.336982 0.591328
O O14 0.000000 0.234010 0.562561
O O15 0.169657 0.830344 0.887378
O O16 0.000000 0.750452 0.884539
O O17 0.500000 0.873437 0.372882
O O18 0.628975 0.000000 0.350973
#
# Coordination Sequence:
#
# PCOD8313020 Si02
#       6
#    16   8  16  16  16  16
#     4   9  18  31  46  65  87 112 144 180 218 258
#     4   8  14  25  41  61  86 114 142 174 211 250
#     4   9  17  29  45  64  85 108 135 169 208 249
#     4   9  17  28  42  60  81 106 136 169 204 240
#     4   9  17  29  45  66  91 117 145 176 211 253
#     4   9  17  28  42  61  84 109 136 165 199 241
#
# _framework density 15.555569999999999
#
# number of rings (size 3 to 8) (size 9 to 14) (size 15 to 20)
#    0.000    3.091    0.000    0.545    0.000    2.273 
#    0.000    8.636    0.000    1.636    0.000    0.000 
#    0.000    8.000    0.000   16.909    0.000    0.545 
#
# Total GULP energy -1090505.917127 kJ/mol
# GULP energy per Si atom -12392.112695 kJ/mol
# Density = 1.552016 g / cm^3
# Si number density = 15.555570 Si / 1000 Ang^3
#
#
#
# Elastic Constant Matrix: (Units=GPa)
#
#
# Indices 1 2 3 4 5 6 
#
# 1 79.7291 46.4523 61.4391 0.0000 0.0000 0.0000
# 2 46.4523 79.7291 61.4391 0.0000 0.0000 0.0000
# 3 61.4391 61.4391 113.5228 0.0000 0.0000 0.0000
# 4 0.0000 0.0000 0.0000 25.3432 0.0000 0.0000
# 5 0.0000 0.0000 0.0000 0.0000 25.3432 0.0000
# 6 0.0000 0.0000 0.0000 0.0000 0.0000 19.2120
#
#
#
# Elastic Compliance Matrix: (Units=1/GPa)
#
#
# Indices 1 2 3 4 5 6 
#
# 1 0.023404 -0.006647 -0.009069 0.000000 0.000000 0.000000
# 2 -0.006647 0.023404 -0.009069 0.000000 0.000000 0.000000
# 3 -0.009069 -0.009069 0.018625 0.000000 0.000000 0.000000
# 4 0.000000 0.000000 0.000000 0.039458 0.000000 0.000000
# 5 0.000000 0.000000 0.000000 0.000000 0.039458 0.000000
# 6 0.000000 0.000000 0.000000 0.000000 0.000000 0.052051
#
#
# Mechanical properties :
#
#
# Convention : Reuss Voigt Hill
#
# Bulk Modulus (GPa) = 63.03995 67.96024 65.50010
# Shear Modulus (GPa) = 19.90002 20.88971 20.39486
#
# Velocity S-wave (km/s) = 3.58059 3.66855 3.62484
# Velocity P-wave (km/s) = 7.59656 7.85671 7.72773
#
# Compressibility (1/GPa) = 0.01586296
#
# Stress axis : x y z
#
# Youngs Moduli (GPa) = 42.72841 42.72841 53.69199
#
# Poissons Ratio (x) = 0.28403 0.48691
# Poissons Ratio (y) = 0.28403 0.48691
# Poissons Ratio (z) = 0.38749 0.38749
#
# Static dielectric constant tensor:
#      x y z
#    x 2.905490 0.000000 0.000000 
#    y 0.000000 2.905490 0.000000 
#    z 0.000000 0.000000 3.287030 
# 
# 
# High freq. dielectric constant tensor:
#      x y z
#    x 1.585880 0.000000 0.000000 
#    y 0.000000 1.585880 0.000000 
#    z 0.000000 0.000000 1.608000 
# 
# From -- ./inp_files/7968.got.cif
#   From: 2010.03.12/outbox.cif.g09.slc.cpg/sg123_4_cif.got.tgz:7968.got - 2010.04.06 16:26:55.
