data_PCOD8313196
_publ_section_title
;
Structure prediction by ZEFSAII (Michael W. Deem and Ramdas Pophale) SiO2 
 PCOD8313196
Probable space group: P 4/M C C
;
_chemical_formula_sum "Si O2"
_cell_formula_units_Z 64
_cell_length_a 19.102991
_cell_length_b 19.102991
_cell_length_c 9.034530
_cell_angle_alpha 90.000000
_cell_angle_beta 90.000000
_cell_angle_gamma 90.000000
_cell_volume 3296.919221
_symmetry_space_group_name_H-M "P 4/M C C"
_symmetry_group_IT_number 124
_symmetry_cell_setting 'tetragonal'
loop_
_space_group_symop_operation_xyz
x,y,z
-y,x,z
-x,-y,z
y,-x,z
x,-y,1/2-z
-x,y,1/2-z
y,x,1/2-z
-y,-x,1/2-z
-x,-y,-z
y,-x,-z
x,y,-z
-y,x,-z
-x,y,1/2+z
x,-y,1/2+z
-y,-x,1/2+z
y,x,1/2+z
loop_
_atom_site_type_symbol
_atom_site_label
_atom_site_fract_x
_atom_site_fract_y
_atom_site_fract_z
Si Si1 0.211226 0.687395 0.670879
Si Si2 0.156951 0.934204 0.663146
Si Si3 0.671597 0.571501 0.170671
Si Si4 0.678426 0.068270 0.333761
O O1 0.244342 0.755659 0.750000
O O2 0.197991 0.707344 0.500000
O O3 0.262811 0.622443 0.687879
O O4 0.138992 0.661995 0.744456
O O5 0.136400 0.863601 0.750000
O O6 0.124205 0.931769 0.500000
O O7 0.239305 0.940827 0.655036
O O8 0.124324 0.000000 0.750000
O O9 0.692705 0.500000 0.250000
O O10 0.603688 0.603688 0.250000
O O11 0.653131 0.557843 0.000000
O O12 0.646430 0.072790 0.500000
O O13 0.646527 0.000000 0.250000
#
# Coordination Sequence:
#
# PCOD8313196 Si02
#       4
#    16  16  16  16
#     4  10  20  34  54  80 109 142 181 224 271 323
#     4  10  20  32  45  62  85 115 153 198 249 306
#     4  10  21  37  58  85 117 151 186 223 263 312
#     4  10  20  33  51  74 101 133 170 217 270 322
#
# _framework density 19.412061000000001
#
# number of rings (size 3 to 8) (size 9 to 14) (size 15 to 20)
#    0.000    2.000    0.000    3.750    0.000    8.500 
#    0.000    2.500    0.000    0.750    0.000    5.250 
#    0.000    0.000    0.000    0.000    0.000    0.000 
#
# Total GULP energy -793629.271152 kJ/mol
# GULP energy per Si atom -12400.457362 kJ/mol
# Density = 1.936788 g / cm^3
# Si number density = 19.412061 Si / 1000 Ang^3
#
#
#
# Elastic Constant Matrix: (Units=GPa)
#
#
# Indices 1 2 3 4 5 6 
#
# 1 73.3822 7.4180 47.7215 0.0000 0.0000 0.0000
# 2 7.4180 73.3810 47.7186 0.0000 0.0000 0.0000
# 3 47.7215 47.7186 189.4985 0.0000 0.0000 0.0000
# 4 0.0000 0.0000 0.0000 29.9555 0.0000 0.0000
# 5 0.0000 0.0000 0.0000 0.0000 29.9555 0.0000
# 6 0.0000 0.0000 0.0000 0.0000 0.0000 12.2771
#
#
#
# Elastic Compliance Matrix: (Units=1/GPa)
#
#
# Indices 1 2 3 4 5 6 
#
# 1 0.016388 0.001228 -0.004436 0.000000 0.000000 0.000000
# 2 0.001228 0.016388 -0.004436 0.000000 0.000000 0.000000
# 3 -0.004436 -0.004436 0.007511 0.000000 0.000000 0.000000
# 4 0.000000 0.000000 0.000000 0.033383 0.000000 0.000000
# 5 0.000000 0.000000 0.000000 0.000000 0.033383 0.000000
# 6 0.000000 0.000000 0.000000 0.000000 0.000000 0.081452
#
#
# Mechanical properties :
#
#
# Convention : Reuss Voigt Hill
#
# Bulk Modulus (GPa) = 40.00128 60.21975 50.11052
# Shear Modulus (GPa) = 23.57081 29.99787 26.78434
#
# Velocity S-wave (km/s) = 3.48837 3.93532 3.71857
# Velocity P-wave (km/s) = 6.07257 7.19293 6.65636
#
# Compressibility (1/GPa) = 0.02499920
#
# Stress axis : x y z
#
# Youngs Moduli (GPa) = 61.01982 61.02004 133.13187
#
# Poissons Ratio (x) = -0.07494 0.59061
# Poissons Ratio (y) = -0.07494 0.59058
# Poissons Ratio (z) = 0.27070 0.27069
#
# Static dielectric constant tensor:
#      x y z
#    x 3.334930 0.000000 0.000000 
#    y 0.000000 3.334930 0.000000 
#    z 0.000000 0.000000 4.043820 
# 
# 
# High freq. dielectric constant tensor:
#      x y z
#    x 1.735310 0.000000 0.000000 
#    y 0.000000 1.735310 0.000000 
#    z 0.000000 0.000000 1.780630 
# 
# From -- ./inp_files/851.got.cif
#   From: 2010.03.12/outbox.cif.g09.slc.cpg/sg124_1_cif.got.tgz:851.got - 2010.04.06 16:38:57.
