data_PCOD8313321
_publ_section_title
;
Structure prediction by ZEFSAII (Michael W. Deem and Ramdas Pophale) SiO2 
 PCOD8313321
Probable space group: P 4/M C C
;
_chemical_formula_sum "Si O2"
_cell_formula_units_Z 96
_cell_length_a 16.420560
_cell_length_b 16.420560
_cell_length_c 18.762310
_cell_angle_alpha 90.000000
_cell_angle_beta 90.000000
_cell_angle_gamma 90.000000
_cell_volume 5058.971530
_symmetry_space_group_name_H-M "P 4/M C C"
_symmetry_group_IT_number 124
_symmetry_cell_setting 'tetragonal'
loop_
_space_group_symop_operation_xyz
x,y,z
-y,x,z
-x,-y,z
y,-x,z
x,-y,1/2-z
-x,y,1/2-z
y,x,1/2-z
-y,-x,1/2-z
-x,-y,-z
y,-x,-z
x,y,-z
-y,x,-z
-x,y,1/2+z
x,-y,1/2+z
-y,-x,1/2+z
y,x,1/2+z
loop_
_atom_site_type_symbol
_atom_site_label
_atom_site_fract_x
_atom_site_fract_y
_atom_site_fract_z
Si Si1 0.941149 0.886049 0.584884
Si Si2 0.097163 0.409125 0.167079
Si Si3 0.399223 0.586362 0.667066
Si Si4 0.401570 0.086551 0.170551
Si Si5 0.751058 0.657302 0.919037
Si Si6 0.845282 0.733414 0.579919
O O1 0.936614 0.884615 0.500000
O O2 0.899530 0.804842 0.616088
O O3 0.034338 0.891564 0.611731
O O4 0.108880 0.505080 0.161059
O O5 0.104103 0.377733 0.247877
O O6 0.166591 0.372484 0.117821
O O7 0.005732 0.384621 0.143487
O O8 0.386925 0.491170 0.647955
O O9 0.390355 0.609646 0.750000
O O10 0.331423 0.633897 0.622349
O O11 0.349368 0.147523 0.123499
O O12 0.761604 0.753163 0.919674
O O13 0.745969 0.623323 0.000000
O O14 0.875753 0.716175 0.500000
#
# Coordination Sequence:
#
# PCOD8313321 Si02
#       6
#    16  16  16  16  16  16
#     4   8  15  30  52  76 107 149 187 221 267 325
#     4   9  21  40  61  83 111 148 196 243 289 350
#     4   9  21  41  64  87 112 154 202 239 288 352
#     4   9  20  40  62  83 108 151 198 239 289 346
#     4  11  25  37  55  90 123 152 192 242 297 350
#     4  10  22  34  52  85 119 148 188 235 282 343
#
# _framework density 18.976188
#
# number of rings (size 3 to 8) (size 9 to 14) (size 15 to 20)
#    0.000    2.667    0.000    2.000    7.000    3.333 
#    0.000    2.500    0.000    0.000    0.000    0.000 
#    0.000    0.000    0.000    0.000    0.000    0.000 
#
# Total GULP energy -1189885.823662 kJ/mol
# GULP energy per Si atom -12394.643996 kJ/mol
# Density = 1.893300 g / cm^3
# Si number density = 18.976188 Si / 1000 Ang^3
#
#
#
# Elastic Constant Matrix: (Units=GPa)
#
#
# Indices 1 2 3 4 5 6 
#
# 1 80.0492 31.6969 48.9290 0.0000 0.0000 0.0000
# 2 31.6969 80.0490 48.9289 0.0000 0.0000 0.0000
# 3 48.9290 48.9289 82.6205 0.0000 0.0000 0.0000
# 4 0.0000 0.0000 0.0000 27.5617 0.0000 0.0000
# 5 0.0000 0.0000 0.0000 0.0000 27.5617 0.0000
# 6 0.0000 0.0000 0.0000 0.0000 0.0000 33.9481
#
#
#
# Elastic Compliance Matrix: (Units=1/GPa)
#
#
# Indices 1 2 3 4 5 6 
#
# 1 0.019636 -0.001046 -0.011009 0.000000 0.000000 0.000000
# 2 -0.001046 0.019636 -0.011009 0.000000 0.000000 0.000000
# 3 -0.011009 -0.011009 0.025143 0.000000 0.000000 0.000000
# 4 0.000000 0.000000 0.000000 0.036282 0.000000 0.000000
# 5 0.000000 0.000000 0.000000 0.000000 0.036282 0.000000
# 6 0.000000 0.000000 0.000000 0.000000 0.000000 0.029457
#
#
# Mechanical properties :
#
#
# Convention : Reuss Voigt Hill
#
# Bulk Modulus (GPa) = 54.68636 55.75870 55.22253
# Shear Modulus (GPa) = 22.86667 25.35856 24.11262
#
# Velocity S-wave (km/s) = 3.47510 3.65956 3.56852
# Velocity P-wave (km/s) = 6.70692 6.87778 6.79288
#
# Compressibility (1/GPa) = 0.01828609
#
# Stress axis : x y z
#
# Youngs Moduli (GPa) = 50.92783 50.92782 39.77263
#
# Poissons Ratio (x) = 0.05327 0.43786
# Poissons Ratio (y) = 0.05327 0.43786
# Poissons Ratio (z) = 0.56067 0.56067
#
# Static dielectric constant tensor:
#      x y z
#    x 3.499180 0.000000 0.000000 
#    y 0.000000 3.499180 0.000000 
#    z 0.000000 0.000000 3.336350 
# 
# 
# High freq. dielectric constant tensor:
#      x y z
#    x 1.743690 0.000000 0.000000 
#    y 0.000000 1.743690 0.000000 
#    z 0.000000 0.000000 1.713860 
# 
# From -- ./inp_files/5324.got.cif
#   From: 2010.03.12/outbox.cif.g09.slc.cpg/sg124_3_cif.got.tgz:5324.got - 2010.04.06 16:38:57.
