data_PCOD8313979
_publ_section_title
;
Structure prediction by ZEFSAII (Michael W. Deem and Ramdas Pophale) SiO2 
 PCOD8313979
Probable space group: P 4/M B M
;
_chemical_formula_sum "Si O2"
_cell_formula_units_Z 120
_cell_length_a 21.672446
_cell_length_b 21.672446
_cell_length_c 14.795812
_cell_angle_alpha 90.000000
_cell_angle_beta 90.000000
_cell_angle_gamma 90.000000
_cell_volume 6949.517669
_symmetry_space_group_name_H-M "P 4/M B M"
_symmetry_group_IT_number 127
_symmetry_cell_setting 'tetragonal'
loop_
_space_group_symop_operation_xyz
x,y,z
-y,x,z
-x,-y,z
y,-x,z
1/2+x,1/2-y,-z
1/2-x,1/2+y,-z
1/2+y,1/2+x,-z
1/2-y,1/2-x,-z
-x,-y,-z
y,-x,-z
x,y,-z
-y,x,-z
1/2-x,1/2+y,z
1/2+x,1/2-y,z
1/2-y,1/2-x,z
1/2+y,1/2+x,z
loop_
_atom_site_type_symbol
_atom_site_label
_atom_site_fract_x
_atom_site_fract_y
_atom_site_fract_z
Si Si1 0.182986 0.015930 0.602156
Si Si2 0.880438 0.857510 0.399744
Si Si3 0.806951 0.204683 0.255835
Si Si4 0.944681 0.223724 0.782745
Si Si5 0.975814 0.099040 0.894294
Si Si6 0.739935 0.141433 0.900211
Si Si7 0.512712 0.183321 0.896395
Si Si8 0.950150 0.549851 0.892655
O O1 0.212473 0.020309 0.500000
O O2 0.135596 0.071595 0.620100
O O3 0.231104 0.020204 0.685484
O O4 0.145714 0.953250 0.613995
O O5 0.860942 0.838088 0.500000
O O6 0.843598 0.809335 0.337872
O O7 0.758066 0.258066 0.278646
O O8 0.873002 0.233278 0.236968
O O9 0.790366 0.166386 0.167322
O O10 0.961154 0.158994 0.832812
O O11 0.958625 0.284117 0.841522
O O12 0.044898 0.073882 0.873105
O O13 0.971533 0.117808 0.000000
O O14 0.673789 0.173789 0.886024
O O15 0.730181 0.069413 0.886396
O O16 0.766049 0.155109 0.000000
O O17 0.529328 0.116507 0.854341
O O18 0.491836 0.175638 0.000000
O O19 0.000000 0.500000 0.860856
O O20 0.944859 0.555142 0.000000
#
# Coordination Sequence:
#
# PCOD8313979 Si02
#       8
#    16  16  16  16  16  16  16   8
#     4   9  19  33  50  74 105 134 169 213 257 305
#     4   9  18  34  53  74  99 130 165 207 257 305
#     4  10  22  36  48  70 101 133 169 212 254 304
#     4  11  22  32  52  77 102 139 177 213 263 308
#     4   9  20  36  50  71 106 144 183 219 248 292
#     4   9  17  31  50  69  95 129 166 209 248 292
#     4  10  19  32  51  77 101 129 172 211 254 314
#     4   9  18  34  54  76 105 135 165 213 270 321
#
# _framework density 17.267385999999998
#
# number of rings (size 3 to 8) (size 9 to 14) (size 15 to 20)
#    0.000    2.467    0.667    1.600    5.600    2.133 
#    0.000    1.333    0.000    0.000    0.000    0.000 
#    0.000    0.533    0.000    0.000    0.000    0.000 
#
# Total GULP energy -1487385.234348 kJ/mol
# GULP energy per Si atom -12394.876953 kJ/mol
# Density = 1.722808 g / cm^3
# Si number density = 17.267386 Si / 1000 Ang^3
#
#
#
# Elastic Constant Matrix: (Units=GPa)
#
#
# Indices 1 2 3 4 5 6 
#
# 1 67.8181 35.1761 41.5846 0.0000 0.0000 0.0000
# 2 35.1761 67.8181 41.5846 0.0000 0.0000 0.0000
# 3 41.5846 41.5846 97.0553 0.0000 0.0000 0.0000
# 4 0.0000 0.0000 0.0000 22.0590 0.0000 0.0000
# 5 0.0000 0.0000 0.0000 0.0000 22.0590 0.0000
# 6 0.0000 0.0000 0.0000 0.0000 0.0000 16.0454
#
#
#
# Elastic Compliance Matrix: (Units=1/GPa)
#
#
# Indices 1 2 3 4 5 6 
#
# 1 0.022741 -0.007895 -0.006361 0.000000 0.000000 0.000000
# 2 -0.007895 0.022741 -0.006361 0.000000 0.000000 0.000000
# 3 -0.006361 -0.006361 0.015754 0.000000 0.000000 0.000000
# 4 0.000000 0.000000 0.000000 0.045333 0.000000 0.000000
# 5 0.000000 0.000000 0.000000 0.000000 0.045333 0.000000
# 6 0.000000 0.000000 0.000000 0.000000 0.000000 0.062323
#
#
# Mechanical properties :
#
#
# Convention : Reuss Voigt Hill
#
# Bulk Modulus (GPa) = 49.99431 52.15357 51.07394
# Shear Modulus (GPa) = 19.07487 19.65576 19.36531
#
# Velocity S-wave (km/s) = 3.32727 3.37756 3.35251
# Velocity P-wave (km/s) = 6.61641 6.74386 6.68044
#
# Compressibility (1/GPa) = 0.02000228
#
# Stress axis : x y z
#
# Youngs Moduli (GPa) = 43.97429 43.97430 63.47526
#
# Poissons Ratio (x) = 0.34717 0.40376
# Poissons Ratio (y) = 0.34717 0.40376
# Poissons Ratio (z) = 0.27971 0.27971
#
# Static dielectric constant tensor:
#      x y z
#    x 3.103890 0.000000 0.000000 
#    y 0.000000 3.103890 0.000000 
#    z 0.000000 0.000000 3.441050 
# 
# 
# High freq. dielectric constant tensor:
#      x y z
#    x 1.655780 0.000000 0.000000 
#    y 0.000000 1.655780 0.000000 
#    z 0.000000 0.000000 1.665590 
# 
# From -- ./inp_files/4644.got.cif
#   From: 2010.03.12/outbox.cif.g09.slc.cpg/sg127_3_cif.got.tgz:4644.got - 2010.04.06 17:03:15.
