data_PCOD8313066
_publ_section_title
;
Structure prediction by ZEFSAII (Michael W. Deem and Ramdas Pophale) SiO2 
 PCOD8313066
Probable space group: P 4/M C C
;
_chemical_formula_sum "Si O2"
_cell_formula_units_Z 96
_cell_length_a 19.407891
_cell_length_b 19.407891
_cell_length_c 16.953909
_cell_angle_alpha 90.000000
_cell_angle_beta 90.000000
_cell_angle_gamma 90.000000
_cell_volume 6385.965039
_symmetry_space_group_name_H-M "P 4/M C C"
_symmetry_group_IT_number 124
_symmetry_cell_setting 'tetragonal'
loop_
_space_group_symop_operation_xyz
x,y,z
-y,x,z
-x,-y,z
y,-x,z
x,-y,1/2-z
-x,y,1/2-z
y,x,1/2-z
-y,-x,1/2-z
-x,-y,-z
y,-x,-z
x,y,-z
-y,x,-z
-x,y,1/2+z
x,-y,1/2+z
-y,-x,1/2+z
y,x,1/2+z
loop_
_atom_site_type_symbol
_atom_site_label
_atom_site_fract_x
_atom_site_fract_y
_atom_site_fract_z
Si Si1 0.495304 0.734603 0.088070
Si Si2 0.078057 0.419039 0.736920
Si Si3 0.383154 0.844964 0.413264
Si Si4 0.627432 0.208845 0.182222
Si Si5 0.275592 0.288859 0.408889
Si Si6 0.596132 0.675953 0.807269
O O1 0.555908 0.789937 0.089084
O O2 0.425390 0.771034 0.113034
O O3 0.519063 0.677040 0.154232
O O4 0.487119 0.703082 0.000000
O O5 0.088792 0.500000 0.750000
O O6 0.094292 0.396930 0.647709
O O7 0.128291 0.378841 0.796981
O O8 0.000000 0.395794 0.750000
O O9 0.379556 0.879071 0.500000
O O10 0.311456 0.803955 0.396027
O O11 0.703872 0.223101 0.145982
O O12 0.611535 0.252477 0.260888
O O13 0.290591 0.273234 0.500000
O O14 0.327631 0.349612 0.379689
O O15 0.610093 0.610093 0.750000
#
# Coordination Sequence:
#
# PCOD8313066 Si02
#       6
#    16  16  16  16  16  16
#     4  10  17  26  41  59  85 113 134 176 228 263
#     4  11  20  31  44  62  86 122 158 184 213 259
#     4   9  17  31  45  59  83 116 147 180 228 269
#     4  11  17  28  42  64  86 109 146 185 221 252
#     4   9  17  27  43  64  83 107 141 185 230 268
#     4   9  16  25  42  58  79 108 138 173 217 270
#
# _framework density 15.032966999999999
#
# number of rings (size 3 to 8) (size 9 to 14) (size 15 to 20)
#    0.000    2.167    5.000    2.500    0.000    0.000 
#    0.000    3.333    0.000    0.000    0.000    0.000 
#    0.000  176.000    0.000  372.500    0.000    6.667 
#
# Total GULP energy -1189466.703908 kJ/mol
# GULP energy per Si atom -12390.278166 kJ/mol
# Density = 1.499875 g / cm^3
# Si number density = 15.032967 Si / 1000 Ang^3
#
#
#
# Elastic Constant Matrix: (Units=GPa)
#
#
# Indices 1 2 3 4 5 6 
#
# 1 54.5474 36.3659 38.6131 0.0000 0.0000 0.0000
# 2 36.3659 54.5474 38.6131 0.0000 0.0000 0.0000
# 3 38.6131 38.6131 119.1945 0.0000 0.0000 0.0000
# 4 0.0000 0.0000 0.0000 19.1315 0.0000 0.0000
# 5 0.0000 0.0000 0.0000 0.0000 19.1315 0.0000
# 6 0.0000 0.0000 0.0000 0.0000 0.0000 10.1507
#
#
#
# Elastic Compliance Matrix: (Units=1/GPa)
#
#
# Indices 1 2 3 4 5 6 
#
# 1 0.035088 -0.019913 -0.004916 0.000000 0.000000 0.000000
# 2 -0.019913 0.035088 -0.004916 0.000000 0.000000 0.000000
# 3 -0.004916 -0.004916 0.011575 0.000000 0.000000 0.000000
# 4 0.000000 0.000000 0.000000 0.052270 0.000000 0.000000
# 5 0.000000 0.000000 0.000000 0.000000 0.052270 0.000000
# 6 0.000000 0.000000 0.000000 0.000000 0.000000 0.098516
#
#
# Mechanical properties :
#
#
# Convention : Reuss Voigt Hill
#
# Bulk Modulus (GPa) = 44.92094 50.60817 47.76456
# Shear Modulus (GPa) = 14.21600 17.32923 15.77261
#
# Velocity S-wave (km/s) = 3.07849 3.39890 3.24265
# Velocity P-wave (km/s) = 6.52553 7.01008 6.77214
#
# Compressibility (1/GPa) = 0.02226133
#
# Stress axis : x y z
#
# Youngs Moduli (GPa) = 28.49966 28.49966 86.39458
#
# Poissons Ratio (x) = 0.56750 0.42472
# Poissons Ratio (y) = 0.56750 0.42472
# Poissons Ratio (z) = 0.14011 0.14011
#
# Static dielectric constant tensor:
#      x y z
#    x 2.678450 0.000000 0.000000 
#    y 0.000000 2.678450 0.000000 
#    z 0.000000 0.000000 3.269550 
# 
# 
# High freq. dielectric constant tensor:
#      x y z
#    x 1.528360 0.000000 0.000000 
#    y 0.000000 1.528360 0.000000 
#    z 0.000000 0.000000 1.604340 
# 
# From -- ./inp_files/4474.got.cif
#   From: 2010.03.12/outbox.cif.g09.slc.cpg/sg124_3_cif.got.tgz:4474.got - 2010.04.06 16:38:57.
