data_PCOD8313765
_publ_section_title
;
Structure prediction by ZEFSAII (Michael W. Deem and Ramdas Pophale) SiO2 
 PCOD8313765
Probable space group: P 4/N N C
;
_chemical_formula_sum "Si O2"
_cell_formula_units_Z 88
_cell_length_a 13.022644
_cell_length_b 13.022644
_cell_length_c 26.800699
_cell_angle_alpha 90.000000
_cell_angle_beta 90.000000
_cell_angle_gamma 90.000000
_cell_volume 4545.110624
_symmetry_space_group_name_H-M "P 4/N N C"
_symmetry_group_IT_number 126
_space_group.IT_coordinate_system_code '2'
_symmetry_cell_setting 'tetragonal'
loop_
_space_group_symop_operation_xyz
x,y,z
1/2-y,x,z
1/2-x,1/2-y,z
y,1/2-x,z
x,1/2-y,1/2-z
1/2-x,y,1/2-z
y,x,1/2-z
1/2-y,1/2-x,1/2-z
-x,-y,-z
1/2+y,-x,-z
1/2+x,1/2+y,-z
-y,1/2+x,-z
-x,1/2+y,1/2+z
1/2+x,-y,1/2+z
-y,-x,1/2+z
1/2+y,1/2+x,1/2+z
loop_
_atom_site_type_symbol
_atom_site_label
_atom_site_fract_x
_atom_site_fract_y
_atom_site_fract_z
Si Si1 0.751507 0.103013 0.131541
Si Si2 0.265072 0.080367 0.439912
Si Si3 0.755392 0.408150 0.483842
Si Si4 0.252628 0.417421 0.803328
Si Si5 0.430219 0.745818 0.652999
Si Si6 0.750000 0.576210 0.750000
O O1 0.726695 0.092008 0.073725
O O2 0.654572 0.156418 0.158554
O O3 0.861890 0.152988 0.143782
O O4 0.758255 0.988994 0.149873
O O5 0.360121 0.157808 0.436790
O O6 0.272708 0.020420 0.492612
O O7 0.274632 0.002140 0.394251
O O8 0.857749 0.340283 0.487663
O O9 0.150808 0.352370 0.806804
O O10 0.250000 0.477009 0.750000
O O11 0.502340 0.752777 0.701732
O O12 0.851699 0.648301 0.750000
#
# Coordination Sequence:
#
# PCOD8313765 Si02
#       6
#    16  16  16  16  16   8
#     4  11  23  39  68  96 122 158 206 264 310 369
#     4  11  24  41  62  91 128 167 209 256 306 369
#     4  11  20  43  65  88 124 161 203 253 314 366
#     4   9  21  41  61  87 125 161 196 247 309 372
#     4  11  23  43  63  92 126 161 206 259 310 361
#     4  11  26  45  64  90 130 173 212 257 306 370
#
# _framework density 19.361464999999999
#
# number of rings (size 3 to 8) (size 9 to 14) (size 15 to 20)
#    0.000    1.364    3.636    2.727    2.545    7.273 
#    0.000    1.818    0.000    0.000    0.000    0.000 
#    0.000    0.000    0.000    0.000    0.000    0.000 
#
# Total GULP energy -1090857.161965 kJ/mol
# GULP energy per Si atom -12396.104113 kJ/mol
# Density = 1.931740 g / cm^3
# Si number density = 19.361465 Si / 1000 Ang^3
#
#
#
# Elastic Constant Matrix: (Units=GPa)
#
#
# Indices 1 2 3 4 5 6 
#
# 1 99.2111 22.4955 37.8526 0.0000 0.0000 0.0000
# 2 22.4955 99.2114 37.8527 0.0000 0.0000 0.0000
# 3 37.8526 37.8527 111.8971 0.0000 0.0000 0.0000
# 4 0.0000 0.0000 0.0000 32.3082 0.0000 0.0000
# 5 0.0000 0.0000 0.0000 0.0000 32.3138 0.0000
# 6 0.0000 0.0000 0.0000 0.0000 0.0000 24.0469
#
#
#
# Elastic Compliance Matrix: (Units=1/GPa)
#
#
# Indices 1 2 3 4 5 6 
#
# 1 0.011721 -0.001314 -0.003520 0.000000 0.000000 0.000000
# 2 -0.001314 0.011721 -0.003520 0.000000 0.000000 0.000000
# 3 -0.003520 -0.003520 0.011318 0.000000 0.000000 0.000000
# 4 0.000000 0.000000 0.000000 0.030952 0.000000 0.000000
# 5 0.000000 0.000000 0.000000 0.000000 0.030947 0.000000
# 6 0.000000 0.000000 0.000000 0.000000 0.000000 0.041585
#
#
# Mechanical properties :
#
#
# Convention : Reuss Voigt Hill
#
# Bulk Modulus (GPa) = 55.40195 56.30235 55.85215
# Shear Modulus (GPa) = 31.06171 31.87503 31.46837
#
# Velocity S-wave (km/s) = 4.00972 4.06188 4.03589
# Velocity P-wave (km/s) = 7.07911 7.15131 7.11530
#
# Compressibility (1/GPa) = 0.01804991
#
# Stress axis : x y z
#
# Youngs Moduli (GPa) = 85.31945 85.31976 88.35162
#
# Poissons Ratio (x) = 0.11215 0.31102
# Poissons Ratio (y) = 0.11215 0.31101
# Poissons Ratio (z) = 0.30034 0.30034
#
# Static dielectric constant tensor:
#      x y z
#    x 3.598260 0.000000 0.000000 
#    y 0.000000 3.598260 0.000000 
#    z 0.000000 0.000000 3.519510 
# 
# 
# High freq. dielectric constant tensor:
#      x y z
#    x 1.758020 0.000000 0.000000 
#    y 0.000000 1.758020 0.000000 
#    z 0.000000 0.000000 1.765510 
# 
# From -- ./inp_files/6555.got.cif
#   From: 2010.03.12/outbox.cif.g09.slc.cpg/sg126_4_cif.got.tgz:6555.got - 2010.04.06 16:55:23.
