data_PCOD8313702
_publ_section_title
;
Structure prediction by ZEFSAII (Michael W. Deem and Ramdas Pophale) SiO2 
 PCOD8313702
Probable space group: P 4/N N C
;
_chemical_formula_sum "Si O2"
_cell_formula_units_Z 80
_cell_length_a 27.446868
_cell_length_b 27.446868
_cell_length_c 5.308518
_cell_angle_alpha 90.000000
_cell_angle_beta 90.000000
_cell_angle_gamma 90.000000
_cell_volume 3999.068854
_symmetry_space_group_name_H-M "P 4/N N C"
_symmetry_group_IT_number 126
_space_group.IT_coordinate_system_code '2'
_symmetry_cell_setting 'tetragonal'
loop_
_space_group_symop_operation_xyz
x,y,z
1/2-y,x,z
1/2-x,1/2-y,z
y,1/2-x,z
x,1/2-y,1/2-z
1/2-x,y,1/2-z
y,x,1/2-z
1/2-y,1/2-x,1/2-z
-x,-y,-z
1/2+y,-x,-z
1/2+x,1/2+y,-z
-y,1/2+x,-z
-x,1/2+y,1/2+z
1/2+x,-y,1/2+z
-y,-x,1/2+z
1/2+y,1/2+x,1/2+z
loop_
_atom_site_type_symbol
_atom_site_label
_atom_site_fract_x
_atom_site_fract_y
_atom_site_fract_z
Si Si1 0.148450 0.351551 0.250000
Si Si2 0.406678 0.886292 0.249985
Si Si3 0.693392 0.954981 0.749997
Si Si4 0.984697 0.194049 0.750003
Si Si5 0.160270 0.696455 0.749978
Si Si6 0.806686 0.806686 0.250000
O O1 0.158155 0.408826 0.249983
O O2 0.171112 0.328893 0.499557
O O3 0.418226 0.918228 0.499984
O O4 0.434615 0.835419 0.249990
O O5 0.347685 0.878842 0.249978
O O6 0.750000 0.938627 0.750000
O O7 0.680844 0.985035 0.499256
O O8 0.680844 0.985041 0.000721
O O9 0.969027 0.250000 0.750000
O O10 0.134314 0.750000 0.750000
O O11 0.193222 0.693227 0.499968
O O12 0.750000 0.818450 0.250000
#
# Coordination Sequence:
#
# PCOD8313702 Si02
#       6
#     8  16  16  16  16   8
#     4  12  22  37  60  88 120 159 206 255 290 331
#     4  10  21  35  55  80 105 142 183 230 285 347
#     4  10  21  37  59  86 116 153 196 243 291 341
#     4  10  21  38  57  81 115 153 196 243 293 349
#     4  10  21  34  47  68 101 138 175 214 258 320
#     4  11  22  34  52  84 130 175 202 225 272 345
#
# _framework density 20.004659
#
# number of rings (size 3 to 8) (size 9 to 14) (size 15 to 20)
#    0.000    1.700    0.000    4.800    0.000   10.000 
#    0.000    2.000    0.000    0.000    0.000   14.000 
#    0.000    0.000    0.000    0.000    0.000    0.000 
#
# Total GULP energy -991584.268714 kJ/mol
# GULP energy per Si atom -12394.803359 kJ/mol
# Density = 1.995913 g / cm^3
# Si number density = 20.004659 Si / 1000 Ang^3
#
#
#
# Elastic Constant Matrix: (Units=GPa)
#
#
# Indices 1 2 3 4 5 6 
#
# 1 88.2083 18.8398 41.9957 0.0000 0.0000 0.0000
# 2 18.8398 88.2099 41.9958 0.0000 0.0000 0.0000
# 3 41.9957 41.9958 230.0703 0.0000 0.0000 0.0000
# 4 0.0000 0.0000 0.0000 -6.4437 0.0000 0.0000
# 5 0.0000 0.0000 0.0000 0.0000 -6.4207 0.0000
# 6 0.0000 0.0000 0.0000 0.0000 0.0000 31.6688
#
#
#
# Elastic Compliance Matrix: (Units=1/GPa)
#
#
# Indices 1 2 3 4 5 6 
#
# 1 0.012659 -0.001756 -0.001990 0.000000 0.000000 0.000000
# 2 -0.001756 0.012659 -0.001990 0.000000 0.000000 0.000000
# 3 -0.001990 -0.001990 0.005073 0.000000 0.000000 0.000000
# 4 0.000000 0.000000 0.000000 -0.155189 0.000000 0.000000
# 5 0.000000 0.000000 0.000000 0.000000 -0.155747 0.000000
# 6 0.000000 0.000000 0.000000 0.000000 0.000000 0.031577
#
#
# Mechanical properties :
#
#
# Convention : Reuss Voigt Hill
#
# Bulk Modulus (GPa) = 52.85857 68.01679 60.43768
# Shear Modulus (GPa) = -21.62735 24.00469 1.18867
#
# Velocity S-wave (km/s) = -3.29160 3.46779 0.77168
# Velocity P-wave (km/s) = 3.46905 7.07873 5.57417
#
# Compressibility (1/GPa) = 0.01891841
#
# Stress axis : x y z
#
# Youngs Moduli (GPa) = 78.99242 78.99398 197.12004
#
# Poissons Ratio (x) = 0.13874 0.39231
# Poissons Ratio (y) = 0.13873 0.39230
# Poissons Ratio (z) = 0.15721 0.15721
#
# Static dielectric constant tensor:
#      x y z
#    x 3.346890 0.000000 0.000000 
#    y 0.000000 3.346860 0.000000 
#    z 0.000000 0.000000 5.057130 
# 
# 
# High freq. dielectric constant tensor:
#      x y z
#    x 1.748890 0.000000 0.000000 
#    y 0.000000 1.748890 0.000000 
#    z 0.000000 0.000000 1.828630 
# 
# From -- ./inp_files/615.got.cif
#   From: 2010.03.12/outbox.cif.g09.slc.cpg/sg126_1_cif.got.tgz:615.got - 2010.04.06 16:55:23.
