data_PCOD8313361
_publ_section_title
;
Structure prediction by ZEFSAII (Michael W. Deem and Ramdas Pophale) SiO2 
 PCOD8313361
Probable space group: P 4/M C C
;
_chemical_formula_sum "Si O2"
_cell_formula_units_Z 48
_cell_length_a 17.967027
_cell_length_b 17.967027
_cell_length_c 8.399904
_cell_angle_alpha 90.000000
_cell_angle_beta 90.000000
_cell_angle_gamma 90.000000
_cell_volume 2711.607107
_symmetry_space_group_name_H-M "P 4/M C C"
_symmetry_group_IT_number 124
_symmetry_cell_setting 'tetragonal'
loop_
_space_group_symop_operation_xyz
x,y,z
-y,x,z
-x,-y,z
y,-x,z
x,-y,1/2-z
-x,y,1/2-z
y,x,1/2-z
-y,-x,1/2-z
-x,-y,-z
y,-x,-z
x,y,-z
-y,x,-z
-x,y,1/2+z
x,-y,1/2+z
-y,-x,1/2+z
y,x,1/2+z
loop_
_atom_site_type_symbol
_atom_site_label
_atom_site_fract_x
_atom_site_fract_y
_atom_site_fract_z
Si Si1 0.579410 0.082430 0.313164
Si Si2 0.317224 0.579420 0.811251
Si Si3 0.691162 0.800146 0.684016
O O1 0.500000 0.115405 0.250000
O O2 0.572242 0.081456 0.500000
O O3 0.653521 0.128571 0.267671
O O4 0.591892 0.000000 0.250000
O O5 0.293659 0.500000 0.750000
O O6 0.401037 0.598964 0.750000
O O7 0.266616 0.634848 0.711452
O O8 0.306192 0.587392 0.000000
O O9 0.772695 0.772695 0.750000
O O10 0.701050 0.818909 0.500000
#
# Coordination Sequence:
#
# PCOD8313361 Si02
#       3
#    16  16  16
#     4  11  21  35  53  77 105 137 172 212 256 305
#     4  11  21  34  48  65  86 115 153 197 243 290
#     4  11  21  35  52  73  98 129 164 203 246 296
#
# _framework density 17.701681000000001
#
# number of rings (size 3 to 8) (size 9 to 14) (size 15 to 20)
#    0.000    1.000    0.000   13.000    0.000    0.333 
#    0.000    1.667    0.000    0.000    0.000    0.000 
#    0.000    0.667    0.000    6.667    0.000    4.000 
#
# Total GULP energy -594718.241051 kJ/mol
# GULP energy per Si atom -12389.963355 kJ/mol
# Density = 1.766139 g / cm^3
# Si number density = 17.701681 Si / 1000 Ang^3
#
#
#
# Elastic Constant Matrix: (Units=GPa)
#
#
# Indices 1 2 3 4 5 6 
#
# 1 78.4233 38.3781 29.8691 0.0000 0.0000 0.0000
# 2 38.3781 78.4252 29.8690 0.0000 0.0000 0.0000
# 3 29.8691 29.8690 149.4732 0.0000 0.0000 0.0000
# 4 0.0000 0.0000 0.0000 26.6371 0.0000 0.0000
# 5 0.0000 0.0000 0.0000 0.0000 26.6347 0.0000
# 6 0.0000 0.0000 0.0000 0.0000 0.0000 29.6815
#
#
#
# Elastic Compliance Matrix: (Units=1/GPa)
#
#
# Indices 1 2 3 4 5 6 
#
# 1 0.017254 -0.007718 -0.001906 0.000000 0.000000 0.000000
# 2 -0.007718 0.017253 -0.001906 0.000000 0.000000 0.000000
# 3 -0.001906 -0.001906 0.007452 0.000000 0.000000 0.000000
# 4 0.000000 0.000000 0.000000 0.037542 0.000000 0.000000
# 5 0.000000 0.000000 0.000000 0.000000 0.037545 0.000000
# 6 0.000000 0.000000 0.000000 0.000000 0.000000 0.033691
#
#
# Mechanical properties :
#
#
# Convention : Reuss Voigt Hill
#
# Bulk Modulus (GPa) = 52.90565 55.83932 54.37248
# Shear Modulus (GPa) = 27.76320 30.47105 29.11713
#
# Velocity S-wave (km/s) = 3.96459 4.15343 4.06011
# Velocity P-wave (km/s) = 7.13509 7.39016 7.26375
#
# Compressibility (1/GPa) = 0.01890157
#
# Stress axis : x y z
#
# Youngs Moduli (GPa) = 57.95802 57.95961 134.19686
#
# Poissons Ratio (x) = 0.44731 0.25573
# Poissons Ratio (y) = 0.44729 0.25572
# Poissons Ratio (z) = 0.11045 0.11044
#
# Static dielectric constant tensor:
#      x y z
#    x 2.981170 0.000000 0.000000 
#    y 0.000000 2.980540 0.000000 
#    z 0.000000 0.000000 3.466150 
# 
# 
# High freq. dielectric constant tensor:
#      x y z
#    x 1.663700 0.000000 0.000000 
#    y 0.000000 1.663700 0.000000 
#    z 0.000000 0.000000 1.710720 
# 
# From -- ./inp_files/474.got.cif
#   From: 2010.03.12/outbox.cif.g09.slc.cpg/sg124_1_cif.got.tgz:474.got - 2010.04.06 16:38:57.
