data_PCOD8313688
_publ_section_title
;
Structure prediction by ZEFSAII (Michael W. Deem and Ramdas Pophale) SiO2 
 PCOD8313688
Probable space group: P 4/N N C
;
_chemical_formula_sum "Si O2"
_cell_formula_units_Z 96
_cell_length_a 20.238887
_cell_length_b 20.238887
_cell_length_c 12.197113
_cell_angle_alpha 90.000000
_cell_angle_beta 90.000000
_cell_angle_gamma 90.000000
_cell_volume 4996.090522
_symmetry_space_group_name_H-M "P 4/N N C"
_symmetry_group_IT_number 126
_space_group.IT_coordinate_system_code '2'
_symmetry_cell_setting 'tetragonal'
loop_
_space_group_symop_operation_xyz
x,y,z
1/2-y,x,z
1/2-x,1/2-y,z
y,1/2-x,z
x,1/2-y,1/2-z
1/2-x,y,1/2-z
y,x,1/2-z
1/2-y,1/2-x,1/2-z
-x,-y,-z
1/2+y,-x,-z
1/2+x,1/2+y,-z
-y,1/2+x,-z
-x,1/2+y,1/2+z
1/2+x,-y,1/2+z
-y,-x,1/2+z
1/2+y,1/2+x,1/2+z
loop_
_atom_site_type_symbol
_atom_site_label
_atom_site_fract_x
_atom_site_fract_y
_atom_site_fract_z
Si Si1 0.113410 0.113410 0.750000
Si Si2 0.993818 0.059972 0.351158
Si Si3 0.699034 0.328548 0.456718
Si Si4 0.457300 0.090861 0.532638
Si Si5 0.722863 0.023560 0.029964
Si Si6 0.750000 0.954748 0.250000
Si Si7 0.931093 0.304450 0.160155
O O1 0.079526 0.088316 0.638633
O O2 0.190147 0.096442 0.744971
O O3 0.960495 0.125645 0.301139
O O4 0.058182 0.075575 0.425355
O O5 0.941409 0.027149 0.433763
O O6 0.012891 0.012891 0.250000
O O7 0.778983 0.318169 0.438346
O O8 0.686129 0.405368 0.478623
O O9 0.648238 0.307356 0.360705
O O10 0.468949 0.167523 0.501183
O O11 0.752346 0.005548 0.148473
O O12 0.783944 0.025893 0.946380
O O13 0.945305 0.250000 0.250000
#
# Coordination Sequence:
#
# PCOD8313688 Si02
#       7
#     8  16  16  16  16   8  16
#     4  10  20  39  56  90 112 148 192 234 305 352
#     4  11  21  35  55  87 111 153 191 243 299 346
#     4   9  19  38  50  74 111 147 199 233 274 334
#     4  10  20  35  57  80 117 144 191 246 287 355
#     4  10  20  40  55  84 111 154 195 238 293 343
#     4  10  22  37  64  83 118 150 186 246 292 364
#     4  11  22  38  58  82 115 157 198 241 288 349
#
# _framework density 19.215022999999999
#
# number of rings (size 3 to 8) (size 9 to 14) (size 15 to 20)
#    0.000    1.833    2.500    2.000    0.000    0.167 
#   15.000    0.833    0.000    0.000    0.000    0.000 
#    0.000   13.667    0.000    0.000    0.000    0.000 
#
# Total GULP energy -1189292.671914 kJ/mol
# GULP energy per Si atom -12388.465332 kJ/mol
# Density = 1.917129 g / cm^3
# Si number density = 19.215023 Si / 1000 Ang^3
#
#
#
# Elastic Constant Matrix: (Units=GPa)
#
#
# Indices 1 2 3 4 5 6 
#
# 1 78.5010 39.1261 26.1752 0.0000 0.0000 0.0000
# 2 39.1261 78.5010 26.1752 0.0000 0.0000 0.0000
# 3 26.1752 26.1752 69.2798 0.0000 0.0000 0.0000
# 4 0.0000 0.0000 0.0000 30.0439 0.0000 0.0000
# 5 0.0000 0.0000 0.0000 0.0000 30.0439 0.0000
# 6 0.0000 0.0000 0.0000 0.0000 0.0000 26.8440
#
#
#
# Elastic Compliance Matrix: (Units=1/GPa)
#
#
# Indices 1 2 3 4 5 6 
#
# 1 0.017808 -0.007588 -0.003861 0.000000 0.000000 0.000000
# 2 -0.007588 0.017808 -0.003861 0.000000 0.000000 0.000000
# 3 -0.003861 -0.003861 0.017352 0.000000 0.000000 0.000000
# 4 0.000000 0.000000 0.000000 0.033285 0.000000 0.000000
# 5 0.000000 0.000000 0.000000 0.000000 0.033285 0.000000
# 6 0.000000 0.000000 0.000000 0.000000 0.000000 0.037252
#
#
# Mechanical properties :
#
#
# Convention : Reuss Voigt Hill
#
# Bulk Modulus (GPa) = 44.74938 45.47053 45.10996
# Shear Modulus (GPa) = 25.65929 26.37339 26.01634
#
# Velocity S-wave (km/s) = 3.65824 3.70880 3.68361
# Velocity P-wave (km/s) = 6.41740 6.48504 6.45130
#
# Compressibility (1/GPa) = 0.02234668
#
# Stress axis : x y z
#
# Youngs Moduli (GPa) = 56.15327 56.15327 57.63037
#
# Poissons Ratio (x) = 0.42612 0.22253
# Poissons Ratio (y) = 0.42612 0.22253
# Poissons Ratio (z) = 0.21682 0.21682
#
# Static dielectric constant tensor:
#      x y z
#    x 3.465080 0.000000 0.000000 
#    y 0.000000 3.465080 0.000000 
#    z 0.000000 0.000000 3.433030 
# 
# 
# High freq. dielectric constant tensor:
#      x y z
#    x 1.743720 0.000000 0.000000 
#    y 0.000000 1.743720 0.000000 
#    z 0.000000 0.000000 1.730560 
# 
# From -- ./inp_files/2945.got.cif
#   From: 2010.03.12/outbox.cif.g09.slc.cpg/sg126_2_cif.got.tgz:2945.got - 2010.04.06 16:55:23.
