data_PCOD8313013
_publ_section_title
;
Structure prediction by ZEFSAII (Michael W. Deem and Ramdas Pophale) SiO2 
 PCOD8313013
Probable space group: P 4/M M M
;
_chemical_formula_sum "Si O2"
_cell_formula_units_Z 112
_cell_length_a 14.807236
_cell_length_b 14.807236
_cell_length_c 34.853888
_cell_angle_alpha 90.000000
_cell_angle_beta 90.000000
_cell_angle_gamma 90.000000
_cell_volume 7641.862653
_symmetry_space_group_name_H-M "P 4/M M M"
_symmetry_group_IT_number 123
_symmetry_cell_setting 'tetragonal'
loop_
_space_group_symop_operation_xyz
x,y,z
-y,x,z
-x,-y,z
y,-x,z
x,-y,-z
-x,y,-z
y,x,-z
-y,-x,-z
-x,-y,-z
y,-x,-z
x,y,-z
-y,x,-z
-x,y,z
x,-y,z
-y,-x,z
y,x,z
loop_
_atom_site_type_symbol
_atom_site_label
_atom_site_fract_x
_atom_site_fract_y
_atom_site_fract_z
Si Si1 0.892860 0.400043 0.601822
Si Si2 0.749653 0.395816 0.744755
Si Si3 0.896115 0.750057 0.456094
Si Si4 0.392859 0.099945 0.686969
Si Si5 0.396671 0.896675 0.105560
Si Si6 0.896672 0.750637 0.043971
Si Si7 0.749753 0.396925 0.832640
O O1 0.851912 0.500000 0.593707
O O2 0.856058 0.330100 0.570240
O O3 0.865658 0.365645 0.644396
O O4 0.000000 0.406518 0.599271
O O5 0.729335 0.500000 0.735075
O O6 0.658313 0.341688 0.735840
O O7 0.830189 0.356003 0.718566
O O8 0.779766 0.382879 0.788724
O O9 0.885571 0.718389 0.500000
O O10 0.841178 0.841178 0.447880
O O11 0.000000 0.771334 0.445984
O O12 0.500000 0.093491 0.689485
O O13 0.351897 0.000000 0.695080
O O14 0.500000 0.880584 0.093037
O O15 0.335574 0.869775 0.069350
O O16 0.369758 0.835447 0.141729
O O17 0.380515 0.000000 0.118109
O O18 0.835655 0.835655 0.055864
O O19 0.000000 0.779863 0.050969
O O20 0.880328 0.722354 0.000000
O O21 0.719748 0.500000 0.840012
O O22 0.664851 0.335150 0.843813
#
# Coordination Sequence:
#
# PCOD8313013 Si02
#       7
#    16  16  16  16  16  16  16
#     4   8  14  25  40  57  76  97 122 154 192 228
#     4   9  17  27  39  57  79 103 130 156 185 223
#     4   9  17  27  38  54  76 101 128 155 183 219
#     4   8  14  25  40  57  77  99 123 154 190 226
#     4   9  17  28  42  60  80 102 128 158 194 232
#     4   9  17  28  42  60  81 105 131 158 189 225
#     4   9  17  28  41  57  78 103 130 160 190 222
#
# _framework density 14.656113
#
# number of rings (size 3 to 8) (size 9 to 14) (size 15 to 20)
#    0.000    3.286    0.000    1.286    0.000    2.286 
#    0.000    8.571    0.000    0.000    0.000    0.000 
#    0.000    0.571    0.000   18.000    0.000    6.000 
#
# Total GULP energy -1388403.885185 kJ/mol
# GULP energy per Si atom -12396.463261 kJ/mol
# Density = 1.462275 g / cm^3
# Si number density = 14.656113 Si / 1000 Ang^3
#
#
#
# Elastic Constant Matrix: (Units=GPa)
#
#
# Indices 1 2 3 4 5 6 
#
# 1 74.8467 48.9151 58.2666 0.0000 0.0000 0.0000
# 2 48.9151 74.8467 58.2666 0.0000 0.0000 0.0000
# 3 58.2666 58.2666 93.7127 0.0000 0.0000 0.0000
# 4 0.0000 0.0000 0.0000 21.1071 0.0000 0.0000
# 5 0.0000 0.0000 0.0000 0.0000 21.1071 0.0000
# 6 0.0000 0.0000 0.0000 0.0000 0.0000 18.3391
#
#
#
# Elastic Compliance Matrix: (Units=1/GPa)
#
#
# Indices 1 2 3 4 5 6 
#
# 1 0.029027 -0.009536 -0.012119 0.000000 0.000000 0.000000
# 2 -0.009536 0.029027 -0.012119 0.000000 0.000000 0.000000
# 3 -0.012119 -0.012119 0.025740 0.000000 0.000000 0.000000
# 4 0.000000 0.000000 0.000000 0.047377 0.000000 0.000000
# 5 0.000000 0.000000 0.000000 0.000000 0.047377 0.000000
# 6 0.000000 0.000000 0.000000 0.000000 0.000000 0.054528
#
#
# Mechanical properties :
#
#
# Convention : Reuss Voigt Hill
#
# Bulk Modulus (GPa) = 61.54646 63.81140 62.67893
# Shear Modulus (GPa) = 16.33775 17.30786 16.82280
#
# Velocity S-wave (km/s) = 3.34239 3.44020 3.39165
# Velocity P-wave (km/s) = 7.54853 7.70802 7.62869
#
# Compressibility (1/GPa) = 0.01624789
#
# Stress axis : x y z
#
# Youngs Moduli (GPa) = 34.45079 34.45079 38.84931
#
# Poissons Ratio (x) = 0.32853 0.47080
# Poissons Ratio (y) = 0.32853 0.47080
# Poissons Ratio (z) = 0.41749 0.41749
#
# Static dielectric constant tensor:
#      x y z
#    x 2.829980 0.000000 0.000000 
#    y 0.000000 2.829980 0.000000 
#    z 0.000000 0.000000 3.001340 
# 
# 
# High freq. dielectric constant tensor:
#      x y z
#    x 1.544180 0.000000 0.000000 
#    y 0.000000 1.544180 0.000000 
#    z 0.000000 0.000000 1.564490 
# 
# From -- ./inp_files/8193.got.cif
#   From: 2010.03.12/outbox.cif.g09.slc.cpg/sg123_5_cif.got.tgz:8193.got - 2010.04.06 16:26:55.
