data_PCOD8313775
_publ_section_title
;
Structure prediction by ZEFSAII (Michael W. Deem and Ramdas Pophale) SiO2 
 PCOD8313775
Probable space group: P 4/N N C
;
_chemical_formula_sum "Si O2"
_cell_formula_units_Z 112
_cell_length_a 15.097591
_cell_length_b 15.097591
_cell_length_c 24.662732
_cell_angle_alpha 90.000000
_cell_angle_beta 90.000000
_cell_angle_gamma 90.000000
_cell_volume 5621.555408
_symmetry_space_group_name_H-M "P 4/N N C"
_symmetry_group_IT_number 126
_space_group.IT_coordinate_system_code '2'
_symmetry_cell_setting 'tetragonal'
loop_
_space_group_symop_operation_xyz
x,y,z
1/2-y,x,z
1/2-x,1/2-y,z
y,1/2-x,z
x,1/2-y,1/2-z
1/2-x,y,1/2-z
y,x,1/2-z
1/2-y,1/2-x,1/2-z
-x,-y,-z
1/2+y,-x,-z
1/2+x,1/2+y,-z
-y,1/2+x,-z
-x,1/2+y,1/2+z
1/2+x,-y,1/2+z
-y,-x,1/2+z
1/2+y,1/2+x,1/2+z
loop_
_atom_site_type_symbol
_atom_site_label
_atom_site_fract_x
_atom_site_fract_y
_atom_site_fract_z
Si Si1 0.392756 0.243639 0.313009
Si Si2 0.350172 0.355951 0.689833
Si Si3 0.072540 0.406012 0.579522
Si Si4 0.335911 0.585593 0.937909
Si Si5 0.616327 0.133415 0.556265
Si Si6 0.783433 0.037076 0.600826
Si Si7 0.794090 0.614242 0.983196
O O1 0.340532 0.332665 0.329083
O O2 0.415064 0.250000 0.250000
O O3 0.484308 0.233549 0.344228
O O4 0.246543 0.372776 0.682502
O O5 0.383956 0.383956 0.750000
O O6 0.398402 0.412978 0.643918
O O7 0.135307 0.483518 0.556432
O O8 0.095082 0.314483 0.546895
O O9 0.969711 0.427815 0.567998
O O10 0.232794 0.594702 0.923449
O O11 0.393953 0.635273 0.891666
O O12 0.357022 0.636302 0.993615
O O13 0.695453 0.092496 0.590340
O O14 0.813147 0.973006 0.551428
O O15 0.859632 0.694274 0.968300
#
# Coordination Sequence:
#
# PCOD8313775 Si02
#       7
#    16  16  16  16  16  16  16
#     4   9  20  41  69  99 133 172 213 268 337 392
#     4   9  18  35  60  87 118 156 194 241 309 378
#     4  12  23  38  60  90 121 159 212 267 312 376
#     4  12  25  40  62  87 125 173 214 251 313 391
#     4  12  24  42  60  87 128 170 209 255 322 387
#     4  12  24  37  64  90 126 167 214 261 308 390
#     4  11  22  35  56  90 125 155 192 259 331 370
#
# _framework density 19.923311999999999
#
# number of rings (size 3 to 8) (size 9 to 14) (size 15 to 20)
#    0.000    1.000    2.857    6.000    4.000    2.286 
#    0.000    1.429    0.000    3.429    0.000    0.000 
#    0.000    0.000    0.000    0.000    0.000    0.000 
#
# Total GULP energy -1388718.239913 kJ/mol
# GULP energy per Si atom -12399.269999 kJ/mol
# Density = 1.987797 g / cm^3
# Si number density = 19.923312 Si / 1000 Ang^3
#
#
#
# Elastic Constant Matrix: (Units=GPa)
#
#
# Indices 1 2 3 4 5 6 
#
# 1 144.9268 8.3560 31.1509 0.0000 0.0000 0.0000
# 2 8.3560 144.9268 31.1509 0.0000 0.0000 0.0000
# 3 31.1509 31.1509 87.2719 0.0000 0.0000 0.0000
# 4 0.0000 0.0000 0.0000 26.6380 0.0000 0.0000
# 5 0.0000 0.0000 0.0000 0.0000 26.6380 0.0000
# 6 0.0000 0.0000 0.0000 0.0000 0.0000 43.9793
#
#
#
# Elastic Compliance Matrix: (Units=1/GPa)
#
#
# Indices 1 2 3 4 5 6 
#
# 1 0.007477 0.000154 -0.002724 0.000000 0.000000 0.000000
# 2 0.000154 0.007477 -0.002724 0.000000 0.000000 0.000000
# 3 -0.002724 -0.002724 0.013403 0.000000 0.000000 0.000000
# 4 0.000000 0.000000 0.000000 0.037540 0.000000 0.000000
# 5 0.000000 0.000000 0.000000 0.000000 0.037540 0.000000
# 6 0.000000 0.000000 0.000000 0.000000 0.000000 0.022738
#
#
# Mechanical properties :
#
#
# Convention : Reuss Voigt Hill
#
# Bulk Modulus (GPa) = 56.27573 57.60456 56.94015
# Shear Modulus (GPa) = 35.04240 39.88227 37.46233
#
# Velocity S-wave (km/s) = 4.19843 4.47899 4.34098
# Velocity P-wave (km/s) = 7.19791 7.46488 7.33261
#
# Compressibility (1/GPa) = 0.01776965
#
# Stress axis : x y z
#
# Youngs Moduli (GPa) = 133.75075 133.75075 74.61068
#
# Poissons Ratio (x) = -0.02065 0.20322
# Poissons Ratio (y) = -0.02065 0.20322
# Poissons Ratio (z) = 0.36431 0.36431
#
# Static dielectric constant tensor:
#      x y z
#    x 3.697580 0.000000 0.000000 
#    y 0.000000 3.697580 0.000000 
#    z 0.000000 0.000000 3.429680 
# 
# 
# High freq. dielectric constant tensor:
#      x y z
#    x 1.780490 0.000000 0.000000 
#    y 0.000000 1.780490 0.000000 
#    z 0.000000 0.000000 1.751000 
# 
# From -- ./inp_files/5814.got.cif
#   From: 2010.03.12/outbox.cif.g09.slc.cpg/sg126_3_cif.got.tgz:5814.got - 2010.04.06 16:55:23.
