data_PCOD8313266
_publ_section_title
;
Structure prediction by ZEFSAII (Michael W. Deem and Ramdas Pophale) SiO2 
 PCOD8313266
Probable space group: P 4/M C C
;
_chemical_formula_sum "Si O2"
_cell_formula_units_Z 96
_cell_length_a 16.758613
_cell_length_b 16.758613
_cell_length_c 17.615476
_cell_angle_alpha 90.000000
_cell_angle_beta 90.000000
_cell_angle_gamma 90.000000
_cell_volume 4947.325982
_symmetry_space_group_name_H-M "P 4/M C C"
_symmetry_group_IT_number 124
_symmetry_cell_setting 'tetragonal'
loop_
_space_group_symop_operation_xyz
x,y,z
-y,x,z
-x,-y,z
y,-x,z
x,-y,1/2-z
-x,y,1/2-z
y,x,1/2-z
-y,-x,1/2-z
-x,-y,-z
y,-x,-z
x,y,-z
-y,x,-z
-x,y,1/2+z
x,-y,1/2+z
-y,-x,1/2+z
y,x,1/2+z
loop_
_atom_site_type_symbol
_atom_site_label
_atom_site_fract_x
_atom_site_fract_y
_atom_site_fract_z
Si Si1 0.333626 0.891596 0.586939
Si Si2 0.644033 0.353201 0.838187
Si Si3 0.494647 0.867863 0.839771
Si Si4 0.931348 0.656677 0.086828
Si Si5 0.255781 0.773748 0.088553
Si Si6 0.502143 0.292469 0.911008
O O1 0.356140 0.873549 0.500000
O O2 0.415821 0.884858 0.632920
O O3 0.260859 0.832035 0.611602
O O4 0.302407 0.982037 0.598533
O O5 0.632966 0.367035 0.750000
O O6 0.679859 0.267552 0.857294
O O7 0.557880 0.363108 0.878506
O O8 0.704808 0.415320 0.874433
O O9 0.500000 0.856845 0.750000
O O10 0.424648 0.930620 0.861721
O O11 0.460403 0.789884 0.882129
O O12 0.867532 0.727590 0.106034
O O13 0.920002 0.628250 0.000000
O O14 0.273063 0.755020 0.000000
O O15 0.496364 0.298337 0.000000
#
# Coordination Sequence:
#
# PCOD8313266 Si02
#       6
#    16  16  16  16  16  16
#     4  10  21  37  58  84 115 153 197 239 286 352
#     4  12  24  39  59  86 115 149 196 248 291 331
#     4  12  23  35  55  86 119 150 189 243 296 343
#     4  10  21  37  58  84 115 153 197 239 286 352
#     4  10  20  36  59  82 112 156 194 230 288 353
#     4  12  24  40  60  82 113 157 200 238 286 346
#
# _framework density 19.404423000000001
#
# number of rings (size 3 to 8) (size 9 to 14) (size 15 to 20)
#    0.000    1.000    3.333    5.000    0.000    3.000 
#    0.000    1.667    0.000    0.500    0.000    3.500 
#    0.000    0.000    0.000    4.500    0.000    5.000 
#
# Total GULP energy -1189750.387689 kJ/mol
# GULP energy per Si atom -12393.233205 kJ/mol
# Density = 1.936026 g / cm^3
# Si number density = 19.404423 Si / 1000 Ang^3
#
#
#
# Elastic Constant Matrix: (Units=GPa)
#
#
# Indices 1 2 3 4 5 6 
#
# 1 108.6489 46.5619 37.6271 0.0000 0.0000 0.0000
# 2 46.5619 108.6487 37.6270 0.0000 0.0000 0.0000
# 3 37.6271 37.6270 130.5665 0.0000 0.0000 0.0000
# 4 0.0000 0.0000 0.0000 4.3328 0.0000 0.0000
# 5 0.0000 0.0000 0.0000 0.0000 4.3318 0.0000
# 6 0.0000 0.0000 0.0000 0.0000 0.0000 26.4396
#
#
#
# Elastic Compliance Matrix: (Units=1/GPa)
#
#
# Indices 1 2 3 4 5 6 
#
# 1 0.011798 -0.004309 -0.002158 0.000000 0.000000 0.000000
# 2 -0.004309 0.011798 -0.002158 0.000000 0.000000 0.000000
# 3 -0.002158 -0.002158 0.008903 0.000000 0.000000 0.000000
# 4 0.000000 0.000000 0.000000 0.230798 0.000000 0.000000
# 5 0.000000 0.000000 0.000000 0.000000 0.230853 0.000000
# 6 0.000000 0.000000 0.000000 0.000000 0.000000 0.037822
#
#
# Mechanical properties :
#
#
# Convention : Reuss Voigt Hill
#
# Bulk Modulus (GPa) = 65.58088 65.72178 65.65133
# Shear Modulus (GPa) = 9.02031 22.09072 15.55551
#
# Velocity S-wave (km/s) = 2.15840 3.37773 2.83441
# Velocity P-wave (km/s) = 6.33102 7.01107 6.67971
#
# Compressibility (1/GPa) = 0.01524835
#
# Stress axis : x y z
#
# Youngs Moduli (GPa) = 84.76111 84.76100 112.32303
#
# Poissons Ratio (x) = 0.36520 0.24243
# Poissons Ratio (y) = 0.36520 0.24242
# Poissons Ratio (z) = 0.18294 0.18294
#
# Static dielectric constant tensor:
#      x y z
#    x 3.628640 0.000000 0.000000 
#    y 0.000000 3.628640 0.000000 
#    z 0.000000 0.000000 3.454910 
# 
# 
# High freq. dielectric constant tensor:
#      x y z
#    x 1.747290 0.000000 0.000000 
#    y 0.000000 1.747290 0.000000 
#    z 0.000000 0.000000 1.752270 
# 
# From -- ./inp_files/4261.got.cif
#   From: 2010.03.12/outbox.cif.g09.slc.cpg/sg124_3_cif.got.tgz:4261.got - 2010.04.06 16:38:57.
