data_PCOD8313962
_publ_section_title
;
Structure prediction by ZEFSAII (Michael W. Deem and Ramdas Pophale) SiO2 
 PCOD8313962
Probable space group: P 4/M B M
;
_chemical_formula_sum "Si O2"
_cell_formula_units_Z 96
_cell_length_a 23.837476
_cell_length_b 23.837476
_cell_length_c 9.458223
_cell_angle_alpha 90.000000
_cell_angle_beta 90.000000
_cell_angle_gamma 90.000000
_cell_volume 5374.401243
_symmetry_space_group_name_H-M "P 4/M B M"
_symmetry_group_IT_number 127
_symmetry_cell_setting 'tetragonal'
loop_
_space_group_symop_operation_xyz
x,y,z
-y,x,z
-x,-y,z
y,-x,z
1/2+x,1/2-y,-z
1/2-x,1/2+y,-z
1/2+y,1/2+x,-z
1/2-y,1/2-x,-z
-x,-y,-z
y,-x,-z
x,y,-z
-y,x,-z
1/2-x,1/2+y,z
1/2+x,1/2-y,z
1/2-y,1/2-x,z
1/2+y,1/2+x,z
loop_
_atom_site_type_symbol
_atom_site_label
_atom_site_fract_x
_atom_site_fract_y
_atom_site_fract_z
Si Si1 0.138509 0.273854 0.832739
Si Si2 0.643422 0.351120 0.834216
Si Si3 0.940816 0.347459 0.340969
Si Si4 0.861248 0.546445 0.840860
Si Si5 0.065064 0.064237 0.335127
Si Si6 0.773589 0.364320 0.837385
O O1 0.193601 0.306400 0.771052
O O2 0.130662 0.211102 0.773590
O O3 0.082916 0.307900 0.792352
O O4 0.146414 0.270930 0.000000
O O5 0.605952 0.396387 0.754061
O O6 0.708582 0.359732 0.802193
O O7 0.629848 0.356395 0.000000
O O8 0.953773 0.327783 0.500000
O O9 0.898751 0.398751 0.338330
O O10 0.915503 0.295179 0.256766
O O11 0.996815 0.369032 0.268280
O O12 0.917111 0.582890 0.835230
O O13 0.852174 0.523449 0.000000
O O14 0.076021 0.075080 0.500000
O O15 0.000508 0.078158 0.297164
O O16 0.806153 0.306153 0.800857
O O17 0.783788 0.380095 0.000000
#
# Coordination Sequence:
#
# PCOD8313962 Si02
#       6
#    16  16  16  16  16  16
#     4   8  15  30  51  75 104 133 160 196 245 298
#     4  10  19  31  54  84 104 124 161 206 248 292
#     4  10  21  35  50  70  99 135 172 212 255 293
#     4   9  18  33  53  75 100 133 170 208 252 302
#     4   9  20  39  56  69  95 136 172 201 241 295
#     4   9  18  33  52  74 102 134 165 199 243 297
#
# _framework density 17.862456000000002
#
# number of rings (size 3 to 8) (size 9 to 14) (size 15 to 20)
#    0.000    2.833    0.000    2.500    0.000    6.333 
#    0.000    8.333    0.000    2.500    0.000    0.000 
#    0.000    0.000    0.000    0.000    0.000    0.000 
#
# Total GULP energy -1190145.204782 kJ/mol
# GULP energy per Si atom -12397.345883 kJ/mol
# Density = 1.782180 g / cm^3
# Si number density = 17.862456 Si / 1000 Ang^3
#
#
#
# Elastic Constant Matrix: (Units=GPa)
#
#
# Indices 1 2 3 4 5 6 
#
# 1 87.0472 7.4770 36.0536 0.0000 0.0000 0.0000
# 2 7.4770 87.0472 36.0536 0.0000 0.0000 0.0000
# 3 36.0536 36.0536 66.9653 0.0000 0.0000 0.0000
# 4 0.0000 0.0000 0.0000 19.8959 0.0000 0.0000
# 5 0.0000 0.0000 0.0000 0.0000 19.8959 0.0000
# 6 0.0000 0.0000 0.0000 0.0000 0.0000 19.2322
#
#
#
# Elastic Compliance Matrix: (Units=1/GPa)
#
#
# Indices 1 2 3 4 5 6 
#
# 1 0.015260 0.002693 -0.009666 0.000000 0.000000 0.000000
# 2 0.002693 0.015260 -0.009666 0.000000 0.000000 0.000000
# 3 -0.009666 -0.009666 0.025341 0.000000 0.000000 0.000000
# 4 0.000000 0.000000 0.000000 0.050262 0.000000 0.000000
# 5 0.000000 0.000000 0.000000 0.000000 0.050262 0.000000
# 6 0.000000 0.000000 0.000000 0.000000 0.000000 0.051996
#
#
# Mechanical properties :
#
#
# Convention : Reuss Voigt Hill
#
# Bulk Modulus (GPa) = 44.27945 44.46981 44.37463
# Shear Modulus (GPa) = 20.06537 22.56982 21.31760
#
# Velocity S-wave (km/s) = 3.35524 3.55848 3.45835
# Velocity P-wave (km/s) = 6.31293 6.46788 6.39087
#
# Compressibility (1/GPa) = 0.02258384
#
# Stress axis : x y z
#
# Youngs Moduli (GPa) = 65.53051 65.53051 39.46201
#
# Poissons Ratio (x) = -0.17644 0.38142
# Poissons Ratio (y) = -0.17644 0.38142
# Poissons Ratio (z) = 0.63339 0.63339
#
# Static dielectric constant tensor:
#      x y z
#    x 3.369460 0.000000 0.000000 
#    y 0.000000 3.369460 0.000000 
#    z 0.000000 0.000000 3.189220 
# 
# 
# High freq. dielectric constant tensor:
#      x y z
#    x 1.694530 0.000000 0.000000 
#    y 0.000000 1.694530 0.000000 
#    z 0.000000 0.000000 1.669690 
# 
# From -- ./inp_files/1933.got.cif
#   From: 2010.03.12/outbox.cif.g09.slc.cpg/sg127_1_cif.got.tgz:1933.got - 2010.04.06 17:03:15.
