data_PCOD8313891
_publ_section_title
;
Structure prediction by ZEFSAII (Michael W. Deem and Ramdas Pophale) SiO2 
 PCOD8313891
Probable space group: P 4/M B M
;
_chemical_formula_sum "Si O2"
_cell_formula_units_Z 96
_cell_length_a 14.644418
_cell_length_b 14.644418
_cell_length_c 23.113766
_cell_angle_alpha 90.000000
_cell_angle_beta 90.000000
_cell_angle_gamma 90.000000
_cell_volume 4956.954647
_symmetry_space_group_name_H-M "P 4/M B M"
_symmetry_group_IT_number 127
_symmetry_cell_setting 'tetragonal'
loop_
_space_group_symop_operation_xyz
x,y,z
-y,x,z
-x,-y,z
y,-x,z
1/2+x,1/2-y,-z
1/2-x,1/2+y,-z
1/2+y,1/2+x,-z
1/2-y,1/2-x,-z
-x,-y,-z
y,-x,-z
x,y,-z
-y,x,-z
1/2-x,1/2+y,z
1/2+x,1/2-y,z
1/2-y,1/2-x,z
1/2+y,1/2+x,z
loop_
_atom_site_type_symbol
_atom_site_label
_atom_site_fract_x
_atom_site_fract_y
_atom_site_fract_z
Si Si1 0.295463 0.948517 0.181235
Si Si2 0.032658 0.755084 0.434127
Si Si3 0.076650 0.576650 0.752086
Si Si4 0.061597 0.138472 0.735469
Si Si5 0.504191 0.850978 0.936650
Si Si6 0.353402 0.698789 0.380022
Si Si7 0.574119 0.925882 0.624120
O O1 0.362878 0.862878 0.185704
O O2 0.197778 0.918689 0.207095
O O3 0.280118 0.980173 0.114540
O O4 0.334806 0.036094 0.215780
O O5 0.066751 0.763273 0.500000
O O6 0.102692 0.805595 0.391726
O O7 0.027795 0.651426 0.414013
O O8 0.930288 0.793036 0.429435
O O9 0.107966 0.607966 0.687566
O O10 0.000000 0.500000 0.752154
O O11 0.094063 0.199326 0.681135
O O12 0.954043 0.118936 0.734393
O O13 0.431730 0.931730 0.934337
O O14 0.603998 0.896003 0.926601
O O15 0.501015 0.802433 0.000000
O O16 0.280908 0.780908 0.382645
O O17 0.500000 0.000000 0.638637
#
# Coordination Sequence:
#
# PCOD8313891 Si02
#       7
#    16  16   8  16  16  16   8
#     4  10  18  33  57  89 123 158 201 249 303 361
#     4  12  26  43  66  93 122 160 206 256 317 392
#     4   9  18  31  53  87 123 154 186 237 301 363
#     4  11  24  43  62  83 116 156 202 254 309 374
#     4   8  13  24  47  84 128 167 199 239 296 356
#     4  12  25  45  68  92 123 159 204 261 320 384
#     4  11  23  40  61  91 130 164 201 257 327 388
#
# _framework density 19.366728999999999
#
# number of rings (size 3 to 8) (size 9 to 14) (size 15 to 20)
#    0.000    1.500    3.333    3.250    0.000    4.000 
#    1.500    0.833    0.000    1.000    0.000    3.500 
#    0.000    0.000    0.000    0.000    0.000    0.000 
#
# Total GULP energy -1190167.388361 kJ/mol
# GULP energy per Si atom -12397.576962 kJ/mol
# Density = 1.932265 g / cm^3
# Si number density = 19.366729 Si / 1000 Ang^3
#
#
#
# Elastic Constant Matrix: (Units=GPa)
#
#
# Indices 1 2 3 4 5 6 
#
# 1 85.4241 29.1120 40.9642 0.0000 0.0000 0.0000
# 2 29.1120 85.4241 40.9642 0.0000 0.0000 0.0000
# 3 40.9642 40.9642 151.5274 0.0000 0.0000 0.0000
# 4 0.0000 0.0000 0.0000 28.5062 0.0000 0.0000
# 5 0.0000 0.0000 0.0000 0.0000 28.5062 0.0000
# 6 0.0000 0.0000 0.0000 0.0000 0.0000 15.5341
#
#
#
# Elastic Compliance Matrix: (Units=1/GPa)
#
#
# Indices 1 2 3 4 5 6 
#
# 1 0.014291 -0.003467 -0.002926 0.000000 0.000000 0.000000
# 2 -0.003467 0.014291 -0.002926 0.000000 0.000000 0.000000
# 3 -0.002926 -0.002926 0.008182 0.000000 0.000000 0.000000
# 4 0.000000 0.000000 0.000000 0.035080 0.000000 0.000000
# 5 0.000000 0.000000 0.000000 0.000000 0.035080 0.000000
# 6 0.000000 0.000000 0.000000 0.000000 0.000000 0.064374
#
#
# Mechanical properties :
#
#
# Convention : Reuss Voigt Hill
#
# Bulk Modulus (GPa) = 55.17286 60.49519 57.83403
# Shear Modulus (GPa) = 25.51296 28.59831 27.05564
#
# Velocity S-wave (km/s) = 3.63348 3.84692 3.74172
# Velocity P-wave (km/s) = 6.79362 7.14396 6.97099
#
# Compressibility (1/GPa) = 0.01812485
#
# Stress axis : x y z
#
# Youngs Moduli (GPa) = 69.97373 69.97373 122.22536
#
# Poissons Ratio (x) = 0.24261 0.35765
# Poissons Ratio (y) = 0.24261 0.35765
# Poissons Ratio (z) = 0.20476 0.20476
#
# Static dielectric constant tensor:
#      x y z
#    x 3.348540 0.000000 0.000000 
#    y 0.000000 3.348540 0.000000 
#    z 0.000000 0.000000 3.823890 
# 
# 
# High freq. dielectric constant tensor:
#      x y z
#    x 1.735990 0.000000 0.000000 
#    y 0.000000 1.735990 0.000000 
#    z 0.000000 0.000000 1.760370 
# 
# From -- ./inp_files/5825.got.cif
#   From: 2010.03.12/outbox.cif.g09.slc.cpg/sg127_3_cif.got.tgz:5825.got - 2010.04.06 17:03:15.
