data_PCOD8313203
_publ_section_title
;
Structure prediction by ZEFSAII (Michael W. Deem and Ramdas Pophale) SiO2 
 PCOD8313203
Probable space group: P 4/M C C
;
_chemical_formula_sum "Si O2"
_cell_formula_units_Z 56
_cell_length_a 16.014844
_cell_length_b 16.014844
_cell_length_c 9.125693
_cell_angle_alpha 90.000000
_cell_angle_beta 90.000000
_cell_angle_gamma 90.000000
_cell_volume 2340.514196
_symmetry_space_group_name_H-M "P 4/M C C"
_symmetry_group_IT_number 124
_symmetry_cell_setting 'tetragonal'
loop_
_space_group_symop_operation_xyz
x,y,z
-y,x,z
-x,-y,z
y,-x,z
x,-y,1/2-z
-x,y,1/2-z
y,x,1/2-z
-y,-x,1/2-z
-x,-y,-z
y,-x,-z
x,y,-z
-y,x,-z
-x,y,1/2+z
x,-y,1/2+z
-y,-x,1/2+z
y,x,1/2+z
loop_
_atom_site_type_symbol
_atom_site_label
_atom_site_fract_x
_atom_site_fract_y
_atom_site_fract_z
Si Si1 0.077975 0.185601 0.338020
Si Si2 0.640501 0.757148 0.336503
Si Si3 0.370124 0.547088 0.500000
Si Si4 0.080424 0.617800 0.835651
O O1 0.161684 0.161684 0.250000
O O2 0.080320 0.146678 0.500000
O O3 0.070461 0.283979 0.346402
O O4 0.000000 0.147036 0.250000
O O5 0.720152 0.720152 0.250000
O O6 0.671451 0.785878 0.500000
O O7 0.570142 0.684713 0.356014
O O8 0.597429 0.834529 0.252143
O O9 0.393520 0.450972 0.500000
O O10 0.000000 0.579938 0.750000
O O11 0.085367 0.579271 0.000000
#
# Coordination Sequence:
#
# PCOD8313203 Si02
#       4
#    16  16   8  16
#     4  10  20  32  47  70 104 156 211 268 329 399
#     4  10  21  36  61  96 136 182 239 295 358 433
#     4   9  22  44  70 102 144 188 240 301 372 443
#     4  10  20  35  59  91 134 179 230 289 350 419
#
# _framework density 23.926366999999999
#
# number of rings (size 3 to 8) (size 9 to 14) (size 15 to 20)
#    0.857    1.286    0.000    3.429    0.000    7.143 
#    0.000    2.857    0.000    0.000    0.000    6.000 
#    0.000    0.000    0.000    0.000    0.000    0.000 
#
# Total GULP energy -694103.802199 kJ/mol
# GULP energy per Si atom -12394.710754 kJ/mol
# Density = 2.387191 g / cm^3
# Si number density = 23.926367 Si / 1000 Ang^3
#
#
#
# Elastic Constant Matrix: (Units=GPa)
#
#
# Indices 1 2 3 4 5 6 
#
# 1 108.8550 39.7111 61.5937 0.0000 0.0000 0.0000
# 2 39.7111 108.8550 61.5937 0.0000 0.0000 0.0000
# 3 61.5937 61.5937 215.0851 0.0000 0.0000 0.0000
# 4 0.0000 0.0000 0.0000 23.7149 0.0000 0.0000
# 5 0.0000 0.0000 0.0000 0.0000 23.7149 0.0000
# 6 0.0000 0.0000 0.0000 0.0000 0.0000 19.0901
#
#
#
# Elastic Compliance Matrix: (Units=1/GPa)
#
#
# Indices 1 2 3 4 5 6 
#
# 1 0.011645 -0.002818 -0.002528 0.000000 0.000000 0.000000
# 2 -0.002818 0.011645 -0.002528 0.000000 0.000000 0.000000
# 3 -0.002528 -0.002528 0.006097 0.000000 0.000000 0.000000
# 4 0.000000 0.000000 0.000000 0.042168 0.000000 0.000000
# 5 0.000000 0.000000 0.000000 0.000000 0.042168 0.000000
# 6 0.000000 0.000000 0.000000 0.000000 0.000000 0.052383
#
#
# Mechanical properties :
#
#
# Convention : Reuss Voigt Hill
#
# Bulk Modulus (GPa) = 73.31411 84.28800 78.80106
# Shear Modulus (GPa) = 26.82431 31.29711 29.06071
#
# Velocity S-wave (km/s) = 3.35194 3.62063 3.48888
# Velocity P-wave (km/s) = 6.75935 7.26521 7.01684
#
# Compressibility (1/GPa) = 0.01363994
#
# Stress axis : x y z
#
# Youngs Moduli (GPa) = 85.87537 85.87537 164.01322
#
# Poissons Ratio (x) = 0.24198 0.41459
# Poissons Ratio (y) = 0.24198 0.41459
# Poissons Ratio (z) = 0.21707 0.21707
#
# Static dielectric constant tensor:
#      x y z
#    x 4.000170 0.000000 0.000000 
#    y 0.000000 4.000170 0.000000 
#    z 0.000000 0.000000 4.889260 
# 
# 
# High freq. dielectric constant tensor:
#      x y z
#    x 1.935250 0.000000 0.000000 
#    y 0.000000 1.935250 0.000000 
#    z 0.000000 0.000000 1.959550 
# 
# From -- ./inp_files/626.got.cif
#   From: 2010.03.12/outbox.cif.g09.slc.cpg/sg124_1_cif.got.tgz:626.got - 2010.04.06 16:38:57.
