data_PCOD8313640
_publ_section_title
;
Structure prediction by ZEFSAII (Michael W. Deem and Ramdas Pophale) SiO2 
 PCOD8313640
Probable space group: P 4/N N C
;
_chemical_formula_sum "Si O2"
_cell_formula_units_Z 60
_cell_length_a 16.620867
_cell_length_b 16.620867
_cell_length_c 10.879596
_cell_angle_alpha 90.000000
_cell_angle_beta 90.000000
_cell_angle_gamma 90.000000
_cell_volume 3005.523425
_symmetry_space_group_name_H-M "P 4/N N C"
_symmetry_group_IT_number 126
_space_group.IT_coordinate_system_code '2'
_symmetry_cell_setting 'tetragonal'
loop_
_space_group_symop_operation_xyz
x,y,z
1/2-y,x,z
1/2-x,1/2-y,z
y,1/2-x,z
x,1/2-y,1/2-z
1/2-x,y,1/2-z
y,x,1/2-z
1/2-y,1/2-x,1/2-z
-x,-y,-z
1/2+y,-x,-z
1/2+x,1/2+y,-z
-y,1/2+x,-z
-x,1/2+y,1/2+z
1/2+x,-y,1/2+z
-y,-x,1/2+z
1/2+y,1/2+x,1/2+z
loop_
_atom_site_type_symbol
_atom_site_label
_atom_site_fract_x
_atom_site_fract_y
_atom_site_fract_z
Si Si1 0.476241 0.250000 0.250000
Si Si2 0.750000 0.250000 0.250000
Si Si3 0.829767 0.108034 0.603889
Si Si4 0.274358 0.119892 0.487435
Si Si5 0.777635 0.457921 0.387626
O O1 0.534119 0.179086 0.300968
O O2 0.420228 0.287106 0.354608
O O3 0.692703 0.200407 0.340682
O O4 0.787291 0.083954 0.477362
O O5 0.923294 0.132172 0.582802
O O6 0.342770 0.186130 0.501931
O O7 0.283492 0.053455 0.592775
O O8 0.750000 0.439988 0.250000
#
# Coordination Sequence:
#
# PCOD8313640 Si02
#       5
#     8   4  16  16  16
#     4   9  20  36  64  95 124 152 202 263 318 358
#     4  10  16  34  58  86 120 166 204 244 288 356
#     4  10  20  34  57  92 126 163 204 245 302 376
#     4  10  22  42  68  90 114 159 219 266 304 359
#     4  11  23  37  59  89 130 162 204 248 307 368
#
# _framework density 19.963245000000001
#
# number of rings (size 3 to 8) (size 9 to 14) (size 15 to 20)
#    0.000    1.867    1.333    2.400    7.467    2.133 
#    0.000    6.667   11.733    0.000    0.000    0.000 
#    0.000    0.000    0.000    0.000    0.000    0.000 
#
# Total GULP energy -743747.843117 kJ/mol
# GULP energy per Si atom -12395.797385 kJ/mol
# Density = 1.991781 g / cm^3
# Si number density = 19.963245 Si / 1000 Ang^3
#
#
#
# Elastic Constant Matrix: (Units=GPa)
#
#
# Indices 1 2 3 4 5 6 
#
# 1 129.9026 67.0138 47.1772 0.0000 0.0000 0.0000
# 2 67.0138 129.9026 47.1772 0.0000 0.0000 0.0000
# 3 47.1772 47.1772 118.6045 0.0000 0.0000 0.0000
# 4 0.0000 0.0000 0.0000 22.3983 0.0000 0.0000
# 5 0.0000 0.0000 0.0000 0.0000 22.3983 0.0000
# 6 0.0000 0.0000 0.0000 0.0000 0.0000 16.5716
#
#
#
# Elastic Compliance Matrix: (Units=1/GPa)
#
#
# Indices 1 2 3 4 5 6 
#
# 1 0.011088 -0.004813 -0.002496 0.000000 0.000000 0.000000
# 2 -0.004813 0.011088 -0.002496 0.000000 0.000000 0.000000
# 3 -0.002496 -0.002496 0.010417 0.000000 0.000000 0.000000
# 4 0.000000 0.000000 0.000000 0.044646 0.000000 0.000000
# 5 0.000000 0.000000 0.000000 0.000000 0.044646 0.000000
# 6 0.000000 0.000000 0.000000 0.000000 0.000000 0.060344
#
#
# Mechanical properties :
#
#
# Convention : Reuss Voigt Hill
#
# Bulk Modulus (GPa) = 77.02737 77.90513 77.46625
# Shear Modulus (GPa) = 24.25234 26.74309 25.49772
#
# Velocity S-wave (km/s) = 3.48925 3.66405 3.57772
# Velocity P-wave (km/s) = 7.40956 7.55045 7.48034
#
# Compressibility (1/GPa) = 0.01298240
#
# Stress axis : x y z
#
# Youngs Moduli (GPa) = 90.19091 90.19091 95.99915
#
# Poissons Ratio (x) = 0.43413 0.23958
# Poissons Ratio (y) = 0.43413 0.23958
# Poissons Ratio (z) = 0.22508 0.22508
#
# Static dielectric constant tensor:
#      x y z
#    x 3.750030 0.000000 0.000000 
#    y 0.000000 3.750030 0.000000 
#    z 0.000000 0.000000 3.689720 
# 
# 
# High freq. dielectric constant tensor:
#      x y z
#    x 1.770600 0.000000 0.000000 
#    y 0.000000 1.770600 0.000000 
#    z 0.000000 0.000000 1.789360 
# 
# From -- ./inp_files/2612.got.cif
#   From: 2010.03.12/outbox.cif.g09.slc.cpg/sg126_2_cif.got.tgz:2612.got - 2010.04.06 16:55:23.
