data_PCOD8313773
_publ_section_title
;
Structure prediction by ZEFSAII (Michael W. Deem and Ramdas Pophale) SiO2 
 PCOD8313773
Probable space group: P 4/N N C
;
_chemical_formula_sum "Si O2"
_cell_formula_units_Z 112
_cell_length_a 15.249480
_cell_length_b 15.249480
_cell_length_c 22.628700
_cell_angle_alpha 90.000000
_cell_angle_beta 90.000000
_cell_angle_gamma 90.000000
_cell_volume 5262.228159
_symmetry_space_group_name_H-M "P 4/N N C"
_symmetry_group_IT_number 126
_space_group.IT_coordinate_system_code '2'
_symmetry_cell_setting 'tetragonal'
loop_
_space_group_symop_operation_xyz
x,y,z
1/2-y,x,z
1/2-x,1/2-y,z
y,1/2-x,z
x,1/2-y,1/2-z
1/2-x,y,1/2-z
y,x,1/2-z
1/2-y,1/2-x,1/2-z
-x,-y,-z
1/2+y,-x,-z
1/2+x,1/2+y,-z
-y,1/2+x,-z
-x,1/2+y,1/2+z
1/2+x,-y,1/2+z
-y,-x,1/2+z
1/2+y,1/2+x,1/2+z
loop_
_atom_site_type_symbol
_atom_site_label
_atom_site_fract_x
_atom_site_fract_y
_atom_site_fract_z
Si Si1 0.355697 0.152254 0.516983
Si Si2 0.307374 0.569100 0.807269
Si Si3 0.811906 0.128483 0.493797
Si Si4 0.946511 0.221460 0.188194
Si Si5 0.956850 0.564602 0.121880
Si Si6 0.367391 0.012843 0.079289
Si Si7 0.605980 0.135542 0.632137
O O1 0.373249 0.255234 0.518865
O O2 0.400349 0.113268 0.575063
O O3 0.394403 0.118965 0.453765
O O4 0.250000 0.543360 0.750000
O O5 0.372285 0.650165 0.794875
O O6 0.361927 0.484093 0.829854
O O7 0.238907 0.599614 0.856398
O O8 0.712856 0.148539 0.472364
O O9 0.874222 0.107053 0.438547
O O10 0.806958 0.047566 0.538191
O O11 0.992356 0.250000 0.250000
O O12 0.903255 0.306235 0.159218
O O13 0.019085 0.179494 0.143849
O O14 0.916176 0.480171 0.156112
O O15 0.040377 0.534876 0.084691
#
# Coordination Sequence:
#
# PCOD8313773 Si02
#       7
#    16  16  16  16  16  16  16
#     4  11  25  43  67  93 132 181 228 274 334 407
#     4  11  24  43  66  94 135 180 229 275 341 418
#     4  11  22  34  58 100 136 164 210 277 358 419
#     4  11  23  42  67  98 135 180 224 275 348 414
#     4  11  25  41  65  99 135 172 223 284 344 400
#     4  11  24  40  67  98 134 175 222 283 350 406
#     4  12  23  38  65  93 131 178 217 280 338 411
#
# _framework density 21.283760000000001
#
# number of rings (size 3 to 8) (size 9 to 14) (size 15 to 20)
#    0.000    0.857    4.286    3.429    6.000    0.571 
#    0.000    0.000    0.000    0.000    0.000    2.000 
#    0.000    0.000    0.000    0.000    0.000    0.000 
#
# Total GULP energy -1388639.761792 kJ/mol
# GULP energy per Si atom -12398.569302 kJ/mol
# Density = 2.123532 g / cm^3
# Si number density = 21.283760 Si / 1000 Ang^3
#
#
#
# Elastic Constant Matrix: (Units=GPa)
#
#
# Indices 1 2 3 4 5 6 
#
# 1 89.8891 39.6355 45.8553 0.0000 0.0000 0.0000
# 2 39.6355 89.8891 45.8553 0.0000 0.0000 0.0000
# 3 45.8553 45.8553 135.3039 0.0000 0.0000 0.0000
# 4 0.0000 0.0000 0.0000 32.5171 0.0000 0.0000
# 5 0.0000 0.0000 0.0000 0.0000 32.5171 0.0000
# 6 0.0000 0.0000 0.0000 0.0000 0.0000 18.5521
#
#
#
# Elastic Compliance Matrix: (Units=1/GPa)
#
#
# Indices 1 2 3 4 5 6 
#
# 1 0.015029 -0.004870 -0.003443 0.000000 0.000000 0.000000
# 2 -0.004870 0.015029 -0.003443 0.000000 0.000000 0.000000
# 3 -0.003443 -0.003443 0.009724 0.000000 0.000000 0.000000
# 4 0.000000 0.000000 0.000000 0.030753 0.000000 0.000000
# 5 0.000000 0.000000 0.000000 0.000000 0.030753 0.000000
# 6 0.000000 0.000000 0.000000 0.000000 0.000000 0.053902
#
#
# Mechanical properties :
#
#
# Convention : Reuss Voigt Hill
#
# Bulk Modulus (GPa) = 61.46322 64.19715 62.83018
# Shear Modulus (GPa) = 27.15552 28.96632 28.06092
#
# Velocity S-wave (km/s) = 3.57582 3.69312 3.63494
# Velocity P-wave (km/s) = 6.78154 6.95798 6.87033
#
# Compressibility (1/GPa) = 0.01626989
#
# Stress axis : x y z
#
# Youngs Moduli (GPa) = 66.53980 66.53980 102.83576
#
# Poissons Ratio (x) = 0.32408 0.35403
# Poissons Ratio (y) = 0.32408 0.35403
# Poissons Ratio (z) = 0.22907 0.22907
#
# Static dielectric constant tensor:
#      x y z
#    x 3.905740 0.000000 0.000000 
#    y 0.000000 3.905740 0.000000 
#    z 0.000000 0.000000 3.960410 
# 
# 
# High freq. dielectric constant tensor:
#      x y z
#    x 1.830430 0.000000 0.000000 
#    y 0.000000 1.830430 0.000000 
#    z 0.000000 0.000000 1.835210 
# 
# From -- ./inp_files/5827.got.cif
#   From: 2010.03.12/outbox.cif.g09.slc.cpg/sg126_3_cif.got.tgz:5827.got - 2010.04.06 16:55:23.
