data_PCOD8313364
_publ_section_title
;
Structure prediction by ZEFSAII (Michael W. Deem and Ramdas Pophale) SiO2 
 PCOD8313364
Probable space group: P 4/M C C
;
_chemical_formula_sum "Si O2"
_cell_formula_units_Z 104
_cell_length_a 17.719369
_cell_length_b 17.719369
_cell_length_c 19.282998
_cell_angle_alpha 90.000000
_cell_angle_beta 90.000000
_cell_angle_gamma 90.000000
_cell_volume 6054.399308
_symmetry_space_group_name_H-M "P 4/M C C"
_symmetry_group_IT_number 124
_symmetry_cell_setting 'tetragonal'
loop_
_space_group_symop_operation_xyz
x,y,z
-y,x,z
-x,-y,z
y,-x,z
x,-y,1/2-z
-x,y,1/2-z
y,x,1/2-z
-y,-x,1/2-z
-x,-y,-z
y,-x,-z
x,y,-z
-y,x,-z
-x,y,1/2+z
x,-y,1/2+z
-y,-x,1/2+z
y,x,1/2+z
loop_
_atom_site_type_symbol
_atom_site_label
_atom_site_fract_x
_atom_site_fract_y
_atom_site_fract_z
Si Si1 0.266845 0.852363 0.000000
Si Si2 0.755683 0.122886 0.236123
Si Si3 0.326027 0.935238 0.370334
Si Si4 0.483109 0.912295 0.420890
Si Si5 0.117562 0.764439 0.000000
Si Si6 0.642384 0.111297 0.125917
Si Si7 0.974985 0.849658 0.000000
Si Si8 0.111948 0.956864 0.155262
O O1 0.203668 0.788774 0.000000
O O2 0.319128 0.840578 0.065890
O O3 0.232508 0.936624 0.000000
O O4 0.799155 0.200846 0.250000
O O5 0.726438 0.079855 0.303977
O O6 0.677740 0.142746 0.196881
O O7 0.809327 0.070287 0.187721
O O8 0.409516 0.897471 0.372705
O O9 0.282757 0.897898 0.432643
O O10 0.336228 0.023640 0.380825
O O11 0.473640 0.880468 0.500000
O O12 0.552839 0.874046 0.379767
O O13 0.500000 0.000000 0.427672
O O14 0.065513 0.839166 0.000000
O O15 0.951390 0.891169 0.928639
O O16 0.043182 0.902786 0.181060
#
# Coordination Sequence:
#
# PCOD8313364 Si02
#       8
#     8  16  16  16   8  16   8  16
#     4  12  20  31  52  78 101 139 180 223 272 317
#     4  12  27  37  53  74 108 147 181 222 284 331
#     4  11  22  38  57  77 101 137 181 231 283 334
#     4   9  18  35  61  84 100 124 169 232 291 336
#     4  12  22  35  54  74 103 141 184 231 276 321
#     4  11  21  36  57  79 102 132 179 228 280 336
#     4  12  22  35  58  75  96 132 188 248 284 319
#     4  11  25  41  54  69  95 140 196 246 286 326
#
# _framework density 17.177592000000001
#
# number of rings (size 3 to 8) (size 9 to 14) (size 15 to 20)
#    0.000    0.923    4.615    2.769    6.462    1.231 
#    0.000    3.077    0.000    0.000    0.000    0.000 
#    0.000    0.000    0.000    0.000    0.000   53.846 
#
# Total GULP energy -1289040.952480 kJ/mol
# GULP energy per Si atom -12394.624543 kJ/mol
# Density = 1.713850 g / cm^3
# Si number density = 17.177592 Si / 1000 Ang^3
#
#
#
# Elastic Constant Matrix: (Units=GPa)
#
#
# Indices 1 2 3 4 5 6 
#
# 1 88.9564 26.9281 34.7603 0.0000 0.0000 0.0000
# 2 26.9281 88.9562 34.7601 0.0000 0.0000 0.0000
# 3 34.7603 34.7601 98.5590 0.0000 0.0000 0.0000
# 4 0.0000 0.0000 0.0000 6.2605 0.0000 0.0000
# 5 0.0000 0.0000 0.0000 0.0000 6.2612 0.0000
# 6 0.0000 0.0000 0.0000 0.0000 0.0000 13.4599
#
#
#
# Elastic Compliance Matrix: (Units=1/GPa)
#
#
# Indices 1 2 3 4 5 6 
#
# 1 0.013533 -0.002588 -0.003860 0.000000 0.000000 0.000000
# 2 -0.002588 0.013533 -0.003860 0.000000 0.000000 0.000000
# 3 -0.003860 -0.003860 0.012869 0.000000 0.000000 0.000000
# 4 0.000000 0.000000 0.000000 0.159731 0.000000 0.000000
# 5 0.000000 0.000000 0.000000 0.000000 0.159714 0.000000
# 6 0.000000 0.000000 0.000000 0.000000 0.000000 0.074295
#
#
# Mechanical properties :
#
#
# Convention : Reuss Voigt Hill
#
# Bulk Modulus (GPa) = 51.76376 52.15206 51.95791
# Shear Modulus (GPa) = 10.85230 17.19788 14.02509
#
# Velocity S-wave (km/s) = 2.51623 3.16758 2.86050
# Velocity P-wave (km/s) = 6.21625 6.61850 6.42052
#
# Compressibility (1/GPa) = 0.01931853
#
# Stress axis : x y z
#
# Youngs Moduli (GPa) = 73.89154 73.89146 77.70599
#
# Poissons Ratio (x) = 0.19126 0.29996
# Poissons Ratio (y) = 0.19126 0.29995
# Poissons Ratio (z) = 0.28523 0.28523
#
# Static dielectric constant tensor:
#      x y z
#    x 3.250340 0.000000 0.000000 
#    y 0.000000 3.250350 0.000000 
#    z 0.000000 0.000000 3.407100 
# 
# 
# High freq. dielectric constant tensor:
#      x y z
#    x 1.629710 0.000000 0.000000 
#    y 0.000000 1.629710 0.000000 
#    z 0.000000 0.000000 1.685350 
# 
# From -- ./inp_files/4397.got.cif
#   From: 2010.03.12/outbox.cif.g09.slc.cpg/sg124_3_cif.got.tgz:4397.got - 2010.04.06 16:38:57.
