data_PCOD8313969
_publ_section_title
;
Structure prediction by ZEFSAII (Michael W. Deem and Ramdas Pophale) SiO2 
 PCOD8313969
Probable space group: P 4/M B M
;
_chemical_formula_sum "Si O2"
_cell_formula_units_Z 104
_cell_length_a 26.167327
_cell_length_b 26.167327
_cell_length_c 9.124253
_cell_angle_alpha 90.000000
_cell_angle_beta 90.000000
_cell_angle_gamma 90.000000
_cell_volume 6247.640654
_symmetry_space_group_name_H-M "P 4/M B M"
_symmetry_group_IT_number 127
_symmetry_cell_setting 'tetragonal'
loop_
_space_group_symop_operation_xyz
x,y,z
-y,x,z
-x,-y,z
y,-x,z
1/2+x,1/2-y,-z
1/2-x,1/2+y,-z
1/2+y,1/2+x,-z
1/2-y,1/2-x,-z
-x,-y,-z
y,-x,-z
x,y,-z
-y,x,-z
1/2-x,1/2+y,z
1/2+x,1/2-y,z
1/2-y,1/2-x,z
1/2+y,1/2+x,z
loop_
_atom_site_type_symbol
_atom_site_label
_atom_site_fract_x
_atom_site_fract_y
_atom_site_fract_z
Si Si1 0.965285 0.249651 0.832751
Si Si2 0.414808 0.728862 0.163606
Si Si3 0.323652 0.903504 0.665170
Si Si4 0.572704 0.369064 0.329084
Si Si5 0.351848 0.542440 0.328050
Si Si6 0.042911 0.542911 0.824880
Si Si7 0.979000 0.349993 0.669539
O O1 0.940450 0.200005 0.754937
O O2 0.950008 0.301987 0.746848
O O3 0.025439 0.240621 0.827711
O O4 0.945584 0.253981 0.000000
O O5 0.385948 0.776319 0.236107
O O6 0.399918 0.677726 0.248749
O O7 0.394837 0.722470 0.000000
O O8 0.308505 0.889874 0.500000
O O9 0.372555 0.872555 0.720403
O O10 0.338077 0.961912 0.679402
O O11 0.577278 0.358586 0.500000
O O12 0.513494 0.372015 0.280881
O O13 0.601885 0.420433 0.283042
O O14 0.339528 0.544548 0.500000
O O15 0.028958 0.597690 0.757355
O O16 0.000000 0.500000 0.782837
O O17 0.047422 0.547422 0.000000
O O18 0.960777 0.355334 0.500000
#
# Coordination Sequence:
#
# PCOD8313969 Si02
#       7
#    16  16  16  16  16   8  16
#     4   9  17  30  47  67  91 120 156 196 234 274
#     4   9  17  28  43  64  90 119 152 189 229 275
#     4   9  17  29  46  68  92 119 151 189 233 279
#     4   9  17  29  45  66  94 125 158 195 234 278
#     4   9  17  29  46  69  95 125 159 195 236 282
#     4  11  23  35  47  69 103 137 163 193 237 285
#     4  10  19  32  50  70  94 125 162 199 233 276
#
# _framework density 16.646283
#
# number of rings (size 3 to 8) (size 9 to 14) (size 15 to 20)
#    0.000    2.692    0.000    2.077    0.000    6.769 
#    0.000    1.538    0.000    0.000    2.000    4.308 
#    0.000    0.000    0.000    0.000    0.000    0.000 
#
# Total GULP energy -1289138.196795 kJ/mol
# GULP energy per Si atom -12395.559585 kJ/mol
# Density = 1.660840 g / cm^3
# Si number density = 16.646283 Si / 1000 Ang^3
#
#
#
# Elastic Constant Matrix: (Units=GPa)
#
#
# Indices 1 2 3 4 5 6 
#
# 1 84.0544 27.3881 46.5866 0.0000 0.0000 0.0000
# 2 27.3881 84.0544 46.5866 0.0000 0.0000 0.0000
# 3 46.5866 46.5866 90.5204 0.0000 0.0000 0.0000
# 4 0.0000 0.0000 0.0000 22.2328 0.0000 0.0000
# 5 0.0000 0.0000 0.0000 0.0000 22.2328 0.0000
# 6 0.0000 0.0000 0.0000 0.0000 0.0000 12.4128
#
#
#
# Elastic Compliance Matrix: (Units=1/GPa)
#
#
# Indices 1 2 3 4 5 6 
#
# 1 0.016699 -0.000948 -0.008106 0.000000 0.000000 0.000000
# 2 -0.000948 0.016699 -0.008106 0.000000 0.000000 0.000000
# 3 -0.008106 -0.008106 0.019391 0.000000 0.000000 0.000000
# 4 0.000000 0.000000 0.000000 0.044979 0.000000 0.000000
# 5 0.000000 0.000000 0.000000 0.000000 0.044979 0.000000
# 6 0.000000 0.000000 0.000000 0.000000 0.000000 0.080562
#
#
# Mechanical properties :
#
#
# Convention : Reuss Voigt Hill
#
# Bulk Modulus (GPa) = 54.14890 55.52796 54.83843
# Shear Modulus (GPa) = 18.95488 20.58019 19.76754
#
# Velocity S-wave (km/s) = 3.37810 3.51995 3.44976
# Velocity P-wave (km/s) = 6.91485 7.06754 6.99161
#
# Compressibility (1/GPa) = 0.01846760
#
# Stress axis : x y z
#
# Youngs Moduli (GPa) = 59.88469 59.88469 51.57102
#
# Poissons Ratio (x) = 0.05680 0.41803
# Poissons Ratio (y) = 0.05680 0.41803
# Poissons Ratio (z) = 0.48542 0.48542
#
# Static dielectric constant tensor:
#      x y z
#    x 3.102950 0.000000 0.000000 
#    y 0.000000 3.102950 0.000000 
#    z 0.000000 0.000000 3.299160 
# 
# 
# High freq. dielectric constant tensor:
#      x y z
#    x 1.621690 0.000000 0.000000 
#    y 0.000000 1.621690 0.000000 
#    z 0.000000 0.000000 1.650490 
# 
# From -- ./inp_files/2299.got.cif
#   From: 2010.03.12/outbox.cif.g09.slc.cpg/sg127_2_cif.got.tgz:2299.got - 2010.04.06 17:03:15.
