data_PCOD8313462
_publ_section_title
;
Structure prediction by ZEFSAII (Michael W. Deem and Ramdas Pophale) SiO2 
 PCOD8313462
Probable space group: P 4/N B M
;
_chemical_formula_sum "Si O2"
_cell_formula_units_Z 112
_cell_length_a 30.652554
_cell_length_b 30.652554
_cell_length_c 5.457588
_cell_angle_alpha 90.000000
_cell_angle_beta 90.000000
_cell_angle_gamma 90.000000
_cell_volume 5127.835440
_symmetry_space_group_name_H-M "P 4/N B M"
_symmetry_group_IT_number 125
_space_group.IT_coordinate_system_code '2'
_symmetry_cell_setting 'tetragonal'
loop_
_space_group_symop_operation_xyz
x,y,z
1/2-y,x,z
1/2-x,1/2-y,z
y,1/2-x,z
x,1/2-y,-z
1/2-x,y,-z
y,x,-z
1/2-y,1/2-x,-z
-x,-y,-z
1/2+y,-x,-z
1/2+x,1/2+y,-z
-y,1/2+x,-z
-x,1/2+y,z
1/2+x,-y,z
-y,-x,z
1/2+y,1/2+x,z
loop_
_atom_site_type_symbol
_atom_site_label
_atom_site_fract_x
_atom_site_fract_y
_atom_site_fract_z
Si Si1 0.675931 0.844693 0.748201
Si Si2 0.917396 0.611419 0.751546
Si Si3 0.207111 0.550465 0.634212
Si Si4 0.797095 0.367051 0.070447
Si Si5 0.427988 0.641884 0.755838
Si Si6 0.065623 0.223764 0.250903
Si Si7 0.337559 0.008210 0.979366
O O1 0.683766 0.816235 0.500000
O O2 0.624514 0.857221 0.749183
O O3 0.708305 0.884908 0.730978
O O4 0.683134 0.816867 0.000000
O O5 0.917455 0.582546 0.500000
O O6 0.960925 0.640461 0.774161
O O7 0.917739 0.582261 0.000000
O O8 0.250000 0.533660 0.500000
O O9 0.213557 0.600469 0.709695
O O10 0.162380 0.549264 0.481240
O O11 0.203467 0.516359 0.856114
O O12 0.827235 0.327235 0.160899
O O13 0.750000 0.347362 0.000000
O O14 0.821946 0.394536 0.860842
O O15 0.402741 0.597260 0.694091
O O16 0.468586 0.630497 0.936212
O O17 0.053396 0.250000 0.500000
O O18 0.060173 0.250000 0.000000
O O19 0.035249 0.180631 0.215706
#
# Coordination Sequence:
#
# PCOD8313462 Si02
#       7
#    16  16  16  16  16  16  16
#     4  10  19  39  62  84 128 189 224 249 313 398
#     4  10  21  39  66  89 125 175 227 254 321 403
#     4  11  23  39  62  91 126 166 216 267 342 406
#     4  10  20  38  60  87 120 163 217 271 330 398
#     4  10  23  41  63  87 123 169 220 270 330 405
#     4  12  27  39  61 104 149 173 212 276 337 398
#     4  11  26  40  63  97 131 173 213 274 337 409
#
# _framework density 21.841571999999999
#
# number of rings (size 3 to 8) (size 9 to 14) (size 15 to 20)
#    0.000    1.429    4.286    1.286    8.000    0.714 
#    0.000    0.000    0.000    0.857    0.000    0.000 
#    0.000   20.000    0.000    0.000    0.000    0.000 
#
# Total GULP energy -1387858.469026 kJ/mol
# GULP energy per Si atom -12391.593473 kJ/mol
# Density = 2.179186 g / cm^3
# Si number density = 21.841572 Si / 1000 Ang^3
#
#
#
# Elastic Constant Matrix: (Units=GPa)
#
#
# Indices 1 2 3 4 5 6 
#
# 1 59.5026 42.3206 29.3176 0.0000 0.0000 0.0000
# 2 42.3206 59.5034 29.3186 0.0000 0.0000 0.0000
# 3 29.3176 29.3186 151.7579 0.0000 0.0000 0.0000
# 4 0.0000 0.0000 0.0000 9.6740 0.0000 0.0000
# 5 0.0000 0.0000 0.0000 0.0000 9.6735 0.0000
# 6 0.0000 0.0000 0.0000 0.0000 0.0000 13.5188
#
#
#
# Elastic Compliance Matrix: (Units=1/GPa)
#
#
# Indices 1 2 3 4 5 6 
#
# 1 0.034625 -0.023574 -0.002135 0.000000 0.000000 0.000000
# 2 -0.023574 0.034624 -0.002135 0.000000 0.000000 0.000000
# 3 -0.002135 -0.002135 0.007414 0.000000 0.000000 0.000000
# 4 0.000000 0.000000 0.000000 0.103370 0.000000 0.000000
# 5 0.000000 0.000000 0.000000 0.000000 0.103375 0.000000
# 6 0.000000 0.000000 0.000000 0.000000 0.000000 0.073971
#
#
# Mechanical properties :
#
#
# Convention : Reuss Voigt Hill
#
# Bulk Modulus (GPa) = 47.67444 52.51972 50.09708
# Shear Modulus (GPa) = 11.90308 17.89374 14.89841
#
# Velocity S-wave (km/s) = 2.33700 2.86536 2.61456
# Velocity P-wave (km/s) = 5.39971 5.91988 5.66577
#
# Compressibility (1/GPa) = 0.02097560
#
# Stress axis : x y z
#
# Youngs Moduli (GPa) = 28.88113 28.88133 134.87477
#
# Poissons Ratio (x) = 0.68086 0.28791
# Poissons Ratio (y) = 0.68085 0.28795
# Poissons Ratio (z) = 0.06165 0.06166
#
# Static dielectric constant tensor:
#      x y z
#    x 3.784630 0.000000 0.000000 
#    y 0.000000 3.784610 0.000000 
#    z 0.000000 0.000000 4.697230 
# 
# 
# High freq. dielectric constant tensor:
#      x y z
#    x 1.831860 0.000000 0.000000 
#    y 0.000000 1.831860 0.000000 
#    z 0.000000 0.000000 1.875160 
# 
# From -- ./inp_files/1353.got.cif
#   From: 2010.03.12/outbox.cif.g09.slc.cpg/sg125_1_cif.got.tgz:1353.got - 2010.04.06 16:47:52.
