data_PCOD8313084
_publ_section_title
;
Structure prediction by ZEFSAII (Michael W. Deem and Ramdas Pophale) SiO2 
 PCOD8313084
Probable space group: P 4/M C C
;
_chemical_formula_sum "Si O2"
_cell_formula_units_Z 120
_cell_length_a 17.699052
_cell_length_b 17.699052
_cell_length_c 26.163844
_cell_angle_alpha 90.000000
_cell_angle_beta 90.000000
_cell_angle_gamma 90.000000
_cell_volume 8195.992673
_symmetry_space_group_name_H-M "P 4/M C C"
_symmetry_group_IT_number 124
_symmetry_cell_setting 'tetragonal'
loop_
_space_group_symop_operation_xyz
x,y,z
-y,x,z
-x,-y,z
y,-x,z
x,-y,1/2-z
-x,y,1/2-z
y,x,1/2-z
-y,-x,1/2-z
-x,-y,-z
y,-x,-z
x,y,-z
-y,x,-z
-x,y,1/2+z
x,-y,1/2+z
-y,-x,1/2+z
y,x,1/2+z
loop_
_atom_site_type_symbol
_atom_site_label
_atom_site_fract_x
_atom_site_fract_y
_atom_site_fract_z
Si Si1 0.015462 0.881017 0.060779
Si Si2 0.594854 0.421338 0.000000
Si Si3 0.474742 0.790060 0.059634
Si Si4 0.953137 0.714062 0.439136
Si Si5 0.349834 0.206380 0.060507
Si Si6 0.428036 0.956788 0.940027
Si Si7 0.360317 0.331225 0.403965
Si Si8 0.587485 0.412217 0.307340
O O1 0.026338 0.796688 0.083684
O O2 0.935427 0.915996 0.079410
O O3 0.016438 0.877540 0.000000
O O4 0.605944 0.509850 0.000000
O O5 0.633888 0.394592 0.948133
O O6 0.561821 0.792170 0.077198
O O7 0.435036 0.869053 0.072143
O O8 0.425490 0.730576 0.091290
O O9 0.468284 0.769656 0.000000
O O10 0.955896 0.717276 0.500000
O O11 0.870316 0.689005 0.420331
O O12 0.012166 0.651473 0.417803
O O13 0.302724 0.274233 0.087808
O O14 0.342891 0.214158 0.000000
O O15 0.500000 0.000000 0.915386
O O16 0.428679 0.973808 0.000000
O O17 0.363767 0.366018 0.347718
O O18 0.604443 0.499860 0.316358
O O19 0.611518 0.388483 0.250000
#
# Coordination Sequence:
#
# PCOD8313084 Si02
#       8
#    16   8  16  16  16  16  16  16
#     4   8  14  24  36  50  68  93 128 172 213 246
#     4  11  20  28  38  54  81 117 143 162 204 270
#     4  10  18  27  39  54  81 112 143 175 212 256
#     4   9  16  25  39  54  72 105 142 176 205 244
#     4  10  18  27  37  53  82 110 138 172 212 248
#     4   9  15  26  39  52  69 107 147 171 198 248
#     4  12  20  28  40  62  85 110 139 180 223 259
#     4   9  18  32  47  59  75 107 149 187 216 250
#
# _framework density 14.641302
#
# number of rings (size 3 to 8) (size 9 to 14) (size 15 to 20)
#    0.000    2.333    2.667    3.200    0.000    2.133 
#    0.000    4.000    0.000    0.000    0.000    0.000 
#    0.000    1.067    0.800    0.000    0.000    0.000 
#
# Total GULP energy -1487354.562078 kJ/mol
# GULP energy per Si atom -12394.621351 kJ/mol
# Density = 1.460798 g / cm^3
# Si number density = 14.641302 Si / 1000 Ang^3
#
#
#
# Elastic Constant Matrix: (Units=GPa)
#
#
# Indices 1 2 3 4 5 6 
#
# 1 88.6419 41.8363 14.3305 0.0000 0.0000 0.0000
# 2 41.8363 88.6421 14.3307 0.0000 0.0000 0.0000
# 3 14.3305 14.3307 41.1126 0.0000 0.0000 0.0000
# 4 0.0000 0.0000 0.0000 7.8357 0.0000 0.0000
# 5 0.0000 0.0000 0.0000 0.0000 7.8357 0.0000
# 6 0.0000 0.0000 0.0000 0.0000 0.0000 23.8627
#
#
#
# Elastic Compliance Matrix: (Units=1/GPa)
#
#
# Indices 1 2 3 4 5 6 
#
# 1 0.014832 -0.006533 -0.002893 0.000000 0.000000 0.000000
# 2 -0.006533 0.014832 -0.002893 0.000000 0.000000 0.000000
# 3 -0.002893 -0.002893 0.026340 0.000000 0.000000 0.000000
# 4 0.000000 0.000000 0.000000 0.127621 0.000000 0.000000
# 5 0.000000 0.000000 0.000000 0.000000 0.127621 0.000000
# 6 0.000000 0.000000 0.000000 0.000000 0.000000 0.041906
#
#
# Mechanical properties :
#
#
# Convention : Reuss Voigt Hill
#
# Bulk Modulus (GPa) = 31.88016 39.93242 35.90629
# Shear Modulus (GPa) = 12.87842 17.76676 15.32259
#
# Velocity S-wave (km/s) = 2.96901 3.48727 3.23852
# Velocity P-wave (km/s) = 5.79438 6.59907 6.20977
#
# Compressibility (1/GPa) = 0.03136747
#
# Stress axis : x y z
#
# Youngs Moduli (GPa) = 67.42063 67.42067 37.96474
#
# Poissons Ratio (x) = 0.44044 0.10983
# Poissons Ratio (y) = 0.44044 0.10983
# Poissons Ratio (z) = 0.19504 0.19505
#
# Static dielectric constant tensor:
#      x y z
#    x 3.019180 0.000000 0.000000 
#    y 0.000000 3.019180 0.000000 
#    z 0.000000 0.000000 2.276880 
# 
# 
# High freq. dielectric constant tensor:
#      x y z
#    x 1.566080 0.000000 0.000000 
#    y 0.000000 1.566080 0.000000 
#    z 0.000000 0.000000 1.478330 
# 
# From -- ./inp_files/6683.got.cif
#   From: 2010.03.12/outbox.cif.g09.slc.cpg/sg124_4_cif.got.tgz:6683.got - 2010.04.06 16:38:57.
