data_PCOD8313345
_publ_section_title
;
Structure prediction by ZEFSAII (Michael W. Deem and Ramdas Pophale) SiO2 
 PCOD8313345
Probable space group: P 4/M C C
;
_chemical_formula_sum "Si O2"
_cell_formula_units_Z 64
_cell_length_a 14.142590
_cell_length_b 14.142590
_cell_length_c 14.054058
_cell_angle_alpha 90.000000
_cell_angle_beta 90.000000
_cell_angle_gamma 90.000000
_cell_volume 2810.992221
_symmetry_space_group_name_H-M "P 4/M C C"
_symmetry_group_IT_number 124
_symmetry_cell_setting 'tetragonal'
loop_
_space_group_symop_operation_xyz
x,y,z
-y,x,z
-x,-y,z
y,-x,z
x,-y,1/2-z
-x,y,1/2-z
y,x,1/2-z
-y,-x,1/2-z
-x,-y,-z
y,-x,-z
x,y,-z
-y,x,-z
-x,y,1/2+z
x,-y,1/2+z
-y,-x,1/2+z
y,x,1/2+z
loop_
_atom_site_type_symbol
_atom_site_label
_atom_site_fract_x
_atom_site_fract_y
_atom_site_fract_z
Si Si1 0.809281 0.608900 0.232690
Si Si2 0.366912 0.576861 0.611211
Si Si3 0.269247 0.072283 0.390384
Si Si4 0.142409 0.751842 0.110153
O O1 0.825795 0.500000 0.250000
O O2 0.713655 0.627216 0.172411
O O3 0.899204 0.639351 0.169912
O O4 0.806264 0.669294 0.330055
O O5 0.372642 0.465630 0.637870
O O6 0.344644 0.588749 0.500000
O O7 0.297633 0.076928 0.500000
O O8 0.186181 0.146231 0.365133
O O9 0.237668 0.967254 0.361723
O O10 0.156828 0.724732 0.000000
#
# Coordination Sequence:
#
# PCOD8313345 Si02
#       4
#    16  16  16  16
#     4  12  26  39  65  98 135 181 224 269 335 406
#     4   9  21  42  67  97 131 171 226 287 337 387
#     4  10  23  45  70 100 133 173 224 287 349 408
#     4  10  24  45  70  99 136 175 227 286 343 409
#
# _framework density 22.767762000000001
#
# number of rings (size 3 to 8) (size 9 to 14) (size 15 to 20)
#    0.000    1.750    0.000    3.000    7.000    4.500 
#    0.000    6.250    0.000    3.000    0.000    1.750 
#    0.000    0.000    0.000    0.000    0.000    0.000 
#
# Total GULP energy -793904.226199 kJ/mol
# GULP energy per Si atom -12404.753534 kJ/mol
# Density = 2.271594 g / cm^3
# Si number density = 22.767762 Si / 1000 Ang^3
#
#
#
# Elastic Constant Matrix: (Units=GPa)
#
#
# Indices 1 2 3 4 5 6 
#
# 1 143.5522 62.1422 70.4603 0.0000 0.0000 0.0000
# 2 62.1422 143.5522 70.4603 0.0000 0.0000 0.0000
# 3 70.4603 70.4603 102.2024 0.0000 0.0000 0.0000
# 4 0.0000 0.0000 0.0000 41.1696 0.0000 0.0000
# 5 0.0000 0.0000 0.0000 0.0000 41.1696 0.0000
# 6 0.0000 0.0000 0.0000 0.0000 0.0000 31.3821
#
#
#
# Elastic Compliance Matrix: (Units=1/GPa)
#
#
# Indices 1 2 3 4 5 6 
#
# 1 0.010748 -0.001535 -0.006352 0.000000 0.000000 0.000000
# 2 -0.001535 0.010748 -0.006352 0.000000 0.000000 0.000000
# 3 -0.006352 -0.006352 0.018542 0.000000 0.000000 0.000000
# 4 0.000000 0.000000 0.000000 0.024290 0.000000 0.000000
# 5 0.000000 0.000000 0.000000 0.000000 0.024290 0.000000
# 6 0.000000 0.000000 0.000000 0.000000 0.000000 0.031865
#
#
# Mechanical properties :
#
#
# Convention : Reuss Voigt Hill
#
# Bulk Modulus (GPa) = 86.49096 88.38141 87.43619
# Shear Modulus (GPa) = 32.71931 35.16055 33.93993
#
# Velocity S-wave (km/s) = 3.79501 3.93404 3.86515
# Velocity P-wave (km/s) = 7.56793 7.71612 7.64238
#
# Compressibility (1/GPa) = 0.01156190
#
# Stress axis : x y z
#
# Youngs Moduli (GPa) = 93.03794 93.03794 53.93027
#
# Poissons Ratio (x) = 0.14283 0.34255
# Poissons Ratio (y) = 0.14283 0.34255
# Poissons Ratio (z) = 0.59095 0.59095
#
# Static dielectric constant tensor:
#      x y z
#    x 4.166960 0.000000 0.000000 
#    y 0.000000 4.166960 0.000000 
#    z 0.000000 0.000000 4.360990 
# 
# 
# High freq. dielectric constant tensor:
#      x y z
#    x 1.898400 0.000000 0.000000 
#    y 0.000000 1.898400 0.000000 
#    z 0.000000 0.000000 1.922670 
# 
# From -- ./inp_files/2969.got.cif
#   From: 2010.03.12/outbox.cif.g09.slc.cpg/sg124_2_cif.got.tgz:2969.got - 2010.04.06 16:38:57.
