data_PCOD8313105
_publ_section_title
;
Structure prediction by ZEFSAII (Michael W. Deem and Ramdas Pophale) SiO2 
 PCOD8313105
Probable space group: P 4/M C C
;
_chemical_formula_sum "Si O2"
_cell_formula_units_Z 104
_cell_length_a 17.785756
_cell_length_b 17.785756
_cell_length_c 19.323445
_cell_angle_alpha 90.000000
_cell_angle_beta 90.000000
_cell_angle_gamma 90.000000
_cell_volume 6112.645578
_symmetry_space_group_name_H-M "P 4/M C C"
_symmetry_group_IT_number 124
_symmetry_cell_setting 'tetragonal'
loop_
_space_group_symop_operation_xyz
x,y,z
-y,x,z
-x,-y,z
y,-x,z
x,-y,1/2-z
-x,y,1/2-z
y,x,1/2-z
-y,-x,1/2-z
-x,-y,-z
y,-x,-z
x,y,-z
-y,x,-z
-x,y,1/2+z
x,-y,1/2+z
-y,-x,1/2+z
y,x,1/2+z
loop_
_atom_site_type_symbol
_atom_site_label
_atom_site_fract_x
_atom_site_fract_y
_atom_site_fract_z
Si Si1 0.821537 0.821537 0.613244
Si Si2 0.086409 0.310676 0.171465
Si Si3 0.911284 0.911284 0.000000
Si Si4 0.310676 0.086408 0.171465
Si Si5 0.704266 0.704266 0.075293
Si Si6 0.586442 0.184366 0.917428
Si Si7 0.184366 0.586441 0.082572
O O1 0.768661 0.872344 0.661285
O O2 0.874381 0.874381 0.567387
O O3 0.872344 0.768661 0.661284
O O4 0.768283 0.768284 0.567087
O O5 0.099379 0.337872 0.250000
O O6 0.113154 0.376926 0.120204
O O7 0.000000 0.296618 0.154591
O O8 0.000000 0.894608 0.000000
O O9 0.376926 0.113154 0.120204
O O10 0.740799 0.630479 0.111256
O O11 0.630479 0.740799 0.111256
O O12 0.677984 0.677984 0.000000
O O13 0.500000 0.191796 0.896336
O O14 0.597178 0.175053 0.000000
O O15 0.175053 0.597178 0.000000
#
# Coordination Sequence:
#
# PCOD8313105 Si02
#       7
#    16  16   8  16  16  16  16
#     4  10  18  34  51  69  95 131 167 212 252 299
#     4  10  21  34  50  72  98 132 170 210 259 310
#     4  11  22  32  48  78 106 130 166 215 272 318
#     4  10  21  34  50  72  98 132 170 210 259 310
#     4   8  14  28  49  71  93 124 162 198 241 286
#     4   9  18  32  51  75 101 131 168 210 255 303
#     4   9  18  32  51  75 101 131 168 210 255 303
#
# _framework density 17.013909000000002
#
# number of rings (size 3 to 8) (size 9 to 14) (size 15 to 20)
#    0.000    2.538    0.769    1.385    2.154    1.846 
#    0.000    3.077    0.000    0.462    0.000    9.692 
#    0.000    0.000    0.000   11.231    0.000    6.308 
#
# Total GULP energy -1288759.143069 kJ/mol
# GULP energy per Si atom -12391.914837 kJ/mol
# Density = 1.697518 g / cm^3
# Si number density = 17.013909 Si / 1000 Ang^3
#
#
#
# Elastic Constant Matrix: (Units=GPa)
#
#
# Indices 1 2 3 4 5 6 
#
# 1 124.4471 75.9019 39.0753 0.0000 0.0000 0.0000
# 2 75.9019 124.4471 39.0753 0.0000 0.0000 0.0000
# 3 39.0753 39.0753 57.9546 0.0000 0.0000 0.0000
# 4 0.0000 0.0000 0.0000 17.7632 0.0000 0.0000
# 5 0.0000 0.0000 0.0000 0.0000 17.7632 0.0000
# 6 0.0000 0.0000 0.0000 0.0000 0.0000 20.5506
#
#
#
# Elastic Compliance Matrix: (Units=1/GPa)
#
#
# Indices 1 2 3 4 5 6 
#
# 1 0.013686 -0.006913 -0.004566 0.000000 0.000000 0.000000
# 2 -0.006913 0.013686 -0.004566 0.000000 0.000000 0.000000
# 3 -0.004566 -0.004566 0.023412 0.000000 0.000000 0.000000
# 4 0.000000 0.000000 0.000000 0.056296 0.000000 0.000000
# 5 0.000000 0.000000 0.000000 0.000000 0.056296 0.000000
# 6 0.000000 0.000000 0.000000 0.000000 0.000000 0.048660
#
#
# Mechanical properties :
#
#
# Convention : Reuss Voigt Hill
#
# Bulk Modulus (GPa) = 53.49806 68.32820 60.91313
# Shear Modulus (GPa) = 19.97127 21.40182 20.68654
#
# Velocity S-wave (km/s) = 3.42982 3.55054 3.49070
# Velocity P-wave (km/s) = 6.87000 7.55353 7.21986
#
# Compressibility (1/GPa) = 0.01869227
#
# Stress axis : x y z
#
# Youngs Moduli (GPa) = 73.06788 73.06788 42.71244
#
# Poissons Ratio (x) = 0.50515 0.19504
# Poissons Ratio (y) = 0.50515 0.19504
# Poissons Ratio (z) = 0.33365 0.33365
#
# Static dielectric constant tensor:
#      x y z
#    x 3.240530 0.000000 0.000000 
#    y 0.000000 3.240530 0.000000 
#    z 0.000000 0.000000 3.033230 
# 
# 
# High freq. dielectric constant tensor:
#      x y z
#    x 1.653160 0.000000 0.000000 
#    y 0.000000 1.653160 0.000000 
#    z 0.000000 0.000000 1.642400 
# 
# From -- ./inp_files/4361.got.cif
#   From: 2010.03.12/outbox.cif.g09.slc.cpg/sg124_3_cif.got.tgz:4361.got - 2010.04.06 16:38:57.
