data_PCOD8313465
_publ_section_title
;
Structure prediction by ZEFSAII (Michael W. Deem and Ramdas Pophale) SiO2 
 PCOD8313465
Probable space group: P 4/N B M
;
_chemical_formula_sum "Si O2"
_cell_formula_units_Z 72
_cell_length_a 20.004568
_cell_length_b 20.004568
_cell_length_c 9.852889
_cell_angle_alpha 90.000000
_cell_angle_beta 90.000000
_cell_angle_gamma 90.000000
_cell_volume 3942.956125
_symmetry_space_group_name_H-M "P 4/N B M"
_symmetry_group_IT_number 125
_space_group.IT_coordinate_system_code '2'
_symmetry_cell_setting 'tetragonal'
loop_
_space_group_symop_operation_xyz
x,y,z
1/2-y,x,z
1/2-x,1/2-y,z
y,1/2-x,z
x,1/2-y,-z
1/2-x,y,-z
y,x,-z
1/2-y,1/2-x,-z
-x,-y,-z
1/2+y,-x,-z
1/2+x,1/2+y,-z
-y,1/2+x,-z
-x,1/2+y,z
1/2+x,-y,z
-y,-x,z
1/2+y,1/2+x,z
loop_
_atom_site_type_symbol
_atom_site_label
_atom_site_fract_x
_atom_site_fract_y
_atom_site_fract_z
Si Si1 0.827633 0.672368 0.500000
Si Si2 0.886154 0.492090 0.609661
Si Si3 0.556800 0.625556 0.336841
Si Si4 0.687032 0.078262 0.834975
Si Si5 0.054780 0.836596 0.136776
O O1 0.843466 0.750000 0.500000
O O2 0.852159 0.634269 0.361666
O O3 0.925095 0.425095 0.572124
O O4 0.850818 0.517814 0.472756
O O5 0.939536 0.545090 0.671789
O O6 0.829803 0.475344 0.719436
O O7 0.518361 0.655379 0.206563
O O8 0.649298 0.149298 0.815838
O O9 0.766369 0.090284 0.826487
O O10 0.662814 0.044106 0.975249
O O11 0.103768 0.896233 0.185102
#
# Coordination Sequence:
#
# PCOD8313465 Si02
#       5
#     8  16  16  16  16
#     4   9  20  36  53  80 108 136 171 214 264 333
#     4   9  17  32  50  75 105 132 170 215 266 318
#     4  10  20  30  56  80 103 132 173 219 271 313
#     4   9  20  35  52  74 107 147 181 219 266 321
#     4  10  20  34  52  78 108 140 183 226 266 313
#
# _framework density 18.260411000000001
#
# number of rings (size 3 to 8) (size 9 to 14) (size 15 to 20)
#    0.000    2.778    0.000    2.667    6.222    1.333 
#    0.000    5.556    0.000    0.000    0.000    3.111 
#    0.000    0.000    0.000    0.000    0.000    0.000 
#
# Total GULP energy -892137.382195 kJ/mol
# GULP energy per Si atom -12390.796975 kJ/mol
# Density = 1.821885 g / cm^3
# Si number density = 18.260411 Si / 1000 Ang^3
#
#
#
# Elastic Constant Matrix: (Units=GPa)
#
#
# Indices 1 2 3 4 5 6 
#
# 1 80.5897 17.3666 26.1493 0.0000 0.0000 0.0000
# 2 17.3666 80.5929 26.1502 0.0000 0.0000 0.0000
# 3 26.1493 26.1502 58.7140 0.0000 0.0000 0.0000
# 4 0.0000 0.0000 0.0000 26.4930 0.0000 0.0000
# 5 0.0000 0.0000 0.0000 0.0000 26.4938 0.0000
# 6 0.0000 0.0000 0.0000 0.0000 0.0000 22.3560
#
#
#
# Elastic Compliance Matrix: (Units=1/GPa)
#
#
# Indices 1 2 3 4 5 6 
#
# 1 0.014605 -0.001212 -0.005965 0.000000 0.000000 0.000000
# 2 -0.001212 0.014605 -0.005965 0.000000 0.000000 0.000000
# 3 -0.005965 -0.005965 0.022345 0.000000 0.000000 0.000000
# 4 0.000000 0.000000 0.000000 0.037746 0.000000 0.000000
# 5 0.000000 0.000000 0.000000 0.000000 0.037745 0.000000
# 6 0.000000 0.000000 0.000000 0.000000 0.000000 0.044731
#
#
# Mechanical properties :
#
#
# Convention : Reuss Voigt Hill
#
# Bulk Modulus (GPa) = 39.57039 39.91431 39.74235
# Shear Modulus (GPa) = 24.21506 25.08393 24.64950
#
# Velocity S-wave (km/s) = 3.64551 3.71034 3.67807
# Velocity P-wave (km/s) = 6.27987 6.34518 6.31261
#
# Compressibility (1/GPa) = 0.02527142
#
# Stress axis : x y z
#
# Youngs Moduli (GPa) = 68.46903 68.47147 44.75274
#
# Poissons Ratio (x) = 0.08297 0.26695
# Poissons Ratio (y) = 0.08297 0.26695
# Poissons Ratio (z) = 0.40842 0.40843
#
# Static dielectric constant tensor:
#      x y z
#    x 3.364150 0.000000 0.000000 
#    y 0.000000 3.364110 0.000000 
#    z 0.000000 0.000000 3.292790 
# 
# 
# High freq. dielectric constant tensor:
#      x y z
#    x 1.703010 0.000000 0.000000 
#    y 0.000000 1.703010 0.000000 
#    z 0.000000 0.000000 1.691000 
# 
# From -- ./inp_files/2562.got.cif
#   From: 2010.03.12/outbox.cif.g09.slc.cpg/sg125_2_cif.got.tgz:2562.got - 2010.04.06 16:47:52.
