data_PCOD8313286
_publ_section_title
;
Structure prediction by ZEFSAII (Michael W. Deem and Ramdas Pophale) SiO2 
 PCOD8313286
Probable space group: P 4/M C C
;
_chemical_formula_sum "Si O2"
_cell_formula_units_Z 96
_cell_length_a 22.868976
_cell_length_b 22.868976
_cell_length_c 9.416279
_cell_angle_alpha 90.000000
_cell_angle_beta 90.000000
_cell_angle_gamma 90.000000
_cell_volume 4924.620350
_symmetry_space_group_name_H-M "P 4/M C C"
_symmetry_group_IT_number 124
_symmetry_cell_setting 'tetragonal'
loop_
_space_group_symop_operation_xyz
x,y,z
-y,x,z
-x,-y,z
y,-x,z
x,-y,1/2-z
-x,y,1/2-z
y,x,1/2-z
-y,-x,1/2-z
-x,-y,-z
y,-x,-z
x,y,-z
-y,x,-z
-x,y,1/2+z
x,-y,1/2+z
-y,-x,1/2+z
y,x,1/2+z
loop_
_atom_site_type_symbol
_atom_site_label
_atom_site_fract_x
_atom_site_fract_y
_atom_site_fract_z
Si Si1 0.272716 0.943428 0.662505
Si Si2 0.432498 0.337436 0.500000
Si Si3 0.723645 0.627839 0.753281
Si Si4 0.053992 0.441158 0.835377
Si Si5 0.943878 0.865660 0.662492
Si Si6 0.147061 0.657309 0.663991
Si Si7 0.568749 0.333888 0.500000
O O1 0.296880 0.946673 0.500000
O O2 0.203539 0.940959 0.660092
O O3 0.293637 0.885136 0.742841
O O4 0.294767 0.000000 0.750000
O O5 0.415756 0.295941 0.626505
O O6 0.501015 0.351967 0.500000
O O7 0.396193 0.397940 0.500000
O O8 0.688366 0.688366 0.750000
O O9 0.790876 0.645388 0.764464
O O10 0.709350 0.586803 0.623235
O O11 0.068489 0.500000 0.750000
O O12 0.111060 0.402104 0.827292
O O13 0.000000 0.410651 0.750000
O O14 0.037040 0.453246 0.000000
O O15 0.887898 0.887898 0.750000
O O16 0.945070 0.889528 0.500000
O O17 0.000000 0.888337 0.750000
O O18 0.153625 0.678315 0.500000
#
# Coordination Sequence:
#
# PCOD8313286 Si02
#       7
#    16   8  16  16  16  16   8
#     4  10  22  39  61  88 119 156 203 254 306 357
#     4  10  20  41  62  90 125 157 199 243 300 356
#     4  10  22  41  59  86 123 161 197 245 304 359
#     4  10  21  37  56  80 113 149 185 236 288 335
#     4  10  21  38  59  87 120 156 198 248 302 361
#     4  11  23  39  59  85 115 154 200 245 295 356
#     4  10  22  37  66  90 121 161 195 247 298 358
#
# _framework density 19.493888999999999
#
# number of rings (size 3 to 8) (size 9 to 14) (size 15 to 20)
#    0.000    1.833    0.833    3.000    1.167    7.000 
#    0.000    2.500    0.000    3.000    0.000    0.000 
#    0.000    0.000    0.000    0.000    0.000    0.000 
#
# Total GULP energy -1189871.999715 kJ/mol
# GULP energy per Si atom -12394.499997 kJ/mol
# Density = 1.944952 g / cm^3
# Si number density = 19.493889 Si / 1000 Ang^3
#
#
#
# Elastic Constant Matrix: (Units=GPa)
#
#
# Indices 1 2 3 4 5 6 
#
# 1 107.0206 35.4696 53.0104 0.0000 0.0000 0.0000
# 2 35.4696 107.0206 53.0104 0.0000 0.0000 0.0000
# 3 53.0104 53.0104 181.2834 0.0000 0.0000 0.0000
# 4 0.0000 0.0000 0.0000 36.0644 0.0000 0.0000
# 5 0.0000 0.0000 0.0000 0.0000 36.0644 0.0000
# 6 0.0000 0.0000 0.0000 0.0000 0.0000 22.1394
#
#
#
# Elastic Compliance Matrix: (Units=1/GPa)
#
#
# Indices 1 2 3 4 5 6 
#
# 1 0.011473 -0.002503 -0.002623 0.000000 0.000000 0.000000
# 2 -0.002503 0.011473 -0.002623 0.000000 0.000000 0.000000
# 3 -0.002623 -0.002623 0.007050 0.000000 0.000000 0.000000
# 4 0.000000 0.000000 0.000000 0.027728 0.000000 0.000000
# 5 0.000000 0.000000 0.000000 0.000000 0.027728 0.000000
# 6 0.000000 0.000000 0.000000 0.000000 0.000000 0.045168
#
#
# Mechanical properties :
#
#
# Convention : Reuss Voigt Hill
#
# Bulk Modulus (GPa) = 68.97557 75.36728 72.17142
# Shear Modulus (GPa) = 33.12331 35.77590 34.44961
#
# Velocity S-wave (km/s) = 4.12656 4.28861 4.20837
# Velocity P-wave (km/s) = 7.62658 7.95417 7.79210
#
# Compressibility (1/GPa) = 0.01449789
#
# Stress axis : x y z
#
# Youngs Moduli (GPa) = 87.16250 87.16250 141.84058
#
# Poissons Ratio (x) = 0.21819 0.37203
# Poissons Ratio (y) = 0.21819 0.37203
# Poissons Ratio (z) = 0.22862 0.22862
#
# Static dielectric constant tensor:
#      x y z
#    x 3.474560 0.000000 0.000000 
#    y 0.000000 3.474560 0.000000 
#    z 0.000000 0.000000 4.029060 
# 
# 
# High freq. dielectric constant tensor:
#      x y z
#    x 1.756450 0.000000 0.000000 
#    y 0.000000 1.756450 0.000000 
#    z 0.000000 0.000000 1.784390 
# 
# From -- ./inp_files/1426.got.cif
#   From: 2010.03.12/outbox.cif.g09.slc.cpg/sg124_1_cif.got.tgz:1426.got - 2010.04.06 16:38:57.
