data_PCOD8313955
_publ_section_title
;
Structure prediction by ZEFSAII (Michael W. Deem and Ramdas Pophale) SiO2 
 PCOD8313955
Probable space group: P 4/M B M
;
_chemical_formula_sum "Si O2"
_cell_formula_units_Z 112
_cell_length_a 14.013441
_cell_length_b 14.013441
_cell_length_c 29.959332
_cell_angle_alpha 90.000000
_cell_angle_beta 90.000000
_cell_angle_gamma 90.000000
_cell_volume 5883.309619
_symmetry_space_group_name_H-M "P 4/M B M"
_symmetry_group_IT_number 127
_symmetry_cell_setting 'tetragonal'
loop_
_space_group_symop_operation_xyz
x,y,z
-y,x,z
-x,-y,z
y,-x,z
1/2+x,1/2-y,-z
1/2-x,1/2+y,-z
1/2+y,1/2+x,-z
1/2-y,1/2-x,-z
-x,-y,-z
y,-x,-z
x,y,-z
-y,x,-z
1/2-x,1/2+y,z
1/2+x,1/2-y,z
1/2-y,1/2-x,z
1/2+y,1/2+x,z
loop_
_atom_site_type_symbol
_atom_site_label
_atom_site_fract_x
_atom_site_fract_y
_atom_site_fract_z
Si Si1 0.502748 0.149998 0.834524
Si Si2 0.909193 0.252088 0.363763
Si Si3 0.780480 0.128081 0.780076
Si Si4 0.860981 0.206856 0.862927
Si Si5 0.107935 0.113805 0.048299
Si Si6 0.230584 0.889373 0.682107
Si Si7 0.043848 0.849219 0.449758
O O1 0.419316 0.080685 0.816591
O O2 0.546504 0.203804 0.792389
O O3 0.457258 0.229450 0.867610
O O4 0.586151 0.086151 0.858640
O O5 0.849942 0.349942 0.357309
O O6 0.847761 0.160760 0.348696
O O7 0.932723 0.236608 0.415944
O O8 0.006567 0.258360 0.335887
O O9 0.730559 0.230559 0.775096
O O10 0.862353 0.135910 0.819363
O O11 0.819029 0.100018 0.731232
O O12 0.769862 0.269862 0.853664
O O13 0.836894 0.154715 0.909111
O O14 0.996762 0.132202 0.051375
O O15 0.145746 0.152903 0.000000
O O16 0.327759 0.827759 0.684547
O O17 0.055557 0.809532 0.500000
O O18 0.936323 0.883990 0.441709
#
# Coordination Sequence:
#
# PCOD8313955 Si02
#       7
#    16  16  16  16  16  16  16
#     4   9  18  32  51  73  99 136 175 210 259 320
#     4  11  22  37  61  84 114 159 193 235 295 345
#     4   9  19  34  50  73 106 138 174 222 264 311
#     4  10  19  31  52  77 103 132 167 216 263 313
#     4   9  18  33  51  70  96 130 167 210 260 315
#     4  10  23  39  55  83 117 149 193 239 284 345
#     4   9  17  33  59  87 115 149 193 244 292 343
#
# _framework density 19.036905000000001
#
# number of rings (size 3 to 8) (size 9 to 14) (size 15 to 20)
#    0.000    2.429    1.429    1.714    2.000    1.714 
#    0.000    1.429    0.000    1.714    0.000    3.000 
#    0.000    0.000    0.000    0.000    0.000    0.000 
#
# Total GULP energy -1387538.285310 kJ/mol
# GULP energy per Si atom -12388.734690 kJ/mol
# Density = 1.899358 g / cm^3
# Si number density = 19.036905 Si / 1000 Ang^3
#
#
#
# Elastic Constant Matrix: (Units=GPa)
#
#
# Indices 1 2 3 4 5 6 
#
# 1 71.3849 26.4805 38.7818 0.0000 0.0000 0.0000
# 2 26.4805 71.3849 38.7818 0.0000 0.0000 0.0000
# 3 38.7818 38.7818 154.6697 0.0000 0.0000 0.0000
# 4 0.0000 0.0000 0.0000 27.7225 0.0000 0.0000
# 5 0.0000 0.0000 0.0000 0.0000 27.7225 0.0000
# 6 0.0000 0.0000 0.0000 0.0000 0.0000 17.6208
#
#
#
# Elastic Compliance Matrix: (Units=1/GPa)
#
#
# Indices 1 2 3 4 5 6 
#
# 1 0.017511 -0.004759 -0.003198 0.000000 0.000000 0.000000
# 2 -0.004759 0.017511 -0.003198 0.000000 0.000000 0.000000
# 3 -0.003198 -0.003198 0.008069 0.000000 0.000000 0.000000
# 4 0.000000 0.000000 0.000000 0.036072 0.000000 0.000000
# 5 0.000000 0.000000 0.000000 0.000000 0.036072 0.000000
# 6 0.000000 0.000000 0.000000 0.000000 0.000000 0.056751
#
#
# Mechanical properties :
#
#
# Convention : Reuss Voigt Hill
#
# Bulk Modulus (GPa) = 48.11520 56.16977 52.14249
# Shear Modulus (GPa) = 24.84835 27.50616 26.17725
#
# Velocity S-wave (km/s) = 3.61677 3.80529 3.71223
# Velocity P-wave (km/s) = 6.53995 6.99119 6.76933
#
# Compressibility (1/GPa) = 0.02078345
#
# Stress axis : x y z
#
# Youngs Moduli (GPa) = 57.10720 57.10720 123.93297
#
# Poissons Ratio (x) = 0.27175 0.39628
# Poissons Ratio (y) = 0.27175 0.39628
# Poissons Ratio (z) = 0.18260 0.18260
#
# Static dielectric constant tensor:
#      x y z
#    x 3.406930 0.000000 0.000000 
#    y 0.000000 3.406930 0.000000 
#    z 0.000000 0.000000 3.628540 
# 
# 
# High freq. dielectric constant tensor:
#      x y z
#    x 1.725210 0.000000 0.000000 
#    y 0.000000 1.725210 0.000000 
#    z 0.000000 0.000000 1.740180 
# 
# From -- ./inp_files/6399.got.cif
#   From: 2010.03.12/outbox.cif.g09.slc.cpg/sg127_4_cif.got.tgz:6399.got - 2010.04.06 17:03:15.
