data_PCOD8313600
_publ_section_title
;
Structure prediction by ZEFSAII (Michael W. Deem and Ramdas Pophale) SiO2 
 PCOD8313600
Probable space group: P 4/N B M
;
_chemical_formula_sum "Si O2"
_cell_formula_units_Z 72
_cell_length_a 13.593087
_cell_length_b 13.593087
_cell_length_c 22.585898
_cell_angle_alpha 90.000000
_cell_angle_beta 90.000000
_cell_angle_gamma 90.000000
_cell_volume 4173.241866
_symmetry_space_group_name_H-M "P 4/N B M"
_symmetry_group_IT_number 125
_space_group.IT_coordinate_system_code '2'
_symmetry_cell_setting 'tetragonal'
loop_
_space_group_symop_operation_xyz
x,y,z
1/2-y,x,z
1/2-x,1/2-y,z
y,1/2-x,z
x,1/2-y,-z
1/2-x,y,-z
y,x,-z
1/2-y,1/2-x,-z
-x,-y,-z
1/2+y,-x,-z
1/2+x,1/2+y,-z
-y,1/2+x,-z
-x,1/2+y,z
1/2+x,-y,z
-y,-x,z
1/2+y,1/2+x,z
loop_
_atom_site_type_symbol
_atom_site_label
_atom_site_fract_x
_atom_site_fract_y
_atom_site_fract_z
Si Si1 0.138612 0.638612 0.926125
Si Si2 0.137209 0.862792 0.934995
Si Si3 0.881198 0.654951 0.219843
Si Si4 0.647812 0.989540 0.528995
Si Si5 0.825499 0.608364 0.646100
Si Si6 0.993835 0.006166 0.142673
O O1 0.113067 0.752410 0.912900
O O2 0.070972 0.570972 0.884662
O O3 0.122710 0.622710 0.995422
O O4 0.060308 0.939693 0.910118
O O5 0.884758 0.771454 0.206778
O O6 0.919851 0.644776 0.287138
O O7 0.953205 0.590470 0.180347
O O8 0.750000 0.019025 0.500000
O O9 0.612842 0.887159 0.500000
O O10 0.643917 0.976539 0.600210
O O11 0.577020 0.077020 0.510273
O O12 0.880357 0.710153 0.634390
#
# Coordination Sequence:
#
# PCOD8313600 Si02
#       6
#     8   8  16  16  16   8
#     4   9  19  35  53  77 107 142 171 225 253 301
#     4   9  19  35  53  75 109 140 180 211 264 298
#     4   9  20  35  49  74 107 138 169 211 263 310
#     4  11  22  34  53  80 102 129 169 215 262 313
#     4   9  17  33  55  74  99 132 171 214 256 304
#     4  12  19  30  56  82 101 138 179 216 253 313
#
# _framework density 17.252773000000001
#
# number of rings (size 3 to 8) (size 9 to 14) (size 15 to 20)
#    0.000    2.222    2.222    3.667    1.556    0.444 
#    0.000    0.000    0.000    0.000    0.000    9.333 
#    0.000    0.000    0.000    0.000    0.000    0.000 
#
# Total GULP energy -892249.360234 kJ/mol
# GULP energy per Si atom -12392.352225 kJ/mol
# Density = 1.721351 g / cm^3
# Si number density = 17.252773 Si / 1000 Ang^3
#
#
#
# Elastic Constant Matrix: (Units=GPa)
#
#
# Indices 1 2 3 4 5 6 
#
# 1 77.6967 42.2029 44.5666 0.0000 0.0000 0.0000
# 2 42.2029 77.6970 44.5668 0.0000 0.0000 0.0000
# 3 44.5666 44.5668 87.4145 0.0000 0.0000 0.0000
# 4 0.0000 0.0000 0.0000 27.9420 0.0000 0.0000
# 5 0.0000 0.0000 0.0000 0.0000 27.9419 0.0000
# 6 0.0000 0.0000 0.0000 0.0000 0.0000 28.4671
#
#
#
# Elastic Compliance Matrix: (Units=1/GPa)
#
#
# Indices 1 2 3 4 5 6 
#
# 1 0.020802 -0.007372 -0.006847 0.000000 0.000000 0.000000
# 2 -0.007372 0.020802 -0.006847 0.000000 0.000000 0.000000
# 3 -0.006847 -0.006847 0.018422 0.000000 0.000000 0.000000
# 4 0.000000 0.000000 0.000000 0.035788 0.000000 0.000000
# 5 0.000000 0.000000 0.000000 0.000000 0.035788 0.000000
# 6 0.000000 0.000000 0.000000 0.000000 0.000000 0.035128
#
#
# Mechanical properties :
#
#
# Convention : Reuss Voigt Hill
#
# Bulk Modulus (GPa) = 55.88602 56.16453 56.02527
# Shear Modulus (GPa) = 23.27438 24.30168 23.78803
#
# Velocity S-wave (km/s) = 3.67689 3.75716 3.71724
# Velocity P-wave (km/s) = 7.10555 7.17260 7.13915
#
# Compressibility (1/GPa) = 0.01789356
#
# Stress axis : x y z
#
# Youngs Moduli (GPa) = 48.07175 48.07184 54.28359
#
# Poissons Ratio (x) = 0.35437 0.37170
# Poissons Ratio (y) = 0.35436 0.37170
# Poissons Ratio (z) = 0.32916 0.32917
#
# Static dielectric constant tensor:
#      x y z
#    x 3.081400 0.000000 0.000000 
#    y 0.000000 3.081400 0.000000 
#    z 0.000000 0.000000 3.184660 
# 
# 
# High freq. dielectric constant tensor:
#      x y z
#    x 1.659800 0.000000 0.000000 
#    y 0.000000 1.659800 0.000000 
#    z 0.000000 0.000000 1.670520 
# 
# From -- ./inp_files/5373.got.cif
#   From: 2010.03.12/outbox.cif.g09.slc.cpg/sg125_3_cif.got.tgz:5373.got - 2010.04.06 16:47:52.
