data_PCOD8313905
_publ_section_title
;
Structure prediction by ZEFSAII (Michael W. Deem and Ramdas Pophale) SiO2 
 PCOD8313905
Probable space group: P 4/M B M
;
_chemical_formula_sum "Si O2"
_cell_formula_units_Z 104
_cell_length_a 22.180255
_cell_length_b 22.180255
_cell_length_c 13.936944
_cell_angle_alpha 90.000000
_cell_angle_beta 90.000000
_cell_angle_gamma 90.000000
_cell_volume 6856.470702
_symmetry_space_group_name_H-M "P 4/M B M"
_symmetry_group_IT_number 127
_symmetry_cell_setting 'tetragonal'
loop_
_space_group_symop_operation_xyz
x,y,z
-y,x,z
-x,-y,z
y,-x,z
1/2+x,1/2-y,-z
1/2-x,1/2+y,-z
1/2+y,1/2+x,-z
1/2-y,1/2-x,-z
-x,-y,-z
y,-x,-z
x,y,-z
-y,x,-z
1/2-x,1/2+y,z
1/2+x,1/2-y,z
1/2-y,1/2-x,z
1/2+y,1/2+x,z
loop_
_atom_site_type_symbol
_atom_site_label
_atom_site_fract_x
_atom_site_fract_y
_atom_site_fract_z
Si Si1 0.352761 0.751634 0.209613
Si Si2 0.305008 0.703322 0.606198
Si Si3 0.871609 0.472632 0.264522
Si Si4 0.163332 0.438246 0.889929
Si Si5 0.230368 0.168198 0.895393
Si Si6 0.378609 0.222376 0.287089
Si Si7 0.949340 0.550661 0.607188
O O1 0.304101 0.804101 0.210142
O O2 0.356713 0.723433 0.317606
O O3 0.415561 0.778535 0.170967
O O4 0.332020 0.699260 0.137070
O O5 0.333601 0.695960 0.500000
O O6 0.253435 0.753435 0.605162
O O7 0.274636 0.639061 0.636916
O O8 0.924623 0.424623 0.249980
O O9 0.859054 0.500398 0.159887
O O10 0.811657 0.441402 0.309277
O O11 0.890775 0.525366 0.337991
O O12 0.110370 0.389631 0.887022
O O13 0.181602 0.451776 0.000000
O O14 0.281341 0.218660 0.899643
O O15 0.248958 0.116686 0.819587
O O16 0.221309 0.138354 0.000000
O O17 0.325336 0.174665 0.288096
O O18 0.930020 0.569981 0.500000
O O19 0.000000 0.500000 0.602780
#
# Coordination Sequence:
#
# PCOD8313905 Si02
#       7
#    16  16  16  16  16  16   8
#     4   8  14  24  37  54  75  93 119 157 199 249
#     4   8  13  23  40  60  78  93 111 145 199 258
#     4  10  19  31  42  54  75 102 141 186 215 239
#     4  10  19  29  41  54  72 103 140 176 214 249
#     4   8  12  20  35  53  71  90 112 144 193 249
#     4   8  15  24  36  55  75  94 118 158 205 246
#     4   9  18  32  45  51  61  91 134 180 219 241
#
# _framework density 15.168153
#
# number of rings (size 3 to 8) (size 9 to 14) (size 15 to 20)
#    0.000    3.308    0.769    2.308    0.000    3.385 
#    0.000    6.154    0.000    0.000    0.000    0.000 
#    0.000    0.000    0.000    0.000    0.000   12.308 
#
# Total GULP energy -1288447.436728 kJ/mol
# GULP energy per Si atom -12388.917661 kJ/mol
# Density = 1.513363 g / cm^3
# Si number density = 15.168153 Si / 1000 Ang^3
#
#
#
# Elastic Constant Matrix: (Units=GPa)
#
#
# Indices 1 2 3 4 5 6 
#
# 1 31.7923 25.5758 28.2649 0.0000 0.0000 0.0000
# 2 25.5758 31.7925 28.2649 0.0000 0.0000 0.0000
# 3 28.2649 28.2649 128.9289 0.0000 0.0000 0.0000
# 4 0.0000 0.0000 0.0000 12.5751 0.0000 0.0000
# 5 0.0000 0.0000 0.0000 0.0000 12.5751 0.0000
# 6 0.0000 0.0000 0.0000 0.0000 0.0000 19.8804
#
#
#
# Elastic Compliance Matrix: (Units=1/GPa)
#
#
# Indices 1 2 3 4 5 6 
#
# 1 0.091548 -0.069313 -0.004874 0.000000 0.000000 0.000000
# 2 -0.069313 0.091547 -0.004874 0.000000 0.000000 0.000000
# 3 -0.004874 -0.004874 0.009893 0.000000 0.000000 0.000000
# 4 0.000000 0.000000 0.000000 0.079522 0.000000 0.000000
# 5 0.000000 0.000000 0.000000 0.000000 0.079522 0.000000
# 6 0.000000 0.000000 0.000000 0.000000 0.000000 0.050301
#
#
# Mechanical properties :
#
#
# Convention : Reuss Voigt Hill
#
# Bulk Modulus (GPa) = 28.68238 39.63611 34.15925
# Shear Modulus (GPa) = 8.74005 16.36665 12.55335
#
# Velocity S-wave (km/s) = 2.40304 3.28840 2.87995
# Velocity P-wave (km/s) = 5.16238 6.37228 5.79897
#
# Compressibility (1/GPa) = 0.03486461
#
# Stress axis : x y z
#
# Youngs Moduli (GPa) = 10.92328 10.92331 101.07707
#
# Poissons Ratio (x) = 0.75713 0.49269
# Poissons Ratio (y) = 0.75713 0.49269
# Poissons Ratio (z) = 0.05324 0.05324
#
# Static dielectric constant tensor:
#      x y z
#    x 2.693640 0.000000 0.000000 
#    y 0.000000 2.693640 0.000000 
#    z 0.000000 0.000000 3.288270 
# 
# 
# High freq. dielectric constant tensor:
#      x y z
#    x 1.534630 0.000000 0.000000 
#    y 0.000000 1.534630 0.000000 
#    z 0.000000 0.000000 1.594310 
# 
# From -- ./inp_files/4593.got.cif
#   From: 2010.03.12/outbox.cif.g09.slc.cpg/sg127_3_cif.got.tgz:4593.got - 2010.04.06 17:03:15.
