data_PCOD8313412
_publ_section_title
;
Structure prediction by ZEFSAII (Michael W. Deem and Ramdas Pophale) SiO2 
 PCOD8313412
Probable space group: P 4/N B M
;
_chemical_formula_sum "Si O2"
_cell_formula_units_Z 42
_cell_length_a 13.504673
_cell_length_b 13.504673
_cell_length_c 8.580582
_cell_angle_alpha 90.000000
_cell_angle_beta 90.000000
_cell_angle_gamma 90.000000
_cell_volume 1564.893877
_symmetry_space_group_name_H-M "P 4/N B M"
_symmetry_group_IT_number 125
_space_group.IT_coordinate_system_code '2'
_symmetry_cell_setting 'tetragonal'
loop_
_space_group_symop_operation_xyz
x,y,z
1/2-y,x,z
1/2-x,1/2-y,z
y,1/2-x,z
x,1/2-y,-z
1/2-x,y,-z
y,x,-z
1/2-y,1/2-x,-z
-x,-y,-z
1/2+y,-x,-z
1/2+x,1/2+y,-z
-y,1/2+x,-z
-x,1/2+y,z
1/2+x,-y,z
-y,-x,z
1/2+y,1/2+x,z
loop_
_atom_site_type_symbol
_atom_site_label
_atom_site_fract_x
_atom_site_fract_y
_atom_site_fract_z
Si Si1 0.081100 0.918901 0.519717
Si Si2 0.105885 0.894116 0.169773
Si Si3 0.750000 0.250000 0.000000
Si Si4 0.894766 0.685962 0.822973
Si Si5 0.250000 0.045459 0.500000
O O1 0.117995 0.882006 0.352654
O O2 0.027758 0.824468 0.600638
O O3 0.000000 0.000000 0.500000
O O4 0.182487 0.817514 0.104688
O O5 0.994349 0.865777 0.115657
O O6 0.880620 0.800815 0.880753
O O7 0.891969 0.689705 0.630883
#
# Coordination Sequence:
#
# PCOD8313412 Si02
#       5
#     8   8   2  16   8
#     4  10  20  33  55  91 128 164 210 272 352 414
#     4  10  24  43  64  91 130 175 234 299 337 411
#     4  12  28  52  72  94 124 192 252 272 344 414
#     4  10  20  36  62  96 132 173 221 277 348 422
#     4  10  18  30  54  90 136 180 210 260 340 438
#
# _framework density 26.838882000000002
#
# number of rings (size 3 to 8) (size 9 to 14) (size 15 to 20)
#    0.000    1.905    0.000    5.714    0.000    9.524 
#    0.000    3.810    0.000    2.286    0.000    0.000 
#    0.000    0.000    0.000    0.000    0.000    0.000 
#
# Total GULP energy -520553.483283 kJ/mol
# GULP energy per Si atom -12394.130554 kJ/mol
# Density = 2.677780 g / cm^3
# Si number density = 26.838882 Si / 1000 Ang^3
#
#
#
# Elastic Constant Matrix: (Units=GPa)
#
#
# Indices 1 2 3 4 5 6 
#
# 1 195.6158 99.5005 39.2750 0.0000 0.0000 0.0000
# 2 99.5005 195.6158 39.2750 0.0000 0.0000 0.0000
# 3 39.2750 39.2750 60.6851 0.0000 0.0000 0.0000
# 4 0.0000 0.0000 0.0000 38.4930 0.0000 0.0000
# 5 0.0000 0.0000 0.0000 0.0000 38.4930 0.0000
# 6 0.0000 0.0000 0.0000 0.0000 0.0000 56.9279
#
#
#
# Elastic Compliance Matrix: (Units=1/GPa)
#
#
# Indices 1 2 3 4 5 6 
#
# 1 0.007249 -0.003155 -0.002649 0.000000 0.000000 0.000000
# 2 -0.003155 0.007249 -0.002649 0.000000 0.000000 0.000000
# 3 -0.002649 -0.002649 0.019908 0.000000 0.000000 0.000000
# 4 0.000000 0.000000 0.000000 0.025979 0.000000 0.000000
# 5 0.000000 0.000000 0.000000 0.000000 0.025979 0.000000
# 6 0.000000 0.000000 0.000000 0.000000 0.000000 0.017566
#
#
# Mechanical properties :
#
#
# Convention : Reuss Voigt Hill
#
# Bulk Modulus (GPa) = 57.15067 89.77977 73.46522
# Shear Modulus (GPa) = 39.47267 45.04053 42.25660
#
# Velocity S-wave (km/s) = 3.83917 4.10101 3.97224
# Velocity P-wave (km/s) = 6.40254 7.47986 6.96207
#
# Compressibility (1/GPa) = 0.01749761
#
# Stress axis : x y z
#
# Youngs Moduli (GPa) = 137.95154 137.95154 50.23138
#
# Poissons Ratio (x) = 0.43527 0.13308
# Poissons Ratio (y) = 0.43527 0.13308
# Poissons Ratio (z) = 0.36549 0.36549
#
# Static dielectric constant tensor:
#      x y z
#    x 6.142440 0.000000 0.000000 
#    y 0.000000 6.142440 0.000000 
#    z 0.000000 0.000000 4.560570 
# 
# 
# High freq. dielectric constant tensor:
#      x y z
#    x 2.092790 0.000000 0.000000 
#    y 0.000000 2.092790 0.000000 
#    z 0.000000 0.000000 2.070270 
# 
# From -- ./inp_files/3388.got.cif
#   From: 2010.03.12/outbox.cif.g09.slc.cpg/sg125_2_cif.got.tgz:3388.got - 2010.04.06 16:47:52.
