data_PCOD8313549
_publ_section_title
;
Structure prediction by ZEFSAII (Michael W. Deem and Ramdas Pophale) SiO2 
 PCOD8313549
Probable space group: P 4/N B M
;
_chemical_formula_sum "Si O2"
_cell_formula_units_Z 96
_cell_length_a 14.808896
_cell_length_b 14.808896
_cell_length_c 20.488163
_cell_angle_alpha 90.000000
_cell_angle_beta 90.000000
_cell_angle_gamma 90.000000
_cell_volume 4493.123821
_symmetry_space_group_name_H-M "P 4/N B M"
_symmetry_group_IT_number 125
_space_group.IT_coordinate_system_code '2'
_symmetry_cell_setting 'tetragonal'
loop_
_space_group_symop_operation_xyz
x,y,z
1/2-y,x,z
1/2-x,1/2-y,z
y,1/2-x,z
x,1/2-y,-z
1/2-x,y,-z
y,x,-z
1/2-y,1/2-x,-z
-x,-y,-z
1/2+y,-x,-z
1/2+x,1/2+y,-z
-y,1/2+x,-z
-x,1/2+y,z
1/2+x,-y,z
-y,-x,z
1/2+y,1/2+x,z
loop_
_atom_site_type_symbol
_atom_site_label
_atom_site_fract_x
_atom_site_fract_y
_atom_site_fract_z
Si Si1 0.140061 0.352314 0.728708
Si Si2 0.912514 0.560095 0.597118
Si Si3 0.602190 0.760137 0.074304
Si Si4 0.892493 0.249247 0.703190
Si Si5 0.227817 0.516527 0.567370
Si Si6 0.491547 0.659895 0.817996
O O1 0.124554 0.244616 0.727400
O O2 0.094106 0.408356 0.671191
O O3 0.085718 0.385993 0.793429
O O4 0.809503 0.553797 0.574229
O O5 0.964239 0.464239 0.593925
O O6 0.964155 0.634073 0.553507
O O7 0.655675 0.668303 0.089241
O O8 0.513284 0.778427 0.118482
O O9 0.569024 0.750000 0.000000
O O10 0.827719 0.172282 0.732285
O O11 0.840514 0.340514 0.686312
O O12 0.927851 0.215375 0.633327
O O13 0.964313 0.272077 0.759058
O O14 0.250000 0.572622 0.500000
O O15 0.414288 0.585713 0.834150
#
# Coordination Sequence:
#
# PCOD8313549 Si02
#       6
#    16  16  16  16  16  16
#     4  11  21  37  63  92 121 159 208 258 314 381
#     4  12  24  42  63  88 121 157 203 263 327 388
#     4   9  19  39  66  94 126 165 207 251 304 366
#     4  10  22  41  62  84 117 163 214 264 311 373
#     4  12  26  42  62  88 119 159 207 264 334 400
#     4  11  21  37  61  93 130 164 203 254 314 374
#
# _framework density 21.365983
#
# number of rings (size 3 to 8) (size 9 to 14) (size 15 to 20)
#    0.000    1.167    3.333    3.500    0.000    5.000 
#    0.000    9.167    0.000    0.000    0.000    0.000 
#    0.000    0.000    0.000    0.000    0.000    0.000 
#
# Total GULP energy -1189342.188410 kJ/mol
# GULP energy per Si atom -12388.981129 kJ/mol
# Density = 2.131735 g / cm^3
# Si number density = 21.365983 Si / 1000 Ang^3
#
#
#
# Elastic Constant Matrix: (Units=GPa)
#
#
# Indices 1 2 3 4 5 6 
#
# 1 82.9331 31.7055 27.5705 0.0000 0.0000 0.0000
# 2 31.7055 82.9331 27.5705 0.0000 0.0000 0.0000
# 3 27.5705 27.5705 121.2950 0.0000 0.0000 0.0000
# 4 0.0000 0.0000 0.0000 20.0314 0.0000 0.0000
# 5 0.0000 0.0000 0.0000 0.0000 20.0314 0.0000
# 6 0.0000 0.0000 0.0000 0.0000 0.0000 28.3307
#
#
#
# Elastic Compliance Matrix: (Units=1/GPa)
#
#
# Indices 1 2 3 4 5 6 
#
# 1 0.014657 -0.004863 -0.002226 0.000000 0.000000 0.000000
# 2 -0.004863 0.014657 -0.002226 0.000000 0.000000 0.000000
# 3 -0.002226 -0.002226 0.009256 0.000000 0.000000 0.000000
# 4 0.000000 0.000000 0.000000 0.049922 0.000000 0.000000
# 5 0.000000 0.000000 0.000000 0.000000 0.049922 0.000000
# 6 0.000000 0.000000 0.000000 0.000000 0.000000 0.035297
#
#
# Mechanical properties :
#
#
# Convention : Reuss Voigt Hill
#
# Bulk Modulus (GPa) = 50.15181 51.20600 50.67891
# Shear Modulus (GPa) = 25.12695 27.03301 26.07998
#
# Velocity S-wave (km/s) = 3.43304 3.56087 3.49754
# Velocity P-wave (km/s) = 6.26403 6.39723 6.33098
#
# Compressibility (1/GPa) = 0.01993946
#
# Stress axis : x y z
#
# Youngs Moduli (GPa) = 68.22539 68.22539 108.03366
#
# Poissons Ratio (x) = 0.33181 0.24050
# Poissons Ratio (y) = 0.33181 0.24050
# Poissons Ratio (z) = 0.15188 0.15188
#
# Static dielectric constant tensor:
#      x y z
#    x 3.931420 0.000000 0.000000 
#    y 0.000000 3.931420 0.000000 
#    z 0.000000 0.000000 3.999990 
# 
# 
# High freq. dielectric constant tensor:
#      x y z
#    x 1.831360 0.000000 0.000000 
#    y 0.000000 1.831360 0.000000 
#    z 0.000000 0.000000 1.838600 
# 
# From -- ./inp_files/5934.got.cif
#   From: 2010.03.12/outbox.cif.g09.slc.cpg/sg125_3_cif.got.tgz:5934.got - 2010.04.06 16:47:52.
