data_PCOD8313292
_publ_section_title
;
Structure prediction by ZEFSAII (Michael W. Deem and Ramdas Pophale) SiO2 
 PCOD8313292
Probable space group: P 4/M C C
;
_chemical_formula_sum "Si O2"
_cell_formula_units_Z 72
_cell_length_a 15.071887
_cell_length_b 15.071887
_cell_length_c 16.996232
_cell_angle_alpha 90.000000
_cell_angle_beta 90.000000
_cell_angle_gamma 90.000000
_cell_volume 3860.894276
_symmetry_space_group_name_H-M "P 4/M C C"
_symmetry_group_IT_number 124
_symmetry_cell_setting 'tetragonal'
loop_
_space_group_symop_operation_xyz
x,y,z
-y,x,z
-x,-y,z
y,-x,z
x,-y,1/2-z
-x,y,1/2-z
y,x,1/2-z
-y,-x,1/2-z
-x,-y,-z
y,-x,-z
x,y,-z
-y,x,-z
-x,y,1/2+z
x,-y,1/2+z
-y,-x,1/2+z
y,x,1/2+z
loop_
_atom_site_type_symbol
_atom_site_label
_atom_site_fract_x
_atom_site_fract_y
_atom_site_fract_z
Si Si1 0.639474 0.446596 0.500000
Si Si2 0.821524 0.253096 0.826082
Si Si3 0.130615 0.052675 0.092639
Si Si4 0.646115 0.785725 0.413421
Si Si5 0.099026 0.601731 0.733224
O O1 0.613827 0.550225 0.500000
O O2 0.701055 0.421763 0.423232
O O3 0.808238 0.191763 0.750000
O O4 0.910326 0.219698 0.868966
O O5 0.739086 0.254149 0.884690
O O6 0.835610 0.352934 0.795948
O O7 0.048198 0.114474 0.120000
O O8 0.140207 0.056025 0.000000
O O9 0.660339 0.829506 0.500000
O O10 0.614724 0.864319 0.355611
O O11 0.101018 0.500000 0.750000
O O12 0.000000 0.639528 0.750000
#
# Coordination Sequence:
#
# PCOD8313292 Si02
#       5
#     8  16  16  16  16
#     4   9  20  38  68  97 121 146 197 264 328 370
#     4  10  21  34  55  81 112 156 196 243 303 350
#     4   9  19  34  52  78 112 149 194 249 294 344
#     4   9  21  38  63  89 120 155 203 252 303 373
#     4  10  23  41  59  85 124 163 203 250 303 360
#
# _framework density 18.648530000000001
#
# number of rings (size 3 to 8) (size 9 to 14) (size 15 to 20)
#    0.667    1.889    0.000    1.333    9.333    0.000 
#    0.000    5.556    0.000    0.000    0.000    0.000 
#    0.000    0.000    0.000    0.000    0.000    0.000 
#
# Total GULP energy -892108.714328 kJ/mol
# GULP energy per Si atom -12390.398810 kJ/mol
# Density = 1.860609 g / cm^3
# Si number density = 18.648530 Si / 1000 Ang^3
#
#
#
# Elastic Constant Matrix: (Units=GPa)
#
#
# Indices 1 2 3 4 5 6 
#
# 1 78.8188 30.4463 49.4057 0.0000 0.0000 0.0000
# 2 30.4463 78.8191 49.4057 0.0000 0.0000 0.0000
# 3 49.4057 49.4057 99.0888 0.0000 0.0000 0.0000
# 4 0.0000 0.0000 0.0000 26.8052 0.0000 0.0000
# 5 0.0000 0.0000 0.0000 0.0000 26.8062 0.0000
# 6 0.0000 0.0000 0.0000 0.0000 0.0000 26.8186
#
#
#
# Elastic Compliance Matrix: (Units=1/GPa)
#
#
# Indices 1 2 3 4 5 6 
#
# 1 0.018670 -0.002003 -0.008310 0.000000 0.000000 0.000000
# 2 -0.002003 0.018670 -0.008310 0.000000 0.000000 0.000000
# 3 -0.008310 -0.008310 0.018379 0.000000 0.000000 0.000000
# 4 0.000000 0.000000 0.000000 0.037306 0.000000 0.000000
# 5 0.000000 0.000000 0.000000 0.000000 0.037305 0.000000
# 6 0.000000 0.000000 0.000000 0.000000 0.000000 0.037288
#
#
# Mechanical properties :
#
#
# Convention : Reuss Voigt Hill
#
# Bulk Modulus (GPa) = 54.13508 57.24913 55.69210
# Shear Modulus (GPa) = 23.69422 24.58393 24.13908
#
# Velocity S-wave (km/s) = 3.56837 3.63475 3.60171
# Velocity P-wave (km/s) = 6.78748 6.95563 6.87207
#
# Compressibility (1/GPa) = 0.01847231
#
# Stress axis : x y z
#
# Youngs Moduli (GPa) = 53.56156 53.56181 54.40990
#
# Poissons Ratio (x) = 0.10727 0.45216
# Poissons Ratio (y) = 0.10727 0.45216
# Poissons Ratio (z) = 0.44511 0.44511
#
# Static dielectric constant tensor:
#      x y z
#    x 3.480130 0.000000 0.000000 
#    y 0.000000 3.480130 0.000000 
#    z 0.000000 0.000000 3.442550 
# 
# 
# High freq. dielectric constant tensor:
#      x y z
#    x 1.719830 0.000000 0.000000 
#    y 0.000000 1.719840 0.000000 
#    z 0.000000 0.000000 1.720330 
# 
# From -- ./inp_files/4041.got.cif
#   From: 2010.03.12/outbox.cif.g09.slc.cpg/sg124_3_cif.got.tgz:4041.got - 2010.04.06 16:38:57.
