data_PCOD8313088
_publ_section_title
;
Structure prediction by ZEFSAII (Michael W. Deem and Ramdas Pophale) SiO2 
 PCOD8313088
Probable space group: P 4/M C C
;
_chemical_formula_sum "Si O2"
_cell_formula_units_Z 96
_cell_length_a 19.874703
_cell_length_b 19.874703
_cell_length_c 15.614208
_cell_angle_alpha 90.000000
_cell_angle_beta 90.000000
_cell_angle_gamma 90.000000
_cell_volume 6167.671796
_symmetry_space_group_name_H-M "P 4/M C C"
_symmetry_group_IT_number 124
_symmetry_cell_setting 'tetragonal'
loop_
_space_group_symop_operation_xyz
x,y,z
-y,x,z
-x,-y,z
y,-x,z
x,-y,1/2-z
-x,y,1/2-z
y,x,1/2-z
-y,-x,1/2-z
-x,-y,-z
y,-x,-z
x,y,-z
-y,x,-z
-x,y,1/2+z
x,-y,1/2+z
-y,-x,1/2+z
y,x,1/2+z
loop_
_atom_site_type_symbol
_atom_site_label
_atom_site_fract_x
_atom_site_fract_y
_atom_site_fract_z
Si Si1 0.247840 0.641856 0.736739
Si Si2 0.413470 0.669679 0.904610
Si Si3 0.812673 0.077648 0.403161
Si Si4 0.077013 0.813089 0.403132
Si Si5 0.453514 0.663200 0.670536
Si Si6 0.254948 0.857967 0.750334
O O1 0.294543 0.705458 0.750000
O O2 0.262797 0.613611 0.641352
O O3 0.266185 0.583587 0.805626
O O4 0.171362 0.668507 0.747046
O O5 0.495024 0.672807 0.908330
O O6 0.391496 0.603208 0.851943
O O7 0.383980 0.667298 0.000000
O O8 0.785830 0.090189 0.500000
O O9 0.880399 0.119571 0.385567
O O10 0.754270 0.098624 0.336334
O O11 0.832354 0.000381 0.388837
O O12 0.089485 0.786258 0.500000
O O13 0.097415 0.755254 0.335675
O O14 0.500000 0.638866 0.750000
O O15 0.201955 0.798046 0.750000
#
# Coordination Sequence:
#
# PCOD8313088 Si02
#       6
#    16  16  16  16  16  16
#     4   8  16  29  42  56  78 110 142 171 209 250
#     4  10  18  28  43  64  86 109 140 175 204 241
#     4   9  17  28  41  61  86 115 147 178 210 248
#     4   9  17  27  41  61  87 116 146 176 209 249
#     4   9  17  30  43  58  84 115 140 166 203 244
#     4   9  16  28  43  58  80 111 146 180 213 250
#
# _framework density 15.56503
#
# number of rings (size 3 to 8) (size 9 to 14) (size 15 to 20)
#    0.000    3.000    0.000    2.500    0.000    1.333 
#    0.000   15.833    0.000    3.000    0.000    0.000 
#    0.000   24.000    0.000   39.000    0.000    3.000 
#
# Total GULP energy -1189431.844137 kJ/mol
# GULP energy per Si atom -12389.915043 kJ/mol
# Density = 1.552960 g / cm^3
# Si number density = 15.565030 Si / 1000 Ang^3
#
#
#
# Elastic Constant Matrix: (Units=GPa)
#
#
# Indices 1 2 3 4 5 6 
#
# 1 63.4831 55.4725 46.3649 0.0000 0.0000 0.0000
# 2 55.4725 63.4833 46.3648 0.0000 0.0000 0.0000
# 3 46.3649 46.3648 106.4215 0.0000 0.0000 0.0000
# 4 0.0000 0.0000 0.0000 15.0831 0.0000 0.0000
# 5 0.0000 0.0000 0.0000 0.0000 15.0817 0.0000
# 6 0.0000 0.0000 0.0000 0.0000 0.0000 20.1461
#
#
#
# Elastic Compliance Matrix: (Units=1/GPa)
#
#
# Indices 1 2 3 4 5 6 
#
# 1 0.068781 -0.056051 -0.005546 0.000000 0.000000 0.000000
# 2 -0.056051 0.068781 -0.005546 0.000000 0.000000 0.000000
# 3 -0.005546 -0.005546 0.014229 0.000000 0.000000 0.000000
# 4 0.000000 0.000000 0.000000 0.066299 0.000000 0.000000
# 5 0.000000 0.000000 0.000000 0.000000 0.066306 0.000000
# 6 0.000000 0.000000 0.000000 0.000000 0.000000 0.049637
#
#
# Mechanical properties :
#
#
# Convention : Reuss Voigt Hill
#
# Bulk Modulus (GPa) = 57.12782 58.86582 57.99682
# Shear Modulus (GPa) = 10.54508 15.74122 13.14315
#
# Velocity S-wave (km/s) = 2.60568 3.18358 2.90901
# Velocity P-wave (km/s) = 6.77016 7.17042 6.97316
#
# Compressibility (1/GPa) = 0.01750461
#
# Stress axis : x y z
#
# Youngs Moduli (GPa) = 14.53884 14.53894 70.27855
#
# Poissons Ratio (x) = 0.81493 0.38978
# Poissons Ratio (y) = 0.81492 0.38975
# Poissons Ratio (z) = 0.08064 0.08063
#
# Static dielectric constant tensor:
#      x y z
#    x 2.955150 0.000000 0.000000 
#    y 0.000000 2.955150 0.000000 
#    z 0.000000 0.000000 3.294370 
# 
# 
# High freq. dielectric constant tensor:
#      x y z
#    x 1.567510 0.000000 0.000000 
#    y 0.000000 1.567510 0.000000 
#    z 0.000000 0.000000 1.607800 
# 
# From -- ./inp_files/3413.got.cif
#   From: 2010.03.12/outbox.cif.g09.slc.cpg/sg124_2_cif.got.tgz:3413.got - 2010.04.06 16:38:57.
