data_PCOD8313380
_publ_section_title
;
Structure prediction by ZEFSAII (Michael W. Deem and Ramdas Pophale) SiO2 
 PCOD8313380
Probable space group: P 4/M C C
;
_chemical_formula_sum "Si O2"
_cell_formula_units_Z 88
_cell_length_a 17.034135
_cell_length_b 17.034135
_cell_length_c 15.030818
_cell_angle_alpha 90.000000
_cell_angle_beta 90.000000
_cell_angle_gamma 90.000000
_cell_volume 4361.368533
_symmetry_space_group_name_H-M "P 4/M C C"
_symmetry_group_IT_number 124
_symmetry_cell_setting 'tetragonal'
loop_
_space_group_symop_operation_xyz
x,y,z
-y,x,z
-x,-y,z
y,-x,z
x,-y,1/2-z
-x,y,1/2-z
y,x,1/2-z
-y,-x,1/2-z
-x,-y,-z
y,-x,-z
x,y,-z
-y,x,-z
-x,y,1/2+z
x,-y,1/2+z
-y,-x,1/2+z
y,x,1/2+z
loop_
_atom_site_type_symbol
_atom_site_label
_atom_site_fract_x
_atom_site_fract_y
_atom_site_fract_z
Si Si1 0.645971 0.168059 0.601393
Si Si2 0.589552 0.722574 0.751086
Si Si3 0.000649 0.591904 0.848528
Si Si4 0.837038 0.652353 0.900537
Si Si5 0.827303 0.178382 0.848929
Si Si6 0.076745 0.896681 0.000000
O O1 0.650242 0.198711 0.500000
O O2 0.591634 0.226293 0.658334
O O3 0.617426 0.078569 0.599641
O O4 0.728405 0.173992 0.650327
O O5 0.500000 0.691155 0.750000
O O6 0.648627 0.648627 0.750000
O O7 0.609488 0.778580 0.667618
O O8 0.000000 0.500000 0.839499
O O9 0.000000 0.630378 0.750000
O O10 0.923184 0.615241 0.901567
O O11 0.852302 0.742838 0.878121
O O12 0.801519 0.643637 0.000000
O O13 0.849301 0.150700 0.750000
O O14 0.894848 0.147085 0.912409
O O15 0.983961 0.890921 0.000000
#
# Coordination Sequence:
#
# PCOD8313380 Si02
#       6
#    16  16  16  16  16   8
#     4  12  23  41  68  98 135 176 222 272 336 407
#     4  12  26  46  69  99 135 175 225 281 338 407
#     4  11  23  39  61  96 139 172 208 268 341 410
#     4  12  23  41  68  98 135 176 222 272 336 407
#     4  12  23  43  71 100 130 175 231 277 329 392
#     4  11  28  48  68 100 140 184 237 290 336 386
#
# _framework density 20.177153000000001
#
# number of rings (size 3 to 8) (size 9 to 14) (size 15 to 20)
#    0.000    0.273    7.273    1.636    2.545    4.545 
#    0.000    0.909    0.000    0.000    0.000    2.545 
#    0.000    0.000    0.000    0.000    0.000    0.000 
#
# Total GULP energy -1091451.616196 kJ/mol
# GULP energy per Si atom -12402.859275 kJ/mol
# Density = 2.013123 g / cm^3
# Si number density = 20.177153 Si / 1000 Ang^3
#
#
#
# Elastic Constant Matrix: (Units=GPa)
#
#
# Indices 1 2 3 4 5 6 
#
# 1 83.2437 44.2850 17.9654 0.0000 0.0000 0.0000
# 2 44.2850 83.2441 17.9657 0.0000 0.0000 0.0000
# 3 17.9654 17.9657 150.4546 0.0000 0.0000 0.0000
# 4 0.0000 0.0000 0.0000 26.6107 0.0000 0.0000
# 5 0.0000 0.0000 0.0000 0.0000 26.6046 0.0000
# 6 0.0000 0.0000 0.0000 0.0000 0.0000 27.5384
#
#
#
# Elastic Compliance Matrix: (Units=1/GPa)
#
#
# Indices 1 2 3 4 5 6 
#
# 1 0.016891 -0.008777 -0.000969 0.000000 0.000000 0.000000
# 2 -0.008777 0.016891 -0.000969 0.000000 0.000000 0.000000
# 3 -0.000969 -0.000969 0.006878 0.000000 0.000000 0.000000
# 4 0.000000 0.000000 0.000000 0.037579 0.000000 0.000000
# 5 0.000000 0.000000 0.000000 0.000000 0.037588 0.000000
# 6 0.000000 0.000000 0.000000 0.000000 0.000000 0.036313
#
#
# Mechanical properties :
#
#
# Convention : Reuss Voigt Hill
#
# Bulk Modulus (GPa) = 51.99954 53.04161 52.52057
# Shear Modulus (GPa) = 27.78096 31.93249 29.85672
#
# Velocity S-wave (km/s) = 3.71462 3.98251 3.85090
# Velocity P-wave (km/s) = 6.65021 6.89146 6.77191
#
# Compressibility (1/GPa) = 0.01923094
#
# Stress axis : x y z
#
# Youngs Moduli (GPa) = 59.20229 59.20251 145.39287
#
# Poissons Ratio (x) = 0.51961 0.14087
# Poissons Ratio (y) = 0.51961 0.14088
# Poissons Ratio (z) = 0.05736 0.05736
#
# Static dielectric constant tensor:
#      x y z
#    x 3.574030 0.000000 0.000000 
#    y 0.000000 3.574030 0.000000 
#    z 0.000000 0.000000 3.817950 
# 
# 
# High freq. dielectric constant tensor:
#      x y z
#    x 1.784760 0.000000 0.000000 
#    y 0.000000 1.784760 0.000000 
#    z 0.000000 0.000000 1.806700 
# 
# From -- ./inp_files/3237.got.cif
#   From: 2010.03.12/outbox.cif.g09.slc.cpg/sg124_2_cif.got.tgz:3237.got - 2010.04.06 16:38:57.
