data_PCOD8313894
_publ_section_title
;
Structure prediction by ZEFSAII (Michael W. Deem and Ramdas Pophale) SiO2 
 PCOD8313894
Probable space group: P 4/M B M
;
_chemical_formula_sum "Si O2"
_cell_formula_units_Z 52
_cell_length_a 14.430870
_cell_length_b 14.430870
_cell_length_c 12.078740
_cell_angle_alpha 90.000000
_cell_angle_beta 90.000000
_cell_angle_gamma 90.000000
_cell_volume 2515.397713
_symmetry_space_group_name_H-M "P 4/M B M"
_symmetry_group_IT_number 127
_symmetry_cell_setting 'tetragonal'
loop_
_space_group_symop_operation_xyz
x,y,z
-y,x,z
-x,-y,z
y,-x,z
1/2+x,1/2-y,-z
1/2-x,1/2+y,-z
1/2+y,1/2+x,-z
1/2-y,1/2-x,-z
-x,-y,-z
y,-x,-z
x,y,-z
-y,x,-z
1/2-x,1/2+y,z
1/2+x,1/2-y,z
1/2-y,1/2-x,z
1/2+y,1/2+x,z
loop_
_atom_site_type_symbol
_atom_site_label
_atom_site_fract_x
_atom_site_fract_y
_atom_site_fract_z
Si Si1 0.091780 0.591780 0.500000
Si Si2 0.423151 0.781466 0.500000
Si Si3 0.646185 0.543945 0.701765
Si Si4 0.077114 0.577114 0.736430
Si Si5 0.294855 0.946829 0.127842
O O1 0.125441 0.485373 0.500000
O O2 0.123784 0.623784 0.624616
O O3 0.317191 0.817191 0.500000
O O4 0.438887 0.721194 0.607964
O O5 0.561364 0.613618 0.689550
O O6 0.692923 0.564666 0.820430
O O7 0.156131 0.531697 0.810398
O O8 0.000000 0.500000 0.700323
O O9 0.352387 0.852387 0.143265
O O10 0.284807 0.973306 0.000000
#
# Coordination Sequence:
#
# PCOD8313894 Si02
#       5
#     4   8  16   8  16
#     4  12  21  34  68 102 128 160 194 255 326 385
#     4  12  23  43  68  97 130 160 204 265 327 383
#     4  11  25  45  64  87 129 176 214 255 314 386
#     4  10  18  34  61  95 132 162 196 256 331 379
#     4  10  21  40  65  94 128 164 211 270 323 373
#
# _framework density 20.672675000000002
#
# number of rings (size 3 to 8) (size 9 to 14) (size 15 to 20)
#    0.000    1.231    3.077    3.692    0.000    4.308 
#   13.846    1.538    0.000    0.000    0.000    0.000 
#    0.000    0.000    0.000    0.000    0.000    0.000 
#
# Total GULP energy -644287.369730 kJ/mol
# GULP energy per Si atom -12390.141726 kJ/mol
# Density = 2.062562 g / cm^3
# Si number density = 20.672675 Si / 1000 Ang^3
#
#
#
# Elastic Constant Matrix: (Units=GPa)
#
#
# Indices 1 2 3 4 5 6 
#
# 1 82.3326 93.4727 70.7263 0.0000 0.0000 0.0000
# 2 93.4727 82.3326 70.7263 0.0000 0.0000 0.0000
# 3 70.7263 70.7263 193.0013 0.0000 0.0000 0.0000
# 4 0.0000 0.0000 0.0000 2.1188 0.0000 0.0000
# 5 0.0000 0.0000 0.0000 0.0000 2.1188 0.0000
# 6 0.0000 0.0000 0.0000 0.0000 0.0000 19.2206
#
#
#
# Elastic Compliance Matrix: (Units=1/GPa)
#
#
# Indices 1 2 3 4 5 6 
#
# 1 -0.040850 0.048916 -0.002956 0.000000 0.000000 0.000000
# 2 0.048916 -0.040850 -0.002956 0.000000 0.000000 0.000000
# 3 -0.002956 -0.002956 0.007348 0.000000 0.000000 0.000000
# 4 0.000000 0.000000 0.000000 0.471956 0.000000 0.000000
# 5 0.000000 0.000000 0.000000 0.000000 0.471956 0.000000
# 6 0.000000 0.000000 0.000000 0.000000 0.000000 0.052027
#
#
# Mechanical properties :
#
#
# Convention : Reuss Voigt Hill
#
# Bulk Modulus (GPa) = 85.78704 91.94637 88.86671
# Shear Modulus (GPa) = 5.95616 12.87440 9.41528
#
# Velocity S-wave (km/s) = 1.69924 2.49825 2.13643
# Velocity P-wave (km/s) = 6.74076 7.27293 7.01189
#
# Compressibility (1/GPa) = 0.01165677
#
# Stress axis : x y z
#
# Youngs Moduli (GPa) = -24.48010 -24.48010 136.09499
#
# Poissons Ratio (x) = 1.19747 0.40230
# Poissons Ratio (y) = 1.19747 0.40230
# Poissons Ratio (z) = -0.07236 -0.07236
#
# Static dielectric constant tensor:
#      x y z
#    x 3.692410 0.000000 0.000000 
#    y 0.000000 3.692410 0.000000 
#    z 0.000000 0.000000 4.103990 
# 
# 
# High freq. dielectric constant tensor:
#      x y z
#    x 1.798410 0.000000 0.000000 
#    y 0.000000 1.798410 0.000000 
#    z 0.000000 0.000000 1.830540 
# 
# From -- ./inp_files/2908.got.cif
#   From: 2010.03.12/outbox.cif.g09.slc.cpg/sg127_2_cif.got.tgz:2908.got - 2010.04.06 17:03:15.
