data_PCOD8313375
_publ_section_title
;
Structure prediction by ZEFSAII (Michael W. Deem and Ramdas Pophale) SiO2 
 PCOD8313375
Probable space group: P 4/M C C
;
_chemical_formula_sum "Si O2"
_cell_formula_units_Z 112
_cell_length_a 14.240308
_cell_length_b 14.240308
_cell_length_c 27.385435
_cell_angle_alpha 90.000000
_cell_angle_beta 90.000000
_cell_angle_gamma 90.000000
_cell_volume 5553.393008
_symmetry_space_group_name_H-M "P 4/M C C"
_symmetry_group_IT_number 124
_symmetry_cell_setting 'tetragonal'
loop_
_space_group_symop_operation_xyz
x,y,z
-y,x,z
-x,-y,z
y,-x,z
x,-y,1/2-z
-x,y,1/2-z
y,x,1/2-z
-y,-x,1/2-z
-x,-y,-z
y,-x,-z
x,y,-z
-y,x,-z
-x,y,1/2+z
x,-y,1/2+z
-y,-x,1/2+z
y,x,1/2+z
loop_
_atom_site_type_symbol
_atom_site_label
_atom_site_fract_x
_atom_site_fract_y
_atom_site_fract_z
Si Si1 0.392904 0.995885 0.692507
Si Si2 0.713940 0.851557 0.368035
Si Si3 0.243321 0.388341 0.553054
Si Si4 0.928690 0.137336 0.444845
Si Si5 0.600352 0.759703 0.553537
Si Si6 0.198531 0.658830 0.846250
Si Si7 0.644761 0.471525 0.193011
O O1 0.339911 0.899847 0.680400
O O2 0.500000 0.000000 0.671557
O O3 0.396535 0.000000 0.750000
O O4 0.326523 0.078056 0.672137
O O5 0.796155 0.892773 0.401795
O O6 0.628085 0.832416 0.404641
O O7 0.748569 0.758459 0.338776
O O8 0.194898 0.371148 0.500000
O O9 0.271910 0.494710 0.561567
O O10 0.340469 0.334482 0.557829
O O11 0.175131 0.353135 0.595975
O O12 0.907183 0.176084 0.500000
O O13 0.039340 0.124722 0.438263
O O14 0.613792 0.806759 0.500000
O O15 0.256012 0.567674 0.826101
O O16 0.608717 0.572098 0.173504
O O17 0.649649 0.500000 0.250000
#
# Coordination Sequence:
#
# PCOD8313375 Si02
#       7
#    16  16  16  16  16  16  16
#     4  11  27  44  61  87 123 159 206 263 322 386
#     4  11  22  39  61  88 120 161 207 254 302 385
#     4   9  19  34  53  82 119 155 199 238 288 359
#     4   9  18  35  63  95 124 154 196 257 317 367
#     4   9  18  33  53  80 115 157 194 240 289 349
#     4  11  24  39  66  89 120 169 205 251 319 369
#     4   9  21  38  61  91 120 151 204 267 318 369
#
# _framework density 20.167849
#
# number of rings (size 3 to 8) (size 9 to 14) (size 15 to 20)
#    0.000    2.143    0.000    3.000    8.000    2.571 
#    0.000    2.857    0.000    3.857    0.000    1.000 
#    0.000    0.000    0.000    0.000    0.000    0.000 
#
# Total GULP energy -1387612.899675 kJ/mol
# GULP energy per Si atom -12389.400890 kJ/mol
# Density = 2.012195 g / cm^3
# Si number density = 20.167849 Si / 1000 Ang^3
#
#
#
# Elastic Constant Matrix: (Units=GPa)
#
#
# Indices 1 2 3 4 5 6 
#
# 1 90.0844 26.9639 47.7358 0.0000 0.0000 0.0000
# 2 26.9639 90.0844 47.7358 0.0000 0.0000 0.0000
# 3 47.7358 47.7358 84.2174 0.0000 0.0000 0.0000
# 4 0.0000 0.0000 0.0000 25.6651 0.0000 0.0000
# 5 0.0000 0.0000 0.0000 0.0000 25.6651 0.0000
# 6 0.0000 0.0000 0.0000 0.0000 0.0000 14.8254
#
#
#
# Elastic Compliance Matrix: (Units=1/GPa)
#
#
# Indices 1 2 3 4 5 6 
#
# 1 0.015866 0.000024 -0.009007 0.000000 0.000000 0.000000
# 2 0.000024 0.015866 -0.009007 0.000000 0.000000 0.000000
# 3 -0.009007 -0.009007 0.022084 0.000000 0.000000 0.000000
# 4 0.000000 0.000000 0.000000 0.038963 0.000000 0.000000
# 5 0.000000 0.000000 0.000000 0.000000 0.038963 0.000000
# 6 0.000000 0.000000 0.000000 0.000000 0.000000 0.067452
#
#
# Mechanical properties :
#
#
# Convention : Reuss Voigt Hill
#
# Bulk Modulus (GPa) = 56.06194 56.58413 56.32304
# Shear Modulus (GPa) = 20.73651 22.69449 21.71550
#
# Velocity S-wave (km/s) = 3.21003 3.35816 3.28493
# Velocity P-wave (km/s) = 6.44958 6.56916 6.50964
#
# Compressibility (1/GPa) = 0.01783741
#
# Stress axis : x y z
#
# Youngs Moduli (GPa) = 63.02675 63.02675 45.28114
#
# Poissons Ratio (x) = -0.00148 0.40783
# Poissons Ratio (y) = -0.00148 0.40783
# Poissons Ratio (z) = 0.56766 0.56766
#
# Static dielectric constant tensor:
#      x y z
#    x 3.594360 0.000000 0.000000 
#    y 0.000000 3.594360 0.000000 
#    z 0.000000 0.000000 3.927050 
# 
# 
# High freq. dielectric constant tensor:
#      x y z
#    x 1.780510 0.000000 0.000000 
#    y 0.000000 1.780510 0.000000 
#    z 0.000000 0.000000 1.794070 
# 
# From -- ./inp_files/6645.got.cif
#   From: 2010.03.12/outbox.cif.g09.slc.cpg/sg124_4_cif.got.tgz:6645.got - 2010.04.06 16:38:57.
