data_PCOD8313107
_publ_section_title
;
Structure prediction by ZEFSAII (Michael W. Deem and Ramdas Pophale) SiO2 
 PCOD8313107
Probable space group: P 4/M C C
;
_chemical_formula_sum "Si O2"
_cell_formula_units_Z 112
_cell_length_a 14.875427
_cell_length_b 14.875427
_cell_length_c 25.364098
_cell_angle_alpha 90.000000
_cell_angle_beta 90.000000
_cell_angle_gamma 90.000000
_cell_volume 5612.525208
_symmetry_space_group_name_H-M "P 4/M C C"
_symmetry_group_IT_number 124
_symmetry_cell_setting 'tetragonal'
loop_
_space_group_symop_operation_xyz
x,y,z
-y,x,z
-x,-y,z
y,-x,z
x,-y,1/2-z
-x,y,1/2-z
y,x,1/2-z
-y,-x,1/2-z
-x,-y,-z
y,-x,-z
x,y,-z
-y,x,-z
-x,y,1/2+z
x,-y,1/2+z
-y,-x,1/2+z
y,x,1/2+z
loop_
_atom_site_type_symbol
_atom_site_label
_atom_site_fract_x
_atom_site_fract_y
_atom_site_fract_z
Si Si1 0.896026 0.405047 0.236902
Si Si2 0.306443 0.324655 0.062347
Si Si3 0.236033 0.014977 0.393797
Si Si4 0.486287 0.236551 0.062274
Si Si5 0.774653 0.907140 0.279322
Si Si6 0.421289 0.066638 0.876963
Si Si7 0.835073 0.181319 0.940037
O O1 0.846445 0.500000 0.250000
O O2 0.855294 0.321268 0.270636
O O3 0.882629 0.384273 0.174870
O O4 0.000000 0.415198 0.250000
O O5 0.410381 0.309547 0.078456
O O6 0.269786 0.418542 0.086698
O O7 0.249843 0.239392 0.083428
O O8 0.295063 0.329114 0.000000
O O9 0.341427 0.993817 0.400777
O O10 0.183418 0.921313 0.401439
O O11 0.208752 0.068827 0.340372
O O12 0.206771 0.081676 0.440411
O O13 0.458900 0.137794 0.081535
O O14 0.493237 0.229083 0.000000
O O15 0.853560 0.853560 0.250000
O O16 0.764097 0.000000 0.250000
O O17 0.500000 0.000000 0.859313
O O18 0.861837 0.207124 0.000000
#
# Coordination Sequence:
#
# PCOD8313107 Si02
#       7
#    16  16  16  16  16  16  16
#     4  10  18  37  58  85 118 148 182 241 307 357
#     4   9  19  37  57  84 123 161 199 253 310 364
#     4  12  23  38  62  84 114 167 209 250 312 368
#     4  10  21  36  58  88 124 164 204 256 312 371
#     4  11  22  38  59  88 121 153 196 254 302 360
#     4  12  21  35  61  92 117 157 206 249 311 370
#     4  11  24  41  58  83 122 161 208 260 307 369
#
# _framework density 19.955366999999999
#
# number of rings (size 3 to 8) (size 9 to 14) (size 15 to 20)
#    0.000    1.286    5.714    2.143    0.000    1.571 
#    0.000    3.571    0.000    0.000    0.000    0.000 
#    0.000    0.286    0.000    0.143    0.000    0.143 
#
# Total GULP energy -1388188.993089 kJ/mol
# GULP energy per Si atom -12394.544581 kJ/mol
# Density = 1.990995 g / cm^3
# Si number density = 19.955367 Si / 1000 Ang^3
#
#
#
# Elastic Constant Matrix: (Units=GPa)
#
#
# Indices 1 2 3 4 5 6 
#
# 1 113.4704 51.9709 36.1504 0.0000 0.0000 0.0000
# 2 51.9709 113.4704 36.1504 0.0000 0.0000 0.0000
# 3 36.1504 36.1504 59.2976 0.0000 0.0000 0.0000
# 4 0.0000 0.0000 0.0000 24.6111 0.0000 0.0000
# 5 0.0000 0.0000 0.0000 0.0000 24.6111 0.0000
# 6 0.0000 0.0000 0.0000 0.0000 0.0000 23.4774
#
#
#
# Elastic Compliance Matrix: (Units=1/GPa)
#
#
# Indices 1 2 3 4 5 6 
#
# 1 0.012250 -0.004010 -0.005023 0.000000 0.000000 0.000000
# 2 -0.004010 0.012250 -0.005023 0.000000 0.000000 0.000000
# 3 -0.005023 -0.005023 0.022989 0.000000 0.000000 0.000000
# 4 0.000000 0.000000 0.000000 0.040632 0.000000 0.000000
# 5 0.000000 0.000000 0.000000 0.000000 0.040632 0.000000
# 6 0.000000 0.000000 0.000000 0.000000 0.000000 0.042594
#
#
# Mechanical properties :
#
#
# Convention : Reuss Voigt Hill
#
# Bulk Modulus (GPa) = 51.61241 59.42020 55.51630
# Shear Modulus (GPa) = 24.28136 25.33770 24.80953
#
# Velocity S-wave (km/s) = 3.49203 3.56718 3.52980
# Velocity P-wave (km/s) = 6.49454 6.84160 6.67033
#
# Compressibility (1/GPa) = 0.01937519
#
# Stress axis : x y z
#
# Youngs Moduli (GPa) = 81.63271 81.63271 43.49924
#
# Poissons Ratio (x) = 0.32737 0.21851
# Poissons Ratio (y) = 0.32737 0.21851
# Poissons Ratio (z) = 0.41006 0.41006
#
# Static dielectric constant tensor:
#      x y z
#    x -1.425270 0.000000 0.000000 
#    y 0.000000 -1.425270 0.000000 
#    z 0.000000 0.000000 3.652850 
# 
# 
# High freq. dielectric constant tensor:
#      x y z
#    x 1.772340 0.000000 0.000000 
#    y 0.000000 1.772340 0.000000 
#    z 0.000000 0.000000 1.762950 
# 
# From -- ./inp_files/6646.got.cif
#   From: 2010.03.12/outbox.cif.g09.slc.cpg/sg124_4_cif.got.tgz:6646.got - 2010.04.06 16:38:57.
