data_PCOD8313862
_publ_section_title
;
Structure prediction by ZEFSAII (Michael W. Deem and Ramdas Pophale) SiO2 
 PCOD8313862
Probable space group: P 4/M B M
;
_chemical_formula_sum "Si O2"
_cell_formula_units_Z 72
_cell_length_a 18.898013
_cell_length_b 18.898013
_cell_length_c 11.426578
_cell_angle_alpha 90.000000
_cell_angle_beta 90.000000
_cell_angle_gamma 90.000000
_cell_volume 4080.829738
_symmetry_space_group_name_H-M "P 4/M B M"
_symmetry_group_IT_number 127
_symmetry_cell_setting 'tetragonal'
loop_
_space_group_symop_operation_xyz
x,y,z
-y,x,z
-x,-y,z
y,-x,z
1/2+x,1/2-y,-z
1/2-x,1/2+y,-z
1/2+y,1/2+x,-z
1/2-y,1/2-x,-z
-x,-y,-z
y,-x,-z
x,y,-z
-y,x,-z
1/2-x,1/2+y,z
1/2+x,1/2-y,z
1/2-y,1/2-x,z
1/2+y,1/2+x,z
loop_
_atom_site_type_symbol
_atom_site_label
_atom_site_fract_x
_atom_site_fract_y
_atom_site_fract_z
Si Si1 0.807629 0.190900 0.000000
Si Si2 0.734434 0.485978 0.802828
Si Si3 0.618158 0.494412 0.000000
Si Si4 0.254556 0.359472 0.238878
Si Si5 0.195430 0.578028 0.000000
Si Si6 0.741114 0.354122 0.364294
O O1 0.795254 0.144414 0.885431
O O2 0.757799 0.257799 0.000000
O O3 0.885164 0.225933 0.000000
O O4 0.663952 0.493512 0.880836
O O5 0.752752 0.557779 0.732704
O O6 0.803474 0.469786 0.883829
O O7 0.727753 0.424782 0.707457
O O8 0.573889 0.567357 0.000000
O O9 0.177685 0.322316 0.230583
O O10 0.300625 0.323314 0.340058
O O11 0.128772 0.628772 0.000000
O O12 0.742405 0.373555 0.500000
O O13 0.814263 0.314263 0.326424
#
# Coordination Sequence:
#
# PCOD8313862 Si02
#       6
#     8  16   8  16   8  16
#     4   9  15  28  50  74 102 130 160 203 247 295
#     4  11  20  30  54  77 103 133 173 212 258 304
#     4  10  21  33  46  73 110 142 171 203 246 304
#     4  10  20  34  53  80 108 134 167 215 266 305
#     4  10  18  29  51  77 101 132 171 209 246 296
#     4  10  21  37  55  74  99 133 176 221 260 306
#
# _framework density 17.643471000000002
#
# number of rings (size 3 to 8) (size 9 to 14) (size 15 to 20)
#    0.000    1.889    2.222    3.333    3.111    0.889 
#    0.000    0.000    0.000    3.333    0.000    6.222 
#    0.000    0.000    0.000    0.000    0.000    0.000 
#
# Total GULP energy -892573.309061 kJ/mol
# GULP energy per Si atom -12396.851515 kJ/mol
# Density = 1.760331 g / cm^3
# Si number density = 17.643471 Si / 1000 Ang^3
#
#
#
# Elastic Constant Matrix: (Units=GPa)
#
#
# Indices 1 2 3 4 5 6 
#
# 1 112.9669 48.2513 35.9481 0.0000 0.0000 0.0000
# 2 48.2513 112.9669 35.9481 0.0000 0.0000 0.0000
# 3 35.9481 35.9481 72.8418 0.0000 0.0000 0.0000
# 4 0.0000 0.0000 0.0000 5.8433 0.0000 0.0000
# 5 0.0000 0.0000 0.0000 0.0000 5.8433 0.0000
# 6 0.0000 0.0000 0.0000 0.0000 0.0000 14.3861
#
#
#
# Elastic Compliance Matrix: (Units=1/GPa)
#
#
# Indices 1 2 3 4 5 6 
#
# 1 0.011703 -0.003750 -0.003925 0.000000 0.000000 0.000000
# 2 -0.003750 0.011703 -0.003925 0.000000 0.000000 0.000000
# 3 -0.003925 -0.003925 0.017602 0.000000 0.000000 0.000000
# 4 0.000000 0.000000 0.000000 0.171136 0.000000 0.000000
# 5 0.000000 0.000000 0.000000 0.000000 0.171136 0.000000
# 6 0.000000 0.000000 0.000000 0.000000 0.000000 0.069511
#
#
# Mechanical properties :
#
#
# Convention : Reuss Voigt Hill
#
# Bulk Modulus (GPa) = 56.15182 59.89672 58.02427
# Shear Modulus (GPa) = 10.37502 17.12309 13.74906
#
# Velocity S-wave (km/s) = 2.42758 3.11867 2.79457
# Velocity P-wave (km/s) = 6.30495 6.85494 6.58569
#
# Compressibility (1/GPa) = 0.01780886
#
# Stress axis : x y z
#
# Youngs Moduli (GPa) = 85.45060 85.45060 56.81058
#
# Poissons Ratio (x) = 0.32040 0.22298
# Poissons Ratio (y) = 0.32040 0.22298
# Poissons Ratio (z) = 0.33539 0.33539
#
# Static dielectric constant tensor:
#      x y z
#    x 3.281000 0.000000 0.000000 
#    y 0.000000 3.281000 0.000000 
#    z 0.000000 0.000000 3.156280 
# 
# 
# High freq. dielectric constant tensor:
#      x y z
#    x 1.676620 0.000000 0.000000 
#    y 0.000000 1.676620 0.000000 
#    z 0.000000 0.000000 1.669440 
# 
# From -- ./inp_files/3389.got.cif
#   From: 2010.03.12/outbox.cif.g09.slc.cpg/sg127_2_cif.got.tgz:3389.got - 2010.04.06 17:03:15.
