data_PCOD8313075
_publ_section_title
;
Structure prediction by ZEFSAII (Michael W. Deem and Ramdas Pophale) SiO2 
 PCOD8313075
Probable space group: P 4/M C C
;
_chemical_formula_sum "Si O2"
_cell_formula_units_Z 96
_cell_length_a 25.110358
_cell_length_b 25.110358
_cell_length_c 8.824967
_cell_angle_alpha 90.000000
_cell_angle_beta 90.000000
_cell_angle_gamma 90.000000
_cell_volume 5564.407139
_symmetry_space_group_name_H-M "P 4/M C C"
_symmetry_group_IT_number 124
_symmetry_cell_setting 'tetragonal'
loop_
_space_group_symop_operation_xyz
x,y,z
-y,x,z
-x,-y,z
y,-x,z
x,-y,1/2-z
-x,y,1/2-z
y,x,1/2-z
-y,-x,1/2-z
-x,-y,-z
y,-x,-z
x,y,-z
-y,x,-z
-x,y,1/2+z
x,-y,1/2+z
-y,-x,1/2+z
y,x,1/2+z
loop_
_atom_site_type_symbol
_atom_site_label
_atom_site_fract_x
_atom_site_fract_y
_atom_site_fract_z
Si Si1 0.053938 0.742514 0.676201
Si Si2 0.858044 0.450003 0.176462
Si Si3 0.661135 0.259423 0.322194
Si Si4 0.446975 0.743190 0.179179
Si Si5 0.864252 0.055185 0.820749
Si Si6 0.667076 0.864934 0.172083
O O1 0.044949 0.739111 0.500000
O O2 0.064676 0.803076 0.727364
O O3 0.104209 0.706936 0.719631
O O4 0.000000 0.719995 0.750000
O O5 0.891266 0.500000 0.250000
O O6 0.804744 0.447388 0.274803
O O7 0.887719 0.393285 0.194429
O O8 0.844401 0.460072 0.000000
O O9 0.711264 0.288737 0.250000
O O10 0.658380 0.269993 0.500000
O O11 0.606850 0.282315 0.247943
O O12 0.668553 0.197139 0.285728
O O13 0.500000 0.715430 0.250000
O O14 0.447109 0.735832 0.000000
O O15 0.896463 0.103538 0.750000
O O16 0.885261 0.000000 0.750000
O O17 0.872288 0.053572 0.000000
O O18 0.685781 0.873873 0.000000
#
# Coordination Sequence:
#
# PCOD8313075 Si02
#       6
#    16  16  16  16  16  16
#     4  10  21  36  55  75  97 127 164 201 240 283
#     4   9  16  27  44  68  95 124 158 200 244 288
#     4  10  20  33  47  69 101 134 165 202 246 293
#     4  10  17  27  44  65  91 126 165 204 243 289
#     4  10  21  37  56  79 103 128 157 193 234 281
#     4   9  19  33  49  70  98 129 163 200 242 291
#
# _framework density 17.252511999999999
#
# number of rings (size 3 to 8) (size 9 to 14) (size 15 to 20)
#    0.000    2.333    0.000    5.500    0.000    6.833 
#    0.000    4.167    0.000    0.500    0.000    3.500 
#    0.000    0.333    0.000    3.333    0.000    2.167 
#
# Total GULP energy -1190027.009057 kJ/mol
# GULP energy per Si atom -12396.114678 kJ/mol
# Density = 1.721324 g / cm^3
# Si number density = 17.252512 Si / 1000 Ang^3
#
#
#
# Elastic Constant Matrix: (Units=GPa)
#
#
# Indices 1 2 3 4 5 6 
#
# 1 79.4785 51.8669 45.5937 0.0000 0.0000 0.0000
# 2 51.8669 79.4810 45.5928 0.0000 0.0000 0.0000
# 3 45.5937 45.5928 107.1168 0.0000 0.0000 0.0000
# 4 0.0000 0.0000 0.0000 31.3598 0.0000 0.0000
# 5 0.0000 0.0000 0.0000 0.0000 31.3597 0.0000
# 6 0.0000 0.0000 0.0000 0.0000 0.0000 2.0617
#
#
#
# Elastic Compliance Matrix: (Units=1/GPa)
#
#
# Indices 1 2 3 4 5 6 
#
# 1 0.023512 -0.012704 -0.004600 0.000000 0.000000 0.000000
# 2 -0.012704 0.023510 -0.004599 0.000000 0.000000 0.000000
# 3 -0.004600 -0.004599 0.013251 0.000000 0.000000 0.000000
# 4 0.000000 0.000000 0.000000 0.031888 0.000000 0.000000
# 5 0.000000 0.000000 0.000000 0.000000 0.031888 0.000000
# 6 0.000000 0.000000 0.000000 0.000000 0.000000 0.485027
#
#
# Mechanical properties :
#
#
# Convention : Reuss Voigt Hill
#
# Bulk Modulus (GPa) = 60.73226 61.35369 61.04298
# Shear Modulus (GPa) = 7.59449 21.15778 14.37614
#
# Velocity S-wave (km/s) = 2.10036 3.50574 2.88979
# Velocity P-wave (km/s) = 6.41564 7.21293 6.82593
#
# Compressibility (1/GPa) = 0.01646571
#
# Stress axis : x y z
#
# Youngs Moduli (GPa) = 42.53224 42.53459 75.46399
#
# Poissons Ratio (x) = 0.54036 0.34715
# Poissons Ratio (y) = 0.54033 0.34709
# Poissons Ratio (z) = 0.19566 0.19563
#
# Static dielectric constant tensor:
#      x y z
#    x 3.313370 0.000000 0.000000 
#    y 0.000000 3.313370 0.000000 
#    z 0.000000 0.000000 3.321610 
# 
# 
# High freq. dielectric constant tensor:
#      x y z
#    x 1.647510 0.000000 0.000000 
#    y 0.000000 1.647510 0.000000 
#    z 0.000000 0.000000 1.683770 
# 
# From -- ./inp_files/1390.got.cif
#   From: 2010.03.12/outbox.cif.g09.slc.cpg/sg124_1_cif.got.tgz:1390.got - 2010.04.06 16:38:57.
