data_PCOD8313332
_publ_section_title
;
Structure prediction by ZEFSAII (Michael W. Deem and Ramdas Pophale) SiO2 
 PCOD8313332
Probable space group: P 4/M C C
;
_chemical_formula_sum "Si O2"
_cell_formula_units_Z 72
_cell_length_a 10.460625
_cell_length_b 10.460625
_cell_length_c 30.550245
_cell_angle_alpha 90.000000
_cell_angle_beta 90.000000
_cell_angle_gamma 90.000000
_cell_volume 3342.950642
_symmetry_space_group_name_H-M "P 4/M C C"
_symmetry_group_IT_number 124
_symmetry_cell_setting 'tetragonal'
loop_
_space_group_symop_operation_xyz
x,y,z
-y,x,z
-x,-y,z
y,-x,z
x,-y,1/2-z
-x,y,1/2-z
y,x,1/2-z
-y,-x,1/2-z
-x,-y,-z
y,-x,-z
x,y,-z
-y,x,-z
-x,y,1/2+z
x,-y,1/2+z
-y,-x,1/2+z
y,x,1/2+z
loop_
_atom_site_type_symbol
_atom_site_label
_atom_site_fract_x
_atom_site_fract_y
_atom_site_fract_z
Si Si1 0.291032 0.513987 0.327225
Si Si2 0.288556 0.480765 0.000000
Si Si3 0.442154 0.139679 0.411890
Si Si4 0.809821 0.916660 0.630648
Si Si5 0.130077 0.315375 0.776270
O O1 0.364078 0.382994 0.319921
O O2 0.234269 0.500425 0.375548
O O3 0.181776 0.542325 0.290719
O O4 0.385775 0.363029 0.000000
O O5 0.196750 0.475705 0.958556
O O6 0.290091 0.131778 0.405458
O O7 0.500000 0.000000 0.405889
O O8 0.760997 0.898562 0.679596
O O9 0.934716 0.833566 0.622650
O O10 0.235467 0.235467 0.750000
O O11 0.000000 0.333267 0.750000
#
# Coordination Sequence:
#
# PCOD8313332 Si02
#       5
#    16   8  16  16  16
#     4  10  24  45  69  96 135 181 225 282 348 411
#     4  11  25  46  74 103 138 180 222 277 339 404
#     4  11  25  41  72 104 137 171 226 278 335 409
#     4  10  22  40  65  93 133 182 224 273 340 403
#     4  11  22  38  67  94 134 177 234 288 336 403
#
# _framework density 21.537859000000001
#
# number of rings (size 3 to 8) (size 9 to 14) (size 15 to 20)
#    0.000    1.444    2.222    1.667    9.333    2.889 
#    0.000    6.667    0.000    1.333    0.000    0.000 
#    0.000    0.000    0.000    0.000    0.000    0.000 
#
# Total GULP energy -892889.060144 kJ/mol
# GULP energy per Si atom -12401.236946 kJ/mol
# Density = 2.148884 g / cm^3
# Si number density = 21.537859 Si / 1000 Ang^3
#
#
#
# Elastic Constant Matrix: (Units=GPa)
#
#
# Indices 1 2 3 4 5 6 
#
# 1 103.3565 -18.8066 32.2564 0.0000 0.0000 0.0000
# 2 -18.8066 103.3565 32.2564 0.0000 0.0000 0.0000
# 3 32.2564 32.2564 103.5066 0.0000 0.0000 0.0000
# 4 0.0000 0.0000 0.0000 23.8393 0.0000 0.0000
# 5 0.0000 0.0000 0.0000 0.0000 23.8393 0.0000
# 6 0.0000 0.0000 0.0000 0.0000 0.0000 97.0648
#
#
#
# Elastic Compliance Matrix: (Units=1/GPa)
#
#
# Indices 1 2 3 4 5 6 
#
# 1 0.011851 0.003666 -0.004836 0.000000 0.000000 0.000000
# 2 0.003666 0.011851 -0.004836 0.000000 0.000000 0.000000
# 3 -0.004836 -0.004836 0.012675 0.000000 0.000000 0.000000
# 4 0.000000 0.000000 0.000000 0.041947 0.000000 0.000000
# 5 0.000000 0.000000 0.000000 0.000000 0.041947 0.000000
# 6 0.000000 0.000000 0.000000 0.000000 0.000000 0.010302
#
#
# Mechanical properties :
#
#
# Convention : Reuss Voigt Hill
#
# Bulk Modulus (GPa) = 41.03990 44.62577 42.83284
# Shear Modulus (GPa) = 33.17655 46.58292 39.87974
#
# Velocity S-wave (km/s) = 3.92903 4.65568 4.30770
# Velocity P-wave (km/s) = 6.29914 7.04735 6.68372
#
# Compressibility (1/GPa) = 0.02436653
#
# Stress axis : x y z
#
# Youngs Moduli (GPa) = 84.37828 84.37828 78.89450
#
# Poissons Ratio (x) = -0.30930 0.38151
# Poissons Ratio (y) = -0.30930 0.38151
# Poissons Ratio (z) = 0.40802 0.40802
#
# Static dielectric constant tensor:
#      x y z
#    x 4.128680 0.000000 0.000000 
#    y 0.000000 4.128680 0.000000 
#    z 0.000000 0.000000 3.786250 
# 
# 
# High freq. dielectric constant tensor:
#      x y z
#    x 1.861950 0.000000 0.000000 
#    y 0.000000 1.861950 0.000000 
#    z 0.000000 0.000000 1.840900 
# 
# From -- ./inp_files/6473.got.cif
#   From: 2010.03.12/outbox.cif.g09.slc.cpg/sg124_4_cif.got.tgz:6473.got - 2010.04.06 16:38:57.
