data_PCOD8313053
_publ_section_title
;
Structure prediction by ZEFSAII (Michael W. Deem and Ramdas Pophale) SiO2 
 PCOD8313053
Probable space group: P 4/M M M
;
_chemical_formula_sum "Si O2"
_cell_formula_units_Z 88
_cell_length_a 14.056449
_cell_length_b 14.056449
_cell_length_c 26.884357
_cell_angle_alpha 90.000000
_cell_angle_beta 90.000000
_cell_angle_gamma 90.000000
_cell_volume 5311.912301
_symmetry_space_group_name_H-M "P 4/M M M"
_symmetry_group_IT_number 123
_symmetry_cell_setting 'tetragonal'
loop_
_space_group_symop_operation_xyz
x,y,z
-y,x,z
-x,-y,z
y,-x,z
x,-y,-z
-x,y,-z
y,x,-z
-y,-x,-z
-x,-y,-z
y,-x,-z
x,y,-z
-y,x,-z
-x,y,z
x,-y,z
-y,-x,z
y,x,z
loop_
_atom_site_type_symbol
_atom_site_label
_atom_site_fract_x
_atom_site_fract_y
_atom_site_fract_z
Si Si1 0.612922 0.895143 0.500000
Si Si2 0.609630 0.235341 0.700351
Si Si3 0.108901 0.262753 0.235317
Si Si4 0.737461 0.108750 0.119855
Si Si5 0.237416 0.608774 0.942291
Si Si6 0.608719 0.761540 0.586980
O O1 0.500000 0.902682 0.500000
O O2 0.648284 0.841943 0.549762
O O3 0.658877 0.000000 0.500000
O O4 0.500000 0.255436 0.713696
O O5 0.667675 0.332326 0.710845
O O6 0.648250 0.149832 0.734153
O O7 0.621507 0.201894 0.643313
O O8 0.166969 0.166969 0.248237
O O9 0.118361 0.289018 0.177570
O O10 0.000000 0.244735 0.250623
O O11 0.833085 0.166916 0.106897
O O12 0.648729 0.148757 0.088812
O O13 0.756079 0.000000 0.104597
O O14 0.256095 0.500000 0.927087
O O15 0.333092 0.666909 0.929379
O O16 0.210812 0.618462 0.000000
O O17 0.500000 0.737269 0.574819
O O18 0.664492 0.664492 0.577677
#
# Coordination Sequence:
#
# PCOD8313053 Si02
#       6
#     8  16  16  16  16  16
#     4   9  17  28  41  59  85 115 145 177 213 254
#     4   9  18  31  46  66  92 121 153 188 226 270
#     4   9  18  32  49  69  92 118 150 189 231 273
#     4   9  18  32  49  69  93 120 150 186 228 273
#     4   9  18  32  49  69  93 121 153 189 227 266
#     4   9  17  29  45  65  89 116 146 181 220 263
#
# _framework density 16.566538999999999
#
# number of rings (size 3 to 8) (size 9 to 14) (size 15 to 20)
#    0.000    3.000    0.000    0.273    0.000    3.455 
#    0.000    9.091    0.000    1.636    0.000    7.636 
#    0.000    2.909    0.000    0.000    0.000    0.545 
#
# Total GULP energy -1091215.504942 kJ/mol
# GULP energy per Si atom -12400.176193 kJ/mol
# Density = 1.652883 g / cm^3
# Si number density = 16.566539 Si / 1000 Ang^3
#
#
#
# Elastic Constant Matrix: (Units=GPa)
#
#
# Indices 1 2 3 4 5 6 
#
# 1 118.5511 54.0436 53.8872 0.0000 0.0000 0.0000
# 2 54.0436 118.5511 53.8872 0.0000 0.0000 0.0000
# 3 53.8872 53.8872 64.4708 0.0000 0.0000 0.0000
# 4 0.0000 0.0000 0.0000 27.2678 0.0000 0.0000
# 5 0.0000 0.0000 0.0000 0.0000 27.2678 0.0000
# 6 0.0000 0.0000 0.0000 0.0000 0.0000 14.1784
#
#
#
# Elastic Compliance Matrix: (Units=1/GPa)
#
#
# Indices 1 2 3 4 5 6 
#
# 1 0.013811 -0.001691 -0.010130 0.000000 0.000000 0.000000
# 2 -0.001691 0.013811 -0.010130 0.000000 0.000000 0.000000
# 3 -0.010130 -0.010130 0.032445 0.000000 0.000000 0.000000
# 4 0.000000 0.000000 0.000000 0.036673 0.000000 0.000000
# 5 0.000000 0.000000 0.000000 0.000000 0.036673 0.000000
# 6 0.000000 0.000000 0.000000 0.000000 0.000000 0.070530
#
#
# Mechanical properties :
#
#
# Convention : Reuss Voigt Hill
#
# Bulk Modulus (GPa) = 61.86545 69.46764 65.66655
# Shear Modulus (GPa) = 19.74471 23.05982 21.40226
#
# Velocity S-wave (km/s) = 3.45605 3.73493 3.59820
# Velocity P-wave (km/s) = 7.30414 7.78609 7.54896
#
# Compressibility (1/GPa) = 0.01616411
#
# Stress axis : x y z
#
# Youngs Moduli (GPa) = 72.40755 72.40755 30.82164
#
# Poissons Ratio (x) = 0.12247 0.31222
# Poissons Ratio (y) = 0.12247 0.31222
# Poissons Ratio (z) = 0.73348 0.73348
#
# Static dielectric constant tensor:
#      x y z
#    x 3.110470 0.000000 0.000000 
#    y 0.000000 3.110470 0.000000 
#    z 0.000000 0.000000 3.208470 
# 
# 
# High freq. dielectric constant tensor:
#      x y z
#    x 1.629430 0.000000 0.000000 
#    y 0.000000 1.629430 0.000000 
#    z 0.000000 0.000000 1.642120 
# 
# From -- ./inp_files/7256.got.cif
#   From: 2010.03.12/outbox.cif.g09.slc.cpg/sg123_4_cif.got.tgz:7256.got - 2010.04.06 16:26:55.
