data_PCOD8313119
_publ_section_title
;
Structure prediction by ZEFSAII (Michael W. Deem and Ramdas Pophale) SiO2 
 PCOD8313119
Probable space group: P 4/M C C
;
_chemical_formula_sum "Si O2"
_cell_formula_units_Z 96
_cell_length_a 22.621623
_cell_length_b 22.621623
_cell_length_c 9.277625
_cell_angle_alpha 90.000000
_cell_angle_beta 90.000000
_cell_angle_gamma 90.000000
_cell_volume 4747.711659
_symmetry_space_group_name_H-M "P 4/M C C"
_symmetry_group_IT_number 124
_symmetry_cell_setting 'tetragonal'
loop_
_space_group_symop_operation_xyz
x,y,z
-y,x,z
-x,-y,z
y,-x,z
x,-y,1/2-z
-x,y,1/2-z
y,x,1/2-z
-y,-x,1/2-z
-x,-y,-z
y,-x,-z
x,y,-z
-y,x,-z
-x,y,1/2+z
x,-y,1/2+z
-y,-x,1/2+z
y,x,1/2+z
loop_
_atom_site_type_symbol
_atom_site_label
_atom_site_fract_x
_atom_site_fract_y
_atom_site_fract_z
Si Si1 0.685222 0.755743 0.653917
Si Si2 0.357656 0.557751 0.170217
Si Si3 0.584901 0.775339 0.842267
Si Si4 0.145250 0.222811 0.161866
Si Si5 0.446534 0.901955 0.659494
Si Si6 0.062094 0.685266 0.173924
O O1 0.697776 0.697776 0.750000
O O2 0.661998 0.732973 0.500000
O O3 0.634964 0.794133 0.729314
O O4 0.743585 0.793765 0.634002
O O5 0.383983 0.500000 0.250000
O O6 0.385543 0.614458 0.250000
O O7 0.286928 0.555438 0.197719
O O8 0.373012 0.557171 0.000000
O O9 0.540796 0.831053 0.841576
O O10 0.614908 0.770058 0.000000
O O11 0.162380 0.162380 0.250000
O O12 0.103050 0.263644 0.258831
O O13 0.118859 0.208691 0.000000
O O14 0.500000 0.931522 0.750000
O O15 0.451999 0.928513 0.500000
O O16 0.380722 0.916203 0.718281
O O17 0.000000 0.695578 0.250000
O O18 0.059592 0.692606 0.000000
#
# Coordination Sequence:
#
# PCOD8313119 Si02
#       6
#    16  16  16  16  16  16
#     4  10  19  29  48  77 108 141 175 217 269 332
#     4  11  24  41  61  82 107 136 174 222 279 350
#     4  10  20  36  56  80 109 138 175 223 280 344
#     4  10  20  35  57  87 120 156 196 241 295 351
#     4  10  22  38  57  80 111 152 198 250 301 352
#     4  11  23  40  61  85 119 160 207 256 302 355
#
# _framework density 20.220267
#
# number of rings (size 3 to 8) (size 9 to 14) (size 15 to 20)
#    0.000    1.667    1.667    3.000    0.000    6.500 
#    0.000    2.500    0.000    0.000    0.000    0.000 
#    0.000    0.333    0.000    3.333    0.000    2.000 
#
# Total GULP energy -1189325.275446 kJ/mol
# GULP energy per Si atom -12388.804953 kJ/mol
# Density = 2.017424 g / cm^3
# Si number density = 20.220267 Si / 1000 Ang^3
#
#
#
# Elastic Constant Matrix: (Units=GPa)
#
#
# Indices 1 2 3 4 5 6 
#
# 1 76.8660 31.6983 46.7941 0.0000 0.0000 0.0000
# 2 31.6983 76.8634 46.7957 0.0000 0.0000 0.0000
# 3 46.7941 46.7957 145.2114 0.0000 0.0000 0.0000
# 4 0.0000 0.0000 0.0000 28.1457 0.0000 0.0000
# 5 0.0000 0.0000 0.0000 0.0000 28.1459 0.0000
# 6 0.0000 0.0000 0.0000 0.0000 0.0000 11.6200
#
#
#
# Elastic Compliance Matrix: (Units=1/GPa)
#
#
# Indices 1 2 3 4 5 6 
#
# 1 0.017447 -0.004693 -0.004110 0.000000 0.000000 0.000000
# 2 -0.004693 0.017448 -0.004110 0.000000 0.000000 0.000000
# 3 -0.004110 -0.004110 0.009536 0.000000 0.000000 0.000000
# 4 0.000000 0.000000 0.000000 0.035529 0.000000 0.000000
# 5 0.000000 0.000000 0.000000 0.000000 0.035529 0.000000
# 6 0.000000 0.000000 0.000000 0.000000 0.000000 0.086058
#
#
# Mechanical properties :
#
#
# Convention : Reuss Voigt Hill
#
# Bulk Modulus (GPa) = 53.75224 61.05743 57.40484
# Shear Modulus (GPa) = 21.40640 25.15919 23.28279
#
# Velocity S-wave (km/s) = 3.25724 3.53123 3.39700
# Velocity P-wave (km/s) = 6.38648 6.84747 6.62099
#
# Compressibility (1/GPa) = 0.01860388
#
# Stress axis : x y z
#
# Youngs Moduli (GPa) = 57.31664 57.31329 104.87055
#
# Poissons Ratio (x) = 0.26897 0.43101
# Poissons Ratio (y) = 0.26898 0.43107
# Poissons Ratio (z) = 0.23557 0.23559
#
# Static dielectric constant tensor:
#      x y z
#    x 3.387040 0.000000 0.000000 
#    y 0.000000 3.387040 0.000000 
#    z 0.000000 0.000000 4.190850 
# 
# 
# High freq. dielectric constant tensor:
#      x y z
#    x 1.760830 0.000000 0.000000 
#    y 0.000000 1.760830 0.000000 
#    z 0.000000 0.000000 1.811210 
# 
# From -- ./inp_files/1375.got.cif
#   From: 2010.03.12/outbox.cif.g09.slc.cpg/sg124_1_cif.got.tgz:1375.got - 2010.04.06 16:38:57.
