data_PCOD8313477
_publ_section_title
;
Structure prediction by ZEFSAII (Michael W. Deem and Ramdas Pophale) SiO2 
 PCOD8313477
Probable space group: P 4/N B M
;
_chemical_formula_sum "Si O2"
_cell_formula_units_Z 128
_cell_length_a 23.646558
_cell_length_b 23.646558
_cell_length_c 11.961686
_cell_angle_alpha 90.000000
_cell_angle_beta 90.000000
_cell_angle_gamma 90.000000
_cell_volume 6688.492818
_symmetry_space_group_name_H-M "P 4/N B M"
_symmetry_group_IT_number 125
_space_group.IT_coordinate_system_code '2'
_symmetry_cell_setting 'tetragonal'
loop_
_space_group_symop_operation_xyz
x,y,z
1/2-y,x,z
1/2-x,1/2-y,z
y,1/2-x,z
x,1/2-y,-z
1/2-x,y,-z
y,x,-z
1/2-y,1/2-x,-z
-x,-y,-z
1/2+y,-x,-z
1/2+x,1/2+y,-z
-y,1/2+x,-z
-x,1/2+y,z
1/2+x,-y,z
-y,-x,z
1/2+y,1/2+x,z
loop_
_atom_site_type_symbol
_atom_site_label
_atom_site_fract_x
_atom_site_fract_y
_atom_site_fract_z
Si Si1 0.083859 0.008200 0.077735
Si Si2 0.548808 0.189296 0.012586
Si Si3 0.114685 0.976570 0.419256
Si Si4 0.111155 0.979645 0.675422
Si Si5 0.094719 0.685430 0.740986
Si Si6 0.105314 0.084217 0.289032
Si Si7 0.309034 0.602626 0.787080
Si Si8 0.812343 0.818924 0.631038
O O1 0.110837 0.044080 0.179720
O O2 0.045583 0.045583 0.000000
O O3 0.046738 0.953263 0.119294
O O4 0.135416 0.991398 0.994418
O O5 0.599460 0.194410 0.922006
O O6 0.516016 0.250000 0.000000
O O7 0.573853 0.176285 0.133776
O O8 0.056342 0.943659 0.389539
O O9 0.129649 0.969616 0.548277
O O10 0.166237 0.952957 0.346027
O O11 0.108790 0.043214 0.396228
O O12 0.050392 0.949609 0.699226
O O13 0.159826 0.954181 0.751423
O O14 0.111765 0.044130 0.711091
O O15 0.152044 0.652044 0.718068
O O16 0.107499 0.750715 0.721622
O O17 0.151805 0.134721 0.297496
O O18 0.342367 0.657634 0.748412
O O19 0.746065 0.828948 0.660612
O O20 0.826290 0.826290 0.500000
#
# Coordination Sequence:
#
# PCOD8313477 Si02
#       8
#    16  16  16  16  16  16  16  16
#     4  11  22  37  58  86 120 154 188 233 292 357
#     4  10  20  37  58  79 109 150 192 235 287 341
#     4  10  20  34  53  79 115 150 179 222 284 345
#     4  10  21  35  51  80 118 147 177 224 284 346
#     4  10  20  35  56  79 107 148 192 234 282 338
#     4  12  21  34  60  89 111 143 191 234 278 344
#     4  10  21  36  55  79 110 148 188 238 288 329
#     4   9  20  40  61  81 111 151 192 238 290 337
#
# _framework density 19.137346000000001
#
# number of rings (size 3 to 8) (size 9 to 14) (size 15 to 20)
#    0.000    1.750    1.250    4.500    0.000    4.750 
#    2.250    0.000    0.000    2.250    0.000    4.375 
#    0.000    0.000    0.000    0.000    0.000    0.000 
#
# Total GULP energy -1586574.844677 kJ/mol
# GULP energy per Si atom -12395.115974 kJ/mol
# Density = 1.909379 g / cm^3
# Si number density = 19.137346 Si / 1000 Ang^3
#
#
#
# Elastic Constant Matrix: (Units=GPa)
#
#
# Indices 1 2 3 4 5 6 
#
# 1 99.8656 73.7403 11.3854 0.0000 0.0000 0.0000
# 2 73.7403 99.8656 11.3854 0.0000 0.0000 0.0000
# 3 11.3854 11.3854 36.6876 0.0000 0.0000 0.0000
# 4 0.0000 0.0000 0.0000 15.6511 0.0000 0.0000
# 5 0.0000 0.0000 0.0000 0.0000 15.6511 0.0000
# 6 0.0000 0.0000 0.0000 0.0000 0.0000 20.6195
#
#
#
# Elastic Compliance Matrix: (Units=1/GPa)
#
#
# Indices 1 2 3 4 5 6 
#
# 1 0.022141 -0.016136 -0.001863 0.000000 0.000000 0.000000
# 2 -0.016136 0.022141 -0.001863 0.000000 0.000000 0.000000
# 3 -0.001863 -0.001863 0.028414 0.000000 0.000000 0.000000
# 4 0.000000 0.000000 0.000000 0.063893 0.000000 0.000000
# 5 0.000000 0.000000 0.000000 0.000000 0.063893 0.000000
# 6 0.000000 0.000000 0.000000 0.000000 0.000000 0.048498
#
#
# Mechanical properties :
#
#
# Convention : Reuss Voigt Hill
#
# Bulk Modulus (GPa) = 30.33132 47.71566 39.02349
# Shear Modulus (GPa) = 16.68359 19.71152 18.19756
#
# Velocity S-wave (km/s) = 2.95580 3.21285 3.08700
# Velocity P-wave (km/s) = 5.24716 6.22500 5.75688
#
# Compressibility (1/GPa) = 0.03296922
#
# Stress axis : x y z
#
# Youngs Moduli (GPa) = 45.16536 45.16536 35.19423
#
# Poissons Ratio (x) = 0.72880 0.06558
# Poissons Ratio (y) = 0.72880 0.06558
# Poissons Ratio (z) = 0.08416 0.08416
#
# Static dielectric constant tensor:
#      x y z
#    x 3.584760 0.000000 0.000000 
#    y 0.000000 3.584760 0.000000 
#    z 0.000000 0.000000 3.767320 
# 
# 
# High freq. dielectric constant tensor:
#      x y z
#    x 1.740030 0.000000 0.000000 
#    y 0.000000 1.740030 0.000000 
#    z 0.000000 0.000000 1.741630 
# 
# From -- ./inp_files/4371.got.cif
#   From: 2010.03.12/outbox.cif.g09.slc.cpg/sg125_3_cif.got.tgz:4371.got - 2010.04.06 16:47:52.
