data_PCOD8313212
_publ_section_title
;
Structure prediction by ZEFSAII (Michael W. Deem and Ramdas Pophale) SiO2 
 PCOD8313212
Probable space group: P 4/M C C
;
_chemical_formula_sum "Si O2"
_cell_formula_units_Z 80
_cell_length_a 12.744876
_cell_length_b 12.744876
_cell_length_c 31.846699
_cell_angle_alpha 90.000000
_cell_angle_beta 90.000000
_cell_angle_gamma 90.000000
_cell_volume 5172.918689
_symmetry_space_group_name_H-M "P 4/M C C"
_symmetry_group_IT_number 124
_symmetry_cell_setting 'tetragonal'
loop_
_space_group_symop_operation_xyz
x,y,z
-y,x,z
-x,-y,z
y,-x,z
x,-y,1/2-z
-x,y,1/2-z
y,x,1/2-z
-y,-x,1/2-z
-x,-y,-z
y,-x,-z
x,y,-z
-y,x,-z
-x,y,1/2+z
x,-y,1/2+z
-y,-x,1/2+z
y,x,1/2+z
loop_
_atom_site_type_symbol
_atom_site_label
_atom_site_fract_x
_atom_site_fract_y
_atom_site_fract_z
Si Si1 0.825751 0.995934 0.659327
Si Si2 0.207964 0.603455 0.548725
Si Si3 0.780684 0.630363 0.451508
Si Si4 0.172475 0.000000 0.750000
Si Si5 0.979473 0.830335 0.000000
Si Si6 0.312876 0.995658 0.920903
O O1 0.766341 0.997563 0.705250
O O2 0.736512 0.990729 0.624874
O O3 0.899577 0.894734 0.654068
O O4 0.181014 0.624300 0.500000
O O5 0.260400 0.488796 0.554328
O O6 0.290301 0.691178 0.565285
O O7 0.099123 0.603139 0.575215
O O8 0.806331 0.654384 0.500000
O O9 0.888910 0.640105 0.426230
O O10 0.102291 0.102291 0.750000
O O11 0.883504 0.908694 0.000000
O O12 0.967440 0.768902 0.042984
#
# Coordination Sequence:
#
# PCOD8313212 Si02
#       6
#    16  16  16   8   8  16
#     4   9  16  25  39  60  87 121 156 185 217 261
#     4  10  20  33  47  63  86 118 155 191 224 259
#     4  10  20  33  47  63  86 118 155 191 224 259
#     4   7  12  24  38  54  81 116 154 190 217 251
#     4  11  20  26  35  56  90 126 151 171 200 250
#     4  12  19  28  44  64  92 117 144 181 223 270
#
# _framework density 15.465157
#
# number of rings (size 3 to 8) (size 9 to 14) (size 15 to 20)
#    0.000    2.000    2.000    5.400    0.000    3.600 
#    0.000    2.000    0.000    0.000    0.000    2.800 
#    0.000    0.000    0.000    0.000    0.000   19.600 
#
# Total GULP energy -991329.279037 kJ/mol
# GULP energy per Si atom -12391.615988 kJ/mol
# Density = 1.542996 g / cm^3
# Si number density = 15.465157 Si / 1000 Ang^3
#
#
#
# Elastic Constant Matrix: (Units=GPa)
#
#
# Indices 1 2 3 4 5 6 
#
# 1 70.4954 24.2498 21.9132 0.0000 0.0000 0.0000
# 2 24.2498 70.4954 21.9132 0.0000 0.0000 0.0000
# 3 21.9132 21.9132 99.2931 0.0000 0.0000 0.0000
# 4 0.0000 0.0000 0.0000 6013.1105 0.0000 0.0000
# 5 0.0000 0.0000 0.0000 0.0000 6013.1106 0.0000
# 6 0.0000 0.0000 0.0000 0.0000 0.0000 16.3802
#
#
#
# Elastic Compliance Matrix: (Units=1/GPa)
#
#
# Indices 1 2 3 4 5 6 
#
# 1 0.016689 -0.004935 -0.002594 0.000000 0.000000 0.000000
# 2 -0.004935 0.016689 -0.002594 0.000000 0.000000 0.000000
# 3 -0.002594 -0.002594 0.011216 0.000000 0.000000 0.000000
# 4 0.000000 0.000000 0.000000 0.000166 0.000000 0.000000
# 5 0.000000 0.000000 0.000000 0.000000 0.000166 0.000000
# 6 0.000000 0.000000 0.000000 0.000000 0.000000 0.061049
#
#
# Mechanical properties :
#
#
# Convention : Reuss Voigt Hill
#
# Bulk Modulus (GPa) = 41.06973 41.82623 41.44798
# Shear Modulus (GPa) = 37.21939 2420.00077 1228.61008
#
# Velocity S-wave (km/s) = 4.91110 39.60057 28.21635
# Velocity P-wave (km/s) = 7.66632 46.02222 32.99104
#
# Compressibility (1/GPa) = 0.02434884
#
# Stress axis : x y z
#
# Youngs Moduli (GPa) = 59.91913 59.91913 89.15668
#
# Poissons Ratio (x) = 0.29567 0.23129
# Poissons Ratio (y) = 0.29567 0.23129
# Poissons Ratio (z) = 0.15544 0.15544
#
# Static dielectric constant tensor:
#      x y z
#    x 2.875980 0.000000 0.000000 
#    y 0.000000 2.875980 0.000000 
#    z 0.000000 0.000000 3.049020 
# 
# 
# High freq. dielectric constant tensor:
#      x y z
#    x 1.580270 0.000000 0.000000 
#    y 0.000000 1.580270 0.000000 
#    z 0.000000 0.000000 1.566230 
# 
# From -- ./inp_files/6970.got.cif
#   From: 2010.03.12/outbox.cif.g09.slc.cpg/sg124_4_cif.got.tgz:6970.got - 2010.04.06 16:38:57.
