data_PCOD8313996
_publ_section_title
;
Structure prediction by ZEFSAII (Michael W. Deem and Ramdas Pophale) SiO2 
 PCOD8313996
Probable space group: P 4/M B M
;
_chemical_formula_sum "Si O2"
_cell_formula_units_Z 96
_cell_length_a 17.647141
_cell_length_b 17.647141
_cell_length_c 16.792973
_cell_angle_alpha 90.000000
_cell_angle_beta 90.000000
_cell_angle_gamma 90.000000
_cell_volume 5229.694276
_symmetry_space_group_name_H-M "P 4/M B M"
_symmetry_group_IT_number 127
_symmetry_cell_setting 'tetragonal'
loop_
_space_group_symop_operation_xyz
x,y,z
-y,x,z
-x,-y,z
y,-x,z
1/2+x,1/2-y,-z
1/2-x,1/2+y,-z
1/2+y,1/2+x,-z
1/2-y,1/2-x,-z
-x,-y,-z
y,-x,-z
x,y,-z
-y,x,-z
1/2-x,1/2+y,z
1/2+x,1/2-y,z
1/2-y,1/2-x,z
1/2+y,1/2+x,z
loop_
_atom_site_type_symbol
_atom_site_label
_atom_site_fract_x
_atom_site_fract_y
_atom_site_fract_z
Si Si1 0.273861 0.105823 0.163485
Si Si2 0.564335 0.182686 0.851206
Si Si3 0.665608 0.710776 0.314502
Si Si4 0.562599 0.814694 0.592366
Si Si5 0.801014 0.895845 0.000000
Si Si6 0.216239 0.403616 0.324471
Si Si7 0.928441 0.783032 0.000000
O O1 0.340187 0.159813 0.192625
O O2 0.210736 0.111708 0.234557
O O3 0.241521 0.132641 0.078978
O O4 0.315177 0.025740 0.153479
O O5 0.597028 0.097028 0.864179
O O6 0.597784 0.215870 0.770615
O O7 0.593746 0.234767 0.922817
O O8 0.740529 0.759472 0.295715
O O9 0.618227 0.745027 0.387797
O O10 0.698153 0.628112 0.342265
O O11 0.541776 0.812247 0.500000
O O12 0.605747 0.894254 0.613783
O O13 0.486347 0.802912 0.642169
O O14 0.884210 0.861546 0.000000
O O15 0.808816 0.985315 0.000000
O O16 0.151621 0.348380 0.360275
#
# Coordination Sequence:
#
# PCOD8313996 Si02
#       7
#    16  16  16  16   8  16   8
#     4  10  19  33  53  78 109 144 180 216 260 318
#     4  10  20  33  52  80 111 143 177 219 270 320
#     4   9  18  34  55  78 106 141 181 222 262 317
#     4  10  21  37  56  80 111 143 175 222 282 334
#     4  10  21  34  52  76 104 140 181 226 274 318
#     4  10  20  34  56  83 109 142 182 221 269 325
#     4  10  21  36  52  76 108 140 181 230 274 324
#
# _framework density 18.356714
#
# number of rings (size 3 to 8) (size 9 to 14) (size 15 to 20)
#    0.000    2.167    1.667    1.500    0.000    4.500 
#    0.000    4.167    0.000    3.500    0.000    1.167 
#    0.000    0.000    0.000    0.000    0.000    0.000 
#
# Total GULP energy -1189564.775455 kJ/mol
# GULP energy per Si atom -12391.299744 kJ/mol
# Density = 1.831493 g / cm^3
# Si number density = 18.356714 Si / 1000 Ang^3
#
#
#
# Elastic Constant Matrix: (Units=GPa)
#
#
# Indices 1 2 3 4 5 6 
#
# 1 90.2706 71.1597 35.6582 0.0000 0.0000 0.0000
# 2 71.1597 90.2706 35.6582 0.0000 0.0000 0.0000
# 3 35.6582 35.6582 92.7545 0.0000 0.0000 0.0000
# 4 0.0000 0.0000 0.0000 16.6112 0.0000 0.0000
# 5 0.0000 0.0000 0.0000 0.0000 16.6112 0.0000
# 6 0.0000 0.0000 0.0000 0.0000 0.0000 31.6159
#
#
#
# Elastic Compliance Matrix: (Units=1/GPa)
#
#
# Indices 1 2 3 4 5 6 
#
# 1 0.029894 -0.022432 -0.002869 0.000000 0.000000 0.000000
# 2 -0.022432 0.029894 -0.002869 0.000000 0.000000 0.000000
# 3 -0.002869 -0.002869 0.012987 0.000000 0.000000 0.000000
# 4 0.000000 0.000000 0.000000 0.060200 0.000000 0.000000
# 5 0.000000 0.000000 0.000000 0.000000 0.060200 0.000000
# 6 0.000000 0.000000 0.000000 0.000000 0.000000 0.031630
#
#
# Mechanical properties :
#
#
# Convention : Reuss Voigt Hill
#
# Bulk Modulus (GPa) = 60.84179 62.02755 61.43467
# Shear Modulus (GPa) = 17.44454 21.68896 19.56675
#
# Velocity S-wave (km/s) = 3.08605 3.44106 3.26838
# Velocity P-wave (km/s) = 6.77602 7.04637 6.91252
#
# Compressibility (1/GPa) = 0.01643607
#
# Stress axis : x y z
#
# Youngs Moduli (GPa) = 33.45155 33.45155 77.00147
#
# Poissons Ratio (x) = 0.75039 0.22089
# Poissons Ratio (y) = 0.75039 0.22089
# Poissons Ratio (z) = 0.09596 0.09596
#
# Static dielectric constant tensor:
#      x y z
#    x 3.314610 0.000000 0.000000 
#    y 0.000000 3.314610 0.000000 
#    z 0.000000 0.000000 3.510570 
# 
# 
# High freq. dielectric constant tensor:
#      x y z
#    x 1.698060 0.000000 0.000000 
#    y 0.000000 1.698060 0.000000 
#    z 0.000000 0.000000 1.720190 
# 
# From -- ./inp_files/5154.got.cif
#   From: 2010.03.12/outbox.cif.g09.slc.cpg/sg127_3_cif.got.tgz:5154.got - 2010.04.06 17:03:15.
