data_PCOD8313243
_publ_section_title
;
Structure prediction by ZEFSAII (Michael W. Deem and Ramdas Pophale) SiO2 
 PCOD8313243
Probable space group: P 4/M C C
;
_chemical_formula_sum "Si O2"
_cell_formula_units_Z 96
_cell_length_a 24.101674
_cell_length_b 24.101674
_cell_length_c 8.644048
_cell_angle_alpha 90.000000
_cell_angle_beta 90.000000
_cell_angle_gamma 90.000000
_cell_volume 5021.247004
_symmetry_space_group_name_H-M "P 4/M C C"
_symmetry_group_IT_number 124
_symmetry_cell_setting 'tetragonal'
loop_
_space_group_symop_operation_xyz
x,y,z
-y,x,z
-x,-y,z
y,-x,z
x,-y,1/2-z
-x,y,1/2-z
y,x,1/2-z
-y,-x,1/2-z
-x,-y,-z
y,-x,-z
x,y,-z
-y,x,-z
-x,y,1/2+z
x,-y,1/2+z
-y,-x,1/2+z
y,x,1/2+z
loop_
_atom_site_type_symbol
_atom_site_label
_atom_site_fract_x
_atom_site_fract_y
_atom_site_fract_z
Si Si1 0.146772 0.230498 0.816227
Si Si2 0.060528 0.443316 0.317992
Si Si3 0.556277 0.765762 0.319035
Si Si4 0.640792 0.443051 0.682738
Si Si5 0.358699 0.857115 0.818413
Si Si6 0.938406 0.146697 0.815423
O O1 0.202533 0.202533 0.750000
O O2 0.147148 0.294815 0.767558
O O3 0.092858 0.202057 0.741232
O O4 0.144872 0.222355 0.000000
O O5 0.087775 0.500000 0.250000
O O6 0.057495 0.449318 0.500000
O O7 0.093717 0.388317 0.272793
O O8 0.000000 0.435524 0.250000
O O9 0.500000 0.792250 0.250000
O O10 0.548222 0.765738 0.500000
O O11 0.564518 0.703557 0.256655
O O12 0.610376 0.800422 0.270079
O O13 0.615607 0.500000 0.750000
O O14 0.608436 0.391565 0.750000
O O15 0.636106 0.443879 0.500000
O O16 0.363912 0.868956 0.000000
O O17 0.907493 0.092508 0.750000
O O18 0.000000 0.147723 0.750000
O O19 0.939063 0.144598 0.000000
#
# Coordination Sequence:
#
# PCOD8313243 Si02
#       6
#    16  16  16  16  16  16
#     4  10  21  38  58  81 113 150 187 230 277 325
#     4  11  22  37  57  81 112 147 183 227 278 330
#     4   9  19  35  54  77 106 139 175 220 271 322
#     4  10  20  35  54  77 105 137 174 216 266 322
#     4  10  21  37  57  82 111 145 187 230 273 326
#     4  11  22  39  62  88 118 151 188 228 274 324
#
# _framework density 19.118756999999999
#
# number of rings (size 3 to 8) (size 9 to 14) (size 15 to 20)
#    0.000    1.833    0.000    6.000    0.000    5.667 
#    0.000    1.667    0.000    0.000    0.000    0.000 
#    0.000    0.000    0.000    0.000    0.000    0.000 
#
# Total GULP energy -1190576.495166 kJ/mol
# GULP energy per Si atom -12401.838491 kJ/mol
# Density = 1.907524 g / cm^3
# Si number density = 19.118757 Si / 1000 Ang^3
#
#
#
# Elastic Constant Matrix: (Units=GPa)
#
#
# Indices 1 2 3 4 5 6 
#
# 1 154.3567 82.3718 60.9127 0.0000 0.0000 0.0000
# 2 82.3718 154.3613 60.9129 0.0000 0.0000 0.0000
# 3 60.9127 60.9129 113.4942 0.0000 0.0000 0.0000
# 4 0.0000 0.0000 0.0000 31.7562 0.0000 0.0000
# 5 0.0000 0.0000 0.0000 0.0000 31.7560 0.0000
# 6 0.0000 0.0000 0.0000 0.0000 0.0000 27.6031
#
#
#
# Elastic Compliance Matrix: (Units=1/GPa)
#
#
# Indices 1 2 3 4 5 6 
#
# 1 0.009864 -0.004028 -0.003132 0.000000 0.000000 0.000000
# 2 -0.004028 0.009864 -0.003132 0.000000 0.000000 0.000000
# 3 -0.003132 -0.003132 0.012173 0.000000 0.000000 0.000000
# 4 0.000000 0.000000 0.000000 0.031490 0.000000 0.000000
# 5 0.000000 0.000000 0.000000 0.000000 0.031490 0.000000
# 6 0.000000 0.000000 0.000000 0.000000 0.000000 0.036228
#
#
# Mechanical properties :
#
#
# Convention : Reuss Voigt Hill
#
# Bulk Modulus (GPa) = 88.36740 92.28969 90.32855
# Shear Modulus (GPa) = 32.16156 32.75737 32.45946
#
# Velocity S-wave (km/s) = 4.10591 4.14377 4.12488
# Velocity P-wave (km/s) = 8.29449 8.44222 8.36868
#
# Compressibility (1/GPa) = 0.01131639
#
# Stress axis : x y z
#
# Youngs Moduli (GPa) = 101.37950 101.38320 82.14740
#
# Poissons Ratio (x) = 0.40833 0.25732
# Poissons Ratio (y) = 0.40832 0.25730
# Poissons Ratio (z) = 0.31756 0.31755
#
# Static dielectric constant tensor:
#      x y z
#    x 3.731790 0.000000 0.000000 
#    y 0.000000 3.731940 0.000000 
#    z 0.000000 0.000000 3.561000 
# 
# 
# High freq. dielectric constant tensor:
#      x y z
#    x 1.747360 0.000000 0.000000 
#    y 0.000000 1.747360 0.000000 
#    z 0.000000 0.000000 1.753030 
# 
# From -- ./inp_files/1330.got.cif
#   From: 2010.03.12/outbox.cif.g09.slc.cpg/sg124_1_cif.got.tgz:1330.got - 2010.04.06 16:38:57.
