data_PCOD8313258
_publ_section_title
;
Structure prediction by ZEFSAII (Michael W. Deem and Ramdas Pophale) SiO2 
 PCOD8313258
Probable space group: P 4/M C C
;
_chemical_formula_sum "Si O2"
_cell_formula_units_Z 112
_cell_length_a 15.290426
_cell_length_b 15.290426
_cell_length_c 27.245771
_cell_angle_alpha 90.000000
_cell_angle_beta 90.000000
_cell_angle_gamma 90.000000
_cell_volume 6369.982990
_symmetry_space_group_name_H-M "P 4/M C C"
_symmetry_group_IT_number 124
_symmetry_cell_setting 'tetragonal'
loop_
_space_group_symop_operation_xyz
x,y,z
-y,x,z
-x,-y,z
y,-x,z
x,-y,1/2-z
-x,y,1/2-z
y,x,1/2-z
-y,-x,1/2-z
-x,-y,-z
y,-x,-z
x,y,-z
-y,x,-z
-x,y,1/2+z
x,-y,1/2+z
-y,-x,1/2+z
y,x,1/2+z
loop_
_atom_site_type_symbol
_atom_site_label
_atom_site_fract_x
_atom_site_fract_y
_atom_site_fract_z
Si Si1 0.162926 0.612050 0.154729
Si Si2 0.617829 0.563605 0.443013
Si Si3 0.399987 0.747122 0.754246
Si Si4 0.004489 0.726917 0.000000
Si Si5 0.810714 0.416478 0.360473
Si Si6 0.994367 0.599716 0.093891
Si Si7 0.183379 0.189395 0.000000
Si Si8 0.711763 0.725353 0.086767
O O1 0.178645 0.618422 0.213015
O O2 0.203159 0.520386 0.135225
O O3 0.208966 0.697322 0.131709
O O4 0.062726 0.616054 0.138021
O O5 0.534277 0.617398 0.420505
O O6 0.604393 0.554711 0.500000
O O7 0.708326 0.614618 0.434319
O O8 0.500000 0.712546 0.750000
O O9 0.336609 0.663392 0.750000
O O10 0.383575 0.796830 0.805045
O O11 0.086678 0.793373 0.000000
O O12 0.007925 0.665325 0.951845
O O13 0.920096 0.790457 0.000000
O O14 0.904194 0.383225 0.378883
O O15 0.743404 0.369065 0.396075
O O16 0.000000 0.500000 0.073755
O O17 0.223257 0.233695 0.952143
#
# Coordination Sequence:
#
# PCOD8313258 Si02
#       8
#    16  16  16   8  16  16   8  16
#     4  10  21  35  56  81 109 145 184 230 280 327
#     4   9  18  30  43  66 105 146 185 226 262 303
#     4  10  20  36  55  79 111 146 190 232 273 324
#     4  12  23  43  56  88 112 144 184 221 277 336
#     4  10  21  35  56  81 109 145 184 230 280 327
#     4  10  21  37  57  84 117 144 176 228 283 329
#     4  12  26  37  62  81 110 142 184 230 276 342
#     4  12  19  35  53  79 106 147 187 225 263 332
#
# _framework density 17.582464000000002
#
# number of rings (size 3 to 8) (size 9 to 14) (size 15 to 20)
#    0.000    1.571    5.000    1.500    0.000    0.857 
#    0.000    2.857    0.000    0.000    0.000    0.000 
#    0.000    0.000    0.000    5.143    0.000    0.000 
#
# Total GULP energy -1387751.755268 kJ/mol
# GULP energy per Si atom -12390.640672 kJ/mol
# Density = 1.754245 g / cm^3
# Si number density = 17.582464 Si / 1000 Ang^3
#
#
#
# Elastic Constant Matrix: (Units=GPa)
#
#
# Indices 1 2 3 4 5 6 
#
# 1 72.1627 36.1685 45.9526 0.0000 0.0000 0.0000
# 2 36.1685 72.1632 45.9527 0.0000 0.0000 0.0000
# 3 45.9526 45.9527 104.5043 0.0000 0.0000 0.0000
# 4 0.0000 0.0000 0.0000 23.5324 0.0000 0.0000
# 5 0.0000 0.0000 0.0000 0.0000 23.5322 0.0000
# 6 0.0000 0.0000 0.0000 0.0000 0.0000 26.1204
#
#
#
# Elastic Compliance Matrix: (Units=1/GPa)
#
#
# Indices 1 2 3 4 5 6 
#
# 1 0.021253 -0.006529 -0.006474 0.000000 0.000000 0.000000
# 2 -0.006529 0.021253 -0.006474 0.000000 0.000000 0.000000
# 3 -0.006474 -0.006474 0.015263 0.000000 0.000000 0.000000
# 4 0.000000 0.000000 0.000000 0.042495 0.000000 0.000000
# 5 0.000000 0.000000 0.000000 0.000000 0.042495 0.000000
# 6 0.000000 0.000000 0.000000 0.000000 0.000000 0.038284
#
#
# Mechanical properties :
#
#
# Convention : Reuss Voigt Hill
#
# Bulk Modulus (GPa) = 53.15539 56.10865 54.63202
# Shear Modulus (GPa) = 22.09765 22.68741 22.39253
#
# Velocity S-wave (km/s) = 3.54898 3.59603 3.57259
# Velocity P-wave (km/s) = 6.86232 7.01590 6.93954
#
# Compressibility (1/GPa) = 0.01881277
#
# Stress axis : x y z
#
# Youngs Moduli (GPa) = 47.05247 47.05288 65.51932
#
# Poissons Ratio (x) = 0.30722 0.42419
# Poissons Ratio (y) = 0.30722 0.42418
# Poissons Ratio (z) = 0.30463 0.30463
#
# Static dielectric constant tensor:
#      x y z
#    x 3.250010 0.000000 0.000000 
#    y 0.000000 3.250010 0.000000 
#    z 0.000000 0.000000 3.272430 
# 
# 
# High freq. dielectric constant tensor:
#      x y z
#    x 1.673180 0.000000 0.000000 
#    y 0.000000 1.673180 0.000000 
#    z 0.000000 0.000000 1.679290 
# 
# From -- ./inp_files/6672.got.cif
#   From: 2010.03.12/outbox.cif.g09.slc.cpg/sg124_4_cif.got.tgz:6672.got - 2010.04.06 16:38:57.
