data_PCOD8313343
_publ_section_title
;
Structure prediction by ZEFSAII (Michael W. Deem and Ramdas Pophale) SiO2 
 PCOD8313343
Probable space group: P 4/M C C
;
_chemical_formula_sum "Si O2"
_cell_formula_units_Z 88
_cell_length_a 11.540799
_cell_length_b 11.540799
_cell_length_c 31.115260
_cell_angle_alpha 90.000000
_cell_angle_beta 90.000000
_cell_angle_gamma 90.000000
_cell_volume 4144.242773
_symmetry_space_group_name_H-M "P 4/M C C"
_symmetry_group_IT_number 124
_symmetry_cell_setting 'tetragonal'
loop_
_space_group_symop_operation_xyz
x,y,z
-y,x,z
-x,-y,z
y,-x,z
x,-y,1/2-z
-x,y,1/2-z
y,x,1/2-z
-y,-x,1/2-z
-x,-y,-z
y,-x,-z
x,y,-z
-y,x,-z
-x,y,1/2+z
x,-y,1/2+z
-y,-x,1/2+z
y,x,1/2+z
loop_
_atom_site_type_symbol
_atom_site_label
_atom_site_fract_x
_atom_site_fract_y
_atom_site_fract_z
Si Si1 0.250992 0.135041 0.906307
Si Si2 0.442917 0.315172 0.314710
Si Si3 0.687911 0.900806 0.550095
Si Si4 0.731306 0.731306 0.750000
Si Si5 0.129051 0.495955 0.118754
Si Si6 0.153049 0.892612 0.314639
O O1 0.207179 0.229403 0.940128
O O2 0.375984 0.175777 0.889515
O O3 0.167685 0.126179 0.865286
O O4 0.251365 0.014564 0.931341
O O5 0.574971 0.355994 0.317681
O O6 0.600961 0.256047 0.229825
O O7 0.423965 0.219298 0.351843
O O8 0.664320 0.912729 0.500000
O O9 0.565019 0.880585 0.572658
O O10 0.826521 0.748029 0.712440
O O11 0.000000 0.500000 0.140342
O O12 0.027847 0.840361 0.302315
#
# Coordination Sequence:
#
# PCOD8313343 Si02
#       6
#    16  16  16   8  16  16
#     4  11  22  41  66  94 130 173 221 269 332 405
#     4  11  24  45  69  96 130 176 229 279 334 396
#     4  11  23  39  63  98 134 173 221 273 330 400
#     4  12  24  38  66  96 128 168 220 274 334 396
#     4  10  23  41  67  96 132 176 224 270 338 399
#     4  11  23  42  65  93 137 179 219 272 343 415
#
# _framework density 21.234279000000001
#
# number of rings (size 3 to 8) (size 9 to 14) (size 15 to 20)
#    0.000    1.091    1.818    4.909    2.545    5.818 
#    3.273    0.909    0.000    0.000    0.000    3.818 
#    0.000    0.000    0.000    0.000    0.000    0.000 
#
# Total GULP energy -1091097.606199 kJ/mol
# GULP energy per Si atom -12398.836434 kJ/mol
# Density = 2.118595 g / cm^3
# Si number density = 21.234279 Si / 1000 Ang^3
#
#
#
# Elastic Constant Matrix: (Units=GPa)
#
#
# Indices 1 2 3 4 5 6 
#
# 1 106.8875 59.7854 57.0525 0.0000 0.0000 0.0000
# 2 59.7854 106.8875 57.0525 0.0000 0.0000 0.0000
# 3 57.0525 57.0525 147.8531 0.0000 0.0000 0.0000
# 4 0.0000 0.0000 0.0000 29.0334 0.0000 0.0000
# 5 0.0000 0.0000 0.0000 0.0000 29.0334 0.0000
# 6 0.0000 0.0000 0.0000 0.0000 0.0000 38.8574
#
#
#
# Elastic Compliance Matrix: (Units=1/GPa)
#
#
# Indices 1 2 3 4 5 6 
#
# 1 0.014692 -0.006538 -0.003146 0.000000 0.000000 0.000000
# 2 -0.006538 0.014692 -0.003146 0.000000 0.000000 0.000000
# 3 -0.003146 -0.003146 0.009192 0.000000 0.000000 0.000000
# 4 0.000000 0.000000 0.000000 0.034443 0.000000 0.000000
# 5 0.000000 0.000000 0.000000 0.000000 0.034443 0.000000
# 6 0.000000 0.000000 0.000000 0.000000 0.000000 0.025735
#
#
# Mechanical properties :
#
#
# Convention : Reuss Voigt Hill
#
# Bulk Modulus (GPa) = 77.43605 78.82322 78.12963
# Shear Modulus (GPa) = 30.64406 31.90068 31.27237
#
# Velocity S-wave (km/s) = 3.80299 3.88018 3.84178
# Velocity P-wave (km/s) = 7.47197 7.56807 7.52017
#
# Compressibility (1/GPa) = 0.01291388
#
# Stress axis : x y z
#
# Youngs Moduli (GPa) = 68.06374 68.06374 108.79462
#
# Poissons Ratio (x) = 0.44502 0.34230
# Poissons Ratio (y) = 0.44502 0.34230
# Poissons Ratio (z) = 0.21415 0.21415
#
# Static dielectric constant tensor:
#      x y z
#    x 3.905190 0.000000 0.000000 
#    y 0.000000 3.905190 0.000000 
#    z 0.000000 0.000000 3.735910 
# 
# 
# High freq. dielectric constant tensor:
#      x y z
#    x 1.837530 0.000000 0.000000 
#    y 0.000000 1.837530 0.000000 
#    z 0.000000 0.000000 1.828710 
# 
# From -- ./inp_files/7071.got.cif
#   From: 2010.03.12/outbox.cif.g09.slc.cpg/sg124_4_cif.got.tgz:7071.got - 2010.04.06 16:38:57.
