data_PCOD8313541
_publ_section_title
;
Structure prediction by ZEFSAII (Michael W. Deem and Ramdas Pophale) SiO2 
 PCOD8313541
Probable space group: P 4/N B M
;
_chemical_formula_sum "Si O2"
_cell_formula_units_Z 96
_cell_length_a 19.019293
_cell_length_b 19.019293
_cell_length_c 14.037038
_cell_angle_alpha 90.000000
_cell_angle_beta 90.000000
_cell_angle_gamma 90.000000
_cell_volume 5077.666973
_symmetry_space_group_name_H-M "P 4/N B M"
_symmetry_group_IT_number 125
_space_group.IT_coordinate_system_code '2'
_symmetry_cell_setting 'tetragonal'
loop_
_space_group_symop_operation_xyz
x,y,z
1/2-y,x,z
1/2-x,1/2-y,z
y,1/2-x,z
x,1/2-y,-z
1/2-x,y,-z
y,x,-z
1/2-y,1/2-x,-z
-x,-y,-z
1/2+y,-x,-z
1/2+x,1/2+y,-z
-y,1/2+x,-z
-x,1/2+y,z
1/2+x,-y,z
-y,-x,z
1/2+y,1/2+x,z
loop_
_atom_site_type_symbol
_atom_site_label
_atom_site_fract_x
_atom_site_fract_y
_atom_site_fract_z
Si Si1 0.796080 0.856894 0.266715
Si Si2 0.635926 0.251154 0.265779
Si Si3 0.181288 0.084874 0.942784
Si Si4 0.307464 0.921741 0.074725
Si Si5 0.423179 0.811483 0.554501
Si Si6 0.680027 0.575824 0.459567
O O1 0.713687 0.841423 0.280171
O O2 0.814108 0.886786 0.163828
O O3 0.819259 0.915680 0.344832
O O4 0.681560 0.318441 0.304292
O O5 0.690213 0.190213 0.235432
O O6 0.588529 0.274789 0.178365
O O7 0.577781 0.218140 0.337709
O O8 0.171989 0.001835 0.941909
O O9 0.250000 0.109380 0.000000
O O10 0.114834 0.114834 0.000000
O O11 0.377794 0.877794 0.060036
O O12 0.250000 0.895207 0.000000
O O13 0.380024 0.750000 0.500000
O O14 0.386111 0.886111 0.547289
O O15 0.497049 0.820130 0.500737
O O16 0.750000 0.614428 0.500000
O O17 0.610416 0.610416 0.500000
#
# Coordination Sequence:
#
# PCOD8313541 Si02
#       6
#    16  16  16  16  16  16
#     4  11  22  37  64  89 117 156 201 254 303 354
#     4   9  18  35  61  90 117 153 206 257 301 354
#     4  11  23  40  61  91 122 153 198 247 302 366
#     4  10  22  38  62  90 122 160 199 248 305 364
#     4  10  22  38  59  85 118 157 198 247 300 355
#     4  11  23  38  58  87 120 156 198 244 296 359
#
# _framework density 18.906320000000001
#
# number of rings (size 3 to 8) (size 9 to 14) (size 15 to 20)
#    0.000    1.667    3.333    1.000    4.667    2.667 
#    0.000    0.000    0.000    0.000    0.000    0.000 
#    0.000    0.000    0.000    0.000    0.000    0.000 
#
# Total GULP energy -1189654.007019 kJ/mol
# GULP energy per Si atom -12392.229240 kJ/mol
# Density = 1.886329 g / cm^3
# Si number density = 18.906320 Si / 1000 Ang^3
#
#
#
# Elastic Constant Matrix: (Units=GPa)
#
#
# Indices 1 2 3 4 5 6 
#
# 1 98.8742 52.1996 69.2316 0.0000 0.0000 0.0000
# 2 52.1996 98.8742 69.2316 0.0000 0.0000 0.0000
# 3 69.2316 69.2316 152.3091 0.0000 0.0000 0.0000
# 4 0.0000 0.0000 0.0000 32.0963 0.0000 0.0000
# 5 0.0000 0.0000 0.0000 0.0000 32.0963 0.0000
# 6 0.0000 0.0000 0.0000 0.0000 0.0000 17.5391
#
#
#
# Elastic Compliance Matrix: (Units=1/GPa)
#
#
# Indices 1 2 3 4 5 6 
#
# 1 0.016386 -0.005039 -0.005157 0.000000 0.000000 0.000000
# 2 -0.005039 0.016386 -0.005157 0.000000 0.000000 0.000000
# 3 -0.005157 -0.005157 0.011254 0.000000 0.000000 0.000000
# 4 0.000000 0.000000 0.000000 0.031156 0.000000 0.000000
# 5 0.000000 0.000000 0.000000 0.000000 0.031156 0.000000
# 6 0.000000 0.000000 0.000000 0.000000 0.000000 0.057015
#
#
# Mechanical properties :
#
#
# Convention : Reuss Voigt Hill
#
# Bulk Modulus (GPa) = 75.09209 81.26478 78.17844
# Shear Modulus (GPa) = 25.18889 26.97266 26.08077
#
# Velocity S-wave (km/s) = 3.65403 3.78120 3.71816
# Velocity P-wave (km/s) = 7.58991 7.88286 7.73777
#
# Compressibility (1/GPa) = 0.01331698
#
# Stress axis : x y z
#
# Youngs Moduli (GPa) = 61.02943 61.02943 88.85645
#
# Poissons Ratio (x) = 0.30755 0.45826
# Poissons Ratio (y) = 0.30755 0.45826
# Poissons Ratio (z) = 0.31475 0.31475
#
# Static dielectric constant tensor:
#      x y z
#    x 3.416770 0.000000 0.000000 
#    y 0.000000 3.416770 0.000000 
#    z 0.000000 0.000000 3.625750 
# 
# 
# High freq. dielectric constant tensor:
#      x y z
#    x 1.728960 0.000000 0.000000 
#    y 0.000000 1.728960 0.000000 
#    z 0.000000 0.000000 1.750530 
# 
# From -- ./inp_files/4112.got.cif
#   From: 2010.03.12/outbox.cif.g09.slc.cpg/sg125_3_cif.got.tgz:4112.got - 2010.04.06 16:47:52.
