data_PCOD8313511
_publ_section_title
;
Structure prediction by ZEFSAII (Michael W. Deem and Ramdas Pophale) SiO2 
 PCOD8313511
Probable space group: P 4/N B M
;
_chemical_formula_sum "Si O2"
_cell_formula_units_Z 112
_cell_length_a 14.087894
_cell_length_b 14.087894
_cell_length_c 28.379831
_cell_angle_alpha 90.000000
_cell_angle_beta 90.000000
_cell_angle_gamma 90.000000
_cell_volume 5632.509793
_symmetry_space_group_name_H-M "P 4/N B M"
_symmetry_group_IT_number 125
_space_group.IT_coordinate_system_code '2'
_symmetry_cell_setting 'tetragonal'
loop_
_space_group_symop_operation_xyz
x,y,z
1/2-y,x,z
1/2-x,1/2-y,z
y,1/2-x,z
x,1/2-y,-z
1/2-x,y,-z
y,x,-z
1/2-y,1/2-x,-z
-x,-y,-z
1/2+y,-x,-z
1/2+x,1/2+y,-z
-y,1/2+x,-z
-x,1/2+y,z
1/2+x,-y,z
-y,-x,z
1/2+y,1/2+x,z
loop_
_atom_site_type_symbol
_atom_site_label
_atom_site_fract_x
_atom_site_fract_y
_atom_site_fract_z
Si Si1 0.860292 0.640410 0.050867
Si Si2 0.991080 0.649429 0.475544
Si Si3 0.308680 0.103035 0.378097
Si Si4 0.648373 0.510030 0.280117
Si Si5 0.494342 0.351281 0.873824
Si Si6 0.097116 0.743717 0.051265
Si Si7 0.848731 0.508148 0.231456
O O1 0.881003 0.749556 0.055422
O O2 0.906910 0.585490 0.095212
O O3 0.897626 0.602375 0.000000
O O4 0.011933 0.750000 0.500000
O O5 0.902135 0.597866 0.500000
O O6 0.963436 0.666583 0.421790
O O7 0.085662 0.585662 0.479040
O O8 0.371833 0.197720 0.378513
O O9 0.335059 0.039737 0.333572
O O10 0.584402 0.415599 0.277302
O O11 0.749894 0.486811 0.257186
O O12 0.597643 0.597622 0.254005
O O13 0.581506 0.418495 0.864647
O O14 0.527234 0.261310 0.905160
O O15 0.459869 0.321833 0.821964
O O16 0.180158 0.819842 0.049730
O O17 0.138896 0.638896 0.059089
O O18 0.044351 0.750000 0.000000
O O19 0.914021 0.414021 0.234840
#
# Coordination Sequence:
#
# PCOD8313511 Si02
#       7
#    16  16  16  16  16  16  16
#     4   9  20  37  53  72 104 144 182 219 271 350
#     4  11  23  40  64  97 140 185 227 275 329 384
#     4  11  21  38  68 100 131 173 227 281 327 383
#     4  11  23  43  67  91 129 170 209 271 332 381
#     4  10  21  36  56  84 111 139 184 243 296 356
#     4   8  15  29  49  75 107 141 175 217 279 354
#     4  10  24  42  61  91 124 158 212 266 320 391
#
# _framework density 19.884564000000001
#
# number of rings (size 3 to 8) (size 9 to 14) (size 15 to 20)
#    0.000    2.000    2.857    1.286    4.000    1.714 
#    0.000    2.857    0.000    1.714    0.000    0.000 
#    0.000    0.000    0.000    0.000    0.000    0.000 
#
# Total GULP energy -1387817.794634 kJ/mol
# GULP energy per Si atom -12391.230309 kJ/mol
# Density = 1.983931 g / cm^3
# Si number density = 19.884564 Si / 1000 Ang^3
#
#
#
# Elastic Constant Matrix: (Units=GPa)
#
#
# Indices 1 2 3 4 5 6 
#
# 1 107.5762 40.4979 56.2417 0.0000 0.0000 0.0000
# 2 40.4979 107.5757 56.2415 0.0000 0.0000 0.0000
# 3 56.2417 56.2415 189.8111 0.0000 0.0000 0.0000
# 4 0.0000 0.0000 0.0000 21.7027 0.0000 0.0000
# 5 0.0000 0.0000 0.0000 0.0000 21.7000 0.0000
# 6 0.0000 0.0000 0.0000 0.0000 0.0000 18.8163
#
#
#
# Elastic Compliance Matrix: (Units=1/GPa)
#
#
# Indices 1 2 3 4 5 6 
#
# 1 0.011811 -0.003096 -0.002582 0.000000 0.000000 0.000000
# 2 -0.003096 0.011812 -0.002582 0.000000 0.000000 0.000000
# 3 -0.002582 -0.002582 0.006799 0.000000 0.000000 0.000000
# 4 0.000000 0.000000 0.000000 0.046077 0.000000 0.000000
# 5 0.000000 0.000000 0.000000 0.000000 0.046083 0.000000
# 6 0.000000 0.000000 0.000000 0.000000 0.000000 0.053145
#
#
# Mechanical properties :
#
#
# Convention : Reuss Voigt Hill
#
# Bulk Modulus (GPa) = 71.94479 78.99169 75.46824
# Shear Modulus (GPa) = 25.39584 29.24258 27.31921
#
# Velocity S-wave (km/s) = 3.57762 3.83902 3.71062
# Velocity P-wave (km/s) = 7.30244 7.71117 7.50959
#
# Compressibility (1/GPa) = 0.01389955
#
# Stress axis : x y z
#
# Youngs Moduli (GPa) = 84.66342 84.66304 147.08749
#
# Poissons Ratio (x) = 0.26216 0.37982
# Poissons Ratio (y) = 0.26216 0.37982
# Poissons Ratio (z) = 0.21862 0.21862
#
# Static dielectric constant tensor:
#      x y z
#    x 3.712520 0.000000 0.000000 
#    y 0.000000 3.712530 0.000000 
#    z 0.000000 0.000000 3.888770 
# 
# 
# High freq. dielectric constant tensor:
#      x y z
#    x 1.775560 0.000000 0.000000 
#    y 0.000000 1.775560 0.000000 
#    z 0.000000 0.000000 1.784620 
# 
# From -- ./inp_files/6237.got.cif
#   From: 2010.03.12/outbox.cif.g09.slc.cpg/sg125_4_cif.got.tgz:6237.got - 2010.04.06 16:47:52.
