data_PCOD8313946
_publ_section_title
;
Structure prediction by ZEFSAII (Michael W. Deem and Ramdas Pophale) SiO2 
 PCOD8313946
Probable space group: P 4/M B M
;
_chemical_formula_sum "Si O2"
_cell_formula_units_Z 104
_cell_length_a 26.840797
_cell_length_b 26.840797
_cell_length_c 8.136804
_cell_angle_alpha 90.000000
_cell_angle_beta 90.000000
_cell_angle_gamma 90.000000
_cell_volume 5861.984553
_symmetry_space_group_name_H-M "P 4/M B M"
_symmetry_group_IT_number 127
_symmetry_cell_setting 'tetragonal'
loop_
_space_group_symop_operation_xyz
x,y,z
-y,x,z
-x,-y,z
y,-x,z
1/2+x,1/2-y,-z
1/2-x,1/2+y,-z
1/2+y,1/2+x,-z
1/2-y,1/2-x,-z
-x,-y,-z
y,-x,-z
x,y,-z
-y,x,-z
1/2-x,1/2+y,z
1/2+x,1/2-y,z
1/2-y,1/2-x,z
1/2+y,1/2+x,z
loop_
_atom_site_type_symbol
_atom_site_label
_atom_site_fract_x
_atom_site_fract_y
_atom_site_fract_z
Si Si1 0.370679 0.420820 0.693161
Si Si2 0.628360 0.792714 0.811584
Si Si3 0.499652 0.290632 0.693689
Si Si4 0.816291 0.477333 0.688397
Si Si5 0.565196 0.548688 0.000000
Si Si6 0.577419 0.000058 0.192171
Si Si7 0.189487 0.109765 0.688471
O O1 0.386134 0.432362 0.500000
O O2 0.322305 0.452326 0.749382
O O3 0.359928 0.361879 0.711701
O O4 0.412592 0.432841 0.826625
O O5 0.678131 0.821870 0.756358
O O6 0.582172 0.813398 0.707433
O O7 0.637356 0.733649 0.786051
O O8 0.615809 0.803548 0.000000
O O9 0.499686 0.286974 0.500000
O O10 0.501745 0.234239 0.765779
O O11 0.447721 0.316621 0.751125
O O12 0.820412 0.491155 0.500000
O O13 0.864339 0.501241 0.770849
O O14 0.510065 0.569362 0.000000
O O15 0.549520 0.950481 0.263770
O O16 0.549483 0.049483 0.262965
O O17 0.570893 0.999570 0.000000
O O18 0.206207 0.108870 0.500000
#
# Coordination Sequence:
#
# PCOD8313946 Si02
#       7
#    16  16  16  16   8  16  16
#     4  10  20  37  57  75 105 143 175 217 267 312
#     4  10  20  32  48  72 103 135 164 205 263 315
#     4   8  16  32  50  72  99 127 165 207 254 307
#     4  10  19  31  49  74 102 130 169 215 253 305
#     4  11  24  36  50  80 109 134 178 217 253 318
#     4   9  18  32  48  68  99 137 172 206 252 312
#     4   9  18  32  53  76  97 131 172 209 255 307
#
# _framework density 17.741432
#
# number of rings (size 3 to 8) (size 9 to 14) (size 15 to 20)
#    0.000    2.538    0.000    3.692    1.077    5.538 
#    6.923    1.538    0.000    0.923    0.000    6.462 
#    0.000    0.000    0.000    0.000    0.000    0.000 
#
# Total GULP energy -1288580.079461 kJ/mol
# GULP energy per Si atom -12390.193072 kJ/mol
# Density = 1.770105 g / cm^3
# Si number density = 17.741432 Si / 1000 Ang^3
#
#
#
# Elastic Constant Matrix: (Units=GPa)
#
#
# Indices 1 2 3 4 5 6 
#
# 1 113.3549 42.6002 15.9529 0.0000 0.0000 0.0000
# 2 42.6002 113.3549 15.9529 0.0000 0.0000 0.0000
# 3 15.9529 15.9529 49.8424 0.0000 0.0000 0.0000
# 4 0.0000 0.0000 0.0000 24.5158 0.0000 0.0000
# 5 0.0000 0.0000 0.0000 0.0000 24.5158 0.0000
# 6 0.0000 0.0000 0.0000 0.0000 0.0000 38.1705
#
#
#
# Elastic Compliance Matrix: (Units=1/GPa)
#
#
# Indices 1 2 3 4 5 6 
#
# 1 0.010497 -0.003636 -0.002196 0.000000 0.000000 0.000000
# 2 -0.003636 0.010497 -0.002196 0.000000 0.000000 0.000000
# 3 -0.002196 -0.002196 0.021469 0.000000 0.000000 0.000000
# 4 0.000000 0.000000 0.000000 0.040790 0.000000 0.000000
# 5 0.000000 0.000000 0.000000 0.000000 0.040790 0.000000
# 6 0.000000 0.000000 0.000000 0.000000 0.000000 0.026198
#
#
# Mechanical properties :
#
#
# Convention : Reuss Voigt Hill
#
# Bulk Modulus (GPa) = 37.86819 47.28494 42.57656
# Shear Modulus (GPa) = 28.55498 30.91018 29.73258
#
# Velocity S-wave (km/s) = 4.01622 4.17857 4.09820
# Velocity P-wave (km/s) = 6.54962 7.07041 6.81499
#
# Compressibility (1/GPa) = 0.02640739
#
# Stress axis : x y z
#
# Youngs Moduli (GPa) = 95.26203 95.26203 46.57870
#
# Poissons Ratio (x) = 0.34637 0.10229
# Poissons Ratio (y) = 0.34637 0.10229
# Poissons Ratio (z) = 0.20921 0.20921
#
# Static dielectric constant tensor:
#      x y z
#    x 3.455420 0.000000 0.000000 
#    y 0.000000 3.455420 0.000000 
#    z 0.000000 0.000000 3.231790 
# 
# 
# High freq. dielectric constant tensor:
#      x y z
#    x 1.674360 0.000000 0.000000 
#    y 0.000000 1.674360 0.000000 
#    z 0.000000 0.000000 1.682480 
# 
# From -- ./inp_files/2324.got.cif
#   From: 2010.03.12/outbox.cif.g09.slc.cpg/sg127_2_cif.got.tgz:2324.got - 2010.04.06 17:03:15.
