data_PCOD8313666
_publ_section_title
;
Structure prediction by ZEFSAII (Michael W. Deem and Ramdas Pophale) SiO2 
 PCOD8313666
Probable space group: P 4/N N C
;
_chemical_formula_sum "Si O2"
_cell_formula_units_Z 48
_cell_length_a 10.584574
_cell_length_b 10.584574
_cell_length_c 17.924159
_cell_angle_alpha 90.000000
_cell_angle_beta 90.000000
_cell_angle_gamma 90.000000
_cell_volume 2008.101011
_symmetry_space_group_name_H-M "P 4/N N C"
_symmetry_group_IT_number 126
_space_group.IT_coordinate_system_code '2'
_symmetry_cell_setting 'tetragonal'
loop_
_space_group_symop_operation_xyz
x,y,z
1/2-y,x,z
1/2-x,1/2-y,z
y,1/2-x,z
x,1/2-y,1/2-z
1/2-x,y,1/2-z
y,x,1/2-z
1/2-y,1/2-x,1/2-z
-x,-y,-z
1/2+y,-x,-z
1/2+x,1/2+y,-z
-y,1/2+x,-z
-x,1/2+y,1/2+z
1/2+x,-y,1/2+z
-y,-x,1/2+z
1/2+y,1/2+x,1/2+z
loop_
_atom_site_type_symbol
_atom_site_label
_atom_site_fract_x
_atom_site_fract_y
_atom_site_fract_z
Si Si1 0.443733 0.706954 0.019126
Si Si2 0.931172 0.662467 0.624689
Si Si3 0.606715 0.204113 0.828859
O O1 0.480780 0.736752 0.105152
O O2 0.332964 0.604034 0.022046
O O3 0.556156 0.654537 0.966455
O O4 0.915812 0.808710 0.649540
O O5 0.052156 0.603578 0.666017
O O6 0.750000 0.250000 0.840202
O O7 0.550788 0.250000 0.750000
#
# Coordination Sequence:
#
# PCOD8313666 Si02
#       3
#    16  16  16
#     4   9  15  32  57  84 111 155 204 247 289 354
#     4  10  21  37  63  95 125 155 197 258 317 355
#     4  10  19  36  59  82 121 162 208 243 294 369
#
# _framework density 23.903179999999999
#
# number of rings (size 3 to 8) (size 9 to 14) (size 15 to 20)
#    0.000    2.333    6.667    0.000    0.000    5.333 
#    0.000    6.667    0.000    8.000    0.000    2.333 
#    0.000    2.667    0.000    0.000    0.000    0.000 
#
# Total GULP energy -594859.381839 kJ/mol
# GULP energy per Si atom -12392.903788 kJ/mol
# Density = 2.384878 g / cm^3
# Si number density = 23.903180 Si / 1000 Ang^3
#
#
#
# Elastic Constant Matrix: (Units=GPa)
#
#
# Indices 1 2 3 4 5 6 
#
# 1 54.3689 2.2544 33.9579 0.0000 0.0000 0.0000
# 2 2.2544 54.3689 33.9579 0.0000 0.0000 0.0000
# 3 33.9579 33.9579 191.3368 0.0000 0.0000 0.0000
# 4 0.0000 0.0000 0.0000 19.7089 0.0000 0.0000
# 5 0.0000 0.0000 0.0000 0.0000 19.7089 0.0000
# 6 0.0000 0.0000 0.0000 0.0000 0.0000 3.8380
#
#
#
# Elastic Compliance Matrix: (Units=1/GPa)
#
#
# Indices 1 2 3 4 5 6 
#
# 1 0.020813 0.001624 -0.003982 0.000000 0.000000 0.000000
# 2 0.001624 0.020813 -0.003982 0.000000 0.000000 0.000000
# 3 -0.003982 -0.003982 0.006640 0.000000 0.000000 0.000000
# 4 0.000000 0.000000 0.000000 0.050739 0.000000 0.000000
# 5 0.000000 0.000000 0.000000 0.000000 0.050739 0.000000
# 6 0.000000 0.000000 0.000000 0.000000 0.000000 0.260549
#
#
# Mechanical properties :
#
#
# Convention : Reuss Voigt Hill
#
# Bulk Modulus (GPa) = 28.10154 48.93500 38.51827
# Shear Modulus (GPa) = 11.49866 23.97810 17.73838
#
# Velocity S-wave (km/s) = 2.19567 3.17067 2.72709
# Velocity P-wave (km/s) = 4.26730 5.82415 5.10542
#
# Compressibility (1/GPa) = 0.03558524
#
# Stress axis : x y z
#
# Youngs Moduli (GPa) = 48.04776 48.04776 150.60650
#
# Poissons Ratio (x) = -0.07803 0.59972
# Poissons Ratio (y) = -0.07803 0.59972
# Poissons Ratio (z) = 0.19133 0.19133
#
# Static dielectric constant tensor:
#      x y z
#    x 3.963420 0.000000 0.000000 
#    y 0.000000 3.963420 0.000000 
#    z 0.000000 0.000000 4.523880 
# 
# 
# High freq. dielectric constant tensor:
#      x y z
#    x 1.915970 0.000000 0.000000 
#    y 0.000000 1.915970 0.000000 
#    z 0.000000 0.000000 1.945470 
# 
# From -- ./inp_files/4136.got.cif
#   From: 2010.03.12/outbox.cif.g09.slc.cpg/sg126_3_cif.got.tgz:4136.got - 2010.04.06 16:55:23.
