data_PCOD8313800
_publ_section_title
;
Structure prediction by ZEFSAII (Michael W. Deem and Ramdas Pophale) SiO2 
 PCOD8313800
Probable space group: P 4/N N C
;
_chemical_formula_sum "Si O2"
_cell_formula_units_Z 80
_cell_length_a 10.874519
_cell_length_b 10.874519
_cell_length_c 30.839563
_cell_angle_alpha 90.000000
_cell_angle_beta 90.000000
_cell_angle_gamma 90.000000
_cell_volume 3646.937564
_symmetry_space_group_name_H-M "P 4/N N C"
_symmetry_group_IT_number 126
_space_group.IT_coordinate_system_code '2'
_symmetry_cell_setting 'tetragonal'
loop_
_space_group_symop_operation_xyz
x,y,z
1/2-y,x,z
1/2-x,1/2-y,z
y,1/2-x,z
x,1/2-y,1/2-z
1/2-x,y,1/2-z
y,x,1/2-z
1/2-y,1/2-x,1/2-z
-x,-y,-z
1/2+y,-x,-z
1/2+x,1/2+y,-z
-y,1/2+x,-z
-x,1/2+y,1/2+z
1/2+x,-y,1/2+z
-y,-x,1/2+z
1/2+y,1/2+x,1/2+z
loop_
_atom_site_type_symbol
_atom_site_label
_atom_site_fract_x
_atom_site_fract_y
_atom_site_fract_z
Si Si1 0.499598 0.028062 0.949712
Si Si2 0.848290 0.576792 0.878029
Si Si3 0.243960 0.891185 0.679757
Si Si4 0.608336 0.260190 0.920714
Si Si5 0.513541 0.489016 0.702212
O O1 0.622035 0.993849 0.922601
O O2 0.393213 0.952827 0.925889
O O3 0.507108 0.175888 0.945892
O O4 0.500000 0.000000 0.000000
O O5 0.917807 0.704025 0.878845
O O6 0.879061 0.514474 0.832235
O O7 0.250000 0.750000 0.697522
O O8 0.279321 0.889576 0.629225
O O9 0.339869 0.980019 0.705417
O O10 0.112793 0.955315 0.685072
O O11 0.750000 0.250000 0.938954
O O12 0.543083 0.543083 0.750000
#
# Coordination Sequence:
#
# PCOD8313800 Si02
#       5
#    16  16  16  16  16
#     4  12  27  42  70 105 136 179 234 281 342 411
#     4  11  24  44  67  94 134 178 225 284 344 402
#     4  11  23  45  71  98 138 183 226 279 341 405
#     4  11  24  46  73  99 142 187 226 284 345 405
#     4  12  25  42  68 102 136 176 229 280 337 407
#
# _framework density 21.936215000000001
#
# number of rings (size 3 to 8) (size 9 to 14) (size 15 to 20)
#    0.000    0.600    4.000    3.000    5.600    4.800 
#    0.000    4.000    0.000    0.000    0.000    0.000 
#    0.000    0.000    0.000    0.000    0.000    0.000 
#
# Total GULP energy -991470.771648 kJ/mol
# GULP energy per Si atom -12393.384646 kJ/mol
# Density = 2.188629 g / cm^3
# Si number density = 21.936215 Si / 1000 Ang^3
#
#
#
# Elastic Constant Matrix: (Units=GPa)
#
#
# Indices 1 2 3 4 5 6 
#
# 1 111.0168 6.5621 7.9834 0.0000 0.0000 0.0000
# 2 6.5621 111.0168 7.9834 0.0000 0.0000 0.0000
# 3 7.9834 7.9834 147.6639 0.0000 0.0000 0.0000
# 4 0.0000 0.0000 0.0000 18.4506 0.0000 0.0000
# 5 0.0000 0.0000 0.0000 0.0000 18.4506 0.0000
# 6 0.0000 0.0000 0.0000 0.0000 0.0000 48.5424
#
#
#
# Elastic Compliance Matrix: (Units=1/GPa)
#
#
# Indices 1 2 3 4 5 6 
#
# 1 0.009071 -0.000503 -0.000463 0.000000 0.000000 0.000000
# 2 -0.000503 0.009071 -0.000463 0.000000 0.000000 0.000000
# 3 -0.000463 -0.000463 0.006822 0.000000 0.000000 0.000000
# 4 0.000000 0.000000 0.000000 0.054199 0.000000 0.000000
# 5 0.000000 0.000000 0.000000 0.000000 0.054199 0.000000
# 6 0.000000 0.000000 0.000000 0.000000 0.000000 0.020601
#
#
# Mechanical properties :
#
#
# Convention : Reuss Voigt Hill
#
# Bulk Modulus (GPa) = 45.23859 46.08391 45.66125
# Shear Modulus (GPa) = 30.45274 40.23327 35.34300
#
# Velocity S-wave (km/s) = 3.72995 4.28729 4.01829
# Velocity P-wave (km/s) = 6.26240 6.74993 6.51073
#
# Compressibility (1/GPa) = 0.02210502
#
# Stress axis : x y z
#
# Youngs Moduli (GPa) = 110.24528 110.24528 146.57975
#
# Poissons Ratio (x) = 0.05544 0.06790
# Poissons Ratio (y) = 0.05544 0.06790
# Poissons Ratio (z) = 0.05107 0.05107
#
# Static dielectric constant tensor:
#      x y z
#    x 4.182110 0.000000 0.000000 
#    y 0.000000 4.182110 0.000000 
#    z 0.000000 0.000000 4.036400 
# 
# 
# High freq. dielectric constant tensor:
#      x y z
#    x 1.869330 0.000000 0.000000 
#    y 0.000000 1.869330 0.000000 
#    z 0.000000 0.000000 1.867250 
# 
# From -- ./inp_files/6437.got.cif
#   From: 2010.03.12/outbox.cif.g09.slc.cpg/sg126_4_cif.got.tgz:6437.got - 2010.04.06 16:55:23.
