data_PCOD8313980
_publ_section_title
;
Structure prediction by ZEFSAII (Michael W. Deem and Ramdas Pophale) SiO2 
 PCOD8313980
Probable space group: P 4/M B M
;
_chemical_formula_sum "Si O2"
_cell_formula_units_Z 96
_cell_length_a 24.742022
_cell_length_b 24.742022
_cell_length_c 9.120119
_cell_angle_alpha 90.000000
_cell_angle_beta 90.000000
_cell_angle_gamma 90.000000
_cell_volume 5583.041840
_symmetry_space_group_name_H-M "P 4/M B M"
_symmetry_group_IT_number 127
_symmetry_cell_setting 'tetragonal'
loop_
_space_group_symop_operation_xyz
x,y,z
-y,x,z
-x,-y,z
y,-x,z
1/2+x,1/2-y,-z
1/2-x,1/2+y,-z
1/2+y,1/2+x,-z
1/2-y,1/2-x,-z
-x,-y,-z
y,-x,-z
x,y,-z
-y,x,-z
1/2-x,1/2+y,z
1/2+x,1/2-y,z
1/2-y,1/2-x,z
1/2+y,1/2+x,z
loop_
_atom_site_type_symbol
_atom_site_label
_atom_site_fract_x
_atom_site_fract_y
_atom_site_fract_z
Si Si1 0.964901 0.156751 0.829112
Si Si2 0.762088 0.482981 0.668770
Si Si3 0.661688 0.161688 0.825970
Si Si4 0.882428 0.469735 0.669436
Si Si5 0.573465 0.073465 0.826629
Si Si6 0.086192 0.135653 0.827614
Si Si7 0.392944 0.741950 0.328637
O O1 0.952896 0.214641 0.755939
O O2 0.920693 0.113011 0.779592
O O3 0.023143 0.133089 0.782970
O O4 0.961934 0.167398 0.000000
O O5 0.751014 0.470947 0.500000
O O6 0.820436 0.460447 0.719153
O O7 0.761852 0.546526 0.702749
O O8 0.617493 0.117493 0.776958
O O9 0.719234 0.146908 0.758697
O O10 0.666082 0.166082 0.000000
O O11 0.884201 0.488546 0.500000
O O12 0.913460 0.413460 0.693298
O O13 0.910611 0.515363 0.765320
O O14 0.569426 0.069426 0.000000
O O15 0.115789 0.182260 0.735930
O O16 0.093150 0.147279 0.000000
O O17 0.378714 0.742431 0.500000
#
# Coordination Sequence:
#
# PCOD8313980 Si02
#       7
#    16  16   8  16   8  16  16
#     4   9  18  32  53  77 104 135 167 204 250 304
#     4   9  18  32  50  72  97 129 170 212 250 297
#     4  11  21  32  50  75 102 134 168 212 262 307
#     4  10  20  34  51  70  97 135 174 213 258 305
#     4  11  22  32  47  74 106 134 164 210 262 306
#     4   9  18  33  52  78 107 136 168 205 251 306
#     4  10  19  32  52  75  99 130 169 211 254 300
#
# _framework density 17.194928000000001
#
# number of rings (size 3 to 8) (size 9 to 14) (size 15 to 20)
#    0.000    2.333    1.667    1.250    0.000    4.333 
#    0.000    1.667    1.833    0.000    0.000    4.667 
#    0.000    0.000    0.000    0.000    0.000    0.000 
#
# Total GULP energy -1190609.733452 kJ/mol
# GULP energy per Si atom -12402.184723 kJ/mol
# Density = 1.715579 g / cm^3
# Si number density = 17.194928 Si / 1000 Ang^3
#
#
#
# Elastic Constant Matrix: (Units=GPa)
#
#
# Indices 1 2 3 4 5 6 
#
# 1 115.9644 76.1756 45.6780 0.0000 0.0000 0.0000
# 2 76.1756 115.9644 45.6780 0.0000 0.0000 0.0000
# 3 45.6780 45.6780 56.9053 0.0000 0.0000 0.0000
# 4 0.0000 0.0000 0.0000 26.6126 0.0000 0.0000
# 5 0.0000 0.0000 0.0000 0.0000 26.6126 0.0000
# 6 0.0000 0.0000 0.0000 0.0000 0.0000 26.6561
#
#
#
# Elastic Compliance Matrix: (Units=1/GPa)
#
#
# Indices 1 2 3 4 5 6 
#
# 1 0.016775 -0.008358 -0.006756 0.000000 0.000000 0.000000
# 2 -0.008358 0.016775 -0.006756 0.000000 0.000000 0.000000
# 3 -0.006756 -0.006756 0.028420 0.000000 0.000000 0.000000
# 4 0.000000 0.000000 0.000000 0.037576 0.000000 0.000000
# 5 0.000000 0.000000 0.000000 0.000000 0.037576 0.000000
# 6 0.000000 0.000000 0.000000 0.000000 0.000000 0.037515
#
#
# Mechanical properties :
#
#
# Convention : Reuss Voigt Hill
#
# Bulk Modulus (GPa) = 54.85964 69.32194 62.09079
# Shear Modulus (GPa) = 22.27632 24.06308 23.16970
#
# Velocity S-wave (km/s) = 3.60323 3.74495 3.67478
# Velocity P-wave (km/s) = 7.02032 7.68781 7.36163
#
# Compressibility (1/GPa) = 0.01822834
#
# Stress axis : x y z
#
# Youngs Moduli (GPa) = 59.61320 59.61320 35.18696
#
# Poissons Ratio (x) = 0.49824 0.23773
# Poissons Ratio (y) = 0.49824 0.23773
# Poissons Ratio (z) = 0.40276 0.40276
#
# Static dielectric constant tensor:
#      x y z
#    x 3.231370 0.000000 0.000000 
#    y 0.000000 3.231370 0.000000 
#    z 0.000000 0.000000 3.200610 
# 
# 
# High freq. dielectric constant tensor:
#      x y z
#    x 1.655430 0.000000 0.000000 
#    y 0.000000 1.655430 0.000000 
#    z 0.000000 0.000000 1.664960 
# 
# From -- ./inp_files/2092.got.cif
#   From: 2010.03.12/outbox.cif.g09.slc.cpg/sg127_2_cif.got.tgz:2092.got - 2010.04.06 17:03:15.
