data_PCOD8313468
_publ_section_title
;
Structure prediction by ZEFSAII (Michael W. Deem and Ramdas Pophale) SiO2 
 PCOD8313468
Probable space group: P 4/N B M
;
_chemical_formula_sum "Si O2"
_cell_formula_units_Z 104
_cell_length_a 19.220657
_cell_length_b 19.220657
_cell_length_c 15.746434
_cell_angle_alpha 90.000000
_cell_angle_beta 90.000000
_cell_angle_gamma 90.000000
_cell_volume 5817.262674
_symmetry_space_group_name_H-M "P 4/N B M"
_symmetry_group_IT_number 125
_space_group.IT_coordinate_system_code '2'
_symmetry_cell_setting 'tetragonal'
loop_
_space_group_symop_operation_xyz
x,y,z
1/2-y,x,z
1/2-x,1/2-y,z
y,1/2-x,z
x,1/2-y,-z
1/2-x,y,-z
y,x,-z
1/2-y,1/2-x,-z
-x,-y,-z
1/2+y,-x,-z
1/2+x,1/2+y,-z
-y,1/2+x,-z
-x,1/2+y,z
1/2+x,-y,z
-y,-x,z
1/2+y,1/2+x,z
loop_
_atom_site_type_symbol
_atom_site_label
_atom_site_fract_x
_atom_site_fract_y
_atom_site_fract_z
Si Si1 0.128465 0.984579 0.690996
Si Si2 0.032562 0.419431 0.409670
Si Si3 0.005998 0.389341 0.025519
Si Si4 0.141227 0.750000 0.500000
Si Si5 0.324390 0.562592 0.174920
Si Si6 0.532131 0.215858 0.362482
Si Si7 0.441817 0.829588 0.129437
O O1 0.086508 0.913493 0.664189
O O2 0.203955 0.991060 0.646420
O O3 0.138921 0.986437 0.792247
O O4 0.083412 0.051330 0.663804
O O5 0.066374 0.433627 0.500000
O O6 0.957281 0.457281 0.402589
O O7 0.025507 0.335521 0.403366
O O8 0.952098 0.452098 0.018224
O O9 0.002500 0.355050 0.119751
O O10 0.988040 0.331598 0.955087
O O11 0.082290 0.417711 0.000000
O O12 0.188997 0.811004 0.539348
O O13 0.098252 0.716256 0.576452
O O14 0.370474 0.629527 0.155733
O O15 0.322900 0.546551 0.274053
O O16 0.248163 0.582246 0.144943
O O17 0.371034 0.871034 0.117050
#
# Coordination Sequence:
#
# PCOD8313468 Si02
#       7
#    16  16  16   8  16  16  16
#     4   9  19  34  53  77 108 141 175 217 268 317
#     4  10  20  33  51  74 101 136 177 223 271 316
#     4   9  18  31  49  71  99 134 171 211 255 300
#     4  11  22  34  50  74 108 147 180 216 268 323
#     4  10  20  32  49  76 104 135 174 214 254 309
#     4  11  21  35  54  77 106 138 181 224 264 315
#     4   9  18  32  49  72 105 141 170 204 252 309
#
# _framework density 17.877824
#
# number of rings (size 3 to 8) (size 9 to 14) (size 15 to 20)
#    0.000    2.231    0.000    3.231    2.154    2.154 
#    0.000    0.000    0.000    3.231    0.000    1.077 
#    0.000    4.923    0.000    0.000    0.000    0.000 
#
# Total GULP energy -1288970.840062 kJ/mol
# GULP energy per Si atom -12393.950385 kJ/mol
# Density = 1.783713 g / cm^3
# Si number density = 17.877824 Si / 1000 Ang^3
#
#
#
# Elastic Constant Matrix: (Units=GPa)
#
#
# Indices 1 2 3 4 5 6 
#
# 1 80.1889 55.2668 44.4569 0.0000 0.0000 0.0000
# 2 55.2668 80.1897 44.4570 0.0000 0.0000 0.0000
# 3 44.4569 44.4570 115.8064 0.0000 0.0000 0.0000
# 4 0.0000 0.0000 0.0000 26.2540 0.0000 0.0000
# 5 0.0000 0.0000 0.0000 0.0000 26.2541 0.0000
# 6 0.0000 0.0000 0.0000 0.0000 0.0000 24.2314
#
#
#
# Elastic Compliance Matrix: (Units=1/GPa)
#
#
# Indices 1 2 3 4 5 6 
#
# 1 0.024997 -0.015127 -0.003789 0.000000 0.000000 0.000000
# 2 -0.015127 0.024997 -0.003789 0.000000 0.000000 0.000000
# 3 -0.003789 -0.003789 0.011544 0.000000 0.000000 0.000000
# 4 0.000000 0.000000 0.000000 0.038089 0.000000 0.000000
# 5 0.000000 0.000000 0.000000 0.000000 0.038089 0.000000
# 6 0.000000 0.000000 0.000000 0.000000 0.000000 0.041269
#
#
# Mechanical properties :
#
#
# Convention : Reuss Voigt Hill
#
# Bulk Modulus (GPa) = 62.00472 62.72737 62.36604
# Shear Modulus (GPa) = 21.76077 24.14819 22.95448
#
# Velocity S-wave (km/s) = 3.49262 3.67922 3.58713
# Velocity P-wave (km/s) = 7.14299 7.29464 7.21921
#
# Compressibility (1/GPa) = 0.01612781
#
# Stress axis : x y z
#
# Youngs Moduli (GPa) = 40.00477 40.00519 86.62473
#
# Poissons Ratio (x) = 0.60518 0.32820
# Poissons Ratio (y) = 0.60517 0.32820
# Poissons Ratio (z) = 0.15157 0.15157
#
# Static dielectric constant tensor:
#      x y z
#    x 3.196910 0.000000 0.000000 
#    y 0.000000 3.196910 0.000000 
#    z 0.000000 0.000000 3.603670 
# 
# 
# High freq. dielectric constant tensor:
#      x y z
#    x 1.670220 0.000000 0.000000 
#    y 0.000000 1.670220 0.000000 
#    z 0.000000 0.000000 1.710980 
# 
# From -- ./inp_files/5495.got.cif
#   From: 2010.03.12/outbox.cif.g09.slc.cpg/sg125_3_cif.got.tgz:5495.got - 2010.04.06 16:47:52.
