data_PCOD8313904
_publ_section_title
;
Structure prediction by ZEFSAII (Michael W. Deem and Ramdas Pophale) SiO2 
 PCOD8313904
Probable space group: P 4/M B M
;
_chemical_formula_sum "Si O2"
_cell_formula_units_Z 120
_cell_length_a 24.098574
_cell_length_b 24.098574
_cell_length_c 13.584500
_cell_angle_alpha 90.000000
_cell_angle_beta 90.000000
_cell_angle_gamma 90.000000
_cell_volume 7889.079766
_symmetry_space_group_name_H-M "P 4/M B M"
_symmetry_group_IT_number 127
_symmetry_cell_setting 'tetragonal'
loop_
_space_group_symop_operation_xyz
x,y,z
-y,x,z
-x,-y,z
y,-x,z
1/2+x,1/2-y,-z
1/2-x,1/2+y,-z
1/2+y,1/2+x,-z
1/2-y,1/2-x,-z
-x,-y,-z
y,-x,-z
x,y,-z
-y,x,-z
1/2-x,1/2+y,z
1/2+x,1/2-y,z
1/2-y,1/2-x,z
1/2+y,1/2+x,z
loop_
_atom_site_type_symbol
_atom_site_label
_atom_site_fract_x
_atom_site_fract_y
_atom_site_fract_z
Si Si1 0.416457 0.472025 0.617091
Si Si2 0.941841 0.795598 0.383396
Si Si3 0.206953 0.531140 0.613665
Si Si4 0.798613 0.390950 0.107088
Si Si5 0.820204 0.768118 0.383869
Si Si6 0.546725 0.046725 0.888788
Si Si7 0.531453 0.875978 0.217914
Si Si8 0.854154 0.262210 0.303538
O O1 0.465202 0.430349 0.653122
O O2 0.414100 0.471643 0.500000
O O3 0.357266 0.452127 0.661319
O O4 0.941565 0.800374 0.500000
O O5 0.883630 0.768816 0.347203
O O6 0.990376 0.755162 0.347674
O O7 0.192163 0.519886 0.500000
O O8 0.151782 0.518938 0.676690
O O9 0.229227 0.593488 0.625641
O O10 0.842527 0.342527 0.094983
O O11 0.829855 0.446401 0.142204
O O12 0.753856 0.373685 0.190026
O O13 0.770287 0.401663 0.000000
O O14 0.815606 0.775882 0.500000
O O15 0.788940 0.711061 0.351720
O O16 0.792007 0.821245 0.334455
O O17 0.524519 0.099875 0.829393
O O18 0.500000 0.000000 0.894062
O O19 0.563700 0.063700 0.000000
O O20 0.576345 0.923656 0.236293
O O21 0.817362 0.317362 0.314450
#
# Coordination Sequence:
#
# PCOD8313904 Si02
#       8
#    16  16  16  16  16   8  16  16
#     4   8  14  24  38  57  80 105 134 172 218 260
#     4   9  18  28  40  58  79 113 151 179 210 246
#     4  10  19  29  40  59  87 118 148 176 211 253
#     4   8  13  23  40  63  88 105 122 162 218 266
#     4   9  17  29  42  57  81 112 147 179 202 236
#     4   9  16  28  47  67  83 103 138 184 231 273
#     4   9  17  28  42  62  86 111 143 180 218 260
#     4   9  17  27  43  66  86 107 140 175 215 258
#
# _framework density 15.210900000000001
#
# number of rings (size 3 to 8) (size 9 to 14) (size 15 to 20)
#    0.000    3.133    0.000    2.400    1.867    3.200 
#    1.200    0.333    0.000    1.200    0.000    4.667 
#    0.000    0.000    0.000    0.000    0.000    5.333 
#
# Total GULP energy -1487241.124614 kJ/mol
# GULP energy per Si atom -12393.676038 kJ/mol
# Density = 1.517628 g / cm^3
# Si number density = 15.210900 Si / 1000 Ang^3
#
#
#
# Elastic Constant Matrix: (Units=GPa)
#
#
# Indices 1 2 3 4 5 6 
#
# 1 81.2507 44.6934 22.2318 0.0000 0.0000 0.0000
# 2 44.6934 81.2507 22.2318 0.0000 0.0000 0.0000
# 3 22.2318 22.2318 59.1960 0.0000 0.0000 0.0000
# 4 0.0000 0.0000 0.0000 12.0657 0.0000 0.0000
# 5 0.0000 0.0000 0.0000 0.0000 12.0657 0.0000
# 6 0.0000 0.0000 0.0000 0.0000 0.0000 19.2761
#
#
#
# Elastic Compliance Matrix: (Units=1/GPa)
#
#
# Indices 1 2 3 4 5 6 
#
# 1 0.018254 -0.009100 -0.003438 0.000000 0.000000 0.000000
# 2 -0.009100 0.018254 -0.003438 0.000000 0.000000 0.000000
# 3 -0.003438 -0.003438 0.019475 0.000000 0.000000 0.000000
# 4 0.000000 0.000000 0.000000 0.082880 0.000000 0.000000
# 5 0.000000 0.000000 0.000000 0.000000 0.082880 0.000000
# 6 0.000000 0.000000 0.000000 0.000000 0.000000 0.051878
#
#
# Mechanical properties :
#
#
# Convention : Reuss Voigt Hill
#
# Bulk Modulus (GPa) = 41.61202 44.44569 43.02885
# Shear Modulus (GPa) = 15.94477 17.51753 16.73115
#
# Velocity S-wave (km/s) = 3.24118 3.39727 3.32014
# Velocity P-wave (km/s) = 6.43608 6.68368 6.56105
#
# Compressibility (1/GPa) = 0.02403152
#
# Stress axis : x y z
#
# Youngs Moduli (GPa) = 54.78243 54.78243 51.34724
#
# Poissons Ratio (x) = 0.49854 0.17652
# Poissons Ratio (y) = 0.49854 0.17652
# Poissons Ratio (z) = 0.18833 0.18833
#
# Static dielectric constant tensor:
#      x y z
#    x 2.959390 0.000000 0.000000 
#    y 0.000000 2.959390 0.000000 
#    z 0.000000 0.000000 2.845800 
# 
# 
# High freq. dielectric constant tensor:
#      x y z
#    x 1.572410 0.000000 0.000000 
#    y 0.000000 1.572410 0.000000 
#    z 0.000000 0.000000 1.547520 
# 
# From -- ./inp_files/4737.got.cif
#   From: 2010.03.12/outbox.cif.g09.slc.cpg/sg127_3_cif.got.tgz:4737.got - 2010.04.06 17:03:15.
