data_PCOD8313706
_publ_section_title
;
Structure prediction by ZEFSAII (Michael W. Deem and Ramdas Pophale) SiO2 
 PCOD8313706
Probable space group: P 4/N N C
;
_chemical_formula_sum "Si O2"
_cell_formula_units_Z 80
_cell_length_a 16.457600
_cell_length_b 16.457600
_cell_length_c 14.251435
_cell_angle_alpha 90.000000
_cell_angle_beta 90.000000
_cell_angle_gamma 90.000000
_cell_volume 3860.038192
_symmetry_space_group_name_H-M "P 4/N N C"
_symmetry_group_IT_number 126
_space_group.IT_coordinate_system_code '2'
_symmetry_cell_setting 'tetragonal'
loop_
_space_group_symop_operation_xyz
x,y,z
1/2-y,x,z
1/2-x,1/2-y,z
y,1/2-x,z
x,1/2-y,1/2-z
1/2-x,y,1/2-z
y,x,1/2-z
1/2-y,1/2-x,1/2-z
-x,-y,-z
1/2+y,-x,-z
1/2+x,1/2+y,-z
-y,1/2+x,-z
-x,1/2+y,1/2+z
1/2+x,-y,1/2+z
-y,-x,1/2+z
1/2+y,1/2+x,1/2+z
loop_
_atom_site_type_symbol
_atom_site_label
_atom_site_fract_x
_atom_site_fract_y
_atom_site_fract_z
Si Si1 0.490584 0.523595 0.655794
Si Si2 0.881085 0.754760 0.858163
Si Si3 0.282314 0.992326 0.988782
Si Si4 0.107111 0.941935 0.979944
Si Si5 0.830561 0.555105 0.198895
O O1 0.544730 0.544730 0.750000
O O2 0.514869 0.439289 0.605330
O O3 0.492902 0.593807 0.577639
O O4 0.401367 0.512360 0.702839
O O5 0.826667 0.832706 0.884180
O O6 0.904893 0.750000 0.750000
O O7 0.964123 0.763709 0.914108
O O8 0.351227 0.925064 0.004705
O O9 0.202098 0.943449 0.955616
O O10 0.308115 0.061225 0.912229
O O11 0.750000 0.522971 0.250000
O O12 0.861191 0.638810 0.250000
#
# Coordination Sequence:
#
# PCOD8313706 Si02
#       5
#    16  16  16  16  16
#     4   9  19  38  61  85 118 154 205 260 305 373
#     4   9  21  39  60  90 124 160 197 250 320 380
#     4  11  23  39  62  86 126 161 210 262 302 383
#     4  10  23  38  58  90 116 167 206 251 320 358
#     4  10  21  36  58  87 120 157 198 251 316 377
#
# _framework density 20.725183000000001
#
# number of rings (size 3 to 8) (size 9 to 14) (size 15 to 20)
#    0.000    2.200    0.000    3.000   11.200    2.200 
#    0.000    0.000    0.000    0.000    0.000    8.400 
#    0.000    0.000    0.000    0.000    0.000    0.000 
#
# Total GULP energy -991254.356672 kJ/mol
# GULP energy per Si atom -12390.679458 kJ/mol
# Density = 2.067801 g / cm^3
# Si number density = 20.725183 Si / 1000 Ang^3
#
#
#
# Elastic Constant Matrix: (Units=GPa)
#
#
# Indices 1 2 3 4 5 6 
#
# 1 90.6703 31.7356 34.0577 0.0000 0.0000 0.0000
# 2 31.7356 90.6698 34.0576 0.0000 0.0000 0.0000
# 3 34.0577 34.0576 124.7631 0.0000 0.0000 0.0000
# 4 0.0000 0.0000 0.0000 23.3508 0.0000 0.0000
# 5 0.0000 0.0000 0.0000 0.0000 23.3510 0.0000
# 6 0.0000 0.0000 0.0000 0.0000 0.0000 22.9949
#
#
#
# Elastic Compliance Matrix: (Units=1/GPa)
#
#
# Indices 1 2 3 4 5 6 
#
# 1 0.013300 -0.003668 -0.002630 0.000000 0.000000 0.000000
# 2 -0.003668 0.013300 -0.002630 0.000000 0.000000 0.000000
# 3 -0.002630 -0.002630 0.009451 0.000000 0.000000 0.000000
# 4 0.000000 0.000000 0.000000 0.042825 0.000000 0.000000
# 5 0.000000 0.000000 0.000000 0.000000 0.042825 0.000000
# 6 0.000000 0.000000 0.000000 0.000000 0.000000 0.043488
#
#
# Mechanical properties :
#
#
# Convention : Reuss Voigt Hill
#
# Bulk Modulus (GPa) = 54.95035 56.20057 55.57546
# Shear Modulus (GPa) = 26.43979 27.68948 27.06464
#
# Velocity S-wave (km/s) = 3.57561 3.65914 3.61762
# Velocity P-wave (km/s) = 6.60440 6.71032 6.65757
#
# Compressibility (1/GPa) = 0.01819825
#
# Stress axis : x y z
#
# Youngs Moduli (GPa) = 75.18582 75.18538 105.81094
#
# Poissons Ratio (x) = 0.27575 0.27824
# Poissons Ratio (y) = 0.27575 0.27824
# Poissons Ratio (z) = 0.19771 0.19770
#
# Static dielectric constant tensor:
#      x y z
#    x 3.574980 0.000000 0.000000 
#    y 0.000000 3.574990 0.000000 
#    z 0.000000 0.000000 4.166280 
# 
# 
# High freq. dielectric constant tensor:
#      x y z
#    x 1.789660 0.000000 0.000000 
#    y 0.000000 1.789660 0.000000 
#    z 0.000000 0.000000 1.835390 
# 
# From -- ./inp_files/3644.got.cif
#   From: 2010.03.12/outbox.cif.g09.slc.cpg/sg126_2_cif.got.tgz:3644.got - 2010.04.06 16:55:23.
