data_PCOD8313815
_publ_section_title
;
Structure prediction by ZEFSAII (Michael W. Deem and Ramdas Pophale) SiO2 
 PCOD8313815
Probable space group: P 4/N N C
;
_chemical_formula_sum "Si O2"
_cell_formula_units_Z 52
_cell_length_a 13.346625
_cell_length_b 13.346625
_cell_length_c 13.268715
_cell_angle_alpha 90.000000
_cell_angle_beta 90.000000
_cell_angle_gamma 90.000000
_cell_volume 2363.588033
_symmetry_space_group_name_H-M "P 4/N N C"
_symmetry_group_IT_number 126
_space_group.IT_coordinate_system_code '2'
_symmetry_cell_setting 'tetragonal'
loop_
_space_group_symop_operation_xyz
x,y,z
1/2-y,x,z
1/2-x,1/2-y,z
y,1/2-x,z
x,1/2-y,1/2-z
1/2-x,y,1/2-z
y,x,1/2-z
1/2-y,1/2-x,1/2-z
-x,-y,-z
1/2+y,-x,-z
1/2+x,1/2+y,-z
-y,1/2+x,-z
-x,1/2+y,1/2+z
1/2+x,-y,1/2+z
-y,-x,1/2+z
1/2+y,1/2+x,1/2+z
loop_
_atom_site_type_symbol
_atom_site_label
_atom_site_fract_x
_atom_site_fract_y
_atom_site_fract_z
Si Si1 0.513371 0.656180 0.188544
Si Si2 0.693674 0.410189 0.849143
Si Si3 0.250000 0.750000 0.000000
Si Si4 0.912209 0.768783 0.975251
O O1 0.468799 0.750000 0.250000
O O2 0.604601 0.604601 0.250000
O O3 0.425300 0.572918 0.172832
O O4 0.548960 0.710328 0.086807
O O5 0.750000 0.372495 0.750000
O O6 0.760737 0.501135 0.891835
O O7 0.686397 0.324417 0.932159
O O8 0.837342 0.859392 0.956429
#
# Coordination Sequence:
#
# PCOD8313815 Si02
#       4
#    16  16   4  16
#     4  12  25  44  78 112 145 191 251 311 368 431
#     4  12  28  45  71 108 152 194 243 306 378 454
#     4  12  22  48  72 102 148 192 246 296 376 438
#     4  11  26  48  74 105 144 193 249 311 370 439
#
# _framework density 22.000449
#
# number of rings (size 3 to 8) (size 9 to 14) (size 15 to 20)
#    0.000    0.308    6.154    2.308    4.308    1.538 
#    0.000    1.538    0.000    0.000    0.000    0.000 
#    0.000    0.000    0.000    0.000    0.000    0.000 
#
# Total GULP energy -644323.935008 kJ/mol
# GULP energy per Si atom -12390.844904 kJ/mol
# Density = 2.195037 g / cm^3
# Si number density = 22.000449 Si / 1000 Ang^3
#
#
#
# Elastic Constant Matrix: (Units=GPa)
#
#
# Indices 1 2 3 4 5 6 
#
# 1 106.7416 26.6184 44.8291 0.0000 0.0000 0.0000
# 2 26.6184 106.7416 44.8291 0.0000 0.0000 0.0000
# 3 44.8291 44.8291 117.8094 0.0000 0.0000 0.0000
# 4 0.0000 0.0000 0.0000 21.0057 0.0000 0.0000
# 5 0.0000 0.0000 0.0000 0.0000 21.0057 0.0000
# 6 0.0000 0.0000 0.0000 0.0000 0.0000 53.9842
#
#
#
# Elastic Compliance Matrix: (Units=1/GPa)
#
#
# Indices 1 2 3 4 5 6 
#
# 1 0.011279 -0.001202 -0.003834 0.000000 0.000000 0.000000
# 2 -0.001202 0.011279 -0.003834 0.000000 0.000000 0.000000
# 3 -0.003834 -0.003834 0.011406 0.000000 0.000000 0.000000
# 4 0.000000 0.000000 0.000000 0.047606 0.000000 0.000000
# 5 0.000000 0.000000 0.000000 0.000000 0.047606 0.000000
# 6 0.000000 0.000000 0.000000 0.000000 0.000000 0.018524
#
#
# Mechanical properties :
#
#
# Convention : Reuss Voigt Hill
#
# Bulk Modulus (GPa) = 61.64511 62.64951 62.14731
# Shear Modulus (GPa) = 29.26569 33.53349 31.39959
#
# Velocity S-wave (km/s) = 3.65119 3.90836 3.78196
# Velocity P-wave (km/s) = 6.77168 6.99323 6.88335
#
# Compressibility (1/GPa) = 0.01622189
#
# Stress axis : x y z
#
# Youngs Moduli (GPa) = 88.66403 88.66403 87.67070
#
# Poissons Ratio (x) = 0.10660 0.33615
# Poissons Ratio (y) = 0.10660 0.33615
# Poissons Ratio (z) = 0.33996 0.33996
#
# Static dielectric constant tensor:
#      x y z
#    x 3.929060 0.000000 0.000000 
#    y 0.000000 3.929060 0.000000 
#    z 0.000000 0.000000 4.069290 
# 
# 
# High freq. dielectric constant tensor:
#      x y z
#    x 1.867160 0.000000 0.000000 
#    y 0.000000 1.867160 0.000000 
#    z 0.000000 0.000000 1.878980 
# 
# From -- ./inp_files/2377.got.cif
#   From: 2010.03.12/outbox.cif.g09.slc.cpg/sg126_2_cif.got.tgz:2377.got - 2010.04.06 16:55:23.
