data_PCOD8313176
_publ_section_title
;
Structure prediction by ZEFSAII (Michael W. Deem and Ramdas Pophale) SiO2 
 PCOD8313176
Probable space group: P 4/M C C
;
_chemical_formula_sum "Si O2"
_cell_formula_units_Z 104
_cell_length_a 19.906334
_cell_length_b 19.906334
_cell_length_c 15.528044
_cell_angle_alpha 90.000000
_cell_angle_beta 90.000000
_cell_angle_gamma 90.000000
_cell_volume 6153.175842
_symmetry_space_group_name_H-M "P 4/M C C"
_symmetry_group_IT_number 124
_symmetry_cell_setting 'tetragonal'
loop_
_space_group_symop_operation_xyz
x,y,z
-y,x,z
-x,-y,z
y,-x,z
x,-y,1/2-z
-x,y,1/2-z
y,x,1/2-z
-y,-x,1/2-z
-x,-y,-z
y,-x,-z
x,y,-z
-y,x,-z
-x,y,1/2+z
x,-y,1/2+z
-y,-x,1/2+z
y,x,1/2+z
loop_
_atom_site_type_symbol
_atom_site_label
_atom_site_fract_x
_atom_site_fract_y
_atom_site_fract_z
Si Si1 0.637938 0.401451 0.162186
Si Si2 0.921268 0.579112 0.247082
Si Si3 0.589972 0.438183 0.500000
Si Si4 0.376740 0.175585 0.597917
Si Si5 0.157057 0.628346 0.095603
Si Si6 0.245349 0.506594 0.848661
Si Si7 0.721198 0.288857 0.098484
O O1 0.595440 0.404561 0.250000
O O2 0.675893 0.472769 0.148244
O O3 0.691352 0.341094 0.167401
O O4 0.588258 0.377563 0.087211
O O5 0.903709 0.500000 0.250000
O O6 0.886940 0.610970 0.161914
O O7 0.898096 0.620213 0.330924
O O8 0.000000 0.590843 0.250000
O O9 0.592914 0.516478 0.500000
O O10 0.376212 0.147752 0.500000
O O11 0.434989 0.232231 0.606532
O O12 0.305617 0.213299 0.619118
O O13 0.205920 0.564158 0.100645
O O14 0.198242 0.698939 0.107673
O O15 0.123825 0.627774 0.000000
O O16 0.220408 0.500000 0.750000
O O17 0.700112 0.307173 0.000000
#
# Coordination Sequence:
#
# PCOD8313176 Si02
#       7
#    16  16   8  16  16  16  16
#     4  11  24  35  55  71  87 119 156 197 259 311
#     4  11  23  37  51  73 103 132 173 213 248 303
#     4  11  28  44  48  58  88 120 157 205 251 319
#     4  11  21  34  55  78 100 126 162 209 256 298
#     4  10  19  35  52  72 101 132 162 202 257 305
#     4  11  20  32  51  75  96 120 155 203 251 306
#     4   9  20  34  51  80 101 119 158 207 251 304
#
# _framework density 16.901841000000001
#
# number of rings (size 3 to 8) (size 9 to 14) (size 15 to 20)
#    0.000    1.462    3.846    1.385    8.615    0.615 
#    0.000    2.308    0.000    0.000    0.000    0.000 
#    0.000    0.000    0.000    0.000    0.000    6.154 
#
# Total GULP energy -1288562.411515 kJ/mol
# GULP energy per Si atom -12390.023188 kJ/mol
# Density = 1.686337 g / cm^3
# Si number density = 16.901841 Si / 1000 Ang^3
#
#
#
# Elastic Constant Matrix: (Units=GPa)
#
#
# Indices 1 2 3 4 5 6 
#
# 1 73.2591 26.3284 33.6911 0.0000 0.0000 0.0000
# 2 26.3284 73.2590 33.6909 0.0000 0.0000 0.0000
# 3 33.6911 33.6909 122.5368 0.0000 0.0000 0.0000
# 4 0.0000 0.0000 0.0000 15.2924 0.0000 0.0000
# 5 0.0000 0.0000 0.0000 0.0000 15.2926 0.0000
# 6 0.0000 0.0000 0.0000 0.0000 0.0000 15.8917
#
#
#
# Elastic Compliance Matrix: (Units=1/GPa)
#
#
# Indices 1 2 3 4 5 6 
#
# 1 0.016822 -0.004486 -0.003392 0.000000 0.000000 0.000000
# 2 -0.004486 0.016822 -0.003392 0.000000 0.000000 0.000000
# 3 -0.003392 -0.003392 0.010026 0.000000 0.000000 0.000000
# 4 0.000000 0.000000 0.000000 0.065392 0.000000 0.000000
# 5 0.000000 0.000000 0.000000 0.000000 0.065391 0.000000
# 6 0.000000 0.000000 0.000000 0.000000 0.000000 0.062926
#
#
# Mechanical properties :
#
#
# Convention : Reuss Voigt Hill
#
# Bulk Modulus (GPa) = 47.32301 50.71952 49.02126
# Shear Modulus (GPa) = 18.72925 20.98497 19.85711
#
# Velocity S-wave (km/s) = 3.33245 3.52743 3.43133
# Velocity P-wave (km/s) = 6.54725 6.83109 6.69067
#
# Compressibility (1/GPa) = 0.02113137
#
# Stress axis : x y z
#
# Youngs Moduli (GPa) = 59.44518 59.44516 99.74104
#
# Poissons Ratio (x) = 0.26666 0.33831
# Poissons Ratio (y) = 0.26666 0.33830
# Poissons Ratio (z) = 0.20163 0.20163
#
# Static dielectric constant tensor:
#      x y z
#    x 2.877140 0.000000 0.000000 
#    y 0.000000 2.877140 0.000000 
#    z 0.000000 0.000000 3.190150 
# 
# 
# High freq. dielectric constant tensor:
#      x y z
#    x 1.607240 0.000000 0.000000 
#    y 0.000000 1.607240 0.000000 
#    z 0.000000 0.000000 1.675200 
# 
# From -- ./inp_files/3426.got.cif
#   From: 2010.03.12/outbox.cif.g09.slc.cpg/sg124_2_cif.got.tgz:3426.got - 2010.04.06 16:38:57.
