data_PCOD8313997
_publ_section_title
;
Structure prediction by ZEFSAII (Michael W. Deem and Ramdas Pophale) SiO2 
 PCOD8313997
Probable space group: P 4/M B M
;
_chemical_formula_sum "Si O2"
_cell_formula_units_Z 72
_cell_length_a 18.662835
_cell_length_b 18.662835
_cell_length_c 11.946907
_cell_angle_alpha 90.000000
_cell_angle_beta 90.000000
_cell_angle_gamma 90.000000
_cell_volume 4161.124556
_symmetry_space_group_name_H-M "P 4/M B M"
_symmetry_group_IT_number 127
_symmetry_cell_setting 'tetragonal'
loop_
_space_group_symop_operation_xyz
x,y,z
-y,x,z
-x,-y,z
y,-x,z
1/2+x,1/2-y,-z
1/2-x,1/2+y,-z
1/2+y,1/2+x,-z
1/2-y,1/2-x,-z
-x,-y,-z
y,-x,-z
x,y,-z
-y,x,-z
1/2-x,1/2+y,z
1/2+x,1/2-y,z
1/2-y,1/2-x,z
1/2+y,1/2+x,z
loop_
_atom_site_type_symbol
_atom_site_label
_atom_site_fract_x
_atom_site_fract_y
_atom_site_fract_z
Si Si1 0.268848 0.350697 0.871735
Si Si2 0.863702 0.246918 0.266340
Si Si3 0.293293 0.457197 0.500000
Si Si4 0.711508 0.025764 0.277692
Si Si5 0.059987 0.440014 0.630236
Si Si6 0.818775 0.880585 0.500000
O O1 0.206493 0.293508 0.856830
O O2 0.339803 0.320523 0.810022
O O3 0.239736 0.424674 0.821969
O O4 0.289318 0.364259 0.000000
O O5 0.816550 0.316550 0.238269
O O6 0.945952 0.265855 0.242963
O O7 0.851914 0.225594 0.394805
O O8 0.245703 0.445521 0.608689
O O9 0.328429 0.534691 0.500000
O O10 0.355661 0.399868 0.500000
O O11 0.626923 0.029764 0.299594
O O12 0.078767 0.421234 0.500000
O O13 0.000000 0.500000 0.631693
#
# Coordination Sequence:
#
# PCOD8313997 Si02
#       6
#    16  16   8  16   8   8
#     4  10  21  37  58  80 104 143 194 238 278 323
#     4  10  21  35  55  83 112 143 182 231 279 334
#     4  10  20  32  53  83 108 145 185 219 282 342
#     4  11  20  36  56  82 115 148 187 228 281 343
#     4  11  22  34  53  85 125 159 184 224 281 352
#     4  10  19  33  53  80 113 142 176 228 278 340
#
# _framework density 17.303013
#
# number of rings (size 3 to 8) (size 9 to 14) (size 15 to 20)
#    0.000    1.667    4.444    1.000    0.000    1.111 
#    2.000    0.000    0.000    3.333    0.000    1.556 
#    0.000    0.000    0.000    0.000    0.000    0.000 
#
# Total GULP energy -892858.650248 kJ/mol
# GULP energy per Si atom -12400.814587 kJ/mol
# Density = 1.726363 g / cm^3
# Si number density = 17.303013 Si / 1000 Ang^3
#
#
#
# Elastic Constant Matrix: (Units=GPa)
#
#
# Indices 1 2 3 4 5 6 
#
# 1 88.8968 56.3809 48.5995 0.0000 0.0000 0.0000
# 2 56.3809 88.8970 48.5995 0.0000 0.0000 0.0000
# 3 48.5995 48.5995 117.0253 0.0000 0.0000 0.0000
# 4 0.0000 0.0000 0.0000 28.9345 0.0000 0.0000
# 5 0.0000 0.0000 0.0000 0.0000 28.9347 0.0000
# 6 0.0000 0.0000 0.0000 0.0000 0.0000 26.8360
#
#
#
# Elastic Compliance Matrix: (Units=1/GPa)
#
#
# Indices 1 2 3 4 5 6 
#
# 1 0.020143 -0.010611 -0.003958 0.000000 0.000000 0.000000
# 2 -0.010611 0.020143 -0.003958 0.000000 0.000000 0.000000
# 3 -0.003958 -0.003958 0.011833 0.000000 0.000000 0.000000
# 4 0.000000 0.000000 0.000000 0.034561 0.000000 0.000000
# 5 0.000000 0.000000 0.000000 0.000000 0.034561 0.000000
# 6 0.000000 0.000000 0.000000 0.000000 0.000000 0.037263
#
#
# Mechanical properties :
#
#
# Convention : Reuss Voigt Hill
#
# Bulk Modulus (GPa) = 66.38905 66.88653 66.63779
# Shear Modulus (GPa) = 24.92763 26.35700 25.64231
#
# Velocity S-wave (km/s) = 3.79971 3.90713 3.85380
# Velocity P-wave (km/s) = 7.59620 7.68727 7.64187
#
# Compressibility (1/GPa) = 0.01506273
#
# Stress axis : x y z
#
# Youngs Moduli (GPa) = 49.64510 49.64521 84.50955
#
# Poissons Ratio (x) = 0.52679 0.33453
# Poissons Ratio (y) = 0.52679 0.33453
# Poissons Ratio (z) = 0.19652 0.19652
#
# Static dielectric constant tensor:
#      x y z
#    x 3.186710 0.000000 0.000000 
#    y 0.000000 3.186710 0.000000 
#    z 0.000000 0.000000 3.251400 
# 
# 
# High freq. dielectric constant tensor:
#      x y z
#    x 1.670220 0.000000 0.000000 
#    y 0.000000 1.670220 0.000000 
#    z 0.000000 0.000000 1.664110 
# 
# From -- ./inp_files/3212.got.cif
#   From: 2010.03.12/outbox.cif.g09.slc.cpg/sg127_2_cif.got.tgz:3212.got - 2010.04.06 17:03:15.
