data_PCOD8313770
_publ_section_title
;
Structure prediction by ZEFSAII (Michael W. Deem and Ramdas Pophale) SiO2 
 PCOD8313770
Probable space group: P 4/N N C
;
_chemical_formula_sum "Si O2"
_cell_formula_units_Z 120
_cell_length_a 14.741116
_cell_length_b 14.741116
_cell_length_c 29.359583
_cell_angle_alpha 90.000000
_cell_angle_beta 90.000000
_cell_angle_gamma 90.000000
_cell_volume 6379.852093
_symmetry_space_group_name_H-M "P 4/N N C"
_symmetry_group_IT_number 126
_space_group.IT_coordinate_system_code '2'
_symmetry_cell_setting 'tetragonal'
loop_
_space_group_symop_operation_xyz
x,y,z
1/2-y,x,z
1/2-x,1/2-y,z
y,1/2-x,z
x,1/2-y,1/2-z
1/2-x,y,1/2-z
y,x,1/2-z
1/2-y,1/2-x,1/2-z
-x,-y,-z
1/2+y,-x,-z
1/2+x,1/2+y,-z
-y,1/2+x,-z
-x,1/2+y,1/2+z
1/2+x,-y,1/2+z
-y,-x,1/2+z
1/2+y,1/2+x,1/2+z
loop_
_atom_site_type_symbol
_atom_site_label
_atom_site_fract_x
_atom_site_fract_y
_atom_site_fract_z
Si Si1 0.258628 0.891167 0.009653
Si Si2 0.400886 0.250000 0.250000
Si Si3 0.488555 0.712858 0.079117
Si Si4 0.575175 0.909712 0.602063
Si Si5 0.736019 0.991925 0.654729
Si Si6 0.654430 0.296359 0.396087
Si Si7 0.409065 0.040298 0.575636
Si Si8 0.658139 0.866395 0.507760
O O1 0.226738 0.914486 0.061088
O O2 0.342779 0.823345 0.017108
O O3 0.287721 0.973328 0.976539
O O4 0.339150 0.339150 0.250000
O O5 0.466431 0.249457 0.293170
O O6 0.402232 0.673616 0.105350
O O7 0.566477 0.641541 0.093135
O O8 0.511355 0.813132 0.098088
O O9 0.635725 0.963397 0.638363
O O10 0.550785 0.814754 0.624621
O O11 0.639096 0.888968 0.559710
O O12 0.485540 0.965699 0.586899
O O13 0.737227 0.101780 0.649019
O O14 0.750000 0.250000 0.402572
O O15 0.392856 0.055099 0.521402
O O16 0.625246 0.764855 0.496271
#
# Coordination Sequence:
#
# PCOD8313770 Si02
#       8
#    16   8  16  16  16  16  16  16
#     4   9  17  32  52  77 113 161 215 257 300 351
#     4  11  24  46  71  98 130 158 187 240 328 413
#     4  11  23  37  55  81 118 170 221 266 307 357
#     4  12  25  39  61  91 123 160 214 264 311 374
#     4  12  25  42  68  97 122 160 205 260 319 394
#     4  11  21  40  59  86 123 162 212 265 310 364
#     4  12  25  40  55  81 123 173 223 265 309 357
#     4  11  23  38  55  78 121 173 219 265 309 355
#
# _framework density 18.809213
#
# number of rings (size 3 to 8) (size 9 to 14) (size 15 to 20)
#    0.000    0.867    8.000    1.200    3.733    1.600 
#    0.000    0.333    0.000    0.000    0.000    0.000 
#    0.000    0.000    0.000    0.000    0.267    0.000 
#
# Total GULP energy -1486998.440107 kJ/mol
# GULP energy per Si atom -12391.653668 kJ/mol
# Density = 1.876640 g / cm^3
# Si number density = 18.809213 Si / 1000 Ang^3
#
#
#
# Elastic Constant Matrix: (Units=GPa)
#
#
# Indices 1 2 3 4 5 6 
#
# 1 74.6340 25.7315 43.3632 0.0000 0.0000 0.0000
# 2 25.7315 74.6340 43.3632 0.0000 0.0000 0.0000
# 3 43.3632 43.3632 88.0402 0.0000 0.0000 0.0000
# 4 0.0000 0.0000 0.0000 21.0499 0.0000 0.0000
# 5 0.0000 0.0000 0.0000 0.0000 21.0499 0.0000
# 6 0.0000 0.0000 0.0000 0.0000 0.0000 31.4864
#
#
#
# Elastic Compliance Matrix: (Units=1/GPa)
#
#
# Indices 1 2 3 4 5 6 
#
# 1 0.018898 -0.001551 -0.008544 0.000000 0.000000 0.000000
# 2 -0.001551 0.018898 -0.008544 0.000000 0.000000 0.000000
# 3 -0.008544 -0.008544 0.019775 0.000000 0.000000 0.000000
# 4 0.000000 0.000000 0.000000 0.047506 0.000000 0.000000
# 5 0.000000 0.000000 0.000000 0.000000 0.047506 0.000000
# 6 0.000000 0.000000 0.000000 0.000000 0.000000 0.031760
#
#
# Mechanical properties :
#
#
# Convention : Reuss Voigt Hill
#
# Bulk Modulus (GPa) = 49.27968 51.35825 50.31897
# Shear Modulus (GPa) = 21.89301 23.04058 22.46680
#
# Velocity S-wave (km/s) = 3.41537 3.50374 3.45984
# Velocity P-wave (km/s) = 6.46604 6.61305 6.53996
#
# Compressibility (1/GPa) = 0.02029234
#
# Stress axis : x y z
#
# Youngs Moduli (GPa) = 52.91692 52.91692 50.56981
#
# Poissons Ratio (x) = 0.08209 0.43205
# Poissons Ratio (y) = 0.08209 0.43205
# Poissons Ratio (z) = 0.45211 0.45211
#
# Static dielectric constant tensor:
#      x y z
#    x 3.755550 0.000000 0.000000 
#    y 0.000000 3.755550 0.000000 
#    z 0.000000 0.000000 3.008070 
# 
# 
# High freq. dielectric constant tensor:
#      x y z
#    x 1.750710 0.000000 0.000000 
#    y 0.000000 1.750710 0.000000 
#    z 0.000000 0.000000 1.658190 
# 
# From -- ./inp_files/6658.got.cif
#   From: 2010.03.12/outbox.cif.g09.slc.cpg/sg126_4_cif.got.tgz:6658.got - 2010.04.06 16:55:23.
