data_PCOD8313012
_publ_section_title
;
Structure prediction by ZEFSAII (Michael W. Deem and Ramdas Pophale) SiO2 
 PCOD8313012
Probable space group: P 4/M M M
;
_chemical_formula_sum "Si O2"
_cell_formula_units_Z 80
_cell_length_a 14.464824
_cell_length_b 14.464824
_cell_length_c 25.359112
_cell_angle_alpha 90.000000
_cell_angle_beta 90.000000
_cell_angle_gamma 90.000000
_cell_volume 5305.915745
_symmetry_space_group_name_H-M "P 4/M M M"
_symmetry_group_IT_number 123
_symmetry_cell_setting 'tetragonal'
loop_
_space_group_symop_operation_xyz
x,y,z
-y,x,z
-x,-y,z
y,-x,z
x,-y,-z
-x,y,-z
y,x,-z
-y,-x,-z
-x,-y,-z
y,-x,-z
x,y,-z
-y,x,-z
-x,y,z
x,-y,z
-y,-x,z
y,x,z
loop_
_atom_site_type_symbol
_atom_site_label
_atom_site_fract_x
_atom_site_fract_y
_atom_site_fract_z
Si Si1 0.743128 0.893572 0.060284
Si Si2 0.254194 0.106113 0.643057
Si Si3 0.397034 0.109217 0.851449
Si Si4 0.602684 0.109699 0.441417
Si Si5 0.742442 0.106504 0.237251
O O1 0.834251 0.834251 0.072998
O O2 0.658487 0.858733 0.096481
O O3 0.768518 0.000000 0.072654
O O4 0.711149 0.880821 0.000000
O O5 0.157711 0.157711 0.635200
O O6 0.329283 0.149802 0.603140
O O7 0.291523 0.118288 0.702565
O O8 0.234053 0.000000 0.629486
O O9 0.500000 0.153996 0.851483
O O10 0.341411 0.141481 0.799472
O O11 0.407149 0.000000 0.851342
O O12 0.637072 0.138620 0.500000
O O13 0.500000 0.149833 0.431411
O O14 0.599120 0.000000 0.436750
O O15 0.833638 0.166363 0.225451
O O16 0.768272 0.000000 0.224954
#
# Coordination Sequence:
#
# PCOD8313012 Si02
#       5
#    16  16  16  16  16
#     4   9  17  28  42  61  85 112 140 168 196 229
#     4   9  17  27  39  57  81 109 138 165 194 231
#     4   9  17  28  41  57  78 105 136 169 204 239
#     4   8  14  25  40  56  74  99 133 171 206 236
#     4   9  17  28  41  58  81 108 137 167 197 232
#
# _framework density 15.077510999999999
#
# number of rings (size 3 to 8) (size 9 to 14) (size 15 to 20)
#    0.000    3.200    0.000    1.200    0.000    2.200 
#    0.000    9.000    0.000    3.600    0.000    2.800 
#    0.000    6.800    0.000   19.800    0.000    6.600 
#
# Total GULP energy -991599.284507 kJ/mol
# GULP energy per Si atom -12394.991056 kJ/mol
# Density = 1.504319 g / cm^3
# Si number density = 15.077511 Si / 1000 Ang^3
#
#
#
# Elastic Constant Matrix: (Units=GPa)
#
#
# Indices 1 2 3 4 5 6 
#
# 1 73.0751 37.7290 54.3623 0.0000 0.0000 0.0000
# 2 37.7290 73.0751 54.3623 0.0000 0.0000 0.0000
# 3 54.3623 54.3623 114.5833 0.0000 0.0000 0.0000
# 4 0.0000 0.0000 0.0000 23.2259 0.0000 0.0000
# 5 0.0000 0.0000 0.0000 0.0000 23.2259 0.0000
# 6 0.0000 0.0000 0.0000 0.0000 0.0000 3.1179
#
#
#
# Elastic Compliance Matrix: (Units=1/GPa)
#
#
# Indices 1 2 3 4 5 6 
#
# 1 0.022589 -0.005703 -0.008011 0.000000 0.000000 0.000000
# 2 -0.005703 0.022589 -0.008011 0.000000 0.000000 0.000000
# 3 -0.008011 -0.008011 0.016329 0.000000 0.000000 0.000000
# 4 0.000000 0.000000 0.000000 0.043055 0.000000 0.000000
# 5 0.000000 0.000000 0.000000 0.000000 0.043055 0.000000
# 6 0.000000 0.000000 0.000000 0.000000 0.000000 0.320726
#
#
# Mechanical properties :
#
#
# Convention : Reuss Voigt Hill
#
# Bulk Modulus (GPa) = 55.38438 61.51563 58.45000
# Shear Modulus (GPa) = 9.65601 17.53261 13.59431
#
# Velocity S-wave (km/s) = 2.53341 3.41373 3.00597
# Velocity P-wave (km/s) = 6.73575 7.51174 7.13431
#
# Compressibility (1/GPa) = 0.01805563
#
# Stress axis : x y z
#
# Youngs Moduli (GPa) = 44.26984 44.26984 61.24121
#
# Poissons Ratio (x) = 0.25247 0.49062
# Poissons Ratio (y) = 0.25247 0.49062
# Poissons Ratio (z) = 0.35466 0.35466
#
# Static dielectric constant tensor:
#      x y z
#    x 2.800690 0.000000 0.000000 
#    y 0.000000 2.800690 0.000000 
#    z 0.000000 0.000000 3.177100 
# 
# 
# High freq. dielectric constant tensor:
#      x y z
#    x 1.546010 0.000000 0.000000 
#    y 0.000000 1.546010 0.000000 
#    z 0.000000 0.000000 1.596200 
# 
# From -- ./inp_files/7090.got.cif
#   From: 2010.03.12/outbox.cif.g09.slc.cpg/sg123_4_cif.got.tgz:7090.got - 2010.04.06 16:26:55.
