data_PCOD8313461
_publ_section_title
;
Structure prediction by ZEFSAII (Michael W. Deem and Ramdas Pophale) SiO2 
 PCOD8313461
Probable space group: P 4/N B M
;
_chemical_formula_sum "Si O2"
_cell_formula_units_Z 96
_cell_length_a 14.444588
_cell_length_b 14.444588
_cell_length_c 22.955850
_cell_angle_alpha 90.000000
_cell_angle_beta 90.000000
_cell_angle_gamma 90.000000
_cell_volume 4789.649091
_symmetry_space_group_name_H-M "P 4/N B M"
_symmetry_group_IT_number 125
_space_group.IT_coordinate_system_code '2'
_symmetry_cell_setting 'tetragonal'
loop_
_space_group_symop_operation_xyz
x,y,z
1/2-y,x,z
1/2-x,1/2-y,z
y,1/2-x,z
x,1/2-y,-z
1/2-x,y,-z
y,x,-z
1/2-y,1/2-x,-z
-x,-y,-z
1/2+y,-x,-z
1/2+x,1/2+y,-z
-y,1/2+x,-z
-x,1/2+y,z
1/2+x,-y,z
-y,-x,z
1/2+y,1/2+x,z
loop_
_atom_site_type_symbol
_atom_site_label
_atom_site_fract_x
_atom_site_fract_y
_atom_site_fract_z
Si Si1 0.418119 0.429325 0.316399
Si Si2 0.175068 0.824933 0.673635
Si Si3 0.202767 0.547751 0.877142
Si Si4 0.507474 0.754785 0.377320
Si Si5 0.328034 0.828034 0.196021
Si Si6 0.115036 0.177610 0.799869
Si Si7 0.250000 0.902204 0.000000
Si Si8 0.596408 0.750000 0.500000
O O1 0.516461 0.483540 0.313874
O O2 0.430886 0.323212 0.336792
O O3 0.352302 0.477870 0.362909
O O4 0.361628 0.437422 0.256423
O O5 0.250000 0.750000 0.689585
O O6 0.141386 0.858615 0.738258
O O7 0.097840 0.779883 0.633521
O O8 0.125707 0.625707 0.875724
O O9 0.288850 0.580458 0.836436
O O10 0.157914 0.451636 0.854824
O O11 0.236290 0.533047 0.943534
O O12 0.530569 0.763710 0.444878
O O13 0.250000 0.750000 0.194956
O O14 0.212152 0.126296 0.801582
O O15 0.338687 0.838687 0.012416
O O16 0.659176 0.659176 0.500000
#
# Coordination Sequence:
#
# PCOD8313461 Si02
#       8
#    16   8  16  16   8  16   8   8
#     4  12  24  42  68  98 133 169 217 275 334 391
#     4  11  24  44  63  97 142 177 212 268 349 411
#     4  10  19  36  61  95 127 166 214 268 323 387
#     4  12  24  44  68 100 128 171 223 273 331 396
#     4   9  18  34  62  93 127 165 204 255 323 386
#     4  11  24  41  61  88 126 170 217 269 324 391
#     4   9  16  32  60  93 130 166 214 267 326 392
#     4  11  24  44  71  94 124 168 225 280 318 385
#
# _framework density 20.043220999999999
#
# number of rings (size 3 to 8) (size 9 to 14) (size 15 to 20)
#    0.000    1.167    5.000    2.000    0.000    1.667 
#    4.500    2.083    0.000    3.000    0.000    0.000 
#    0.000    0.000    0.000    0.000    0.000    0.000 
#
# Total GULP energy -1190199.963341 kJ/mol
# GULP energy per Si atom -12397.916285 kJ/mol
# Density = 1.999760 g / cm^3
# Si number density = 20.043221 Si / 1000 Ang^3
#
#
#
# Elastic Constant Matrix: (Units=GPa)
#
#
# Indices 1 2 3 4 5 6 
#
# 1 76.0039 7.6535 42.1665 0.0000 0.0000 0.0000
# 2 7.6535 76.0039 42.1665 0.0000 0.0000 0.0000
# 3 42.1665 42.1665 167.4153 0.0000 0.0000 0.0000
# 4 0.0000 0.0000 0.0000 37.8992 0.0000 0.0000
# 5 0.0000 0.0000 0.0000 0.0000 37.8992 0.0000
# 6 0.0000 0.0000 0.0000 0.0000 0.0000 17.8769
#
#
#
# Elastic Compliance Matrix: (Units=1/GPa)
#
#
# Indices 1 2 3 4 5 6 
#
# 1 0.015326 0.000695 -0.004035 0.000000 0.000000 0.000000
# 2 0.000695 0.015326 -0.004035 0.000000 0.000000 0.000000
# 3 -0.004035 -0.004035 0.008006 0.000000 0.000000 0.000000
# 4 0.000000 0.000000 0.000000 0.026386 0.000000 0.000000
# 5 0.000000 0.000000 0.000000 0.000000 0.026386 0.000000
# 6 0.000000 0.000000 0.000000 0.000000 0.000000 0.055938
#
#
# Mechanical properties :
#
#
# Convention : Reuss Voigt Hill
#
# Bulk Modulus (GPa) = 41.82778 55.93290 48.88034
# Shear Modulus (GPa) = 29.39676 33.89749 31.64712
#
# Velocity S-wave (km/s) = 3.83387 4.11691 3.97790
# Velocity P-wave (km/s) = 6.36491 7.11093 6.74824
#
# Compressibility (1/GPa) = 0.02390755
#
# Stress axis : x y z
#
# Youngs Moduli (GPa) = 65.24891 65.24891 124.90821
#
# Poissons Ratio (x) = -0.04538 0.50404
# Poissons Ratio (y) = -0.04538 0.50404
# Poissons Ratio (z) = 0.26330 0.26330
#
# Static dielectric constant tensor:
#      x y z
#    x 3.559610 0.000000 0.000000 
#    y 0.000000 3.559610 0.000000 
#    z 0.000000 0.000000 3.724150 
# 
# 
# High freq. dielectric constant tensor:
#      x y z
#    x 1.776420 0.000000 0.000000 
#    y 0.000000 1.776420 0.000000 
#    z 0.000000 0.000000 1.782450 
# 
# From -- ./inp_files/6009.got.cif
#   From: 2010.03.12/outbox.cif.g09.slc.cpg/sg125_4_cif.got.tgz:6009.got - 2010.04.06 16:47:52.
