data_PCOD8313297
_publ_section_title
;
Structure prediction by ZEFSAII (Michael W. Deem and Ramdas Pophale) SiO2 
 PCOD8313297
Probable space group: P 4/M C C
;
_chemical_formula_sum "Si O2"
_cell_formula_units_Z 112
_cell_length_a 13.945734
_cell_length_b 13.945734
_cell_length_c 25.386356
_cell_angle_alpha 90.000000
_cell_angle_beta 90.000000
_cell_angle_gamma 90.000000
_cell_volume 4937.227286
_symmetry_space_group_name_H-M "P 4/M C C"
_symmetry_group_IT_number 124
_symmetry_cell_setting 'tetragonal'
loop_
_space_group_symop_operation_xyz
x,y,z
-y,x,z
-x,-y,z
y,-x,z
x,-y,1/2-z
-x,y,1/2-z
y,x,1/2-z
-y,-x,1/2-z
-x,-y,-z
y,-x,-z
x,y,-z
-y,x,-z
-x,y,1/2+z
x,-y,1/2+z
-y,-x,1/2+z
y,x,1/2+z
loop_
_atom_site_type_symbol
_atom_site_label
_atom_site_fract_x
_atom_site_fract_y
_atom_site_fract_z
Si Si1 0.320571 0.712671 0.414340
Si Si2 0.476711 0.790080 0.082796
Si Si3 0.288356 0.783346 0.698623
Si Si4 0.370922 0.977133 0.941751
Si Si5 0.898980 0.888183 0.334386
Si Si6 0.863667 0.180171 0.441934
Si Si7 0.086995 0.559444 0.160926
O O1 0.424940 0.740272 0.437493
O O2 0.290665 0.603590 0.426795
O O3 0.319780 0.720652 0.351030
O O4 0.246337 0.785438 0.440702
O O5 0.448883 0.890502 0.054041
O O6 0.489978 0.824063 0.144218
O O7 0.285233 0.714768 0.750000
O O8 0.181399 0.823057 0.692089
O O9 0.362208 0.873893 0.702558
O O10 0.268303 0.932817 0.927905
O O11 0.392136 0.052362 0.894748
O O12 0.369019 0.026022 0.000000
O O13 0.900759 0.879152 0.398129
O O14 0.006483 0.866781 0.315621
O O15 0.884654 0.137682 0.500000
O O16 0.000000 0.500000 0.187373
#
# Coordination Sequence:
#
# PCOD8313297 Si02
#       7
#    16  16  16  16  16  16  16
#     4   9  19  36  54  78 109 143 185 236 288 350
#     4   9  18  32  52  77 112 147 182 228 285 349
#     4  10  21  39  61  81 110 151 185 232 304 358
#     4   9  17  31  55  84 112 145 188 241 294 339
#     4  10  21  36  53  77 111 147 187 228 266 332
#     4   9  18  33  53  76 105 143 184 229 285 342
#     4   9  18  34  57  86 115 144 191 247 293 351
#
# _framework density 22.684795999999999
#
# number of rings (size 3 to 8) (size 9 to 14) (size 15 to 20)
#    0.000    2.714    0.000    0.857    0.000    5.714 
#    0.000   12.857    0.000    7.714    0.000    8.000 
#    0.000    0.000    0.000    0.000    0.000    0.000 
#
# Total GULP energy -1387712.243617 kJ/mol
# GULP energy per Si atom -12390.287889 kJ/mol
# Density = 2.263316 g / cm^3
# Si number density = 22.684796 Si / 1000 Ang^3
#
#
#
# Elastic Constant Matrix: (Units=GPa)
#
#
# Indices 1 2 3 4 5 6 
#
# 1 54.8664 16.8009 3.6691 0.0000 0.0000 0.0000
# 2 16.8009 54.8666 3.6691 0.0000 0.0000 0.0000
# 3 3.6691 3.6691 85.7056 0.0000 0.0000 0.0000
# 4 0.0000 0.0000 0.0000 14.9347 0.0000 0.0000
# 5 0.0000 0.0000 0.0000 0.0000 14.9345 0.0000
# 6 0.0000 0.0000 0.0000 0.0000 0.0000 31.3907
#
#
#
# Elastic Compliance Matrix: (Units=1/GPa)
#
#
# Indices 1 2 3 4 5 6 
#
# 1 0.020143 -0.006128 -0.000600 0.000000 0.000000 0.000000
# 2 -0.006128 0.020143 -0.000600 0.000000 0.000000 0.000000
# 3 -0.000600 -0.000600 0.011719 0.000000 0.000000 0.000000
# 4 0.000000 0.000000 0.000000 0.066958 0.000000 0.000000
# 5 0.000000 0.000000 0.000000 0.000000 0.066959 0.000000
# 6 0.000000 0.000000 0.000000 0.000000 0.000000 0.031857
#
#
# Mechanical properties :
#
#
# Convention : Reuss Voigt Hill
#
# Bulk Modulus (GPa) = 26.77456 27.07962 26.92709
# Shear Modulus (GPa) = 20.41786 23.67194 22.04490
#
# Velocity S-wave (km/s) = 3.00337 3.23385 3.12074
# Velocity P-wave (km/s) = 4.88420 5.08989 4.98811
#
# Compressibility (1/GPa) = 0.03734889
#
# Stress axis : x y z
#
# Youngs Moduli (GPa) = 49.64594 49.64616 85.32987
#
# Poissons Ratio (x) = 0.30422 0.05120
# Poissons Ratio (y) = 0.30422 0.05120
# Poissons Ratio (z) = 0.02979 0.02979
#
# Static dielectric constant tensor:
#      x y z
#    x 4.138800 0.000000 0.000000 
#    y 0.000000 4.138800 0.000000 
#    z 0.000000 0.000000 3.801000 
# 
# 
# High freq. dielectric constant tensor:
#      x y z
#    x 1.887330 0.000000 0.000000 
#    y 0.000000 1.887330 0.000000 
#    z 0.000000 0.000000 1.867140 
# 
# From -- ./inp_files/6657.got.cif
#   From: 2010.03.12/outbox.cif.g09.slc.cpg/sg124_4_cif.got.tgz:6657.got - 2010.04.06 16:38:57.
