data_PCOD8313092
_publ_section_title
;
Structure prediction by ZEFSAII (Michael W. Deem and Ramdas Pophale) SiO2 
 PCOD8313092
Probable space group: P 4/M C C
;
_chemical_formula_sum "Si O2"
_cell_formula_units_Z 96
_cell_length_a 30.404404
_cell_length_b 30.404404
_cell_length_c 10.022685
_cell_angle_alpha 90.000000
_cell_angle_beta 90.000000
_cell_angle_gamma 90.000000
_cell_volume 9265.248470
_symmetry_space_group_name_H-M "P 4/M C C"
_symmetry_group_IT_number 124
_symmetry_cell_setting 'tetragonal'
loop_
_space_group_symop_operation_xyz
x,y,z
-y,x,z
-x,-y,z
y,-x,z
x,-y,1/2-z
-x,y,1/2-z
y,x,1/2-z
-y,-x,1/2-z
-x,-y,-z
y,-x,-z
x,y,-z
-y,x,-z
-x,y,1/2+z
x,-y,1/2+z
-y,-x,1/2+z
y,x,1/2+z
loop_
_atom_site_type_symbol
_atom_site_label
_atom_site_fract_x
_atom_site_fract_y
_atom_site_fract_z
Si Si1 0.445833 0.203680 0.500000
Si Si2 0.104586 0.446299 0.000000
Si Si3 0.552445 0.049451 0.751346
Si Si4 0.464518 0.410944 0.846261
Si Si5 0.448668 0.101976 0.000000
Si Si6 0.552154 0.742189 0.755153
Si Si7 0.608092 0.660915 0.151330
Si Si8 0.800642 0.450556 0.000000
O O1 0.425875 0.154077 0.500000
O O2 0.430916 0.232633 0.624919
O O3 0.497389 0.196119 0.500000
O O4 0.077144 0.428949 0.125460
O O5 0.105407 0.498851 0.000000
O O6 0.500000 0.047447 0.750000
O O7 0.570038 0.075459 0.624445
O O8 0.571598 0.000000 0.750000
O O9 0.500000 0.385913 0.750000
O O10 0.452851 0.452851 0.750000
O O11 0.421913 0.381575 0.865176
O O12 0.481249 0.422461 0.000000
O O13 0.429064 0.151074 0.000000
O O14 0.500000 0.731311 0.750000
O O15 0.579477 0.698091 0.776201
O O16 0.565497 0.775049 0.871527
O O17 0.649003 0.649003 0.250000
O O18 0.623648 0.674451 0.000000
#
# Coordination Sequence:
#
# PCOD8313092 Si02
#       8
#     8   8  16  16   8  16  16   8
#     4   9  18  25  39  56  69  87 104 126 153 172
#     4   9  15  24  31  45  67  83 106 135 154 171
#     4   9  15  21  30  43  61  86 113 134 153 173
#     4  10  20  34  48  63  76  89 101 114 131 153
#     4   9  15  22  33  45  61  87 106 131 156 171
#     4  10  18  30  43  59  72  86 103 121 143 174
#     4  10  21  34  46  59  73  86  99 116 139 167
#     4   9  16  27  39  52  71  85 106 126 149 174
#
# _framework density 10.361298
#
# number of rings (size 3 to 8) (size 9 to 14) (size 15 to 20)
#    0.000    2.500    0.833    2.500    1.167    6.833 
#    0.000    0.833    0.000    0.000    0.000    0.000 
#    0.000    0.000    0.000    0.000    0.000    0.000 
#
# Total GULP energy -1189270.774009 kJ/mol
# GULP energy per Si atom -12388.237229 kJ/mol
# Density = 1.033772 g / cm^3
# Si number density = 10.361298 Si / 1000 Ang^3
#
#
#
# Elastic Constant Matrix: (Units=GPa)
#
#
# Indices 1 2 3 4 5 6 
#
# 1 46.8615 12.5190 29.7191 0.0000 0.0000 0.0000
# 2 12.5190 46.8615 29.7191 0.0000 0.0000 0.0000
# 3 29.7191 29.7191 112.2393 0.0000 0.0000 0.0000
# 4 0.0000 0.0000 0.0000 10.6278 0.0000 0.0000
# 5 0.0000 0.0000 0.0000 0.0000 10.6278 0.0000
# 6 0.0000 0.0000 0.0000 0.0000 0.0000 0.8398
#
#
#
# Elastic Compliance Matrix: (Units=1/GPa)
#
#
# Indices 1 2 3 4 5 6 
#
# 1 0.026016 -0.003102 -0.006067 0.000000 0.000000 0.000000
# 2 -0.003102 0.026016 -0.006067 0.000000 0.000000 0.000000
# 3 -0.006067 -0.006067 0.012122 0.000000 0.000000 0.000000
# 4 0.000000 0.000000 0.000000 0.094093 0.000000 0.000000
# 5 0.000000 0.000000 0.000000 0.000000 0.094093 0.000000
# 6 0.000000 0.000000 0.000000 0.000000 0.000000 1.190715
#
#
# Mechanical properties :
#
#
# Convention : Reuss Voigt Hill
#
# Bulk Modulus (GPa) = 29.69027 38.87521 34.28274
# Shear Modulus (GPa) = 3.36756 13.35277 8.36017
#
# Velocity S-wave (km/s) = 1.80477 3.59376 2.84362
# Velocity P-wave (km/s) = 5.74979 7.40414 6.62878
#
# Compressibility (1/GPa) = 0.03368107
#
# Stress axis : x y z
#
# Youngs Moduli (GPa) = 38.43790 38.43790 82.49132
#
# Poissons Ratio (x) = 0.11925 0.50049
# Poissons Ratio (y) = 0.11925 0.50049
# Poissons Ratio (z) = 0.23321 0.23321
#
# Static dielectric constant tensor:
#      x y z
#    x 2.077860 0.000000 0.000000 
#    y 0.000000 2.077860 0.000000 
#    z 0.000000 0.000000 2.676230 
# 
# 
# High freq. dielectric constant tensor:
#      x y z
#    x 1.349290 0.000000 0.000000 
#    y 0.000000 1.349290 0.000000 
#    z 0.000000 0.000000 1.416940 
# 
# From -- ./inp_files/1738.got.cif
#   From: 2010.03.12/outbox.cif.g09.slc.cpg/sg124_1_cif.got.tgz:1738.got - 2010.04.06 16:38:57.
