data_PCOD8313924
_publ_section_title
;
Structure prediction by ZEFSAII (Michael W. Deem and Ramdas Pophale) SiO2 
 PCOD8313924
Probable space group: P 4/M B M
;
_chemical_formula_sum "Si O2"
_cell_formula_units_Z 96
_cell_length_a 25.104567
_cell_length_b 25.104567
_cell_length_c 9.218436
_cell_angle_alpha 90.000000
_cell_angle_beta 90.000000
_cell_angle_gamma 90.000000
_cell_volume 5809.820507
_symmetry_space_group_name_H-M "P 4/M B M"
_symmetry_group_IT_number 127
_symmetry_cell_setting 'tetragonal'
loop_
_space_group_symop_operation_xyz
x,y,z
-y,x,z
-x,-y,z
y,-x,z
1/2+x,1/2-y,-z
1/2-x,1/2+y,-z
1/2+y,1/2+x,-z
1/2-y,1/2-x,-z
-x,-y,-z
y,-x,-z
x,y,-z
-y,x,-z
1/2-x,1/2+y,z
1/2+x,1/2-y,z
1/2-y,1/2-x,z
1/2+y,1/2+x,z
loop_
_atom_site_type_symbol
_atom_site_label
_atom_site_fract_x
_atom_site_fract_y
_atom_site_fract_z
Si Si1 0.396960 0.306408 0.669634
Si Si2 0.812796 0.102976 0.332191
Si Si3 0.315306 0.499297 0.163109
Si Si4 0.808430 0.607209 0.329650
Si Si5 0.110366 0.697217 0.829551
Si Si6 0.005770 0.311257 0.839875
O O1 0.409425 0.298913 0.500000
O O2 0.347586 0.345204 0.697287
O O3 0.448544 0.332332 0.746494
O O4 0.380009 0.250231 0.737458
O O5 0.813398 0.085994 0.500000
O O6 0.837125 0.053826 0.241187
O O7 0.752572 0.116707 0.281555
O O8 0.252150 0.496715 0.160497
O O9 0.338680 0.502584 0.000000
O O10 0.813691 0.602593 0.500000
O O11 0.843582 0.656419 0.270226
O O12 0.831675 0.551842 0.266548
O O13 0.156005 0.656005 0.786295
O O14 0.053271 0.669906 0.790679
O O15 0.111377 0.712096 0.000000
O O16 0.019315 0.332934 0.000000
#
# Coordination Sequence:
#
# PCOD8313924 Si02
#       6
#    16  16  16  16  16  16
#     4  10  19  30  47  71  97 123 152 188 231 279
#     4   9  18  31  47  68  94 123 153 187 226 270
#     4   9  17  30  48  67  89 120 157 193 226 266
#     4   9  17  29  45  65  90 119 149 183 224 268
#     4   9  18  32  48  67  93 123 155 193 234 274
#     4   8  15  28  45  64  85 113 151 190 225 264
#
# _framework density 16.523745999999999
#
# number of rings (size 3 to 8) (size 9 to 14) (size 15 to 20)
#    0.000    3.000    0.000    2.000    0.000    6.667 
#    0.000    1.667    0.000    1.000    0.000    7.000 
#    0.000    0.000    0.000    0.000    0.000    0.000 
#
# Total GULP energy -1190051.094381 kJ/mol
# GULP energy per Si atom -12396.365566 kJ/mol
# Density = 1.648614 g / cm^3
# Si number density = 16.523746 Si / 1000 Ang^3
#
#
#
# Elastic Constant Matrix: (Units=GPa)
#
#
# Indices 1 2 3 4 5 6 
#
# 1 92.2935 55.0196 50.1042 0.0000 0.0000 0.0000
# 2 55.0196 92.2935 50.1042 0.0000 0.0000 0.0000
# 3 50.1042 50.1042 78.0225 0.0000 0.0000 0.0000
# 4 0.0000 0.0000 0.0000 24.5292 0.0000 0.0000
# 5 0.0000 0.0000 0.0000 0.0000 24.5292 0.0000
# 6 0.0000 0.0000 0.0000 0.0000 0.0000 3.3366
#
#
#
# Elastic Compliance Matrix: (Units=1/GPa)
#
#
# Indices 1 2 3 4 5 6 
#
# 1 0.019441 -0.007387 -0.007741 0.000000 0.000000 0.000000
# 2 -0.007387 0.019441 -0.007741 0.000000 0.000000 0.000000
# 3 -0.007741 -0.007741 0.022759 0.000000 0.000000 0.000000
# 4 0.000000 0.000000 0.000000 0.040768 0.000000 0.000000
# 5 0.000000 0.000000 0.000000 0.000000 0.040768 0.000000
# 6 0.000000 0.000000 0.000000 0.000000 0.000000 0.299706
#
#
# Mechanical properties :
#
#
# Convention : Reuss Voigt Hill
#
# Bulk Modulus (GPa) = 62.87930 63.67397 63.27663
# Shear Modulus (GPa) = 10.12308 17.63776 13.88042
#
# Velocity S-wave (km/s) = 2.47784 3.27068 2.90147
# Velocity P-wave (km/s) = 6.80608 7.27198 7.04288
#
# Compressibility (1/GPa) = 0.01590349
#
# Stress axis : x y z
#
# Youngs Moduli (GPa) = 51.43737 51.43737 43.93949
#
# Poissons Ratio (x) = 0.37999 0.34012
# Poissons Ratio (y) = 0.37999 0.34012
# Poissons Ratio (z) = 0.39816 0.39816
#
# Static dielectric constant tensor:
#      x y z
#    x 3.119410 0.000000 0.000000 
#    y 0.000000 3.119410 0.000000 
#    z 0.000000 0.000000 3.242770 
# 
# 
# High freq. dielectric constant tensor:
#      x y z
#    x 1.619110 0.000000 0.000000 
#    y 0.000000 1.619110 0.000000 
#    z 0.000000 0.000000 1.641270 
# 
# From -- ./inp_files/1929.got.cif
#   From: 2010.03.12/outbox.cif.g09.slc.cpg/sg127_1_cif.got.tgz:1929.got - 2010.04.06 17:03:15.
