data_PCOD8313732
_publ_section_title
;
Structure prediction by ZEFSAII (Michael W. Deem and Ramdas Pophale) SiO2 
 PCOD8313732
Probable space group: P 4/N N C
;
_chemical_formula_sum "Si O2"
_cell_formula_units_Z 96
_cell_length_a 18.969779
_cell_length_b 18.969779
_cell_length_c 12.940763
_cell_angle_alpha 90.000000
_cell_angle_beta 90.000000
_cell_angle_gamma 90.000000
_cell_volume 4656.766116
_symmetry_space_group_name_H-M "P 4/N N C"
_symmetry_group_IT_number 126
_space_group.IT_coordinate_system_code '2'
_symmetry_cell_setting 'tetragonal'
loop_
_space_group_symop_operation_xyz
x,y,z
1/2-y,x,z
1/2-x,1/2-y,z
y,1/2-x,z
x,1/2-y,1/2-z
1/2-x,y,1/2-z
y,x,1/2-z
1/2-y,1/2-x,1/2-z
-x,-y,-z
1/2+y,-x,-z
1/2+x,1/2+y,-z
-y,1/2+x,-z
-x,1/2+y,1/2+z
1/2+x,-y,1/2+z
-y,-x,1/2+z
1/2+y,1/2+x,1/2+z
loop_
_atom_site_type_symbol
_atom_site_label
_atom_site_fract_x
_atom_site_fract_y
_atom_site_fract_z
Si Si1 0.666716 0.666716 0.750000
Si Si2 0.484702 0.632797 0.505860
Si Si3 0.750000 0.374672 0.750000
Si Si4 0.550612 0.600928 0.883912
Si Si5 0.539504 0.220644 0.454702
Si Si6 0.119507 0.655231 0.372459
Si Si7 0.074515 0.529672 0.716822
O O1 0.750000 0.651273 0.750000
O O2 0.623428 0.636206 0.846825
O O3 0.529195 0.570491 0.557548
O O4 0.512542 0.712050 0.528684
O O5 0.407047 0.640132 0.551308
O O6 0.478324 0.618042 0.386559
O O7 0.718946 0.423675 0.658276
O O8 0.812406 0.326312 0.700033
O O9 0.511213 0.652718 0.963379
O O10 0.493890 0.582017 0.793852
O O11 0.594959 0.218577 0.551777
O O12 0.056097 0.630115 0.300254
O O13 0.047250 0.452751 0.750000
#
# Coordination Sequence:
#
# PCOD8313732 Si02
#       7
#     8  16   8  16  16  16  16
#     4  11  24  36  54  88 130 170 210 252 317 410
#     4  11  23  38  58  93 127 163 213 266 317 385
#     4  10  22  38  64  93 123 166 210 268 322 396
#     4  12  20  37  60  92 122 166 208 261 330 380
#     4  11  24  38  63  92 131 168 210 267 326 394
#     4  11  20  38  60  91 123 160 210 259 326 386
#     4  12  21  35  62  93 120 157 202 271 323 373
#
# _framework density 20.615164
#
# number of rings (size 3 to 8) (size 9 to 14) (size 15 to 20)
#    0.000    0.750    5.833    2.500    3.500    0.667 
#    0.000    0.000    0.000   30.000    0.000    0.000 
#    0.000    1.333    0.000    0.000    0.000    0.000 
#
# Total GULP energy -1189695.869208 kJ/mol
# GULP energy per Si atom -12392.665304 kJ/mol
# Density = 2.056824 g / cm^3
# Si number density = 20.615164 Si / 1000 Ang^3
#
#
#
# Elastic Constant Matrix: (Units=GPa)
#
#
# Indices 1 2 3 4 5 6 
#
# 1 69.4995 10.2512 32.8895 0.0000 0.0000 0.0000
# 2 10.2512 69.4999 32.8903 0.0000 0.0000 0.0000
# 3 32.8895 32.8903 131.1524 0.0000 0.0000 0.0000
# 4 0.0000 0.0000 0.0000 39.8324 0.0000 0.0000
# 5 0.0000 0.0000 0.0000 0.0000 39.8321 0.0000
# 6 0.0000 0.0000 0.0000 0.0000 0.0000 27.0782
#
#
#
# Elastic Compliance Matrix: (Units=1/GPa)
#
#
# Indices 1 2 3 4 5 6 
#
# 1 0.016344 -0.000535 -0.003964 0.000000 0.000000 0.000000
# 2 -0.000535 0.016344 -0.003965 0.000000 0.000000 0.000000
# 3 -0.003964 -0.003965 0.009613 0.000000 0.000000 0.000000
# 4 0.000000 0.000000 0.000000 0.025105 0.000000 0.000000
# 5 0.000000 0.000000 0.000000 0.000000 0.025105 0.000000
# 6 0.000000 0.000000 0.000000 0.000000 0.000000 0.036930
#
#
# Mechanical properties :
#
#
# Convention : Reuss Voigt Hill
#
# Bulk Modulus (GPa) = 39.41181 46.91266 43.16223
# Shear Modulus (GPa) = 32.29437 34.28994 33.29215
#
# Velocity S-wave (km/s) = 3.96224 4.08283 4.02299
# Velocity P-wave (km/s) = 6.33181 6.71057 6.52394
#
# Compressibility (1/GPa) = 0.02537310
#
# Stress axis : x y z
#
# Youngs Moduli (GPa) = 61.18616 61.18618 104.02427
#
# Poissons Ratio (x) = 0.03270 0.41240
# Poissons Ratio (y) = 0.03270 0.41241
# Poissons Ratio (z) = 0.24257 0.24258
#
# Static dielectric constant tensor:
#      x y z
#    x 3.967110 0.000000 0.000000 
#    y 0.000000 3.967140 0.000000 
#    z 0.000000 0.000000 3.803970 
# 
# 
# High freq. dielectric constant tensor:
#      x y z
#    x 1.796430 0.000000 0.000000 
#    y 0.000000 1.796430 0.000000 
#    z 0.000000 0.000000 1.811950 
# 
# From -- ./inp_files/2937.got.cif
#   From: 2010.03.12/outbox.cif.g09.slc.cpg/sg126_2_cif.got.tgz:2937.got - 2010.04.06 16:55:23.
