data_PCOD8313948
_publ_section_title
;
Structure prediction by ZEFSAII (Michael W. Deem and Ramdas Pophale) SiO2 
 PCOD8313948
Probable space group: P 4/M B M
;
_chemical_formula_sum "Si O2"
_cell_formula_units_Z 96
_cell_length_a 16.505449
_cell_length_b 16.505449
_cell_length_c 20.135285
_cell_angle_alpha 90.000000
_cell_angle_beta 90.000000
_cell_angle_gamma 90.000000
_cell_volume 5485.452606
_symmetry_space_group_name_H-M "P 4/M B M"
_symmetry_group_IT_number 127
_symmetry_cell_setting 'tetragonal'
loop_
_space_group_symop_operation_xyz
x,y,z
-y,x,z
-x,-y,z
y,-x,z
1/2+x,1/2-y,-z
1/2-x,1/2+y,-z
1/2+y,1/2+x,-z
1/2-y,1/2-x,-z
-x,-y,-z
y,-x,-z
x,y,-z
-y,x,-z
1/2-x,1/2+y,z
1/2+x,1/2-y,z
1/2-y,1/2-x,z
1/2+y,1/2+x,z
loop_
_atom_site_type_symbol
_atom_site_label
_atom_site_fract_x
_atom_site_fract_y
_atom_site_fract_z
Si Si1 0.747938 0.382412 0.174617
Si Si2 0.430924 0.388288 0.077279
Si Si3 0.786883 0.418585 0.424435
Si Si4 0.925528 0.704547 0.347943
Si Si5 0.003183 0.371233 0.782617
Si Si6 0.695763 0.330389 0.313696
O O1 0.802451 0.302451 0.164105
O O2 0.681691 0.385081 0.117115
O O3 0.803717 0.463864 0.169181
O O4 0.700985 0.381313 0.245340
O O5 0.525891 0.390335 0.095600
O O6 0.419389 0.369554 0.000000
O O7 0.758193 0.406358 0.500000
O O8 0.871435 0.371435 0.411456
O O9 0.795829 0.513737 0.410082
O O10 0.717033 0.385979 0.376236
O O11 0.850721 0.649280 0.370492
O O12 0.971533 0.669763 0.285066
O O13 0.893490 0.794088 0.327743
O O14 0.080261 0.419740 0.815309
O O15 0.933825 0.433825 0.762148
O O16 0.757032 0.257032 0.305735
#
# Coordination Sequence:
#
# PCOD8313948 Si02
#       6
#    16  16  16  16  16  16
#     4  10  19  32  55  82 107 136 173 215 256 309
#     4   9  20  38  56  76 106 143 178 213 258 306
#     4  10  20  34  50  68  97 133 167 209 260 311
#     4  10  19  31  50  73  99 128 165 211 253 301
#     4   9  17  30  50  77 108 136 160 199 258 310
#     4   9  19  33  48  73 103 131 164 206 256 305
#
# _framework density 17.500836
#
# number of rings (size 3 to 8) (size 9 to 14) (size 15 to 20)
#    0.000    2.500    1.667    1.000    2.333    2.333 
#    0.000    2.500    0.000    2.000    0.000    3.500 
#    0.000    0.000    0.000    0.000    0.000    0.000 
#
# Total GULP energy -1189980.457602 kJ/mol
# GULP energy per Si atom -12395.629767 kJ/mol
# Density = 1.746100 g / cm^3
# Si number density = 17.500836 Si / 1000 Ang^3
#
#
#
# Elastic Constant Matrix: (Units=GPa)
#
#
# Indices 1 2 3 4 5 6 
#
# 1 75.4636 39.0981 45.4876 0.0000 0.0000 0.0000
# 2 39.0981 75.4636 45.4876 0.0000 0.0000 0.0000
# 3 45.4876 45.4876 88.4068 0.0000 0.0000 0.0000
# 4 0.0000 0.0000 0.0000 23.6244 0.0000 0.0000
# 5 0.0000 0.0000 0.0000 0.0000 23.6244 0.0000
# 6 0.0000 0.0000 0.0000 0.0000 0.0000 19.6225
#
#
#
# Elastic Compliance Matrix: (Units=1/GPa)
#
#
# Indices 1 2 3 4 5 6 
#
# 1 0.021129 -0.006370 -0.007594 0.000000 0.000000 0.000000
# 2 -0.006370 0.021129 -0.007594 0.000000 0.000000 0.000000
# 3 -0.007594 -0.007594 0.019126 0.000000 0.000000 0.000000
# 4 0.000000 0.000000 0.000000 0.042329 0.000000 0.000000
# 5 0.000000 0.000000 0.000000 0.000000 0.042329 0.000000
# 6 0.000000 0.000000 0.000000 0.000000 0.000000 0.050962
#
#
# Mechanical properties :
#
#
# Convention : Reuss Voigt Hill
#
# Bulk Modulus (GPa) = 54.73879 55.49782 55.11831
# Shear Modulus (GPa) = 20.30788 20.65829 20.48309
#
# Velocity S-wave (km/s) = 3.41015 3.43945 3.42483
# Velocity P-wave (km/s) = 6.84480 6.89590 6.87040
#
# Compressibility (1/GPa) = 0.01826858
#
# Stress axis : x y z
#
# Youngs Moduli (GPa) = 47.32812 47.32812 52.28445
#
# Poissons Ratio (x) = 0.30146 0.39706
# Poissons Ratio (y) = 0.30146 0.39706
# Poissons Ratio (z) = 0.35942 0.35942
#
# Static dielectric constant tensor:
#      x y z
#    x 3.376010 0.000000 0.000000 
#    y 0.000000 3.376010 0.000000 
#    z 0.000000 0.000000 3.008520 
# 
# 
# High freq. dielectric constant tensor:
#      x y z
#    x 1.672210 0.000000 0.000000 
#    y 0.000000 1.672210 0.000000 
#    z 0.000000 0.000000 1.653500 
# 
# From -- ./inp_files/5098.got.cif
#   From: 2010.03.12/outbox.cif.g09.slc.cpg/sg127_3_cif.got.tgz:5098.got - 2010.04.06 17:03:15.
