data_PCOD8313423
_publ_section_title
;
Structure prediction by ZEFSAII (Michael W. Deem and Ramdas Pophale) SiO2 
 PCOD8313423
Probable space group: P 4/N B M
;
_chemical_formula_sum "Si O2"
_cell_formula_units_Z 120
_cell_length_a 25.238933
_cell_length_b 25.238933
_cell_length_c 12.811040
_cell_angle_alpha 90.000000
_cell_angle_beta 90.000000
_cell_angle_gamma 90.000000
_cell_volume 8160.680380
_symmetry_space_group_name_H-M "P 4/N B M"
_symmetry_group_IT_number 125
_space_group.IT_coordinate_system_code '2'
_symmetry_cell_setting 'tetragonal'
loop_
_space_group_symop_operation_xyz
x,y,z
1/2-y,x,z
1/2-x,1/2-y,z
y,1/2-x,z
x,1/2-y,-z
1/2-x,y,-z
y,x,-z
1/2-y,1/2-x,-z
-x,-y,-z
1/2+y,-x,-z
1/2+x,1/2+y,-z
-y,1/2+x,-z
-x,1/2+y,z
1/2+x,-y,z
-y,-x,z
1/2+y,1/2+x,z
loop_
_atom_site_type_symbol
_atom_site_label
_atom_site_fract_x
_atom_site_fract_y
_atom_site_fract_z
Si Si1 0.250000 0.914890 0.500000
Si Si2 0.636345 0.050030 0.107866
Si Si3 0.665220 0.248508 0.685356
Si Si4 0.545047 0.366444 0.506789
Si Si5 0.998014 0.913750 0.294959
Si Si6 0.361217 0.551867 0.871995
Si Si7 0.247765 0.901913 0.117983
Si Si8 0.584548 0.503113 0.305112
O O1 0.254869 0.882108 0.605558
O O2 0.303726 0.948362 0.491139
O O3 0.604736 0.104736 0.129281
O O4 0.697905 0.059389 0.131344
O O5 0.615516 0.003881 0.183770
O O6 0.627664 0.031074 0.989017
O O7 0.708156 0.291845 0.654970
O O8 0.690000 0.190000 0.674478
O O9 0.647049 0.257664 0.803858
O O10 0.601194 0.398807 0.509206
O O11 0.511561 0.373249 0.612468
O O12 0.508113 0.386887 0.413811
O O13 0.938326 0.936860 0.304665
O O14 0.037954 0.962047 0.305342
O O15 0.394933 0.605068 0.848810
O O16 0.299844 0.564818 0.854746
O O17 0.375378 0.504984 0.791702
O O18 0.250000 0.879042 0.000000
O O19 0.536425 0.463576 0.286805
#
# Coordination Sequence:
#
# PCOD8313423 Si02
#       8
#     8  16  16  16  16  16  16  16
#     4  12  22  33  46  60  82 108 138 177 216 256
#     4   9  17  28  42  60  81 107 139 173 209 246
#     4  11  22  32  42  56  76 106 144 184 223 253
#     4  10  19  30  45  62  80 106 138 170 207 248
#     4   9  17  29  44  61  80 101 130 170 210 248
#     4   9  17  28  42  60  81 107 139 173 209 246
#     4  10  19  31  45  60  82 110 142 179 214 250
#     4   9  17  29  44  61  80 101 130 170 210 248
#
# _framework density 14.704656
#
# number of rings (size 3 to 8) (size 9 to 14) (size 15 to 20)
#    0.000    2.267    0.000    4.000    0.000    6.400 
#    0.000    3.333    0.000    0.000    0.000    0.000 
#    0.000    0.000    0.000    0.000    0.000   27.333 
#
# Total GULP energy -1487861.644791 kJ/mol
# GULP energy per Si atom -12398.847040 kJ/mol
# Density = 1.467119 g / cm^3
# Si number density = 14.704656 Si / 1000 Ang^3
#
#
#
# Elastic Constant Matrix: (Units=GPa)
#
#
# Indices 1 2 3 4 5 6 
#
# 1 47.4608 33.8392 22.6269 0.0000 0.0000 0.0000
# 2 33.8392 47.4608 22.6269 0.0000 0.0000 0.0000
# 3 22.6269 22.6269 81.2140 0.0000 0.0000 0.0000
# 4 0.0000 0.0000 0.0000 18.7655 0.0000 0.0000
# 5 0.0000 0.0000 0.0000 0.0000 18.7655 0.0000
# 6 0.0000 0.0000 0.0000 0.0000 0.0000 16.3405
#
#
#
# Elastic Compliance Matrix: (Units=1/GPa)
#
#
# Indices 1 2 3 4 5 6 
#
# 1 0.043985 -0.029428 -0.004056 0.000000 0.000000 0.000000
# 2 -0.029428 0.043985 -0.004056 0.000000 0.000000 0.000000
# 3 -0.004056 -0.004056 0.014573 0.000000 0.000000 0.000000
# 4 0.000000 0.000000 0.000000 0.053289 0.000000 0.000000
# 5 0.000000 0.000000 0.000000 0.000000 0.053289 0.000000
# 6 0.000000 0.000000 0.000000 0.000000 0.000000 0.061198
#
#
# Mechanical properties :
#
#
# Convention : Reuss Voigt Hill
#
# Bulk Modulus (GPa) = 36.40991 37.14682 36.77837
# Shear Modulus (GPa) = 14.10222 17.24381 15.67301
#
# Velocity S-wave (km/s) = 3.10018 3.42815 3.26828
# Velocity P-wave (km/s) = 6.13428 6.40206 6.26960
#
# Compressibility (1/GPa) = 0.02746505
#
# Stress axis : x y z
#
# Youngs Moduli (GPa) = 22.73480 22.73480 68.61926
#
# Poissons Ratio (x) = 0.66903 0.27831
# Poissons Ratio (y) = 0.66903 0.27831
# Poissons Ratio (z) = 0.09221 0.09221
#
# Static dielectric constant tensor:
#      x y z
#    x 2.729870 0.000000 0.000000 
#    y 0.000000 2.729870 0.000000 
#    z 0.000000 0.000000 3.077420 
# 
# 
# High freq. dielectric constant tensor:
#      x y z
#    x 1.529100 0.000000 0.000000 
#    y 0.000000 1.529100 0.000000 
#    z 0.000000 0.000000 1.587650 
# 
# From -- ./inp_files/4367.got.cif
#   From: 2010.03.12/outbox.cif.g09.slc.cpg/sg125_3_cif.got.tgz:4367.got - 2010.04.06 16:47:52.
