data_PCOD8313221
_publ_section_title
;
Structure prediction by ZEFSAII (Michael W. Deem and Ramdas Pophale) SiO2 
 PCOD8313221
Probable space group: P 4/M C C
;
_chemical_formula_sum "Si O2"
_cell_formula_units_Z 80
_cell_length_a 22.179452
_cell_length_b 22.179452
_cell_length_c 9.175852
_cell_angle_alpha 90.000000
_cell_angle_beta 90.000000
_cell_angle_gamma 90.000000
_cell_volume 4513.859358
_symmetry_space_group_name_H-M "P 4/M C C"
_symmetry_group_IT_number 124
_symmetry_cell_setting 'tetragonal'
loop_
_space_group_symop_operation_xyz
x,y,z
-y,x,z
-x,-y,z
y,-x,z
x,-y,1/2-z
-x,y,1/2-z
y,x,1/2-z
-y,-x,1/2-z
-x,-y,-z
y,-x,-z
x,y,-z
-y,x,-z
-x,y,1/2+z
x,-y,1/2+z
-y,-x,1/2+z
y,x,1/2+z
loop_
_atom_site_type_symbol
_atom_site_label
_atom_site_fract_x
_atom_site_fract_y
_atom_site_fract_z
Si Si1 0.562675 0.125185 0.170251
Si Si2 0.371507 0.628494 0.250000
Si Si3 0.585227 0.447962 0.000000
Si Si4 0.360280 0.762199 0.837232
Si Si5 0.939410 0.670811 0.327727
Si Si6 0.822714 0.256834 0.831749
O O1 0.500000 0.114915 0.250000
O O2 0.582324 0.194697 0.190620
O O3 0.609993 0.081405 0.248887
O O4 0.557572 0.107553 0.000000
O O5 0.426159 0.622671 0.361931
O O6 0.380449 0.693320 0.176116
O O7 0.582098 0.519507 0.000000
O O8 0.308843 0.777086 0.720922
O O9 0.334996 0.774203 0.000000
O O10 0.948285 0.659092 0.500000
O O11 0.891273 0.724175 0.299872
O O12 0.000000 0.693506 0.250000
O O13 0.805662 0.194339 0.750000
O O14 0.810573 0.246806 0.000000
#
# Coordination Sequence:
#
# PCOD8313221 Si02
#       6
#    16   8   8  16  16  16
#     4  10  21  37  54  77 109 141 178 225 273 323
#     4  12  22  39  60  80  96 126 168 214 275 336
#     4  11  26  44  58  70  92 124 164 214 272 338
#     4  10  21  36  53  80 105 130 165 211 268 328
#     4  10  21  37  56  81 110 148 190 227 267 316
#     4  10  20  33  56  82 113 145 175 216 265 310
#
# _framework density 17.723192999999998
#
# number of rings (size 3 to 8) (size 9 to 14) (size 15 to 20)
#    0.000    1.700    2.000    2.400    1.400    6.000 
#    0.000    2.000    0.000    0.000    0.000    0.000 
#    0.000    0.400    0.000    4.400    0.000    3.200 
#
# Total GULP energy -992069.195911 kJ/mol
# GULP energy per Si atom -12400.864949 kJ/mol
# Density = 1.768285 g / cm^3
# Si number density = 17.723193 Si / 1000 Ang^3
#
#
#
# Elastic Constant Matrix: (Units=GPa)
#
#
# Indices 1 2 3 4 5 6 
#
# 1 93.3532 44.2298 54.0451 0.0000 0.0000 0.0000
# 2 44.2298 93.3528 54.0446 0.0000 0.0000 0.0000
# 3 54.0451 54.0446 137.0248 0.0000 0.0000 0.0000
# 4 0.0000 0.0000 0.0000 30.1144 0.0000 0.0000
# 5 0.0000 0.0000 0.0000 0.0000 30.1142 0.0000
# 6 0.0000 0.0000 0.0000 0.0000 0.0000 19.3459
#
#
#
# Elastic Compliance Matrix: (Units=1/GPa)
#
#
# Indices 1 2 3 4 5 6 
#
# 1 0.015444 -0.004913 -0.004154 0.000000 0.000000 0.000000
# 2 -0.004913 0.015444 -0.004154 0.000000 0.000000 0.000000
# 3 -0.004154 -0.004154 0.010575 0.000000 0.000000 0.000000
# 4 0.000000 0.000000 0.000000 0.033207 0.000000 0.000000
# 5 0.000000 0.000000 0.000000 0.000000 0.033207 0.000000
# 6 0.000000 0.000000 0.000000 0.000000 0.000000 0.051690
#
#
# Mechanical properties :
#
#
# Convention : Reuss Voigt Hill
#
# Bulk Modulus (GPa) = 66.56621 69.81889 68.19255
# Shear Modulus (GPa) = 26.17583 27.34234 26.75908
#
# Velocity S-wave (km/s) = 3.84725 3.93204 3.88987
# Velocity P-wave (km/s) = 7.57466 7.75204 7.66386
#
# Compressibility (1/GPa) = 0.01502264
#
# Stress axis : x y z
#
# Youngs Moduli (GPa) = 64.74838 64.74843 94.56532
#
# Poissons Ratio (x) = 0.31808 0.39282
# Poissons Ratio (y) = 0.31808 0.39281
# Poissons Ratio (z) = 0.26896 0.26896
#
# Static dielectric constant tensor:
#      x y z
#    x 3.221540 0.000000 0.000000 
#    y 0.000000 3.221510 0.000000 
#    z 0.000000 0.000000 3.442200 
# 
# 
# High freq. dielectric constant tensor:
#      x y z
#    x 1.668970 0.000000 0.000000 
#    y 0.000000 1.668970 0.000000 
#    z 0.000000 0.000000 1.707900 
# 
# From -- ./inp_files/1217.got.cif
#   From: 2010.03.12/outbox.cif.g09.slc.cpg/sg124_1_cif.got.tgz:1217.got - 2010.04.06 16:38:57.
