data_PCOD8313007
_publ_section_title
;
Structure prediction by ZEFSAII (Michael W. Deem and Ramdas Pophale) SiO2 
 PCOD8313007
Probable space group: P 4/M M M
;
_chemical_formula_sum "Si O2"
_cell_formula_units_Z 96
_cell_length_a 14.868719
_cell_length_b 14.868719
_cell_length_c 30.056513
_cell_angle_alpha 90.000000
_cell_angle_beta 90.000000
_cell_angle_gamma 90.000000
_cell_volume 6644.857968
_symmetry_space_group_name_H-M "P 4/M M M"
_symmetry_group_IT_number 123
_symmetry_cell_setting 'tetragonal'
loop_
_space_group_symop_operation_xyz
x,y,z
-y,x,z
-x,-y,z
y,-x,z
x,-y,-z
-x,y,-z
y,x,-z
-y,-x,-z
-x,-y,-z
y,-x,-z
x,y,-z
-y,x,-z
-x,y,z
x,-y,z
-y,-x,z
y,x,z
loop_
_atom_site_type_symbol
_atom_site_label
_atom_site_fract_x
_atom_site_fract_y
_atom_site_fract_z
Si Si1 0.606627 0.900441 0.382750
Si Si2 0.893235 0.599752 0.049809
Si Si3 0.896491 0.249160 0.217564
Si Si4 0.248694 0.896572 0.115600
Si Si5 0.893374 0.400437 0.716152
Si Si6 0.749056 0.396512 0.551036
O O1 0.500000 0.907088 0.385922
O O2 0.633414 0.866599 0.333299
O O3 0.643179 0.829953 0.419021
O O4 0.647474 0.000000 0.392327
O O5 0.856010 0.500000 0.061494
O O6 0.855803 0.671736 0.085119
O O7 0.000000 0.597715 0.052594
O O8 0.862501 0.627228 0.000000
O O9 0.841143 0.158858 0.227464
O O10 0.886224 0.279892 0.166542
O O11 0.856814 0.329932 0.247586
O O12 0.000000 0.227854 0.229377
O O13 0.157752 0.842249 0.105988
O O14 0.227799 0.000000 0.103719
O O15 0.852533 0.500000 0.725721
O O16 0.000000 0.407068 0.719335
O O17 0.779499 0.386200 0.500000
O O18 0.727830 0.500000 0.562891
O O19 0.658782 0.341219 0.561053
#
# Coordination Sequence:
#
# PCOD8313007 Si02
#       6
#    16  16  16  16  16  16
#     4   8  14  25  40  57  76  96 119 151 192 232
#     4   8  14  25  40  56  73  94 121 153 189 225
#     4   9  17  27  38  54  76 102 131 158 184 217
#     4   9  17  27  38  54  77 104 132 159 184 214
#     4   8  14  25  40  57  76  96 120 154 194 231
#     4   9  17  27  38  54  76 101 128 154 179 213
#
# _framework density 14.447260999999999
#
# number of rings (size 3 to 8) (size 9 to 14) (size 15 to 20)
#    0.000    3.500    0.000    1.500    0.000    2.500 
#    0.000    7.500    0.000    0.000    0.000    2.333 
#    0.000    1.000    0.000    7.333    0.000    3.333 
#
# Total GULP energy -1189804.321065 kJ/mol
# GULP energy per Si atom -12393.795011 kJ/mol
# Density = 1.441438 g / cm^3
# Si number density = 14.447261 Si / 1000 Ang^3
#
#
#
# Elastic Constant Matrix: (Units=GPa)
#
#
# Indices 1 2 3 4 5 6 
#
# 1 65.3429 36.4652 51.6449 0.0000 0.0000 0.0000
# 2 36.4652 65.3429 51.6449 0.0000 0.0000 0.0000
# 3 51.6449 51.6449 93.3214 0.0000 0.0000 0.0000
# 4 0.0000 0.0000 0.0000 19.4177 0.0000 0.0000
# 5 0.0000 0.0000 0.0000 0.0000 19.4177 0.0000
# 6 0.0000 0.0000 0.0000 0.0000 0.0000 9.7333
#
#
#
# Elastic Compliance Matrix: (Units=1/GPa)
#
#
# Indices 1 2 3 4 5 6 
#
# 1 0.028513 -0.006115 -0.012395 0.000000 0.000000 0.000000
# 2 -0.006115 0.028513 -0.012395 0.000000 0.000000 0.000000
# 3 -0.012395 -0.012395 0.024435 0.000000 0.000000 0.000000
# 4 0.000000 0.000000 0.000000 0.051499 0.000000 0.000000
# 5 0.000000 0.000000 0.000000 0.000000 0.051499 0.000000
# 6 0.000000 0.000000 0.000000 0.000000 0.000000 0.102740
#
#
# Mechanical properties :
#
#
# Convention : Reuss Voigt Hill
#
# Bulk Modulus (GPa) = 50.89066 55.94636 53.41851
# Shear Modulus (GPa) = 14.06223 15.33055 14.69639
#
# Velocity S-wave (km/s) = 3.12324 3.26105 3.19289
# Velocity P-wave (km/s) = 6.95038 7.27928 7.11673
#
# Compressibility (1/GPa) = 0.01964997
#
# Stress axis : x y z
#
# Youngs Moduli (GPa) = 35.07113 35.07113 40.92487
#
# Poissons Ratio (x) = 0.21447 0.50728
# Poissons Ratio (y) = 0.21447 0.50728
# Poissons Ratio (z) = 0.43472 0.43472
#
# Static dielectric constant tensor:
#      x y z
#    x 2.765310 0.000000 0.000000 
#    y 0.000000 2.765310 0.000000 
#    z 0.000000 0.000000 3.060690 
# 
# 
# High freq. dielectric constant tensor:
#      x y z
#    x 1.524260 0.000000 0.000000 
#    y 0.000000 1.524260 0.000000 
#    z 0.000000 0.000000 1.560740 
# 
# From -- ./inp_files/8579.got.cif
#   From: 2010.03.12/outbox.cif.g09.slc.cpg/sg123_5_cif.got.tgz:8579.got - 2010.04.06 16:26:55.
