data_PCOD8313774
_publ_section_title
;
Structure prediction by ZEFSAII (Michael W. Deem and Ramdas Pophale) SiO2 
 PCOD8313774
Probable space group: P 4/N N C
;
_chemical_formula_sum "Si O2"
_cell_formula_units_Z 116
_cell_length_a 17.301925
_cell_length_b 17.301925
_cell_length_c 19.390743
_cell_angle_alpha 90.000000
_cell_angle_beta 90.000000
_cell_angle_gamma 90.000000
_cell_volume 5804.747065
_symmetry_space_group_name_H-M "P 4/N N C"
_symmetry_group_IT_number 126
_space_group.IT_coordinate_system_code '2'
_symmetry_cell_setting 'tetragonal'
loop_
_space_group_symop_operation_xyz
x,y,z
1/2-y,x,z
1/2-x,1/2-y,z
y,1/2-x,z
x,1/2-y,1/2-z
1/2-x,y,1/2-z
y,x,1/2-z
1/2-y,1/2-x,1/2-z
-x,-y,-z
1/2+y,-x,-z
1/2+x,1/2+y,-z
-y,1/2+x,-z
-x,1/2+y,1/2+z
1/2+x,-y,1/2+z
-y,-x,1/2+z
1/2+y,1/2+x,1/2+z
loop_
_atom_site_type_symbol
_atom_site_label
_atom_site_fract_x
_atom_site_fract_y
_atom_site_fract_z
Si Si1 0.295804 0.366776 0.587862
Si Si2 0.250000 0.750000 0.250000
Si Si3 0.208761 0.129941 0.429393
Si Si4 0.820628 0.353745 0.013496
Si Si5 0.122635 0.819045 0.658039
Si Si6 0.668235 0.943444 0.219671
Si Si7 0.667264 0.039421 0.891137
Si Si8 0.572666 0.047460 0.759260
O O1 0.207081 0.348377 0.604142
O O2 0.302206 0.391984 0.508985
O O3 0.324910 0.436210 0.636588
O O4 0.306455 0.800616 0.297254
O O5 0.297382 0.153168 0.411436
O O6 0.184750 0.052485 0.389304
O O7 0.854155 0.368054 0.090212
O O8 0.852216 0.272628 0.983060
O O9 0.852231 0.424777 0.966409
O O10 0.087912 0.738470 0.636120
O O11 0.056883 0.858679 0.704429
O O12 0.750000 0.965213 0.250000
O O13 0.637957 0.862044 0.250000
O O14 0.612028 0.011134 0.240818
O O15 0.597574 0.056107 0.838727
O O16 0.537673 0.962327 0.750000
#
# Coordination Sequence:
#
# PCOD8313774 Si02
#       8
#    16   4  16  16  16  16  16  16
#     4   9  17  34  60  89 122 161 209 254 297 361
#     4  12  20  40  74  96 120 162 232 268 312 368
#     4   9  21  40  66  96 121 157 214 270 315 374
#     4   9  20  38  64  97 128 154 213 266 297 374
#     4  11  23  41  68  94 120 169 213 258 320 376
#     4  11  22  35  56  88 127 172 206 243 297 371
#     4  11  22  44  67  93 120 170 206 260 332 378
#     4  11  27  43  57  88 133 164 208 260 318 387
#
# _framework density 19.983644000000002
#
# number of rings (size 3 to 8) (size 9 to 14) (size 15 to 20)
#    0.000    1.793    2.759    2.483    4.828    0.138 
#    2.483    0.690    0.000    0.000    0.000    0.000 
#    0.000    0.000    0.000    0.000    0.000    0.000 
#
# Total GULP energy -1438170.329783 kJ/mol
# GULP energy per Si atom -12398.020084 kJ/mol
# Density = 1.993816 g / cm^3
# Si number density = 19.983644 Si / 1000 Ang^3
#
#
#
# Elastic Constant Matrix: (Units=GPa)
#
#
# Indices 1 2 3 4 5 6 
#
# 1 77.6741 25.0538 44.0072 0.0000 0.0000 0.0000
# 2 25.0538 77.6750 44.0072 0.0000 0.0000 0.0000
# 3 44.0072 44.0072 113.5122 0.0000 0.0000 0.0000
# 4 0.0000 0.0000 0.0000 24.5270 0.0000 0.0000
# 5 0.0000 0.0000 0.0000 0.0000 24.5240 0.0000
# 6 0.0000 0.0000 0.0000 0.0000 0.0000 31.9147
#
#
#
# Elastic Compliance Matrix: (Units=1/GPa)
#
#
# Indices 1 2 3 4 5 6 
#
# 1 0.016790 -0.002214 -0.005651 0.000000 0.000000 0.000000
# 2 -0.002214 0.016790 -0.005651 0.000000 0.000000 0.000000
# 3 -0.005651 -0.005651 0.013191 0.000000 0.000000 0.000000
# 4 0.000000 0.000000 0.000000 0.040771 0.000000 0.000000
# 5 0.000000 0.000000 0.000000 0.000000 0.040776 0.000000
# 6 0.000000 0.000000 0.000000 0.000000 0.000000 0.031334
#
#
# Mechanical properties :
#
#
# Convention : Reuss Voigt Hill
#
# Bulk Modulus (GPa) = 50.65999 54.99976 52.82987
# Shear Modulus (GPa) = 25.87139 26.57935 26.22537
#
# Velocity S-wave (km/s) = 3.60200 3.65095 3.62656
# Velocity P-wave (km/s) = 6.53490 6.73459 6.63550
#
# Compressibility (1/GPa) = 0.01973944
#
# Stress axis : x y z
#
# Youngs Moduli (GPa) = 59.55909 59.56000 75.80820
#
# Poissons Ratio (x) = 0.13187 0.42839
# Poissons Ratio (y) = 0.13186 0.42838
# Poissons Ratio (z) = 0.33657 0.33656
#
# Static dielectric constant tensor:
#      x y z
#    x 3.694640 0.000000 0.000000 
#    y 0.000000 3.694640 0.000000 
#    z 0.000000 0.000000 3.869000 
# 
# 
# High freq. dielectric constant tensor:
#      x y z
#    x 1.770460 0.000000 0.000000 
#    y 0.000000 1.770460 0.000000 
#    z 0.000000 0.000000 1.785950 
# 
# From -- ./inp_files/4624.got.cif
#   From: 2010.03.12/outbox.cif.g09.slc.cpg/sg126_3_cif.got.tgz:4624.got - 2010.04.06 16:55:23.
