data_PCOD8313405
_publ_section_title
;
Structure prediction by ZEFSAII (Michael W. Deem and Ramdas Pophale) SiO2 
 PCOD8313405
Probable space group: P 4/N B M
;
_chemical_formula_sum "Si O2"
_cell_formula_units_Z 96
_cell_length_a 16.039310
_cell_length_b 16.039310
_cell_length_c 20.645679
_cell_angle_alpha 90.000000
_cell_angle_beta 90.000000
_cell_angle_gamma 90.000000
_cell_volume 5311.296340
_symmetry_space_group_name_H-M "P 4/N B M"
_symmetry_group_IT_number 125
_space_group.IT_coordinate_system_code '2'
_symmetry_cell_setting 'tetragonal'
loop_
_space_group_symop_operation_xyz
x,y,z
1/2-y,x,z
1/2-x,1/2-y,z
y,1/2-x,z
x,1/2-y,-z
1/2-x,y,-z
y,x,-z
1/2-y,1/2-x,-z
-x,-y,-z
1/2+y,-x,-z
1/2+x,1/2+y,-z
-y,1/2+x,-z
-x,1/2+y,z
1/2+x,-y,z
-y,-x,z
1/2+y,1/2+x,z
loop_
_atom_site_type_symbol
_atom_site_label
_atom_site_fract_x
_atom_site_fract_y
_atom_site_fract_z
Si Si1 0.548510 0.312167 0.557424
Si Si2 0.885463 0.245599 0.071484
Si Si3 0.384507 0.754584 0.314347
Si Si4 0.678752 0.460391 0.808093
Si Si5 0.690481 0.870771 0.249255
Si Si6 0.127054 0.306216 0.400452
O O1 0.573034 0.250000 0.500000
O O2 0.606027 0.393974 0.554109
O O3 0.558384 0.259567 0.623318
O O4 0.451197 0.339374 0.557132
O O5 0.846280 0.153721 0.084994
O O6 0.810564 0.310564 0.074948
O O7 0.953918 0.270008 0.124893
O O8 0.927082 0.250000 0.000000
O O9 0.309058 0.690943 0.316562
O O10 0.348544 0.848544 0.315250
O O11 0.436100 0.742394 0.248936
O O12 0.596121 0.403880 0.808244
O O13 0.652221 0.555763 0.795216
O O14 0.640134 0.787701 0.231996
O O15 0.681285 0.892172 0.324784
O O16 0.141403 0.209108 0.418574
#
# Coordination Sequence:
#
# PCOD8313405 Si02
#       6
#    16  16  16  16  16  16
#     4  11  22  36  54  75 105 140 172 209 257 314
#     4   8  14  25  43  71 107 142 171 201 248 310
#     4   9  17  29  45  68  99 133 165 198 243 302
#     4  10  17  28  51  78 102 128 165 215 259 295
#     4   9  18  34  55  75 100 135 172 208 254 311
#     4   9  19  38  61  78  97 131 175 219 264 310
#
# _framework density 18.074684000000001
#
# number of rings (size 3 to 8) (size 9 to 14) (size 15 to 20)
#    0.000    2.667    1.667    2.500    0.000    3.500 
#    0.000    5.000    0.000    1.000    0.000    4.667 
#    0.000    0.000    0.000    0.000    0.000    0.000 
#
# Total GULP energy -1190055.766537 kJ/mol
# GULP energy per Si atom -12396.414235 kJ/mol
# Density = 1.803355 g / cm^3
# Si number density = 18.074684 Si / 1000 Ang^3
#
#
#
# Elastic Constant Matrix: (Units=GPa)
#
#
# Indices 1 2 3 4 5 6 
#
# 1 83.3377 28.9520 32.2287 0.0000 0.0000 0.0000
# 2 28.9520 83.3377 32.2287 0.0000 0.0000 0.0000
# 3 32.2287 32.2287 91.9031 0.0000 0.0000 0.0000
# 4 0.0000 0.0000 0.0000 22.7080 0.0000 0.0000
# 5 0.0000 0.0000 0.0000 0.0000 22.7080 0.0000
# 6 0.0000 0.0000 0.0000 0.0000 0.0000 14.4372
#
#
#
# Elastic Compliance Matrix: (Units=1/GPa)
#
#
# Indices 1 2 3 4 5 6 
#
# 1 0.014769 -0.003619 -0.003910 0.000000 0.000000 0.000000
# 2 -0.003619 0.014769 -0.003910 0.000000 0.000000 0.000000
# 3 -0.003910 -0.003910 0.013623 0.000000 0.000000 0.000000
# 4 0.000000 0.000000 0.000000 0.044037 0.000000 0.000000
# 5 0.000000 0.000000 0.000000 0.000000 0.044037 0.000000
# 6 0.000000 0.000000 0.000000 0.000000 0.000000 0.069266
#
#
# Mechanical properties :
#
#
# Convention : Reuss Voigt Hill
#
# Bulk Modulus (GPa) = 49.30220 49.48860 49.39540
# Shear Modulus (GPa) = 21.72596 22.98192 22.35394
#
# Velocity S-wave (km/s) = 3.47076 3.56968 3.52057
# Velocity P-wave (km/s) = 6.58770 6.66555 6.62674
#
# Compressibility (1/GPa) = 0.02028307
#
# Stress axis : x y z
#
# Youngs Moduli (GPa) = 67.71115 67.71115 73.40289
#
# Poissons Ratio (x) = 0.24502 0.28701
# Poissons Ratio (y) = 0.24502 0.28701
# Poissons Ratio (z) = 0.26476 0.26476
#
# Static dielectric constant tensor:
#      x y z
#    x 3.186180 0.000000 0.000000 
#    y 0.000000 3.186180 0.000000 
#    z 0.000000 0.000000 3.468900 
# 
# 
# High freq. dielectric constant tensor:
#      x y z
#    x 1.680060 0.000000 0.000000 
#    y 0.000000 1.680060 0.000000 
#    z 0.000000 0.000000 1.694390 
# 
# From -- ./inp_files/5920.got.cif
#   From: 2010.03.12/outbox.cif.g09.slc.cpg/sg125_3_cif.got.tgz:5920.got - 2010.04.06 16:47:52.
