data_PCOD8313014
_publ_section_title
;
Structure prediction by ZEFSAII (Michael W. Deem and Ramdas Pophale) SiO2 
 PCOD8313014
Probable space group: P 4/M M M
;
_chemical_formula_sum "Si O2"
_cell_formula_units_Z 112
_cell_length_a 14.250951
_cell_length_b 14.250951
_cell_length_c 35.115565
_cell_angle_alpha 90.000000
_cell_angle_beta 90.000000
_cell_angle_gamma 90.000000
_cell_volume 7131.606204
_symmetry_space_group_name_H-M "P 4/M M M"
_symmetry_group_IT_number 123
_symmetry_cell_setting 'tetragonal'
loop_
_space_group_symop_operation_xyz
x,y,z
-y,x,z
-x,-y,z
y,-x,z
x,-y,-z
-x,y,-z
y,x,-z
-y,-x,-z
-x,-y,-z
y,-x,-z
x,y,-z
-y,x,-z
-x,y,z
x,-y,z
-y,-x,z
y,x,z
loop_
_atom_site_type_symbol
_atom_site_label
_atom_site_fract_x
_atom_site_fract_y
_atom_site_fract_z
Si Si1 0.737512 0.891130 0.691493
Si Si2 0.611116 0.896161 0.891281
Si Si3 0.392860 0.758446 0.173548
Si Si4 0.238248 0.391197 0.261142
Si Si5 0.106921 0.744012 0.604620
Si Si6 0.604177 0.111323 0.542099
Si Si7 0.392101 0.760039 0.043149
O O1 0.833835 0.833835 0.699483
O O2 0.651777 0.848384 0.715468
O O3 0.706229 0.882040 0.647542
O O4 0.754052 0.000000 0.702702
O O5 0.500000 0.905068 0.891803
O O6 0.644113 0.842618 0.853109
O O7 0.645545 0.841134 0.928860
O O8 0.656690 0.000000 0.891330
O O9 0.500000 0.733140 0.163884
O O10 0.334691 0.665310 0.164536
O O11 0.381225 0.790441 0.217080
O O12 0.253828 0.500000 0.272452
O O13 0.334513 0.334513 0.269871
O O14 0.157138 0.842863 0.599578
O O15 0.152903 0.669727 0.575330
O O16 0.000000 0.763425 0.593909
O O17 0.642057 0.139487 0.500000
O O18 0.500000 0.152983 0.547882
O O19 0.599750 0.000000 0.545852
O O20 0.500000 0.735279 0.051921
O O21 0.334709 0.665292 0.050508
O O22 0.379076 0.796691 0.000000
#
# Coordination Sequence:
#
# PCOD8313014 Si02
#       7
#    16  16  16  16  16  16  16
#     4   9  18  31  45  63  87 114 147 186 225 266
#     4   9  17  28  41  58  82 112 144 175 205 239
#     4   9  17  29  45  65  89 115 141 170 206 250
#     4   9  18  31  46  66  91 117 146 180 218 263
#     4   9  17  28  42  61  85 112 140 171 210 256
#     4   8  14  25  40  57  78 105 137 172 207 242
#     4   9  17  28  42  61  85 112 141 174 212 255
#
# _framework density 15.704736
#
# number of rings (size 3 to 8) (size 9 to 14) (size 15 to 20)
#    0.000    3.143    0.000    0.857    0.000    2.714 
#    0.000    7.857    0.000    2.571    0.000    2.000 
#    0.000    4.857    0.000    7.857    0.000    0.714 
#
# Total GULP energy -1388339.566625 kJ/mol
# GULP energy per Si atom -12395.888988 kJ/mol
# Density = 1.566899 g / cm^3
# Si number density = 15.704736 Si / 1000 Ang^3
#
#
#
# Elastic Constant Matrix: (Units=GPa)
#
#
# Indices 1 2 3 4 5 6 
#
# 1 89.3284 43.9085 55.1316 0.0000 0.0000 0.0000
# 2 43.9085 89.3284 55.1316 0.0000 0.0000 0.0000
# 3 55.1316 55.1316 96.2083 0.0000 0.0000 0.0000
# 4 0.0000 0.0000 0.0000 24.6933 0.0000 0.0000
# 5 0.0000 0.0000 0.0000 0.0000 24.6933 0.0000
# 6 0.0000 0.0000 0.0000 0.0000 0.0000 12.8345
#
#
#
# Elastic Compliance Matrix: (Units=1/GPa)
#
#
# Indices 1 2 3 4 5 6 
#
# 1 0.018146 -0.003871 -0.008180 0.000000 0.000000 0.000000
# 2 -0.003871 0.018146 -0.008180 0.000000 0.000000 0.000000
# 3 -0.008180 -0.008180 0.019770 0.000000 0.000000 0.000000
# 4 0.000000 0.000000 0.000000 0.040497 0.000000 0.000000
# 5 0.000000 0.000000 0.000000 0.000000 0.040497 0.000000
# 6 0.000000 0.000000 0.000000 0.000000 0.000000 0.077915
#
#
# Mechanical properties :
#
#
# Convention : Reuss Voigt Hill
#
# Bulk Modulus (GPa) = 64.10817 64.80092 64.45454
# Shear Modulus (GPa) = 19.18406 20.49042 19.83724
#
# Velocity S-wave (km/s) = 3.49885 3.61602 3.55792
# Velocity P-wave (km/s) = 7.56519 7.66719 7.61636
#
# Compressibility (1/GPa) = 0.01559864
#
# Stress axis : x y z
#
# Youngs Moduli (GPa) = 55.10846 55.10846 50.58289
#
# Poissons Ratio (x) = 0.21331 0.41379
# Poissons Ratio (y) = 0.21331 0.41379
# Poissons Ratio (z) = 0.45081 0.45081
#
# Static dielectric constant tensor:
#      x y z
#    x 2.925980 0.000000 0.000000 
#    y 0.000000 2.925980 0.000000 
#    z 0.000000 0.000000 3.209960 
# 
# 
# High freq. dielectric constant tensor:
#      x y z
#    x 1.581150 0.000000 0.000000 
#    y 0.000000 1.581150 0.000000 
#    z 0.000000 0.000000 1.615360 
# 
# From -- ./inp_files/8753.got.cif
#   From: 2010.03.12/outbox.cif.g09.slc.cpg/sg123_5_cif.got.tgz:8753.got - 2010.04.06 16:26:55.
