data_PCOD8313933
_publ_section_title
;
Structure prediction by ZEFSAII (Michael W. Deem and Ramdas Pophale) SiO2 
 PCOD8313933
Probable space group: P 4/M B M
;
_chemical_formula_sum "Si O2"
_cell_formula_units_Z 72
_cell_length_a 25.542472
_cell_length_b 25.542472
_cell_length_c 7.589723
_cell_angle_alpha 90.000000
_cell_angle_beta 90.000000
_cell_angle_gamma 90.000000
_cell_volume 4951.670958
_symmetry_space_group_name_H-M "P 4/M B M"
_symmetry_group_IT_number 127
_symmetry_cell_setting 'tetragonal'
loop_
_space_group_symop_operation_xyz
x,y,z
-y,x,z
-x,-y,z
y,-x,z
1/2+x,1/2-y,-z
1/2-x,1/2+y,-z
1/2+y,1/2+x,-z
1/2-y,1/2-x,-z
-x,-y,-z
y,-x,-z
x,y,-z
-y,x,-z
1/2-x,1/2+y,z
1/2+x,1/2-y,z
1/2-y,1/2-x,z
1/2+y,1/2+x,z
loop_
_atom_site_type_symbol
_atom_site_label
_atom_site_fract_x
_atom_site_fract_y
_atom_site_fract_z
Si Si1 0.379861 0.792620 0.796672
Si Si2 0.014640 0.341903 0.798953
Si Si3 0.542185 0.042185 0.292989
Si Si4 0.175242 0.236963 0.500000
Si Si5 0.185796 0.599304 0.794816
Si Si6 0.155082 0.742397 0.500000
O O1 0.343411 0.843411 0.777166
O O2 0.436802 0.809085 0.719428
O O3 0.359182 0.745018 0.676527
O O4 0.381436 0.773850 0.000000
O O5 0.024356 0.403115 0.784627
O O6 0.958543 0.326473 0.717254
O O7 0.011793 0.326067 0.000000
O O8 0.546762 0.046762 0.500000
O O9 0.500000 0.000000 0.231203
O O10 0.221744 0.278257 0.500000
O O11 0.198550 0.178079 0.500000
O O12 0.133608 0.633608 0.766588
O O13 0.233511 0.621460 0.677718
O O14 0.202717 0.599791 0.000000
O O15 0.202983 0.702983 0.500000
#
# Coordination Sequence:
#
# PCOD8313933 Si02
#       6
#    16  16   8   8  16   8
#     4   9  17  28  42  62  82 103 134 170 209 254
#     4  10  19  31  44  58  80 112 143 175 216 251
#     4  11  23  29  37  59  83 113 151 185 213 247
#     4   9  18  29  44  60  75 101 128 170 225 259
#     4   9  18  30  44  60  80 108 141 176 210 245
#     4   9  18  31  44  59  76  98 135 176 219 257
#
# _framework density 14.540546000000001
#
# number of rings (size 3 to 8) (size 9 to 14) (size 15 to 20)
#    0.000    2.556    1.111    1.000    3.111    2.667 
#    0.000    4.444    0.000    0.000    0.000    0.000 
#    0.000    0.000    0.000    0.000    0.000    8.889 
#
# Total GULP energy -892403.345991 kJ/mol
# GULP energy per Si atom -12394.490917 kJ/mol
# Density = 1.450745 g / cm^3
# Si number density = 14.540546 Si / 1000 Ang^3
#
#
#
# Elastic Constant Matrix: (Units=GPa)
#
#
# Indices 1 2 3 4 5 6 
#
# 1 71.3307 61.3190 37.5180 0.0000 0.0000 0.0000
# 2 61.3190 71.3309 37.5179 0.0000 0.0000 0.0000
# 3 37.5180 37.5179 72.1444 0.0000 0.0000 0.0000
# 4 0.0000 0.0000 0.0000 12.5090 0.0000 0.0000
# 5 0.0000 0.0000 0.0000 0.0000 12.5083 0.0000
# 6 0.0000 0.0000 0.0000 0.0000 0.0000 29.9746
#
#
#
# Elastic Compliance Matrix: (Units=1/GPa)
#
#
# Indices 1 2 3 4 5 6 
#
# 1 0.055281 -0.044601 -0.005554 0.000000 0.000000 0.000000
# 2 -0.044601 0.055281 -0.005554 0.000000 0.000000 0.000000
# 3 -0.005554 -0.005554 0.019638 0.000000 0.000000 0.000000
# 4 0.000000 0.000000 0.000000 0.079942 0.000000 0.000000
# 5 0.000000 0.000000 0.000000 0.000000 0.079947 0.000000
# 6 0.000000 0.000000 0.000000 0.000000 0.000000 0.033362
#
#
# Mechanical properties :
#
#
# Convention : Reuss Voigt Hill
#
# Bulk Modulus (GPa) = 53.24281 54.16840 53.70561
# Shear Modulus (GPa) = 11.33452 16.22847 13.78149
#
# Velocity S-wave (km/s) = 2.79500 3.34441 3.08197
# Velocity P-wave (km/s) = 6.86384 7.22825 7.04840
#
# Compressibility (1/GPa) = 0.01878188
#
# Stress axis : x y z
#
# Youngs Moduli (GPa) = 18.08928 18.08936 50.92159
#
# Poissons Ratio (x) = 0.80680 0.28284
# Poissons Ratio (y) = 0.80679 0.28283
# Poissons Ratio (z) = 0.10048 0.10047
#
# Static dielectric constant tensor:
#      x y z
#    x 2.830110 0.000000 0.000000 
#    y 0.000000 2.830100 0.000000 
#    z 0.000000 0.000000 2.941530 
# 
# 
# High freq. dielectric constant tensor:
#      x y z
#    x 1.523640 0.000000 0.000000 
#    y 0.000000 1.523640 0.000000 
#    z 0.000000 0.000000 1.569600 
# 
# From -- ./inp_files/1674.got.cif
#   From: 2010.03.12/outbox.cif.g09.slc.cpg/sg127_1_cif.got.tgz:1674.got - 2010.04.06 17:03:15.
