data_PCOD8313609
_publ_section_title
;
Structure prediction by ZEFSAII (Michael W. Deem and Ramdas Pophale) SiO2 
 PCOD8313609
Probable space group: P 4/N B M
;
_chemical_formula_sum "Si O2"
_cell_formula_units_Z 72
_cell_length_a 11.486096
_cell_length_b 11.486096
_cell_length_c 27.186172
_cell_angle_alpha 90.000000
_cell_angle_beta 90.000000
_cell_angle_gamma 90.000000
_cell_volume 3586.682582
_symmetry_space_group_name_H-M "P 4/N B M"
_symmetry_group_IT_number 125
_space_group.IT_coordinate_system_code '2'
_symmetry_cell_setting 'tetragonal'
loop_
_space_group_symop_operation_xyz
x,y,z
1/2-y,x,z
1/2-x,1/2-y,z
y,1/2-x,z
x,1/2-y,-z
1/2-x,y,-z
y,x,-z
1/2-y,1/2-x,-z
-x,-y,-z
1/2+y,-x,-z
1/2+x,1/2+y,-z
-y,1/2+x,-z
-x,1/2+y,z
1/2+x,-y,z
-y,-x,z
1/2+y,1/2+x,z
loop_
_atom_site_type_symbol
_atom_site_label
_atom_site_fract_x
_atom_site_fract_y
_atom_site_fract_z
Si Si1 0.653189 0.153189 0.223597
Si Si2 0.742403 0.942178 0.051688
Si Si3 0.750000 0.436653 0.500000
Si Si4 0.557861 0.773938 0.841970
Si Si5 0.152697 0.847304 0.335371
Si Si6 0.218178 0.062375 0.400323
O O1 0.750000 0.250000 0.221400
O O2 0.538550 0.205432 0.198735
O O3 0.621255 0.121255 0.279416
O O4 0.631825 0.859079 0.051168
O O5 0.729760 0.007909 0.104129
O O6 0.750000 0.017460 0.000000
O O7 0.856352 0.356352 0.518764
O O8 0.705955 0.516124 0.544341
O O9 0.622063 0.650640 0.835825
O O10 0.250000 0.750000 0.339195
O O11 0.038385 0.798393 0.361103
O O12 0.344339 0.117036 0.391809
#
# Coordination Sequence:
#
# PCOD8313609 Si02
#       6
#     8  16   8  16   8  16
#     4  11  26  42  62  87 121 163 205 260 315 368
#     4   7  10  21  48  83 113 145 190 242 296 363
#     4  11  22  37  66 102 136 175 207 244 302 372
#     4   9  19  37  63  90 117 156 207 256 307 372
#     4  11  26  46  65  88 123 167 210 256 321 373
#     4  11  25  43  67  99 130 164 210 261 308 366
#
# _framework density 20.074259000000001
#
# number of rings (size 3 to 8) (size 9 to 14) (size 15 to 20)
#    0.000    2.333    1.111    3.333    4.667    3.556 
#    0.000    2.222    2.444    2.667    0.000    0.000 
#    0.000    0.000    0.000    0.000    0.000    0.000 
#
# Total GULP energy -892007.200037 kJ/mol
# GULP energy per Si atom -12388.988889 kJ/mol
# Density = 2.002857 g / cm^3
# Si number density = 20.074259 Si / 1000 Ang^3
#
#
#
# Elastic Constant Matrix: (Units=GPa)
#
#
# Indices 1 2 3 4 5 6 
#
# 1 86.7363 34.9007 66.8795 0.0000 0.0000 0.0000
# 2 34.9007 86.7363 66.8795 0.0000 0.0000 0.0000
# 3 66.8795 66.8795 207.1659 0.0000 0.0000 0.0000
# 4 0.0000 0.0000 0.0000 12.0831 0.0000 0.0000
# 5 0.0000 0.0000 0.0000 0.0000 12.0831 0.0000
# 6 0.0000 0.0000 0.0000 0.0000 0.0000 17.3169
#
#
#
# Elastic Compliance Matrix: (Units=1/GPa)
#
#
# Indices 1 2 3 4 5 6 
#
# 1 0.016019 -0.003273 -0.004115 0.000000 0.000000 0.000000
# 2 -0.003273 0.016019 -0.004115 0.000000 0.000000 0.000000
# 3 -0.004115 -0.004115 0.007484 0.000000 0.000000 0.000000
# 4 0.000000 0.000000 0.000000 0.082760 0.000000 0.000000
# 5 0.000000 0.000000 0.000000 0.000000 0.082760 0.000000
# 6 0.000000 0.000000 0.000000 0.000000 0.000000 0.057747
#
#
# Mechanical properties :
#
#
# Convention : Reuss Voigt Hill
#
# Bulk Modulus (GPa) = 60.54480 79.77309 70.15895
# Shear Modulus (GPa) = 17.16445 22.42854 19.79650
#
# Velocity S-wave (km/s) = 2.92729 3.34620 3.14373
# Velocity P-wave (km/s) = 6.45378 7.39964 6.94284
#
# Compressibility (1/GPa) = 0.01651669
#
# Stress axis : x y z
#
# Youngs Moduli (GPa) = 62.42615 62.42615 133.62144
#
# Poissons Ratio (x) = 0.20431 0.54983
# Poissons Ratio (y) = 0.20431 0.54983
# Poissons Ratio (z) = 0.25687 0.25687
#
# Static dielectric constant tensor:
#      x y z
#    x 3.511610 0.000000 0.000000 
#    y 0.000000 3.511610 0.000000 
#    z 0.000000 0.000000 4.090170 
# 
# 
# High freq. dielectric constant tensor:
#      x y z
#    x 1.768000 0.000000 0.000000 
#    y 0.000000 1.768000 0.000000 
#    z 0.000000 0.000000 1.798490 
# 
# From -- ./inp_files/6372.got.cif
#   From: 2010.03.12/outbox.cif.g09.slc.cpg/sg125_4_cif.got.tgz:6372.got - 2010.04.06 16:47:52.
