data_PCOD8313675
_publ_section_title
;
Structure prediction by ZEFSAII (Michael W. Deem and Ramdas Pophale) SiO2 
 PCOD8313675
Probable space group: P 4/N N C
;
_chemical_formula_sum "Si O2"
_cell_formula_units_Z 80
_cell_length_a 28.730476
_cell_length_b 28.730476
_cell_length_c 5.159484
_cell_angle_alpha 90.000000
_cell_angle_beta 90.000000
_cell_angle_gamma 90.000000
_cell_volume 4258.845769
_symmetry_space_group_name_H-M "P 4/N N C"
_symmetry_group_IT_number 126
_space_group.IT_coordinate_system_code '2'
_symmetry_cell_setting 'tetragonal'
loop_
_space_group_symop_operation_xyz
x,y,z
1/2-y,x,z
1/2-x,1/2-y,z
y,1/2-x,z
x,1/2-y,1/2-z
1/2-x,y,1/2-z
y,x,1/2-z
1/2-y,1/2-x,1/2-z
-x,-y,-z
1/2+y,-x,-z
1/2+x,1/2+y,-z
-y,1/2+x,-z
-x,1/2+y,1/2+z
1/2+x,-y,1/2+z
-y,-x,1/2+z
1/2+y,1/2+x,1/2+z
loop_
_atom_site_type_symbol
_atom_site_label
_atom_site_fract_x
_atom_site_fract_y
_atom_site_fract_z
Si Si1 0.151136 0.348865 0.250000
Si Si2 0.413219 0.875205 0.288992
Si Si3 0.697725 0.944216 0.774763
Si Si4 0.995621 0.197151 0.726223
Si Si5 0.165632 0.700734 0.312775
Si Si6 0.804226 0.804226 0.250000
O O1 0.159959 0.403937 0.266110
O O2 0.172032 0.324844 0.499597
O O3 0.410280 0.907546 0.545178
O O4 0.459421 0.844269 0.274855
O O5 0.371752 0.839213 0.298625
O O6 0.750000 0.923576 0.750000
O O7 0.689946 0.984329 0.561749
O O8 0.690940 0.964125 0.062260
O O9 0.974470 0.250000 0.750000
O O10 0.141354 0.750000 0.250000
O O11 0.190211 0.703886 0.591225
O O12 0.750000 0.815175 0.250000
#
# Coordination Sequence:
#
# PCOD8313675 Si02
#       6
#     8  16  16  16  16   8
#     4  12  22  37  56  80 116 149 186 237 264 307
#     4  10  20  34  53  77 101 130 169 216 272 326
#     4  10  21  35  55  82 109 145 184 220 270 318
#     4  10  20  36  56  80 110 140 178 226 275 327
#     4  10  20  31  44  64  92 127 165 201 244 300
#     4  11  22  34  52  78 112 157 194 219 256 303
#
# _framework density 18.784431000000001
#
# number of rings (size 3 to 8) (size 9 to 14) (size 15 to 20)
#    0.000    1.700    0.000    5.400    0.000    3.600 
#    0.000    6.000    0.000    0.000    0.000   14.000 
#    0.000    0.000    0.000    0.000    0.000    0.000 
#
# Total GULP energy -991790.944534 kJ/mol
# GULP energy per Si atom -12397.386807 kJ/mol
# Density = 1.874168 g / cm^3
# Si number density = 18.784431 Si / 1000 Ang^3
#
#
#
# Elastic Constant Matrix: (Units=GPa)
#
#
# Indices 1 2 3 4 5 6 
#
# 1 80.0565 23.4651 18.4596 0.0000 0.0000 0.0000
# 2 23.4651 80.0583 18.4597 0.0000 0.0000 0.0000
# 3 18.4596 18.4597 112.5279 0.0000 0.0000 0.0000
# 4 0.0000 0.0000 0.0000 23.1598 0.0000 0.0000
# 5 0.0000 0.0000 0.0000 0.0000 23.1605 0.0000
# 6 0.0000 0.0000 0.0000 0.0000 0.0000 22.1358
#
#
#
# Elastic Compliance Matrix: (Units=1/GPa)
#
#
# Indices 1 2 3 4 5 6 
#
# 1 0.013965 -0.003705 -0.001683 0.000000 0.000000 0.000000
# 2 -0.003705 0.013965 -0.001683 0.000000 0.000000 0.000000
# 3 -0.001683 -0.001683 0.009439 0.000000 0.000000 0.000000
# 4 0.000000 0.000000 0.000000 0.043178 0.000000 0.000000
# 5 0.000000 0.000000 0.000000 0.000000 0.043177 0.000000
# 6 0.000000 0.000000 0.000000 0.000000 0.000000 0.045176
#
#
# Mechanical properties :
#
#
# Convention : Reuss Voigt Hill
#
# Bulk Modulus (GPa) = 43.05434 43.71238 43.38336
# Shear Modulus (GPa) = 26.20753 27.84177 27.02465
#
# Velocity S-wave (km/s) = 3.73925 3.85408 3.79710
# Velocity P-wave (km/s) = 6.45079 6.56706 6.50918
#
# Compressibility (1/GPa) = 0.02322646
#
# Stress axis : x y z
#
# Youngs Moduli (GPa) = 71.60612 71.60780 105.94457
#
# Poissons Ratio (x) = 0.26532 0.17832
# Poissons Ratio (y) = 0.26531 0.17831
# Poissons Ratio (z) = 0.12052 0.12052
#
# Static dielectric constant tensor:
#      x y z
#    x 3.287760 0.000000 0.000000 
#    y 0.000000 3.287740 0.000000 
#    z 0.000000 0.000000 3.887270 
# 
# 
# High freq. dielectric constant tensor:
#      x y z
#    x 1.708140 0.000000 0.000000 
#    y 0.000000 1.708140 0.000000 
#    z 0.000000 0.000000 1.759030 
# 
# From -- ./inp_files/614.got.cif
#   From: 2010.03.12/outbox.cif.g09.slc.cpg/sg126_1_cif.got.tgz:614.got - 2010.04.06 16:55:23.
