data_PCOD8313139
_publ_section_title
;
Structure prediction by ZEFSAII (Michael W. Deem and Ramdas Pophale) SiO2 
 PCOD8313139
Probable space group: P 4/M C C
;
_chemical_formula_sum "Si O2"
_cell_formula_units_Z 96
_cell_length_a 23.068897
_cell_length_b 23.068897
_cell_length_c 9.076439
_cell_angle_alpha 90.000000
_cell_angle_beta 90.000000
_cell_angle_gamma 90.000000
_cell_volume 4830.244928
_symmetry_space_group_name_H-M "P 4/M C C"
_symmetry_group_IT_number 124
_symmetry_cell_setting 'tetragonal'
loop_
_space_group_symop_operation_xyz
x,y,z
-y,x,z
-x,-y,z
y,-x,z
x,-y,1/2-z
-x,y,1/2-z
y,x,1/2-z
-y,-x,1/2-z
-x,-y,-z
y,-x,-z
x,y,-z
-y,x,-z
-x,y,1/2+z
x,-y,1/2+z
-y,-x,1/2+z
y,x,1/2+z
loop_
_atom_site_type_symbol
_atom_site_label
_atom_site_fract_x
_atom_site_fract_y
_atom_site_fract_z
Si Si1 0.054144 0.868225 0.163988
Si Si2 0.438707 0.353179 0.670682
Si Si3 0.883837 0.438664 0.171884
Si Si4 0.849847 0.229406 0.163616
Si Si5 0.225976 0.560707 0.670042
Si Si6 0.940780 0.321099 0.171878
O O1 0.074263 0.925738 0.250000
O O2 0.105399 0.822681 0.159103
O O3 0.000000 0.840299 0.250000
O O4 0.034875 0.885527 0.000000
O O5 0.500000 0.356786 0.750000
O O6 0.396618 0.396618 0.750000
O O7 0.446953 0.370046 0.500000
O O8 0.409647 0.289046 0.684714
O O9 0.900081 0.500000 0.250000
O O10 0.826344 0.408261 0.243047
O O11 0.933058 0.390279 0.196793
O O12 0.873846 0.451007 0.000000
O O13 0.791768 0.208233 0.250000
O O14 0.884855 0.284679 0.233072
O O15 0.828291 0.245695 0.000000
O O16 0.231485 0.500000 0.750000
O O17 0.208427 0.552882 0.500000
O O18 0.000000 0.301562 0.250000
O O19 0.947290 0.305883 0.000000
#
# Coordination Sequence:
#
# PCOD8313139 Si02
#       6
#    16  16  16  16  16  16
#     4  10  19  31  48  69  94 124 160 202 248 299
#     4  10  20  33  50  73 102 137 180 230 285 347
#     4  10  20  35  56  81 111 145 182 226 275 331
#     4   9  19  36  56  78 104 136 176 219 264 312
#     4   9  17  31  52  75  98 129 171 216 264 320
#     4  10  22  38  57  84 116 150 187 228 274 325
#
# _framework density 19.874766999999999
#
# number of rings (size 3 to 8) (size 9 to 14) (size 15 to 20)
#    0.000    2.333    0.000    3.500    0.000    5.333 
#    0.000    4.167    0.000    4.000    0.000    0.000 
#    0.000    0.000    0.000    0.000    0.000    0.000 
#
# Total GULP energy -1189394.828234 kJ/mol
# GULP energy per Si atom -12389.529461 kJ/mol
# Density = 1.982953 g / cm^3
# Si number density = 19.874767 Si / 1000 Ang^3
#
#
#
# Elastic Constant Matrix: (Units=GPa)
#
#
# Indices 1 2 3 4 5 6 
#
# 1 79.5296 29.3887 38.4528 0.0000 0.0000 0.0000
# 2 29.3887 79.5278 38.4522 0.0000 0.0000 0.0000
# 3 38.4528 38.4522 128.1932 0.0000 0.0000 0.0000
# 4 0.0000 0.0000 0.0000 24.9089 0.0000 0.0000
# 5 0.0000 0.0000 0.0000 0.0000 24.9094 0.0000
# 6 0.0000 0.0000 0.0000 0.0000 0.0000 26.9988
#
#
#
# Elastic Compliance Matrix: (Units=1/GPa)
#
#
# Indices 1 2 3 4 5 6 
#
# 1 0.015796 -0.004148 -0.003494 0.000000 0.000000 0.000000
# 2 -0.004148 0.015796 -0.003494 0.000000 0.000000 0.000000
# 3 -0.003494 -0.003494 0.009897 0.000000 0.000000 0.000000
# 4 0.000000 0.000000 0.000000 0.040146 0.000000 0.000000
# 5 0.000000 0.000000 0.000000 0.000000 0.040146 0.000000
# 6 0.000000 0.000000 0.000000 0.000000 0.000000 0.037039
#
#
# Mechanical properties :
#
#
# Convention : Reuss Voigt Hill
#
# Bulk Modulus (GPa) = 52.03592 55.53753 53.78673
# Shear Modulus (GPa) = 26.66704 27.42722 27.04713
#
# Velocity S-wave (km/s) = 3.66697 3.71887 3.69301
# Velocity P-wave (km/s) = 6.64587 6.81501 6.73097
#
# Compressibility (1/GPa) = 0.01921749
#
# Stress axis : x y z
#
# Youngs Moduli (GPa) = 63.30683 63.30556 101.04249
#
# Poissons Ratio (x) = 0.26259 0.35304
# Poissons Ratio (y) = 0.26259 0.35304
# Poissons Ratio (z) = 0.22119 0.22119
#
# Static dielectric constant tensor:
#      x y z
#    x 3.695330 0.000000 0.000000 
#    y 0.000000 3.695340 0.000000 
#    z 0.000000 0.000000 3.873240 
# 
# 
# High freq. dielectric constant tensor:
#      x y z
#    x 1.761470 0.000000 0.000000 
#    y 0.000000 1.761470 0.000000 
#    z 0.000000 0.000000 1.783450 
# 
# From -- ./inp_files/1383.got.cif
#   From: 2010.03.12/outbox.cif.g09.slc.cpg/sg124_1_cif.got.tgz:1383.got - 2010.04.06 16:38:57.
