data_PCOD8313467
_publ_section_title
;
Structure prediction by ZEFSAII (Michael W. Deem and Ramdas Pophale) SiO2 
 PCOD8313467
Probable space group: P 4/N B M
;
_chemical_formula_sum "Si O2"
_cell_formula_units_Z 112
_cell_length_a 23.271515
_cell_length_b 23.271515
_cell_length_c 12.534474
_cell_angle_alpha 90.000000
_cell_angle_beta 90.000000
_cell_angle_gamma 90.000000
_cell_volume 6788.212487
_symmetry_space_group_name_H-M "P 4/N B M"
_symmetry_group_IT_number 125
_space_group.IT_coordinate_system_code '2'
_symmetry_cell_setting 'tetragonal'
loop_
_space_group_symop_operation_xyz
x,y,z
1/2-y,x,z
1/2-x,1/2-y,z
y,1/2-x,z
x,1/2-y,-z
1/2-x,y,-z
y,x,-z
1/2-y,1/2-x,-z
-x,-y,-z
1/2+y,-x,-z
1/2+x,1/2+y,-z
-y,1/2+x,-z
-x,1/2+y,z
1/2+x,-y,z
-y,-x,z
1/2+y,1/2+x,z
loop_
_atom_site_type_symbol
_atom_site_label
_atom_site_fract_x
_atom_site_fract_y
_atom_site_fract_z
Si Si1 0.090241 0.816080 0.000421
Si Si2 0.814255 0.813530 0.126557
Si Si3 0.591550 0.315736 0.623934
Si Si4 0.374592 0.532483 0.805718
Si Si5 0.874063 0.031398 0.810664
Si Si6 0.408938 0.683693 0.620279
Si Si7 0.906554 0.594459 0.127597
O O1 0.148758 0.851243 0.015520
O O2 0.046734 0.828902 0.096938
O O3 0.107569 0.750000 0.000000
O O4 0.058674 0.830942 0.891044
O O5 0.750449 0.830500 0.167784
O O6 0.860724 0.858754 0.168296
O O7 0.814099 0.814099 0.000000
O O8 0.652111 0.347890 0.644026
O O9 0.542380 0.344238 0.696661
O O10 0.571180 0.322179 0.502037
O O11 0.600879 0.249452 0.654291
O O12 0.436136 0.563865 0.814002
O O13 0.345801 0.541207 0.690070
O O14 0.383287 0.465876 0.825349
O O15 0.931753 0.068248 0.825375
O O16 0.891041 0.965460 0.818645
O O17 0.348548 0.651453 0.640783
O O18 0.910747 0.589253 0.000000
#
# Coordination Sequence:
#
# PCOD8313467 Si02
#       7
#    16  16  16  16  16  16  16
#     4  10  20  32  47  69 100 134 166 204 247 292
#     4   8  16  30  44  63  93 120 146 190 242 289
#     4   9  18  33  52  74 102 136 173 214 257 298
#     4  10  20  33  48  70 100 129 164 209 252 289
#     4  10  20  33  48  70 100 129 164 209 252 289
#     4   9  18  33  52  74 102 136 173 214 257 298
#     4  11  20  32  51  75  93 130 170 200 243 312
#
# _framework density 16.499189000000001
#
# number of rings (size 3 to 8) (size 9 to 14) (size 15 to 20)
#    0.000    2.429    1.429    1.714    0.000    3.286 
#    0.000    2.143    0.000    8.571    0.000    0.000 
#    0.000    0.000    0.000    6.286    0.000    0.286 
#
# Total GULP energy -1388848.258236 kJ/mol
# GULP energy per Si atom -12400.430877 kJ/mol
# Density = 1.646164 g / cm^3
# Si number density = 16.499189 Si / 1000 Ang^3
#
#
#
# Elastic Constant Matrix: (Units=GPa)
#
#
# Indices 1 2 3 4 5 6 
#
# 1 89.7586 75.6863 33.3206 0.0000 0.0000 0.0000
# 2 75.6863 89.7618 33.3220 0.0000 0.0000 0.0000
# 3 33.3206 33.3220 66.3545 0.0000 0.0000 0.0000
# 4 0.0000 0.0000 0.0000 18.3724 0.0000 0.0000
# 5 0.0000 0.0000 0.0000 0.0000 18.3725 0.0000
# 6 0.0000 0.0000 0.0000 0.0000 0.0000 13.3667
#
#
#
# Elastic Compliance Matrix: (Units=1/GPa)
#
#
# Indices 1 2 3 4 5 6 
#
# 1 0.039316 -0.031738 -0.003804 0.000000 0.000000 0.000000
# 2 -0.031738 0.039315 -0.003805 0.000000 0.000000 0.000000
# 3 -0.003804 -0.003805 0.018892 0.000000 0.000000 0.000000
# 4 0.000000 0.000000 0.000000 0.054429 0.000000 0.000000
# 5 0.000000 0.000000 0.000000 0.000000 0.054429 0.000000
# 6 0.000000 0.000000 0.000000 0.000000 0.000000 0.074813
#
#
# Mechanical properties :
#
#
# Convention : Reuss Voigt Hill
#
# Bulk Modulus (GPa) = 53.11751 58.94806 56.03278
# Shear Modulus (GPa) = 13.65503 16.92538 15.29021
#
# Velocity S-wave (km/s) = 2.87996 3.20633 3.04752
# Velocity P-wave (km/s) = 6.58200 7.03654 6.81306
#
# Compressibility (1/GPa) = 0.01882618
#
# Stress axis : x y z
#
# Youngs Moduli (GPa) = 25.43516 25.43576 52.93259
#
# Poissons Ratio (x) = 0.80729 0.20137
# Poissons Ratio (y) = 0.80727 0.20143
# Poissons Ratio (z) = 0.09676 0.09679
#
# Static dielectric constant tensor:
#      x y z
#    x 3.133290 0.000000 0.000000 
#    y 0.000000 3.133290 0.000000 
#    z 0.000000 0.000000 3.079660 
# 
# 
# High freq. dielectric constant tensor:
#      x y z
#    x 1.634050 0.000000 0.000000 
#    y 0.000000 1.634050 0.000000 
#    z 0.000000 0.000000 1.618710 
# 
# From -- ./inp_files/4318.got.cif
#   From: 2010.03.12/outbox.cif.g09.slc.cpg/sg125_3_cif.got.tgz:4318.got - 2010.04.06 16:47:52.
