data_PCOD8313316
_publ_section_title
;
Structure prediction by ZEFSAII (Michael W. Deem and Ramdas Pophale) SiO2 
 PCOD8313316
Probable space group: P 4/M C C
;
_chemical_formula_sum "Si O2"
_cell_formula_units_Z 88
_cell_length_a 16.311799
_cell_length_b 16.311799
_cell_length_c 15.874682
_cell_angle_alpha 90.000000
_cell_angle_beta 90.000000
_cell_angle_gamma 90.000000
_cell_volume 4223.852626
_symmetry_space_group_name_H-M "P 4/M C C"
_symmetry_group_IT_number 124
_symmetry_cell_setting 'tetragonal'
loop_
_space_group_symop_operation_xyz
x,y,z
-y,x,z
-x,-y,z
y,-x,z
x,-y,1/2-z
-x,y,1/2-z
y,x,1/2-z
-y,-x,1/2-z
-x,-y,-z
y,-x,-z
x,y,-z
-y,x,-z
-x,y,1/2+z
x,-y,1/2+z
-y,-x,1/2+z
y,x,1/2+z
loop_
_atom_site_type_symbol
_atom_site_label
_atom_site_fract_x
_atom_site_fract_y
_atom_site_fract_z
Si Si1 0.047845 0.776052 0.162464
Si Si2 0.487405 0.633366 0.500000
Si Si3 0.819455 0.883899 0.406308
Si Si4 0.686228 0.759286 0.596022
Si Si5 0.359730 0.166724 0.099970
Si Si6 0.508701 0.746460 0.343640
O O1 0.152251 0.883561 0.338142
O O2 0.088849 0.689256 0.137675
O O3 0.000000 0.768133 0.250000
O O4 0.980966 0.807590 0.095684
O O5 0.410974 0.573619 0.500000
O O6 0.478261 0.683967 0.414643
O O7 0.848866 0.856773 0.500000
O O8 0.730564 0.845527 0.388407
O O9 0.658169 0.746417 0.500000
O O10 0.748764 0.687373 0.623004
O O11 0.604683 0.765417 0.650725
O O12 0.450238 0.173194 0.142745
O O13 0.367163 0.155041 0.000000
O O14 0.500000 0.709459 0.250000
#
# Coordination Sequence:
#
# PCOD8313316 Si02
#       6
#    16   8  16  16  16  16
#     4  11  23  39  64  99 131 165 213 269 334 395
#     4  11  24  42  62  92 137 176 216 286 353 406
#     4  10  21  40  65  92 127 170 213 264 327 404
#     4   9  19  38  64  90 125 170 222 267 323 395
#     4  10  21  41  67  93 130 180 222 273 329 398
#     4  12  24  38  64  97 129 172 233 279 335 393
#
# _framework density 20.834060999999998
#
# number of rings (size 3 to 8) (size 9 to 14) (size 15 to 20)
#    0.000    1.545    1.818    4.364    2.545    3.273 
#    0.000    3.636    0.000    3.273    0.000    0.000 
#    0.000    0.000    0.000    0.000    0.000    0.000 
#
# Total GULP energy -1090839.316953 kJ/mol
# GULP energy per Si atom -12395.901329 kJ/mol
# Density = 2.078664 g / cm^3
# Si number density = 20.834061 Si / 1000 Ang^3
#
#
#
# Elastic Constant Matrix: (Units=GPa)
#
#
# Indices 1 2 3 4 5 6 
#
# 1 110.6718 37.0470 53.5840 0.0000 0.0000 0.0000
# 2 37.0470 110.6718 53.5840 0.0000 0.0000 0.0000
# 3 53.5840 53.5840 137.7127 0.0000 0.0000 0.0000
# 4 0.0000 0.0000 0.0000 28.4998 0.0000 0.0000
# 5 0.0000 0.0000 0.0000 0.0000 28.4998 0.0000
# 6 0.0000 0.0000 0.0000 0.0000 0.0000 39.1650
#
#
#
# Elastic Compliance Matrix: (Units=1/GPa)
#
#
# Indices 1 2 3 4 5 6 
#
# 1 0.011507 -0.002075 -0.003670 0.000000 0.000000 0.000000
# 2 -0.002075 0.011507 -0.003670 0.000000 0.000000 0.000000
# 3 -0.003670 -0.003670 0.010118 0.000000 0.000000 0.000000
# 4 0.000000 0.000000 0.000000 0.035088 0.000000 0.000000
# 5 0.000000 0.000000 0.000000 0.000000 0.035088 0.000000
# 6 0.000000 0.000000 0.000000 0.000000 0.000000 0.025533
#
#
# Mechanical properties :
#
#
# Convention : Reuss Voigt Hill
#
# Bulk Modulus (GPa) = 69.92191 71.94294 70.93242
# Shear Modulus (GPa) = 32.80005 33.55567 33.17786
#
# Velocity S-wave (km/s) = 3.97211 4.01760 3.99492
# Velocity P-wave (km/s) = 7.39399 7.49185 7.44308
#
# Compressibility (1/GPa) = 0.01430167
#
# Stress axis : x y z
#
# Youngs Moduli (GPa) = 86.90144 86.90144 98.83820
#
# Poissons Ratio (x) = 0.18033 0.36274
# Poissons Ratio (y) = 0.18033 0.36274
# Poissons Ratio (z) = 0.31893 0.31893
#
# Static dielectric constant tensor:
#      x y z
#    x 3.855250 0.000000 0.000000 
#    y 0.000000 3.855250 0.000000 
#    z 0.000000 0.000000 3.721220 
# 
# 
# High freq. dielectric constant tensor:
#      x y z
#    x 1.810750 0.000000 0.000000 
#    y 0.000000 1.810750 0.000000 
#    z 0.000000 0.000000 1.821170 
# 
# From -- ./inp_files/3233.got.cif
#   From: 2010.03.12/outbox.cif.g09.slc.cpg/sg124_2_cif.got.tgz:3233.got - 2010.04.06 16:38:57.
