data_PCOD8313271
_publ_section_title
;
Structure prediction by ZEFSAII (Michael W. Deem and Ramdas Pophale) SiO2 
 PCOD8313271
Probable space group: P 4/M C C
;
_chemical_formula_sum "Si O2"
_cell_formula_units_Z 112
_cell_length_a 14.391902
_cell_length_b 14.391902
_cell_length_c 27.130433
_cell_angle_alpha 90.000000
_cell_angle_beta 90.000000
_cell_angle_gamma 90.000000
_cell_volume 5619.440941
_symmetry_space_group_name_H-M "P 4/M C C"
_symmetry_group_IT_number 124
_symmetry_cell_setting 'tetragonal'
loop_
_space_group_symop_operation_xyz
x,y,z
-y,x,z
-x,-y,z
y,-x,z
x,-y,1/2-z
-x,y,1/2-z
y,x,1/2-z
-y,-x,1/2-z
-x,-y,-z
y,-x,-z
x,y,-z
-y,x,-z
-x,y,1/2+z
x,-y,1/2+z
-y,-x,1/2+z
y,x,1/2+z
loop_
_atom_site_type_symbol
_atom_site_label
_atom_site_fract_x
_atom_site_fract_y
_atom_site_fract_z
Si Si1 0.732982 0.642268 0.181746
Si Si2 0.933220 0.869820 0.058115
Si Si3 0.315977 0.889175 0.892995
Si Si4 0.495268 0.345927 0.385323
Si Si5 0.592114 0.777718 0.781542
Si Si6 0.833138 0.498961 0.443065
Si Si7 0.589117 0.060362 0.641770
O O1 0.799494 0.687030 0.141526
O O2 0.715935 0.531278 0.164456
O O3 0.631915 0.694035 0.183570
O O4 0.785278 0.658506 0.233368
O O5 0.883387 0.780742 0.079635
O O6 0.039772 0.876810 0.076221
O O7 0.930495 0.863343 0.000000
O O8 0.400041 0.881140 0.932101
O O9 0.325805 0.987746 0.864111
O O10 0.588420 0.404722 0.387285
O O11 0.496096 0.277130 0.431911
O O12 0.500000 0.753398 0.750000
O O13 0.599471 0.873405 0.811062
O O14 0.848745 0.525444 0.500000
O O15 0.880505 0.577274 0.408615
O O16 0.500000 0.000000 0.654156
#
# Coordination Sequence:
#
# PCOD8313271 Si02
#       7
#    16  16  16  16  16  16  16
#     4  10  22  36  56  87 116 149 193 244 297 347
#     4   9  19  36  58  85 115 151 195 242 300 366
#     4  10  21  36  59  85 116 151 189 243 300 359
#     4  10  20  37  58  80 114 158 200 239 289 354
#     4  11  21  37  59  83 118 150 191 246 288 349
#     4  10  21  37  55  82 116 148 194 247 292 353
#     4  10  22  37  58  84 110 153 193 234 297 350
#
# _framework density 19.930809
#
# number of rings (size 3 to 8) (size 9 to 14) (size 15 to 20)
#    0.000    2.000    0.000    5.143    2.000    5.714 
#    0.000    0.714    0.000    6.857    0.000    0.000 
#    0.000    0.000    0.000    0.000    0.000    0.000 
#
# Total GULP energy -1387674.329508 kJ/mol
# GULP energy per Si atom -12389.949371 kJ/mol
# Density = 1.988545 g / cm^3
# Si number density = 19.930809 Si / 1000 Ang^3
#
#
#
# Elastic Constant Matrix: (Units=GPa)
#
#
# Indices 1 2 3 4 5 6 
#
# 1 84.6172 23.9999 31.6990 0.0000 0.0000 0.0000
# 2 23.9999 84.6172 31.6990 0.0000 0.0000 0.0000
# 3 31.6990 31.6990 86.6345 0.0000 0.0000 0.0000
# 4 0.0000 0.0000 0.0000 21.3845 0.0000 0.0000
# 5 0.0000 0.0000 0.0000 0.0000 21.3845 0.0000
# 6 0.0000 0.0000 0.0000 0.0000 0.0000 20.6203
#
#
#
# Elastic Compliance Matrix: (Units=1/GPa)
#
#
# Indices 1 2 3 4 5 6 
#
# 1 0.014102 -0.002395 -0.004283 0.000000 0.000000 0.000000
# 2 -0.002395 0.014102 -0.004283 0.000000 0.000000 0.000000
# 3 -0.004283 -0.004283 0.014677 0.000000 0.000000 0.000000
# 4 0.000000 0.000000 0.000000 0.046763 0.000000 0.000000
# 5 0.000000 0.000000 0.000000 0.000000 0.046763 0.000000
# 6 0.000000 0.000000 0.000000 0.000000 0.000000 0.048496
#
#
# Mechanical properties :
#
#
# Convention : Reuss Voigt Hill
#
# Bulk Modulus (GPa) = 47.71634 47.85161 47.78398
# Shear Modulus (GPa) = 23.38500 23.90927 23.64714
#
# Velocity S-wave (km/s) = 3.42908 3.46730 3.44824
# Velocity P-wave (km/s) = 6.29850 6.33171 6.31513
#
# Compressibility (1/GPa) = 0.02095718
#
# Stress axis : x y z
#
# Youngs Moduli (GPa) = 70.91256 70.91256 68.13236
#
# Poissons Ratio (x) = 0.16984 0.29184
# Poissons Ratio (y) = 0.16984 0.29184
# Poissons Ratio (z) = 0.30375 0.30375
#
# Static dielectric constant tensor:
#      x y z
#    x 3.804290 0.000000 0.000000 
#    y 0.000000 3.804290 0.000000 
#    z 0.000000 0.000000 3.725980 
# 
# 
# High freq. dielectric constant tensor:
#      x y z
#    x 1.774800 0.000000 0.000000 
#    y 0.000000 1.774800 0.000000 
#    z 0.000000 0.000000 1.774770 
# 
# From -- ./inp_files/6619.got.cif
#   From: 2010.03.12/outbox.cif.g09.slc.cpg/sg124_4_cif.got.tgz:6619.got - 2010.04.06 16:38:57.
