data_PCOD8313618
_publ_section_title
;
Structure prediction by ZEFSAII (Michael W. Deem and Ramdas Pophale) SiO2 
 PCOD8313618
Probable space group: P 4/N B M
;
_chemical_formula_sum "Si O2"
_cell_formula_units_Z 96
_cell_length_a 14.381930
_cell_length_b 14.381930
_cell_length_c 22.986996
_cell_angle_alpha 90.000000
_cell_angle_beta 90.000000
_cell_angle_gamma 90.000000
_cell_volume 4754.628196
_symmetry_space_group_name_H-M "P 4/N B M"
_symmetry_group_IT_number 125
_space_group.IT_coordinate_system_code '2'
_symmetry_cell_setting 'tetragonal'
loop_
_space_group_symop_operation_xyz
x,y,z
1/2-y,x,z
1/2-x,1/2-y,z
y,1/2-x,z
x,1/2-y,-z
1/2-x,y,-z
y,x,-z
1/2-y,1/2-x,-z
-x,-y,-z
1/2+y,-x,-z
1/2+x,1/2+y,-z
-y,1/2+x,-z
-x,1/2+y,z
1/2+x,-y,z
-y,-x,z
1/2+y,1/2+x,z
loop_
_atom_site_type_symbol
_atom_site_label
_atom_site_fract_x
_atom_site_fract_y
_atom_site_fract_z
Si Si1 0.614165 0.823241 0.360438
Si Si2 0.003243 0.245108 0.818408
Si Si3 0.952126 0.296675 0.560240
Si Si4 0.256199 0.096912 0.935555
Si Si5 0.672119 0.172119 0.364631
Si Si6 0.324006 0.824006 0.763325
Si Si7 0.917357 0.571107 0.757876
O O1 0.625626 0.712268 0.364850
O O2 0.542545 0.847929 0.412432
O O3 0.566421 0.859066 0.301571
O O4 0.017344 0.232116 0.887352
O O5 0.066439 0.176534 0.778954
O O6 0.023559 0.352157 0.805405
O O7 0.897924 0.224820 0.804048
O O8 0.981809 0.250000 0.500000
O O9 0.871384 0.371384 0.548888
O O10 0.917798 0.214255 0.603119
O O11 0.344406 0.162983 0.926985
O O12 0.250000 0.051670 0.000000
O O13 0.750000 0.250000 0.363602
O O14 0.638963 0.138963 0.299762
O O15 0.250000 0.750000 0.742969
O O16 0.014941 0.514941 0.753763
#
# Coordination Sequence:
#
# PCOD8313618 Si02
#       7
#    16  16  16  16   8   8  16
#     4  11  25  44  64  90 130 172 212 270 334 391
#     4  12  22  38  67  95 133 171 218 274 333 392
#     4  11  22  42  69  97 126 164 218 268 321 395
#     4   9  18  34  61  95 127 165 216 274 328 382
#     4   9  20  38  66  92 125 165 208 262 319 368
#     4  11  24  42  62  94 136 179 215 269 333 405
#     4  12  24  40  64  98 133 172 220 269 332 399
#
# _framework density 20.190850999999999
#
# number of rings (size 3 to 8) (size 9 to 14) (size 15 to 20)
#    0.000    1.167    5.000    2.500    0.000    2.333 
#    1.500    1.667    3.667    2.000    0.000    0.000 
#    0.000    0.000    0.000    0.000    0.000    0.000 
#
# Total GULP energy -1190207.755181 kJ/mol
# GULP energy per Si atom -12397.997450 kJ/mol
# Density = 2.014490 g / cm^3
# Si number density = 20.190851 Si / 1000 Ang^3
#
#
#
# Elastic Constant Matrix: (Units=GPa)
#
#
# Indices 1 2 3 4 5 6 
#
# 1 80.1227 -4.5426 34.2364 0.0000 0.0000 0.0000
# 2 -4.5426 80.1227 34.2364 0.0000 0.0000 0.0000
# 3 34.2364 34.2364 164.0628 0.0000 0.0000 0.0000
# 4 0.0000 0.0000 0.0000 36.6307 0.0000 0.0000
# 5 0.0000 0.0000 0.0000 0.0000 36.6307 0.0000
# 6 0.0000 0.0000 0.0000 0.0000 0.0000 23.8910
#
#
#
# Elastic Compliance Matrix: (Units=1/GPa)
#
#
# Indices 1 2 3 4 5 6 
#
# 1 0.014063 0.002252 -0.003405 0.000000 0.000000 0.000000
# 2 0.002252 0.014063 -0.003405 0.000000 0.000000 0.000000
# 3 -0.003405 -0.003405 0.007516 0.000000 0.000000 0.000000
# 4 0.000000 0.000000 0.000000 0.027299 0.000000 0.000000
# 5 0.000000 0.000000 0.000000 0.000000 0.027299 0.000000
# 6 0.000000 0.000000 0.000000 0.000000 0.000000 0.041857
#
#
# Mechanical properties :
#
#
# Convention : Reuss Voigt Hill
#
# Bulk Modulus (GPa) = 37.69535 50.24094 43.96815
# Shear Modulus (GPa) = 33.32088 36.78902 35.05495
#
# Velocity S-wave (km/s) = 4.06679 4.27319 4.17127
# Velocity P-wave (km/s) = 6.38449 7.02025 6.70991
#
# Compressibility (1/GPa) = 0.02652847
#
# Stress axis : x y z
#
# Youngs Moduli (GPa) = 71.10669 71.10669 133.04581
#
# Poissons Ratio (x) = -0.16014 0.45298
# Poissons Ratio (y) = -0.16014 0.45298
# Poissons Ratio (z) = 0.24210 0.24210
#
# Static dielectric constant tensor:
#      x y z
#    x 3.524350 0.000000 0.000000 
#    y 0.000000 3.524350 0.000000 
#    z 0.000000 0.000000 3.705990 
# 
# 
# High freq. dielectric constant tensor:
#      x y z
#    x 1.780530 0.000000 0.000000 
#    y 0.000000 1.780530 0.000000 
#    z 0.000000 0.000000 1.790190 
# 
# From -- ./inp_files/5973.got.cif
#   From: 2010.03.12/outbox.cif.g09.slc.cpg/sg125_3_cif.got.tgz:5973.got - 2010.04.06 16:47:52.
