data_PCOD8313726
_publ_section_title
;
Structure prediction by ZEFSAII (Michael W. Deem and Ramdas Pophale) SiO2 
 PCOD8313726
Probable space group: P 4/N N C
;
_chemical_formula_sum "Si O2"
_cell_formula_units_Z 56
_cell_length_a 10.608095
_cell_length_b 10.608095
_cell_length_c 22.957602
_cell_angle_alpha 90.000000
_cell_angle_beta 90.000000
_cell_angle_gamma 90.000000
_cell_volume 2583.457511
_symmetry_space_group_name_H-M "P 4/N N C"
_symmetry_group_IT_number 126
_space_group.IT_coordinate_system_code '2'
_symmetry_cell_setting 'tetragonal'
loop_
_space_group_symop_operation_xyz
x,y,z
1/2-y,x,z
1/2-x,1/2-y,z
y,1/2-x,z
x,1/2-y,1/2-z
1/2-x,y,1/2-z
y,x,1/2-z
1/2-y,1/2-x,1/2-z
-x,-y,-z
1/2+y,-x,-z
1/2+x,1/2+y,-z
-y,1/2+x,-z
-x,1/2+y,1/2+z
1/2+x,-y,1/2+z
-y,-x,1/2+z
1/2+y,1/2+x,1/2+z
loop_
_atom_site_type_symbol
_atom_site_label
_atom_site_fract_x
_atom_site_fract_y
_atom_site_fract_z
Si Si1 0.041411 0.250000 0.750000
Si Si2 0.202571 0.892305 0.864950
Si Si3 0.707143 0.441750 0.484450
Si Si4 0.431441 0.163285 0.403856
O O1 0.125424 0.125424 0.750000
O O2 0.951820 0.249724 0.805646
O O3 0.250000 0.750000 0.870911
O O4 0.259713 0.977792 0.917790
O O5 0.050868 0.894191 0.869952
O O6 0.830410 0.394659 0.518937
O O7 0.653020 0.553979 0.525104
O O8 0.415105 0.309216 0.385094
#
# Coordination Sequence:
#
# PCOD8313726 Si02
#       4
#     8  16  16  16
#     4  11  29  48  66  96 125 165 230 282 324 389
#     4  11  22  42  69  92 129 178 219 266 335 392
#     4   9  16  34  59  93 127 164 212 251 312 387
#     4  10  22  37  62 102 137 167 214 267 325 401
#
# _framework density 21.676376999999999
#
# number of rings (size 3 to 8) (size 9 to 14) (size 15 to 20)
#    0.000    1.857    5.714    0.429    4.000    6.857 
#    0.000    2.857    0.000    0.000    0.000    0.000 
#    0.000    0.000    0.000    0.000    0.000    0.000 
#
# Total GULP energy -694165.220023 kJ/mol
# GULP energy per Si atom -12395.807500 kJ/mol
# Density = 2.162704 g / cm^3
# Si number density = 21.676377 Si / 1000 Ang^3
#
#
#
# Elastic Constant Matrix: (Units=GPa)
#
#
# Indices 1 2 3 4 5 6 
#
# 1 57.7092 9.2928 33.7890 0.0000 0.0000 0.0000
# 2 9.2928 57.7092 33.7890 0.0000 0.0000 0.0000
# 3 33.7890 33.7890 154.1012 0.0000 0.0000 0.0000
# 4 0.0000 0.0000 0.0000 24.3017 0.0000 0.0000
# 5 0.0000 0.0000 0.0000 0.0000 24.3017 0.0000
# 6 0.0000 0.0000 0.0000 0.0000 0.0000 13.7850
#
#
#
# Elastic Compliance Matrix: (Units=1/GPa)
#
#
# Indices 1 2 3 4 5 6 
#
# 1 0.019908 -0.000746 -0.004202 0.000000 0.000000 0.000000
# 2 -0.000746 0.019908 -0.004202 0.000000 0.000000 0.000000
# 3 -0.004202 -0.004202 0.008332 0.000000 0.000000 0.000000
# 4 0.000000 0.000000 0.000000 0.041149 0.000000 0.000000
# 5 0.000000 0.000000 0.000000 0.000000 0.041149 0.000000
# 6 0.000000 0.000000 0.000000 0.000000 0.000000 0.072542
#
#
# Mechanical properties :
#
#
# Convention : Reuss Voigt Hill
#
# Bulk Modulus (GPa) = 33.50027 47.02902 40.26464
# Shear Modulus (GPa) = 21.62269 25.32093 23.47181
#
# Velocity S-wave (km/s) = 3.16179 3.42151 3.29421
# Velocity P-wave (km/s) = 5.36819 6.11163 5.75193
#
# Compressibility (1/GPa) = 0.02985051
#
# Stress axis : x y z
#
# Youngs Moduli (GPa) = 50.22985 50.22985 120.02169
#
# Poissons Ratio (x) = 0.03746 0.50430
# Poissons Ratio (y) = 0.03746 0.50430
# Poissons Ratio (z) = 0.21105 0.21105
#
# Static dielectric constant tensor:
#      x y z
#    x 3.870430 0.000000 0.000000 
#    y 0.000000 3.870430 0.000000 
#    z 0.000000 0.000000 3.823820 
# 
# 
# High freq. dielectric constant tensor:
#      x y z
#    x 1.850520 0.000000 0.000000 
#    y 0.000000 1.850520 0.000000 
#    z 0.000000 0.000000 1.827960 
# 
# From -- ./inp_files/4864.got.cif
#   From: 2010.03.12/outbox.cif.g09.slc.cpg/sg126_3_cif.got.tgz:4864.got - 2010.04.06 16:55:23.
