data_PCOD8313080
_publ_section_title
;
Structure prediction by ZEFSAII (Michael W. Deem and Ramdas Pophale) SiO2 
 PCOD8313080
Probable space group: P 4/M C C
;
_chemical_formula_sum "Si O2"
_cell_formula_units_Z 72
_cell_length_a 11.924009
_cell_length_b 11.924009
_cell_length_c 25.654943
_cell_angle_alpha 90.000000
_cell_angle_beta 90.000000
_cell_angle_gamma 90.000000
_cell_volume 3647.670865
_symmetry_space_group_name_H-M "P 4/M C C"
_symmetry_group_IT_number 124
_symmetry_cell_setting 'tetragonal'
loop_
_space_group_symop_operation_xyz
x,y,z
-y,x,z
-x,-y,z
y,-x,z
x,-y,1/2-z
-x,y,1/2-z
y,x,1/2-z
-y,-x,1/2-z
-x,-y,-z
y,-x,-z
x,y,-z
-y,x,-z
-x,y,1/2+z
x,-y,1/2+z
-y,-x,1/2+z
y,x,1/2+z
loop_
_atom_site_type_symbol
_atom_site_label
_atom_site_fract_x
_atom_site_fract_y
_atom_site_fract_z
Si Si1 0.201801 0.622661 0.235299
Si Si2 0.321232 0.474591 0.561617
Si Si3 0.587501 0.102285 0.376716
Si Si4 0.754109 0.000000 0.250000
Si Si5 0.825235 0.032309 0.636299
O O1 0.233380 0.500000 0.250000
O O2 0.312410 0.687591 0.250000
O O3 0.165937 0.622181 0.175567
O O4 0.100926 0.673935 0.269854
O O5 0.405785 0.374571 0.579415
O O6 0.308661 0.472700 0.500000
O O7 0.196328 0.459998 0.584438
O O8 0.707255 0.049547 0.393854
O O9 0.500000 0.000000 0.369853
O O10 0.824116 0.040460 0.300009
O O11 0.910992 0.129303 0.618618
#
# Coordination Sequence:
#
# PCOD8313080 Si02
#       5
#    16  16  16   8  16
#     4  11  23  36  52  79 121 161 202 243 295 358
#     4   9  21  43  70  96 121 155 203 261 327 395
#     4  11  24  36  63  91 125 161 207 259 311 372
#     4  10  17  33  54  72 104 157 207 248 284 332
#     4  10  20  33  52  80 116 156 204 247 292 353
#
# _framework density 19.738624000000002
#
# number of rings (size 3 to 8) (size 9 to 14) (size 15 to 20)
#    0.000    1.778    0.000    7.000    6.222    1.556 
#    0.000    0.000    0.000    0.000    0.000    1.556 
#    0.000    0.000    0.000    0.000    0.000    0.000 
#
# Total GULP energy -892230.289935 kJ/mol
# GULP energy per Si atom -12392.087360 kJ/mol
# Density = 1.969370 g / cm^3
# Si number density = 19.738624 Si / 1000 Ang^3
#
#
#
# Elastic Constant Matrix: (Units=GPa)
#
#
# Indices 1 2 3 4 5 6 
#
# 1 144.6547 70.3141 20.5000 0.0000 0.0000 0.0000
# 2 70.3141 144.6591 20.5010 0.0000 0.0000 0.0000
# 3 20.5000 20.5010 35.6240 0.0000 0.0000 0.0000
# 4 0.0000 0.0000 0.0000 23.0875 0.0000 0.0000
# 5 0.0000 0.0000 0.0000 0.0000 23.0874 0.0000
# 6 0.0000 0.0000 0.0000 0.0000 0.0000 70.6512
#
#
#
# Elastic Compliance Matrix: (Units=1/GPa)
#
#
# Indices 1 2 3 4 5 6 
#
# 1 0.009338 -0.004113 -0.003007 0.000000 0.000000 0.000000
# 2 -0.004113 0.009338 -0.003007 0.000000 0.000000 0.000000
# 3 -0.003007 -0.003007 0.031532 0.000000 0.000000 0.000000
# 4 0.000000 0.000000 0.000000 0.043313 0.000000 0.000000
# 5 0.000000 0.000000 0.000000 0.000000 0.043314 0.000000
# 6 0.000000 0.000000 0.000000 0.000000 0.000000 0.014154
#
#
# Mechanical properties :
#
#
# Convention : Reuss Voigt Hill
#
# Bulk Modulus (GPa) = 33.38406 60.84088 47.11247
# Shear Modulus (GPa) = 27.58954 37.60674 32.59814
#
# Velocity S-wave (km/s) = 3.74270 4.36964 4.06826
# Velocity P-wave (km/s) = 5.96882 7.50656 6.78142
#
# Compressibility (1/GPa) = 0.02995442
#
# Stress axis : x y z
#
# Youngs Moduli (GPa) = 107.08509 107.08771 31.71402
#
# Poissons Ratio (x) = 0.44045 0.09536
# Poissons Ratio (y) = 0.44043 0.09537
# Poissons Ratio (z) = 0.32199 0.32203
#
# Static dielectric constant tensor:
#      x y z
#    x 3.965850 0.000000 0.000000 
#    y 0.000000 3.965840 0.000000 
#    z 0.000000 0.000000 3.097450 
# 
# 
# High freq. dielectric constant tensor:
#      x y z
#    x 1.786170 0.000000 0.000000 
#    y 0.000000 1.786170 0.000000 
#    z 0.000000 0.000000 1.714920 
# 
# From -- ./inp_files/6501.got.cif
#   From: 2010.03.12/outbox.cif.g09.slc.cpg/sg124_4_cif.got.tgz:6501.got - 2010.04.06 16:38:57.
