data_PCOD8313206
_publ_section_title
;
Structure prediction by ZEFSAII (Michael W. Deem and Ramdas Pophale) SiO2 
 PCOD8313206
Probable space group: P 4/M C C
;
_chemical_formula_sum "Si O2"
_cell_formula_units_Z 120
_cell_length_a 15.089067
_cell_length_b 15.089067
_cell_length_c 30.320112
_cell_angle_alpha 90.000000
_cell_angle_beta 90.000000
_cell_angle_gamma 90.000000
_cell_volume 6903.281370
_symmetry_space_group_name_H-M "P 4/M C C"
_symmetry_group_IT_number 124
_symmetry_cell_setting 'tetragonal'
loop_
_space_group_symop_operation_xyz
x,y,z
-y,x,z
-x,-y,z
y,-x,z
x,-y,1/2-z
-x,y,1/2-z
y,x,1/2-z
-y,-x,1/2-z
-x,-y,-z
y,-x,-z
x,y,-z
-y,x,-z
-x,y,1/2+z
x,-y,1/2+z
-y,-x,1/2+z
y,x,1/2+z
loop_
_atom_site_type_symbol
_atom_site_label
_atom_site_fract_x
_atom_site_fract_y
_atom_site_fract_z
Si Si1 0.199286 0.823944 0.050256
Si Si2 0.972997 0.397818 0.374959
Si Si3 0.015765 0.733347 0.949766
Si Si4 0.628252 0.431384 0.500000
Si Si5 0.191840 0.180700 0.300294
Si Si6 0.734626 0.006990 0.300371
Si Si7 0.569943 0.371353 0.095019
Si Si8 0.325324 0.780460 0.873453
O O1 0.099065 0.795694 0.060742
O O2 0.264366 0.772768 0.083153
O O3 0.206569 0.929168 0.058630
O O4 0.225795 0.799295 0.000000
O O5 0.009344 0.352404 0.330586
O O6 0.867239 0.386668 0.375259
O O7 0.000000 0.500000 0.375031
O O8 0.015981 0.351803 0.417921
O O9 0.018683 0.697807 0.000000
O O10 0.616816 0.535433 0.500000
O O11 0.673440 0.407517 0.453255
O O12 0.209587 0.209587 0.250000
O O13 0.200800 0.075922 0.309553
O O14 0.264407 0.228692 0.330343
O O15 0.092566 0.207835 0.312695
O O16 0.701483 0.000000 0.250000
O O17 0.618025 0.465241 0.101354
O O18 0.608636 0.302870 0.130196
#
# Coordination Sequence:
#
# PCOD8313206 Si02
#       8
#    16  16  16   8  16  16  16  16
#     4   9  18  31  48  71  99 129 162 198 239 292
#     4  10  21  35  50  69  99 135 170 204 241 291
#     4   9  18  33  50  70  97 128 164 205 245 288
#     4   7  12  26  46  68  93 116 144 193 249 296
#     4   9  18  33  52  77 105 132 163 202 246 293
#     4   9  18  33  54  78 103 129 160 202 250 297
#     4   9  18  32  51  73  97 124 160 208 259 303
#     4  10  20  32  50  73  99 131 166 204 248 295
#
# _framework density 17.383039
#
# number of rings (size 3 to 8) (size 9 to 14) (size 15 to 20)
#    0.000    2.867    0.000    1.600    0.933    3.200 
#    0.000    2.667    0.000    7.200    0.000    0.933 
#    0.000    0.000    0.000    0.000    0.000    0.000 
#
# Total GULP energy -1487297.518258 kJ/mol
# GULP energy per Si atom -12394.145985 kJ/mol
# Density = 1.734347 g / cm^3
# Si number density = 17.383039 Si / 1000 Ang^3
#
#
#
# Elastic Constant Matrix: (Units=GPa)
#
#
# Indices 1 2 3 4 5 6 
#
# 1 105.4831 65.5831 59.3263 0.0000 0.0000 0.0000
# 2 65.5831 105.4831 59.3263 0.0000 0.0000 0.0000
# 3 59.3263 59.3263 96.4759 0.0000 0.0000 0.0000
# 4 0.0000 0.0000 0.0000 25.4251 0.0000 0.0000
# 5 0.0000 0.0000 0.0000 0.0000 25.4251 0.0000
# 6 0.0000 0.0000 0.0000 0.0000 0.0000 28.0379
#
#
#
# Elastic Compliance Matrix: (Units=1/GPa)
#
#
# Indices 1 2 3 4 5 6 
#
# 1 0.017628 -0.007435 -0.006268 0.000000 0.000000 0.000000
# 2 -0.007435 0.017628 -0.006268 0.000000 0.000000 0.000000
# 3 -0.006268 -0.006268 0.018074 0.000000 0.000000 0.000000
# 4 0.000000 0.000000 0.000000 0.039331 0.000000 0.000000
# 5 0.000000 0.000000 0.000000 0.000000 0.039331 0.000000
# 6 0.000000 0.000000 0.000000 0.000000 0.000000 0.035666
#
#
# Mechanical properties :
#
#
# Convention : Reuss Voigt Hill
#
# Bulk Modulus (GPa) = 74.69291 75.10151 74.89721
# Shear Modulus (GPa) = 23.57778 23.99136 23.78457
#
# Velocity S-wave (km/s) = 3.68688 3.71908 3.70302
# Velocity P-wave (km/s) = 7.82217 7.85747 7.83984
#
# Compressibility (1/GPa) = 0.01338815
#
# Stress axis : x y z
#
# Youngs Moduli (GPa) = 56.72783 56.72783 55.32676
#
# Poissons Ratio (x) = 0.42175 0.34680
# Poissons Ratio (y) = 0.42175 0.34680
# Poissons Ratio (z) = 0.35559 0.35559
#
# Static dielectric constant tensor:
#      x y z
#    x 3.051470 0.000000 0.000000 
#    y 0.000000 3.051470 0.000000 
#    z 0.000000 0.000000 3.468700 
# 
# 
# High freq. dielectric constant tensor:
#      x y z
#    x 1.659590 0.000000 0.000000 
#    y 0.000000 1.659590 0.000000 
#    z 0.000000 0.000000 1.677830 
# 
# From -- ./inp_files/7333.got.cif
#   From: 2010.03.12/outbox.cif.g09.slc.cpg/sg124_4_cif.got.tgz:7333.got - 2010.04.06 16:38:57.
