data_PCOD8313187
_publ_section_title
;
Structure prediction by ZEFSAII (Michael W. Deem and Ramdas Pophale) SiO2 
 PCOD8313187
Probable space group: P 4/M C C
;
_chemical_formula_sum "Si O2"
_cell_formula_units_Z 88
_cell_length_a 12.983235
_cell_length_b 12.983235
_cell_length_c 28.329218
_cell_angle_alpha 90.000000
_cell_angle_beta 90.000000
_cell_angle_gamma 90.000000
_cell_volume 4775.297382
_symmetry_space_group_name_H-M "P 4/M C C"
_symmetry_group_IT_number 124
_symmetry_cell_setting 'tetragonal'
loop_
_space_group_symop_operation_xyz
x,y,z
-y,x,z
-x,-y,z
y,-x,z
x,-y,1/2-z
-x,y,1/2-z
y,x,1/2-z
-y,-x,1/2-z
-x,-y,-z
y,-x,-z
x,y,-z
-y,x,-z
-x,y,1/2+z
x,-y,1/2+z
-y,-x,1/2+z
y,x,1/2+z
loop_
_atom_site_type_symbol
_atom_site_label
_atom_site_fract_x
_atom_site_fract_y
_atom_site_fract_z
Si Si1 0.875695 0.118562 0.500000
Si Si2 0.874574 0.390129 0.648817
Si Si3 0.712496 0.119635 0.752894
Si Si4 0.761833 0.773258 0.913323
Si Si5 0.884487 0.618976 0.344858
Si Si6 0.369625 0.590028 0.944919
O O1 0.826074 0.166432 0.547083
O O2 0.996634 0.144289 0.500000
O O3 0.844624 0.347387 0.700241
O O4 0.829829 0.318679 0.607627
O O5 0.834142 0.507959 0.641875
O O6 0.996117 0.388112 0.644375
O O7 0.818515 0.181486 0.750000
O O8 0.635880 0.143269 0.709809
O O9 0.743511 0.000000 0.750000
O O10 0.720805 0.847979 0.872611
O O11 0.656825 0.729769 0.934607
O O12 0.358057 0.474234 0.923860
O O13 0.382169 0.580852 0.000000
#
# Coordination Sequence:
#
# PCOD8313187 Si02
#       6
#     8  16  16  16  16  16
#     4  11  26  44  58  77 110 152 190 233 296 350
#     4  10  21  36  57  85 113 144 184 230 282 338
#     4  10  19  36  57  82 116 150 185 228 280 338
#     4  12  20  37  60  81 109 143 189 235 274 333
#     4  10  21  36  57  85 113 144 184 230 282 338
#     4   9  18  33  53  78 107 139 176 216 265 322
#
# _framework density 18.428172
#
# number of rings (size 3 to 8) (size 9 to 14) (size 15 to 20)
#    0.000    1.727    2.727    3.273    0.000    2.364 
#    0.000    0.000    0.000    4.364    0.000    1.273 
#    0.000    0.000    0.000    0.000    0.000    0.000 
#
# Total GULP energy -1090639.017118 kJ/mol
# GULP energy per Si atom -12393.625195 kJ/mol
# Density = 1.838623 g / cm^3
# Si number density = 18.428172 Si / 1000 Ang^3
#
#
#
# Elastic Constant Matrix: (Units=GPa)
#
#
# Indices 1 2 3 4 5 6 
#
# 1 210.7433 -97.7483 32.2337 0.0000 0.0000 0.0000
# 2 -97.7483 210.7489 32.2313 0.0000 0.0000 0.0000
# 3 32.2337 32.2313 84.9244 0.0000 0.0000 0.0000
# 4 0.0000 0.0000 0.0000 -2.9985 0.0000 0.0000
# 5 0.0000 0.0000 0.0000 0.0000 -2.9496 0.0000
# 6 0.0000 0.0000 0.0000 0.0000 0.0000 43.4949
#
#
#
# Elastic Compliance Matrix: (Units=1/GPa)
#
#
# Indices 1 2 3 4 5 6 
#
# 1 0.007269 0.004027 -0.004287 0.000000 0.000000 0.000000
# 2 0.004027 0.007268 -0.004287 0.000000 0.000000 0.000000
# 3 -0.004287 -0.004287 0.015029 0.000000 0.000000 0.000000
# 4 0.000000 0.000000 0.000000 -0.333498 0.000000 0.000000
# 5 0.000000 0.000000 0.000000 0.000000 -0.339024 0.000000
# 6 0.000000 0.000000 0.000000 0.000000 0.000000 0.022991
#
#
# Mechanical properties :
#
#
# Convention : Reuss Voigt Hill
#
# Bulk Modulus (GPa) = 48.84723 48.87220 48.85971
# Shear Modulus (GPa) = -8.27753 43.48934 17.60591
#
# Velocity S-wave (km/s) = -2.12168 4.86319 3.09428
# Velocity P-wave (km/s) = 4.53457 7.62313 6.27194
#
# Compressibility (1/GPa) = 0.02047199
#
# Stress axis : x y z
#
# Youngs Moduli (GPa) = 137.57661 137.58168 66.53587
#
# Poissons Ratio (x) = -0.55404 0.28526
# Poissons Ratio (y) = -0.55402 0.28524
# Poissons Ratio (z) = 0.58982 0.58982
#
# Static dielectric constant tensor:
#      x y z
#    x 3.489390 0.000000 0.000000 
#    y 0.000000 3.489380 0.000000 
#    z 0.000000 0.000000 3.386700 
# 
# 
# High freq. dielectric constant tensor:
#      x y z
#    x 1.718120 0.000000 0.000000 
#    y 0.000000 1.718120 0.000000 
#    z 0.000000 0.000000 1.713150 
# 
# From -- ./inp_files/7076.got.cif
#   From: 2010.03.12/outbox.cif.g09.slc.cpg/sg124_4_cif.got.tgz:7076.got - 2010.04.06 16:38:57.
