data_PCOD8313836
_publ_section_title
;
Structure prediction by ZEFSAII (Michael W. Deem and Ramdas Pophale) SiO2 
 PCOD8313836
Probable space group: P 4/M B M
;
_chemical_formula_sum "Si O2"
_cell_formula_units_Z 112
_cell_length_a 19.161972
_cell_length_b 19.161972
_cell_length_c 18.699540
_cell_angle_alpha 90.000000
_cell_angle_beta 90.000000
_cell_angle_gamma 90.000000
_cell_volume 6866.118993
_symmetry_space_group_name_H-M "P 4/M B M"
_symmetry_group_IT_number 127
_symmetry_cell_setting 'tetragonal'
loop_
_space_group_symop_operation_xyz
x,y,z
-y,x,z
-x,-y,z
y,-x,z
1/2+x,1/2-y,-z
1/2-x,1/2+y,-z
1/2+y,1/2+x,-z
1/2-y,1/2-x,-z
-x,-y,-z
y,-x,-z
x,y,-z
-y,x,-z
1/2-x,1/2+y,z
1/2+x,1/2-y,z
1/2-y,1/2-x,z
1/2+y,1/2+x,z
loop_
_atom_site_type_symbol
_atom_site_label
_atom_site_fract_x
_atom_site_fract_y
_atom_site_fract_z
Si Si1 0.750099 0.137301 0.776140
Si Si2 0.050239 0.160927 0.133191
Si Si3 0.388254 0.491223 0.289009
Si Si4 0.613078 0.001021 0.416644
Si Si5 0.407986 0.319204 0.079265
Si Si6 0.502834 0.239761 0.312032
Si Si7 0.248177 0.138013 0.779088
O O1 0.686629 0.186629 0.795930
O O2 0.773746 0.100236 0.849011
O O3 0.816320 0.183406 0.745730
O O4 0.722062 0.077388 0.723319
O O5 0.012582 0.133595 0.205736
O O6 0.098595 0.103230 0.096127
O O7 0.991615 0.188754 0.079671
O O8 0.436665 0.425993 0.306634
O O9 0.319721 0.489495 0.339471
O O10 0.630924 0.002509 0.500000
O O11 0.565017 0.934984 0.397716
O O12 0.685754 0.991986 0.375746
O O13 0.571798 0.071798 0.395053
O O14 0.372767 0.268003 0.136901
O O15 0.380225 0.299866 0.000000
O O16 0.436263 0.239949 0.258884
O O17 0.319892 0.180109 0.771578
#
# Coordination Sequence:
#
# PCOD8313836 Si02
#       7
#    16  16  16  16  16  16  16
#     4   9  18  30  48  70  96 123 156 202 247 284
#     4  10  17  30  43  66  93 123 160 205 248 301
#     4  10  17  28  48  70 101 131 165 202 244 289
#     4   9  19  35  54  79 108 131 155 196 250 301
#     4  11  20  30  44  66  95 128 164 209 258 303
#     4  11  17  30  53  77  97 129 165 199 239 293
#     4  10  20  33  47  70  98 127 165 210 248 294
#
# _framework density 16.311980999999999
#
# number of rings (size 3 to 8) (size 9 to 14) (size 15 to 20)
#    0.000    2.000    4.286    3.429    0.000    0.571 
#    0.000    0.714    0.000    4.714    0.000   11.000 
#    0.000    1.143    0.000    0.000    0.000    0.000 
#
# Total GULP energy -1387655.908547 kJ/mol
# GULP energy per Si atom -12389.784898 kJ/mol
# Density = 1.627485 g / cm^3
# Si number density = 16.311981 Si / 1000 Ang^3
#
#
#
# Elastic Constant Matrix: (Units=GPa)
#
#
# Indices 1 2 3 4 5 6 
#
# 1 111.5042 46.9750 38.5741 0.0000 0.0000 0.0000
# 2 46.9750 111.5042 38.5741 0.0000 0.0000 0.0000
# 3 38.5741 38.5741 62.2868 0.0000 0.0000 0.0000
# 4 0.0000 0.0000 0.0000 20.1920 0.0000 0.0000
# 5 0.0000 0.0000 0.0000 0.0000 20.1920 0.0000
# 6 0.0000 0.0000 0.0000 0.0000 0.0000 21.9649
#
#
#
# Elastic Compliance Matrix: (Units=1/GPa)
#
#
# Indices 1 2 3 4 5 6 
#
# 1 0.012265 -0.003232 -0.005594 0.000000 0.000000 0.000000
# 2 -0.003232 0.012265 -0.005594 0.000000 0.000000 0.000000
# 3 -0.005594 -0.005594 0.022984 0.000000 0.000000 0.000000
# 4 0.000000 0.000000 0.000000 0.049525 0.000000 0.000000
# 5 0.000000 0.000000 0.000000 0.000000 0.049525 0.000000
# 6 0.000000 0.000000 0.000000 0.000000 0.000000 0.045527
#
#
# Mechanical properties :
#
#
# Convention : Reuss Voigt Hill
#
# Bulk Modulus (GPa) = 53.55261 59.28240 56.41751
# Shear Modulus (GPa) = 22.01132 23.21455 22.61294
#
# Velocity S-wave (km/s) = 3.67740 3.77657 3.72731
# Velocity P-wave (km/s) = 7.13670 7.44570 7.29284
#
# Compressibility (1/GPa) = 0.01867323
#
# Stress axis : x y z
#
# Youngs Moduli (GPa) = 81.53223 81.53223 43.50876
#
# Poissons Ratio (x) = 0.26349 0.24340
# Poissons Ratio (y) = 0.26349 0.24340
# Poissons Ratio (z) = 0.45612 0.45612
#
# Static dielectric constant tensor:
#      x y z
#    x 3.231800 0.000000 0.000000 
#    y 0.000000 3.231800 0.000000 
#    z 0.000000 0.000000 2.689380 
# 
# 
# High freq. dielectric constant tensor:
#      x y z
#    x 1.635990 0.000000 0.000000 
#    y 0.000000 1.635990 0.000000 
#    z 0.000000 0.000000 1.580100 
# 
# From -- ./inp_files/5340.got.cif
#   From: 2010.03.12/outbox.cif.g09.slc.cpg/sg127_3_cif.got.tgz:5340.got - 2010.04.06 17:03:15.
