data_PCOD8313749
_publ_section_title
;
Structure prediction by ZEFSAII (Michael W. Deem and Ramdas Pophale) SiO2 
 PCOD8313749
Probable space group: P 4/N N C
;
_chemical_formula_sum "Si O2"
_cell_formula_units_Z 60
_cell_length_a 11.729183
_cell_length_b 11.729183
_cell_length_c 20.275113
_cell_angle_alpha 90.000000
_cell_angle_beta 90.000000
_cell_angle_gamma 90.000000
_cell_volume 2789.323000
_symmetry_space_group_name_H-M "P 4/N N C"
_symmetry_group_IT_number 126
_space_group.IT_coordinate_system_code '2'
_symmetry_cell_setting 'tetragonal'
loop_
_space_group_symop_operation_xyz
x,y,z
1/2-y,x,z
1/2-x,1/2-y,z
y,1/2-x,z
x,1/2-y,1/2-z
1/2-x,y,1/2-z
y,x,1/2-z
1/2-y,1/2-x,1/2-z
-x,-y,-z
1/2+y,-x,-z
1/2+x,1/2+y,-z
-y,1/2+x,-z
-x,1/2+y,1/2+z
1/2+x,-y,1/2+z
-y,-x,1/2+z
1/2+y,1/2+x,1/2+z
loop_
_atom_site_type_symbol
_atom_site_label
_atom_site_fract_x
_atom_site_fract_y
_atom_site_fract_z
Si Si1 0.079848 0.875685 0.845177
Si Si2 0.115943 0.384058 0.250000
Si Si3 0.224718 0.585009 0.472005
Si Si4 0.250000 0.750000 0.250000
Si Si5 0.078775 0.180577 0.575357
O O1 0.061762 0.777608 0.900395
O O2 0.166626 0.829468 0.791407
O O3 0.959027 0.919435 0.813953
O O4 0.138600 0.985601 0.874135
O O5 0.089917 0.250000 0.250000
O O6 0.126523 0.682013 0.472444
O O7 0.169926 0.467882 0.499861
O O8 0.187616 0.104009 0.587476
#
# Coordination Sequence:
#
# PCOD8313749 Si02
#       5
#    16   8  16   4  16
#     4  11  24  41  68  96 136 183 231 283 341 427
#     4  11  26  46  64  97 138 182 238 287 344 400
#     4   9  19  39  66  98 127 167 227 287 348 414
#     4  12  24  44  68  94 132 188 236 272 330 428
#     4  10  23  41  64  98 134 170 224 293 361 419
#
# _framework density 21.510597000000001
#
# number of rings (size 3 to 8) (size 9 to 14) (size 15 to 20)
#    0.000    1.733    1.333    3.200    3.733    8.533 
#    0.000    2.667    0.000    0.000    0.000    0.000 
#    0.000    0.000    0.000    0.000    0.000    0.000 
#
# Total GULP energy -743501.150522 kJ/mol
# GULP energy per Si atom -12391.685842 kJ/mol
# Density = 2.146164 g / cm^3
# Si number density = 21.510597 Si / 1000 Ang^3
#
#
#
# Elastic Constant Matrix: (Units=GPa)
#
#
# Indices 1 2 3 4 5 6 
#
# 1 123.7238 35.8351 56.6856 0.0000 0.0000 0.0000
# 2 35.8351 123.7225 56.6856 0.0000 0.0000 0.0000
# 3 56.6856 56.6856 135.7167 0.0000 0.0000 0.0000
# 4 0.0000 0.0000 0.0000 30.4372 0.0000 0.0000
# 5 0.0000 0.0000 0.0000 0.0000 30.4369 0.0000
# 6 0.0000 0.0000 0.0000 0.0000 0.0000 -50.7550
#
#
#
# Elastic Compliance Matrix: (Units=1/GPa)
#
#
# Indices 1 2 3 4 5 6 
#
# 1 0.010145 -0.001233 -0.003722 0.000000 0.000000 0.000000
# 2 -0.001233 0.010145 -0.003722 0.000000 0.000000 0.000000
# 3 -0.003722 -0.003722 0.010478 0.000000 0.000000 0.000000
# 4 0.000000 0.000000 0.000000 0.032855 0.000000 0.000000
# 5 0.000000 0.000000 0.000000 0.000000 0.032855 0.000000
# 6 0.000000 0.000000 0.000000 0.000000 0.000000 -0.019702
#
#
# Mechanical properties :
#
#
# Convention : Reuss Voigt Hill
#
# Bulk Modulus (GPa) = 74.55696 75.73061 75.14379
# Shear Modulus (GPa) = 50.70916 17.62091 34.16504
#
# Velocity S-wave (km/s) = 4.86058 2.86523 3.98966
# Velocity P-wave (km/s) = 8.13856 6.79916 7.49882
#
# Compressibility (1/GPa) = 0.01341256
#
# Stress axis : x y z
#
# Youngs Moduli (GPa) = 98.56991 98.56859 95.43977
#
# Poissons Ratio (x) = 0.12153 0.35526
# Poissons Ratio (y) = 0.12153 0.35527
# Poissons Ratio (z) = 0.36691 0.36692
#
# Static dielectric constant tensor:
#      x y z
#    x 4.172550 0.000000 0.000000 
#    y 0.000000 4.172570 0.000000 
#    z 0.000000 0.000000 3.922410 
# 
# 
# High freq. dielectric constant tensor:
#      x y z
#    x 1.856090 0.000000 0.000000 
#    y 0.000000 1.856090 0.000000 
#    z 0.000000 0.000000 1.830240 
# 
# From -- ./inp_files/4963.got.cif
#   From: 2010.03.12/outbox.cif.g09.slc.cpg/sg126_3_cif.got.tgz:4963.got - 2010.04.06 16:55:23.
