data_PCOD8313081
_publ_section_title
;
Structure prediction by ZEFSAII (Michael W. Deem and Ramdas Pophale) SiO2 
 PCOD8313081
Probable space group: P 4/M C C
;
_chemical_formula_sum "Si O2"
_cell_formula_units_Z 56
_cell_length_a 13.685619
_cell_length_b 13.685619
_cell_length_c 14.794663
_cell_angle_alpha 90.000000
_cell_angle_beta 90.000000
_cell_angle_gamma 90.000000
_cell_volume 2770.983678
_symmetry_space_group_name_H-M "P 4/M C C"
_symmetry_group_IT_number 124
_symmetry_cell_setting 'tetragonal'
loop_
_space_group_symop_operation_xyz
x,y,z
-y,x,z
-x,-y,z
y,-x,z
x,-y,1/2-z
-x,y,1/2-z
y,x,1/2-z
-y,-x,1/2-z
-x,-y,-z
y,-x,-z
x,y,-z
-y,x,-z
-x,y,1/2+z
x,-y,1/2+z
-y,-x,1/2+z
y,x,1/2+z
loop_
_atom_site_type_symbol
_atom_site_label
_atom_site_fract_x
_atom_site_fract_y
_atom_site_fract_z
Si Si1 0.021067 0.150129 0.392390
Si Si2 0.486004 0.830038 0.850704
Si Si3 0.479785 0.335664 0.500000
Si Si4 0.362404 0.992042 0.604375
O O1 0.022574 0.151176 0.500000
O O2 0.033865 0.257893 0.353237
O O3 0.917799 0.108422 0.356662
O O4 0.500000 0.788399 0.750000
O O5 0.576872 0.892998 0.885911
O O6 0.399176 0.910150 0.845507
O O7 0.468603 0.734954 0.912957
O O8 0.584525 0.391806 0.500000
O O9 0.358486 0.022028 0.500000
#
# Coordination Sequence:
#
# PCOD8313081 Si02
#       4
#    16  16   8  16
#     4   8  15  27  46  79 120 157 193 231 273 331
#     4  11  22  40  64  91 120 153 196 250 309 365
#     4  11  26  47  66  86 116 155 204 261 320 380
#     4  10  17  33  60  93 122 161 199 241 294 354
#
# _framework density 20.209430999999999
#
# number of rings (size 3 to 8) (size 9 to 14) (size 15 to 20)
#    0.000    2.143    2.857    3.429    0.000    3.429 
#    0.000    1.429    0.000    5.143    0.000    8.000 
#    0.000    0.000    0.000    0.000    0.000    0.000 
#
# Total GULP energy -693877.736909 kJ/mol
# GULP energy per Si atom -12390.673873 kJ/mol
# Density = 2.016343 g / cm^3
# Si number density = 20.209431 Si / 1000 Ang^3
#
#
#
# Elastic Constant Matrix: (Units=GPa)
#
#
# Indices 1 2 3 4 5 6 
#
# 1 102.7696 9.3770 -16.1005 0.0000 0.0000 0.0000
# 2 9.3770 102.7696 -16.1005 0.0000 0.0000 0.0000
# 3 -16.1005 -16.1005 69.9557 0.0000 0.0000 0.0000
# 4 0.0000 0.0000 0.0000 -6.1377 0.0000 0.0000
# 5 0.0000 0.0000 0.0000 0.0000 -6.1377 0.0000
# 6 0.0000 0.0000 0.0000 0.0000 0.0000 7.6240
#
#
#
# Elastic Compliance Matrix: (Units=1/GPa)
#
#
# Indices 1 2 3 4 5 6 
#
# 1 0.010128 -0.000580 0.002197 0.000000 0.000000 0.000000
# 2 -0.000580 0.010128 0.002197 0.000000 0.000000 0.000000
# 3 0.002197 0.002197 0.015306 0.000000 0.000000 0.000000
# 4 0.000000 0.000000 0.000000 -0.162927 0.000000 0.000000
# 5 0.000000 0.000000 0.000000 0.000000 -0.162927 0.000000
# 6 0.000000 0.000000 0.000000 0.000000 0.000000 0.131164
#
#
# Mechanical properties :
#
#
# Convention : Reuss Voigt Hill
#
# Bulk Modulus (GPa) = 23.15251 25.53855 24.34553
# Shear Modulus (GPa) = -32.81693 18.95764 -6.92965
#
# Velocity S-wave (km/s) = -4.03406 3.06610 -1.85374
# Velocity P-wave (km/s) = 3.19642 5.01986 2.73696
#
# Compressibility (1/GPa) = 0.04319187
#
# Stress axis : x y z
#
# Youngs Moduli (GPa) = 98.73934 98.73934 65.33269
#
# Poissons Ratio (x) = 0.05725 -0.14357
# Poissons Ratio (y) = 0.05725 -0.14357
# Poissons Ratio (z) = -0.21698 -0.21698
#
# Static dielectric constant tensor:
#      x y z
#    x 3.867350 0.000000 0.000000 
#    y 0.000000 3.867350 0.000000 
#    z 0.000000 0.000000 3.615270 
# 
# 
# High freq. dielectric constant tensor:
#      x y z
#    x 1.785160 0.000000 0.000000 
#    y 0.000000 1.785160 0.000000 
#    z 0.000000 0.000000 1.785140 
# 
# From -- ./inp_files/2866.got.cif
#   From: 2010.03.12/outbox.cif.g09.slc.cpg/sg124_2_cif.got.tgz:2866.got - 2010.04.06 16:38:57.
