data_PCOD8313320
_publ_section_title
;
Structure prediction by ZEFSAII (Michael W. Deem and Ramdas Pophale) SiO2 
 PCOD8313320
Probable space group: P 4/M C C
;
_chemical_formula_sum "Si O2"
_cell_formula_units_Z 96
_cell_length_a 17.420427
_cell_length_b 17.420427
_cell_length_c 17.313077
_cell_angle_alpha 90.000000
_cell_angle_beta 90.000000
_cell_angle_gamma 90.000000
_cell_volume 5254.021584
_symmetry_space_group_name_H-M "P 4/M C C"
_symmetry_group_IT_number 124
_symmetry_cell_setting 'tetragonal'
loop_
_space_group_symop_operation_xyz
x,y,z
-y,x,z
-x,-y,z
y,-x,z
x,-y,1/2-z
-x,y,1/2-z
y,x,1/2-z
-y,-x,1/2-z
-x,-y,-z
y,-x,-z
x,y,-z
-y,x,-z
-x,y,1/2+z
x,-y,1/2+z
-y,-x,1/2+z
y,x,1/2+z
loop_
_atom_site_type_symbol
_atom_site_label
_atom_site_fract_x
_atom_site_fract_y
_atom_site_fract_z
Si Si1 0.326102 0.383258 0.589365
Si Si2 0.697181 0.536531 0.833659
Si Si3 0.927837 0.696106 0.704553
Si Si4 0.363048 0.845766 0.153239
Si Si5 0.767937 0.741434 0.665004
Si Si6 0.993529 0.414431 0.587094
O O1 0.345097 0.366774 0.500000
O O2 0.304862 0.471474 0.600988
O O3 0.399306 0.365023 0.643341
O O4 0.251844 0.333296 0.614665
O O5 0.679615 0.500000 0.750000
O O6 0.780089 0.574536 0.837842
O O7 0.889082 0.638041 0.764778
O O8 0.860780 0.754112 0.672948
O O9 0.000000 0.737459 0.750000
O O10 0.955800 0.646183 0.633284
O O11 0.277382 0.814858 0.129625
O O12 0.388983 0.904583 0.087376
O O13 0.730396 0.730396 0.750000
O O14 0.024645 0.413980 0.500000
O O15 0.000000 0.500000 0.622597
#
# Coordination Sequence:
#
# PCOD8313320 Si02
#       6
#    16  16  16  16  16  16
#     4  11  23  36  52  77 103 133 178 233 289 339
#     4  11  22  38  57  74  96 135 185 234 282 338
#     4   9  18  34  54  78 102 136 178 223 270 326
#     4   9  20  34  56  76 104 140 182 222 269 329
#     4   9  18  36  55  78 104 140 182 222 271 334
#     4  10  22  34  47  76 115 147 179 222 275 331
#
# _framework density 18.271718
#
# number of rings (size 3 to 8) (size 9 to 14) (size 15 to 20)
#    0.000    2.167    0.000    4.000    4.667    6.667 
#    0.000    1.667    0.000    0.000    0.000    0.000 
#    0.000  175.667    0.000   24.000    0.000    0.000 
#
# Total GULP energy -1189734.204837 kJ/mol
# GULP energy per Si atom -12393.064634 kJ/mol
# Density = 1.823013 g / cm^3
# Si number density = 18.271718 Si / 1000 Ang^3
#
#
#
# Elastic Constant Matrix: (Units=GPa)
#
#
# Indices 1 2 3 4 5 6 
#
# 1 111.9740 51.7842 29.8862 0.0000 0.0000 0.0000
# 2 51.7842 111.9740 29.8862 0.0000 0.0000 0.0000
# 3 29.8862 29.8862 70.6043 0.0000 0.0000 0.0000
# 4 0.0000 0.0000 0.0000 17.3820 0.0000 0.0000
# 5 0.0000 0.0000 0.0000 0.0000 17.3820 0.0000
# 6 0.0000 0.0000 0.0000 0.0000 0.0000 22.7436
#
#
#
# Elastic Compliance Matrix: (Units=1/GPa)
#
#
# Indices 1 2 3 4 5 6 
#
# 1 0.011918 -0.004696 -0.003057 0.000000 0.000000 0.000000
# 2 -0.004696 0.011918 -0.003057 0.000000 0.000000 0.000000
# 3 -0.003057 -0.003057 0.016752 0.000000 0.000000 0.000000
# 4 0.000000 0.000000 0.000000 0.057531 0.000000 0.000000
# 5 0.000000 0.000000 0.000000 0.000000 0.057531 0.000000
# 6 0.000000 0.000000 0.000000 0.000000 0.000000 0.043968
#
#
# Mechanical properties :
#
#
# Convention : Reuss Voigt Hill
#
# Bulk Modulus (GPa) = 52.72117 57.51839 55.11978
# Shear Modulus (GPa) = 21.97213 23.70124 22.83668
#
# Velocity S-wave (km/s) = 3.47150 3.60551 3.53914
# Velocity P-wave (km/s) = 6.70709 6.99148 6.85076
#
# Compressibility (1/GPa) = 0.01896771
#
# Stress axis : x y z
#
# Youngs Moduli (GPa) = 83.90468 83.90468 59.69571
#
# Poissons Ratio (x) = 0.39400 0.18250
# Poissons Ratio (y) = 0.39400 0.18250
# Poissons Ratio (z) = 0.25651 0.25651
#
# Static dielectric constant tensor:
#      x y z
#    x 3.485240 0.000000 0.000000 
#    y 0.000000 3.485240 0.000000 
#    z 0.000000 0.000000 3.303070 
# 
# 
# High freq. dielectric constant tensor:
#      x y z
#    x 1.694880 0.000000 0.000000 
#    y 0.000000 1.694880 0.000000 
#    z 0.000000 0.000000 1.706610 
# 
# From -- ./inp_files/4270.got.cif
#   From: 2010.03.12/outbox.cif.g09.slc.cpg/sg124_3_cif.got.tgz:4270.got - 2010.04.06 16:38:57.
