data_PCOD8313104
_publ_section_title
;
Structure prediction by ZEFSAII (Michael W. Deem and Ramdas Pophale) SiO2 
 PCOD8313104
Probable space group: P 4/M C C
;
_chemical_formula_sum "Si O2"
_cell_formula_units_Z 96
_cell_length_a 17.421648
_cell_length_b 17.421648
_cell_length_c 16.474580
_cell_angle_alpha 90.000000
_cell_angle_beta 90.000000
_cell_angle_gamma 90.000000
_cell_volume 5000.262693
_symmetry_space_group_name_H-M "P 4/M C C"
_symmetry_group_IT_number 124
_symmetry_cell_setting 'tetragonal'
loop_
_space_group_symop_operation_xyz
x,y,z
-y,x,z
-x,-y,z
y,-x,z
x,-y,1/2-z
-x,y,1/2-z
y,x,1/2-z
-y,-x,1/2-z
-x,-y,-z
y,-x,-z
x,y,-z
-y,x,-z
-x,y,1/2+z
x,-y,1/2+z
-y,-x,1/2+z
y,x,1/2+z
loop_
_atom_site_type_symbol
_atom_site_label
_atom_site_fract_x
_atom_site_fract_y
_atom_site_fract_z
Si Si1 0.186357 0.558099 0.908123
Si Si2 0.976480 0.213889 0.406324
Si Si3 0.986150 0.383466 0.093219
Si Si4 0.433623 0.872631 0.814205
Si Si5 0.858396 0.178648 0.903420
Si Si6 0.684111 0.207736 0.294476
O O1 0.187816 0.468167 0.881373
O O2 0.237919 0.614283 0.852007
O O3 0.100816 0.592021 0.893147
O O4 0.214533 0.565026 0.000000
O O5 0.955848 0.216641 0.500000
O O6 0.001097 0.297228 0.375260
O O7 0.897179 0.183450 0.366896
O O8 0.050954 0.160944 0.390233
O O9 0.043743 0.433255 0.146091
O O10 0.010157 0.393742 0.000000
O O11 0.500000 0.876484 0.750000
O O12 0.352002 0.847183 0.776336
O O13 0.832891 0.251050 0.849513
O O14 0.843193 0.196218 0.000000
O O15 0.718410 0.281591 0.250000
#
# Coordination Sequence:
#
# PCOD8313104 Si02
#       6
#    16  16  16  16  16  16
#     4  10  20  37  58  77 107 145 182 226 277 336
#     4   9  18  31  53  75  97 137 194 251 289 329
#     4  10  18  33  53  76 103 138 182 226 278 340
#     4  10  22  34  50  80 111 138 178 223 276 338
#     4  10  19  36  53  73 102 144 201 253 299 340
#     4  11  22  36  52  78 114 151 182 222 283 345
#
# _framework density 19.198992000000001
#
# number of rings (size 3 to 8) (size 9 to 14) (size 15 to 20)
#    0.000    2.000    1.667    2.500    0.000    6.333 
#    3.000    4.167    0.000    0.000    0.000    1.167 
#    0.000   27.000    0.000   13.500    0.000    0.000 
#
# Total GULP energy -1189259.326059 kJ/mol
# GULP energy per Si atom -12388.117980 kJ/mol
# Density = 1.915529 g / cm^3
# Si number density = 19.198992 Si / 1000 Ang^3
#
#
#
# Elastic Constant Matrix: (Units=GPa)
#
#
# Indices 1 2 3 4 5 6 
#
# 1 71.6448 32.8875 29.7275 0.0000 0.0000 0.0000
# 2 32.8875 71.6439 29.7267 0.0000 0.0000 0.0000
# 3 29.7275 29.7267 80.0957 0.0000 0.0000 0.0000
# 4 0.0000 0.0000 0.0000 6.4021 0.0000 0.0000
# 5 0.0000 0.0000 0.0000 0.0000 6.4061 0.0000
# 6 0.0000 0.0000 0.0000 0.0000 0.0000 19.7875
#
#
#
# Elastic Compliance Matrix: (Units=1/GPa)
#
#
# Indices 1 2 3 4 5 6 
#
# 1 0.018964 -0.006838 -0.004501 0.000000 0.000000 0.000000
# 2 -0.006838 0.018964 -0.004500 0.000000 0.000000 0.000000
# 3 -0.004501 -0.004500 0.015826 0.000000 0.000000 0.000000
# 4 0.000000 0.000000 0.000000 0.156198 0.000000 0.000000
# 5 0.000000 0.000000 0.000000 0.000000 0.156101 0.000000
# 6 0.000000 0.000000 0.000000 0.000000 0.000000 0.050537
#
#
# Mechanical properties :
#
#
# Convention : Reuss Voigt Hill
#
# Bulk Modulus (GPa) = 45.29822 45.34088 45.31955
# Shear Modulus (GPa) = 10.97390 15.25534 13.11462
#
# Velocity S-wave (km/s) = 2.39338 2.82191 2.61643
# Velocity P-wave (km/s) = 5.59312 5.85535 5.72574
#
# Compressibility (1/GPa) = 0.02207592
#
# Stress axis : x y z
#
# Youngs Moduli (GPa) = 52.73143 52.73117 63.18789
#
# Poissons Ratio (x) = 0.36057 0.28439
# Poissons Ratio (y) = 0.36057 0.28438
# Poissons Ratio (z) = 0.23733 0.23732
#
# Static dielectric constant tensor:
#      x y z
#    x 3.713140 0.000000 0.000000 
#    y 0.000000 3.713150 0.000000 
#    z 0.000000 0.000000 4.089680 
# 
# 
# High freq. dielectric constant tensor:
#      x y z
#    x 1.722430 0.000000 0.000000 
#    y 0.000000 1.722430 0.000000 
#    z 0.000000 0.000000 1.756690 
# 
# From -- ./inp_files/4288.got.cif
#   From: 2010.03.12/outbox.cif.g09.slc.cpg/sg124_3_cif.got.tgz:4288.got - 2010.04.06 16:38:57.
