data_PCOD8313004
_publ_section_title
;
Structure prediction by ZEFSAII (Michael W. Deem and Ramdas Pophale) SiO2 
 PCOD8313004
Probable space group: P 4/M M M
;
_chemical_formula_sum "Si O2"
_cell_formula_units_Z 56
_cell_length_a 12.474238
_cell_length_b 12.474238
_cell_length_c 21.687295
_cell_angle_alpha 90.000000
_cell_angle_beta 90.000000
_cell_angle_gamma 90.000000
_cell_volume 3374.686535
_symmetry_space_group_name_H-M "P 4/M M M"
_symmetry_group_IT_number 123
_symmetry_cell_setting 'tetragonal'
loop_
_space_group_symop_operation_xyz
x,y,z
-y,x,z
-x,-y,z
y,-x,z
x,-y,-z
-x,y,-z
y,x,-z
-y,-x,-z
-x,-y,-z
y,-x,-z
x,y,-z
-y,x,-z
-x,y,z
x,-y,z
-y,-x,z
y,x,z
loop_
_atom_site_type_symbol
_atom_site_label
_atom_site_fract_x
_atom_site_fract_y
_atom_site_fract_z
Si Si1 0.197057 0.374128 0.134220
Si Si2 0.795857 0.377258 0.571335
Si Si3 0.000000 0.372680 0.784887
Si Si4 0.627527 0.000000 0.354171
Si Si5 0.620256 0.209095 0.000000
O O1 0.223843 0.500000 0.145259
O O2 0.305020 0.305020 0.144912
O O3 0.147791 0.355393 0.064627
O O4 0.106645 0.331333 0.180880
O O5 0.828251 0.366754 0.500000
O O6 0.769845 0.500000 0.588720
O O7 0.690234 0.309767 0.587335
O O8 0.894292 0.330546 0.611008
O O9 0.000000 0.500000 0.785966
O O10 0.000000 0.327718 0.715399
O O11 0.500000 0.000000 0.355834
O O12 0.500000 0.247385 0.000000
O O13 0.679862 0.320139 0.000000
#
# Coordination Sequence:
#
# PCOD8313004 Si02
#       5
#    16  16   8   8   8
#     4   9  17  29  45  66  91 118 149 184 224 269
#     4   9  17  29  47  71  96 121 149 182 220 262
#     4   9  18  30  44  63  87 118 154 190 224 259
#     4   9  17  30  46  63  87 121 158 188 215 256
#     4   8  14  24  39  61  88 116 145 179 220 266
#
# _framework density 16.594134
#
# number of rings (size 3 to 8) (size 9 to 14) (size 15 to 20)
#    0.000    3.143    0.000    0.429    0.000    4.143 
#    0.000    7.143    0.000    0.857    0.000   12.000 
#    0.000    3.429    0.000    0.000    0.000    0.000 
#
# Total GULP energy -693846.365854 kJ/mol
# GULP energy per Si atom -12390.113676 kJ/mol
# Density = 1.655637 g / cm^3
# Si number density = 16.594134 Si / 1000 Ang^3
#
#
#
# Elastic Constant Matrix: (Units=GPa)
#
#
# Indices 1 2 3 4 5 6 
#
# 1 77.8661 45.1567 53.2689 0.0000 0.0000 0.0000
# 2 45.1567 77.8660 53.2689 0.0000 0.0000 0.0000
# 3 53.2689 53.2689 120.0927 0.0000 0.0000 0.0000
# 4 0.0000 0.0000 0.0000 19.8204 0.0000 0.0000
# 5 0.0000 0.0000 0.0000 0.0000 19.8204 0.0000
# 6 0.0000 0.0000 0.0000 0.0000 0.0000 7.2636
#
#
#
# Elastic Compliance Matrix: (Units=1/GPa)
#
#
# Indices 1 2 3 4 5 6 
#
# 1 0.021885 -0.008687 -0.005854 0.000000 0.000000 0.000000
# 2 -0.008687 0.021885 -0.005854 0.000000 0.000000 0.000000
# 3 -0.005854 -0.005854 0.013520 0.000000 0.000000 0.000000
# 4 0.000000 0.000000 0.000000 0.050453 0.000000 0.000000
# 5 0.000000 0.000000 0.000000 0.000000 0.050453 0.000000
# 6 0.000000 0.000000 0.000000 0.000000 0.000000 0.137672
#
#
# Mechanical properties :
#
#
# Convention : Reuss Voigt Hill
#
# Bulk Modulus (GPa) = 60.60636 64.35711 62.48173
# Shear Modulus (GPa) = 14.61300 17.65624 16.13462
#
# Velocity S-wave (km/s) = 2.97073 3.26545 3.12157
# Velocity P-wave (km/s) = 6.95478 7.28593 7.12228
#
# Compressibility (1/GPa) = 0.01649992
#
# Stress axis : x y z
#
# Youngs Moduli (GPa) = 45.69260 45.69256 73.96183
#
# Poissons Ratio (x) = 0.39693 0.43300
# Poissons Ratio (y) = 0.39693 0.43300
# Poissons Ratio (z) = 0.26750 0.26750
#
# Static dielectric constant tensor:
#      x y z
#    x 2.909160 0.000000 0.000000 
#    y 0.000000 2.909160 0.000000 
#    z 0.000000 0.000000 3.495320 
# 
# 
# High freq. dielectric constant tensor:
#      x y z
#    x 1.612890 0.000000 0.000000 
#    y 0.000000 1.612890 0.000000 
#    z 0.000000 0.000000 1.652290 
# 
# From -- ./inp_files/6151.got.cif
#   From: 2010.03.12/outbox.cif.g09.slc.cpg/sg123_4_cif.got.tgz:6151.got - 2010.04.06 16:26:55.
