data_PCOD8313349
_publ_section_title
;
Structure prediction by ZEFSAII (Michael W. Deem and Ramdas Pophale) SiO2 
 PCOD8313349
Probable space group: P 4/M C C
;
_chemical_formula_sum "Si O2"
_cell_formula_units_Z 88
_cell_length_a 11.950756
_cell_length_b 11.950756
_cell_length_c 29.028657
_cell_angle_alpha 90.000000
_cell_angle_beta 90.000000
_cell_angle_gamma 90.000000
_cell_volume 4145.889309
_symmetry_space_group_name_H-M "P 4/M C C"
_symmetry_group_IT_number 124
_symmetry_cell_setting 'tetragonal'
loop_
_space_group_symop_operation_xyz
x,y,z
-y,x,z
-x,-y,z
y,-x,z
x,-y,1/2-z
-x,y,1/2-z
y,x,1/2-z
-y,-x,1/2-z
-x,-y,-z
y,-x,-z
x,y,-z
-y,x,-z
-x,y,1/2+z
x,-y,1/2+z
-y,-x,1/2+z
y,x,1/2+z
loop_
_atom_site_type_symbol
_atom_site_label
_atom_site_fract_x
_atom_site_fract_y
_atom_site_fract_z
Si Si1 0.000000 0.500000 0.628716
Si Si2 0.285921 0.289070 0.338572
Si Si3 0.490857 0.187702 0.696395
Si Si4 0.681947 0.454426 0.000000
Si Si5 0.832378 0.345779 0.927114
Si Si6 0.830758 0.082306 0.500000
Si Si7 0.864308 0.893227 0.304001
O O1 0.911551 0.443639 0.663866
O O2 0.937025 0.591832 0.597097
O O3 0.214170 0.382537 0.314174
O O4 0.413884 0.293674 0.319605
O O5 0.263815 0.298343 0.392959
O O6 0.243019 0.170578 0.321105
O O7 0.500000 0.156446 0.750000
O O8 0.635172 0.580414 0.000000
O O9 0.763076 0.436274 0.043458
O O10 0.882079 0.241480 0.955486
O O11 0.948767 0.148331 0.500000
O O12 0.880763 0.880763 0.250000
O O13 0.981509 0.845812 0.323474
#
# Coordination Sequence:
#
# PCOD8313349 Si02
#       7
#     8  16  16   8  16   8  16
#     4  10  25  41  64 102 130 180 216 279 327 398
#     4  11  25  40  65  96 130 180 223 280 333 400
#     4  11  24  43  64  94 135 181 231 276 330 391
#     4  10  24  45  74  98 128 167 216 282 338 412
#     4  10  25  43  67 100 131 177 220 275 347 404
#     4  10  24  43  68 100 136 175 214 280 350 434
#     4   9  19  36  58  86 122 169 223 274 325 382
#
# _framework density 21.225843000000001
#
# number of rings (size 3 to 8) (size 9 to 14) (size 15 to 20)
#    0.000    1.818    0.000    2.455   12.727    3.273 
#    0.000    2.727    0.000    0.000    0.000    0.000 
#    0.000    0.000    0.000    0.000    0.000    0.000 
#
# Total GULP energy -1090197.455688 kJ/mol
# GULP energy per Si atom -12388.607451 kJ/mol
# Density = 2.117753 g / cm^3
# Si number density = 21.225843 Si / 1000 Ang^3
#
#
#
# Elastic Constant Matrix: (Units=GPa)
#
#
# Indices 1 2 3 4 5 6 
#
# 1 86.4362 43.9330 51.0789 0.0000 0.0000 0.0000
# 2 43.9330 86.4362 51.0789 0.0000 0.0000 0.0000
# 3 51.0789 51.0789 139.7320 0.0000 0.0000 0.0000
# 4 0.0000 0.0000 0.0000 27.4387 0.0000 0.0000
# 5 0.0000 0.0000 0.0000 0.0000 27.4387 0.0000
# 6 0.0000 0.0000 0.0000 0.0000 0.0000 20.8517
#
#
#
# Elastic Compliance Matrix: (Units=1/GPa)
#
#
# Indices 1 2 3 4 5 6 
#
# 1 0.017139 -0.006389 -0.003930 0.000000 0.000000 0.000000
# 2 -0.006389 0.017139 -0.003930 0.000000 0.000000 0.000000
# 3 -0.003930 -0.003930 0.010029 0.000000 0.000000 0.000000
# 4 0.000000 0.000000 0.000000 0.036445 0.000000 0.000000
# 5 0.000000 0.000000 0.000000 0.000000 0.036445 0.000000
# 6 0.000000 0.000000 0.000000 0.000000 0.000000 0.047958
#
#
# Mechanical properties :
#
#
# Convention : Reuss Voigt Hill
#
# Bulk Modulus (GPa) = 63.24830 67.19843 65.22336
# Shear Modulus (GPa) = 25.13565 26.24672 25.69118
#
# Velocity S-wave (km/s) = 3.44495 3.52027 3.48282
# Velocity P-wave (km/s) = 6.75915 6.94626 6.85334
#
# Compressibility (1/GPa) = 0.01581070
#
# Stress axis : x y z
#
# Youngs Moduli (GPa) = 58.34759 58.34759 99.70639
#
# Poissons Ratio (x) = 0.37278 0.39180
# Poissons Ratio (y) = 0.37278 0.39180
# Poissons Ratio (z) = 0.22928 0.22928
#
# Static dielectric constant tensor:
#      x y z
#    x 4.038300 0.000000 0.000000 
#    y 0.000000 4.038300 0.000000 
#    z 0.000000 0.000000 4.033180 
# 
# 
# High freq. dielectric constant tensor:
#      x y z
#    x 1.836860 0.000000 0.000000 
#    y 0.000000 1.836860 0.000000 
#    z 0.000000 0.000000 1.835780 
# 
# From -- ./inp_files/7121.got.cif
#   From: 2010.03.12/outbox.cif.g09.slc.cpg/sg124_4_cif.got.tgz:7121.got - 2010.04.06 16:38:57.
