data_PCOD8313611
_publ_section_title
;
Structure prediction by ZEFSAII (Michael W. Deem and Ramdas Pophale) SiO2 
 PCOD8313611
Probable space group: P 4/N B M
;
_chemical_formula_sum "Si O2"
_cell_formula_units_Z 96
_cell_length_a 14.539264
_cell_length_b 14.539264
_cell_length_c 23.658539
_cell_angle_alpha 90.000000
_cell_angle_beta 90.000000
_cell_angle_gamma 90.000000
_cell_volume 5001.183236
_symmetry_space_group_name_H-M "P 4/N B M"
_symmetry_group_IT_number 125
_space_group.IT_coordinate_system_code '2'
_symmetry_cell_setting 'tetragonal'
loop_
_space_group_symop_operation_xyz
x,y,z
1/2-y,x,z
1/2-x,1/2-y,z
y,1/2-x,z
x,1/2-y,-z
1/2-x,y,-z
y,x,-z
1/2-y,1/2-x,-z
-x,-y,-z
1/2+y,-x,-z
1/2+x,1/2+y,-z
-y,1/2+x,-z
-x,1/2+y,z
1/2+x,-y,z
-y,-x,z
1/2+y,1/2+x,z
loop_
_atom_site_type_symbol
_atom_site_label
_atom_site_fract_x
_atom_site_fract_y
_atom_site_fract_z
Si Si1 0.238010 0.398517 0.065367
Si Si2 0.078654 0.071550 0.565648
Si Si3 0.603824 0.789514 0.255734
Si Si4 0.751234 0.983714 0.626238
Si Si5 0.825784 0.325784 0.210450
Si Si6 0.826832 0.173169 0.664463
Si Si7 0.192978 0.961678 0.841530
O O1 0.153012 0.332208 0.081303
O O2 0.218725 0.491339 0.099276
O O3 0.250000 0.424456 0.000000
O O4 0.091839 0.091839 0.500000
O O5 0.167784 0.012921 0.582366
O O6 0.078310 0.165938 0.601773
O O7 0.986236 0.013764 0.577897
O O8 0.638571 0.686013 0.248549
O O9 0.555214 0.793115 0.316243
O O10 0.534343 0.824379 0.207905
O O11 0.787233 0.086532 0.631780
O O12 0.750000 0.250000 0.222020
O O13 0.858658 0.358658 0.272536
O O14 0.908252 0.285163 0.174429
O O15 0.750000 0.250000 0.666792
O O16 0.104279 0.895722 0.848338
#
# Coordination Sequence:
#
# PCOD8313611 Si02
#       7
#    16  16  16  16   8   8  16
#     4   9  19  41  67  88 119 165 212 258 308 358
#     4  11  25  43  64  91 128 163 208 264 320 380
#     4  11  23  40  61  89 126 160 202 253 309 373
#     4  12  22  41  66  93 121 165 212 260 317 382
#     4   9  20  36  56  80 124 168 193 240 308 373
#     4  11  22  40  65  93 124 167 212 259 324 386
#     4  11  22  39  59  91 127 163 205 249 310 368
#
# _framework density 19.195457000000001
#
# number of rings (size 3 to 8) (size 9 to 14) (size 15 to 20)
#    0.000    1.333    4.167    2.500    0.000    2.333 
#    9.000    1.667    0.000    0.000    0.000    0.000 
#    0.000    0.000    0.000    0.000    0.000    0.000 
#
# Total GULP energy -1190364.777543 kJ/mol
# GULP energy per Si atom -12399.633099 kJ/mol
# Density = 1.915177 g / cm^3
# Si number density = 19.195457 Si / 1000 Ang^3
#
#
#
# Elastic Constant Matrix: (Units=GPa)
#
#
# Indices 1 2 3 4 5 6 
#
# 1 92.4865 40.9240 57.3473 0.0000 0.0000 0.0000
# 2 40.9240 92.4865 57.3473 0.0000 0.0000 0.0000
# 3 57.3473 57.3473 118.4787 0.0000 0.0000 0.0000
# 4 0.0000 0.0000 0.0000 32.8178 0.0000 0.0000
# 5 0.0000 0.0000 0.0000 0.0000 32.8178 0.0000
# 6 0.0000 0.0000 0.0000 0.0000 0.0000 28.3124
#
#
#
# Elastic Compliance Matrix: (Units=1/GPa)
#
#
# Indices 1 2 3 4 5 6 
#
# 1 0.016116 -0.003278 -0.006214 0.000000 0.000000 0.000000
# 2 -0.003278 0.016116 -0.006214 0.000000 0.000000 0.000000
# 3 -0.006214 -0.006214 0.014456 0.000000 0.000000 0.000000
# 4 0.000000 0.000000 0.000000 0.030471 0.000000 0.000000
# 5 0.000000 0.000000 0.000000 0.000000 0.030471 0.000000
# 6 0.000000 0.000000 0.000000 0.000000 0.000000 0.035320
#
#
# Mechanical properties :
#
#
# Convention : Reuss Voigt Hill
#
# Bulk Modulus (GPa) = 65.46292 68.29877 66.88084
# Shear Modulus (GPa) = 27.86230 28.64513 28.25372
#
# Velocity S-wave (km/s) = 3.81400 3.86720 3.84069
# Velocity P-wave (km/s) = 7.31934 7.45643 7.38820
#
# Compressibility (1/GPa) = 0.01527582
#
# Stress axis : x y z
#
# Youngs Moduli (GPa) = 62.05054 62.05054 69.17660
#
# Poissons Ratio (x) = 0.20341 0.42986
# Poissons Ratio (y) = 0.20341 0.42986
# Poissons Ratio (z) = 0.38558 0.38558
#
# Static dielectric constant tensor:
#      x y z
#    x 3.389240 0.000000 0.000000 
#    y 0.000000 3.389240 0.000000 
#    z 0.000000 0.000000 3.510860 
# 
# 
# High freq. dielectric constant tensor:
#      x y z
#    x 1.748190 0.000000 0.000000 
#    y 0.000000 1.748190 0.000000 
#    z 0.000000 0.000000 1.752710 
# 
# From -- ./inp_files/5956.got.cif
#   From: 2010.03.12/outbox.cif.g09.slc.cpg/sg125_3_cif.got.tgz:5956.got - 2010.04.06 16:47:52.
