data_PCOD8313246
_publ_section_title
;
Structure prediction by ZEFSAII (Michael W. Deem and Ramdas Pophale) SiO2 
 PCOD8313246
Probable space group: P 4/M C C
;
_chemical_formula_sum "Si O2"
_cell_formula_units_Z 96
_cell_length_a 23.380661
_cell_length_b 23.380661
_cell_length_c 8.766806
_cell_angle_alpha 90.000000
_cell_angle_beta 90.000000
_cell_angle_gamma 90.000000
_cell_volume 4792.421041
_symmetry_space_group_name_H-M "P 4/M C C"
_symmetry_group_IT_number 124
_symmetry_cell_setting 'tetragonal'
loop_
_space_group_symop_operation_xyz
x,y,z
-y,x,z
-x,-y,z
y,-x,z
x,-y,1/2-z
-x,y,1/2-z
y,x,1/2-z
-y,-x,1/2-z
-x,-y,-z
y,-x,-z
x,y,-z
-y,x,-z
-x,y,1/2+z
x,-y,1/2+z
-y,-x,1/2+z
y,x,1/2+z
loop_
_atom_site_type_symbol
_atom_site_label
_atom_site_fract_x
_atom_site_fract_y
_atom_site_fract_z
Si Si1 0.262163 0.055375 0.332537
Si Si2 0.644228 0.561438 0.821429
Si Si3 0.242350 0.373352 0.822708
Si Si4 0.820813 0.264389 0.818571
Si Si5 0.946990 0.607771 0.166369
Si Si6 0.442878 0.151978 0.821903
O O1 0.233365 0.064841 0.500000
O O2 0.261297 0.113737 0.235975
O O3 0.327022 0.037160 0.361358
O O4 0.232450 0.000000 0.250000
O O5 0.660152 0.500000 0.750000
O O6 0.585281 0.585281 0.750000
O O7 0.691944 0.610654 0.789559
O O8 0.636223 0.551862 0.000000
O O9 0.217328 0.319068 0.732312
O O10 0.210597 0.430300 0.765304
O O11 0.230515 0.361853 0.000000
O O12 0.791753 0.208248 0.750000
O O13 0.819671 0.263532 0.000000
O O14 0.892749 0.606630 0.279483
O O15 0.000000 0.576279 0.250000
O O16 0.934970 0.579005 0.000000
O O17 0.500000 0.125226 0.750000
O O18 0.446862 0.162877 0.000000
#
# Coordination Sequence:
#
# PCOD8313246 Si02
#       6
#    16  16  16  16  16  16
#     4  10  20  36  59  85 119 158 201 247 297 354
#     4  11  25  44  68  93 120 149 186 231 287 353
#     4  11  23  41  62  88 119 153 192 238 292 354
#     4  12  24  38  60  90 125 163 204 249 297 349
#     4  10  20  35  55  77 107 143 189 241 292 347
#     4  12  24  37  55  78 108 147 193 242 293 347
#
# _framework density 20.031628999999999
#
# number of rings (size 3 to 8) (size 9 to 14) (size 15 to 20)
#    0.000    1.000    1.667    6.000    0.000    7.167 
#    0.000    2.500    0.000    0.000    0.000    0.000 
#    0.000    0.333    0.000    3.333    0.000    2.000 
#
# Total GULP energy -1189824.740069 kJ/mol
# GULP energy per Si atom -12394.007709 kJ/mol
# Density = 1.998604 g / cm^3
# Si number density = 20.031629 Si / 1000 Ang^3
#
#
#
# Elastic Constant Matrix: (Units=GPa)
#
#
# Indices 1 2 3 4 5 6 
#
# 1 83.0266 36.4533 59.3522 0.0000 0.0000 0.0000
# 2 36.4533 83.0301 59.3531 0.0000 0.0000 0.0000
# 3 59.3522 59.3531 167.9931 0.0000 0.0000 0.0000
# 4 0.0000 0.0000 0.0000 30.4041 0.0000 0.0000
# 5 0.0000 0.0000 0.0000 0.0000 30.4037 0.0000
# 6 0.0000 0.0000 0.0000 0.0000 0.0000 -7.4525
#
#
#
# Elastic Compliance Matrix: (Units=1/GPa)
#
#
# Indices 1 2 3 4 5 6 
#
# 1 0.017184 -0.004287 -0.004556 0.000000 0.000000 0.000000
# 2 -0.004287 0.017183 -0.004556 0.000000 0.000000 0.000000
# 3 -0.004556 -0.004556 0.009172 0.000000 0.000000 0.000000
# 4 0.000000 0.000000 0.000000 0.032890 0.000000 0.000000
# 5 0.000000 0.000000 0.000000 0.000000 0.032891 0.000000
# 6 0.000000 0.000000 0.000000 0.000000 0.000000 -0.134182
#
#
# Mechanical properties :
#
#
# Convention : Reuss Voigt Hill
#
# Bulk Modulus (GPa) = 59.73942 71.59633 65.66787
# Shear Modulus (GPa) = 665.15912 22.59712 343.87812
#
# Velocity S-wave (km/s) = 18.24213 3.36232 13.11641
# Velocity P-wave (km/s) = 21.76207 7.13392 16.19383
#
# Compressibility (1/GPa) = 0.01673937
#
# Stress axis : x y z
#
# Youngs Moduli (GPa) = 58.19422 58.19692 109.02601
#
# Poissons Ratio (x) = 0.24951 0.49676
# Poissons Ratio (y) = 0.24950 0.49674
# Poissons Ratio (z) = 0.26515 0.26516
#
# Static dielectric constant tensor:
#      x y z
#    x 3.573630 0.000000 0.000000 
#    y 0.000000 3.573680 0.000000 
#    z 0.000000 0.000000 4.020630 
# 
# 
# High freq. dielectric constant tensor:
#      x y z
#    x 1.761660 0.000000 0.000000 
#    y 0.000000 1.761660 0.000000 
#    z 0.000000 0.000000 1.805480 
# 
# From -- ./inp_files/1318.got.cif
#   From: 2010.03.12/outbox.cif.g09.slc.cpg/sg124_1_cif.got.tgz:1318.got - 2010.04.06 16:38:57.
