data_PCOD8313181
_publ_section_title
;
Structure prediction by ZEFSAII (Michael W. Deem and Ramdas Pophale) SiO2 
 PCOD8313181
Probable space group: P 4/M C C
;
_chemical_formula_sum "Si O2"
_cell_formula_units_Z 120
_cell_length_a 18.199638
_cell_length_b 18.199638
_cell_length_c 19.513781
_cell_angle_alpha 90.000000
_cell_angle_beta 90.000000
_cell_angle_gamma 90.000000
_cell_volume 6463.487692
_symmetry_space_group_name_H-M "P 4/M C C"
_symmetry_group_IT_number 124
_symmetry_cell_setting 'tetragonal'
loop_
_space_group_symop_operation_xyz
x,y,z
-y,x,z
-x,-y,z
y,-x,z
x,-y,1/2-z
-x,y,1/2-z
y,x,1/2-z
-y,-x,1/2-z
-x,-y,-z
y,-x,-z
x,y,-z
-y,x,-z
-x,y,1/2+z
x,-y,1/2+z
-y,-x,1/2+z
y,x,1/2+z
loop_
_atom_site_type_symbol
_atom_site_label
_atom_site_fract_x
_atom_site_fract_y
_atom_site_fract_z
Si Si1 0.681449 0.859730 0.077076
Si Si2 0.322659 0.261333 0.319893
Si Si3 0.819483 0.813779 0.332153
Si Si4 0.095832 0.073047 0.579043
Si Si5 0.534436 0.616243 0.000000
Si Si6 0.715459 0.402874 0.887013
Si Si7 0.532124 0.924571 0.920514
Si Si8 0.519237 0.806868 0.320847
O O1 0.743647 0.864913 0.136308
O O2 0.635940 0.783881 0.075784
O O3 0.619947 0.921816 0.093661
O O4 0.714827 0.871072 0.000000
O O5 0.282398 0.282398 0.250000
O O6 0.265102 0.203222 0.353623
O O7 0.335531 0.337058 0.360050
O O8 0.399333 0.222597 0.313509
O O9 0.827267 0.827267 0.250000
O O10 0.846981 0.886708 0.370686
O O11 0.116524 0.088870 0.500000
O O12 0.013620 0.101446 0.594263
O O13 0.450998 0.590498 0.000000
O O14 0.546618 0.666784 0.934900
O O15 0.742010 0.458585 0.827662
O O16 0.486172 0.860382 0.884745
O O17 0.500000 0.000000 0.891230
O O18 0.514459 0.915215 0.000000
O O19 0.500000 0.848624 0.250000
#
# Coordination Sequence:
#
# PCOD8313181 Si02
#       8
#    16  16  16  16   8  16  16  16
#     4   9  17  34  60  81 110 154 191 229 285 342
#     4  10  20  37  54  81 115 150 194 242 281 342
#     4  10  21  34  56  86 121 151 190 238 283 339
#     4   9  19  39  65  88 114 151 191 231 283 350
#     4  11  22  34  50  78 113 142 184 245 299 342
#     4  10  19  35  56  78 107 145 192 236 291 338
#     4   9  20  39  60  85 116 148 191 240 289 348
#     4  11  21  35  61  82 111 155 197 233 289 348
#
# _framework density 18.565828
#
# number of rings (size 3 to 8) (size 9 to 14) (size 15 to 20)
#    0.000    2.200    2.000    1.600    2.800    0.800 
#    3.600    0.667    0.000    0.000    0.000    0.000 
#    0.000    0.000    0.000    0.000    0.000    0.000 
#
# Total GULP energy -1487067.810950 kJ/mol
# GULP energy per Si atom -12392.231758 kJ/mol
# Density = 1.852357 g / cm^3
# Si number density = 18.565828 Si / 1000 Ang^3
#
#
#
# Elastic Constant Matrix: (Units=GPa)
#
#
# Indices 1 2 3 4 5 6 
#
# 1 75.7346 47.5356 41.2829 0.0000 0.0000 0.0000
# 2 47.5356 75.7346 41.2829 0.0000 0.0000 0.0000
# 3 41.2829 41.2829 96.5445 0.0000 0.0000 0.0000
# 4 0.0000 0.0000 0.0000 25.4414 0.0000 0.0000
# 5 0.0000 0.0000 0.0000 0.0000 25.4414 0.0000
# 6 0.0000 0.0000 0.0000 0.0000 0.0000 22.9644
#
#
#
# Elastic Compliance Matrix: (Units=1/GPa)
#
#
# Indices 1 2 3 4 5 6 
#
# 1 0.023415 -0.012047 -0.004861 0.000000 0.000000 0.000000
# 2 -0.012047 0.023415 -0.004861 0.000000 0.000000 0.000000
# 3 -0.004861 -0.004861 0.014515 0.000000 0.000000 0.000000
# 4 0.000000 0.000000 0.000000 0.039306 0.000000 0.000000
# 5 0.000000 0.000000 0.000000 0.000000 0.039306 0.000000
# 6 0.000000 0.000000 0.000000 0.000000 0.000000 0.043546
#
#
# Mechanical properties :
#
#
# Convention : Reuss Voigt Hill
#
# Bulk Modulus (GPa) = 56.15710 56.46849 56.31280
# Shear Modulus (GPa) = 21.46130 22.63027 22.04579
#
# Velocity S-wave (km/s) = 3.40363 3.49509 3.44966
# Velocity P-wave (km/s) = 6.76457 6.83878 6.80178
#
# Compressibility (1/GPa) = 0.01780719
#
# Stress axis : x y z
#
# Youngs Moduli (GPa) = 42.70721 42.70721 68.89343
#
# Poissons Ratio (x) = 0.51450 0.33490
# Poissons Ratio (y) = 0.51450 0.33490
# Poissons Ratio (z) = 0.20760 0.20760
#
# Static dielectric constant tensor:
#      x y z
#    x 3.375870 0.000000 0.000000 
#    y 0.000000 3.375870 0.000000 
#    z 0.000000 0.000000 3.562310 
# 
# 
# High freq. dielectric constant tensor:
#      x y z
#    x 1.713000 0.000000 0.000000 
#    y 0.000000 1.713000 0.000000 
#    z 0.000000 0.000000 1.722160 
# 
# From -- ./inp_files/5619.got.cif
#   From: 2010.03.12/outbox.cif.g09.slc.cpg/sg124_3_cif.got.tgz:5619.got - 2010.04.06 16:38:57.
