data_PCOD8313443
_publ_section_title
;
Structure prediction by ZEFSAII (Michael W. Deem and Ramdas Pophale) SiO2 
 PCOD8313443
Probable space group: P 4/N B M
;
_chemical_formula_sum "Si O2"
_cell_formula_units_Z 112
_cell_length_a 14.498356
_cell_length_b 14.498356
_cell_length_c 28.283363
_cell_angle_alpha 90.000000
_cell_angle_beta 90.000000
_cell_angle_gamma 90.000000
_cell_volume 5945.228710
_symmetry_space_group_name_H-M "P 4/N B M"
_symmetry_group_IT_number 125
_space_group.IT_coordinate_system_code '2'
_symmetry_cell_setting 'tetragonal'
loop_
_space_group_symop_operation_xyz
x,y,z
1/2-y,x,z
1/2-x,1/2-y,z
y,1/2-x,z
x,1/2-y,-z
1/2-x,y,-z
y,x,-z
1/2-y,1/2-x,-z
-x,-y,-z
1/2+y,-x,-z
1/2+x,1/2+y,-z
-y,1/2+x,-z
-x,1/2+y,z
1/2+x,-y,z
-y,-x,z
1/2+y,1/2+x,z
loop_
_atom_site_type_symbol
_atom_site_label
_atom_site_fract_x
_atom_site_fract_y
_atom_site_fract_z
Si Si1 0.604845 0.244236 0.635878
Si Si2 0.470743 0.821071 0.540879
Si Si3 0.017944 0.134492 0.689901
Si Si4 0.852673 0.994116 0.978144
Si Si5 0.187698 0.111281 0.111729
Si Si6 0.157674 0.369326 0.601539
Si Si7 0.318965 0.115756 0.781804
O O1 0.690997 0.309004 0.644703
O O2 0.637981 0.137981 0.641515
O O3 0.566482 0.259290 0.583695
O O4 0.529802 0.268538 0.675768
O O5 0.497792 0.750000 0.500000
O O6 0.394096 0.894096 0.523329
O O7 0.560112 0.878311 0.560781
O O8 0.104016 0.123555 0.654240
O O9 0.044451 0.138845 0.744713
O O10 0.951241 0.048760 0.681130
O O11 0.843665 0.971056 0.922590
O O12 0.750000 0.005936 0.000000
O O13 0.906792 0.906792 0.000000
O O14 0.911329 0.088672 0.984971
O O15 0.295438 0.130526 0.102605
O O16 0.166912 0.077881 0.165098
O O17 0.122087 0.267562 0.594193
O O18 0.371521 0.210991 0.773362
#
# Coordination Sequence:
#
# PCOD8313443 Si02
#       7
#    16  16  16  16  16  16  16
#     4   8  15  29  48  69  95 129 168 206 245 304
#     4  10  20  35  55  79 106 134 166 207 258 316
#     4  10  19  32  52  77 105 134 171 219 269 320
#     4  11  22  35  57  87 118 156 200 248 301 357
#     4   9  17  32  56  82 108 143 191 246 291 333
#     4  10  21  38  57  74  98 135 176 218 265 318
#     4   9  18  33  53  77 107 143 182 222 273 329
#
# _framework density 18.838636000000001
#
# number of rings (size 3 to 8) (size 9 to 14) (size 15 to 20)
#    0.000    2.429    1.429    3.429    0.000    3.286 
#    0.000   12.143    0.000    1.714    0.000    2.000 
#    0.000    0.000    0.000    0.000    0.000    0.000 
#
# Total GULP energy -1387965.345360 kJ/mol
# GULP energy per Si atom -12392.547726 kJ/mol
# Density = 1.879576 g / cm^3
# Si number density = 18.838636 Si / 1000 Ang^3
#
#
#
# Elastic Constant Matrix: (Units=GPa)
#
#
# Indices 1 2 3 4 5 6 
#
# 1 66.5223 25.7260 27.4423 0.0000 0.0000 0.0000
# 2 25.7260 66.5223 27.4423 0.0000 0.0000 0.0000
# 3 27.4423 27.4423 109.6666 0.0000 0.0000 0.0000
# 4 0.0000 0.0000 0.0000 26.5219 0.0000 0.0000
# 5 0.0000 0.0000 0.0000 0.0000 26.5219 0.0000
# 6 0.0000 0.0000 0.0000 0.0000 0.0000 -658.9472
#
#
#
# Elastic Compliance Matrix: (Units=1/GPa)
#
#
# Indices 1 2 3 4 5 6 
#
# 1 0.018624 -0.005888 -0.003187 0.000000 0.000000 0.000000
# 2 -0.005888 0.018624 -0.003187 0.000000 0.000000 0.000000
# 3 -0.003187 -0.003187 0.010714 0.000000 0.000000 0.000000
# 4 0.000000 0.000000 0.000000 0.037705 0.000000 0.000000
# 5 0.000000 0.000000 0.000000 0.000000 0.037705 0.000000
# 6 0.000000 0.000000 0.000000 0.000000 0.000000 -0.001518
#
#
# Mechanical properties :
#
#
# Convention : Reuss Voigt Hill
#
# Bulk Modulus (GPa) = 42.66539 44.88138 43.77339
# Shear Modulus (GPa) = 32.42736 -110.37399 -38.97331
#
# Velocity S-wave (km/s) = 4.15338 -7.66266 -4.55334
# Velocity P-wave (km/s) = 6.76001 7.37649 2.08745
#
# Compressibility (1/GPa) = 0.02343820
#
# Stress axis : x y z
#
# Youngs Moduli (GPa) = 53.69333 53.69333 93.33939
#
# Poissons Ratio (x) = 0.31613 0.29748
# Poissons Ratio (y) = 0.31613 0.29748
# Poissons Ratio (z) = 0.17113 0.17113
#
# Static dielectric constant tensor:
#      x y z
#    x 3.457140 0.000000 0.000000 
#    y 0.000000 3.457140 0.000000 
#    z 0.000000 0.000000 3.407360 
# 
# 
# High freq. dielectric constant tensor:
#      x y z
#    x 1.722410 0.000000 0.000000 
#    y 0.000000 1.722410 0.000000 
#    z 0.000000 0.000000 1.727560 
# 
# From -- ./inp_files/6421.got.cif
#   From: 2010.03.12/outbox.cif.g09.slc.cpg/sg125_4_cif.got.tgz:6421.got - 2010.04.06 16:47:52.
