data_PCOD8313520
_publ_section_title
;
Structure prediction by ZEFSAII (Michael W. Deem and Ramdas Pophale) SiO2 
 PCOD8313520
Probable space group: P 4/N B M
;
_chemical_formula_sum "Si O2"
_cell_formula_units_Z 112
_cell_length_a 13.899192
_cell_length_b 13.899192
_cell_length_c 33.913112
_cell_angle_alpha 90.000000
_cell_angle_beta 90.000000
_cell_angle_gamma 90.000000
_cell_volume 6551.590622
_symmetry_space_group_name_H-M "P 4/N B M"
_symmetry_group_IT_number 125
_space_group.IT_coordinate_system_code '2'
_symmetry_cell_setting 'tetragonal'
loop_
_space_group_symop_operation_xyz
x,y,z
1/2-y,x,z
1/2-x,1/2-y,z
y,1/2-x,z
x,1/2-y,-z
1/2-x,y,-z
y,x,-z
1/2-y,1/2-x,-z
-x,-y,-z
1/2+y,-x,-z
1/2+x,1/2+y,-z
-y,1/2+x,-z
-x,1/2+y,z
1/2+x,-y,z
-y,-x,z
1/2+y,1/2+x,z
loop_
_atom_site_type_symbol
_atom_site_label
_atom_site_fract_x
_atom_site_fract_y
_atom_site_fract_z
Si Si1 0.490408 0.149255 0.019738
Si Si2 0.989969 0.648834 0.888536
Si Si3 0.148999 0.009214 0.519752
Si Si4 0.898633 0.690696 0.400594
Si Si5 0.991239 0.850575 0.849058
Si Si6 0.690761 0.898666 0.769454
Si Si7 0.691339 0.897033 0.684426
O O1 0.469237 0.163679 0.065594
O O2 0.581460 0.081460 0.011997
O O3 0.515466 0.250000 0.000000
O O4 0.395474 0.104527 0.000000
O O5 0.894604 0.604114 0.868983
O O6 0.080579 0.580579 0.880882
O O7 0.015002 0.749497 0.868749
O O8 0.250000 0.985515 0.500000
O O9 0.104941 0.104941 0.500000
O O10 0.160716 0.025185 0.566428
O O11 0.081557 0.918444 0.512007
O O12 0.872698 0.802685 0.405153
O O13 0.949542 0.670288 0.357548
O O14 0.082370 0.917631 0.856909
O O15 0.975011 0.839200 0.802384
O O16 0.627302 0.802752 0.774025
O O17 0.670339 0.949530 0.726404
O O18 0.628051 0.802385 0.684423
#
# Coordination Sequence:
#
# PCOD8313520 Si02
#       7
#    16  16  16  16  16  16  16
#     4  10  21  38  57  78 104 134 169 210 254 302
#     4  10  22  37  54  78 106 133 167 211 257 303
#     4  11  22  34  50  74 102 133 173 215 258 311
#     4   9  15  27  49  74  99 129 167 214 262 305
#     4  11  21  34  53  77 105 139 176 210 249 302
#     4   9  15  28  49  74 104 134 167 211 257 304
#     4   7  12  22  42  72 101 128 160 205 261 305
#
# _framework density 17.095084
#
# number of rings (size 3 to 8) (size 9 to 14) (size 15 to 20)
#    0.000    2.429    2.857    2.571    0.000    2.857 
#    0.000    3.571    0.000    0.000    0.000    1.000 
#    0.000    2.286    0.000    0.000    0.000    0.000 
#
# Total GULP energy -1388050.151851 kJ/mol
# GULP energy per Si atom -12393.304927 kJ/mol
# Density = 1.705618 g / cm^3
# Si number density = 17.095084 Si / 1000 Ang^3
#
#
#
# Elastic Constant Matrix: (Units=GPa)
#
#
# Indices 1 2 3 4 5 6 
#
# 1 65.5138 19.1765 42.0309 0.0000 0.0000 0.0000
# 2 19.1765 65.5129 42.0302 0.0000 0.0000 0.0000
# 3 42.0309 42.0302 161.8526 0.0000 0.0000 0.0000
# 4 0.0000 0.0000 0.0000 19.5567 0.0000 0.0000
# 5 0.0000 0.0000 0.0000 0.0000 19.5568 0.0000
# 6 0.0000 0.0000 0.0000 0.0000 0.0000 10.8189
#
#
#
# Elastic Compliance Matrix: (Units=1/GPa)
#
#
# Indices 1 2 3 4 5 6 
#
# 1 0.018745 -0.002836 -0.004131 0.000000 0.000000 0.000000
# 2 -0.002836 0.018745 -0.004131 0.000000 0.000000 0.000000
# 3 -0.004131 -0.004131 0.008324 0.000000 0.000000 0.000000
# 4 0.000000 0.000000 0.000000 0.051133 0.000000 0.000000
# 5 0.000000 0.000000 0.000000 0.000000 0.051133 0.000000
# 6 0.000000 0.000000 0.000000 0.000000 0.000000 0.092431
#
#
# Mechanical properties :
#
#
# Convention : Reuss Voigt Hill
#
# Bulk Modulus (GPa) = 42.34409 55.48383 48.91396
# Shear Modulus (GPa) = 18.47884 22.62927 20.55406
#
# Velocity S-wave (km/s) = 3.29134 3.64226 3.47124
# Velocity P-wave (km/s) = 6.26637 7.08622 6.68887
#
# Compressibility (1/GPa) = 0.02361605
#
# Stress axis : x y z
#
# Youngs Moduli (GPa) = 53.34878 53.34827 120.13407
#
# Poissons Ratio (x) = 0.15132 0.49629
# Poissons Ratio (y) = 0.15132 0.49628
# Poissons Ratio (z) = 0.22039 0.22039
#
# Static dielectric constant tensor:
#      x y z
#    x 2.887820 0.000000 0.000000 
#    y 0.000000 2.887820 0.000000 
#    z 0.000000 0.000000 3.711820 
# 
# 
# High freq. dielectric constant tensor:
#      x y z
#    x 1.629730 0.000000 0.000000 
#    y 0.000000 1.629730 0.000000 
#    z 0.000000 0.000000 1.689360 
# 
# From -- ./inp_files/6654.got.cif
#   From: 2010.03.12/outbox.cif.g09.slc.cpg/sg125_4_cif.got.tgz:6654.got - 2010.04.06 16:47:52.
