data_PCOD8313652
_publ_section_title
;
Structure prediction by ZEFSAII (Michael W. Deem and Ramdas Pophale) SiO2 
 PCOD8313652
Probable space group: P 4/N N C
;
_chemical_formula_sum "Si O2"
_cell_formula_units_Z 56
_cell_length_a 14.239522
_cell_length_b 14.239522
_cell_length_c 17.073565
_cell_angle_alpha 90.000000
_cell_angle_beta 90.000000
_cell_angle_gamma 90.000000
_cell_volume 3461.904108
_symmetry_space_group_name_H-M "P 4/N N C"
_symmetry_group_IT_number 126
_space_group.IT_coordinate_system_code '2'
_symmetry_cell_setting 'tetragonal'
loop_
_space_group_symop_operation_xyz
x,y,z
1/2-y,x,z
1/2-x,1/2-y,z
y,1/2-x,z
x,1/2-y,1/2-z
1/2-x,y,1/2-z
y,x,1/2-z
1/2-y,1/2-x,1/2-z
-x,-y,-z
1/2+y,-x,-z
1/2+x,1/2+y,-z
-y,1/2+x,-z
-x,1/2+y,1/2+z
1/2+x,-y,1/2+z
-y,-x,1/2+z
1/2+y,1/2+x,1/2+z
loop_
_atom_site_type_symbol
_atom_site_label
_atom_site_fract_x
_atom_site_fract_y
_atom_site_fract_z
Si Si1 0.331668 0.118868 0.621932
Si Si2 0.652434 0.521489 0.789397
Si Si3 0.111272 0.183570 0.446556
Si Si4 0.539881 0.539881 0.250000
O O1 0.376700 0.220802 0.637087
O O2 0.343759 0.078185 0.534113
O O3 0.384474 0.050390 0.681038
O O4 0.750000 0.487556 0.750000
O O5 0.621275 0.621275 0.750000
O O6 0.656834 0.532900 0.883245
O O7 0.569052 0.445483 0.776413
O O8 0.206700 0.127249 0.433825
#
# Coordination Sequence:
#
# PCOD8313652 Si02
#       4
#    16  16  16   8
#     4   9  18  32  52  72  91 116 156 201 240 277
#     4  10  19  29  45  70  97 127 152 185 226 281
#     4   9  15  26  46  72  94 117 150 192 240 278
#     4  10  20  29  45  70  96 130 152 190 232 272
#
# _framework density 16.176068000000001
#
# number of rings (size 3 to 8) (size 9 to 14) (size 15 to 20)
#    0.857    1.714    2.857    2.571    0.000    2.571 
#    0.000    0.000    0.000    3.429    0.000    0.000 
#    0.000   18.286    0.000    0.000    0.000    0.000 
#
# Total GULP energy -693735.189284 kJ/mol
# GULP energy per Si atom -12388.128380 kJ/mol
# Density = 1.613925 g / cm^3
# Si number density = 16.176068 Si / 1000 Ang^3
#
#
#
# Elastic Constant Matrix: (Units=GPa)
#
#
# Indices 1 2 3 4 5 6 
#
# 1 56.3836 35.2106 51.1481 0.0000 0.0000 0.0000
# 2 35.2106 56.3836 51.1481 0.0000 0.0000 0.0000
# 3 51.1481 51.1481 143.4561 0.0000 0.0000 0.0000
# 4 0.0000 0.0000 0.0000 27.7571 0.0000 0.0000
# 5 0.0000 0.0000 0.0000 0.0000 27.7571 0.0000
# 6 0.0000 0.0000 0.0000 0.0000 0.0000 29.8758
#
#
#
# Elastic Compliance Matrix: (Units=1/GPa)
#
#
# Indices 1 2 3 4 5 6 
#
# 1 0.032686 -0.014544 -0.006468 0.000000 0.000000 0.000000
# 2 -0.014544 0.032686 -0.006468 0.000000 0.000000 0.000000
# 3 -0.006468 -0.006468 0.011583 0.000000 0.000000 0.000000
# 4 0.000000 0.000000 0.000000 0.036027 0.000000 0.000000
# 5 0.000000 0.000000 0.000000 0.000000 0.036027 0.000000
# 6 0.000000 0.000000 0.000000 0.000000 0.000000 0.033472
#
#
# Mechanical properties :
#
#
# Convention : Reuss Voigt Hill
#
# Bulk Modulus (GPa) = 45.46784 59.02632 52.24708
# Shear Modulus (GPa) = 20.42707 24.99245 22.70976
#
# Velocity S-wave (km/s) = 3.55744 3.93495 3.75095
# Velocity P-wave (km/s) = 6.71140 7.56401 7.15042
#
# Compressibility (1/GPa) = 0.02199357
#
# Stress axis : x y z
#
# Youngs Moduli (GPa) = 30.59419 30.59419 86.33181
#
# Poissons Ratio (x) = 0.44497 0.55842
# Poissons Ratio (y) = 0.44497 0.55842
# Poissons Ratio (z) = 0.19789 0.19789
#
# Static dielectric constant tensor:
#      x y z
#    x 2.713240 0.000000 0.000000 
#    y 0.000000 2.713240 0.000000 
#    z 0.000000 0.000000 3.221910 
# 
# 
# High freq. dielectric constant tensor:
#      x y z
#    x 1.586910 0.000000 0.000000 
#    y 0.000000 1.586910 0.000000 
#    z 0.000000 0.000000 1.643710 
# 
# From -- ./inp_files/3379.got.cif
#   From: 2010.03.12/outbox.cif.g09.slc.cpg/sg126_2_cif.got.tgz:3379.got - 2010.04.06 16:55:23.
