data_PCOD8313481
_publ_section_title
;
Structure prediction by ZEFSAII (Michael W. Deem and Ramdas Pophale) SiO2 
 PCOD8313481
Probable space group: P 4/N B M
;
_chemical_formula_sum "Si O2"
_cell_formula_units_Z 112
_cell_length_a 15.609867
_cell_length_b 15.609867
_cell_length_c 21.620265
_cell_angle_alpha 90.000000
_cell_angle_beta 90.000000
_cell_angle_gamma 90.000000
_cell_volume 5268.165603
_symmetry_space_group_name_H-M "P 4/N B M"
_symmetry_group_IT_number 125
_space_group.IT_coordinate_system_code '2'
_symmetry_cell_setting 'tetragonal'
loop_
_space_group_symop_operation_xyz
x,y,z
1/2-y,x,z
1/2-x,1/2-y,z
y,1/2-x,z
x,1/2-y,-z
1/2-x,y,-z
y,x,-z
1/2-y,1/2-x,-z
-x,-y,-z
1/2+y,-x,-z
1/2+x,1/2+y,-z
-y,1/2+x,-z
-x,1/2+y,z
1/2+x,-y,z
-y,-x,z
1/2+y,1/2+x,z
loop_
_atom_site_type_symbol
_atom_site_label
_atom_site_fract_x
_atom_site_fract_y
_atom_site_fract_z
Si Si1 0.180878 0.542353 0.707601
Si Si2 0.532445 0.174452 0.950771
Si Si3 0.630209 0.672868 0.885005
Si Si4 0.337560 0.356871 0.571595
Si Si5 0.078238 0.057517 0.767448
Si Si6 0.614751 0.248801 0.168259
Si Si7 0.515223 0.349667 0.349495
O O1 0.117913 0.617913 0.686514
O O2 0.130839 0.454383 0.720423
O O3 0.222784 0.559608 0.773727
O O4 0.247536 0.532999 0.650508
O O5 0.595681 0.095681 0.968114
O O6 0.433887 0.141998 0.940668
O O7 0.554046 0.215289 0.884713
O O8 0.541207 0.250000 0.000000
O O9 0.724127 0.632950 0.891307
O O10 0.593754 0.639988 0.819904
O O11 0.237675 0.367754 0.589769
O O12 0.363313 0.363313 0.500000
O O13 0.380857 0.434500 0.609046
O O14 0.133486 0.997351 0.723324
O O15 0.997666 0.002334 0.795544
O O16 0.678302 0.321699 0.192041
O O17 0.668080 0.168080 0.141247
O O18 0.597542 0.402459 0.373994
#
# Coordination Sequence:
#
# PCOD8313481 Si02
#       7
#    16  16  16  16  16  16  16
#     4  10  20  34  54  82 118 157 194 234 288 356
#     4  11  23  40  62  86 112 144 191 249 303 357
#     4  11  24  41  60  83 115 153 189 230 291 365
#     4   9  19  37  59  80 106 146 197 251 303 350
#     4  10  20  35  57  85 115 147 190 242 289 338
#     4   9  17  31  53  79 108 145 188 237 294 351
#     4  11  21  32  52  84 120 155 192 237 288 344
#
# _framework density 21.259771000000001
#
# number of rings (size 3 to 8) (size 9 to 14) (size 15 to 20)
#    0.000    1.857    0.000    5.143    0.000    4.714 
#    0.000    5.000    0.000    0.857    0.000    0.000 
#    0.000    0.000    0.000    0.000    0.000    0.000 
#
# Total GULP energy -1387794.060780 kJ/mol
# GULP energy per Si atom -12391.018400 kJ/mol
# Density = 2.121138 g / cm^3
# Si number density = 21.259771 Si / 1000 Ang^3
#
#
#
# Elastic Constant Matrix: (Units=GPa)
#
#
# Indices 1 2 3 4 5 6 
#
# 1 111.6059 53.2079 36.8658 0.0000 0.0000 0.0000
# 2 53.2079 111.6059 36.8658 0.0000 0.0000 0.0000
# 3 36.8658 36.8658 43.9702 0.0000 0.0000 0.0000
# 4 0.0000 0.0000 0.0000 30.8261 0.0000 0.0000
# 5 0.0000 0.0000 0.0000 0.0000 30.8261 0.0000
# 6 0.0000 0.0000 0.0000 0.0000 0.0000 30.1546
#
#
#
# Elastic Compliance Matrix: (Units=1/GPa)
#
#
# Indices 1 2 3 4 5 6 
#
# 1 0.013417 -0.003707 -0.008140 0.000000 0.000000 0.000000
# 2 -0.003707 0.013417 -0.008140 0.000000 0.000000 0.000000
# 3 -0.008140 -0.008140 0.036393 0.000000 0.000000 0.000000
# 4 0.000000 0.000000 0.000000 0.032440 0.000000 0.000000
# 5 0.000000 0.000000 0.000000 0.000000 0.032440 0.000000
# 6 0.000000 0.000000 0.000000 0.000000 0.000000 0.033162
#
#
# Mechanical properties :
#
#
# Convention : Reuss Voigt Hill
#
# Bulk Modulus (GPa) = 43.01148 57.89567 50.45357
# Shear Modulus (GPa) = 23.92400 27.71084 25.81742
#
# Velocity S-wave (km/s) = 3.35822 3.61424 3.48857
# Velocity P-wave (km/s) = 5.94240 6.68645 6.32537
#
# Compressibility (1/GPa) = 0.02324961
#
# Stress axis : x y z
#
# Youngs Moduli (GPa) = 74.53489 74.53489 27.47778
#
# Poissons Ratio (x) = 0.27633 0.22368
# Poissons Ratio (y) = 0.27633 0.22368
# Poissons Ratio (z) = 0.60675 0.60675
#
# Static dielectric constant tensor:
#      x y z
#    x 4.085930 0.000000 0.000000 
#    y 0.000000 4.085930 0.000000 
#    z 0.000000 0.000000 3.452390 
# 
# 
# High freq. dielectric constant tensor:
#      x y z
#    x 1.843630 0.000000 0.000000 
#    y 0.000000 1.843630 0.000000 
#    z 0.000000 0.000000 1.799930 
# 
# From -- ./inp_files/6252.got.cif
#   From: 2010.03.12/outbox.cif.g09.slc.cpg/sg125_4_cif.got.tgz:6252.got - 2010.04.06 16:47:52.
