data_PCOD8313230
_publ_section_title
;
Structure prediction by ZEFSAII (Michael W. Deem and Ramdas Pophale) SiO2 
 PCOD8313230
Probable space group: P 4/M C C
;
_chemical_formula_sum "Si O2"
_cell_formula_units_Z 96
_cell_length_a 24.080686
_cell_length_b 24.080686
_cell_length_c 8.673248
_cell_angle_alpha 90.000000
_cell_angle_beta 90.000000
_cell_angle_gamma 90.000000
_cell_volume 5029.438178
_symmetry_space_group_name_H-M "P 4/M C C"
_symmetry_group_IT_number 124
_symmetry_cell_setting 'tetragonal'
loop_
_space_group_symop_operation_xyz
x,y,z
-y,x,z
-x,-y,z
y,-x,z
x,-y,1/2-z
-x,y,1/2-z
y,x,1/2-z
-y,-x,1/2-z
-x,-y,-z
y,-x,-z
x,y,-z
-y,x,-z
-x,y,1/2+z
x,-y,1/2+z
-y,-x,1/2+z
y,x,1/2+z
loop_
_atom_site_type_symbol
_atom_site_label
_atom_site_fract_x
_atom_site_fract_y
_atom_site_fract_z
Si Si1 0.056570 0.262427 0.817975
Si Si2 0.441181 0.056573 0.178656
Si Si3 0.942869 0.141463 0.817477
Si Si4 0.733385 0.651102 0.681508
Si Si5 0.644767 0.438956 0.817247
Si Si6 0.140124 0.654538 0.180036
O O1 0.065049 0.204249 0.734861
O O2 0.110657 0.298310 0.780237
O O3 0.000000 0.290324 0.750000
O O4 0.050307 0.254320 0.000000
O O5 0.500000 0.071749 0.250000
O O6 0.402580 0.108760 0.213923
O O7 0.416060 0.000000 0.250000
O O8 0.448727 0.045444 0.000000
O O9 0.891764 0.108237 0.750000
O O10 0.000000 0.116549 0.750000
O O11 0.943854 0.137392 0.000000
O O12 0.706864 0.706864 0.750000
O O13 0.731066 0.656214 0.500000
O O14 0.698538 0.596995 0.735196
O O15 0.796845 0.646739 0.738659
O O16 0.652141 0.500000 0.750000
O O17 0.589161 0.410840 0.750000
O O18 0.639278 0.442163 0.000000
O O19 0.137437 0.670713 0.000000
#
# Coordination Sequence:
#
# PCOD8313230 Si02
#       6
#    16  16  16  16  16  16
#     4  11  22  37  57  82 110 144 183 229 281 331
#     4  10  20  34  53  76 107 142 177 220 271 320
#     4  11  22  39  60  84 113 146 183 226 276 332
#     4   9  20  38  57  78 109 144 180 222 270 318
#     4  10  20  36  58  84 113 147 183 224 271 322
#     4  10  21  37  56  80 109 144 184 228 273 326
#
# _framework density 19.087620000000001
#
# number of rings (size 3 to 8) (size 9 to 14) (size 15 to 20)
#    0.000    1.833    0.000    6.000    0.000    5.667 
#    0.000    3.333    0.000    0.000    0.000    0.000 
#    0.000    0.000    0.000    0.000    0.000    0.000 
#
# Total GULP energy -1190602.451166 kJ/mol
# GULP energy per Si atom -12402.108866 kJ/mol
# Density = 1.904418 g / cm^3
# Si number density = 19.087620 Si / 1000 Ang^3
#
#
#
# Elastic Constant Matrix: (Units=GPa)
#
#
# Indices 1 2 3 4 5 6 
#
# 1 132.0879 71.5651 49.4596 0.0000 0.0000 0.0000
# 2 71.5651 132.0773 49.4563 0.0000 0.0000 0.0000
# 3 49.4596 49.4563 116.9347 0.0000 0.0000 0.0000
# 4 0.0000 0.0000 0.0000 31.1997 0.0000 0.0000
# 5 0.0000 0.0000 0.0000 0.0000 31.2006 0.0000
# 6 0.0000 0.0000 0.0000 0.0000 0.0000 46.0501
#
#
#
# Elastic Compliance Matrix: (Units=1/GPa)
#
#
# Indices 1 2 3 4 5 6 
#
# 1 0.011352 -0.005172 -0.002614 0.000000 0.000000 0.000000
# 2 -0.005172 0.011353 -0.002614 0.000000 0.000000 0.000000
# 3 -0.002614 -0.002614 0.010763 0.000000 0.000000 0.000000
# 4 0.000000 0.000000 0.000000 0.032052 0.000000 0.000000
# 5 0.000000 0.000000 0.000000 0.000000 0.032051 0.000000
# 6 0.000000 0.000000 0.000000 0.000000 0.000000 0.021715
#
#
# Mechanical properties :
#
#
# Convention : Reuss Voigt Hill
#
# Bulk Modulus (GPa) = 78.94228 80.22910 79.58569
# Shear Modulus (GPa) = 34.64838 35.73134 35.18986
#
# Velocity S-wave (km/s) = 4.26517 4.33131 4.29837
# Velocity P-wave (km/s) = 8.10575 8.19371 8.14985
#
# Compressibility (1/GPa) = 0.01266748
#
# Stress axis : x y z
#
# Youngs Moduli (GPa) = 88.09253 88.08632 92.91196
#
# Poissons Ratio (x) = 0.45559 0.24287
# Poissons Ratio (y) = 0.45562 0.24285
# Poissons Ratio (z) = 0.23027 0.23024
#
# Static dielectric constant tensor:
#      x y z
#    x 3.652390 0.000000 0.000000 
#    y 0.000000 3.652360 0.000000 
#    z 0.000000 0.000000 3.556220 
# 
# 
# High freq. dielectric constant tensor:
#      x y z
#    x 1.745280 0.000000 0.000000 
#    y 0.000000 1.745280 0.000000 
#    z 0.000000 0.000000 1.751840 
# 
# From -- ./inp_files/1363.got.cif
#   From: 2010.03.12/outbox.cif.g09.slc.cpg/sg124_1_cif.got.tgz:1363.got - 2010.04.06 16:38:57.
