data_PCOD8313002
_publ_section_title
;
Structure prediction by ZEFSAII (Michael W. Deem and Ramdas Pophale) SiO2 
 PCOD8313002
Probable space group: P 4/M M M
;
_chemical_formula_sum "Si O2"
_cell_formula_units_Z 96
_cell_length_a 19.000344
_cell_length_b 19.000344
_cell_length_c 19.000472
_cell_angle_alpha 90.000000
_cell_angle_beta 90.000000
_cell_angle_gamma 90.000000
_cell_volume 6859.418768
_symmetry_space_group_name_H-M "P 4/M M M"
_symmetry_group_IT_number 123
_symmetry_cell_setting 'tetragonal'
loop_
_space_group_symop_operation_xyz
x,y,z
-y,x,z
-x,-y,z
y,-x,z
x,-y,-z
-x,y,-z
y,x,-z
-y,-x,-z
-x,-y,-z
y,-x,-z
x,y,-z
-y,x,-z
-x,y,z
x,-y,z
-y,-x,z
y,x,z
loop_
_atom_site_type_symbol
_atom_site_label
_atom_site_fract_x
_atom_site_fract_y
_atom_site_fract_z
Si Si1 0.811049 0.583739 0.921451
Si Si2 0.419070 0.187892 0.696182
Si Si3 0.188957 0.921450 0.416261
Si Si4 0.416261 0.921450 0.188958
Si Si5 0.812111 0.303820 0.419071
Si Si6 0.419070 0.696182 0.812115
O O1 0.814049 0.500000 0.924009
O O2 0.880006 0.611939 0.880002
O O3 0.740865 0.606570 0.879834
O O4 0.810094 0.616077 0.000000
O O5 0.500000 0.179334 0.673529
O O6 0.393430 0.120170 0.740861
O O7 0.374209 0.193916 0.625792
O O8 0.408695 0.257750 0.742254
O O9 0.185956 0.924008 0.500000
O O10 0.120000 0.880001 0.388062
O O11 0.259141 0.879833 0.393432
O O12 0.189913 0.000000 0.383924
O O13 0.500000 0.924008 0.185958
O O14 0.383923 0.000000 0.189918
O O15 0.820672 0.326477 0.500000
O O16 0.742253 0.257748 0.408700
O O17 0.500000 0.673529 0.820675
O O18 0.374209 0.625792 0.806096
#
# Coordination Sequence:
#
# PCOD8313002 Si02
#       6
#    16  16  16  16  16  16
#     4   8  14  24  37  54  75  97 121 148 178 213
#     4   9  17  28  41  56  74  97 125 158 196 237
#     4   8  14  24  37  54  75  97 121 148 178 213
#     4   8  14  24  37  54  75  97 121 148 178 213
#     4   9  17  28  41  56  74  97 125 158 196 237
#     4   9  17  28  41  56  74  97 125 158 196 237
#
# _framework density 13.995355
#
# number of rings (size 3 to 8) (size 9 to 14) (size 15 to 20)
#    0.000    3.500    0.000    3.500    0.000    2.000 
#    0.000    2.500    0.000    0.000    0.000    7.000 
#    0.000    0.000    0.000   15.500    0.000    0.000 
#
# Total GULP energy -1189778.633673 kJ/mol
# GULP energy per Si atom -12393.527434 kJ/mol
# Density = 1.396350 g / cm^3
# Si number density = 13.995355 Si / 1000 Ang^3
#
#
#
# Elastic Constant Matrix: (Units=GPa)
#
#
# Indices 1 2 3 4 5 6 
#
# 1 79.4592 42.2687 42.2731 0.0000 0.0000 0.0000
# 2 42.2687 79.4592 42.2731 0.0000 0.0000 0.0000
# 3 42.2731 42.2731 79.4684 0.0000 0.0000 0.0000
# 4 0.0000 0.0000 0.0000 9.8628 0.0000 0.0000
# 5 0.0000 0.0000 0.0000 0.0000 9.8628 0.0000
# 6 0.0000 0.0000 0.0000 0.0000 0.0000 9.8630
#
#
#
# Elastic Compliance Matrix: (Units=1/GPa)
#
#
# Indices 1 2 3 4 5 6 
#
# 1 0.019959 -0.006930 -0.006931 0.000000 0.000000 0.000000
# 2 -0.006930 0.019959 -0.006931 0.000000 0.000000 0.000000
# 3 -0.006931 -0.006931 0.019957 0.000000 0.000000 0.000000
# 4 0.000000 0.000000 0.000000 0.101391 0.000000 0.000000
# 5 0.000000 0.000000 0.000000 0.000000 0.101391 0.000000
# 6 0.000000 0.000000 0.000000 0.000000 0.000000 0.101389
#
#
# Mechanical properties :
#
#
# Convention : Reuss Voigt Hill
#
# Bulk Modulus (GPa) = 54.66851 54.66851 54.66851
# Shear Modulus (GPa) = 12.14402 13.35584 12.74993
#
# Velocity S-wave (km/s) = 2.94890 3.09253 3.02157
# Velocity P-wave (km/s) = 7.12330 7.20405 7.16379
#
# Compressibility (1/GPa) = 0.01829207
#
# Stress axis : x y z
#
# Youngs Moduli (GPa) = 50.10355 50.10355 50.10765
#
# Poissons Ratio (x) = 0.34722 0.34728
# Poissons Ratio (y) = 0.34722 0.34728
# Poissons Ratio (z) = 0.34725 0.34725
#
# Static dielectric constant tensor:
#      x y z
#    x 2.681940 0.000000 0.000000 
#    y 0.000000 2.681940 0.000000 
#    z 0.000000 0.000000 2.681970 
# 
# 
# High freq. dielectric constant tensor:
#      x y z
#    x 1.517800 0.000000 0.000000 
#    y 0.000000 1.517800 0.000000 
#    z 0.000000 0.000000 1.517800 
# 
# From -- ./inp_files/5451.got.cif
#   From: 2010.03.12/outbox.cif.g09.slc.cpg/sg123_3_cif.got.tgz:5451.got - 2010.04.06 16:26:55.
