data_PCOD8313975
_publ_section_title
;
Structure prediction by ZEFSAII (Michael W. Deem and Ramdas Pophale) SiO2 
 PCOD8313975
Probable space group: P 4/M B M
;
_chemical_formula_sum "Si O2"
_cell_formula_units_Z 96
_cell_length_a 24.820358
_cell_length_b 24.820358
_cell_length_c 8.736114
_cell_angle_alpha 90.000000
_cell_angle_beta 90.000000
_cell_angle_gamma 90.000000
_cell_volume 5381.884526
_symmetry_space_group_name_H-M "P 4/M B M"
_symmetry_group_IT_number 127
_symmetry_cell_setting 'tetragonal'
loop_
_space_group_symop_operation_xyz
x,y,z
-y,x,z
-x,-y,z
y,-x,z
1/2+x,1/2-y,-z
1/2-x,1/2+y,-z
1/2+y,1/2+x,-z
1/2-y,1/2-x,-z
-x,-y,-z
y,-x,-z
x,y,-z
-y,x,-z
1/2-x,1/2+y,z
1/2+x,1/2-y,z
1/2-y,1/2-x,z
1/2+y,1/2+x,z
loop_
_atom_site_type_symbol
_atom_site_label
_atom_site_fract_x
_atom_site_fract_y
_atom_site_fract_z
Si Si1 0.021098 0.664528 0.326339
Si Si2 0.200163 0.700163 0.680794
Si Si3 0.351530 0.307401 0.179950
Si Si4 0.912683 0.796059 0.177394
Si Si5 0.722324 0.470636 0.821140
Si Si6 0.882168 0.382168 0.175606
Si Si7 0.402907 0.816428 0.324593
O O1 0.039837 0.654279 0.500000
O O2 0.958364 0.650466 0.304115
O O3 0.031817 0.726293 0.286626
O O4 0.055428 0.627674 0.212608
O O5 0.204868 0.704868 0.500000
O O6 0.180954 0.758185 0.743432
O O7 0.155816 0.655816 0.723375
O O8 0.331418 0.364612 0.251918
O O9 0.415657 0.309410 0.212767
O O10 0.340382 0.301730 0.000000
O O11 0.901597 0.734075 0.213708
O O12 0.974702 0.811178 0.225376
O O13 0.906644 0.805876 0.000000
O O14 0.739374 0.474353 0.000000
O O15 0.869542 0.369542 0.000000
O O16 0.397154 0.796906 0.500000
O O17 0.354587 0.854587 0.274091
#
# Coordination Sequence:
#
# PCOD8313975 Si02
#       7
#    16   8  16  16  16   8  16
#     4  10  19  32  51  73  96 128 172 213 252 302
#     4  12  24  34  50  77 107 134 168 208 255 310
#     4  10  20  34  52  75 107 138 168 211 258 303
#     4   9  19  33  51  76 101 134 177 211 248 304
#     4   9  17  32  52  71  98 137 173 208 253 301
#     4  12  22  34  51  73 102 133 164 206 261 309
#     4   9  19  35  52  71  99 134 170 212 259 301
#
# _framework density 17.837617999999999
#
# number of rings (size 3 to 8) (size 9 to 14) (size 15 to 20)
#    0.000    2.167    1.667    2.000    1.167    1.667 
#    0.000    0.417    0.000    3.000    0.000    3.500 
#    0.000    0.000    0.000    9.833    0.000   10.333 
#
# Total GULP energy -1189687.155923 kJ/mol
# GULP energy per Si atom -12392.574541 kJ/mol
# Density = 1.779702 g / cm^3
# Si number density = 17.837618 Si / 1000 Ang^3
#
#
#
# Elastic Constant Matrix: (Units=GPa)
#
#
# Indices 1 2 3 4 5 6 
#
# 1 95.3145 60.1959 16.6623 0.0000 0.0000 0.0000
# 2 60.1959 95.3145 16.6623 0.0000 0.0000 0.0000
# 3 16.6623 16.6623 37.1786 0.0000 0.0000 0.0000
# 4 0.0000 0.0000 0.0000 16.9862 0.0000 0.0000
# 5 0.0000 0.0000 0.0000 0.0000 16.9862 0.0000
# 6 0.0000 0.0000 0.0000 0.0000 0.0000 25.0391
#
#
#
# Elastic Compliance Matrix: (Units=1/GPa)
#
#
# Indices 1 2 3 4 5 6 
#
# 1 0.017794 -0.010681 -0.003188 0.000000 0.000000 0.000000
# 2 -0.010681 0.017794 -0.003188 0.000000 0.000000 0.000000
# 3 -0.003188 -0.003188 0.029755 0.000000 0.000000 0.000000
# 4 0.000000 0.000000 0.000000 0.058871 0.000000 0.000000
# 5 0.000000 0.000000 0.000000 0.000000 0.058871 0.000000
# 6 0.000000 0.000000 0.000000 0.000000 0.000000 0.039938
#
#
# Mechanical properties :
#
#
# Convention : Reuss Voigt Hill
#
# Bulk Modulus (GPa) = 32.02083 46.09428 39.05756
# Shear Modulus (GPa) = 18.68828 20.75476 19.72152
#
# Velocity S-wave (km/s) = 3.24031 3.41477 3.32868
# Velocity P-wave (km/s) = 5.65595 6.43775 6.05947
#
# Compressibility (1/GPa) = 0.03122967
#
# Stress axis : x y z
#
# Youngs Moduli (GPa) = 56.19791 56.19791 33.60798
#
# Poissons Ratio (x) = 0.60023 0.10715
# Poissons Ratio (y) = 0.60023 0.10715
# Poissons Ratio (z) = 0.17916 0.17916
#
# Static dielectric constant tensor:
#      x y z
#    x 3.532780 0.000000 0.000000 
#    y 0.000000 3.532780 0.000000 
#    z 0.000000 0.000000 3.253190 
# 
# 
# High freq. dielectric constant tensor:
#      x y z
#    x 1.681640 0.000000 0.000000 
#    y 0.000000 1.681640 0.000000 
#    z 0.000000 0.000000 1.686120 
# 
# From -- ./inp_files/2097.got.cif
#   From: 2010.03.12/outbox.cif.g09.slc.cpg/sg127_2_cif.got.tgz:2097.got - 2010.04.06 17:03:15.
