data_PCOD8313281
_publ_section_title
;
Structure prediction by ZEFSAII (Michael W. Deem and Ramdas Pophale) SiO2 
 PCOD8313281
Probable space group: P 4/M C C
;
_chemical_formula_sum "Si O2"
_cell_formula_units_Z 112
_cell_length_a 18.163345
_cell_length_b 18.163345
_cell_length_c 13.937069
_cell_angle_alpha 90.000000
_cell_angle_beta 90.000000
_cell_angle_gamma 90.000000
_cell_volume 4597.938038
_symmetry_space_group_name_H-M "P 4/M C C"
_symmetry_group_IT_number 124
_symmetry_cell_setting 'tetragonal'
loop_
_space_group_symop_operation_xyz
x,y,z
-y,x,z
-x,-y,z
y,-x,z
x,-y,1/2-z
-x,y,1/2-z
y,x,1/2-z
-y,-x,1/2-z
-x,-y,-z
y,-x,-z
x,y,-z
-y,x,-z
-x,y,1/2+z
x,-y,1/2+z
-y,-x,1/2+z
y,x,1/2+z
loop_
_atom_site_type_symbol
_atom_site_label
_atom_site_fract_x
_atom_site_fract_y
_atom_site_fract_z
Si Si1 0.415604 0.748407 0.271242
Si Si2 0.069540 0.808163 0.110335
Si Si3 0.976098 0.420818 0.613650
Si Si4 0.605988 0.442500 0.112336
Si Si5 0.907295 0.804782 0.114034
Si Si6 0.348025 0.879335 0.389814
Si Si7 0.657088 0.170819 0.113316
O O1 0.500000 0.764263 0.250000
O O2 0.405892 0.669092 0.322367
O O3 0.386818 0.810896 0.341740
O O4 0.631887 0.755905 0.328032
O O5 0.117378 0.875561 0.152331
O O6 0.124371 0.739415 0.122787
O O7 0.989285 0.798647 0.159228
O O8 0.052355 0.823349 0.000000
O O9 0.974329 0.414895 0.500000
O O10 0.040801 0.368923 0.654421
O O11 0.000000 0.500000 0.651820
O O12 0.894630 0.397962 0.647440
O O13 0.598673 0.529497 0.137354
O O14 0.624872 0.433552 0.000000
O O15 0.855949 0.737375 0.148580
O O16 0.908329 0.799917 0.000000
O O17 0.373099 0.875980 0.500000
O O18 0.653306 0.188914 0.000000
#
# Coordination Sequence:
#
# PCOD8313281 Si02
#       7
#    16  16  16  16  16  16  16
#     4  12  26  41  65 104 140 170 222 289 342 408
#     4   9  17  33  60  91 128 176 233 295 362 434
#     4   9  16  30  57  82 115 176 235 278 333 416
#     4   9  21  49  85 110 135 178 222 267 337 418
#     4   9  17  34  60  91 128 180 238 294 362 430
#     4  10  20  38  61  90 130 174 222 288 362 425
#     4  10  21  40  61  88 135 190 233 278 349 422
#
# _framework density 24.358744999999999
#
# number of rings (size 3 to 8) (size 9 to 14) (size 15 to 20)
#    0.000    2.286    1.429    1.714    0.000    3.714 
#    5.143    3.571    0.000    0.857    0.000    1.000 
#    0.000    2.286    0.000    0.286    0.000    0.000 
#
# Total GULP energy -1388026.097416 kJ/mol
# GULP energy per Si atom -12393.090155 kJ/mol
# Density = 2.430330 g / cm^3
# Si number density = 24.358745 Si / 1000 Ang^3
#
#
#
# Elastic Constant Matrix: (Units=GPa)
#
#
# Indices 1 2 3 4 5 6 
#
# 1 124.5608 62.8976 42.9401 0.0000 0.0000 0.0000
# 2 62.8976 124.5608 42.9401 0.0000 0.0000 0.0000
# 3 42.9401 42.9401 94.3365 0.0000 0.0000 0.0000
# 4 0.0000 0.0000 0.0000 -13.7369 0.0000 0.0000
# 5 0.0000 0.0000 0.0000 0.0000 -13.7369 0.0000
# 6 0.0000 0.0000 0.0000 0.0000 0.0000 35.5787
#
#
#
# Elastic Compliance Matrix: (Units=1/GPa)
#
#
# Indices 1 2 3 4 5 6 
#
# 1 0.011479 -0.004739 -0.003068 0.000000 0.000000 0.000000
# 2 -0.004739 0.011479 -0.003068 0.000000 0.000000 0.000000
# 3 -0.003068 -0.003068 0.013393 0.000000 0.000000 0.000000
# 4 0.000000 0.000000 0.000000 -0.072796 0.000000 0.000000
# 5 0.000000 0.000000 0.000000 0.000000 -0.072796 0.000000
# 6 0.000000 0.000000 0.000000 0.000000 0.000000 0.028107
#
#
# Mechanical properties :
#
#
# Convention : Reuss Voigt Hill
#
# Bulk Modulus (GPa) = 68.48557 71.22374 69.85465
# Shear Modulus (GPa) = -91.70966 14.59966 -38.55500
#
# Velocity S-wave (km/s) = -6.14258 2.45084 -3.98276
# Velocity P-wave (km/s) = 4.70447 6.10834 2.75498
#
# Compressibility (1/GPa) = 0.01460162
#
# Stress axis : x y z
#
# Youngs Moduli (GPa) = 87.11883 87.11883 74.66443
#
# Poissons Ratio (x) = 0.41282 0.22906
# Poissons Ratio (y) = 0.41282 0.22906
# Poissons Ratio (z) = 0.26727 0.26727
#
# Static dielectric constant tensor:
#      x y z
#    x 4.477290 0.000000 0.000000 
#    y 0.000000 4.477290 0.000000 
#    z 0.000000 0.000000 4.302880 
# 
# 
# High freq. dielectric constant tensor:
#      x y z
#    x 1.965230 0.000000 0.000000 
#    y 0.000000 1.965230 0.000000 
#    z 0.000000 0.000000 1.968860 
# 
# From -- ./inp_files/5546.got.cif
#   From: 2010.03.12/outbox.cif.g09.slc.cpg/sg124_3_cif.got.tgz:5546.got - 2010.04.06 16:38:57.
