data_PCOD8313963
_publ_section_title
;
Structure prediction by ZEFSAII (Michael W. Deem and Ramdas Pophale) SiO2 
 PCOD8313963
Probable space group: P 4/M B M
;
_chemical_formula_sum "Si O2"
_cell_formula_units_Z 72
_cell_length_a 22.685846
_cell_length_b 22.685846
_cell_length_c 9.335321
_cell_angle_alpha 90.000000
_cell_angle_beta 90.000000
_cell_angle_gamma 90.000000
_cell_volume 4804.400629
_symmetry_space_group_name_H-M "P 4/M B M"
_symmetry_group_IT_number 127
_symmetry_cell_setting 'tetragonal'
loop_
_space_group_symop_operation_xyz
x,y,z
-y,x,z
-x,-y,z
y,-x,z
1/2+x,1/2-y,-z
1/2-x,1/2+y,-z
1/2+y,1/2+x,-z
1/2-y,1/2-x,-z
-x,-y,-z
y,-x,-z
x,y,-z
-y,x,-z
1/2-x,1/2+y,z
1/2+x,1/2-y,z
1/2-y,1/2-x,z
1/2+y,1/2+x,z
loop_
_atom_site_type_symbol
_atom_site_label
_atom_site_fract_x
_atom_site_fract_y
_atom_site_fract_z
Si Si1 0.334850 0.016467 0.666215
Si Si2 0.229960 0.633675 0.663966
Si Si3 0.289173 0.310050 0.161920
Si Si4 0.708199 0.111889 0.665745
Si Si5 0.549055 0.950946 0.166218
O O1 0.354500 0.017534 0.500000
O O2 0.305804 0.954760 0.709348
O O3 0.285978 0.066183 0.697000
O O4 0.391544 0.026367 0.762330
O O5 0.249041 0.642891 0.500000
O O6 0.172285 0.672285 0.699949
O O7 0.285421 0.652173 0.761466
O O8 0.240098 0.259903 0.169423
O O9 0.264654 0.367524 0.242897
O O10 0.305050 0.327470 0.000000
O O11 0.725362 0.117724 0.500000
O O12 0.650912 0.150912 0.702038
O O13 0.500000 0.000000 0.189614
O O14 0.561390 0.938611 0.000000
#
# Coordination Sequence:
#
# PCOD8313963 Si02
#       5
#    16  16  16  16   8
#     4  10  19  32  48  65  85 115 155 192 224 261
#     4   9  16  28  45  64  85 109 142 184 224 261
#     4   9  17  28  43  62  84 111 142 177 221 269
#     4   9  17  29  45  64  85 113 148 185 222 259
#     4  11  23  33  41  59  89 125 159 191 225 260
#
# _framework density 14.98626
#
# number of rings (size 3 to 8) (size 9 to 14) (size 15 to 20)
#    0.000    2.556    1.111    1.667    0.000    6.222 
#    0.000    2.222    0.000    0.000    0.000    0.000 
#    0.000    0.889    0.000   10.222    0.000    4.000 
#
# Total GULP energy -892884.810985 kJ/mol
# GULP energy per Si atom -12401.177930 kJ/mol
# Density = 1.495215 g / cm^3
# Si number density = 14.986260 Si / 1000 Ang^3
#
#
#
# Elastic Constant Matrix: (Units=GPa)
#
#
# Indices 1 2 3 4 5 6 
#
# 1 70.3472 77.5371 58.1472 0.0000 0.0000 0.0000
# 2 77.5371 70.3481 58.1472 0.0000 0.0000 0.0000
# 3 58.1472 58.1472 96.8625 0.0000 0.0000 0.0000
# 4 0.0000 0.0000 0.0000 15.7488 0.0000 0.0000
# 5 0.0000 0.0000 0.0000 0.0000 15.7488 0.0000
# 6 0.0000 0.0000 0.0000 0.0000 0.0000 20.6365
#
#
#
# Elastic Compliance Matrix: (Units=1/GPa)
#
#
# Indices 1 2 3 4 5 6 
#
# 1 -0.063143 0.075951 -0.007689 0.000000 0.000000 0.000000
# 2 0.075951 -0.063141 -0.007690 0.000000 0.000000 0.000000
# 3 -0.007689 -0.007690 0.019556 0.000000 0.000000 0.000000
# 4 0.000000 0.000000 0.000000 0.063497 0.000000 0.000000
# 5 0.000000 0.000000 0.000000 0.000000 0.063497 0.000000
# 6 0.000000 0.000000 0.000000 0.000000 0.000000 0.048458
#
#
# Mechanical properties :
#
#
# Convention : Reuss Voigt Hill
#
# Bulk Modulus (GPa) = 69.36550 69.46898 69.41724
# Shear Modulus (GPa) = -105.00687 13.34191 -45.83248
#
# Velocity S-wave (km/s) = -8.37979 2.98699 -5.53619
# Velocity P-wave (km/s) = 6.87323 7.63884 2.35697
#
# Compressibility (1/GPa) = 0.01441639
#
# Stress axis : x y z
#
# Youngs Moduli (GPa) = -15.83713 -15.83754 51.13639
#
# Poissons Ratio (x) = 1.20287 0.39317
# Poissons Ratio (y) = 1.20284 0.39322
# Poissons Ratio (z) = -0.12177 -0.12178
#
# Static dielectric constant tensor:
#      x y z
#    x 2.783860 0.000000 0.000000 
#    y 0.000000 2.783860 0.000000 
#    z 0.000000 0.000000 2.990280 
# 
# 
# High freq. dielectric constant tensor:
#      x y z
#    x 1.552080 0.000000 0.000000 
#    y 0.000000 1.552080 0.000000 
#    z 0.000000 0.000000 1.580500 
# 
# From -- ./inp_files/1565.got.cif
#   From: 2010.03.12/outbox.cif.g09.slc.cpg/sg127_1_cif.got.tgz:1565.got - 2010.04.06 17:03:15.
