data_PCOD8313175
_publ_section_title
;
Structure prediction by ZEFSAII (Michael W. Deem and Ramdas Pophale) SiO2 
 PCOD8313175
Probable space group: P 4/M C C
;
_chemical_formula_sum "Si O2"
_cell_formula_units_Z 80
_cell_length_a 15.398966
_cell_length_b 15.398966
_cell_length_c 12.912016
_cell_angle_alpha 90.000000
_cell_angle_beta 90.000000
_cell_angle_gamma 90.000000
_cell_volume 3061.802517
_symmetry_space_group_name_H-M "P 4/M C C"
_symmetry_group_IT_number 124
_symmetry_cell_setting 'tetragonal'
loop_
_space_group_symop_operation_xyz
x,y,z
-y,x,z
-x,-y,z
y,-x,z
x,-y,1/2-z
-x,y,1/2-z
y,x,1/2-z
-y,-x,1/2-z
-x,-y,-z
y,-x,-z
x,y,-z
-y,x,-z
-x,y,1/2+z
x,-y,1/2+z
-y,-x,1/2+z
y,x,1/2+z
loop_
_atom_site_type_symbol
_atom_site_label
_atom_site_fract_x
_atom_site_fract_y
_atom_site_fract_z
Si Si1 0.958374 0.767162 0.387693
Si Si2 0.289159 0.352385 0.876449
Si Si3 0.785223 0.851299 0.375370
Si Si4 0.543913 0.247634 0.623795
Si Si5 0.576115 0.052767 0.354134
O O1 0.964547 0.814102 0.500000
O O2 0.873318 0.806369 0.329720
O O3 0.945147 0.666119 0.414557
O O4 0.050450 0.780351 0.328215
O O5 0.204230 0.298342 0.839487
O O6 0.375807 0.305244 0.831552
O O7 0.285034 0.451633 0.835145
O O8 0.294424 0.353450 0.000000
O O9 0.786765 0.853387 0.500000
O O10 0.547544 0.246560 0.500000
O O11 0.547904 0.150816 0.667026
O O12 0.500000 0.000000 0.415879
O O13 0.592027 0.000000 0.250000
#
# Coordination Sequence:
#
# PCOD8313175 Si02
#       5
#    16  16  16  16  16
#     4  10  19  34  57  81 111 149 190 242 300 356
#     4   9  17  30  52  87 123 156 197 242 300 361
#     4   9  17  30  51  82 114 145 190 240 290 354
#     4  10  19  34  59  88 123 161 198 250 305 359
#     4  11  23  37  55  80 117 149 202 251 289 352
#
# _framework density 26.128401
#
# number of rings (size 3 to 8) (size 9 to 14) (size 15 to 20)
#    0.000    2.200    2.000    1.800    0.000    4.000 
#    0.000    5.000    4.400    0.000    0.000    1.400 
#    0.000    7.200    0.000    0.000    0.000    0.000 
#
# Total GULP energy -991760.129052 kJ/mol
# GULP energy per Si atom -12397.001613 kJ/mol
# Density = 2.606893 g / cm^3
# Si number density = 26.128401 Si / 1000 Ang^3
#
#
#
# Elastic Constant Matrix: (Units=GPa)
#
#
# Indices 1 2 3 4 5 6 
#
# 1 241.5233 126.5475 17.7286 0.0000 0.0000 0.0000
# 2 126.5475 241.5233 17.7286 0.0000 0.0000 0.0000
# 3 17.7286 17.7286 22.9284 0.0000 0.0000 0.0000
# 4 0.0000 0.0000 0.0000 3.1492 0.0000 0.0000
# 5 0.0000 0.0000 0.0000 0.0000 3.1492 0.0000
# 6 0.0000 0.0000 0.0000 0.0000 0.0000 54.6999
#
#
#
# Elastic Compliance Matrix: (Units=1/GPa)
#
#
# Indices 1 2 3 4 5 6 
#
# 1 0.005817 -0.002881 -0.002270 0.000000 0.000000 0.000000
# 2 -0.002881 0.005817 -0.002270 0.000000 0.000000 0.000000
# 3 -0.002270 -0.002270 0.047124 0.000000 0.000000 0.000000
# 4 0.000000 0.000000 0.000000 0.317545 0.000000 0.000000
# 5 0.000000 0.000000 0.000000 0.000000 0.317545 0.000000
# 6 0.000000 0.000000 0.000000 0.000000 0.000000 0.018282
#
#
# Mechanical properties :
#
#
# Convention : Reuss Voigt Hill
#
# Bulk Modulus (GPa) = 22.77073 92.22048 57.49560
# Shear Modulus (GPa) = 6.74209 35.13098 20.93654
#
# Velocity S-wave (km/s) = 1.60810 3.67079 2.83379
# Velocity P-wave (km/s) = 3.49025 7.30329 5.72363
#
# Compressibility (1/GPa) = 0.04391603
#
# Stress axis : x y z
#
# Youngs Moduli (GPa) = 171.92459 171.92459 21.22053
#
# Poissons Ratio (x) = 0.49531 0.04817
# Poissons Ratio (y) = 0.49531 0.04817
# Poissons Ratio (z) = 0.39023 0.39023
#
# Static dielectric constant tensor:
#      x y z
#    x 4.992940 0.000000 0.000000 
#    y 0.000000 4.992940 0.000000 
#    z 0.000000 0.000000 4.562300 
# 
# 
# High freq. dielectric constant tensor:
#      x y z
#    x 2.044510 0.000000 0.000000 
#    y 0.000000 2.044510 0.000000 
#    z 0.000000 0.000000 2.089960 
# 
# From -- ./inp_files/5056.got.cif
#   From: 2010.03.12/outbox.cif.g09.slc.cpg/sg124_3_cif.got.tgz:5056.got - 2010.04.06 16:38:57.
