data_PCOD8313922
_publ_section_title
;
Structure prediction by ZEFSAII (Michael W. Deem and Ramdas Pophale) SiO2 
 PCOD8313922
Probable space group: P 4/M B M
;
_chemical_formula_sum "Si O2"
_cell_formula_units_Z 120
_cell_length_a 28.070830
_cell_length_b 28.070830
_cell_length_c 9.022409
_cell_angle_alpha 90.000000
_cell_angle_beta 90.000000
_cell_angle_gamma 90.000000
_cell_volume 7109.401125
_symmetry_space_group_name_H-M "P 4/M B M"
_symmetry_group_IT_number 127
_symmetry_cell_setting 'tetragonal'
loop_
_space_group_symop_operation_xyz
x,y,z
-y,x,z
-x,-y,z
y,-x,z
1/2+x,1/2-y,-z
1/2-x,1/2+y,-z
1/2+y,1/2+x,-z
1/2-y,1/2-x,-z
-x,-y,-z
y,-x,-z
x,y,-z
-y,x,-z
1/2-x,1/2+y,z
1/2+x,1/2-y,z
1/2-y,1/2-x,z
1/2+y,1/2+x,z
loop_
_atom_site_type_symbol
_atom_site_label
_atom_site_fract_x
_atom_site_fract_y
_atom_site_fract_z
Si Si1 0.152344 0.933074 0.170971
Si Si2 0.459956 0.959956 0.667705
Si Si3 0.973001 0.393113 0.829833
Si Si4 0.972706 0.203819 0.176896
Si Si5 0.442058 0.202461 0.673325
Si Si6 0.762141 0.338425 0.327945
Si Si7 0.433138 0.460633 0.338070
Si Si8 0.669656 0.369215 0.824053
O O1 0.097096 0.942862 0.199991
O O2 0.157549 0.878778 0.233706
O O3 0.181902 0.977363 0.241840
O O4 0.164232 0.932675 0.000000
O O5 0.445634 0.945634 0.500000
O O6 0.479311 0.914057 0.755358
O O7 0.500000 0.000000 0.664487
O O8 0.930508 0.430508 0.818424
O O9 0.958465 0.347077 0.739288
O O10 0.984037 0.380155 0.000000
O O11 0.971038 0.256195 0.244882
O O12 0.925144 0.174187 0.227742
O O13 0.974224 0.206826 0.000000
O O14 0.453831 0.204169 0.500000
O O15 0.385985 0.207850 0.704380
O O16 0.749304 0.334593 0.500000
O O17 0.793744 0.293744 0.274879
O O18 0.713081 0.338201 0.238014
O O19 0.483276 0.435976 0.323318
O O20 0.410720 0.447937 0.500000
O O21 0.671350 0.367991 0.000000
#
# Coordination Sequence:
#
# PCOD8313922 Si02
#       8
#    16   8  16  16  16  16  16  16
#     4  10  19  31  48  68  91 122 157 195 236 280
#     4   9  17  29  45  67  97 131 165 197 225 261
#     4  10  19  30  46  70 100 132 163 194 232 279
#     4   9  18  32  47  66  95 125 155 197 242 287
#     4  10  19  31  48  70  96 126 160 197 238 288
#     4   9  18  32  49  70  96 124 154 191 238 290
#     4   9  18  30  42  60  88 120 154 192 232 274
#     4   9  18  31  47  70  96 122 156 193 236 286
#
# _framework density 16.879059999999999
#
# number of rings (size 3 to 8) (size 9 to 14) (size 15 to 20)
#    0.000    2.600    0.000    2.600    0.000    5.600 
#    0.000    3.333    0.000    0.000    1.733    0.000 
#    0.000    0.000    0.000    0.000    0.000    0.000 
#
# Total GULP energy -1486940.639140 kJ/mol
# GULP energy per Si atom -12391.171993 kJ/mol
# Density = 1.684064 g / cm^3
# Si number density = 16.879060 Si / 1000 Ang^3
#
#
#
# Elastic Constant Matrix: (Units=GPa)
#
#
# Indices 1 2 3 4 5 6 
#
# 1 77.5518 59.8522 20.8773 0.0000 0.0000 0.0000
# 2 59.8522 77.5518 20.8773 0.0000 0.0000 0.0000
# 3 20.8773 20.8773 20.5288 0.0000 0.0000 0.0000
# 4 0.0000 0.0000 0.0000 24.9310 0.0000 0.0000
# 5 0.0000 0.0000 0.0000 0.0000 24.9310 0.0000
# 6 0.0000 0.0000 0.0000 0.0000 0.0000 21.1782
#
#
#
# Elastic Compliance Matrix: (Units=1/GPa)
#
#
# Indices 1 2 3 4 5 6 
#
# 1 0.033516 -0.022983 -0.010712 0.000000 0.000000 0.000000
# 2 -0.022983 0.033516 -0.010712 0.000000 0.000000 0.000000
# 3 -0.010712 -0.010712 0.070499 0.000000 0.000000 0.000000
# 4 0.000000 0.000000 0.000000 0.040111 0.000000 0.000000
# 5 0.000000 0.000000 0.000000 0.000000 0.040111 0.000000
# 6 0.000000 0.000000 0.000000 0.000000 0.000000 0.047218
#
#
# Mechanical properties :
#
#
# Convention : Reuss Voigt Hill
#
# Bulk Modulus (GPa) = 20.52622 42.09396 31.31009
# Shear Modulus (GPa) = 13.51272 19.14309 16.32790
#
# Velocity S-wave (km/s) = 2.83249 3.37134 3.11359
# Velocity P-wave (km/s) = 4.78377 6.33619 5.61390
#
# Compressibility (1/GPa) = 0.04871818
#
# Stress axis : x y z
#
# Youngs Moduli (GPa) = 29.83681 29.83681 14.18457
#
# Poissons Ratio (x) = 0.68573 0.15194
# Poissons Ratio (y) = 0.68573 0.15194
# Poissons Ratio (z) = 0.31960 0.31960
#
# Static dielectric constant tensor:
#      x y z
#    x 3.175190 0.000000 0.000000 
#    y 0.000000 3.175190 0.000000 
#    z 0.000000 0.000000 3.190780 
# 
# 
# High freq. dielectric constant tensor:
#      x y z
#    x 1.636340 0.000000 0.000000 
#    y 0.000000 1.636340 0.000000 
#    z 0.000000 0.000000 1.651490 
# 
# From -- ./inp_files/2416.got.cif
#   From: 2010.03.12/outbox.cif.g09.slc.cpg/sg127_2_cif.got.tgz:2416.got - 2010.04.06 17:03:15.
