data_PCOD8313157
_publ_section_title
;
Structure prediction by ZEFSAII (Michael W. Deem and Ramdas Pophale) SiO2 
 PCOD8313157
Probable space group: P 4/M C C
;
_chemical_formula_sum "Si O2"
_cell_formula_units_Z 96
_cell_length_a 17.294580
_cell_length_b 17.294580
_cell_length_c 17.526482
_cell_angle_alpha 90.000000
_cell_angle_beta 90.000000
_cell_angle_gamma 90.000000
_cell_volume 5242.214536
_symmetry_space_group_name_H-M "P 4/M C C"
_symmetry_group_IT_number 124
_symmetry_cell_setting 'tetragonal'
loop_
_space_group_symop_operation_xyz
x,y,z
-y,x,z
-x,-y,z
y,-x,z
x,-y,1/2-z
-x,y,1/2-z
y,x,1/2-z
-y,-x,1/2-z
-x,-y,-z
y,-x,-z
x,y,-z
-y,x,-z
-x,y,1/2+z
x,-y,1/2+z
-y,-x,1/2+z
y,x,1/2+z
loop_
_atom_site_type_symbol
_atom_site_label
_atom_site_fract_x
_atom_site_fract_y
_atom_site_fract_z
Si Si1 0.179538 0.569176 0.911946
Si Si2 0.972370 0.200568 0.413186
Si Si3 0.995670 0.379621 0.084878
Si Si4 0.440227 0.872424 0.815763
Si Si5 0.877519 0.160754 0.830592
Si Si6 0.682874 0.206328 0.287857
O O1 0.183997 0.481528 0.878748
O O2 0.230279 0.626423 0.858259
O O3 0.093327 0.601777 0.901240
O O4 0.207645 0.571599 0.000000
O O5 0.980062 0.173608 0.500000
O O6 0.988151 0.290266 0.403686
O O7 0.886197 0.181660 0.384364
O O8 0.037147 0.155850 0.365196
O O9 0.045680 0.425514 0.145373
O O10 0.020391 0.406196 0.000000
O O11 0.500000 0.890106 0.750000
O O12 0.362490 0.836406 0.780860
O O13 0.882045 0.117956 0.750000
O O14 0.847465 0.248340 0.819994
O O15 0.715854 0.284147 0.250000
#
# Coordination Sequence:
#
# PCOD8313157 Si02
#       6
#    16  16  16  16  16  16
#     4  10  20  35  55  79 114 148 180 226 282 340
#     4  11  23  38  57  76 103 144 193 247 297 347
#     4  10  19  33  51  77 109 142 180 225 283 344
#     4  10  21  34  52  81 109 141 182 226 276 339
#     4  11  22  38  55  77 102 139 190 251 300 339
#     4  10  21  37  55  79 112 149 189 229 279 342
#
# _framework density 18.312871000000001
#
# number of rings (size 3 to 8) (size 9 to 14) (size 15 to 20)
#    0.000    1.667    1.667    4.000    0.000    7.000 
#    0.000    3.333    0.000    0.000    0.000    0.000 
#    0.000   27.000    0.000   13.500    0.000    0.000 
#
# Total GULP energy -1190209.151152 kJ/mol
# GULP energy per Si atom -12398.011991 kJ/mol
# Density = 1.827119 g / cm^3
# Si number density = 18.312871 Si / 1000 Ang^3
#
#
#
# Elastic Constant Matrix: (Units=GPa)
#
#
# Indices 1 2 3 4 5 6 
#
# 1 70.3663 30.8923 39.0109 0.0000 0.0000 0.0000
# 2 30.8923 70.3661 39.0107 0.0000 0.0000 0.0000
# 3 39.0109 39.0107 125.0623 0.0000 0.0000 0.0000
# 4 0.0000 0.0000 0.0000 25.4948 0.0000 0.0000
# 5 0.0000 0.0000 0.0000 0.0000 25.4959 0.0000
# 6 0.0000 0.0000 0.0000 0.0000 0.0000 12.9394
#
#
#
# Elastic Compliance Matrix: (Units=1/GPa)
#
#
# Indices 1 2 3 4 5 6 
#
# 1 0.019167 -0.006166 -0.004055 0.000000 0.000000 0.000000
# 2 -0.006166 0.019167 -0.004055 0.000000 0.000000 0.000000
# 3 -0.004055 -0.004055 0.010526 0.000000 0.000000 0.000000
# 4 0.000000 0.000000 0.000000 0.039224 0.000000 0.000000
# 5 0.000000 0.000000 0.000000 0.000000 0.039222 0.000000
# 6 0.000000 0.000000 0.000000 0.000000 0.000000 0.077284
#
#
# Mechanical properties :
#
#
# Convention : Reuss Voigt Hill
#
# Bulk Modulus (GPa) = 49.24717 53.73584 51.49150
# Shear Modulus (GPa) = 20.84107 23.24473 22.04290
#
# Velocity S-wave (km/s) = 3.37717 3.56660 3.47318
# Velocity P-wave (km/s) = 6.49288 6.80939 6.65302
#
# Compressibility (1/GPa) = 0.02030573
#
# Stress axis : x y z
#
# Youngs Moduli (GPa) = 52.17366 52.17360 95.00375
#
# Poissons Ratio (x) = 0.32173 0.38526
# Poissons Ratio (y) = 0.32173 0.38526
# Poissons Ratio (z) = 0.21158 0.21157
#
# Static dielectric constant tensor:
#      x y z
#    x 3.313950 0.000000 0.000000 
#    y 0.000000 3.313960 0.000000 
#    z 0.000000 0.000000 3.929430 
# 
# 
# High freq. dielectric constant tensor:
#      x y z
#    x 1.687570 0.000000 0.000000 
#    y 0.000000 1.687570 0.000000 
#    z 0.000000 0.000000 1.735270 
# 
# From -- ./inp_files/4247.got.cif
#   From: 2010.03.12/outbox.cif.g09.slc.cpg/sg124_3_cif.got.tgz:4247.got - 2010.04.06 16:38:57.
