data_PCOD8313738
_publ_section_title
;
Structure prediction by ZEFSAII (Michael W. Deem and Ramdas Pophale) SiO2 
 PCOD8313738
Probable space group: P 4/N N C
;
_chemical_formula_sum "Si O2"
_cell_formula_units_Z 96
_cell_length_a 25.156203
_cell_length_b 25.156203
_cell_length_c 7.726689
_cell_angle_alpha 90.000000
_cell_angle_beta 90.000000
_cell_angle_gamma 90.000000
_cell_volume 4889.715751
_symmetry_space_group_name_H-M "P 4/N N C"
_symmetry_group_IT_number 126
_space_group.IT_coordinate_system_code '2'
_symmetry_cell_setting 'tetragonal'
loop_
_space_group_symop_operation_xyz
x,y,z
1/2-y,x,z
1/2-x,1/2-y,z
y,1/2-x,z
x,1/2-y,1/2-z
1/2-x,y,1/2-z
y,x,1/2-z
1/2-y,1/2-x,1/2-z
-x,-y,-z
1/2+y,-x,-z
1/2+x,1/2+y,-z
-y,1/2+x,-z
-x,1/2+y,1/2+z
1/2+x,-y,1/2+z
-y,-x,1/2+z
1/2+y,1/2+x,1/2+z
loop_
_atom_site_type_symbol
_atom_site_label
_atom_site_fract_x
_atom_site_fract_y
_atom_site_fract_z
Si Si1 0.440477 0.864578 0.450585
Si Si2 0.801262 0.817138 0.450135
Si Si3 0.638010 0.446617 0.046802
Si Si4 0.702195 0.582402 0.642746
Si Si5 0.019021 0.754345 0.051598
Si Si6 0.394869 0.481200 0.249511
O O1 0.457470 0.873155 0.249634
O O2 0.381934 0.887423 0.494097
O O3 0.438773 0.801337 0.487121
O O4 0.483123 0.892789 0.576573
O O5 0.739680 0.822926 0.509899
O O6 0.815625 0.815625 0.250000
O O7 0.826832 0.870126 0.533564
O O8 0.699451 0.454009 0.988992
O O9 0.603210 0.485788 0.928408
O O10 0.750000 0.608628 0.750000
O O11 0.731691 0.536846 0.533736
O O12 0.656064 0.557435 0.759431
O O13 0.004516 0.750000 0.250000
O O14 0.449343 0.449343 0.250000
#
# Coordination Sequence:
#
# PCOD8313738 Si02
#       6
#    16  16  16  16  16  16
#     4  10  22  40  64  93 119 168 202 241 311 360
#     4   9  21  39  57  79 112 153 197 252 317 376
#     4  11  20  42  65  88 128 158 204 250 298 367
#     4  11  22  37  61  86 114 151 205 257 307 354
#     4   9  21  38  62  90 118 156 201 242 293 365
#     4  11  25  41  58  90 123 159 205 255 308 360
#
# _framework density 19.633044000000002
#
# number of rings (size 3 to 8) (size 9 to 14) (size 15 to 20)
#    0.000    1.833    3.333    0.500    4.667    1.333 
#    6.000    0.833    0.000    0.500    0.000    3.500 
#    0.000    0.000    0.000    0.000    0.000    0.000 
#
# Total GULP energy -1189358.707361 kJ/mol
# GULP energy per Si atom -12389.153202 kJ/mol
# Density = 1.958836 g / cm^3
# Si number density = 19.633044 Si / 1000 Ang^3
#
#
#
# Elastic Constant Matrix: (Units=GPa)
#
#
# Indices 1 2 3 4 5 6 
#
# 1 73.4216 37.4608 45.6174 0.0000 0.0000 0.0000
# 2 37.4608 73.4216 45.6174 0.0000 0.0000 0.0000
# 3 45.6174 45.6174 98.6917 0.0000 0.0000 0.0000
# 4 0.0000 0.0000 0.0000 27.6611 0.0000 0.0000
# 5 0.0000 0.0000 0.0000 0.0000 27.6611 0.0000
# 6 0.0000 0.0000 0.0000 0.0000 0.0000 19.0562
#
#
#
# Elastic Compliance Matrix: (Units=1/GPa)
#
#
# Indices 1 2 3 4 5 6 
#
# 1 0.021181 -0.006627 -0.006727 0.000000 0.000000 0.000000
# 2 -0.006627 0.021181 -0.006727 0.000000 0.000000 0.000000
# 3 -0.006727 -0.006727 0.016351 0.000000 0.000000 0.000000
# 4 0.000000 0.000000 0.000000 0.036152 0.000000 0.000000
# 5 0.000000 0.000000 0.000000 0.000000 0.036152 0.000000
# 6 0.000000 0.000000 0.000000 0.000000 0.000000 0.052476
#
#
# Mechanical properties :
#
#
# Convention : Reuss Voigt Hill
#
# Bulk Modulus (GPa) = 53.90688 55.88069 54.89379
# Shear Modulus (GPa) = 21.75435 22.66494 22.20965
#
# Velocity S-wave (km/s) = 3.33235 3.40137 3.36704
# Velocity P-wave (km/s) = 6.50560 6.62949 6.56784
#
# Compressibility (1/GPa) = 0.01855051
#
# Stress axis : x y z
#
# Youngs Moduli (GPa) = 47.21253 47.21253 61.15738
#
# Poissons Ratio (x) = 0.31289 0.41140
# Poissons Ratio (y) = 0.31289 0.41140
# Poissons Ratio (z) = 0.31760 0.31760
#
# Static dielectric constant tensor:
#      x y z
#    x 3.657560 0.000000 0.000000 
#    y 0.000000 3.657560 0.000000 
#    z 0.000000 0.000000 3.724980 
# 
# 
# High freq. dielectric constant tensor:
#      x y z
#    x 1.754620 0.000000 0.000000 
#    y 0.000000 1.754620 0.000000 
#    z 0.000000 0.000000 1.778710 
# 
# From -- ./inp_files/1721.got.cif
#   From: 2010.03.12/outbox.cif.g09.slc.cpg/sg126_1_cif.got.tgz:1721.got - 2010.04.06 16:55:23.
