data_PCOD8313772
_publ_section_title
;
Structure prediction by ZEFSAII (Michael W. Deem and Ramdas Pophale) SiO2 
 PCOD8313772
Probable space group: P 4/N N C
;
_chemical_formula_sum "Si O2"
_cell_formula_units_Z 116
_cell_length_a 17.415404
_cell_length_b 17.415404
_cell_length_c 19.270672
_cell_angle_alpha 90.000000
_cell_angle_beta 90.000000
_cell_angle_gamma 90.000000
_cell_volume 5844.723448
_symmetry_space_group_name_H-M "P 4/N N C"
_symmetry_group_IT_number 126
_space_group.IT_coordinate_system_code '2'
_symmetry_cell_setting 'tetragonal'
loop_
_space_group_symop_operation_xyz
x,y,z
1/2-y,x,z
1/2-x,1/2-y,z
y,1/2-x,z
x,1/2-y,1/2-z
1/2-x,y,1/2-z
y,x,1/2-z
1/2-y,1/2-x,1/2-z
-x,-y,-z
1/2+y,-x,-z
1/2+x,1/2+y,-z
-y,1/2+x,-z
-x,1/2+y,1/2+z
1/2+x,-y,1/2+z
-y,-x,1/2+z
1/2+y,1/2+x,1/2+z
loop_
_atom_site_type_symbol
_atom_site_label
_atom_site_fract_x
_atom_site_fract_y
_atom_site_fract_z
Si Si1 0.221156 0.369860 0.586146
Si Si2 0.250000 0.750000 0.250000
Si Si3 0.374691 0.253303 0.427001
Si Si4 0.809441 0.359589 0.013222
Si Si5 0.131593 0.830097 0.658890
Si Si6 0.669304 0.946267 0.285161
Si Si7 0.693601 0.035448 0.889768
Si Si8 0.575575 0.045828 0.768822
O O1 0.159539 0.304967 0.605111
O O2 0.228887 0.394012 0.506696
O O3 0.191092 0.438579 0.633616
O O4 0.311683 0.795479 0.295031
O O5 0.323494 0.327054 0.406575
O O6 0.456388 0.242784 0.390271
O O7 0.832108 0.434081 0.966225
O O8 0.848556 0.282603 0.982188
O O9 0.843117 0.376971 0.090060
O O10 0.101658 0.746637 0.639351
O O11 0.066013 0.873223 0.702073
O O12 0.750000 0.962592 0.250000
O O13 0.627233 0.872767 0.250000
O O14 0.617116 0.020431 0.281359
O O15 0.621794 0.026980 0.838753
O O16 0.531050 0.968951 0.750000
#
# Coordination Sequence:
#
# PCOD8313772 Si02
#       8
#    16   4  16  16  16  16  16  16
#     4   9  17  34  59  86 119 155 206 256 296 352
#     4  12  20  40  70  96 116 162 228 260 320 368
#     4   9  21  40  65  93 116 154 212 271 318 375
#     4   9  20  38  65  99 126 154 213 270 301 372
#     4  11  23  41  68  93 123 166 215 261 316 379
#     4  11  22  34  56  88 127 171 210 245 299 372
#     4  11  22  43  68  91 122 168 209 259 338 376
#     4  11  27  43  56  91 134 170 209 258 315 390
#
# _framework density 19.846961
#
# number of rings (size 3 to 8) (size 9 to 14) (size 15 to 20)
#    0.000    1.793    2.759    2.483    2.897    3.448 
#    2.483    0.690    0.000    0.000    0.000    0.000 
#    0.000    0.000    0.000    0.000    0.000    0.000 
#
# Total GULP energy -1437513.047956 kJ/mol
# GULP energy per Si atom -12392.353862 kJ/mol
# Density = 1.980179 g / cm^3
# Si number density = 19.846961 Si / 1000 Ang^3
#
#
#
# Elastic Constant Matrix: (Units=GPa)
#
#
# Indices 1 2 3 4 5 6 
#
# 1 78.8053 20.7538 42.3271 0.0000 0.0000 0.0000
# 2 20.7538 78.8062 42.3267 0.0000 0.0000 0.0000
# 3 42.3271 42.3267 103.0035 0.0000 0.0000 0.0000
# 4 0.0000 0.0000 0.0000 13.1333 0.0000 0.0000
# 5 0.0000 0.0000 0.0000 0.0000 13.1322 0.0000
# 6 0.0000 0.0000 0.0000 0.0000 0.0000 29.9008
#
#
#
# Elastic Compliance Matrix: (Units=1/GPa)
#
#
# Indices 1 2 3 4 5 6 
#
# 1 0.016332 -0.000894 -0.006344 0.000000 0.000000 0.000000
# 2 -0.000894 0.016332 -0.006344 0.000000 0.000000 0.000000
# 3 -0.006344 -0.006344 0.014922 0.000000 0.000000 0.000000
# 4 0.000000 0.000000 0.000000 0.076142 0.000000 0.000000
# 5 0.000000 0.000000 0.000000 0.000000 0.076149 0.000000
# 6 0.000000 0.000000 0.000000 0.000000 0.000000 0.033444
#
#
# Mechanical properties :
#
#
# Convention : Reuss Voigt Hill
#
# Bulk Modulus (GPa) = 48.96447 52.38113 50.67280
# Shear Modulus (GPa) = 18.70604 21.58041 20.14323
#
# Velocity S-wave (km/s) = 3.07337 3.30106 3.18925
# Velocity P-wave (km/s) = 6.10890 6.40150 6.25691
#
# Compressibility (1/GPa) = 0.02042297
#
# Stress axis : x y z
#
# Youngs Moduli (GPa) = 61.22796 61.22915 67.01359
#
# Poissons Ratio (x) = 0.05472 0.42515
# Poissons Ratio (y) = 0.05472 0.42514
# Poissons Ratio (z) = 0.38844 0.38844
#
# Static dielectric constant tensor:
#      x y z
#    x 3.679060 0.000000 0.000000 
#    y 0.000000 3.678990 0.000000 
#    z 0.000000 0.000000 3.750660 
# 
# 
# High freq. dielectric constant tensor:
#      x y z
#    x 1.767640 0.000000 0.000000 
#    y 0.000000 1.767640 0.000000 
#    z 0.000000 0.000000 1.777110 
# 
# From -- ./inp_files/4625.got.cif
#   From: 2010.03.12/outbox.cif.g09.slc.cpg/sg126_3_cif.got.tgz:4625.got - 2010.04.06 16:55:23.
