data_PCOD8313793
_publ_section_title
;
Structure prediction by ZEFSAII (Michael W. Deem and Ramdas Pophale) SiO2 
 PCOD8313793
Probable space group: P 4/N N C
;
_chemical_formula_sum "Si O2"
_cell_formula_units_Z 112
_cell_length_a 14.172466
_cell_length_b 14.172466
_cell_length_c 24.545813
_cell_angle_alpha 90.000000
_cell_angle_beta 90.000000
_cell_angle_gamma 90.000000
_cell_volume 4930.242361
_symmetry_space_group_name_H-M "P 4/N N C"
_symmetry_group_IT_number 126
_space_group.IT_coordinate_system_code '2'
_symmetry_cell_setting 'tetragonal'
loop_
_space_group_symop_operation_xyz
x,y,z
1/2-y,x,z
1/2-x,1/2-y,z
y,1/2-x,z
x,1/2-y,1/2-z
1/2-x,y,1/2-z
y,x,1/2-z
1/2-y,1/2-x,1/2-z
-x,-y,-z
1/2+y,-x,-z
1/2+x,1/2+y,-z
-y,1/2+x,-z
-x,1/2+y,1/2+z
1/2+x,-y,1/2+z
-y,-x,1/2+z
1/2+y,1/2+x,1/2+z
loop_
_atom_site_type_symbol
_atom_site_label
_atom_site_fract_x
_atom_site_fract_y
_atom_site_fract_z
Si Si1 0.658962 0.315875 0.631657
Si Si2 0.166373 0.455446 0.783061
Si Si3 0.982422 0.819161 0.892468
Si Si4 0.114833 0.643956 0.747387
Si Si5 0.121080 0.483774 0.342930
Si Si6 0.482003 0.657865 0.106184
Si Si7 0.389233 0.317878 0.992732
O O1 0.750000 0.250000 0.643263
O O2 0.683587 0.405196 0.592973
O O3 0.619111 0.375464 0.683853
O O4 0.576767 0.255164 0.604127
O O5 0.250000 0.402988 0.750000
O O6 0.070816 0.429185 0.750000
O O7 0.180796 0.569980 0.780817
O O8 0.164796 0.434163 0.847286
O O9 0.950465 0.721330 0.865744
O O10 0.953596 0.899317 0.848317
O O11 0.925397 0.839591 0.947139
O O12 0.154278 0.750000 0.750000
O O13 0.013874 0.634640 0.778965
O O14 0.085479 0.570536 0.380387
O O15 0.533454 0.642387 0.049183
O O16 0.293084 0.374824 0.983450
#
# Coordination Sequence:
#
# PCOD8313793 Si02
#       7
#    16  16  16  16  16  16  16
#     4  12  24  45  72 108 151 188 237 303 375 441
#     4  11  25  40  63  95 140 187 227 285 361 428
#     4  12  25  48  75 102 142 192 247 311 368 445
#     4  11  23  39  67 103 141 185 232 287 357 439
#     4  11  26  43  71 108 143 190 248 299 380 441
#     4  11  26  44  68 110 141 185 249 305 365 456
#     4  11  27  49  75 101 141 198 250 305 378 446
#
# _framework density 22.716934999999999
#
# number of rings (size 3 to 8) (size 9 to 14) (size 15 to 20)
#    0.000    0.714    5.714    0.857    8.000    2.143 
#    0.000    0.000    0.000    0.000    0.000    0.000 
#    0.000    0.000    0.000    0.000    0.000    0.000 
#
# Total GULP energy -1387721.764674 kJ/mol
# GULP energy per Si atom -12390.372899 kJ/mol
# Density = 2.266523 g / cm^3
# Si number density = 22.716935 Si / 1000 Ang^3
#
#
#
# Elastic Constant Matrix: (Units=GPa)
#
#
# Indices 1 2 3 4 5 6 
#
# 1 100.3000 33.3525 22.7343 0.0000 0.0000 0.0000
# 2 33.3525 100.2986 22.7343 0.0000 0.0000 0.0000
# 3 22.7343 22.7343 84.8351 0.0000 0.0000 0.0000
# 4 0.0000 0.0000 0.0000 30.8142 0.0000 0.0000
# 5 0.0000 0.0000 0.0000 0.0000 30.8143 0.0000
# 6 0.0000 0.0000 0.0000 0.0000 0.0000 28.8909
#
#
#
# Elastic Compliance Matrix: (Units=1/GPa)
#
#
# Indices 1 2 3 4 5 6 
#
# 1 0.011585 -0.003352 -0.002206 0.000000 0.000000 0.000000
# 2 -0.003352 0.011585 -0.002206 0.000000 0.000000 0.000000
# 3 -0.002206 -0.002206 0.012970 0.000000 0.000000 0.000000
# 4 0.000000 0.000000 0.000000 0.032453 0.000000 0.000000
# 5 0.000000 0.000000 0.000000 0.000000 0.032452 0.000000
# 6 0.000000 0.000000 0.000000 0.000000 0.000000 0.034613
#
#
# Mechanical properties :
#
#
# Convention : Reuss Voigt Hill
#
# Bulk Modulus (GPa) = 48.51886 49.23066 48.87476
# Shear Modulus (GPa) = 31.63405 31.87805 31.75605
#
# Velocity S-wave (km/s) = 3.73571 3.75009 3.74291
# Velocity P-wave (km/s) = 6.32549 6.36155 6.34354
#
# Compressibility (1/GPa) = 0.02061054
#
# Stress axis : x y z
#
# Youngs Moduli (GPa) = 86.31941 86.31818 77.10080
#
# Poissons Ratio (x) = 0.28936 0.17010
# Poissons Ratio (y) = 0.28937 0.17010
# Poissons Ratio (z) = 0.19044 0.19044
#
# Static dielectric constant tensor:
#      x y z
#    x 4.088200 0.000000 0.000000 
#    y 0.000000 4.088200 0.000000 
#    z 0.000000 0.000000 4.010670 
# 
# 
# High freq. dielectric constant tensor:
#      x y z
#    x 1.897740 0.000000 0.000000 
#    y 0.000000 1.897740 0.000000 
#    z 0.000000 0.000000 1.882290 
# 
# From -- ./inp_files/5826.got.cif
#   From: 2010.03.12/outbox.cif.g09.slc.cpg/sg126_3_cif.got.tgz:5826.got - 2010.04.06 16:55:23.
