data_PCOD8313150
_publ_section_title
;
Structure prediction by ZEFSAII (Michael W. Deem and Ramdas Pophale) SiO2 
 PCOD8313150
Probable space group: P 4/M C C
;
_chemical_formula_sum "Si O2"
_cell_formula_units_Z 96
_cell_length_a 17.467529
_cell_length_b 17.467529
_cell_length_c 17.064027
_cell_angle_alpha 90.000000
_cell_angle_beta 90.000000
_cell_angle_gamma 90.000000
_cell_volume 5206.483250
_symmetry_space_group_name_H-M "P 4/M C C"
_symmetry_group_IT_number 124
_symmetry_cell_setting 'tetragonal'
loop_
_space_group_symop_operation_xyz
x,y,z
-y,x,z
-x,-y,z
y,-x,z
x,-y,1/2-z
-x,y,1/2-z
y,x,1/2-z
-y,-x,1/2-z
-x,-y,-z
y,-x,-z
x,y,-z
-y,x,-z
-x,y,1/2+z
x,-y,1/2+z
-y,-x,1/2+z
y,x,1/2+z
loop_
_atom_site_type_symbol
_atom_site_label
_atom_site_fract_x
_atom_site_fract_y
_atom_site_fract_z
Si Si1 0.559149 0.817302 0.589492
Si Si2 0.222330 0.009984 0.843767
Si Si3 0.841118 0.140779 0.164348
Si Si4 0.680683 0.784602 0.291939
Si Si5 0.384572 0.010191 0.411440
Si Si6 0.129656 0.564445 0.813484
O O1 0.562432 0.789409 0.500000
O O2 0.618781 0.766376 0.640294
O O3 0.472149 0.810182 0.623035
O O4 0.583626 0.905164 0.601340
O O5 0.194368 0.093631 0.874315
O O6 0.295934 0.989894 0.893544
O O7 0.238214 0.000000 0.750000
O O8 0.163505 0.943738 0.873347
O O9 0.874187 0.125814 0.250000
O O10 0.756788 0.178993 0.169066
O O11 0.705217 0.705217 0.250000
O O12 0.643570 0.839784 0.224826
O O13 0.400581 0.982849 0.500000
O O14 0.424736 0.951956 0.353141
O O15 0.117040 0.500000 0.750000
#
# Coordination Sequence:
#
# PCOD8313150 Si02
#       6
#    16  16  16  16  16  16
#     4  10  21  35  51  75 110 141 170 219 275 324
#     4  10  19  32  52  69  97 138 181 238 276 320
#     4   9  17  30  48  72  95 127 183 236 280 314
#     4  10  19  35  53  78 106 141 183 219 260 326
#     4  11  21  33  48  75 106 134 173 220 274 329
#     4  10  21  33  54  77 103 137 174 214 260 322
#
# _framework density 18.438548999999998
#
# number of rings (size 3 to 8) (size 9 to 14) (size 15 to 20)
#    0.000    2.000    1.667    4.000    2.333    3.667 
#    0.000    6.667    0.000    0.000    0.000    1.167 
#    0.000   27.000    0.000   13.500    0.000    0.000 
#
# Total GULP energy -1189265.022371 kJ/mol
# GULP energy per Si atom -12388.177316 kJ/mol
# Density = 1.839658 g / cm^3
# Si number density = 18.438549 Si / 1000 Ang^3
#
#
#
# Elastic Constant Matrix: (Units=GPa)
#
#
# Indices 1 2 3 4 5 6 
#
# 1 70.7402 18.9381 14.9343 0.0000 0.0000 0.0000
# 2 18.9381 70.7399 14.9341 0.0000 0.0000 0.0000
# 3 14.9343 14.9341 72.3448 0.0000 0.0000 0.0000
# 4 0.0000 0.0000 0.0000 11.6670 0.0000 0.0000
# 5 0.0000 0.0000 0.0000 0.0000 11.6670 0.0000
# 6 0.0000 0.0000 0.0000 0.0000 0.0000 69.9339
#
#
#
# Elastic Compliance Matrix: (Units=1/GPa)
#
#
# Indices 1 2 3 4 5 6 
#
# 1 0.015639 -0.003665 -0.002472 0.000000 0.000000 0.000000
# 2 -0.003665 0.015639 -0.002472 0.000000 0.000000 0.000000
# 3 -0.002472 -0.002472 0.014843 0.000000 0.000000 0.000000
# 4 0.000000 0.000000 0.000000 0.085712 0.000000 0.000000
# 5 0.000000 0.000000 0.000000 0.000000 0.085712 0.000000
# 6 0.000000 0.000000 0.000000 0.000000 0.000000 0.014299
#
#
# Mechanical properties :
#
#
# Convention : Reuss Voigt Hill
#
# Bulk Modulus (GPa) = 34.59687 34.60420 34.60054
# Shear Modulus (GPa) = 19.32761 29.65481 24.49121
#
# Velocity S-wave (km/s) = 3.24113 4.01472 3.64849
# Velocity P-wave (km/s) = 5.72806 6.34812 6.04605
#
# Compressibility (1/GPa) = 0.02890435
#
# Stress axis : x y z
#
# Youngs Moduli (GPa) = 63.94166 63.94145 67.37075
#
# Poissons Ratio (x) = 0.23435 0.16653
# Poissons Ratio (y) = 0.23435 0.16653
# Poissons Ratio (z) = 0.15806 0.15805
#
# Static dielectric constant tensor:
#      x y z
#    x 3.568130 0.000000 0.000000 
#    y 0.000000 3.568120 0.000000 
#    z 0.000000 0.000000 3.621880 
# 
# 
# High freq. dielectric constant tensor:
#      x y z
#    x 1.697040 0.000000 0.000000 
#    y 0.000000 1.697040 0.000000 
#    z 0.000000 0.000000 1.702690 
# 
# From -- ./inp_files/4243.got.cif
#   From: 2010.03.12/outbox.cif.g09.slc.cpg/sg124_3_cif.got.tgz:4243.got - 2010.04.06 16:38:57.
