data_PCOD8313993
_publ_section_title
;
Structure prediction by ZEFSAII (Michael W. Deem and Ramdas Pophale) SiO2 
 PCOD8313993
Probable space group: P 4/M B M
;
_chemical_formula_sum "Si O2"
_cell_formula_units_Z 72
_cell_length_a 20.474937
_cell_length_b 20.474937
_cell_length_c 9.890616
_cell_angle_alpha 90.000000
_cell_angle_beta 90.000000
_cell_angle_gamma 90.000000
_cell_volume 4146.374158
_symmetry_space_group_name_H-M "P 4/M B M"
_symmetry_group_IT_number 127
_symmetry_cell_setting 'tetragonal'
loop_
_space_group_symop_operation_xyz
x,y,z
-y,x,z
-x,-y,z
y,-x,z
1/2+x,1/2-y,-z
1/2-x,1/2+y,-z
1/2+y,1/2+x,-z
1/2-y,1/2-x,-z
-x,-y,-z
y,-x,-z
x,y,-z
-y,x,-z
1/2-x,1/2+y,z
1/2+x,1/2-y,z
1/2-y,1/2-x,z
1/2+y,1/2+x,z
loop_
_atom_site_type_symbol
_atom_site_label
_atom_site_fract_x
_atom_site_fract_y
_atom_site_fract_z
Si Si1 0.794466 0.185683 0.500000
Si Si2 0.581117 0.191699 0.500000
Si Si3 0.160101 0.118963 0.000000
Si Si4 0.304459 0.471539 0.000000
Si Si5 0.503453 0.104563 0.000000
Si Si6 0.293428 0.000704 0.229867
Si Si7 0.855778 0.245593 0.251735
O O1 0.736383 0.236383 0.500000
O O2 0.763142 0.113992 0.500000
O O3 0.839538 0.195946 0.371103
O O4 0.632649 0.132649 0.500000
O O5 0.539139 0.187517 0.636612
O O6 0.085738 0.142764 0.000000
O O7 0.200382 0.148671 0.122401
O O8 0.158078 0.040545 0.000000
O O9 0.261441 0.465518 0.863069
O O10 0.490893 0.143844 0.863580
O O11 0.577605 0.077605 0.000000
O O12 0.454187 0.045814 0.000000
O O13 0.272244 0.072078 0.277747
O O14 0.805781 0.305781 0.240424
#
# Coordination Sequence:
#
# PCOD8313993 Si02
#       7
#     8   8   8   8   8  16  16
#     4   9  19  32  48  71  99 129 162 205 254 299
#     4  11  21  34  51  74 105 137 167 204 254 310
#     4  10  19  33  52  76 102 130 166 205 251 308
#     4   9  20  34  52  76 102 133 168 208 256 305
#     4  10  20  35  52  71 100 138 176 214 260 314
#     4  10  20  34  53  75 102 134 172 214 256 304
#     4  10  19  33  53  75  98 128 168 212 254 295
#
# _framework density 17.364570000000001
#
# number of rings (size 3 to 8) (size 9 to 14) (size 15 to 20)
#    0.000    2.111    0.000    4.333    0.000    0.222 
#    0.000    7.222    0.000    4.000    0.000    0.000 
#    0.000   16.000    0.000    0.000    0.000    0.000 
#
# Total GULP energy -892635.672514 kJ/mol
# GULP energy per Si atom -12397.717674 kJ/mol
# Density = 1.732505 g / cm^3
# Si number density = 17.364570 Si / 1000 Ang^3
#
#
#
# Elastic Constant Matrix: (Units=GPa)
#
#
# Indices 1 2 3 4 5 6 
#
# 1 85.9723 48.4125 53.9369 0.0000 0.0000 0.0000
# 2 48.4125 85.9728 53.9371 0.0000 0.0000 0.0000
# 3 53.9369 53.9371 154.3387 0.0000 0.0000 0.0000
# 4 0.0000 0.0000 0.0000 144.1598 0.0000 0.0000
# 5 0.0000 0.0000 0.0000 0.0000 143.0987 0.0000
# 6 0.0000 0.0000 0.0000 0.0000 0.0000 31.1370
#
#
#
# Elastic Compliance Matrix: (Units=1/GPa)
#
#
# Indices 1 2 3 4 5 6 
#
# 1 0.018483 -0.008141 -0.003615 0.000000 0.000000 0.000000
# 2 -0.008141 0.018483 -0.003615 0.000000 0.000000 0.000000
# 3 -0.003615 -0.003615 0.009006 0.000000 0.000000 0.000000
# 4 0.000000 0.000000 0.000000 0.006937 0.000000 0.000000
# 5 0.000000 0.000000 0.000000 0.000000 0.006988 0.000000
# 6 0.000000 0.000000 0.000000 0.000000 0.000000 0.032116
#
#
# Mechanical properties :
#
#
# Convention : Reuss Voigt Hill
#
# Bulk Modulus (GPa) = 65.64657 70.98410 68.31533
# Shear Modulus (GPa) = 39.11431 75.01225 57.06328
#
# Velocity S-wave (km/s) = 4.75124 6.57968 5.73875
# Velocity P-wave (km/s) = 8.24536 9.93430 9.12898
#
# Compressibility (1/GPa) = 0.01523309
#
# Stress axis : x y z
#
# Youngs Moduli (GPa) = 54.10247 54.10272 111.04211
#
# Poissons Ratio (x) = 0.44043 0.40136
# Poissons Ratio (y) = 0.44043 0.40136
# Poissons Ratio (z) = 0.19555 0.19555
#
# Static dielectric constant tensor:
#      x y z
#    x 3.251270 0.000000 0.000000 
#    y 0.000000 3.251270 0.000000 
#    z 0.000000 0.000000 3.345710 
# 
# 
# High freq. dielectric constant tensor:
#      x y z
#    x 1.670110 0.000000 0.000000 
#    y 0.000000 1.670110 0.000000 
#    z 0.000000 0.000000 1.685940 
# 
# From -- ./inp_files/1703.got.cif
#   From: 2010.03.12/outbox.cif.g09.slc.cpg/sg127_1_cif.got.tgz:1703.got - 2010.04.06 17:03:15.
