data_PCOD8313073
_publ_section_title
;
Structure prediction by ZEFSAII (Michael W. Deem and Ramdas Pophale) SiO2 
 PCOD8313073
Probable space group: P 4/M C C
;
_chemical_formula_sum "Si O2"
_cell_formula_units_Z 64
_cell_length_a 21.739142
_cell_length_b 21.739142
_cell_length_c 8.754004
_cell_angle_alpha 90.000000
_cell_angle_beta 90.000000
_cell_angle_gamma 90.000000
_cell_volume 4137.057332
_symmetry_space_group_name_H-M "P 4/M C C"
_symmetry_group_IT_number 124
_symmetry_cell_setting 'tetragonal'
loop_
_space_group_symop_operation_xyz
x,y,z
-y,x,z
-x,-y,z
y,-x,z
x,-y,1/2-z
-x,y,1/2-z
y,x,1/2-z
-y,-x,1/2-z
-x,-y,-z
y,-x,-z
x,y,-z
-y,x,-z
-x,y,1/2+z
x,-y,1/2+z
-y,-x,1/2+z
y,x,1/2+z
loop_
_atom_site_type_symbol
_atom_site_label
_atom_site_fract_x
_atom_site_fract_y
_atom_site_fract_z
Si Si1 0.835359 0.752893 0.678605
Si Si2 0.168854 0.566211 0.818391
Si Si3 0.656172 0.256761 0.180389
Si Si4 0.065699 0.661376 0.175575
O O1 0.821220 0.821220 0.750000
O O2 0.817902 0.749848 0.500000
O O3 0.792744 0.707396 0.774611
O O4 0.905516 0.729967 0.703020
O O5 0.155122 0.500000 0.750000
O O6 0.233582 0.591800 0.752412
O O7 0.112831 0.609860 0.762263
O O8 0.173499 0.563945 0.000000
O O9 0.677003 0.322998 0.250000
O O10 0.649121 0.262578 0.000000
O O11 0.000000 0.655952 0.250000
O O12 0.054826 0.648723 0.000000
#
# Coordination Sequence:
#
# PCOD8313073 Si02
#       4
#    16  16  16  16
#     4   9  16  27  42  62  83 106 137 176 217 260
#     4  10  20  33  45  62  86 115 150 185 217 256
#     4  10  17  27  44  64  84 109 138 175 219 261
#     4   9  19  31  43  60  85 114 148 182 214 253
#
# _framework density 15.469932
#
# number of rings (size 3 to 8) (size 9 to 14) (size 15 to 20)
#    0.000    2.500    0.000    6.750    0.000    6.500 
#    0.000    2.500    0.000    0.000    0.000    0.000 
#    0.000    1.000    0.000   10.500    0.000    7.500 
#
# Total GULP energy -792908.344847 kJ/mol
# GULP energy per Si atom -12389.192888 kJ/mol
# Density = 1.543472 g / cm^3
# Si number density = 15.469932 Si / 1000 Ang^3
#
#
#
# Elastic Constant Matrix: (Units=GPa)
#
#
# Indices 1 2 3 4 5 6 
#
# 1 69.8771 70.6511 41.6889 0.0000 0.0000 0.0000
# 2 70.6511 69.8763 41.6889 0.0000 0.0000 0.0000
# 3 41.6889 41.6889 94.9599 0.0000 0.0000 0.0000
# 4 0.0000 0.0000 0.0000 26.4433 0.0000 0.0000
# 5 0.0000 0.0000 0.0000 0.0000 26.4435 0.0000
# 6 0.0000 0.0000 0.0000 0.0000 0.0000 16.6679
#
#
#
# Elastic Compliance Matrix: (Units=1/GPa)
#
#
# Indices 1 2 3 4 5 6 
#
# 1 -0.640838 0.650466 -0.004227 0.000000 0.000000 0.000000
# 2 0.650466 -0.640849 -0.004222 0.000000 0.000000 0.000000
# 3 -0.004227 -0.004222 0.014240 0.000000 0.000000 0.000000
# 4 0.000000 0.000000 0.000000 0.037817 0.000000 0.000000
# 5 0.000000 0.000000 0.000000 0.000000 0.037817 0.000000
# 6 0.000000 0.000000 0.000000 0.000000 0.000000 0.059996
#
#
# Mechanical properties :
#
#
# Convention : Reuss Voigt Hill
#
# Bulk Modulus (GPa) = 60.28748 60.30791 60.29769
# Shear Modulus (GPa) = -2.07441 19.28989 8.60774
#
# Velocity S-wave (km/s) = -1.15924 3.53502 2.36141
# Velocity P-wave (km/s) = 6.10439 7.46528 6.81887
#
# Compressibility (1/GPa) = 0.01658719
#
# Stress axis : x y z
#
# Youngs Moduli (GPa) = -1.56046 -1.56043 70.22508
#
# Poissons Ratio (x) = 1.01501 0.29685
# Poissons Ratio (y) = 1.01502 0.29647
# Poissons Ratio (z) = -0.00660 -0.00659
#
# Static dielectric constant tensor:
#      x y z
#    x 3.228980 0.000000 0.000000 
#    y 0.000000 3.228990 0.000000 
#    z 0.000000 0.000000 3.069110 
# 
# 
# High freq. dielectric constant tensor:
#      x y z
#    x 1.566750 0.000000 0.000000 
#    y 0.000000 1.566750 0.000000 
#    z 0.000000 0.000000 1.610160 
# 
# From -- ./inp_files/859.got.cif
#   From: 2010.03.12/outbox.cif.g09.slc.cpg/sg124_1_cif.got.tgz:859.got - 2010.04.06 16:38:57.
