data_PCOD8313446
_publ_section_title
;
Structure prediction by ZEFSAII (Michael W. Deem and Ramdas Pophale) SiO2 
 PCOD8313446
Probable space group: P 4/N B M
;
_chemical_formula_sum "Si O2"
_cell_formula_units_Z 80
_cell_length_a 27.603523
_cell_length_b 27.603523
_cell_length_c 5.112241
_cell_angle_alpha 90.000000
_cell_angle_beta 90.000000
_cell_angle_gamma 90.000000
_cell_volume 3895.294943
_symmetry_space_group_name_H-M "P 4/N B M"
_symmetry_group_IT_number 125
_space_group.IT_coordinate_system_code '2'
_symmetry_cell_setting 'tetragonal'
loop_
_space_group_symop_operation_xyz
x,y,z
1/2-y,x,z
1/2-x,1/2-y,z
y,1/2-x,z
x,1/2-y,-z
1/2-x,y,-z
y,x,-z
1/2-y,1/2-x,-z
-x,-y,-z
1/2+y,-x,-z
1/2+x,1/2+y,-z
-y,1/2+x,-z
-x,1/2+y,z
1/2+x,-y,z
-y,-x,z
1/2+y,1/2+x,z
loop_
_atom_site_type_symbol
_atom_site_label
_atom_site_fract_x
_atom_site_fract_y
_atom_site_fract_z
Si Si1 0.635868 0.442853 0.594468
Si Si2 0.194238 0.436239 0.003109
Si Si3 0.805178 0.451500 0.936768
Si Si4 0.060751 0.482738 0.757606
Si Si5 0.382925 0.192508 0.496439
O O1 0.593600 0.406401 0.502596
O O2 0.675937 0.445118 0.360745
O O3 0.613553 0.495269 0.682694
O O4 0.662494 0.421896 0.853177
O O5 0.170510 0.411328 0.751192
O O6 0.250000 0.421653 0.000000
O O7 0.187772 0.493047 0.987855
O O8 0.171178 0.413771 0.263030
O O9 0.750000 0.435402 0.000000
O O10 0.042144 0.457857 0.500000
O O11 0.028533 0.528533 0.844759
O O12 0.056520 0.443481 0.000000
O O13 0.378641 0.250000 0.500000
O O14 0.328784 0.171217 0.500000
#
# Coordination Sequence:
#
# PCOD8313446 Si02
#       5
#    16  16  16  16  16
#     4  11  22  37  59  88 120 151 187 235 286 338
#     4   9  19  35  53  71  97 137 179 221 269 321
#     4  11  22  39  60  82 112 151 192 231 281 338
#     4   9  17  31  50  72 105 149 186 217 266 330
#     4  10  19  33  52  74 103 137 178 233 290 338
#
# _framework density 20.537599
#
# number of rings (size 3 to 8) (size 9 to 14) (size 15 to 20)
#    0.000    2.000    0.000    4.200    0.000    6.600 
#    0.000   10.000    0.000    3.600    0.000    0.000 
#    0.000   28.000    0.000    0.000    0.000    0.000 
#
# Total GULP energy -991074.770656 kJ/mol
# GULP energy per Si atom -12388.434633 kJ/mol
# Density = 2.049085 g / cm^3
# Si number density = 20.537599 Si / 1000 Ang^3
#
#
#
# Elastic Constant Matrix: (Units=GPa)
#
#
# Indices 1 2 3 4 5 6 
#
# 1 44.8303 27.9413 28.0140 0.0000 0.0000 0.0000
# 2 27.9413 44.8289 28.0129 0.0000 0.0000 0.0000
# 3 28.0140 28.0129 161.0430 0.0000 0.0000 0.0000
# 4 0.0000 0.0000 0.0000 62.5719 0.0000 0.0000
# 5 0.0000 0.0000 0.0000 0.0000 62.4549 0.0000
# 6 0.0000 0.0000 0.0000 0.0000 0.0000 20.7704
#
#
#
# Elastic Compliance Matrix: (Units=1/GPa)
#
#
# Indices 1 2 3 4 5 6 
#
# 1 0.037539 -0.021673 -0.002760 0.000000 0.000000 0.000000
# 2 -0.021673 0.037540 -0.002760 0.000000 0.000000 0.000000
# 3 -0.002760 -0.002760 0.007170 0.000000 0.000000 0.000000
# 4 0.000000 0.000000 0.000000 0.015982 0.000000 0.000000
# 5 0.000000 0.000000 0.000000 0.000000 0.016012 0.000000
# 6 0.000000 0.000000 0.000000 0.000000 0.000000 0.048145
#
#
# Mechanical properties :
#
#
# Convention : Reuss Voigt Hill
#
# Bulk Modulus (GPa) = 35.88980 46.51543 41.20261
# Shear Modulus (GPa) = 22.11791 40.27505 31.19648
#
# Velocity S-wave (km/s) = 3.28525 4.43317 3.90165
# Velocity P-wave (km/s) = 5.64832 6.99300 6.35632
#
# Compressibility (1/GPa) = 0.02786307
#
# Stress axis : x y z
#
# Youngs Moduli (GPa) = 26.63885 26.63819 139.47526
#
# Poissons Ratio (x) = 0.57733 0.38497
# Poissons Ratio (y) = 0.57734 0.38494
# Poissons Ratio (z) = 0.07353 0.07352
#
# Static dielectric constant tensor:
#      x y z
#    x 3.575310 0.000000 0.000000 
#    y 0.000000 3.575320 0.000000 
#    z 0.000000 0.000000 4.168580 
# 
# 
# High freq. dielectric constant tensor:
#      x y z
#    x 1.779290 0.000000 0.000000 
#    y 0.000000 1.779290 0.000000 
#    z 0.000000 0.000000 1.829510 
# 
# From -- ./inp_files/1159.got.cif
#   From: 2010.03.12/outbox.cif.g09.slc.cpg/sg125_1_cif.got.tgz:1159.got - 2010.04.06 16:47:52.
