data_PCOD8313429
_publ_section_title
;
Structure prediction by ZEFSAII (Michael W. Deem and Ramdas Pophale) SiO2 
 PCOD8313429
Probable space group: P 4/N B M
;
_chemical_formula_sum "Si O2"
_cell_formula_units_Z 104
_cell_length_a 17.570964
_cell_length_b 17.570964
_cell_length_c 18.943290
_cell_angle_alpha 90.000000
_cell_angle_beta 90.000000
_cell_angle_gamma 90.000000
_cell_volume 5848.528166
_symmetry_space_group_name_H-M "P 4/N B M"
_symmetry_group_IT_number 125
_space_group.IT_coordinate_system_code '2'
_symmetry_cell_setting 'tetragonal'
loop_
_space_group_symop_operation_xyz
x,y,z
1/2-y,x,z
1/2-x,1/2-y,z
y,1/2-x,z
x,1/2-y,-z
1/2-x,y,-z
y,x,-z
1/2-y,1/2-x,-z
-x,-y,-z
1/2+y,-x,-z
1/2+x,1/2+y,-z
-y,1/2+x,-z
-x,1/2+y,z
1/2+x,-y,z
-y,-x,z
1/2+y,1/2+x,z
loop_
_atom_site_type_symbol
_atom_site_label
_atom_site_fract_x
_atom_site_fract_y
_atom_site_fract_z
Si Si1 0.437336 0.562665 0.116258
Si Si2 0.337540 0.456784 0.212326
Si Si3 0.437326 0.937326 0.116281
Si Si4 0.495330 0.123093 0.499990
Si Si5 0.157015 0.657015 0.000008
Si Si6 0.541464 0.167545 0.351854
Si Si7 0.043226 0.162461 0.212339
Si Si8 0.041449 0.832468 0.648138
O O1 0.376743 0.519369 0.163872
O O2 0.500009 0.499992 0.085076
O O3 0.386316 0.613685 0.063611
O O4 0.351113 0.477379 0.294291
O O5 0.374536 0.374542 0.199129
O O6 0.249999 0.451408 0.190850
O O7 0.480629 0.876747 0.163903
O O8 0.386295 0.886295 0.063651
O O9 0.556442 0.056442 0.499974
O O10 0.504395 0.172093 0.429326
O O11 0.504413 0.172088 0.570654
O O12 0.410950 0.089051 0.500000
O O13 0.142787 0.750000 0.000000
O O14 0.607477 0.107477 0.346606
O O15 0.577413 0.250011 0.335316
O O16 0.022660 0.148903 0.294313
O O17 0.107432 0.892568 0.653416
#
# Coordination Sequence:
#
# PCOD8313429 Si02
#       8
#     8  16   8  16   8  16  16  16
#     4  10  20  37  60  82 109 142 180 215 255 307
#     4  10  20  34  54  78 106 140 178 222 266 313
#     4  10  20  37  60  82 109 142 180 215 255 307
#     4   9  17  28  45  65  89 125 173 225 270 312
#     4  11  23  38  58  86 119 145 170 210 256 309
#     4  10  19  31  47  70 100 135 177 222 268 318
#     4  10  20  34  54  78 106 140 178 222 266 313
#     4  10  19  31  47  70 100 135 177 222 268 318
#
# _framework density 17.782253000000001
#
# number of rings (size 3 to 8) (size 9 to 14) (size 15 to 20)
#    0.000    2.077    1.538    2.538    0.000    1.846 
#    0.000    0.000    0.000    2.769    0.000    0.000 
#    0.000   22.154    0.000    0.000    0.000    0.000 
#
# Total GULP energy -1288480.176084 kJ/mol
# GULP energy per Si atom -12389.232462 kJ/mol
# Density = 1.774178 g / cm^3
# Si number density = 17.782253 Si / 1000 Ang^3
#
#
#
# Elastic Constant Matrix: (Units=GPa)
#
#
# Indices 1 2 3 4 5 6 
#
# 1 123.8357 75.0766 44.2518 0.0000 0.0000 0.0000
# 2 75.0766 123.8354 44.2517 0.0000 0.0000 0.0000
# 3 44.2518 44.2517 91.4542 0.0000 0.0000 0.0000
# 4 0.0000 0.0000 0.0000 16.0753 0.0000 0.0000
# 5 0.0000 0.0000 0.0000 0.0000 16.0740 0.0000
# 6 0.0000 0.0000 0.0000 0.0000 0.0000 6.9992
#
#
#
# Elastic Compliance Matrix: (Units=1/GPa)
#
#
# Indices 1 2 3 4 5 6 
#
# 1 0.013458 -0.007051 -0.003100 0.000000 0.000000 0.000000
# 2 -0.007051 0.013458 -0.003100 0.000000 0.000000 0.000000
# 3 -0.003100 -0.003100 0.013934 0.000000 0.000000 0.000000
# 4 0.000000 0.000000 0.000000 0.062207 0.000000 0.000000
# 5 0.000000 0.000000 0.000000 0.000000 0.062212 0.000000
# 6 0.000000 0.000000 0.000000 0.000000 0.000000 0.142874
#
#
# Mechanical properties :
#
#
# Convention : Reuss Voigt Hill
#
# Bulk Modulus (GPa) = 69.69715 74.03174 71.86444
# Shear Modulus (GPa) = 14.73066 19.53272 17.13169
#
# Velocity S-wave (km/s) = 2.88130 3.31787 3.10726
# Velocity P-wave (km/s) = 7.09571 7.51002 7.30580
#
# Compressibility (1/GPa) = 0.01434779
#
# Stress axis : x y z
#
# Youngs Moduli (GPa) = 74.30623 74.30606 71.76490
#
# Poissons Ratio (x) = 0.52395 0.22247
# Poissons Ratio (y) = 0.52395 0.22247
# Poissons Ratio (z) = 0.23035 0.23035
#
# Static dielectric constant tensor:
#      x y z
#    x 3.315560 0.000000 0.000000 
#    y 0.000000 3.315560 0.000000 
#    z 0.000000 0.000000 3.438310 
# 
# 
# High freq. dielectric constant tensor:
#      x y z
#    x 1.686000 0.000000 0.000000 
#    y 0.000000 1.686000 0.000000 
#    z 0.000000 0.000000 1.690550 
# 
# From -- ./inp_files/5540.got.cif
#   From: 2010.03.12/outbox.cif.g09.slc.cpg/sg125_3_cif.got.tgz:5540.got - 2010.04.06 16:47:52.
