data_PCOD8313495
_publ_section_title
;
Structure prediction by ZEFSAII (Michael W. Deem and Ramdas Pophale) SiO2 
 PCOD8313495
Probable space group: P 4/N B M
;
_chemical_formula_sum "Si O2"
_cell_formula_units_Z 84
_cell_length_a 20.180929
_cell_length_b 20.180929
_cell_length_c 11.270788
_cell_angle_alpha 90.000000
_cell_angle_beta 90.000000
_cell_angle_gamma 90.000000
_cell_volume 4590.252649
_symmetry_space_group_name_H-M "P 4/N B M"
_symmetry_group_IT_number 125
_space_group.IT_coordinate_system_code '2'
_symmetry_cell_setting 'tetragonal'
loop_
_space_group_symop_operation_xyz
x,y,z
1/2-y,x,z
1/2-x,1/2-y,z
y,1/2-x,z
x,1/2-y,-z
1/2-x,y,-z
y,x,-z
1/2-y,1/2-x,-z
-x,-y,-z
1/2+y,-x,-z
1/2+x,1/2+y,-z
-y,1/2+x,-z
-x,1/2+y,z
1/2+x,-y,z
-y,-x,z
1/2+y,1/2+x,z
loop_
_atom_site_type_symbol
_atom_site_label
_atom_site_fract_x
_atom_site_fract_y
_atom_site_fract_z
Si Si1 0.250000 0.750000 0.356776
Si Si2 0.147503 0.852498 0.691032
Si Si3 0.979685 0.324628 0.265271
Si Si4 0.146633 0.646633 0.579467
Si Si5 0.933298 0.325573 0.004228
Si Si6 0.946557 0.943925 0.640004
Si Si7 0.321243 0.995529 0.228064
O O1 0.202913 0.702913 0.279761
O O2 0.202650 0.797351 0.435426
O O3 0.128900 0.871101 0.555080
O O4 0.174890 0.917856 0.749094
O O5 0.917652 0.324598 0.354970
O O6 0.956382 0.345497 0.135043
O O7 0.016563 0.253318 0.264433
O O8 0.033231 0.377453 0.306899
O O9 0.873415 0.373415 0.965221
O O10 0.907384 0.250000 0.000000
O O11 0.997079 0.333455 0.914746
O O12 0.937972 0.937972 0.500000
O O13 0.961526 0.872862 0.697679
O O14 0.005053 0.994948 0.673377
#
# Coordination Sequence:
#
# PCOD8313495 Si02
#       7
#     4   8  16   8  16  16  16
#     4  12  25  32  48  81 114 161 196 216 281 354
#     4  12  21  32  51  76 111 150 187 226 275 338
#     4  11  23  38  56  81 115 149 191 240 286 338
#     4  12  21  32  51  76 111 150 187 226 275 338
#     4  10  20  36  53  79 114 156 194 232 281 337
#     4  11  22  37  59  86 112 148 195 240 291 346
#     4  11  23  38  56  81 115 149 191 240 286 338
#
# _framework density 18.299645999999999
#
# number of rings (size 3 to 8) (size 9 to 14) (size 15 to 20)
#    0.000    0.952    5.714    2.000    0.000    3.238 
#    0.000    1.905    0.000    0.571    0.000    1.333 
#    0.000    4.571    0.000    0.000    0.000    0.000 
#
# Total GULP energy -1041479.933919 kJ/mol
# GULP energy per Si atom -12398.570642 kJ/mol
# Density = 1.825799 g / cm^3
# Si number density = 18.299646 Si / 1000 Ang^3
#
#
#
# Elastic Constant Matrix: (Units=GPa)
#
#
# Indices 1 2 3 4 5 6 
#
# 1 97.2589 58.4669 32.5827 0.0000 0.0000 0.0000
# 2 58.4669 97.2589 32.5827 0.0000 0.0000 0.0000
# 3 32.5827 32.5827 94.7383 0.0000 0.0000 0.0000
# 4 0.0000 0.0000 0.0000 24.1122 0.0000 0.0000
# 5 0.0000 0.0000 0.0000 0.0000 24.1122 0.0000
# 6 0.0000 0.0000 0.0000 0.0000 0.0000 38.1400
#
#
#
# Elastic Compliance Matrix: (Units=1/GPa)
#
#
# Indices 1 2 3 4 5 6 
#
# 1 0.016640 -0.009139 -0.002580 0.000000 0.000000 0.000000
# 2 -0.009139 0.016640 -0.002580 0.000000 0.000000 0.000000
# 3 -0.002580 -0.002580 0.012330 0.000000 0.000000 0.000000
# 4 0.000000 0.000000 0.000000 0.041473 0.000000 0.000000
# 5 0.000000 0.000000 0.000000 0.000000 0.041473 0.000000
# 6 0.000000 0.000000 0.000000 0.000000 0.000000 0.026219
#
#
# Mechanical properties :
#
#
# Convention : Reuss Voigt Hill
#
# Bulk Modulus (GPa) = 58.77895 59.61339 59.19617
# Shear Modulus (GPa) = 26.44917 28.31447 27.38182
#
# Velocity S-wave (km/s) = 3.80588 3.93780 3.87240
# Velocity P-wave (km/s) = 7.17656 7.30219 7.23965
#
# Compressibility (1/GPa) = 0.01701289
#
# Stress axis : x y z
#
# Youngs Moduli (GPa) = 60.09692 60.09692 81.10370
#
# Poissons Ratio (x) = 0.54921 0.20923
# Poissons Ratio (y) = 0.54921 0.20923
# Poissons Ratio (z) = 0.15504 0.15504
#
# Static dielectric constant tensor:
#      x y z
#    x 3.292710 0.000000 0.000000 
#    y 0.000000 3.292710 0.000000 
#    z 0.000000 0.000000 3.694820 
# 
# 
# High freq. dielectric constant tensor:
#      x y z
#    x 1.687240 0.000000 0.000000 
#    y 0.000000 1.687240 0.000000 
#    z 0.000000 0.000000 1.735160 
# 
# From -- ./inp_files/4079.got.cif
#   From: 2010.03.12/outbox.cif.g09.slc.cpg/sg125_3_cif.got.tgz:4079.got - 2010.04.06 16:47:52.
