data_PCOD8313759
_publ_section_title
;
Structure prediction by ZEFSAII (Michael W. Deem and Ramdas Pophale) SiO2 
 PCOD8313759
Probable space group: P 4/N N C
;
_chemical_formula_sum "Si O2"
_cell_formula_units_Z 96
_cell_length_a 13.484268
_cell_length_b 13.484268
_cell_length_c 22.003101
_cell_angle_alpha 90.000000
_cell_angle_beta 90.000000
_cell_angle_gamma 90.000000
_cell_volume 4000.724478
_symmetry_space_group_name_H-M "P 4/N N C"
_symmetry_group_IT_number 126
_space_group.IT_coordinate_system_code '2'
_symmetry_cell_setting 'tetragonal'
loop_
_space_group_symop_operation_xyz
x,y,z
1/2-y,x,z
1/2-x,1/2-y,z
y,1/2-x,z
x,1/2-y,1/2-z
1/2-x,y,1/2-z
y,x,1/2-z
1/2-y,1/2-x,1/2-z
-x,-y,-z
1/2+y,-x,-z
1/2+x,1/2+y,-z
-y,1/2+x,-z
-x,1/2+y,1/2+z
1/2+x,-y,1/2+z
-y,-x,1/2+z
1/2+y,1/2+x,1/2+z
loop_
_atom_site_type_symbol
_atom_site_label
_atom_site_fract_x
_atom_site_fract_y
_atom_site_fract_z
Si Si1 0.965608 0.203992 0.512000
Si Si2 0.803884 0.905820 0.405725
Si Si3 0.666000 0.609519 0.915774
Si Si4 0.993796 0.355527 0.717772
Si Si5 0.976647 0.197341 0.309673
Si Si6 0.148451 0.702636 0.592699
O O1 0.913189 0.152359 0.571199
O O2 0.880318 0.233130 0.465629
O O3 0.022247 0.304430 0.535506
O O4 0.042231 0.133426 0.473836
O O5 0.688043 0.874330 0.407346
O O6 0.834575 0.970264 0.349313
O O7 0.785487 0.614737 0.920107
O O8 0.641564 0.560535 0.850079
O O9 0.990728 0.250000 0.750000
O O10 0.069637 0.430364 0.750000
O O11 0.883482 0.398760 0.714469
O O12 0.023109 0.250000 0.250000
O O13 0.927699 0.283408 0.351726
O O14 0.250000 0.750000 0.616569
#
# Coordination Sequence:
#
# PCOD8313759 Si02
#       6
#    16  16  16  16  16  16
#     4  11  21  40  69 106 135 186 241 292 363 457
#     4  11  24  43  68  96 136 188 234 291 369 447
#     4  10  24  49  75 104 150 196 244 313 375 437
#     4  12  27  47  72 104 145 191 249 312 373 449
#     4  11  29  45  71 107 143 192 258 308 368 449
#     4  11  22  42  67  97 149 191 232 294 377 439
#
# _framework density 23.995653999999998
#
# number of rings (size 3 to 8) (size 9 to 14) (size 15 to 20)
#    0.000    1.000    3.333    2.000    9.333    1.500 
#    3.000    5.000    0.000    0.000    0.000    0.000 
#    0.000    0.000    0.000    0.000    0.000    0.000 
#
# Total GULP energy -1189673.971642 kJ/mol
# GULP energy per Si atom -12392.437205 kJ/mol
# Density = 2.394104 g / cm^3
# Si number density = 23.995654 Si / 1000 Ang^3
#
#
#
# Elastic Constant Matrix: (Units=GPa)
#
#
# Indices 1 2 3 4 5 6 
#
# 1 73.2897 -7.6363 5.5769 0.0000 0.0000 0.0000
# 2 -7.6363 73.2913 5.5782 0.0000 0.0000 0.0000
# 3 5.5769 5.5782 106.8495 0.0000 0.0000 0.0000
# 4 0.0000 0.0000 0.0000 20.8061 0.0000 0.0000
# 5 0.0000 0.0000 0.0000 0.0000 20.8040 0.0000
# 6 0.0000 0.0000 0.0000 0.0000 0.0000 28.1687
#
#
#
# Elastic Compliance Matrix: (Units=1/GPa)
#
#
# Indices 1 2 3 4 5 6 
#
# 1 0.013862 0.001505 -0.000802 0.000000 0.000000 0.000000
# 2 0.001505 0.013862 -0.000802 0.000000 0.000000 0.000000
# 3 -0.000802 -0.000802 0.009443 0.000000 0.000000 0.000000
# 4 0.000000 0.000000 0.000000 0.048063 0.000000 0.000000
# 5 0.000000 0.000000 0.000000 0.000000 0.048068 0.000000
# 6 0.000000 0.000000 0.000000 0.000000 0.000000 0.035500
#
#
# Mechanical properties :
#
#
# Convention : Reuss Voigt Hill
#
# Bulk Modulus (GPa) = 27.04957 28.94091 27.99524
# Shear Modulus (GPa) = 27.57572 30.61656 29.09614
#
# Velocity S-wave (km/s) = 3.39366 3.57588 3.48596
# Velocity P-wave (km/s) = 5.16266 5.39780 5.28154
#
# Compressibility (1/GPa) = 0.03696917
#
# Stress axis : x y z
#
# Youngs Moduli (GPa) = 72.13776 72.13917 105.90188
#
# Poissons Ratio (x) = -0.10860 0.08495
# Poissons Ratio (y) = -0.10859 0.08496
# Poissons Ratio (z) = 0.05786 0.05787
#
# Static dielectric constant tensor:
#      x y z
#    x 4.230840 0.000000 0.000000 
#    y 0.000000 4.230790 0.000000 
#    z 0.000000 0.000000 4.537030 
# 
# 
# High freq. dielectric constant tensor:
#      x y z
#    x 1.946610 0.000000 0.000000 
#    y 0.000000 1.946610 0.000000 
#    z 0.000000 0.000000 1.967800 
# 
# From -- ./inp_files/5272.got.cif
#   From: 2010.03.12/outbox.cif.g09.slc.cpg/sg126_3_cif.got.tgz:5272.got - 2010.04.06 16:55:23.
