data_PCOD8313566
_publ_section_title
;
Structure prediction by ZEFSAII (Michael W. Deem and Ramdas Pophale) SiO2 
 PCOD8313566
Probable space group: P 4/N B M
;
_chemical_formula_sum "Si O2"
_cell_formula_units_Z 72
_cell_length_a 14.947980
_cell_length_b 14.947980
_cell_length_c 15.063590
_cell_angle_alpha 90.000000
_cell_angle_beta 90.000000
_cell_angle_gamma 90.000000
_cell_volume 3365.840275
_symmetry_space_group_name_H-M "P 4/N B M"
_symmetry_group_IT_number 125
_space_group.IT_coordinate_system_code '2'
_symmetry_cell_setting 'tetragonal'
loop_
_space_group_symop_operation_xyz
x,y,z
1/2-y,x,z
1/2-x,1/2-y,z
y,1/2-x,z
x,1/2-y,-z
1/2-x,y,-z
y,x,-z
1/2-y,1/2-x,-z
-x,-y,-z
1/2+y,-x,-z
1/2+x,1/2+y,-z
-y,1/2+x,-z
-x,1/2+y,z
1/2+x,-y,z
-y,-x,z
1/2+y,1/2+x,z
loop_
_atom_site_type_symbol
_atom_site_label
_atom_site_fract_x
_atom_site_fract_y
_atom_site_fract_z
Si Si1 0.012853 0.250000 0.000000
Si Si2 0.391335 0.217822 0.825106
Si Si3 0.416831 0.916831 0.414705
Si Si4 0.061373 0.938628 0.377874
Si Si5 0.180554 0.819447 0.836664
Si Si6 0.956196 0.253833 0.699024
Si Si7 0.421805 0.578196 0.994143
O O1 0.955690 0.168329 0.956555
O O2 0.068387 0.202723 0.077134
O O3 0.356443 0.317408 0.816845
O O4 0.456768 0.203302 0.743870
O O5 0.420902 0.920902 0.519463
O O6 0.315406 0.937548 0.386080
O O7 0.485632 0.985632 0.367255
O O8 0.152482 0.971812 0.331990
O O9 0.250000 0.750000 0.886469
O O10 0.241916 0.879738 0.773084
O O11 0.116517 0.883484 0.898141
O O12 0.500000 0.500000 0.000000
#
# Coordination Sequence:
#
# PCOD8313566 Si02
#       7
#     8  16   8   8   8  16   8
#     4  12  26  42  64  92 134 176 240 277 345 402
#     4  11  23  40  63  91 127 174 224 277 330 389
#     4  10  24  40  66  98 132 167 215 267 326 422
#     4  11  22  42  66  97 130 173 210 262 344 400
#     4  11  23  43  63  98 131 173 226 280 337 406
#     4  11  22  41  65  95 131 166 217 270 333 396
#     4  12  27  45  65  94 133 183 231 285 350 403
#
# _framework density 21.391390000000001
#
# number of rings (size 3 to 8) (size 9 to 14) (size 15 to 20)
#    0.000    0.889    3.333    4.000    1.556    1.778 
#    0.000    1.111    0.000    0.000    0.000    9.333 
#    0.000    0.000    0.000    0.000    0.000    0.000 
#
# Total GULP energy -892291.303857 kJ/mol
# GULP energy per Si atom -12392.934776 kJ/mol
# Density = 2.134270 g / cm^3
# Si number density = 21.391390 Si / 1000 Ang^3
#
#
#
# Elastic Constant Matrix: (Units=GPa)
#
#
# Indices 1 2 3 4 5 6 
#
# 1 87.4673 24.6770 6.6498 0.0000 0.0000 0.0000
# 2 24.6770 87.4673 6.6498 0.0000 0.0000 0.0000
# 3 6.6498 6.6498 71.0274 0.0000 0.0000 0.0000
# 4 0.0000 0.0000 0.0000 207.4717 0.0000 0.0000
# 5 0.0000 0.0000 0.0000 0.0000 207.4717 0.0000
# 6 0.0000 0.0000 0.0000 0.0000 0.0000 67.5769
#
#
#
# Elastic Compliance Matrix: (Units=1/GPa)
#
#
# Indices 1 2 3 4 5 6 
#
# 1 0.012472 -0.003454 -0.000844 0.000000 0.000000 0.000000
# 2 -0.003454 0.012472 -0.000844 0.000000 0.000000 0.000000
# 3 -0.000844 -0.000844 0.014237 0.000000 0.000000 0.000000
# 4 0.000000 0.000000 0.000000 0.004820 0.000000 0.000000
# 5 0.000000 0.000000 0.000000 0.000000 0.004820 0.000000
# 6 0.000000 0.000000 0.000000 0.000000 0.000000 0.014798
#
#
# Mechanical properties :
#
#
# Convention : Reuss Voigt Hill
#
# Bulk Modulus (GPa) = 34.60844 35.76836 35.18840
# Shear Modulus (GPa) = 59.85482 110.36977 85.11229
#
# Velocity S-wave (km/s) = 5.29543 7.19079 6.31462
# Velocity P-wave (km/s) = 7.32137 9.25745 8.34575
#
# Compressibility (1/GPa) = 0.02889469
#
# Stress axis : x y z
#
# Youngs Moduli (GPa) = 80.18208 80.18208 70.23873
#
# Poissons Ratio (x) = 0.27698 0.05930
# Poissons Ratio (y) = 0.27698 0.05930
# Poissons Ratio (z) = 0.06769 0.06769
#
# Static dielectric constant tensor:
#      x y z
#    x 4.065220 0.000000 0.000000 
#    y 0.000000 4.065220 0.000000 
#    z 0.000000 0.000000 3.681670 
# 
# 
# High freq. dielectric constant tensor:
#      x y z
#    x 1.854280 0.000000 0.000000 
#    y 0.000000 1.854280 0.000000 
#    z 0.000000 0.000000 1.825200 
# 
# From -- ./inp_files/5392.got.cif
#   From: 2010.03.12/outbox.cif.g09.slc.cpg/sg125_3_cif.got.tgz:5392.got - 2010.04.06 16:47:52.
