data_PCOD8313835
_publ_section_title
;
Structure prediction by ZEFSAII (Michael W. Deem and Ramdas Pophale) SiO2 
 PCOD8313835
Probable space group: P 4/M B M
;
_chemical_formula_sum "Si O2"
_cell_formula_units_Z 56
_cell_length_a 15.325716
_cell_length_b 15.325716
_cell_length_c 14.557669
_cell_angle_alpha 90.000000
_cell_angle_beta 90.000000
_cell_angle_gamma 90.000000
_cell_volume 3419.269933
_symmetry_space_group_name_H-M "P 4/M B M"
_symmetry_group_IT_number 127
_symmetry_cell_setting 'tetragonal'
loop_
_space_group_symop_operation_xyz
x,y,z
-y,x,z
-x,-y,z
y,-x,z
1/2+x,1/2-y,-z
1/2-x,1/2+y,-z
1/2+y,1/2+x,-z
1/2-y,1/2-x,-z
-x,-y,-z
y,-x,-z
x,y,-z
-y,x,-z
1/2-x,1/2+y,z
1/2+x,1/2-y,z
1/2-y,1/2-x,z
1/2+y,1/2+x,z
loop_
_atom_site_type_symbol
_atom_site_label
_atom_site_fract_x
_atom_site_fract_y
_atom_site_fract_z
Si Si1 0.305931 0.952157 0.711148
Si Si2 0.954281 0.865444 0.394419
Si Si3 0.495928 0.142209 0.100353
Si Si4 0.426863 0.073138 0.602992
O O1 0.369788 0.869788 0.702934
O O2 0.213212 0.924348 0.670548
O O3 0.291489 0.981950 0.817135
O O4 0.342995 0.035160 0.655361
O O5 0.944774 0.836417 0.500000
O O6 0.053798 0.891196 0.373077
O O7 0.564579 0.064579 0.104425
O O8 0.400144 0.099857 0.114616
O O9 0.500453 0.189167 0.000000
O O10 0.399257 0.100744 0.500000
O O11 0.500000 0.000000 0.600396
#
# Coordination Sequence:
#
# PCOD8313835 Si02
#       4
#    16  16  16   8
#     4  10  17  28  47  72  97 121 152 194 241 280
#     4   9  19  36  52  64  87 127 166 194 227 279
#     4   8  13  23  41  66  96 127 155 183 226 285
#     4   9  16  24  37  63  99 127 140 171 234 287
#
# _framework density 16.377765
#
# number of rings (size 3 to 8) (size 9 to 14) (size 15 to 20)
#    0.000    3.000    1.429    2.571    0.000    1.714 
#    2.571    0.000    0.000    1.714    0.000    6.000 
#    0.000    0.000    0.000    0.000    0.000    0.000 
#
# Total GULP energy -694059.372162 kJ/mol
# GULP energy per Si atom -12393.917360 kJ/mol
# Density = 1.634049 g / cm^3
# Si number density = 16.377765 Si / 1000 Ang^3
#
#
#
# Elastic Constant Matrix: (Units=GPa)
#
#
# Indices 1 2 3 4 5 6 
#
# 1 57.8907 11.6841 40.3358 0.0000 0.0000 0.0000
# 2 11.6841 57.8906 40.3358 0.0000 0.0000 0.0000
# 3 40.3358 40.3358 140.7515 0.0000 0.0000 0.0000
# 4 0.0000 0.0000 0.0000 17.7223 0.0000 0.0000
# 5 0.0000 0.0000 0.0000 0.0000 17.7224 0.0000
# 6 0.0000 0.0000 0.0000 0.0000 0.0000 9.0069
#
#
#
# Elastic Compliance Matrix: (Units=1/GPa)
#
#
# Indices 1 2 3 4 5 6 
#
# 1 0.021584 -0.000058 -0.006169 0.000000 0.000000 0.000000
# 2 -0.000058 0.021584 -0.006169 0.000000 0.000000 0.000000
# 3 -0.006169 -0.006169 0.010640 0.000000 0.000000 0.000000
# 4 0.000000 0.000000 0.000000 0.056426 0.000000 0.000000
# 5 0.000000 0.000000 0.000000 0.000000 0.056426 0.000000
# 6 0.000000 0.000000 0.000000 0.000000 0.000000 0.111025
#
#
# Mechanical properties :
#
#
# Convention : Reuss Voigt Hill
#
# Bulk Modulus (GPa) = 34.46288 49.02715 41.74502
# Shear Modulus (GPa) = 16.01802 19.83547 17.92675
#
# Velocity S-wave (km/s) = 3.13075 3.48389 3.31203
# Velocity P-wave (km/s) = 5.84439 6.79585 6.33800
#
# Compressibility (1/GPa) = 0.02901672
#
# Stress axis : x y z
#
# Youngs Moduli (GPa) = 46.33112 46.33108 93.98237
#
# Poissons Ratio (x) = 0.00270 0.57975
# Poissons Ratio (y) = 0.00270 0.57975
# Poissons Ratio (z) = 0.28580 0.28580
#
# Static dielectric constant tensor:
#      x y z
#    x 2.745430 0.000000 0.000000 
#    y 0.000000 2.745430 0.000000 
#    z 0.000000 0.000000 3.499200 
# 
# 
# High freq. dielectric constant tensor:
#      x y z
#    x 1.594590 0.000000 0.000000 
#    y 0.000000 1.594590 0.000000 
#    z 0.000000 0.000000 1.642040 
# 
# From -- ./inp_files/4008.got.cif
#   From: 2010.03.12/outbox.cif.g09.slc.cpg/sg127_3_cif.got.tgz:4008.got - 2010.04.06 17:03:15.
