data_PCOD8314689
_publ_section_title
;
Structure prediction by ZEFSAII (Michael W. Deem and Ramdas Pophale) SiO2 
 PCOD8314689
Probable space group: P 4/M N C
;
_chemical_formula_sum "Si O2"
_cell_formula_units_Z 48
_cell_length_a 11.940811
_cell_length_b 11.940811
_cell_length_c 17.104053
_cell_angle_alpha 90.000000
_cell_angle_beta 90.000000
_cell_angle_gamma 90.000000
_cell_volume 2438.746630
_symmetry_space_group_name_H-M "P 4/M N C"
_symmetry_group_IT_number 128
_symmetry_cell_setting 'tetragonal'
loop_
_space_group_symop_operation_xyz
x,y,z
-y,x,z
-x,-y,z
y,-x,z
1/2+x,1/2-y,1/2-z
1/2-x,1/2+y,1/2-z
1/2+y,1/2+x,1/2-z
1/2-y,1/2-x,1/2-z
-x,-y,-z
y,-x,-z
x,y,-z
-y,x,-z
1/2-x,1/2+y,1/2+z
1/2+x,1/2-y,1/2+z
1/2-y,1/2-x,1/2+z
1/2+y,1/2+x,1/2+z
loop_
_atom_site_type_symbol
_atom_site_label
_atom_site_fract_x
_atom_site_fract_y
_atom_site_fract_z
Si Si1 0.287695 0.166903 0.088253
Si Si2 0.073466 0.289081 0.147523
Si Si3 0.984071 0.333250 0.302236
O O1 0.167157 0.204679 0.118296
O O2 0.387056 0.219093 0.142626
O O3 0.287612 0.032362 0.089903
O O4 0.307837 0.208412 0.000000
O O5 0.121633 0.415500 0.144206
O O6 0.036401 0.250469 0.235935
O O7 0.932530 0.432530 0.250000
#
# Coordination Sequence:
#
# PCOD8314689 Si02
#       3
#    16  16  16
#     4  11  22  36  59  89 122 154 193 249 305 350
#     4  10  21  36  60  87 119 156 199 240 293 362
#     4   9  20  38  61  83 111 155 206 240 283 355
#
# _framework density 19.682241000000001
#
# number of rings (size 3 to 8) (size 9 to 14) (size 15 to 20)
#    0.000    2.000    0.000    8.000   14.000    4.667 
#    0.000    1.667    0.000    1.000    0.000    2.333 
#    0.000    0.000    0.000    0.000    0.000    0.000 
#
# Total GULP energy -594693.819051 kJ/mol
# GULP energy per Si atom -12389.454564 kJ/mol
# Density = 1.963744 g / cm^3
# Si number density = 19.682241 Si / 1000 Ang^3
#
#
#
# Elastic Constant Matrix: (Units=GPa)
#
#
# Indices 1 2 3 4 5 6 
#
# 1 35.8600 23.2842 37.8676 0.0000 0.0000 0.0000
# 2 23.2842 35.8600 37.8676 0.0000 0.0000 0.0000
# 3 37.8676 37.8676 137.4311 0.0000 0.0000 0.0000
# 4 0.0000 0.0000 0.0000 27.0676 0.0000 0.0000
# 5 0.0000 0.0000 0.0000 0.0000 27.0676 0.0000
# 6 0.0000 0.0000 0.0000 0.0000 0.0000 31.2562
#
#
#
# Elastic Compliance Matrix: (Units=1/GPa)
#
#
# Indices 1 2 3 4 5 6 
#
# 1 0.052822 -0.026696 -0.007199 0.000000 0.000000 0.000000
# 2 -0.026696 0.052822 -0.007199 0.000000 0.000000 0.000000
# 3 -0.007199 -0.007199 0.011243 0.000000 0.000000 0.000000
# 4 0.000000 0.000000 0.000000 0.036945 0.000000 0.000000
# 5 0.000000 0.000000 0.000000 0.000000 0.036945 0.000000
# 6 0.000000 0.000000 0.000000 0.000000 0.000000 0.031994
#
#
# Mechanical properties :
#
#
# Convention : Reuss Voigt Hill
#
# Bulk Modulus (GPa) = 28.81807 45.24333 37.03070
# Shear Modulus (GPa) = 15.79661 24.42038 20.10850
#
# Velocity S-wave (km/s) = 2.83606 3.52622 3.19980
# Velocity P-wave (km/s) = 5.03962 6.29411 5.70147
#
# Compressibility (1/GPa) = 0.03470045
#
# Stress axis : x y z
#
# Youngs Moduli (GPa) = 18.93154 18.93154 88.94087
#
# Poissons Ratio (x) = 0.50540 0.64026
# Poissons Ratio (y) = 0.50540 0.64026
# Poissons Ratio (z) = 0.13628 0.13628
#
# Static dielectric constant tensor:
#      x y z
#    x 3.521520 0.000000 0.000000 
#    y 0.000000 3.521520 0.000000 
#    z 0.000000 0.000000 3.864030 
# 
# 
# High freq. dielectric constant tensor:
#      x y z
#    x 1.746720 0.000000 0.000000 
#    y 0.000000 1.746720 0.000000 
#    z 0.000000 0.000000 1.767610 
# 
# From -- ./inp_files/4320.got.cif
#   From: 2010.03.12/outbox.cif.g09.slc.cpg/sg128_3_cif.got.tgz:4320.got - 2010.04.06 17:11:05.
