data_PCOD8314674
_publ_section_title
;
Structure prediction by ZEFSAII (Michael W. Deem and Ramdas Pophale) SiO2 
 PCOD8314674
Probable space group: P 4/M N C
;
_chemical_formula_sum "Si O2"
_cell_formula_units_Z 120
_cell_length_a 20.604246
_cell_length_b 20.604246
_cell_length_c 15.745365
_cell_angle_alpha 90.000000
_cell_angle_beta 90.000000
_cell_angle_gamma 90.000000
_cell_volume 6684.457794
_symmetry_space_group_name_H-M "P 4/M N C"
_symmetry_group_IT_number 128
_symmetry_cell_setting 'tetragonal'
loop_
_space_group_symop_operation_xyz
x,y,z
-y,x,z
-x,-y,z
y,-x,z
1/2+x,1/2-y,1/2-z
1/2-x,1/2+y,1/2-z
1/2+y,1/2+x,1/2-z
1/2-y,1/2-x,1/2-z
-x,-y,-z
y,-x,-z
x,y,-z
-y,x,-z
1/2-x,1/2+y,1/2+z
1/2+x,1/2-y,1/2+z
1/2-y,1/2-x,1/2+z
1/2+y,1/2+x,1/2+z
loop_
_atom_site_type_symbol
_atom_site_label
_atom_site_fract_x
_atom_site_fract_y
_atom_site_fract_z
Si Si1 0.280015 0.328563 0.091871
Si Si2 0.390930 0.509980 0.814173
Si Si3 0.394282 0.509065 0.000000
Si Si4 0.772531 0.383560 0.404148
Si Si5 0.777049 0.381308 0.903975
Si Si6 0.387757 0.779088 0.750482
Si Si7 0.749206 0.972550 0.252301
Si Si8 0.829891 0.778925 0.908352
O O1 0.348510 0.293571 0.105621
O O2 0.266941 0.377352 0.168039
O O3 0.225754 0.274180 0.091989
O O4 0.279987 0.365059 0.000000
O O5 0.430357 0.442010 0.800192
O O6 0.327760 0.515616 0.753315
O O7 0.357531 0.512291 0.909249
O O8 0.431223 0.442108 0.000000
O O9 0.780252 0.411553 0.500000
O O10 0.830584 0.334032 0.384083
O O11 0.771831 0.439749 0.335368
O O12 0.703356 0.348211 0.394992
O O13 0.779300 0.436268 0.833737
O O14 0.784548 0.409164 0.000000
O O15 0.343830 0.843830 0.750000
O O16 0.463018 0.795101 0.752396
O O17 0.378720 0.734889 0.667406
O O18 0.866248 0.777247 0.000000
#
# Coordination Sequence:
#
# PCOD8314674 Si02
#       8
#    16  16   8  16  16  16  16  16
#     4   8  15  31  52  74 101 134 163 203 267 319
#     4   9  20  35  48  70 112 153 185 212 245 304
#     4   7  12  30  50  60  90 150 186 201 234 284
#     4   9  19  37  57  77 101 130 177 232 273 311
#     4   9  19  35  55  81 108 131 166 221 274 323
#     4  10  21  34  48  75 111 141 173 216 264 317
#     4  12  23  30  55  81 102 140 183 214 267 311
#     4   8  15  31  56  74  93 128 168 218 271 309
#
# _framework density 17.952092
#
# number of rings (size 3 to 8) (size 9 to 14) (size 15 to 20)
#    0.000    2.867    0.000    3.600    4.667    3.200 
#    0.000    0.000    0.000    1.600    0.000    2.800 
#    0.000    0.000    0.000    0.000    0.000    0.000 
#
# Total GULP energy -1486588.404251 kJ/mol
# GULP energy per Si atom -12388.236702 kJ/mol
# Density = 1.791123 g / cm^3
# Si number density = 17.952092 Si / 1000 Ang^3
#
#
#
# Elastic Constant Matrix: (Units=GPa)
#
#
# Indices 1 2 3 4 5 6 
#
# 1 89.4921 12.1372 57.2181 0.0000 0.0000 0.0000
# 2 12.1372 89.4921 57.2181 0.0000 0.0000 0.0000
# 3 57.2181 57.2181 149.6313 0.0000 0.0000 0.0000
# 4 0.0000 0.0000 0.0000 -54.6907 0.0000 0.0000
# 5 0.0000 0.0000 0.0000 0.0000 -54.6907 0.0000
# 6 0.0000 0.0000 0.0000 0.0000 0.0000 13.8546
#
#
#
# Elastic Compliance Matrix: (Units=1/GPa)
#
#
# Indices 1 2 3 4 5 6 
#
# 1 0.015104 0.002176 -0.006608 0.000000 0.000000 0.000000
# 2 0.002176 0.015104 -0.006608 0.000000 0.000000 0.000000
# 3 -0.006608 -0.006608 0.011737 0.000000 0.000000 0.000000
# 4 0.000000 0.000000 0.000000 -0.018285 0.000000 0.000000
# 5 0.000000 0.000000 0.000000 0.000000 -0.018285 0.000000
# 6 0.000000 0.000000 0.000000 0.000000 0.000000 0.072178
#
#
# Mechanical properties :
#
#
# Convention : Reuss Voigt Hill
#
# Bulk Modulus (GPa) = 50.33793 64.64024 57.48908
# Shear Modulus (GPa) = 47.05720 -5.63589 20.71065
#
# Velocity S-wave (km/s) = 5.12538 -1.77376 3.40025
# Velocity P-wave (km/s) = 7.94526 5.64715 6.89265
#
# Compressibility (1/GPa) = 0.01986574
#
# Stress axis : x y z
#
# Youngs Moduli (GPa) = 66.20844 66.20844 85.20296
#
# Poissons Ratio (x) = -0.14410 0.56301
# Poissons Ratio (y) = -0.14410 0.56301
# Poissons Ratio (z) = 0.43749 0.43749
#
# Static dielectric constant tensor:
#      x y z
#    x 3.065710 0.000000 0.000000 
#    y 0.000000 3.065710 0.000000 
#    z 0.000000 0.000000 1.732290 
# 
# 
# High freq. dielectric constant tensor:
#      x y z
#    x 1.668380 0.000000 0.000000 
#    y 0.000000 1.668380 0.000000 
#    z 0.000000 0.000000 1.708980 
# 
# From -- ./inp_files/4093.got.cif
#   From: 2010.03.12/outbox.cif.g09.slc.cpg/sg128_3_cif.got.tgz:4093.got - 2010.04.06 17:11:05.
