data_PCOD8314168
_publ_section_title
;
Structure prediction by ZEFSAII (Michael W. Deem and Ramdas Pophale) SiO2 
 PCOD8314168
Probable space group: P 4/M B M
;
_chemical_formula_sum "Si O2"
_cell_formula_units_Z 96
_cell_length_a 23.540570
_cell_length_b 23.540570
_cell_length_c 8.866237
_cell_angle_alpha 90.000000
_cell_angle_beta 90.000000
_cell_angle_gamma 90.000000
_cell_volume 4913.300028
_symmetry_space_group_name_H-M "P 4/M B M"
_symmetry_group_IT_number 127
_symmetry_cell_setting 'tetragonal'
loop_
_space_group_symop_operation_xyz
x,y,z
-y,x,z
-x,-y,z
y,-x,z
1/2+x,1/2-y,-z
1/2-x,1/2+y,-z
1/2+y,1/2+x,-z
1/2-y,1/2-x,-z
-x,-y,-z
y,-x,-z
x,y,-z
-y,x,-z
1/2-x,1/2+y,z
1/2+x,1/2-y,z
1/2-y,1/2-x,z
1/2+y,1/2+x,z
loop_
_atom_site_type_symbol
_atom_site_label
_atom_site_fract_x
_atom_site_fract_y
_atom_site_fract_z
Si Si1 0.020097 0.271218 0.670545
Si Si2 0.910545 0.115218 0.174827
Si Si3 0.858540 0.733149 0.827159
Si Si4 0.161532 0.796771 0.322730
Si Si5 0.402003 0.184927 0.323035
Si Si6 0.141682 0.982821 0.332451
O O1 0.033447 0.291979 0.500000
O O2 0.077857 0.276932 0.765475
O O3 0.998205 0.206696 0.666554
O O4 0.965624 0.304555 0.745306
O O5 0.888554 0.175886 0.225683
O O6 0.862128 0.071160 0.223306
O O7 0.968364 0.101608 0.264170
O O8 0.923733 0.112789 0.000000
O O9 0.827507 0.672494 0.817412
O O10 0.819820 0.777687 0.734068
O O11 0.862575 0.754727 0.000000
O O12 0.156985 0.811908 0.500000
O O13 0.148153 0.730862 0.290144
O O14 0.412758 0.184551 0.500000
O O15 0.375577 0.124424 0.267240
O O16 0.120390 0.967378 0.500000
#
# Coordination Sequence:
#
# PCOD8314168 Si02
#       6
#    16  16  16  16  16  16
#     4  10  20  36  60  85 112 148 191 231 279 345
#     4  12  24  37  56  83 114 152 195 242 291 338
#     4  11  24  39  56  84 120 153 191 239 289 341
#     4  11  20  35  58  86 118 153 191 232 284 347
#     4   9  18  34  58  88 117 144 181 232 284 334
#     4  11  22  39  59  81 110 151 200 244 285 335
#
# _framework density 19.538803000000001
#
# number of rings (size 3 to 8) (size 9 to 14) (size 15 to 20)
#    0.000    1.333    3.333    3.500    0.000    3.000 
#    0.000    1.667    0.000    3.000    0.000    3.500 
#    0.000    0.000    0.000    0.000    0.000    0.000 
#
# Total GULP energy -1189584.471163 kJ/mol
# GULP energy per Si atom -12391.504908 kJ/mol
# Density = 1.949433 g / cm^3
# Si number density = 19.538803 Si / 1000 Ang^3
#
#
#
# Elastic Constant Matrix: (Units=GPa)
#
#
# Indices 1 2 3 4 5 6 
#
# 1 73.4945 31.1093 30.8501 0.0000 0.0000 0.0000
# 2 31.1093 73.4945 30.8501 0.0000 0.0000 0.0000
# 3 30.8501 30.8501 89.3465 0.0000 0.0000 0.0000
# 4 0.0000 0.0000 0.0000 20.1051 0.0000 0.0000
# 5 0.0000 0.0000 0.0000 0.0000 20.1051 0.0000
# 6 0.0000 0.0000 0.0000 0.0000 0.0000 29.2316
#
#
#
# Elastic Compliance Matrix: (Units=1/GPa)
#
#
# Indices 1 2 3 4 5 6 
#
# 1 0.017799 -0.005794 -0.004145 0.000000 0.000000 0.000000
# 2 -0.005794 0.017799 -0.004145 0.000000 0.000000 0.000000
# 3 -0.004145 -0.004145 0.014055 0.000000 0.000000 0.000000
# 4 0.000000 0.000000 0.000000 0.049739 0.000000 0.000000
# 5 0.000000 0.000000 0.000000 0.000000 0.049739 0.000000
# 6 0.000000 0.000000 0.000000 0.000000 0.000000 0.034210
#
#
# Mechanical properties :
#
#
# Convention : Reuss Voigt Hill
#
# Bulk Modulus (GPa) = 46.54594 46.88385 46.71490
# Shear Modulus (GPa) = 22.86551 23.45675 23.16113
#
# Velocity S-wave (km/s) = 3.42462 3.46861 3.44669
# Velocity P-wave (km/s) = 6.28581 6.33159 6.30874
#
# Compressibility (1/GPa) = 0.02148415
#
# Stress axis : x y z
#
# Youngs Moduli (GPa) = 56.18290 56.18290 71.14973
#
# Poissons Ratio (x) = 0.32553 0.29492
# Poissons Ratio (y) = 0.32553 0.29492
# Poissons Ratio (z) = 0.23288 0.23288
#
# Static dielectric constant tensor:
#      x y z
#    x 3.554230 0.000000 0.000000 
#    y 0.000000 3.554230 0.000000 
#    z 0.000000 0.000000 3.485010 
# 
# 
# High freq. dielectric constant tensor:
#      x y z
#    x 1.752170 0.000000 0.000000 
#    y 0.000000 1.752170 0.000000 
#    z 0.000000 0.000000 1.748740 
# 
# From -- ./inp_files/2010.got.cif
#   From: 2010.03.12/outbox.cif.g09.slc.cpg/sg127_2_cif.got.tgz:2010.got - 2010.04.06 17:03:15.
