data_PCOD8314593
_publ_section_title
;
Structure prediction by ZEFSAII (Michael W. Deem and Ramdas Pophale) SiO2 
 PCOD8314593
Probable space group: P 4/M N C
;
_chemical_formula_sum "Si O2"
_cell_formula_units_Z 104
_cell_length_a 25.972492
_cell_length_b 25.972492
_cell_length_c 8.044398
_cell_angle_alpha 90.000000
_cell_angle_beta 90.000000
_cell_angle_gamma 90.000000
_cell_volume 5426.512300
_symmetry_space_group_name_H-M "P 4/M N C"
_symmetry_group_IT_number 128
_symmetry_cell_setting 'tetragonal'
loop_
_space_group_symop_operation_xyz
x,y,z
-y,x,z
-x,-y,z
y,-x,z
1/2+x,1/2-y,1/2-z
1/2-x,1/2+y,1/2-z
1/2+y,1/2+x,1/2-z
1/2-y,1/2-x,1/2-z
-x,-y,-z
y,-x,-z
x,y,-z
-y,x,-z
1/2-x,1/2+y,1/2+z
1/2+x,1/2-y,1/2+z
1/2-y,1/2-x,1/2+z
1/2+y,1/2+x,1/2+z
loop_
_atom_site_type_symbol
_atom_site_label
_atom_site_fract_x
_atom_site_fract_y
_atom_site_fract_z
Si Si1 0.888073 0.692451 0.303996
Si Si2 0.976009 0.837333 0.697773
Si Si3 0.196780 0.861790 0.307972
Si Si4 0.086150 0.996160 0.000000
Si Si5 0.180050 0.754916 0.189702
Si Si6 0.276867 0.995927 0.307630
Si Si7 0.824062 0.401366 0.304445
O O1 0.858550 0.641451 0.250000
O O2 0.888832 0.694022 0.500000
O O3 0.862031 0.744980 0.236780
O O4 0.946247 0.693650 0.230791
O O5 0.987618 0.850795 0.500000
O O6 0.914600 0.833183 0.725874
O O7 0.001531 0.782595 0.754037
O O8 0.996262 0.880158 0.828463
O O9 0.197480 0.848576 0.500000
O O10 0.167769 0.814647 0.219995
O O11 0.048694 0.946722 0.000000
O O12 0.236912 0.736912 0.250000
O O13 0.136337 0.719353 0.274785
O O14 0.175901 0.741774 0.000000
O O15 0.270400 0.984594 0.500000
O O16 0.313652 0.043462 0.274025
O O17 0.880198 0.380198 0.250000
O O18 0.820791 0.407673 0.500000
#
# Coordination Sequence:
#
# PCOD8314593 Si02
#       7
#    16  16  16   8  16  16  16
#     4   9  18  32  50  77 109 140 177 219 272 333
#     4   9  21  41  62  86 116 150 192 243 297 351
#     4   9  18  33  52  77 110 144 179 223 279 344
#     4  11  26  44  62  86 116 150 198 257 302 348
#     4  10  20  31  45  71 107 143 178 219 271 338
#     4   9  19  37  58  80 111 147 185 234 282 335
#     4  10  21  35  52  77 108 144 186 227 275 335
#
# _framework density 19.165164000000001
#
# number of rings (size 3 to 8) (size 9 to 14) (size 15 to 20)
#    0.000    2.538    0.000    3.231    2.154    6.154 
#    2.769    3.846    0.000    0.462    0.000    3.231 
#    0.000    0.000    0.000    0.000    0.000    0.000 
#
# Total GULP energy -1288542.506523 kJ/mol
# GULP energy per Si atom -12389.831793 kJ/mol
# Density = 1.912154 g / cm^3
# Si number density = 19.165164 Si / 1000 Ang^3
#
#
#
# Elastic Constant Matrix: (Units=GPa)
#
#
# Indices 1 2 3 4 5 6 
#
# 1 94.7919 49.3595 26.4711 0.0000 0.0000 0.0000
# 2 49.3595 94.7926 26.4688 0.0000 0.0000 0.0000
# 3 26.4711 26.4688 54.1799 0.0000 0.0000 0.0000
# 4 0.0000 0.0000 0.0000 25.8111 0.0000 0.0000
# 5 0.0000 0.0000 0.0000 0.0000 25.8113 0.0000
# 6 0.0000 0.0000 0.0000 0.0000 0.0000 25.9507
#
#
#
# Elastic Compliance Matrix: (Units=1/GPa)
#
#
# Indices 1 2 3 4 5 6 
#
# 1 0.015233 -0.006778 -0.004131 0.000000 0.000000 0.000000
# 2 -0.006778 0.015232 -0.004130 0.000000 0.000000 0.000000
# 3 -0.004131 -0.004130 0.022493 0.000000 0.000000 0.000000
# 4 0.000000 0.000000 0.000000 0.038743 0.000000 0.000000
# 5 0.000000 0.000000 0.000000 0.000000 0.038743 0.000000
# 6 0.000000 0.000000 0.000000 0.000000 0.000000 0.038535
#
#
# Mechanical properties :
#
#
# Convention : Reuss Voigt Hill
#
# Bulk Modulus (GPa) = 43.70684 49.81813 46.76249
# Shear Modulus (GPa) = 24.19177 24.94561 24.56869
#
# Velocity S-wave (km/s) = 3.55671 3.61170 3.58431
# Velocity P-wave (km/s) = 6.30252 6.59113 6.44844
#
# Compressibility (1/GPa) = 0.02287971
#
# Stress axis : x y z
#
# Youngs Moduli (GPa) = 65.64895 65.65126 44.45882
#
# Poissons Ratio (x) = 0.44500 0.18365
# Poissons Ratio (y) = 0.44499 0.18360
# Poissons Ratio (z) = 0.27118 0.27112
#
# Static dielectric constant tensor:
#      x y z
#    x 4.247540 0.000000 0.000000 
#    y 0.000000 4.247520 0.000000 
#    z 0.000000 0.000000 3.403010 
# 
# 
# High freq. dielectric constant tensor:
#      x y z
#    x 1.734650 0.000000 0.000000 
#    y 0.000000 1.734650 0.000000 
#    z 0.000000 0.000000 1.742170 
# 
# From -- ./inp_files/1678.got.cif
#   From: 2010.03.12/outbox.cif.g09.slc.cpg/sg128_1_cif.got.tgz:1678.got - 2010.04.06 17:11:05.
