data_PCOD8314005
_publ_section_title
;
Structure prediction by ZEFSAII (Michael W. Deem and Ramdas Pophale) SiO2 
 PCOD8314005
Probable space group: P 4/M B M
;
_chemical_formula_sum "Si O2"
_cell_formula_units_Z 80
_cell_length_a 18.531937
_cell_length_b 18.531937
_cell_length_c 15.547219
_cell_angle_alpha 90.000000
_cell_angle_beta 90.000000
_cell_angle_gamma 90.000000
_cell_volume 5339.423227
_symmetry_space_group_name_H-M "P 4/M B M"
_symmetry_group_IT_number 127
_symmetry_cell_setting 'tetragonal'
loop_
_space_group_symop_operation_xyz
x,y,z
-y,x,z
-x,-y,z
y,-x,z
1/2+x,1/2-y,-z
1/2-x,1/2+y,-z
1/2+y,1/2+x,-z
1/2-y,1/2-x,-z
-x,-y,-z
y,-x,-z
x,y,-z
-y,x,-z
1/2-x,1/2+y,z
1/2+x,1/2-y,z
1/2-y,1/2-x,z
1/2+y,1/2+x,z
loop_
_atom_site_type_symbol
_atom_site_label
_atom_site_fract_x
_atom_site_fract_y
_atom_site_fract_z
Si Si1 0.114875 0.614875 0.399490
Si Si2 0.897871 0.059616 0.000000
Si Si3 0.060679 0.104014 0.186624
Si Si4 0.733581 0.766420 0.398608
Si Si5 0.159436 0.459750 0.599686
Si Si6 0.105793 0.945809 0.500000
Si Si7 0.302285 0.391436 0.342752
O O1 0.103407 0.603407 0.500000
O O2 0.174120 0.674120 0.378164
O O3 0.139983 0.538107 0.361603
O O4 0.862090 0.080505 0.908178
O O5 0.974684 0.096319 0.000000
O O6 0.094415 0.160726 0.251901
O O7 0.974528 0.096826 0.199517
O O8 0.746077 0.753924 0.500000
O O9 0.706391 0.693468 0.355722
O O10 0.184348 0.463236 0.500000
O O11 0.089658 0.410343 0.610058
O O12 0.224340 0.428689 0.656172
O O13 0.147917 0.924774 0.584612
O O14 0.031047 0.903662 0.500000
#
# Coordination Sequence:
#
# PCOD8314005 Si02
#       7
#     8   8  16   8  16   8  16
#     4   9  21  32  51  64  84 119 178 214 240 276
#     4   7  12  28  50  71  96 124 157 198 235 282
#     4   9  18  31  50  75 100 128 162 195 237 296
#     4  11  22  35  44  67  95 138 170 195 243 302
#     4  10  19  34  49  66  86 124 168 217 251 272
#     4  11  24  33  44  66  97 136 165 190 228 286
#     4  12  21  31  49  66 102 130 161 202 240 293
#
# _framework density 14.982891
#
# number of rings (size 3 to 8) (size 9 to 14) (size 15 to 20)
#    0.000    2.000    3.000    2.700    5.600    2.800 
#    0.000    0.000    0.000    0.600    0.000    0.000 
#    0.000    0.800    0.000    1.900    0.000    0.000 
#
# Total GULP energy -991646.262107 kJ/mol
# GULP energy per Si atom -12395.578276 kJ/mol
# Density = 1.494879 g / cm^3
# Si number density = 14.982891 Si / 1000 Ang^3
#
#
#
# Elastic Constant Matrix: (Units=GPa)
#
#
# Indices 1 2 3 4 5 6 
#
# 1 -156.8025 291.3590 39.8908 0.0000 0.0000 0.0000
# 2 291.3590 -156.8414 39.8903 0.0000 0.0000 0.0000
# 3 39.8908 39.8903 103.6294 0.0000 0.0000 0.0000
# 4 0.0000 0.0000 0.0000 37.9568 0.0000 0.0000
# 5 0.0000 0.0000 0.0000 0.0000 37.9558 0.0000
# 6 0.0000 0.0000 0.0000 0.0000 0.0000 32.9113
#
#
#
# Elastic Compliance Matrix: (Units=1/GPa)
#
#
# Indices 1 2 3 4 5 6 
#
# 1 0.003701 0.005931 -0.003708 0.000000 0.000000 0.000000
# 2 0.005931 0.003700 -0.003707 0.000000 0.000000 0.000000
# 3 -0.003708 -0.003707 0.012504 0.000000 0.000000 0.000000
# 4 0.000000 0.000000 0.000000 0.026346 0.000000 0.000000
# 5 0.000000 0.000000 0.000000 0.000000 0.026346 0.000000
# 6 0.000000 0.000000 0.000000 0.000000 0.000000 0.030385
#
#
# Mechanical properties :
#
#
# Convention : Reuss Voigt Hill
#
# Bulk Modulus (GPa) = 59.04224 59.14064 59.09144
# Shear Modulus (GPa) = 44.80526 -16.97886 13.91320
#
# Velocity S-wave (km/s) = 5.47441 -3.36998 3.05061
# Velocity P-wave (km/s) = 8.91352 4.94120 7.20647
#
# Compressibility (1/GPa) = 0.01693703
#
# Stress axis : x y z
#
# Youngs Moduli (GPa) = 270.23236 270.29281 79.97412
#
# Poissons Ratio (x) = -1.60320 0.29651
# Poissons Ratio (y) = -1.60284 0.29649
# Poissons Ratio (z) = 1.00192 1.00206
#
# Static dielectric constant tensor:
#      x y z
#    x 3.067750 0.000000 0.000000 
#    y 0.000000 3.067710 0.000000 
#    z 0.000000 0.000000 3.084460 
# 
# 
# High freq. dielectric constant tensor:
#      x y z
#    x 1.572910 0.000000 0.000000 
#    y 0.000000 1.572910 0.000000 
#    z 0.000000 0.000000 1.543570 
# 
# From -- ./inp_files/4329.got.cif
#   From: 2010.03.12/outbox.cif.g09.slc.cpg/sg127_3_cif.got.tgz:4329.got - 2010.04.06 17:03:15.
