data_PCOD8314692
_publ_section_title
;
Structure prediction by ZEFSAII (Michael W. Deem and Ramdas Pophale) SiO2 
 PCOD8314692
Probable space group: P 4/M N C
;
_chemical_formula_sum "Si O2"
_cell_formula_units_Z 112
_cell_length_a 14.244753
_cell_length_b 14.244753
_cell_length_c 28.512526
_cell_angle_alpha 90.000000
_cell_angle_beta 90.000000
_cell_angle_gamma 90.000000
_cell_volume 5785.561847
_symmetry_space_group_name_H-M "P 4/M N C"
_symmetry_group_IT_number 128
_symmetry_cell_setting 'tetragonal'
loop_
_space_group_symop_operation_xyz
x,y,z
-y,x,z
-x,-y,z
y,-x,z
1/2+x,1/2-y,1/2-z
1/2-x,1/2+y,1/2-z
1/2+y,1/2+x,1/2-z
1/2-y,1/2-x,1/2-z
-x,-y,-z
y,-x,-z
x,y,-z
-y,x,-z
1/2-x,1/2+y,1/2+z
1/2+x,1/2-y,1/2+z
1/2-y,1/2-x,1/2+z
1/2+y,1/2+x,1/2+z
loop_
_atom_site_type_symbol
_atom_site_label
_atom_site_fract_x
_atom_site_fract_y
_atom_site_fract_z
Si Si1 0.915412 0.728732 0.118362
Si Si2 0.316607 0.065020 0.629338
Si Si3 0.114915 0.767391 0.136695
Si Si4 0.367021 0.572355 0.168340
Si Si5 0.865604 0.926397 0.774232
Si Si6 0.903283 0.555198 0.946399
Si Si7 0.931474 0.586713 0.305252
O O1 0.828148 0.801408 0.113623
O O2 0.910655 0.660121 0.073699
O O3 0.915594 0.666601 0.166415
O O4 0.011040 0.791515 0.116307
O O5 0.382098 0.155849 0.628464
O O6 0.212156 0.108818 0.632928
O O7 0.326848 0.005064 0.582068
O O8 0.328579 0.995902 0.674774
O O9 0.117946 0.787053 0.192412
O O10 0.375334 0.462310 0.157994
O O11 0.334517 0.592018 0.221310
O O12 0.963515 0.875228 0.784717
O O13 0.000000 0.500000 0.940469
O O14 0.870749 0.561603 0.000000
O O15 0.906451 0.593550 0.250000
O O16 0.000000 0.500000 0.316754
#
# Coordination Sequence:
#
# PCOD8314692 Si02
#       7
#    16  16  16  16  16  16  16
#     4  11  23  40  56  91 120 156 199 247 302 358
#     4  11  22  36  60  90 113 150 205 250 306 359
#     4  12  22  35  57  85 126 156 203 249 290 355
#     4   9  21  37  54  78 121 167 207 245 292 351
#     4   9  18  33  50  75 116 175 212 231 274 347
#     4  10  21  45  71  86 111 148 190 246 312 376
#     4  10  21  37  55  77 121 160 199 255 300 342
#
# _framework density 19.358533999999999
#
# number of rings (size 3 to 8) (size 9 to 14) (size 15 to 20)
#    0.000    1.714    4.286    1.714    6.000    0.857 
#    0.000    1.429    0.000    0.000    0.000    2.000 
#    0.000    0.000    0.000    0.000    0.000    0.000 
#
# Total GULP energy -1388031.171196 kJ/mol
# GULP energy per Si atom -12393.135457 kJ/mol
# Density = 1.931447 g / cm^3
# Si number density = 19.358534 Si / 1000 Ang^3
#
#
#
# Elastic Constant Matrix: (Units=GPa)
#
#
# Indices 1 2 3 4 5 6 
#
# 1 80.2278 24.8021 33.5944 0.0000 0.0000 0.0000
# 2 24.8021 80.2277 33.5944 0.0000 0.0000 0.0000
# 3 33.5944 33.5944 111.8177 0.0000 0.0000 0.0000
# 4 0.0000 0.0000 0.0000 20.1547 0.0000 0.0000
# 5 0.0000 0.0000 0.0000 0.0000 20.1547 0.0000
# 6 0.0000 0.0000 0.0000 0.0000 0.0000 22.1807
#
#
#
# Elastic Compliance Matrix: (Units=1/GPa)
#
#
# Indices 1 2 3 4 5 6 
#
# 1 0.014914 -0.003128 -0.003541 0.000000 0.000000 0.000000
# 2 -0.003128 0.014914 -0.003541 0.000000 0.000000 0.000000
# 3 -0.003541 -0.003541 0.011071 0.000000 0.000000 0.000000
# 4 0.000000 0.000000 0.000000 0.049616 0.000000 0.000000
# 5 0.000000 0.000000 0.000000 0.000000 0.049616 0.000000
# 6 0.000000 0.000000 0.000000 0.000000 0.000000 0.045084
#
#
# Mechanical properties :
#
#
# Convention : Reuss Voigt Hill
#
# Bulk Modulus (GPa) = 48.82983 50.69501 49.76242
# Shear Modulus (GPa) = 23.53356 24.51686 24.02521
#
# Velocity S-wave (km/s) = 3.49043 3.56260 3.52670
# Velocity P-wave (km/s) = 6.44382 6.57017 6.50730
#
# Compressibility (1/GPa) = 0.02047929
#
# Stress axis : x y z
#
# Youngs Moduli (GPa) = 67.04992 67.04977 90.32703
#
# Poissons Ratio (x) = 0.20973 0.31985
# Poissons Ratio (y) = 0.20973 0.31986
# Poissons Ratio (z) = 0.23743 0.23743
#
# Static dielectric constant tensor:
#      x y z
#    x 3.510350 0.000000 0.000000 
#    y 0.000000 3.510350 0.000000 
#    z 0.000000 0.000000 3.271170 
# 
# 
# High freq. dielectric constant tensor:
#      x y z
#    x 1.756760 0.000000 0.000000 
#    y 0.000000 1.756760 0.000000 
#    z 0.000000 0.000000 1.714570 
# 
# From -- ./inp_files/6900.got.cif
#   From: 2010.03.12/outbox.cif.g09.slc.cpg/sg128_4_cif.got.tgz:6900.got - 2010.04.06 17:11:05.
