data_PCOD8314720
_publ_section_title
;
Structure prediction by ZEFSAII (Michael W. Deem and Ramdas Pophale) SiO2 
 PCOD8314720
Probable space group: P 4/M N C
;
_chemical_formula_sum "Si O2"
_cell_formula_units_Z 112
_cell_length_a 14.287639
_cell_length_b 14.287639
_cell_length_c 24.773603
_cell_angle_alpha 90.000000
_cell_angle_beta 90.000000
_cell_angle_gamma 90.000000
_cell_volume 5057.199785
_symmetry_space_group_name_H-M "P 4/M N C"
_symmetry_group_IT_number 128
_symmetry_cell_setting 'tetragonal'
loop_
_space_group_symop_operation_xyz
x,y,z
-y,x,z
-x,-y,z
y,-x,z
1/2+x,1/2-y,1/2-z
1/2-x,1/2+y,1/2-z
1/2+y,1/2+x,1/2-z
1/2-y,1/2-x,1/2-z
-x,-y,-z
y,-x,-z
x,y,-z
-y,x,-z
1/2-x,1/2+y,1/2+z
1/2+x,1/2-y,1/2+z
1/2-y,1/2-x,1/2+z
1/2+y,1/2+x,1/2+z
loop_
_atom_site_type_symbol
_atom_site_label
_atom_site_fract_x
_atom_site_fract_y
_atom_site_fract_z
Si Si1 0.779937 0.743038 0.688438
Si Si2 0.930401 0.254806 0.937160
Si Si3 0.533662 0.165771 0.219056
Si Si4 0.907419 0.822139 0.117294
Si Si5 0.188439 0.598144 0.128006
Si Si6 0.353033 0.497269 0.278117
Si Si7 0.982321 0.149936 0.563296
O O1 0.746649 0.753352 0.750000
O O2 0.888144 0.717678 0.684089
O O3 0.723322 0.659062 0.661653
O O4 0.765050 0.837379 0.656317
O O5 0.889315 0.152806 0.921344
O O6 0.884451 0.342226 0.906455
O O7 0.040906 0.251599 0.922674
O O8 0.914835 0.272636 0.000000
O O9 0.575179 0.075179 0.250000
O O10 0.455415 0.132521 0.176139
O O11 0.495547 0.244392 0.260758
O O12 0.992341 0.861904 0.155903
O O13 0.249099 0.527440 0.091605
O O14 0.409017 0.405221 0.256304
O O15 0.979383 0.168581 0.500000
O O16 0.080751 0.102814 0.579706
#
# Coordination Sequence:
#
# PCOD8314720 Si02
#       7
#    16  16  16  16  16  16  16
#     4  10  21  39  61  90 130 165 209 259 320 389
#     4  11  25  43  66  94 124 166 221 274 329 386
#     4  11  22  38  62  94 131 172 213 259 314 392
#     4  11  21  39  66  92 128 167 205 267 330 384
#     4  11  23  38  64  90 129 172 219 265 315 386
#     4  11  21  36  62  97 133 170 208 261 331 395
#     4   9  18  35  61  93 129 164 212 278 338 382
#
# _framework density 22.146642
#
# number of rings (size 3 to 8) (size 9 to 14) (size 15 to 20)
#    0.000    1.429    4.286    3.000    0.000    0.286 
#    0.000    3.571    0.000    3.429    0.000    0.000 
#    0.000    0.000    0.000    0.000    0.000    0.000 
#
# Total GULP energy -1387976.994202 kJ/mol
# GULP energy per Si atom -12392.651734 kJ/mol
# Density = 2.209624 g / cm^3
# Si number density = 22.146642 Si / 1000 Ang^3
#
#
#
# Elastic Constant Matrix: (Units=GPa)
#
#
# Indices 1 2 3 4 5 6 
#
# 1 65.6769 31.8601 49.2272 0.0000 0.0000 0.0000
# 2 31.8601 65.6764 49.2270 0.0000 0.0000 0.0000
# 3 49.2272 49.2270 132.3229 0.0000 0.0000 0.0000
# 4 0.0000 0.0000 0.0000 25.2279 0.0000 0.0000
# 5 0.0000 0.0000 0.0000 0.0000 25.2278 0.0000
# 6 0.0000 0.0000 0.0000 0.0000 0.0000 23.1657
#
#
#
# Elastic Compliance Matrix: (Units=1/GPa)
#
#
# Indices 1 2 3 4 5 6 
#
# 1 0.022994 -0.006577 -0.006108 0.000000 0.000000 0.000000
# 2 -0.006577 0.022995 -0.006108 0.000000 0.000000 0.000000
# 3 -0.006108 -0.006108 0.012102 0.000000 0.000000 0.000000
# 4 0.000000 0.000000 0.000000 0.039639 0.000000 0.000000
# 5 0.000000 0.000000 0.000000 0.000000 0.039639 0.000000
# 6 0.000000 0.000000 0.000000 0.000000 0.000000 0.043167
#
#
# Mechanical properties :
#
#
# Convention : Reuss Voigt Hill
#
# Bulk Modulus (GPa) = 48.76583 58.25609 53.51096
# Shear Modulus (GPa) = 22.22661 23.61508 22.92085
#
# Velocity S-wave (km/s) = 3.17142 3.26898 3.22057
# Velocity P-wave (km/s) = 5.95633 6.37260 6.16798
#
# Compressibility (1/GPa) = 0.02050616
#
# Stress axis : x y z
#
# Youngs Moduli (GPa) = 43.48878 43.48839 82.63272
#
# Poissons Ratio (x) = 0.28601 0.50470
# Poissons Ratio (y) = 0.28602 0.50471
# Poissons Ratio (z) = 0.26562 0.26562
#
# Static dielectric constant tensor:
#      x y z
#    x 3.995380 0.000000 0.000000 
#    y 0.000000 3.995380 0.000000 
#    z 0.000000 0.000000 3.948320 
# 
# 
# High freq. dielectric constant tensor:
#      x y z
#    x 1.865700 0.000000 0.000000 
#    y 0.000000 1.865700 0.000000 
#    z 0.000000 0.000000 1.868390 
# 
# From -- ./inp_files/6475.got.cif
#   From: 2010.03.12/outbox.cif.g09.slc.cpg/sg128_4_cif.got.tgz:6475.got - 2010.04.06 17:11:05.
