data_PCOD8314529
_publ_section_title
;
Structure prediction by ZEFSAII (Michael W. Deem and Ramdas Pophale) SiO2 
 PCOD8314529
Probable space group: P 4/M N C
;
_chemical_formula_sum "Si O2"
_cell_formula_units_Z 96
_cell_length_a 24.851683
_cell_length_b 24.851683
_cell_length_c 9.167255
_cell_angle_alpha 90.000000
_cell_angle_beta 90.000000
_cell_angle_gamma 90.000000
_cell_volume 5661.753048
_symmetry_space_group_name_H-M "P 4/M N C"
_symmetry_group_IT_number 128
_symmetry_cell_setting 'tetragonal'
loop_
_space_group_symop_operation_xyz
x,y,z
-y,x,z
-x,-y,z
y,-x,z
1/2+x,1/2-y,1/2-z
1/2-x,1/2+y,1/2-z
1/2+y,1/2+x,1/2-z
1/2-y,1/2-x,1/2-z
-x,-y,-z
y,-x,-z
x,y,-z
-y,x,-z
1/2-x,1/2+y,1/2+z
1/2+x,1/2-y,1/2+z
1/2-y,1/2-x,1/2+z
1/2+y,1/2+x,1/2+z
loop_
_atom_site_type_symbol
_atom_site_label
_atom_site_fract_x
_atom_site_fract_y
_atom_site_fract_z
Si Si1 0.947355 0.754555 0.663681
Si Si2 0.744045 0.450523 0.661855
Si Si3 0.546850 0.618440 0.661013
Si Si4 0.242795 0.336747 0.327282
Si Si5 0.052913 0.118703 0.338289
Si Si6 0.750392 0.328886 0.671870
O O1 0.940964 0.730318 0.500000
O O2 0.896706 0.740583 0.764184
O O3 0.951747 0.817977 0.652465
O O4 0.002711 0.731005 0.734939
O O5 0.770296 0.454552 0.500000
O O6 0.681367 0.461178 0.646464
O O7 0.751608 0.390563 0.728244
O O8 0.548951 0.592475 0.500000
O O9 0.497929 0.593276 0.753524
O O10 0.602085 0.605719 0.746707
O O11 0.194958 0.305043 0.250000
O O12 0.232771 0.339119 0.500000
O O13 0.299367 0.306452 0.291276
O O14 0.056035 0.093935 0.500000
O O15 0.799250 0.299250 0.750000
O O16 0.760141 0.326813 0.500000
#
# Coordination Sequence:
#
# PCOD8314529 Si02
#       6
#    16  16  16  16  16  16
#     4  10  20  32  47  68  92 120 154 190 231 279
#     4   9  18  32  48  66  90 120 153 189 229 275
#     4  10  19  31  46  61  78 106 147 188 227 273
#     4  10  19  32  50  72  99 129 161 198 239 284
#     4  10  20  32  44  60  83 109 141 185 234 276
#     4   9  18  31  48  71  97 126 159 194 236 283
#
# _framework density 16.955878999999999
#
# number of rings (size 3 to 8) (size 9 to 14) (size 15 to 20)
#    0.000    2.333    0.000    3.000    0.000    5.667 
#    0.000    1.667    0.000    0.000    0.000    0.000 
#    0.000    0.667    0.000    7.000    0.000    3.833 
#
# Total GULP energy -1189835.839660 kJ/mol
# GULP energy per Si atom -12394.123330 kJ/mol
# Density = 1.691729 g / cm^3
# Si number density = 16.955879 Si / 1000 Ang^3
#
#
#
# Elastic Constant Matrix: (Units=GPa)
#
#
# Indices 1 2 3 4 5 6 
#
# 1 80.8664 24.1335 40.6927 0.0000 0.0000 0.0000
# 2 24.1335 80.8650 40.6925 0.0000 0.0000 0.0000
# 3 40.6927 40.6925 118.8661 0.0000 0.0000 0.0000
# 4 0.0000 0.0000 0.0000 24.0219 0.0000 0.0000
# 5 0.0000 0.0000 0.0000 0.0000 24.0220 0.0000
# 6 0.0000 0.0000 0.0000 0.0000 0.0000 20.0559
#
#
#
# Elastic Compliance Matrix: (Units=1/GPa)
#
#
# Indices 1 2 3 4 5 6 
#
# 1 0.015295 -0.002331 -0.004438 0.000000 0.000000 0.000000
# 2 -0.002331 0.015295 -0.004438 0.000000 0.000000 0.000000
# 3 -0.004438 -0.004438 0.011451 0.000000 0.000000 0.000000
# 4 0.000000 0.000000 0.000000 0.041629 0.000000 0.000000
# 5 0.000000 0.000000 0.000000 0.000000 0.041628 0.000000
# 6 0.000000 0.000000 0.000000 0.000000 0.000000 0.049861
#
#
# Mechanical properties :
#
#
# Convention : Reuss Voigt Hill
#
# Bulk Modulus (GPa) = 50.95030 54.62608 52.78819
# Shear Modulus (GPa) = 24.49575 25.29189 24.89382
#
# Velocity S-wave (km/s) = 3.80501 3.86635 3.83580
# Velocity P-wave (km/s) = 7.02980 7.22621 7.12868
#
# Compressibility (1/GPa) = 0.01962697
#
# Stress axis : x y z
#
# Youngs Moduli (GPa) = 65.38047 65.37920 87.32516
#
# Poissons Ratio (x) = 0.15243 0.38755
# Poissons Ratio (y) = 0.15243 0.38755
# Poissons Ratio (z) = 0.29016 0.29016
#
# Static dielectric constant tensor:
#      x y z
#    x 2.994690 0.000000 0.000000 
#    y 0.000000 2.994700 0.000000 
#    z 0.000000 0.000000 3.638970 
# 
# 
# High freq. dielectric constant tensor:
#      x y z
#    x 1.623440 0.000000 0.000000 
#    y 0.000000 1.623440 0.000000 
#    z 0.000000 0.000000 1.672410 
# 
# From -- ./inp_files/1427.got.cif
#   From: 2010.03.12/outbox.cif.g09.slc.cpg/sg128_1_cif.got.tgz:1427.got - 2010.04.06 17:11:05.
