data_PCOD8314109
_publ_section_title
;
Structure prediction by ZEFSAII (Michael W. Deem and Ramdas Pophale) SiO2 
 PCOD8314109
Probable space group: P 4/M B M
;
_chemical_formula_sum "Si O2"
_cell_formula_units_Z 72
_cell_length_a 21.352934
_cell_length_b 21.352934
_cell_length_c 8.683467
_cell_angle_alpha 90.000000
_cell_angle_beta 90.000000
_cell_angle_gamma 90.000000
_cell_volume 3959.207592
_symmetry_space_group_name_H-M "P 4/M B M"
_symmetry_group_IT_number 127
_symmetry_cell_setting 'tetragonal'
loop_
_space_group_symop_operation_xyz
x,y,z
-y,x,z
-x,-y,z
y,-x,z
1/2+x,1/2-y,-z
1/2-x,1/2+y,-z
1/2+y,1/2+x,-z
1/2-y,1/2-x,-z
-x,-y,-z
y,-x,-z
x,y,-z
-y,x,-z
1/2-x,1/2+y,z
1/2+x,1/2-y,z
1/2-y,1/2-x,z
1/2+y,1/2+x,z
loop_
_atom_site_type_symbol
_atom_site_label
_atom_site_fract_x
_atom_site_fract_y
_atom_site_fract_z
Si Si1 0.653024 0.248372 0.829030
Si Si2 0.551086 0.051086 0.181746
Si Si3 0.381814 0.383448 0.822598
Si Si4 0.186393 0.458088 0.677902
Si Si5 0.501873 0.679651 0.320300
O O1 0.723557 0.223557 0.820535
O O2 0.659130 0.321200 0.793985
O O3 0.612308 0.209661 0.707091
O O4 0.623516 0.237808 0.000000
O O5 0.620643 0.029648 0.235988
O O6 0.500000 0.000000 0.240607
O O7 0.552626 0.052626 0.000000
O O8 0.431951 0.351538 0.712563
O O9 0.363457 0.453397 0.773163
O O10 0.404483 0.383750 0.000000
O O11 0.171421 0.468232 0.500000
O O12 0.246473 0.500975 0.731046
O O13 0.485406 0.675537 0.500000
#
# Coordination Sequence:
#
# PCOD8314109 Si02
#       5
#    16   8  16  16  16
#     4   9  17  31  53  79 105 134 171 220 271 318
#     4  11  23  37  55  81 111 145 185 225 271 324
#     4  10  20  34  54  80 108 142 185 226 270 325
#     4  10  20  34  55  80 106 138 176 220 268 318
#     4  10  21  37  55  78 110 144 180 224 277 326
#
# _framework density 18.185457
#
# number of rings (size 3 to 8) (size 9 to 14) (size 15 to 20)
#    0.000    2.111    1.111    2.333    0.000    4.889 
#    0.000    3.333    0.000    4.000    0.000    0.000 
#    0.000    0.000    0.000    0.000    0.000    0.000 
#
# Total GULP energy -892195.139892 kJ/mol
# GULP energy per Si atom -12391.599165 kJ/mol
# Density = 1.814407 g / cm^3
# Si number density = 18.185457 Si / 1000 Ang^3
#
#
#
# Elastic Constant Matrix: (Units=GPa)
#
#
# Indices 1 2 3 4 5 6 
#
# 1 103.5647 63.2359 27.4990 0.0000 0.0000 0.0000
# 2 63.2359 103.5647 27.4990 0.0000 0.0000 0.0000
# 3 27.4990 27.4990 54.7953 0.0000 0.0000 0.0000
# 4 0.0000 0.0000 0.0000 24.1914 0.0000 0.0000
# 5 0.0000 0.0000 0.0000 0.0000 24.1914 0.0000
# 6 0.0000 0.0000 0.0000 0.0000 0.0000 28.5932
#
#
#
# Elastic Compliance Matrix: (Units=1/GPa)
#
#
# Indices 1 2 3 4 5 6 
#
# 1 0.015990 -0.008806 -0.003605 0.000000 0.000000 0.000000
# 2 -0.008806 0.015990 -0.003605 0.000000 0.000000 0.000000
# 3 -0.003605 -0.003605 0.021868 0.000000 0.000000 0.000000
# 4 0.000000 0.000000 0.000000 0.041337 0.000000 0.000000
# 5 0.000000 0.000000 0.000000 0.000000 0.041337 0.000000
# 6 0.000000 0.000000 0.000000 0.000000 0.000000 0.034973
#
#
# Mechanical properties :
#
#
# Convention : Reuss Voigt Hill
#
# Bulk Modulus (GPa) = 45.83963 55.37692 50.60827
# Shear Modulus (GPa) = 23.71910 24.97461 24.34685
#
# Velocity S-wave (km/s) = 3.61541 3.70987 3.66294
# Velocity P-wave (km/s) = 6.53374 6.99057 6.76601
#
# Compressibility (1/GPa) = 0.02181519
#
# Stress axis : x y z
#
# Youngs Moduli (GPa) = 62.53887 62.53887 45.72826
#
# Poissons Ratio (x) = 0.55073 0.16486
# Poissons Ratio (y) = 0.55073 0.16486
# Poissons Ratio (z) = 0.22547 0.22547
#
# Static dielectric constant tensor:
#      x y z
#    x 3.360110 0.000000 0.000000 
#    y 0.000000 3.360110 0.000000 
#    z 0.000000 0.000000 3.416220 
# 
# 
# High freq. dielectric constant tensor:
#      x y z
#    x 1.695630 0.000000 0.000000 
#    y 0.000000 1.695630 0.000000 
#    z 0.000000 0.000000 1.713860 
# 
# From -- ./inp_files/1599.got.cif
#   From: 2010.03.12/outbox.cif.g09.slc.cpg/sg127_1_cif.got.tgz:1599.got - 2010.04.06 17:03:15.
