data_PCOD8314193
_publ_section_title
;
Structure prediction by ZEFSAII (Michael W. Deem and Ramdas Pophale) SiO2 
 PCOD8314193
Probable space group: P 4/M B M
;
_chemical_formula_sum "Si O2"
_cell_formula_units_Z 96
_cell_length_a 20.486162
_cell_length_b 20.486162
_cell_length_c 12.974938
_cell_angle_alpha 90.000000
_cell_angle_beta 90.000000
_cell_angle_gamma 90.000000
_cell_volume 5445.358744
_symmetry_space_group_name_H-M "P 4/M B M"
_symmetry_group_IT_number 127
_symmetry_cell_setting 'tetragonal'
loop_
_space_group_symop_operation_xyz
x,y,z
-y,x,z
-x,-y,z
y,-x,z
1/2+x,1/2-y,-z
1/2-x,1/2+y,-z
1/2+y,1/2+x,-z
1/2-y,1/2-x,-z
-x,-y,-z
y,-x,-z
x,y,-z
-y,x,-z
1/2-x,1/2+y,z
1/2+x,1/2-y,z
1/2-y,1/2-x,z
1/2+y,1/2+x,z
loop_
_atom_site_type_symbol
_atom_site_label
_atom_site_fract_x
_atom_site_fract_y
_atom_site_fract_z
Si Si1 0.898707 0.005231 0.377685
Si Si2 0.483360 0.255323 0.621835
Si Si3 0.418733 0.813950 0.239785
Si Si4 0.360936 0.036958 0.880187
Si Si5 0.720611 0.669767 0.883028
Si Si6 0.264510 0.128619 0.224888
O O1 0.900251 0.003788 0.500000
O O2 0.825175 0.009275 0.339088
O O3 0.932429 0.938723 0.336011
O O4 0.476215 0.248308 0.500000
O O5 0.538204 0.205202 0.661061
O O6 0.411637 0.245829 0.669822
O O7 0.358654 0.858654 0.277683
O O8 0.465076 0.856856 0.166730
O O9 0.391969 0.750630 0.178304
O O10 0.424155 0.075846 0.835627
O O11 0.296084 0.079476 0.858188
O O12 0.368628 0.027738 0.000000
O O13 0.773549 0.726452 0.889494
O O14 0.656808 0.697098 0.822829
O O15 0.701653 0.648485 0.000000
O O16 0.311949 0.188051 0.253314
#
# Coordination Sequence:
#
# PCOD8314193 Si02
#       6
#    16  16  16  16  16  16
#     4   8  15  29  49  71  92 117 156 206 252 290
#     4  10  21  34  51  73 100 137 176 216 254 293
#     4  10  21  34  48  73 106 137 174 212 253 310
#     4   9  17  31  52  75  99 128 166 215 263 305
#     4   9  17  31  52  76 104 135 165 207 264 321
#     4   9  18  32  50  74 101 131 171 211 254 312
#
# _framework density 17.629694000000001
#
# number of rings (size 3 to 8) (size 9 to 14) (size 15 to 20)
#    0.000    2.833    0.000    1.500    2.333    4.000 
#    0.000    0.833    0.000    3.000    0.000    4.667 
#    0.000    1.333    0.000    0.000    0.000    0.000 
#
# Total GULP energy -1189886.518709 kJ/mol
# GULP energy per Si atom -12394.651237 kJ/mol
# Density = 1.758957 g / cm^3
# Si number density = 17.629694 Si / 1000 Ang^3
#
#
#
# Elastic Constant Matrix: (Units=GPa)
#
#
# Indices 1 2 3 4 5 6 
#
# 1 84.6153 32.1292 37.0519 0.0000 0.0000 0.0000
# 2 32.1292 84.6153 37.0519 0.0000 0.0000 0.0000
# 3 37.0519 37.0519 88.2573 0.0000 0.0000 0.0000
# 4 0.0000 0.0000 0.0000 19.7696 0.0000 0.0000
# 5 0.0000 0.0000 0.0000 0.0000 19.7696 0.0000
# 6 0.0000 0.0000 0.0000 0.0000 0.0000 27.0847
#
#
#
# Elastic Compliance Matrix: (Units=1/GPa)
#
#
# Indices 1 2 3 4 5 6 
#
# 1 0.015365 -0.003688 -0.004902 0.000000 0.000000 0.000000
# 2 -0.003688 0.015365 -0.004902 0.000000 0.000000 0.000000
# 3 -0.004902 -0.004902 0.015447 0.000000 0.000000 0.000000
# 4 0.000000 0.000000 0.000000 0.050583 0.000000 0.000000
# 5 0.000000 0.000000 0.000000 0.000000 0.050583 0.000000
# 6 0.000000 0.000000 0.000000 0.000000 0.000000 0.036921
#
#
# Mechanical properties :
#
#
# Convention : Reuss Voigt Hill
#
# Bulk Modulus (GPa) = 52.10473 52.21711 52.16092
# Shear Modulus (GPa) = 22.97312 23.40846 23.19079
#
# Velocity S-wave (km/s) = 3.61375 3.64783 3.63083
# Velocity P-wave (km/s) = 6.85795 6.88661 6.87230
#
# Compressibility (1/GPa) = 0.01919212
#
# Stress axis : x y z
#
# Youngs Moduli (GPa) = 65.08258 65.08258 64.73848
#
# Poissons Ratio (x) = 0.24000 0.31738
# Poissons Ratio (y) = 0.24000 0.31738
# Poissons Ratio (z) = 0.31906 0.31906
#
# Static dielectric constant tensor:
#      x y z
#    x 3.382540 0.000000 0.000000 
#    y 0.000000 3.382540 0.000000 
#    z 0.000000 0.000000 3.012790 
# 
# 
# High freq. dielectric constant tensor:
#      x y z
#    x 1.681000 0.000000 0.000000 
#    y 0.000000 1.681000 0.000000 
#    z 0.000000 0.000000 1.656530 
# 
# From -- ./inp_files/3513.got.cif
#   From: 2010.03.12/outbox.cif.g09.slc.cpg/sg127_2_cif.got.tgz:3513.got - 2010.04.06 17:03:15.
