data_PCOD8314119
_publ_section_title
;
Structure prediction by ZEFSAII (Michael W. Deem and Ramdas Pophale) SiO2 
 PCOD8314119
Probable space group: P 4/M B M
;
_chemical_formula_sum "Si O2"
_cell_formula_units_Z 64
_cell_length_a 19.583732
_cell_length_b 19.583732
_cell_length_c 9.334124
_cell_angle_alpha 90.000000
_cell_angle_beta 90.000000
_cell_angle_gamma 90.000000
_cell_volume 3579.847123
_symmetry_space_group_name_H-M "P 4/M B M"
_symmetry_group_IT_number 127
_symmetry_cell_setting 'tetragonal'
loop_
_space_group_symop_operation_xyz
x,y,z
-y,x,z
-x,-y,z
y,-x,z
1/2+x,1/2-y,-z
1/2-x,1/2+y,-z
1/2+y,1/2+x,-z
1/2-y,1/2-x,-z
-x,-y,-z
y,-x,-z
x,y,-z
-y,x,-z
1/2-x,1/2+y,z
1/2+x,1/2-y,z
1/2-y,1/2-x,z
1/2+y,1/2+x,z
loop_
_atom_site_type_symbol
_atom_site_label
_atom_site_fract_x
_atom_site_fract_y
_atom_site_fract_z
Si Si1 0.220792 0.279209 0.831541
Si Si2 0.255919 0.546053 0.335219
Si Si3 0.105660 0.032515 0.168389
Si Si4 0.814677 0.314677 0.337647
Si Si5 0.201149 0.403423 0.337434
O O1 0.275607 0.224394 0.786227
O O2 0.147681 0.255868 0.764951
O O3 0.215335 0.284666 0.000000
O O4 0.278030 0.540160 0.500000
O O5 0.325397 0.555559 0.246932
O O6 0.201633 0.606216 0.311695
O O7 0.213406 0.479846 0.283076
O O8 0.044600 0.084205 0.212028
O O9 0.118927 0.036740 0.000000
O O10 0.793004 0.293004 0.500000
O O11 0.227868 0.394918 0.500000
O O12 0.120855 0.379146 0.328110
#
# Coordination Sequence:
#
# PCOD8314119 Si02
#       5
#     8  16  16   8  16
#     4  10  20  34  56  82 106 143 188 225 275 334
#     4  10  21  36  57  81 110 148 186 230 284 332
#     4   9  20  37  54  77 112 148 180 225 282 335
#     4  10  22  38  53  80 118 148 184 236 284 332
#     4   8  17  35  56  78 106 137 178 229 275 324
#
# _framework density 17.877859000000001
#
# number of rings (size 3 to 8) (size 9 to 14) (size 15 to 20)
#    0.750    2.000    0.000    1.500    3.500    3.000 
#    0.000    1.875    0.000    3.750    0.000    0.875 
#    0.000    0.000    0.000    0.000    0.000    0.000 
#
# Total GULP energy -792969.328601 kJ/mol
# GULP energy per Si atom -12390.145759 kJ/mol
# Density = 1.783717 g / cm^3
# Si number density = 17.877859 Si / 1000 Ang^3
#
#
#
# Elastic Constant Matrix: (Units=GPa)
#
#
# Indices 1 2 3 4 5 6 
#
# 1 61.3334 60.2714 33.0417 0.0000 0.0000 0.0000
# 2 60.2714 61.3303 33.0395 0.0000 0.0000 0.0000
# 3 33.0417 33.0395 71.4999 0.0000 0.0000 0.0000
# 4 0.0000 0.0000 0.0000 11.5176 0.0000 0.0000
# 5 0.0000 0.0000 0.0000 0.0000 11.5181 0.0000
# 6 0.0000 0.0000 0.0000 0.0000 0.0000 28.5310
#
#
#
# Elastic Compliance Matrix: (Units=1/GPa)
#
#
# Indices 1 2 3 4 5 6 
#
# 1 0.477001 -0.466025 -0.005087 0.000000 0.000000 0.000000
# 2 -0.466025 0.477011 -0.005062 0.000000 0.000000 0.000000
# 3 -0.005087 -0.005062 0.018676 0.000000 0.000000 0.000000
# 4 0.000000 0.000000 0.000000 0.086824 0.000000 0.000000
# 5 0.000000 0.000000 0.000000 0.000000 0.086820 0.000000
# 6 0.000000 0.000000 0.000000 0.000000 0.000000 0.035050
#
#
# Mechanical properties :
#
#
# Convention : Reuss Voigt Hill
#
# Bulk Modulus (GPa) = 49.16358 49.65208 49.40783
# Shear Modulus (GPa) = 2.33589 14.83405 8.58497
#
# Velocity S-wave (km/s) = 1.14430 2.88365 2.19373
# Velocity P-wave (km/s) = 5.41344 6.23863 5.84063
#
# Compressibility (1/GPa) = 0.02034026
#
# Stress axis : x y z
#
# Youngs Moduli (GPa) = 2.09643 2.09639 53.54510
#
# Poissons Ratio (x) = 0.97697 0.27236
# Poissons Ratio (y) = 0.97699 0.27106
# Poissons Ratio (z) = 0.01066 0.01061
#
# Static dielectric constant tensor:
#      x y z
#    x 3.275820 0.000000 0.000000 
#    y 0.000000 3.275820 0.000000 
#    z 0.000000 0.000000 3.173810 
# 
# 
# High freq. dielectric constant tensor:
#      x y z
#    x 1.682820 0.000000 0.000000 
#    y 0.000000 1.682820 0.000000 
#    z 0.000000 0.000000 1.684440 
# 
# From -- ./inp_files/1441.got.cif
#   From: 2010.03.12/outbox.cif.g09.slc.cpg/sg127_1_cif.got.tgz:1441.got - 2010.04.06 17:03:15.
