data_PCOD8314344
_publ_section_title
;
Structure prediction by ZEFSAII (Michael W. Deem and Ramdas Pophale) SiO2 
 PCOD8314344
Probable space group: P 4/M B M
;
_chemical_formula_sum "Si O2"
_cell_formula_units_Z 96
_cell_length_a 24.388571
_cell_length_b 24.388571
_cell_length_c 8.048716
_cell_angle_alpha 90.000000
_cell_angle_beta 90.000000
_cell_angle_gamma 90.000000
_cell_volume 4787.395557
_symmetry_space_group_name_H-M "P 4/M B M"
_symmetry_group_IT_number 127
_symmetry_cell_setting 'tetragonal'
loop_
_space_group_symop_operation_xyz
x,y,z
-y,x,z
-x,-y,z
y,-x,z
1/2+x,1/2-y,-z
1/2-x,1/2+y,-z
1/2+y,1/2+x,-z
1/2-y,1/2-x,-z
-x,-y,-z
y,-x,-z
x,y,-z
-y,x,-z
1/2-x,1/2+y,z
1/2+x,1/2-y,z
1/2-y,1/2-x,z
1/2+y,1/2+x,z
loop_
_atom_site_type_symbol
_atom_site_label
_atom_site_fract_x
_atom_site_fract_y
_atom_site_fract_z
Si Si1 0.385184 0.885184 0.185733
Si Si2 0.359466 0.577767 0.310358
Si Si3 0.225717 0.982680 0.695625
Si Si4 0.069677 0.055104 0.000000
Si Si5 0.205518 0.294483 0.182888
Si Si6 0.456589 0.043412 0.189049
Si Si7 0.153634 0.496789 0.689110
Si Si8 0.306692 0.361359 0.196656
O O1 0.340029 0.840029 0.165973
O O2 0.361785 0.933892 0.293910
O O3 0.404427 0.904427 0.000000
O O4 0.380622 0.567205 0.500000
O O5 0.314633 0.532719 0.260142
O O6 0.407007 0.577398 0.173111
O O7 0.338497 0.640321 0.295888
O O8 0.229596 0.972675 0.500000
O O9 0.285103 0.002082 0.766778
O O10 0.205517 0.925888 0.775189
O O11 0.008977 0.076790 0.000000
O O12 0.258128 0.322502 0.270496
O O13 0.224216 0.275785 0.000000
O O14 0.466486 0.107289 0.225790
O O15 0.500000 0.000000 0.279043
O O16 0.466937 0.033064 0.000000
O O17 0.155192 0.515497 0.500000
O O18 0.314482 0.353389 0.000000
#
# Coordination Sequence:
#
# PCOD8314344 Si02
#       8
#     8  16  16   8   8   8  16  16
#     4  11  19  34  54  86 122 153 194 251 314 370
#     4  11  24  43  63  92 131 168 208 259 317 378
#     4  10  23  40  61  89 123 162 205 259 318 376
#     4  11  24  42  66  97 124 160 209 251 310 382
#     4   9  20  35  57  93 129 161 200 260 317 360
#     4  11  23  37  54  81 119 161 204 253 313 373
#     4  11  22  37  58  86 119 160 206 252 309 376
#     4  11  21  38  64  93 127 165 211 259 313 379
#
# _framework density 20.052655000000001
#
# number of rings (size 3 to 8) (size 9 to 14) (size 15 to 20)
#    0.000    1.333    3.333    2.500    1.167    3.000 
#    0.000    3.333    0.000    3.000    0.000    0.000 
#    0.000    0.000    0.000    0.000    0.000    0.000 
#
# Total GULP energy -1189555.366017 kJ/mol
# GULP energy per Si atom -12391.201729 kJ/mol
# Density = 2.000701 g / cm^3
# Si number density = 20.052655 Si / 1000 Ang^3
#
#
#
# Elastic Constant Matrix: (Units=GPa)
#
#
# Indices 1 2 3 4 5 6 
#
# 1 114.6999 42.0842 18.6048 0.0000 0.0000 0.0000
# 2 42.0842 114.7006 18.6052 0.0000 0.0000 0.0000
# 3 18.6048 18.6052 68.4294 0.0000 0.0000 0.0000
# 4 0.0000 0.0000 0.0000 17.0125 0.0000 0.0000
# 5 0.0000 0.0000 0.0000 0.0000 17.0126 0.0000
# 6 0.0000 0.0000 0.0000 0.0000 0.0000 38.2878
#
#
#
# Elastic Compliance Matrix: (Units=1/GPa)
#
#
# Indices 1 2 3 4 5 6 
#
# 1 0.010295 -0.003476 -0.001854 0.000000 0.000000 0.000000
# 2 -0.003476 0.010295 -0.001854 0.000000 0.000000 0.000000
# 3 -0.001854 -0.001854 0.015622 0.000000 0.000000 0.000000
# 4 0.000000 0.000000 0.000000 0.058780 0.000000 0.000000
# 5 0.000000 0.000000 0.000000 0.000000 0.058780 0.000000
# 6 0.000000 0.000000 0.000000 0.000000 0.000000 0.026118
#
#
# Mechanical properties :
#
#
# Convention : Reuss Voigt Hill
#
# Bulk Modulus (GPa) = 45.78151 50.71314 48.24733
# Shear Modulus (GPa) = 24.80924 29.03164 26.92044
#
# Velocity S-wave (km/s) = 3.52121 3.80909 3.66797
# Velocity P-wave (km/s) = 6.27790 6.68509 6.48469
#
# Compressibility (1/GPa) = 0.02184288
#
# Stress axis : x y z
#
# Youngs Moduli (GPa) = 97.13806 97.13852 64.01380
#
# Poissons Ratio (x) = 0.33770 0.11866
# Poissons Ratio (y) = 0.33770 0.11867
# Poissons Ratio (z) = 0.18007 0.18007
#
# Static dielectric constant tensor:
#      x y z
#    x 3.820130 0.000000 0.000000 
#    y 0.000000 3.820140 0.000000 
#    z 0.000000 0.000000 3.669950 
# 
# 
# High freq. dielectric constant tensor:
#      x y z
#    x 1.781410 0.000000 0.000000 
#    y 0.000000 1.781410 0.000000 
#    z 0.000000 0.000000 1.780040 
# 
# From -- ./inp_files/2160.got.cif
#   From: 2010.03.12/outbox.cif.g09.slc.cpg/sg127_2_cif.got.tgz:2160.got - 2010.04.06 17:03:15.
