data_PCOD8314141
_publ_section_title
;
Structure prediction by ZEFSAII (Michael W. Deem and Ramdas Pophale) SiO2 
 PCOD8314141
Probable space group: P 4/M B M
;
_chemical_formula_sum "Si O2"
_cell_formula_units_Z 96
_cell_length_a 21.097780
_cell_length_b 21.097780
_cell_length_c 11.363179
_cell_angle_alpha 90.000000
_cell_angle_beta 90.000000
_cell_angle_gamma 90.000000
_cell_volume 5057.936431
_symmetry_space_group_name_H-M "P 4/M B M"
_symmetry_group_IT_number 127
_symmetry_cell_setting 'tetragonal'
loop_
_space_group_symop_operation_xyz
x,y,z
-y,x,z
-x,-y,z
y,-x,z
1/2+x,1/2-y,-z
1/2-x,1/2+y,-z
1/2+y,1/2+x,-z
1/2-y,1/2-x,-z
-x,-y,-z
y,-x,-z
x,y,-z
-y,x,-z
1/2-x,1/2+y,z
1/2+x,1/2-y,z
1/2-y,1/2-x,z
1/2+y,1/2+x,z
loop_
_atom_site_type_symbol
_atom_site_label
_atom_site_fract_x
_atom_site_fract_y
_atom_site_fract_z
Si Si1 0.906099 0.300221 0.500000
Si Si2 0.332491 0.063886 0.748674
Si Si3 0.732744 0.661205 0.253096
Si Si4 0.594062 0.467677 0.860062
Si Si5 0.805280 0.198615 0.500000
Si Si6 0.325040 0.929601 0.863191
Si Si7 0.290427 0.611355 0.136793
O O1 0.846766 0.346766 0.500000
O O2 0.949936 0.314126 0.613059
O O3 0.875928 0.229296 0.500000
O O4 0.397969 0.102032 0.759720
O O5 0.276414 0.107388 0.798775
O O6 0.341508 0.999532 0.819704
O O7 0.783259 0.716742 0.247519
O O8 0.703749 0.654790 0.384426
O O9 0.765628 0.595968 0.212293
O O10 0.678725 0.677540 0.159533
O O11 0.579990 0.538626 0.813917
O O12 0.662253 0.443642 0.814787
O O13 0.592775 0.465412 0.000000
O O14 0.753252 0.253252 0.500000
O O15 0.386863 0.886863 0.842933
O O16 0.305585 0.931344 0.000000
O O17 0.277646 0.602707 0.000000
#
# Coordination Sequence:
#
# PCOD8314141 Si02
#       7
#     8  16  16  16   8  16  16
#     4   9  18  37  59  82 113 146 189 251 307 346
#     4  11  23  39  60  84 112 154 205 252 301 359
#     4  10  20  35  56  81 111 148 189 236 296 355
#     4   8  16  31  48  69 102 145 184 218 271 345
#     4   9  16  33  58  81 109 146 184 230 291 352
#     4  10  23  41  59  84 121 159 196 246 305 364
#     4  11  21  30  51  83 115 145 185 240 294 354
#
# _framework density 18.980070999999999
#
# number of rings (size 3 to 8) (size 9 to 14) (size 15 to 20)
#    0.000    2.167    1.667    2.000    2.333    4.000 
#    0.000    2.083    0.000    1.500    0.000    0.000 
#    0.000    2.667    0.000    0.000    0.000    0.000 
#
# Total GULP energy -1190267.558586 kJ/mol
# GULP energy per Si atom -12398.620402 kJ/mol
# Density = 1.893687 g / cm^3
# Si number density = 18.980071 Si / 1000 Ang^3
#
#
#
# Elastic Constant Matrix: (Units=GPa)
#
#
# Indices 1 2 3 4 5 6 
#
# 1 71.6315 19.8523 27.1136 0.0000 0.0000 0.0000
# 2 19.8523 71.6315 27.1136 0.0000 0.0000 0.0000
# 3 27.1136 27.1136 79.7788 0.0000 0.0000 0.0000
# 4 0.0000 0.0000 0.0000 24.5930 0.0000 0.0000
# 5 0.0000 0.0000 0.0000 0.0000 24.5930 0.0000
# 6 0.0000 0.0000 0.0000 0.0000 0.0000 16.9442
#
#
#
# Elastic Compliance Matrix: (Units=1/GPa)
#
#
# Indices 1 2 3 4 5 6 
#
# 1 0.016501 -0.002812 -0.004652 0.000000 0.000000 0.000000
# 2 -0.002812 0.016501 -0.004652 0.000000 0.000000 0.000000
# 3 -0.004652 -0.004652 0.015697 0.000000 0.000000 0.000000
# 4 0.000000 0.000000 0.000000 0.040662 0.000000 0.000000
# 5 0.000000 0.000000 0.000000 0.000000 0.040662 0.000000
# 6 0.000000 0.000000 0.000000 0.000000 0.000000 0.059017
#
#
# Mechanical properties :
#
#
# Convention : Reuss Voigt Hill
#
# Bulk Modulus (GPa) = 40.87449 41.24451 41.05950
# Shear Modulus (GPa) = 22.58080 23.15688 22.86884
#
# Velocity S-wave (km/s) = 3.45296 3.49673 3.47491
# Velocity P-wave (km/s) = 6.12205 6.17093 6.14654
#
# Compressibility (1/GPa) = 0.02446514
#
# Stress axis : x y z
#
# Youngs Moduli (GPa) = 60.60380 60.60380 63.70720
#
# Poissons Ratio (x) = 0.17043 0.29638
# Poissons Ratio (y) = 0.17043 0.29638
# Poissons Ratio (z) = 0.28194 0.28194
#
# Static dielectric constant tensor:
#      x y z
#    x 3.449830 0.000000 0.000000 
#    y 0.000000 3.449830 0.000000 
#    z 0.000000 0.000000 3.558570 
# 
# 
# High freq. dielectric constant tensor:
#      x y z
#    x 1.730390 0.000000 0.000000 
#    y 0.000000 1.730390 0.000000 
#    z 0.000000 0.000000 1.726550 
# 
# From -- ./inp_files/3591.got.cif
#   From: 2010.03.12/outbox.cif.g09.slc.cpg/sg127_2_cif.got.tgz:3591.got - 2010.04.06 17:03:15.
