data_PCOD8314898
_publ_section_title
;
Structure prediction by ZEFSAII (Michael W. Deem and Ramdas Pophale) SiO2 
 PCOD8314898
Probable space group: P 4/N M M
;
_chemical_formula_sum "Si O2"
_cell_formula_units_Z 128
_cell_length_a 18.954423
_cell_length_b 18.954423
_cell_length_c 23.000799
_cell_angle_alpha 90.000000
_cell_angle_beta 90.000000
_cell_angle_gamma 90.000000
_cell_volume 8263.500536
_symmetry_space_group_name_H-M "P 4/N M M"
_symmetry_group_IT_number 129
_symmetry_cell_setting 'tetragonal'
loop_
_space_group_symop_operation_xyz
x,y,z
1/2-y,x,z
1/2-x,1/2-y,z
y,1/2-x,z
1/2+x,-y,-z
-x,1/2+y,-z
1/2+y,1/2+x,-z
-y,-x,-z
-x,-y,-z
1/2+y,-x,-z
1/2+x,1/2+y,-z
-y,1/2+x,-z
1/2-x,y,z
x,1/2-y,z
1/2-y,1/2-x,z
y,x,z
loop_
_atom_site_type_symbol
_atom_site_label
_atom_site_fract_x
_atom_site_fract_y
_atom_site_fract_z
Si Si1 0.049053 0.167227 0.242967
Si Si2 0.557784 0.828926 0.303816
Si Si3 0.168466 0.946413 0.346655
Si Si4 0.170984 0.833567 0.935911
Si Si5 0.096541 0.668939 0.275971
Si Si6 0.088841 0.832911 0.825207
Si Si7 0.332429 0.939274 0.479044
Si Si8 0.558972 0.830146 0.437511
O O1 0.071155 0.250000 0.238464
O O2 0.118309 0.118309 0.235071
O O3 0.013593 0.150861 0.305655
O O4 0.991726 0.147325 0.192505
O O5 0.587647 0.750000 0.294563
O O6 0.617321 0.882680 0.282068
O O7 0.487212 0.841707 0.267099
O O8 0.536487 0.840447 0.370862
O O9 0.250000 0.926332 0.338484
O O10 0.123706 0.878110 0.329202
O O11 0.149639 0.963162 0.413266
O O12 0.250000 0.864506 0.922685
O O13 0.177082 0.750000 0.934525
O O14 0.111516 0.859076 0.889653
O O15 0.143662 0.856339 0.000000
O O16 0.114521 0.750000 0.290343
O O17 0.132426 0.645898 0.216674
O O18 0.098205 0.750000 0.818224
O O19 0.366791 0.866791 0.500000
O O20 0.250000 0.928008 0.487719
O O21 0.363039 0.999154 0.521502
O O22 0.572040 0.750000 0.454662
O O23 0.632150 0.867851 0.450688
#
# Coordination Sequence:
#
# PCOD8314898 Si02
#       8
#    16  16  16  16  16  16  16  16
#     4   9  18  32  48  65  84 108 141 180 222 265
#     4   9  18  31  45  62  82 103 131 168 210 254
#     4   9  19  32  44  60  83 111 139 168 207 253
#     4   8  13  22  39  64  92 122 155 183 201 226
#     4  10  18  27  42  63  86 112 141 172 201 234
#     4   9  17  28  42  63  92 123 148 171 207 251
#     4  10  20  33  46  61  83 109 138 171 205 245
#     4   9  18  32  48  64  81 100 125 163 210 258
#
# _framework density 15.489803
#
# number of rings (size 3 to 8) (size 9 to 14) (size 15 to 20)
#    0.000    2.875    0.000    2.625    0.000    6.250 
#    0.000    2.500    0.000    0.375    0.000    3.500 
#    0.000    0.000    0.000    0.000    0.000   15.750 
#
# Total GULP energy -1586522.814725 kJ/mol
# GULP energy per Si atom -12394.709490 kJ/mol
# Density = 1.545455 g / cm^3
# Si number density = 15.489803 Si / 1000 Ang^3
#
#
#
# Elastic Constant Matrix: (Units=GPa)
#
#
# Indices 1 2 3 4 5 6 
#
# 1 65.2992 44.8197 22.3532 0.0000 0.0000 0.0000
# 2 44.8197 65.2992 22.3532 0.0000 0.0000 0.0000
# 3 22.3532 22.3532 63.9236 0.0000 0.0000 0.0000
# 4 0.0000 0.0000 0.0000 14.6326 0.0000 0.0000
# 5 0.0000 0.0000 0.0000 0.0000 14.6326 0.0000
# 6 0.0000 0.0000 0.0000 0.0000 0.0000 25.0615
#
#
#
# Elastic Compliance Matrix: (Units=1/GPa)
#
#
# Indices 1 2 3 4 5 6 
#
# 1 0.029706 -0.019123 -0.003701 0.000000 0.000000 0.000000
# 2 -0.019123 0.029706 -0.003701 0.000000 0.000000 0.000000
# 3 -0.003701 -0.003701 0.018232 0.000000 0.000000 0.000000
# 4 0.000000 0.000000 0.000000 0.068341 0.000000 0.000000
# 5 0.000000 0.000000 0.000000 0.000000 0.068341 0.000000
# 6 0.000000 0.000000 0.000000 0.000000 0.000000 0.039902
#
#
# Mechanical properties :
#
#
# Convention : Reuss Voigt Hill
#
# Bulk Modulus (GPa) = 40.65791 41.50825 41.08308
# Shear Modulus (GPa) = 15.84908 17.86506 16.85707
#
# Velocity S-wave (km/s) = 3.20221 3.39978 3.30247
# Velocity P-wave (km/s) = 6.32277 6.50128 6.41264
#
# Compressibility (1/GPa) = 0.02459546
#
# Stress axis : x y z
#
# Youngs Moduli (GPa) = 33.66281 33.66277 54.84861
#
# Poissons Ratio (x) = 0.64373 0.20299
# Poissons Ratio (y) = 0.64373 0.20299
# Poissons Ratio (z) = 0.12458 0.12458
#
# Static dielectric constant tensor:
#      x y z
#    x 2.887860 0.000000 0.000000 
#    y 0.000000 2.887860 0.000000 
#    z 0.000000 0.000000 3.166130 
# 
# 
# High freq. dielectric constant tensor:
#      x y z
#    x 1.582350 0.000000 0.000000 
#    y 0.000000 1.582350 0.000000 
#    z 0.000000 0.000000 1.579080 
# 
# From -- ./inp_files/7315.got.cif
#   From: 2010.03.12/outbox.cif.g09.slc.cpg/sg129_4_cif.got.tgz:7315.got - 2010.04.06 17:19:44.
