data_PCOD8314100
_publ_section_title
;
Structure prediction by ZEFSAII (Michael W. Deem and Ramdas Pophale) SiO2 
 PCOD8314100
Probable space group: P 4/M B M
;
_chemical_formula_sum "Si O2"
_cell_formula_units_Z 96
_cell_length_a 16.284900
_cell_length_b 16.284900
_cell_length_c 18.862861
_cell_angle_alpha 90.000000
_cell_angle_beta 90.000000
_cell_angle_gamma 90.000000
_cell_volume 5002.392408
_symmetry_space_group_name_H-M "P 4/M B M"
_symmetry_group_IT_number 127
_symmetry_cell_setting 'tetragonal'
loop_
_space_group_symop_operation_xyz
x,y,z
-y,x,z
-x,-y,z
y,-x,z
1/2+x,1/2-y,-z
1/2-x,1/2+y,-z
1/2+y,1/2+x,-z
1/2-y,1/2-x,-z
-x,-y,-z
y,-x,-z
x,y,-z
-y,x,-z
1/2-x,1/2+y,z
1/2+x,1/2-y,z
1/2-y,1/2-x,z
1/2+y,1/2+x,z
loop_
_atom_site_type_symbol
_atom_site_label
_atom_site_fract_x
_atom_site_fract_y
_atom_site_fract_z
Si Si1 0.134554 0.496795 0.076916
Si Si2 0.818302 0.453068 0.223835
Si Si3 0.403233 0.408189 0.919227
Si Si4 0.310647 0.677900 0.201584
Si Si5 0.404289 0.769123 0.681690
Si Si6 0.461024 0.626649 0.416382
O O1 0.068123 0.568123 0.076226
O O2 0.193591 0.508945 0.144459
O O3 0.090792 0.409208 0.085960
O O4 0.181701 0.498704 0.000000
O O5 0.903443 0.403443 0.229388
O O6 0.739988 0.395974 0.237297
O O7 0.822321 0.522091 0.284514
O O8 0.497042 0.386534 0.902574
O O9 0.345095 0.354368 0.870777
O O10 0.381412 0.387311 0.000000
O O11 0.251404 0.751404 0.179848
O O12 0.376476 0.704700 0.259214
O O13 0.330777 0.830777 0.658014
O O14 0.435442 0.714401 0.616224
O O15 0.398643 0.553635 0.393214
O O16 0.457294 0.638406 0.500000
#
# Coordination Sequence:
#
# PCOD8314100 Si02
#       6
#    16  16  16  16  16  16
#     4   8  14  26  45  67  89 120 171 227 266 300
#     4  10  20  34  52  74 104 144 186 224 267 324
#     4   9  18  33  52  71  93 128 175 224 274 329
#     4  10  21  34  49  73 104 137 175 221 270 319
#     4  11  22  35  54  82 115 145 174 215 270 324
#     4   9  19  38  64  90 113 141 180 220 256 304
#
# _framework density 19.190818
#
# number of rings (size 3 to 8) (size 9 to 14) (size 15 to 20)
#    0.000    2.500    0.000    4.000    0.000    2.333 
#    0.000    4.167    0.000    2.500    0.000    1.167 
#    0.000    0.000    0.000    0.000    0.000    0.000 
#
# Total GULP energy -1190144.211899 kJ/mol
# GULP energy per Si atom -12397.335541 kJ/mol
# Density = 1.914714 g / cm^3
# Si number density = 19.190818 Si / 1000 Ang^3
#
#
#
# Elastic Constant Matrix: (Units=GPa)
#
#
# Indices 1 2 3 4 5 6 
#
# 1 69.9847 28.4242 43.2177 0.0000 0.0000 0.0000
# 2 28.4242 69.9847 43.2177 0.0000 0.0000 0.0000
# 3 43.2177 43.2177 76.2182 0.0000 0.0000 0.0000
# 4 0.0000 0.0000 0.0000 33.6285 0.0000 0.0000
# 5 0.0000 0.0000 0.0000 0.0000 33.6285 0.0000
# 6 0.0000 0.0000 0.0000 0.0000 0.0000 27.9010
#
#
#
# Elastic Compliance Matrix: (Units=1/GPa)
#
#
# Indices 1 2 3 4 5 6 
#
# 1 0.022153 -0.001909 -0.011479 0.000000 0.000000 0.000000
# 2 -0.001909 0.022153 -0.011479 0.000000 0.000000 0.000000
# 3 -0.011479 -0.011479 0.026138 0.000000 0.000000 0.000000
# 4 0.000000 0.000000 0.000000 0.029737 0.000000 0.000000
# 5 0.000000 0.000000 0.000000 0.000000 0.029737 0.000000
# 6 0.000000 0.000000 0.000000 0.000000 0.000000 0.035841
#
#
# Mechanical properties :
#
#
# Convention : Reuss Voigt Hill
#
# Bulk Modulus (GPa) = 48.28517 49.54523 48.91520
# Shear Modulus (GPa) = 22.48268 25.78681 24.13475
#
# Velocity S-wave (km/s) = 3.42648 3.66964 3.55014
# Velocity P-wave (km/s) = 6.39293 6.62028 6.50760
#
# Compressibility (1/GPa) = 0.02071029
#
# Stress axis : x y z
#
# Youngs Moduli (GPa) = 45.14145 45.14145 38.25876
#
# Poissons Ratio (x) = 0.08616 0.43916
# Poissons Ratio (y) = 0.08616 0.43916
# Poissons Ratio (z) = 0.51817 0.51817
#
# Static dielectric constant tensor:
#      x y z
#    x 3.479650 0.000000 0.000000 
#    y 0.000000 3.479650 0.000000 
#    z 0.000000 0.000000 3.420910 
# 
# 
# High freq. dielectric constant tensor:
#      x y z
#    x 1.744580 0.000000 0.000000 
#    y 0.000000 1.744580 0.000000 
#    z 0.000000 0.000000 1.727650 
# 
# From -- ./inp_files/5792.got.cif
#   From: 2010.03.12/outbox.cif.g09.slc.cpg/sg127_3_cif.got.tgz:5792.got - 2010.04.06 17:03:15.
