data_PCOD8314166
_publ_section_title
;
Structure prediction by ZEFSAII (Michael W. Deem and Ramdas Pophale) SiO2 
 PCOD8314166
Probable space group: P 4/M B M
;
_chemical_formula_sum "Si O2"
_cell_formula_units_Z 96
_cell_length_a 22.699484
_cell_length_b 22.699484
_cell_length_c 9.896483
_cell_angle_alpha 90.000000
_cell_angle_beta 90.000000
_cell_angle_gamma 90.000000
_cell_volume 5099.326889
_symmetry_space_group_name_H-M "P 4/M B M"
_symmetry_group_IT_number 127
_symmetry_cell_setting 'tetragonal'
loop_
_space_group_symop_operation_xyz
x,y,z
-y,x,z
-x,-y,z
y,-x,z
1/2+x,1/2-y,-z
1/2-x,1/2+y,-z
1/2+y,1/2+x,-z
1/2-y,1/2-x,-z
-x,-y,-z
y,-x,-z
x,y,-z
-y,x,-z
1/2-x,1/2+y,z
1/2+x,1/2-y,z
1/2-y,1/2-x,z
1/2+y,1/2+x,z
loop_
_atom_site_type_symbol
_atom_site_label
_atom_site_fract_x
_atom_site_fract_y
_atom_site_fract_z
Si Si1 0.259264 0.611973 0.650713
Si Si2 0.163011 0.663011 0.154104
Si Si3 0.636950 0.043011 0.158271
Si Si4 0.935162 0.435162 0.150183
Si Si5 0.475310 0.750126 0.342677
Si Si6 0.885905 0.851008 0.350604
Si Si7 0.574061 0.438886 0.147049
O O1 0.230313 0.615341 0.500000
O O2 0.218395 0.636864 0.767500
O O3 0.272848 0.542339 0.680829
O O4 0.315278 0.656649 0.649498
O O5 0.114018 0.614018 0.151469
O O6 0.180674 0.680674 0.000000
O O7 0.607235 0.107235 0.173781
O O8 0.591114 0.994176 0.217724
O O9 0.694677 0.039212 0.248662
O O10 0.652369 0.030191 0.000000
O O11 0.953617 0.453617 0.000000
O O12 0.465035 0.766538 0.500000
O O13 0.425906 0.702386 0.295106
O O14 0.909251 0.865824 0.500000
O O15 0.888854 0.909064 0.261793
O O16 0.581475 0.507584 0.164409
O O17 0.597533 0.419172 0.000000
#
# Coordination Sequence:
#
# PCOD8314166 Si02
#       7
#    16   8  16   8  16  16  16
#     4  10  21  38  59  82 113 149 188 237 286 333
#     4  11  21  36  61  87 110 146 194 234 276 333
#     4  10  20  36  59  85 114 147 182 225 280 341
#     4   9  17  33  58  87 113 139 177 223 272 332
#     4  10  21  37  57  82 113 149 189 235 284 335
#     4  10  21  37  56  80 108 147 193 233 277 331
#     4   9  18  32  50  76 110 143 177 226 286 337
#
# _framework density 18.826013
#
# number of rings (size 3 to 8) (size 9 to 14) (size 15 to 20)
#    0.000    2.167    1.667    2.000    0.000    4.667 
#    1.500    1.250    0.000    1.000    0.000    0.000 
#    0.000    0.000    0.000    0.000    0.000    0.000 
#
# Total GULP energy -1189378.534641 kJ/mol
# GULP energy per Si atom -12389.359736 kJ/mol
# Density = 1.878316 g / cm^3
# Si number density = 18.826013 Si / 1000 Ang^3
#
#
#
# Elastic Constant Matrix: (Units=GPa)
#
#
# Indices 1 2 3 4 5 6 
#
# 1 86.0444 28.4388 36.7857 0.0000 0.0000 0.0000
# 2 28.4388 86.0444 36.7857 0.0000 0.0000 0.0000
# 3 36.7857 36.7857 83.5805 0.0000 0.0000 0.0000
# 4 0.0000 0.0000 0.0000 8.4052 0.0000 0.0000
# 5 0.0000 0.0000 0.0000 0.0000 8.4052 0.0000
# 6 0.0000 0.0000 0.0000 0.0000 0.0000 34.5966
#
#
#
# Elastic Compliance Matrix: (Units=1/GPa)
#
#
# Indices 1 2 3 4 5 6 
#
# 1 0.014770 -0.002590 -0.005361 0.000000 0.000000 0.000000
# 2 -0.002590 0.014770 -0.005361 0.000000 0.000000 0.000000
# 3 -0.005361 -0.005361 0.016683 0.000000 0.000000 0.000000
# 4 0.000000 0.000000 0.000000 0.118974 0.000000 0.000000
# 5 0.000000 0.000000 0.000000 0.000000 0.118974 0.000000
# 6 0.000000 0.000000 0.000000 0.000000 0.000000 0.028905
#
#
# Mechanical properties :
#
#
# Convention : Reuss Voigt Hill
#
# Bulk Modulus (GPa) = 51.01946 51.07664 51.04805
# Shear Modulus (GPa) = 14.44122 20.52532 17.48327
#
# Velocity S-wave (km/s) = 2.77264 3.30550 3.05072
# Velocity P-wave (km/s) = 6.11632 6.46206 6.29157
#
# Compressibility (1/GPa) = 0.01960036
#
# Stress axis : x y z
#
# Youngs Moduli (GPa) = 67.70643 67.70643 59.94049
#
# Poissons Ratio (x) = 0.17534 0.32132
# Poissons Ratio (y) = 0.17534 0.32132
# Poissons Ratio (z) = 0.36295 0.36295
#
# Static dielectric constant tensor:
#      x y z
#    x 3.441340 0.000000 0.000000 
#    y 0.000000 3.441340 0.000000 
#    z 0.000000 0.000000 3.555500 
# 
# 
# High freq. dielectric constant tensor:
#      x y z
#    x 1.724640 0.000000 0.000000 
#    y 0.000000 1.724640 0.000000 
#    z 0.000000 0.000000 1.729620 
# 
# From -- ./inp_files/2124.got.cif
#   From: 2010.03.12/outbox.cif.g09.slc.cpg/sg127_2_cif.got.tgz:2124.got - 2010.04.06 17:03:15.
