data_PCOD8314500
_publ_section_title
;
Structure prediction by ZEFSAII (Michael W. Deem and Ramdas Pophale) SiO2 
 PCOD8314500
Probable space group: P 4/M N C
;
_chemical_formula_sum "Si O2"
_cell_formula_units_Z 96
_cell_length_a 23.057920
_cell_length_b 23.057920
_cell_length_c 8.838505
_cell_angle_alpha 90.000000
_cell_angle_beta 90.000000
_cell_angle_gamma 90.000000
_cell_volume 4699.147401
_symmetry_space_group_name_H-M "P 4/M N C"
_symmetry_group_IT_number 128
_symmetry_cell_setting 'tetragonal'
loop_
_space_group_symop_operation_xyz
x,y,z
-y,x,z
-x,-y,z
y,-x,z
1/2+x,1/2-y,1/2-z
1/2-x,1/2+y,1/2-z
1/2+y,1/2+x,1/2-z
1/2-y,1/2-x,1/2-z
-x,-y,-z
y,-x,-z
x,y,-z
-y,x,-z
1/2-x,1/2+y,1/2+z
1/2+x,1/2-y,1/2+z
1/2-y,1/2-x,1/2+z
1/2+y,1/2+x,1/2+z
loop_
_atom_site_type_symbol
_atom_site_label
_atom_site_fract_x
_atom_site_fract_y
_atom_site_fract_z
Si Si1 0.915263 0.667637 0.326364
Si Si2 0.411604 0.472923 0.819765
Si Si3 0.886071 0.296081 0.820436
Si Si4 0.304743 0.283106 0.823577
Si Si5 0.917947 0.794542 0.675754
Si Si6 0.120953 0.535643 0.825744
O O1 0.857599 0.642402 0.250000
O O2 0.898505 0.678124 0.500000
O O3 0.934317 0.730648 0.257944
O O4 0.966280 0.620008 0.309537
O O5 0.462038 0.428020 0.765050
O O6 0.348824 0.453379 0.750233
O O7 0.409495 0.470366 0.000000
O O8 0.841140 0.341140 0.750000
O O9 0.866332 0.234388 0.753589
O O10 0.947272 0.318708 0.757265
O O11 0.885752 0.295382 0.000000
O O12 0.250376 0.249625 0.750000
O O13 0.300776 0.350383 0.791462
O O14 0.306066 0.267541 0.000000
O O15 0.932726 0.796363 0.500000
O O16 0.063836 0.563836 0.750000
O O17 0.122425 0.555587 0.000000
#
# Coordination Sequence:
#
# PCOD8314500 Si02
#       6
#    16  16  16  16  16  16
#     4  10  22  38  55  76 104 138 177 221 268 316
#     4   8  14  26  46  73 104 135 166 205 254 307
#     4  10  18  30  49  73 102 133 169 214 261 311
#     4  10  18  29  47  71 102 140 178 218 264 312
#     4   9  18  31  48  73 103 137 176 214 257 311
#     4  10  20  35  55  78 104 136 175 220 269 319
#
# _framework density 20.429238999999999
#
# number of rings (size 3 to 8) (size 9 to 14) (size 15 to 20)
#    0.000    2.500    0.000    5.500    0.000    3.000 
#    0.000    7.500    0.000    0.000    0.000    0.000 
#    0.000    0.000    0.000   18.000    0.000   16.667 
#
# Total GULP energy -1189338.082845 kJ/mol
# GULP energy per Si atom -12388.938363 kJ/mol
# Density = 2.038274 g / cm^3
# Si number density = 20.429239 Si / 1000 Ang^3
#
#
#
# Elastic Constant Matrix: (Units=GPa)
#
#
# Indices 1 2 3 4 5 6 
#
# 1 99.1962 71.7812 27.0810 0.0000 0.0000 0.0000
# 2 71.7812 99.1892 27.0922 0.0000 0.0000 0.0000
# 3 27.0810 27.0922 83.3725 0.0000 0.0000 0.0000
# 4 0.0000 0.0000 0.0000 19.6435 0.0000 0.0000
# 5 0.0000 0.0000 0.0000 0.0000 19.6438 0.0000
# 6 0.0000 0.0000 0.0000 0.0000 0.0000 33.3359
#
#
#
# Elastic Compliance Matrix: (Units=1/GPa)
#
#
# Indices 1 2 3 4 5 6 
#
# 1 0.021499 -0.014981 -0.002115 0.000000 0.000000 0.000000
# 2 -0.014981 0.021502 -0.002121 0.000000 0.000000 0.000000
# 3 -0.002115 -0.002121 0.013371 0.000000 0.000000 0.000000
# 4 0.000000 0.000000 0.000000 0.050907 0.000000 0.000000
# 5 0.000000 0.000000 0.000000 0.000000 0.050907 0.000000
# 6 0.000000 0.000000 0.000000 0.000000 0.000000 0.029998
#
#
# Mechanical properties :
#
#
# Convention : Reuss Voigt Hill
#
# Bulk Modulus (GPa) = 55.74841 59.29629 57.52235
# Shear Modulus (GPa) = 21.49641 24.91154 23.20397
#
# Velocity S-wave (km/s) = 3.24734 3.49579 3.37385
# Velocity P-wave (km/s) = 6.43491 6.73664 6.58750
#
# Compressibility (1/GPa) = 0.01793773
#
# Stress axis : x y z
#
# Youngs Moduli (GPa) = 46.51411 46.50680 74.79011
#
# Poissons Ratio (x) = 0.69670 0.15820
# Poissons Ratio (y) = 0.69681 0.15865
# Poissons Ratio (z) = 0.09839 0.09865
#
# Static dielectric constant tensor:
#      x y z
#    x 4.093050 0.000000 0.000000 
#    y 0.000000 4.093060 0.000000 
#    z 0.000000 0.000000 3.379940 
# 
# 
# High freq. dielectric constant tensor:
#      x y z
#    x 1.798610 0.000000 0.000000 
#    y 0.000000 1.798610 0.000000 
#    z 0.000000 0.000000 1.760080 
# 
# From -- ./inp_files/1484.got.cif
#   From: 2010.03.12/outbox.cif.g09.slc.cpg/sg128_1_cif.got.tgz:1484.got - 2010.04.06 17:11:05.
