data_PCOD8314322
_publ_section_title
;
Structure prediction by ZEFSAII (Michael W. Deem and Ramdas Pophale) SiO2 
 PCOD8314322
Probable space group: P 4/M B M
;
_chemical_formula_sum "Si O2"
_cell_formula_units_Z 80
_cell_length_a 13.557172
_cell_length_b 13.557172
_cell_length_c 23.025409
_cell_angle_alpha 90.000000
_cell_angle_beta 90.000000
_cell_angle_gamma 90.000000
_cell_volume 4231.999086
_symmetry_space_group_name_H-M "P 4/M B M"
_symmetry_group_IT_number 127
_symmetry_cell_setting 'tetragonal'
loop_
_space_group_symop_operation_xyz
x,y,z
-y,x,z
-x,-y,z
y,-x,z
1/2+x,1/2-y,-z
1/2-x,1/2+y,-z
1/2+y,1/2+x,-z
1/2-y,1/2-x,-z
-x,-y,-z
y,-x,-z
x,y,-z
-y,x,-z
1/2-x,1/2+y,z
1/2+x,1/2-y,z
1/2-y,1/2-x,z
1/2+y,1/2+x,z
loop_
_atom_site_type_symbol
_atom_site_label
_atom_site_fract_x
_atom_site_fract_y
_atom_site_fract_z
Si Si1 0.600126 0.371874 0.436324
Si Si2 0.740845 0.918078 0.731941
Si Si3 0.658783 0.512830 0.931847
Si Si4 0.727536 0.619069 0.320252
Si Si5 0.499444 0.161389 0.849280
O O1 0.635502 0.483166 0.430008
O O2 0.632076 0.330838 0.500000
O O3 0.648561 0.309272 0.384625
O O4 0.642556 0.857444 0.714658
O O5 0.836060 0.846577 0.728681
O O6 0.761125 0.002691 0.685239
O O7 0.727876 0.967571 0.794662
O O8 0.589165 0.604805 0.914224
O O9 0.764025 0.523390 0.901102
O O10 0.679263 0.514603 0.000000
O O11 0.834769 0.665232 0.310786
O O12 0.596701 0.096701 0.834528
O O13 0.410254 0.089747 0.868196
#
# Coordination Sequence:
#
# PCOD8314322 Si02
#       5
#    16  16  16  16  16
#     4   9  17  32  54  79 109 142 180 234 289 330
#     4  10  23  39  55  84 117 145 185 233 279 336
#     4   9  20  39  60  85 117 150 189 236 282 328
#     4  11  21  35  59  83 109 151 191 227 278 338
#     4  10  22  39  58  82 115 152 188 231 284 337
#
# _framework density 18.903594999999999
#
# number of rings (size 3 to 8) (size 9 to 14) (size 15 to 20)
#    0.000    2.200    2.000    1.800    2.800    3.600 
#    0.000    3.000    0.000    0.600    0.000    1.400 
#    0.000    0.000    0.000    0.000    0.000    0.000 
#
# Total GULP energy -991760.539813 kJ/mol
# GULP energy per Si atom -12397.006748 kJ/mol
# Density = 1.886057 g / cm^3
# Si number density = 18.903595 Si / 1000 Ang^3
#
#
#
# Elastic Constant Matrix: (Units=GPa)
#
#
# Indices 1 2 3 4 5 6 
#
# 1 86.8118 26.8179 33.5859 0.0000 0.0000 0.0000
# 2 26.8179 86.8118 33.5859 0.0000 0.0000 0.0000
# 3 33.5859 33.5859 81.3249 0.0000 0.0000 0.0000
# 4 0.0000 0.0000 0.0000 24.9110 0.0000 0.0000
# 5 0.0000 0.0000 0.0000 0.0000 24.9110 0.0000
# 6 0.0000 0.0000 0.0000 0.0000 0.0000 18.3622
#
#
#
# Elastic Compliance Matrix: (Units=1/GPa)
#
#
# Indices 1 2 3 4 5 6 
#
# 1 0.014156 -0.002513 -0.004808 0.000000 0.000000 0.000000
# 2 -0.002513 0.014156 -0.004808 0.000000 0.000000 0.000000
# 3 -0.004808 -0.004808 0.016268 0.000000 0.000000 0.000000
# 4 0.000000 0.000000 0.000000 0.040143 0.000000 0.000000
# 5 0.000000 0.000000 0.000000 0.000000 0.040143 0.000000
# 6 0.000000 0.000000 0.000000 0.000000 0.000000 0.054460
#
#
# Mechanical properties :
#
#
# Convention : Reuss Voigt Hill
#
# Bulk Modulus (GPa) = 49.21163 49.21420 49.21291
# Shear Modulus (GPa) = 23.76910 24.36742 24.06826
#
# Velocity S-wave (km/s) = 3.54981 3.59421 3.57208
# Velocity P-wave (km/s) = 6.54912 6.58144 6.56530
#
# Compressibility (1/GPa) = 0.02032040
#
# Stress axis : x y z
#
# Youngs Moduli (GPa) = 70.64315 70.64315 61.47078
#
# Poissons Ratio (x) = 0.17751 0.29557
# Poissons Ratio (y) = 0.17751 0.29557
# Poissons Ratio (z) = 0.33968 0.33968
#
# Static dielectric constant tensor:
#      x y z
#    x 3.364290 0.000000 0.000000 
#    y 0.000000 3.364290 0.000000 
#    z 0.000000 0.000000 3.417950 
# 
# 
# High freq. dielectric constant tensor:
#      x y z
#    x 1.729330 0.000000 0.000000 
#    y 0.000000 1.729330 0.000000 
#    z 0.000000 0.000000 1.732840 
# 
# From -- ./inp_files/5627.got.cif
#   From: 2010.03.12/outbox.cif.g09.slc.cpg/sg127_3_cif.got.tgz:5627.got - 2010.04.06 17:03:15.
