data_PCOD8314127
_publ_section_title
;
Structure prediction by ZEFSAII (Michael W. Deem and Ramdas Pophale) SiO2 
 PCOD8314127
Probable space group: P 4/M B M
;
_chemical_formula_sum "Si O2"
_cell_formula_units_Z 88
_cell_length_a 19.054348
_cell_length_b 19.054348
_cell_length_c 13.739317
_cell_angle_alpha 90.000000
_cell_angle_beta 90.000000
_cell_angle_gamma 90.000000
_cell_volume 4988.308786
_symmetry_space_group_name_H-M "P 4/M B M"
_symmetry_group_IT_number 127
_symmetry_cell_setting 'tetragonal'
loop_
_space_group_symop_operation_xyz
x,y,z
-y,x,z
-x,-y,z
y,-x,z
1/2+x,1/2-y,-z
1/2-x,1/2+y,-z
1/2+y,1/2+x,-z
1/2-y,1/2-x,-z
-x,-y,-z
y,-x,-z
x,y,-z
-y,x,-z
1/2-x,1/2+y,z
1/2+x,1/2-y,z
1/2-y,1/2-x,z
1/2+y,1/2+x,z
loop_
_atom_site_type_symbol
_atom_site_label
_atom_site_fract_x
_atom_site_fract_y
_atom_site_fract_z
Si Si1 0.872715 0.262462 0.112774
Si Si2 0.440822 0.940822 0.115096
Si Si3 0.287556 0.505859 0.609490
Si Si4 0.517773 0.207143 0.795145
Si Si5 0.661036 0.273391 0.799017
Si Si6 0.847946 0.141591 0.390687
O O1 0.824093 0.324093 0.160055
O O2 0.837774 0.187251 0.134825
O O3 0.950042 0.263316 0.153058
O O4 0.877565 0.275686 0.000000
O O5 0.372901 0.968544 0.173393
O O6 0.500000 0.000000 0.122227
O O7 0.424905 0.924905 0.000000
O O8 0.257258 0.511175 0.500000
O O9 0.219314 0.493811 0.678931
O O10 0.344038 0.442867 0.617715
O O11 0.331163 0.575045 0.638202
O O12 0.581328 0.257222 0.828229
O O13 0.703167 0.203167 0.822888
O O14 0.673078 0.292281 0.685427
O O15 0.827709 0.166081 0.500000
#
# Coordination Sequence:
#
# PCOD8314127 Si02
#       6
#    16   8  16  16  16  16
#     4  10  21  36  55  79 108 143 184 232 281 330
#     4  11  24  40  61  85 107 143 194 239 286 335
#     4   9  18  32  54  82 112 146 183 224 270 328
#     4  11  20  37  58  81 112 146 180 235 279 332
#     4  10  20  35  53  80 108 140 183 224 278 333
#     4   9  17  31  52  79 109 141 179 223 271 323
#
# _framework density 17.641248000000001
#
# number of rings (size 3 to 8) (size 9 to 14) (size 15 to 20)
#    0.000    2.091    2.727    1.091    0.000    3.636 
#    0.000    2.273    0.000    3.273    0.000    1.273 
#    0.000    0.000    0.000    0.000    0.000    0.000 
#
# Total GULP energy -1090646.012514 kJ/mol
# GULP energy per Si atom -12393.704688 kJ/mol
# Density = 1.760110 g / cm^3
# Si number density = 17.641248 Si / 1000 Ang^3
#
#
#
# Elastic Constant Matrix: (Units=GPa)
#
#
# Indices 1 2 3 4 5 6 
#
# 1 96.9517 66.7476 47.0360 0.0000 0.0000 0.0000
# 2 66.7476 96.9517 47.0360 0.0000 0.0000 0.0000
# 3 47.0360 47.0360 85.2249 0.0000 0.0000 0.0000
# 4 0.0000 0.0000 0.0000 25.4331 0.0000 0.0000
# 5 0.0000 0.0000 0.0000 0.0000 25.4331 0.0000
# 6 0.0000 0.0000 0.0000 0.0000 0.0000 13.4016
#
#
#
# Elastic Compliance Matrix: (Units=1/GPa)
#
#
# Indices 1 2 3 4 5 6 
#
# 1 0.021027 -0.012081 -0.004937 0.000000 0.000000 0.000000
# 2 -0.012081 0.021027 -0.004937 0.000000 0.000000 0.000000
# 3 -0.004937 -0.004937 0.017184 0.000000 0.000000 0.000000
# 4 0.000000 0.000000 0.000000 0.039319 0.000000 0.000000
# 5 0.000000 0.000000 0.000000 0.000000 0.039319 0.000000
# 6 0.000000 0.000000 0.000000 0.000000 0.000000 0.074618
#
#
# Mechanical properties :
#
#
# Convention : Reuss Voigt Hill
#
# Bulk Modulus (GPa) = 65.24762 66.75194 65.99978
# Shear Modulus (GPa) = 19.11945 20.74080 19.93012
#
# Velocity S-wave (km/s) = 3.29567 3.43257 3.36482
# Velocity P-wave (km/s) = 7.17970 7.32330 7.25185
#
# Compressibility (1/GPa) = 0.01532623
#
# Stress axis : x y z
#
# Youngs Moduli (GPa) = 47.55762 47.55762 58.19504
#
# Poissons Ratio (x) = 0.57454 0.28733
# Poissons Ratio (y) = 0.57454 0.28733
# Poissons Ratio (z) = 0.23481 0.23481
#
# Static dielectric constant tensor:
#      x y z
#    x 3.460570 0.000000 0.000000 
#    y 0.000000 3.460570 0.000000 
#    z 0.000000 0.000000 3.492810 
# 
# 
# High freq. dielectric constant tensor:
#      x y z
#    x 1.678800 0.000000 0.000000 
#    y 0.000000 1.678800 0.000000 
#    z 0.000000 0.000000 1.685890 
# 
# From -- ./inp_files/4404.got.cif
#   From: 2010.03.12/outbox.cif.g09.slc.cpg/sg127_3_cif.got.tgz:4404.got - 2010.04.06 17:03:15.
