data_PCOD8314964
_publ_section_title
;
Structure prediction by ZEFSAII (Michael W. Deem and Ramdas Pophale) SiO2 
 PCOD8314964
Probable space group: P 4/N M M
;
_chemical_formula_sum "Si O2"
_cell_formula_units_Z 128
_cell_length_a 19.775377
_cell_length_b 19.775377
_cell_length_c 17.781873
_cell_angle_alpha 90.000000
_cell_angle_beta 90.000000
_cell_angle_gamma 90.000000
_cell_volume 6953.877687
_symmetry_space_group_name_H-M "P 4/N M M"
_symmetry_group_IT_number 129
_symmetry_cell_setting 'tetragonal'
loop_
_space_group_symop_operation_xyz
x,y,z
1/2-y,x,z
1/2-x,1/2-y,z
y,1/2-x,z
1/2+x,-y,-z
-x,1/2+y,-z
1/2+y,1/2+x,-z
-y,-x,-z
-x,-y,-z
1/2+y,-x,-z
1/2+x,1/2+y,-z
-y,1/2+x,-z
1/2-x,y,z
x,1/2-y,z
1/2-y,1/2-x,z
y,x,z
loop_
_atom_site_type_symbol
_atom_site_label
_atom_site_fract_x
_atom_site_fract_y
_atom_site_fract_z
Si Si1 0.324862 0.824548 0.285905
Si Si2 0.896110 0.007536 0.035723
Si Si3 0.175495 0.064083 0.096152
Si Si4 0.998018 0.609860 0.625165
Si Si5 0.863993 0.045577 0.357297
Si Si6 0.507921 0.401769 0.801055
Si Si7 0.460373 0.856609 0.780736
Si Si8 0.558691 0.673287 0.480623
O O1 0.250000 0.832245 0.321353
O O2 0.333230 0.750000 0.249122
O O3 0.378874 0.832201 0.354637
O O4 0.334043 0.881222 0.220118
O O5 0.962539 0.962539 0.049149
O O6 0.862801 0.017352 0.118740
O O7 0.842706 0.970782 0.982494
O O8 0.920957 0.079044 0.000000
O O9 0.250000 0.096685 0.088064
O O10 0.122300 0.122300 0.118574
O O11 0.181423 0.006248 0.159362
O O12 0.928825 0.571176 0.640632
O O13 0.988367 0.655272 0.551436
O O14 0.058337 0.554744 0.615692
O O15 0.011569 0.658080 0.696712
O O16 0.854576 0.018256 0.271545
O O17 0.827550 0.991717 0.409704
O O18 0.433631 0.433631 0.794670
O O19 0.563517 0.462360 0.798965
O O20 0.586819 0.750000 0.488673
O O21 0.621662 0.621662 0.470484
#
# Coordination Sequence:
#
# PCOD8314964 Si02
#       8
#    16  16  16  16  16  16  16  16
#     4   9  18  32  49  73 107 141 171 207 258 325
#     4   9  16  29  51  75 102 130 165 214 268 319
#     4  11  22  35  53  78 109 146 189 234 279 328
#     4   9  18  32  52  78 106 132 166 216 275 328
#     4  10  19  32  55  81 106 135 174 218 269 328
#     4   9  15  27  51  79 106 132 162 213 272 318
#     4  10  18  31  54  80 104 138 182 219 260 322
#     4  11  23  38  55  76 105 142 185 235 283 328
#
# _framework density 18.406995999999999
#
# number of rings (size 3 to 8) (size 9 to 14) (size 15 to 20)
#    0.000    2.500    1.250    4.125    0.000    3.750 
#    0.000    3.125    0.000    0.750    0.000    8.750 
#    0.000    3.000    0.000    0.000    0.000    0.000 
#
# Total GULP energy -1585881.421274 kJ/mol
# GULP energy per Si atom -12389.698604 kJ/mol
# Density = 1.836510 g / cm^3
# Si number density = 18.406996 Si / 1000 Ang^3
#
#
#
# Elastic Constant Matrix: (Units=GPa)
#
#
# Indices 1 2 3 4 5 6 
#
# 1 91.0809 39.6802 42.1657 0.0000 0.0000 0.0000
# 2 39.6802 91.0805 42.1656 0.0000 0.0000 0.0000
# 3 42.1657 42.1656 129.2291 0.0000 0.0000 0.0000
# 4 0.0000 0.0000 0.0000 15.2054 0.0000 0.0000
# 5 0.0000 0.0000 0.0000 0.0000 15.2056 0.0000
# 6 0.0000 0.0000 0.0000 0.0000 0.0000 17.9418
#
#
#
# Elastic Compliance Matrix: (Units=1/GPa)
#
#
# Indices 1 2 3 4 5 6 
#
# 1 0.014570 -0.004885 -0.003160 0.000000 0.000000 0.000000
# 2 -0.004885 0.014570 -0.003160 0.000000 0.000000 0.000000
# 3 -0.003160 -0.003160 0.009801 0.000000 0.000000 0.000000
# 4 0.000000 0.000000 0.000000 0.065766 0.000000 0.000000
# 5 0.000000 0.000000 0.000000 0.000000 0.065765 0.000000
# 6 0.000000 0.000000 0.000000 0.000000 0.000000 0.055736
#
#
# Mechanical properties :
#
#
# Convention : Reuss Voigt Hill
#
# Bulk Modulus (GPa) = 60.49345 62.15703 61.32524
# Shear Modulus (GPa) = 19.67503 22.16250 20.91877
#
# Velocity S-wave (km/s) = 3.27293 3.47367 3.37480
# Velocity P-wave (km/s) = 6.87157 7.06612 6.96952
#
# Compressibility (1/GPa) = 0.01653071
#
# Stress axis : x y z
#
# Youngs Moduli (GPa) = 68.63250 68.63223 102.03531
#
# Poissons Ratio (x) = 0.33525 0.32246
# Poissons Ratio (y) = 0.33525 0.32246
# Poissons Ratio (z) = 0.21690 0.21690
#
# Static dielectric constant tensor:
#      x y z
#    x 3.236100 0.000000 0.000000 
#    y 0.000000 3.236100 0.000000 
#    z 0.000000 0.000000 3.453850 
# 
# 
# High freq. dielectric constant tensor:
#      x y z
#    x 1.694400 0.000000 0.000000 
#    y 0.000000 1.694400 0.000000 
#    z 0.000000 0.000000 1.709730 
# 
# From -- ./inp_files/6150.got.cif
#   From: 2010.03.12/outbox.cif.g09.slc.cpg/sg129_4_cif.got.tgz:6150.got - 2010.04.06 17:19:44.
