data_PCOD8314869
_publ_section_title
;
Structure prediction by ZEFSAII (Michael W. Deem and Ramdas Pophale) SiO2 
 PCOD8314869
Probable space group: P 4/N M M
;
_chemical_formula_sum "Si O2"
_cell_formula_units_Z 128
_cell_length_a 22.141240
_cell_length_b 22.141240
_cell_length_c 16.279163
_cell_angle_alpha 90.000000
_cell_angle_beta 90.000000
_cell_angle_gamma 90.000000
_cell_volume 7980.607476
_symmetry_space_group_name_H-M "P 4/N M M"
_symmetry_group_IT_number 129
_symmetry_cell_setting 'tetragonal'
loop_
_space_group_symop_operation_xyz
x,y,z
1/2-y,x,z
1/2-x,1/2-y,z
y,1/2-x,z
1/2+x,-y,-z
-x,1/2+y,-z
1/2+y,1/2+x,-z
-y,-x,-z
-x,-y,-z
1/2+y,-x,-z
1/2+x,1/2+y,-z
-y,1/2+x,-z
1/2-x,y,z
x,1/2-y,z
1/2-y,1/2-x,z
y,x,z
loop_
_atom_site_type_symbol
_atom_site_label
_atom_site_fract_x
_atom_site_fract_y
_atom_site_fract_z
Si Si1 0.001654 0.318051 0.435851
Si Si2 0.909792 0.683234 0.706153
Si Si3 0.681102 0.181389 0.218080
Si Si4 0.413937 0.989836 0.565223
Si Si5 0.588302 0.115028 0.315850
Si Si6 0.901032 0.178923 0.939360
Si Si7 0.397127 0.007649 0.182433
Si Si8 0.498024 0.097134 0.997409
O O1 0.982471 0.250000 0.457087
O O2 0.011927 0.352990 0.521065
O O3 0.950665 0.347629 0.380049
O O4 0.063565 0.320510 0.385316
O O5 0.905721 0.750000 0.740351
O O6 0.842841 0.657160 0.701507
O O7 0.949211 0.648437 0.771590
O O8 0.750000 0.184869 0.244827
O O9 0.659198 0.250000 0.193857
O O10 0.646126 0.156404 0.297634
O O11 0.671722 0.131892 0.147369
O O12 0.452859 0.952859 0.500000
O O13 0.395426 0.949296 0.643464
O O14 0.452628 0.047373 0.596125
O O15 0.556116 0.102256 0.228587
O O16 0.906669 0.250000 0.963085
O O17 0.856747 0.143254 0.000000
O O18 0.969094 0.148110 0.939536
O O19 0.464686 0.035315 0.184895
O O20 0.374243 0.002817 0.088860
O O21 0.430465 0.069536 0.971632
O O22 0.539561 0.039561 0.000000
#
# Coordination Sequence:
#
# PCOD8314869 Si02
#       8
#    16  16  16  16  16  16  16  16
#     4   9  17  28  43  62  83 109 141 177 213 252
#     4   9  17  28  42  61  85 113 142 172 208 250
#     4  10  21  34  45  60  86 117 145 176 214 252
#     4   9  17  28  43  64  87 109 135 174 222 263
#     4  10  17  28  46  63  80 108 146 177 207 253
#     4  10  19  30  45  65  88 117 152 186 220 262
#     4   9  17  28  42  62  87 109 134 173 215 254
#     4   9  17  29  44  63  87 114 144 182 227 266
#
# _framework density 16.038879000000001
#
# number of rings (size 3 to 8) (size 9 to 14) (size 15 to 20)
#    0.000    2.625    0.000    3.000    0.000    5.250 
#    0.000    0.625    0.000    0.000    0.000    6.125 
#    0.000    0.250    0.000    0.000    0.000    3.375 
#
# Total GULP energy -1585818.825657 kJ/mol
# GULP energy per Si atom -12389.209575 kJ/mol
# Density = 1.600237 g / cm^3
# Si number density = 16.038879 Si / 1000 Ang^3
#
#
#
# Elastic Constant Matrix: (Units=GPa)
#
#
# Indices 1 2 3 4 5 6 
#
# 1 73.5311 39.0924 31.1901 0.0000 0.0000 0.0000
# 2 39.0924 73.5311 31.1901 0.0000 0.0000 0.0000
# 3 31.1901 31.1901 47.3156 0.0000 0.0000 0.0000
# 4 0.0000 0.0000 0.0000 21.9824 0.0000 0.0000
# 5 0.0000 0.0000 0.0000 0.0000 21.9823 0.0000
# 6 0.0000 0.0000 0.0000 0.0000 0.0000 24.3887
#
#
#
# Elastic Compliance Matrix: (Units=1/GPa)
#
#
# Indices 1 2 3 4 5 6 
#
# 1 0.021511 -0.007526 -0.009219 0.000000 0.000000 0.000000
# 2 -0.007526 0.021511 -0.009219 0.000000 0.000000 0.000000
# 3 -0.009219 -0.009219 0.033289 0.000000 0.000000 0.000000
# 4 0.000000 0.000000 0.000000 0.045491 0.000000 0.000000
# 5 0.000000 0.000000 0.000000 0.000000 0.045491 0.000000
# 6 0.000000 0.000000 0.000000 0.000000 0.000000 0.041003
#
#
# Mechanical properties :
#
#
# Convention : Reuss Voigt Hill
#
# Bulk Modulus (GPa) = 41.01137 44.14699 42.57918
# Shear Modulus (GPa) = 18.63225 19.86436 19.24830
#
# Velocity S-wave (km/s) = 3.41206 3.52307 3.46801
# Velocity P-wave (km/s) = 6.41470 6.64335 6.53002
#
# Compressibility (1/GPa) = 0.02438348
#
# Stress axis : x y z
#
# Youngs Moduli (GPa) = 46.48731 46.48737 30.04003
#
# Poissons Ratio (x) = 0.34986 0.27694
# Poissons Ratio (y) = 0.34985 0.27694
# Poissons Ratio (z) = 0.42857 0.42857
#
# Static dielectric constant tensor:
#      x y z
#    x 3.205410 0.000000 0.000000 
#    y 0.000000 3.205410 0.000000 
#    z 0.000000 0.000000 3.104160 
# 
# 
# High freq. dielectric constant tensor:
#      x y z
#    x 1.608040 0.000000 0.000000 
#    y 0.000000 1.608040 0.000000 
#    z 0.000000 0.000000 1.599030 
# 
# From -- ./inp_files/6165.got.cif
#   From: 2010.03.12/outbox.cif.g09.slc.cpg/sg129_4_cif.got.tgz:6165.got - 2010.04.06 17:19:44.
