data_PCOD8314489
_publ_section_title
;
Structure prediction by ZEFSAII (Michael W. Deem and Ramdas Pophale) SiO2 
 PCOD8314489
Probable space group: P 4/M N C
;
_chemical_formula_sum "Si O2"
_cell_formula_units_Z 112
_cell_length_a 16.504010
_cell_length_b 16.504010
_cell_length_c 25.066641
_cell_angle_alpha 90.000000
_cell_angle_beta 90.000000
_cell_angle_gamma 90.000000
_cell_volume 6827.710484
_symmetry_space_group_name_H-M "P 4/M N C"
_symmetry_group_IT_number 128
_symmetry_cell_setting 'tetragonal'
loop_
_space_group_symop_operation_xyz
x,y,z
-y,x,z
-x,-y,z
y,-x,z
1/2+x,1/2-y,1/2-z
1/2-x,1/2+y,1/2-z
1/2+y,1/2+x,1/2-z
1/2-y,1/2-x,1/2-z
-x,-y,-z
y,-x,-z
x,y,-z
-y,x,-z
1/2-x,1/2+y,1/2+z
1/2+x,1/2-y,1/2+z
1/2-y,1/2-x,1/2+z
1/2+y,1/2+x,1/2+z
loop_
_atom_site_type_symbol
_atom_site_label
_atom_site_fract_x
_atom_site_fract_y
_atom_site_fract_z
Si Si1 0.382036 0.298495 0.744910
Si Si2 0.780905 0.051461 0.778897
Si Si3 0.345723 0.804661 0.360544
Si Si4 0.907846 0.573200 0.438401
Si Si5 0.709041 0.811095 0.338228
Si Si6 0.596530 0.931768 0.386951
Si Si7 0.870992 0.538529 0.209986
O O1 0.324061 0.375795 0.751439
O O2 0.468490 0.333192 0.722676
O O3 0.351611 0.234406 0.701359
O O4 0.377746 0.259689 0.804364
O O5 0.757000 0.085698 0.837470
O O6 0.705499 0.014766 0.745721
O O7 0.369764 0.833784 0.420139
O O8 0.256770 0.766010 0.365207
O O9 0.343834 0.881680 0.322018
O O10 0.898925 0.550435 0.500000
O O11 0.900888 0.493020 0.401655
O O12 0.994800 0.617556 0.428061
O O13 0.660822 0.857554 0.386314
O O14 0.598127 0.965705 0.326790
O O15 0.944151 0.555850 0.250000
#
# Coordination Sequence:
#
# PCOD8314489 Si02
#       7
#    16  16  16  16  16  16  16
#     4  10  19  28  45  65 104 133 158 190 224 273
#     4  10  17  30  44  68  99 132 160 187 224 276
#     4   9  18  32  49  66  93 128 161 194 240 285
#     4  10  21  37  50  67  95 125 157 207 259 293
#     4  10  18  30  47  73  95 127 159 195 238 279
#     4  10  18  31  49  72  96 126 158 197 241 289
#     4   9  16  27  44  68 101 128 155 188 224 282
#
# _framework density 16.403741
#
# number of rings (size 3 to 8) (size 9 to 14) (size 15 to 20)
#    0.000    2.286    2.857    1.714    0.000    1.429 
#    0.000    3.571    0.000    0.000    0.000    0.000 
#    0.000    0.000    0.000   17.286    0.000    0.000 
#
# Total GULP energy -1387574.177075 kJ/mol
# GULP energy per Si atom -12389.055152 kJ/mol
# Density = 1.636641 g / cm^3
# Si number density = 16.403741 Si / 1000 Ang^3
#
#
#
# Elastic Constant Matrix: (Units=GPa)
#
#
# Indices 1 2 3 4 5 6 
#
# 1 77.2362 42.7538 33.2649 0.0000 0.0000 0.0000
# 2 42.7538 77.2366 33.2640 0.0000 0.0000 0.0000
# 3 33.2649 33.2640 68.1014 0.0000 0.0000 0.0000
# 4 0.0000 0.0000 0.0000 14.6720 0.0000 0.0000
# 5 0.0000 0.0000 0.0000 0.0000 14.6719 0.0000
# 6 0.0000 0.0000 0.0000 0.0000 0.0000 25.1597
#
#
#
# Elastic Compliance Matrix: (Units=1/GPa)
#
#
# Indices 1 2 3 4 5 6 
#
# 1 0.020215 -0.008785 -0.005583 0.000000 0.000000 0.000000
# 2 -0.008785 0.020215 -0.005582 0.000000 0.000000 0.000000
# 3 -0.005583 -0.005582 0.020138 0.000000 0.000000 0.000000
# 4 0.000000 0.000000 0.000000 0.068157 0.000000 0.000000
# 5 0.000000 0.000000 0.000000 0.000000 0.068158 0.000000
# 6 0.000000 0.000000 0.000000 0.000000 0.000000 0.039746
#
#
# Mechanical properties :
#
#
# Convention : Reuss Voigt Hill
#
# Bulk Modulus (GPa) = 48.38952 49.01550 48.70251
# Shear Modulus (GPa) = 17.64177 18.45349 18.04763
#
# Velocity S-wave (km/s) = 3.28300 3.35768 3.32055
# Velocity P-wave (km/s) = 6.62826 6.70653 6.66751
#
# Compressibility (1/GPa) = 0.02066563
#
# Stress axis : x y z
#
# Youngs Moduli (GPa) = 49.46826 49.46935 49.65790
#
# Poissons Ratio (x) = 0.43461 0.27724
# Poissons Ratio (y) = 0.43460 0.27721
# Poissons Ratio (z) = 0.27618 0.27616
#
# Static dielectric constant tensor:
#      x y z
#    x 3.120360 0.000000 0.000000 
#    y 0.000000 3.120360 0.000000 
#    z 0.000000 0.000000 2.827740 
# 
# 
# High freq. dielectric constant tensor:
#      x y z
#    x 1.627060 0.000000 0.000000 
#    y 0.000000 1.627060 0.000000 
#    z 0.000000 0.000000 1.593020 
# 
# From -- ./inp_files/6578.got.cif
#   From: 2010.03.12/outbox.cif.g09.slc.cpg/sg128_4_cif.got.tgz:6578.got - 2010.04.06 17:11:05.
