data_PCOD8314523
_publ_section_title
;
Structure prediction by ZEFSAII (Michael W. Deem and Ramdas Pophale) SiO2 
 PCOD8314523
Probable space group: P 4/M N C
;
_chemical_formula_sum "Si O2"
_cell_formula_units_Z 96
_cell_length_a 24.686447
_cell_length_b 24.686447
_cell_length_c 9.173891
_cell_angle_alpha 90.000000
_cell_angle_beta 90.000000
_cell_angle_gamma 90.000000
_cell_volume 5590.758758
_symmetry_space_group_name_H-M "P 4/M N C"
_symmetry_group_IT_number 128
_symmetry_cell_setting 'tetragonal'
loop_
_space_group_symop_operation_xyz
x,y,z
-y,x,z
-x,-y,z
y,-x,z
1/2+x,1/2-y,1/2-z
1/2-x,1/2+y,1/2-z
1/2+y,1/2+x,1/2-z
1/2-y,1/2-x,1/2-z
-x,-y,-z
y,-x,-z
x,y,-z
-y,x,-z
1/2-x,1/2+y,1/2+z
1/2+x,1/2-y,1/2+z
1/2-y,1/2-x,1/2+z
1/2+y,1/2+x,1/2+z
loop_
_atom_site_type_symbol
_atom_site_label
_atom_site_fract_x
_atom_site_fract_y
_atom_site_fract_z
Si Si1 0.670033 0.247044 0.331100
Si Si2 0.446850 0.246748 0.163002
Si Si3 0.748295 0.049670 0.837450
Si Si4 0.758686 0.337112 0.670377
Si Si5 0.550072 0.880445 0.838647
Si Si6 0.050735 0.379404 0.162044
O O1 0.695123 0.195123 0.250000
O O2 0.665952 0.230547 0.500000
O O3 0.609581 0.261691 0.272970
O O4 0.706895 0.299283 0.305624
O O5 0.501242 0.272114 0.236656
O O6 0.394294 0.258713 0.260912
O O7 0.454713 0.183285 0.150627
O O8 0.439799 0.271466 0.000000
O O9 0.684278 0.044457 0.846237
O O10 0.773158 0.043098 0.000000
O O11 0.810883 0.310883 0.750000
O O12 0.773125 0.344338 0.500000
O O13 0.604361 0.895640 0.750000
O O14 0.499592 0.905171 0.749879
O O15 0.552033 0.905918 0.000000
O O16 0.105090 0.394911 0.250000
O O17 0.052901 0.404196 0.000000
#
# Coordination Sequence:
#
# PCOD8314523 Si02
#       6
#    16  16  16  16  16  16
#     4   9  18  31  48  71  97 126 158 192 233 279
#     4  10  20  32  47  67  90 118 152 188 227 272
#     4   9  18  32  48  66  90 119 150 185 225 270
#     4  10  19  31  48  70  97 127 158 193 233 278
#     4  10  20  32  44  58  77 103 139 181 222 263
#     4  10  19  30  44  60  79 105 138 177 220 262
#
# _framework density 17.171194
#
# number of rings (size 3 to 8) (size 9 to 14) (size 15 to 20)
#    0.000    2.333    0.000    3.000    0.000    5.667 
#    0.000    1.667    0.000    0.000    0.000    0.000 
#    0.000    0.667    0.000    7.667    0.000    3.000 
#
# Total GULP energy -1190028.991775 kJ/mol
# GULP energy per Si atom -12396.135331 kJ/mol
# Density = 1.713211 g / cm^3
# Si number density = 17.171194 Si / 1000 Ang^3
#
#
#
# Elastic Constant Matrix: (Units=GPa)
#
#
# Indices 1 2 3 4 5 6 
#
# 1 73.2371 14.4664 38.6646 0.0000 0.0000 0.0000
# 2 14.4664 73.2393 38.6644 0.0000 0.0000 0.0000
# 3 38.6646 38.6644 128.6065 0.0000 0.0000 0.0000
# 4 0.0000 0.0000 0.0000 20.8502 0.0000 0.0000
# 5 0.0000 0.0000 0.0000 0.0000 20.8497 0.0000
# 6 0.0000 0.0000 0.0000 0.0000 0.0000 17.2574
#
#
#
# Elastic Compliance Matrix: (Units=1/GPa)
#
#
# Indices 1 2 3 4 5 6 
#
# 1 0.016265 -0.000750 -0.004664 0.000000 0.000000 0.000000
# 2 -0.000750 0.016264 -0.004664 0.000000 0.000000 0.000000
# 3 -0.004664 -0.004664 0.010580 0.000000 0.000000 0.000000
# 4 0.000000 0.000000 0.000000 0.047961 0.000000 0.000000
# 5 0.000000 0.000000 0.000000 0.000000 0.047962 0.000000
# 6 0.000000 0.000000 0.000000 0.000000 0.000000 0.057946
#
#
# Mechanical properties :
#
#
# Convention : Reuss Voigt Hill
#
# Bulk Modulus (GPa) = 43.56940 50.96377 47.26659
# Shear Modulus (GPa) = 22.24322 24.01062 23.12692
#
# Velocity S-wave (km/s) = 3.60304 3.74345 3.67392
# Velocity P-wave (km/s) = 6.53742 6.95908 6.75154
#
# Compressibility (1/GPa) = 0.02295189
#
# Stress axis : x y z
#
# Youngs Moduli (GPa) = 61.48174 61.48404 94.51606
#
# Poissons Ratio (x) = 0.04613 0.44086
# Poissons Ratio (y) = 0.04613 0.44084
# Poissons Ratio (z) = 0.28677 0.28677
#
# Static dielectric constant tensor:
#      x y z
#    x 3.047020 0.000000 0.000000 
#    y 0.000000 3.047010 0.000000 
#    z 0.000000 0.000000 3.625040 
# 
# 
# High freq. dielectric constant tensor:
#      x y z
#    x 1.633010 0.000000 0.000000 
#    y 0.000000 1.633010 0.000000 
#    z 0.000000 0.000000 1.680020 
# 
# From -- ./inp_files/1596.got.cif
#   From: 2010.03.12/outbox.cif.g09.slc.cpg/sg128_1_cif.got.tgz:1596.got - 2010.04.06 17:11:05.
