data_PCOD8314557
_publ_section_title
;
Structure prediction by ZEFSAII (Michael W. Deem and Ramdas Pophale) SiO2 
 PCOD8314557
Probable space group: P 4/M N C
;
_chemical_formula_sum "Si O2"
_cell_formula_units_Z 96
_cell_length_a 24.006356
_cell_length_b 24.006356
_cell_length_c 8.851598
_cell_angle_alpha 90.000000
_cell_angle_beta 90.000000
_cell_angle_gamma 90.000000
_cell_volume 5101.221322
_symmetry_space_group_name_H-M "P 4/M N C"
_symmetry_group_IT_number 128
_symmetry_cell_setting 'tetragonal'
loop_
_space_group_symop_operation_xyz
x,y,z
-y,x,z
-x,-y,z
y,-x,z
1/2+x,1/2-y,1/2-z
1/2-x,1/2+y,1/2-z
1/2+y,1/2+x,1/2-z
1/2-y,1/2-x,1/2-z
-x,-y,-z
y,-x,-z
x,y,-z
-y,x,-z
1/2-x,1/2+y,1/2+z
1/2+x,1/2-y,1/2+z
1/2-y,1/2-x,1/2+z
1/2+y,1/2+x,1/2+z
loop_
_atom_site_type_symbol
_atom_site_label
_atom_site_fract_x
_atom_site_fract_y
_atom_site_fract_z
Si Si1 0.307307 0.273485 0.178386
Si Si2 0.637533 0.217506 0.178139
Si Si3 0.583260 0.999806 0.319541
Si Si4 0.709482 0.013782 0.679004
Si Si5 0.415669 0.531854 0.323474
Si Si6 0.301757 0.570119 0.179532
O O1 0.283299 0.216702 0.250000
O O2 0.270104 0.325933 0.230527
O O3 0.368866 0.285556 0.240579
O O4 0.306841 0.265897 0.000000
O O5 0.661127 0.161127 0.250000
O O6 0.575011 0.226076 0.238220
O O7 0.638592 0.209726 0.000000
O O8 0.554783 0.054783 0.250000
O O9 0.576260 0.000704 0.500000
O O10 0.647448 0.997977 0.267889
O O11 0.555023 0.944978 0.250000
O O12 0.712093 0.011896 0.500000
O O13 0.754869 0.971261 0.746572
O O14 0.429316 0.468075 0.279469
O O15 0.403147 0.536512 0.500000
O O16 0.362574 0.552501 0.232550
O O17 0.302233 0.569566 0.000000
#
# Coordination Sequence:
#
# PCOD8314557 Si02
#       6
#    16  16  16  16  16  16
#     4   9  19  34  53  76 103 137 175 213 256 308
#     4   9  17  32  52  73  99 131 166 210 255 298
#     4  10  19  33  52  74 101 138 175 217 264 312
#     4   9  19  33  50  74 107 135 164 211 265 308
#     4   9  20  39  58  78 109 145 178 218 271 326
#     4  10  21  35  55  83 109 139 180 223 267 316
#
# _framework density 18.819022
#
# number of rings (size 3 to 8) (size 9 to 14) (size 15 to 20)
#    0.000    2.667    0.000    2.000    2.333    2.000 
#    0.000    4.167    0.000    0.000    0.000    0.000 
#    0.000    0.000    0.000    0.000    0.000    0.000 
#
# Total GULP energy -1190332.570881 kJ/mol
# GULP energy per Si atom -12399.297613 kJ/mol
# Density = 1.877619 g / cm^3
# Si number density = 18.819022 Si / 1000 Ang^3
#
#
#
# Elastic Constant Matrix: (Units=GPa)
#
#
# Indices 1 2 3 4 5 6 
#
# 1 161.7710 89.8409 27.9167 0.0000 0.0000 0.0000
# 2 89.8409 161.7722 27.9163 0.0000 0.0000 0.0000
# 3 27.9167 27.9163 30.2627 0.0000 0.0000 0.0000
# 4 0.0000 0.0000 0.0000 26.1524 0.0000 0.0000
# 5 0.0000 0.0000 0.0000 0.0000 26.1521 0.0000
# 6 0.0000 0.0000 0.0000 0.0000 0.0000 27.2015
#
#
#
# Elastic Compliance Matrix: (Units=1/GPa)
#
#
# Indices 1 2 3 4 5 6 
#
# 1 0.009450 -0.004452 -0.004610 0.000000 0.000000 0.000000
# 2 -0.004452 0.009450 -0.004610 0.000000 0.000000 0.000000
# 3 -0.004610 -0.004610 0.041549 0.000000 0.000000 0.000000
# 4 0.000000 0.000000 0.000000 0.038237 0.000000 0.000000
# 5 0.000000 0.000000 0.000000 0.000000 0.038238 0.000000
# 6 0.000000 0.000000 0.000000 0.000000 0.000000 0.036763
#
#
# Mechanical properties :
#
#
# Convention : Reuss Voigt Hill
#
# Bulk Modulus (GPa) = 30.20780 71.68374 50.94577
# Shear Modulus (GPa) = 23.57762 29.77666 26.67714
#
# Velocity S-wave (km/s) = 3.54342 3.98208 3.76914
# Velocity P-wave (km/s) = 5.72954 7.70172 6.78764
#
# Compressibility (1/GPa) = 0.03310403
#
# Stress axis : x y z
#
# Youngs Moduli (GPa) = 105.82180 105.82323 24.06802
#
# Poissons Ratio (x) = 0.47118 0.11095
# Poissons Ratio (y) = 0.47117 0.11095
# Poissons Ratio (z) = 0.48784 0.48782
#
# Static dielectric constant tensor:
#      x y z
#    x 3.693010 0.000000 0.000000 
#    y 0.000000 3.693000 0.000000 
#    z 0.000000 0.000000 3.163890 
# 
# 
# High freq. dielectric constant tensor:
#      x y z
#    x 1.738750 0.000000 0.000000 
#    y 0.000000 1.738750 0.000000 
#    z 0.000000 0.000000 1.706100 
# 
# From -- ./inp_files/1438.got.cif
#   From: 2010.03.12/outbox.cif.g09.slc.cpg/sg128_1_cif.got.tgz:1438.got - 2010.04.06 17:11:05.
