data_PCOD8314099
_publ_section_title
;
Structure prediction by ZEFSAII (Michael W. Deem and Ramdas Pophale) SiO2 
 PCOD8314099
Probable space group: P 4/M B M
;
_chemical_formula_sum "Si O2"
_cell_formula_units_Z 96
_cell_length_a 24.020693
_cell_length_b 24.020693
_cell_length_c 9.408515
_cell_angle_alpha 90.000000
_cell_angle_beta 90.000000
_cell_angle_gamma 90.000000
_cell_volume 5428.653808
_symmetry_space_group_name_H-M "P 4/M B M"
_symmetry_group_IT_number 127
_symmetry_cell_setting 'tetragonal'
loop_
_space_group_symop_operation_xyz
x,y,z
-y,x,z
-x,-y,z
y,-x,z
1/2+x,1/2-y,-z
1/2-x,1/2+y,-z
1/2+y,1/2+x,-z
1/2-y,1/2-x,-z
-x,-y,-z
y,-x,-z
x,y,-z
-y,x,-z
1/2-x,1/2+y,z
1/2+x,1/2-y,z
1/2-y,1/2-x,z
1/2+y,1/2+x,z
loop_
_atom_site_type_symbol
_atom_site_label
_atom_site_fract_x
_atom_site_fract_y
_atom_site_fract_z
Si Si1 0.294286 0.479789 0.833688
Si Si2 0.674357 0.825644 0.831880
Si Si3 0.243016 0.256985 0.667083
Si Si4 0.413689 0.505611 0.168779
Si Si5 0.314099 0.046934 0.834218
Si Si6 0.885083 0.745373 0.334468
Si Si7 0.864082 0.547817 0.335683
O O1 0.350500 0.508976 0.777809
O O2 0.245961 0.522686 0.794031
O O3 0.289161 0.421031 0.754455
O O4 0.295723 0.466452 0.000000
O O5 0.716144 0.783857 0.752559
O O6 0.686254 0.889094 0.784815
O O7 0.682764 0.817237 0.000000
O O8 0.252623 0.247378 0.500000
O O9 0.254269 0.321020 0.709368
O O10 0.441704 0.448403 0.226267
O O11 0.415344 0.505219 0.000000
O O12 0.359875 0.009411 0.753294
O O13 0.328007 0.042533 0.000000
O O14 0.893232 0.757258 0.500000
O O15 0.907248 0.683648 0.296107
O O16 0.859706 0.531306 0.500000
O O17 0.923204 0.576797 0.301280
#
# Coordination Sequence:
#
# PCOD8314099 Si02
#       7
#    16   8   8  16  16  16  16
#     4   9  17  29  48  73  96 122 162 205 242 289
#     4  10  22  38  51  67 102 145 175 203 246 296
#     4  10  20  34  52  73  99 131 167 205 247 296
#     4   8  14  25  42  65  92 121 154 196 244 286
#     4   9  19  34  49  69  98 132 167 203 247 298
#     4   9  17  31  49  72 101 127 154 195 248 300
#     4   9  16  30  54  78  98 123 156 200 254 300
#
# _framework density 17.683941999999998
#
# number of rings (size 3 to 8) (size 9 to 14) (size 15 to 20)
#    0.000    3.000    0.833    0.500    0.000    3.000 
#    0.000    3.750    0.000    3.500    0.000    1.167 
#    0.000    0.000    0.000    0.000    0.000    0.000 
#
# Total GULP energy -1189941.690581 kJ/mol
# GULP energy per Si atom -12395.225944 kJ/mol
# Density = 1.764369 g / cm^3
# Si number density = 17.683942 Si / 1000 Ang^3
#
#
#
# Elastic Constant Matrix: (Units=GPa)
#
#
# Indices 1 2 3 4 5 6 
#
# 1 115.9845 54.0947 35.8996 0.0000 0.0000 0.0000
# 2 54.0947 115.9848 35.8995 0.0000 0.0000 0.0000
# 3 35.8996 35.8995 35.9626 0.0000 0.0000 0.0000
# 4 0.0000 0.0000 0.0000 23.7646 0.0000 0.0000
# 5 0.0000 0.0000 0.0000 0.0000 23.7645 0.0000
# 6 0.0000 0.0000 0.0000 0.0000 0.0000 22.9455
#
#
#
# Elastic Compliance Matrix: (Units=1/GPa)
#
#
# Indices 1 2 3 4 5 6 
#
# 1 0.013160 -0.002998 -0.010144 0.000000 0.000000 0.000000
# 2 -0.002998 0.013160 -0.010144 0.000000 0.000000 0.000000
# 3 -0.010144 -0.010144 0.048060 0.000000 0.000000 0.000000
# 4 0.000000 0.000000 0.000000 0.042079 0.000000 0.000000
# 5 0.000000 0.000000 0.000000 0.000000 0.042080 0.000000
# 6 0.000000 0.000000 0.000000 0.000000 0.000000 0.043582
#
#
# Mechanical properties :
#
#
# Convention : Reuss Voigt Hill
#
# Bulk Modulus (GPa) = 35.96247 57.74662 46.85455
# Shear Modulus (GPa) = 19.38276 23.56412 21.47344
#
# Velocity S-wave (km/s) = 3.31428 3.65432 3.48845
# Velocity P-wave (km/s) = 5.91830 7.10853 6.54055
#
# Compressibility (1/GPa) = 0.02780676
#
# Stress axis : x y z
#
# Youngs Moduli (GPa) = 75.98844 75.98888 20.80752
#
# Poissons Ratio (x) = 0.22780 0.21108
# Poissons Ratio (y) = 0.22780 0.21107
# Poissons Ratio (z) = 0.77085 0.77084
#
# Static dielectric constant tensor:
#      x y z
#    x 3.406710 0.000000 0.000000 
#    y 0.000000 3.406710 0.000000 
#    z 0.000000 0.000000 3.032150 
# 
# 
# High freq. dielectric constant tensor:
#      x y z
#    x 1.681960 0.000000 0.000000 
#    y 0.000000 1.681960 0.000000 
#    z 0.000000 0.000000 1.657680 
# 
# From -- ./inp_files/2083.got.cif
#   From: 2010.03.12/outbox.cif.g09.slc.cpg/sg127_2_cif.got.tgz:2083.got - 2010.04.06 17:03:15.
