data_PCOD8314189
_publ_section_title
;
Structure prediction by ZEFSAII (Michael W. Deem and Ramdas Pophale) SiO2 
 PCOD8314189
Probable space group: P 4/M B M
;
_chemical_formula_sum "Si O2"
_cell_formula_units_Z 96
_cell_length_a 19.562018
_cell_length_b 19.562018
_cell_length_c 14.349417
_cell_angle_alpha 90.000000
_cell_angle_beta 90.000000
_cell_angle_gamma 90.000000
_cell_volume 5491.127969
_symmetry_space_group_name_H-M "P 4/M B M"
_symmetry_group_IT_number 127
_symmetry_cell_setting 'tetragonal'
loop_
_space_group_symop_operation_xyz
x,y,z
-y,x,z
-x,-y,z
y,-x,z
1/2+x,1/2-y,-z
1/2-x,1/2+y,-z
1/2+y,1/2+x,-z
1/2-y,1/2-x,-z
-x,-y,-z
y,-x,-z
x,y,-z
-y,x,-z
1/2-x,1/2+y,z
1/2+x,1/2-y,z
1/2-y,1/2-x,z
1/2+y,1/2+x,z
loop_
_atom_site_type_symbol
_atom_site_label
_atom_site_fract_x
_atom_site_fract_y
_atom_site_fract_z
Si Si1 0.111339 0.496491 0.896346
Si Si2 0.572155 0.669125 0.707999
Si Si3 0.174151 0.560761 0.728006
Si Si4 0.100144 0.051373 0.103323
Si Si5 0.328402 0.936049 0.608623
Si Si6 0.328582 0.432000 0.389853
O O1 0.052801 0.552801 0.892620
O O2 0.171358 0.518748 0.825773
O O3 0.076627 0.423374 0.869858
O O4 0.143272 0.492182 0.000000
O O5 0.584404 0.749878 0.702531
O O6 0.577981 0.650255 0.816737
O O7 0.630642 0.633137 0.647641
O O8 0.499971 0.646145 0.663479
O O9 0.127589 0.627589 0.728743
O O10 0.147172 0.508031 0.650754
O O11 0.029073 0.090272 0.115285
O O12 0.130480 0.067105 0.000000
O O13 0.338456 0.943725 0.500000
O O14 0.374995 0.874995 0.648785
O O15 0.250425 0.918941 0.634571
O O16 0.340763 0.441204 0.500000
#
# Coordination Sequence:
#
# PCOD8314189 Si02
#       6
#    16  16  16  16  16  16
#     4   8  14  27  48  72  98 128 162 202 249 300
#     4  11  20  34  53  74 105 138 171 214 259 310
#     4  10  21  33  49  77 107 134 171 217 264 309
#     4   9  17  31  52  77 102 130 168 210 250 297
#     4   9  19  36  55  74  99 134 175 216 259 312
#     4  10  21  35  52  76 103 134 173 215 260 310
#
# _framework density 17.482747
#
# number of rings (size 3 to 8) (size 9 to 14) (size 15 to 20)
#    0.000    2.500    1.667    2.000    0.000    3.667 
#    0.000    1.667    0.000    0.000    0.000    0.000 
#    0.000    0.000    0.000    0.000    0.000    0.000 
#
# Total GULP energy -1190137.123376 kJ/mol
# GULP energy per Si atom -12397.261702 kJ/mol
# Density = 1.744296 g / cm^3
# Si number density = 17.482747 Si / 1000 Ang^3
#
#
#
# Elastic Constant Matrix: (Units=GPa)
#
#
# Indices 1 2 3 4 5 6 
#
# 1 62.9444 37.8149 35.9478 0.0000 0.0000 0.0000
# 2 37.8149 62.9444 35.9478 0.0000 0.0000 0.0000
# 3 35.9478 35.9478 81.2126 0.0000 0.0000 0.0000
# 4 0.0000 0.0000 0.0000 27.1168 0.0000 0.0000
# 5 0.0000 0.0000 0.0000 0.0000 27.1168 0.0000
# 6 0.0000 0.0000 0.0000 0.0000 0.0000 31.2587
#
#
#
# Elastic Compliance Matrix: (Units=1/GPa)
#
#
# Indices 1 2 3 4 5 6 
#
# 1 0.027150 -0.012644 -0.006421 0.000000 0.000000 0.000000
# 2 -0.012644 0.027150 -0.006421 0.000000 0.000000 0.000000
# 3 -0.006421 -0.006421 0.017998 0.000000 0.000000 0.000000
# 4 0.000000 0.000000 0.000000 0.036878 0.000000 0.000000
# 5 0.000000 0.000000 0.000000 0.000000 0.036878 0.000000
# 6 0.000000 0.000000 0.000000 0.000000 0.000000 0.031991
#
#
# Mechanical properties :
#
#
# Convention : Reuss Voigt Hill
#
# Bulk Modulus (GPa) = 46.89068 47.39135 47.14102
# Shear Modulus (GPa) = 21.17525 23.59117 22.38321
#
# Velocity S-wave (km/s) = 3.48402 3.67740 3.58201
# Velocity P-wave (km/s) = 6.56231 6.72290 6.64309
#
# Compressibility (1/GPa) = 0.02132620
#
# Stress axis : x y z
#
# Youngs Moduli (GPa) = 36.83224 36.83224 55.56251
#
# Poissons Ratio (x) = 0.46570 0.35677
# Poissons Ratio (y) = 0.46570 0.35677
# Poissons Ratio (z) = 0.23650 0.23650
#
# Static dielectric constant tensor:
#      x y z
#    x 3.113950 0.000000 0.000000 
#    y 0.000000 3.113950 0.000000 
#    z 0.000000 0.000000 3.508360 
# 
# 
# High freq. dielectric constant tensor:
#      x y z
#    x 1.658910 0.000000 0.000000 
#    y 0.000000 1.658910 0.000000 
#    z 0.000000 0.000000 1.690730 
# 
# From -- ./inp_files/4547.got.cif
#   From: 2010.03.12/outbox.cif.g09.slc.cpg/sg127_3_cif.got.tgz:4547.got - 2010.04.06 17:03:15.
