data_PCOD8314826
_publ_section_title
;
Structure prediction by ZEFSAII (Michael W. Deem and Ramdas Pophale) SiO2 
 PCOD8314826
Probable space group: P 4/M N C
;
_chemical_formula_sum "Si O2"
_cell_formula_units_Z 40
_cell_length_a 9.719055
_cell_length_b 9.719055
_cell_length_c 21.403507
_cell_angle_alpha 90.000000
_cell_angle_beta 90.000000
_cell_angle_gamma 90.000000
_cell_volume 2021.775915
_symmetry_space_group_name_H-M "P 4/M N C"
_symmetry_group_IT_number 128
_symmetry_cell_setting 'tetragonal'
loop_
_space_group_symop_operation_xyz
x,y,z
-y,x,z
-x,-y,z
y,-x,z
1/2+x,1/2-y,1/2-z
1/2-x,1/2+y,1/2-z
1/2+y,1/2+x,1/2-z
1/2-y,1/2-x,1/2-z
-x,-y,-z
y,-x,-z
x,y,-z
-y,x,-z
1/2-x,1/2+y,1/2+z
1/2+x,1/2-y,1/2+z
1/2-y,1/2-x,1/2+z
1/2+y,1/2+x,1/2+z
loop_
_atom_site_type_symbol
_atom_site_label
_atom_site_fract_x
_atom_site_fract_y
_atom_site_fract_z
Si Si1 0.361984 0.862646 0.321889
Si Si2 0.647129 0.836320 0.870573
Si Si3 0.700891 0.388051 0.000000
O O1 0.394425 0.894425 0.250000
O O2 0.263889 0.732168 0.327972
O O3 0.500348 0.837433 0.361731
O O4 0.284970 0.997188 0.348461
O O5 0.665592 0.789892 0.941808
O O6 0.685273 0.552719 0.000000
#
# Coordination Sequence:
#
# PCOD8314826 Si02
#       3
#    16  16   8
#     4  11  23  41  63  95 128 163 207 253 313 373
#     4  11  23  40  64  92 126 166 204 259 307 365
#     4  11  22  41  65  92 124 163 220 257 305 378
#
# _framework density 19.784587999999999
#
# number of rings (size 3 to 8) (size 9 to 14) (size 15 to 20)
#    0.000    1.000    4.000    4.800    0.000    6.400 
#    0.000    4.000    0.000    2.400    0.000    0.000 
#    0.000    0.000    0.000    0.000    0.000    0.000 
#
# Total GULP energy -496129.244970 kJ/mol
# GULP energy per Si atom -12403.231124 kJ/mol
# Density = 1.973956 g / cm^3
# Si number density = 19.784588 Si / 1000 Ang^3
#
#
#
# Elastic Constant Matrix: (Units=GPa)
#
#
# Indices 1 2 3 4 5 6 
#
# 1 76.3799 73.7399 24.1651 0.0000 0.0000 0.0000
# 2 73.7399 76.3799 24.1651 0.0000 0.0000 0.0000
# 3 24.1651 24.1651 112.2931 0.0000 0.0000 0.0000
# 4 0.0000 0.0000 0.0000 28.0896 0.0000 0.0000
# 5 0.0000 0.0000 0.0000 0.0000 28.0896 0.0000
# 6 0.0000 0.0000 0.0000 0.0000 0.0000 42.4413
#
#
#
# Elastic Compliance Matrix: (Units=1/GPa)
#
#
# Indices 1 2 3 4 5 6 
#
# 1 0.192970 -0.185813 -0.001540 0.000000 0.000000 0.000000
# 2 -0.185813 0.192970 -0.001540 0.000000 0.000000 0.000000
# 3 -0.001540 -0.001540 0.009568 0.000000 0.000000 0.000000
# 4 0.000000 0.000000 0.000000 0.035600 0.000000 0.000000
# 5 0.000000 0.000000 0.000000 0.000000 0.035600 0.000000
# 6 0.000000 0.000000 0.000000 0.000000 0.000000 0.023562
#
#
# Mechanical properties :
#
#
# Convention : Reuss Voigt Hill
#
# Bulk Modulus (GPa) = 56.42787 56.57704 56.50246
# Shear Modulus (GPa) = 5.72104 29.25627 17.48866
#
# Velocity S-wave (km/s) = 1.70234 3.84961 2.97636
# Velocity P-wave (km/s) = 5.69622 6.95830 6.35865
#
# Compressibility (1/GPa) = 0.01772174
#
# Stress axis : x y z
#
# Youngs Moduli (GPa) = 5.18214 5.18214 104.51328
#
# Poissons Ratio (x) = 0.96291 0.16097
# Poissons Ratio (y) = 0.96291 0.16097
# Poissons Ratio (z) = 0.00798 0.00798
#
# Static dielectric constant tensor:
#      x y z
#    x 3.531790 0.000000 0.000000 
#    y 0.000000 3.531790 0.000000 
#    z 0.000000 0.000000 3.599790 
# 
# 
# High freq. dielectric constant tensor:
#      x y z
#    x 1.769780 0.000000 0.000000 
#    y 0.000000 1.769780 0.000000 
#    z 0.000000 0.000000 1.784100 
# 
# From -- ./inp_files/4257.got.cif
#   From: 2010.03.12/outbox.cif.g09.slc.cpg/sg128_3_cif.got.tgz:4257.got - 2010.04.06 17:11:05.
