data_PCOD8314200
_publ_section_title
;
Structure prediction by ZEFSAII (Michael W. Deem and Ramdas Pophale) SiO2 
 PCOD8314200
Probable space group: P 4/M B M
;
_chemical_formula_sum "Si O2"
_cell_formula_units_Z 96
_cell_length_a 23.751606
_cell_length_b 23.751606
_cell_length_c 9.278371
_cell_angle_alpha 90.000000
_cell_angle_beta 90.000000
_cell_angle_gamma 90.000000
_cell_volume 5234.288967
_symmetry_space_group_name_H-M "P 4/M B M"
_symmetry_group_IT_number 127
_symmetry_cell_setting 'tetragonal'
loop_
_space_group_symop_operation_xyz
x,y,z
-y,x,z
-x,-y,z
y,-x,z
1/2+x,1/2-y,-z
1/2-x,1/2+y,-z
1/2+y,1/2+x,-z
1/2-y,1/2-x,-z
-x,-y,-z
y,-x,-z
x,y,-z
-y,x,-z
1/2-x,1/2+y,z
1/2+x,1/2-y,z
1/2-y,1/2-x,z
1/2+y,1/2+x,z
loop_
_atom_site_type_symbol
_atom_site_label
_atom_site_fract_x
_atom_site_fract_y
_atom_site_fract_z
Si Si1 0.204695 0.488964 0.329301
Si Si2 0.065288 0.793595 0.830337
Si Si3 0.530566 0.583456 0.828972
Si Si4 0.215541 0.194028 0.833051
Si Si5 0.908023 0.500974 0.835442
Si Si6 0.228475 0.362325 0.332169
O O1 0.205422 0.496828 0.500000
O O2 0.251733 0.527109 0.258482
O O3 0.143723 0.506194 0.271818
O O4 0.217502 0.425455 0.281452
O O5 0.052812 0.856629 0.772208
O O6 0.129048 0.776313 0.794297
O O7 0.052321 0.788135 0.000000
O O8 0.466761 0.571608 0.773551
O O9 0.531358 0.583467 0.000000
O O10 0.272186 0.227815 0.788467
O O11 0.161468 0.217097 0.748900
O O12 0.201885 0.202014 0.000000
O O13 0.943335 0.556666 0.794743
O O14 0.946312 0.446312 0.815894
O O15 0.886495 0.505033 0.000000
O O16 0.241519 0.358646 0.500000
O O17 0.173511 0.326490 0.289690
#
# Coordination Sequence:
#
# PCOD8314200 Si02
#       6
#    16  16  16  16  16  16
#     4  11  23  36  52  80 115 149 183 220 265 324
#     4  10  21  34  53  79 107 144 183 227 275 322
#     4   8  15  29  50  76 102 130 172 228 283 329
#     4   9  19  35  54  78 106 137 177 224 273 322
#     4   9  19  37  60  84 110 142 181 227 277 323
#     4   9  19  36  56  77 104 141 181 222 267 313
#
# _framework density 18.340600999999999
#
# number of rings (size 3 to 8) (size 9 to 14) (size 15 to 20)
#    0.000    2.667    0.000    2.000    2.333    4.000 
#    0.000    4.167    0.000    0.000    0.000    1.167 
#    0.000    0.000    0.000    0.000    0.000    0.000 
#
# Total GULP energy -1190426.334213 kJ/mol
# GULP energy per Si atom -12400.274315 kJ/mol
# Density = 1.829886 g / cm^3
# Si number density = 18.340601 Si / 1000 Ang^3
#
#
#
# Elastic Constant Matrix: (Units=GPa)
#
#
# Indices 1 2 3 4 5 6 
#
# 1 201.3766 -5.3938 47.6103 0.0000 0.0000 0.0000
# 2 -5.3938 201.3766 47.6103 0.0000 0.0000 0.0000
# 3 47.6103 47.6103 51.1884 0.0000 0.0000 0.0000
# 4 0.0000 0.0000 0.0000 20.8414 0.0000 0.0000
# 5 0.0000 0.0000 0.0000 0.0000 20.8414 0.0000
# 6 0.0000 0.0000 0.0000 0.0000 0.0000 23.1240
#
#
#
# Elastic Compliance Matrix: (Units=1/GPa)
#
#
# Indices 1 2 3 4 5 6 
#
# 1 0.007073 0.002237 -0.008659 0.000000 0.000000 0.000000
# 2 0.002237 0.007073 -0.008659 0.000000 0.000000 0.000000
# 3 -0.008659 -0.008659 0.035643 0.000000 0.000000 0.000000
# 4 0.000000 0.000000 0.000000 0.047981 0.000000 0.000000
# 5 0.000000 0.000000 0.000000 0.000000 0.047981 0.000000
# 6 0.000000 0.000000 0.000000 0.000000 0.000000 0.043245
#
#
# Mechanical properties :
#
#
# Convention : Reuss Voigt Hill
#
# Bulk Modulus (GPa) = 50.95110 70.39946 60.67528
# Shear Modulus (GPa) = 22.15331 37.23569 29.69450
#
# Velocity S-wave (km/s) = 3.47923 4.51070 4.02812
# Velocity P-wave (km/s) = 6.63181 8.09916 7.40193
#
# Compressibility (1/GPa) = 0.01962666
#
# Stress axis : x y z
#
# Youngs Moduli (GPa) = 141.38578 141.38578 28.05633
#
# Poissons Ratio (x) = -0.31622 0.24293
# Poissons Ratio (y) = -0.31622 0.24293
# Poissons Ratio (z) = 1.22421 1.22421
#
# Static dielectric constant tensor:
#      x y z
#    x 3.515830 0.000000 0.000000 
#    y 0.000000 3.515830 0.000000 
#    z 0.000000 0.000000 3.162440 
# 
# 
# High freq. dielectric constant tensor:
#      x y z
#    x 1.717250 0.000000 0.000000 
#    y 0.000000 1.717250 0.000000 
#    z 0.000000 0.000000 1.687790 
# 
# From -- ./inp_files/1990.got.cif
#   From: 2010.03.12/outbox.cif.g09.slc.cpg/sg127_1_cif.got.tgz:1990.got - 2010.04.06 17:03:15.
