data_PCOD8314807
_publ_section_title
;
Structure prediction by ZEFSAII (Michael W. Deem and Ramdas Pophale) SiO2 
 PCOD8314807
Probable space group: P 4/M N C
;
_chemical_formula_sum "Si O2"
_cell_formula_units_Z 112
_cell_length_a 14.108869
_cell_length_b 14.108869
_cell_length_c 27.546399
_cell_angle_alpha 90.000000
_cell_angle_beta 90.000000
_cell_angle_gamma 90.000000
_cell_volume 5483.391266
_symmetry_space_group_name_H-M "P 4/M N C"
_symmetry_group_IT_number 128
_symmetry_cell_setting 'tetragonal'
loop_
_space_group_symop_operation_xyz
x,y,z
-y,x,z
-x,-y,z
y,-x,z
1/2+x,1/2-y,1/2-z
1/2-x,1/2+y,1/2-z
1/2+y,1/2+x,1/2-z
1/2-y,1/2-x,1/2-z
-x,-y,-z
y,-x,-z
x,y,-z
-y,x,-z
1/2-x,1/2+y,1/2+z
1/2+x,1/2-y,1/2+z
1/2-y,1/2-x,1/2+z
1/2+y,1/2+x,1/2+z
loop_
_atom_site_type_symbol
_atom_site_label
_atom_site_fract_x
_atom_site_fract_y
_atom_site_fract_z
Si Si1 0.310720 0.942490 0.367026
Si Si2 0.654256 0.513978 0.943537
Si Si3 0.992331 0.153984 0.055511
Si Si4 0.421793 0.631878 0.698730
Si Si5 0.173169 0.217952 0.714545
Si Si6 0.208096 0.462697 0.364695
Si Si7 0.617783 0.871938 0.804206
O O1 0.251049 0.979811 0.412890
O O2 0.240265 0.882836 0.333793
O O3 0.399071 0.878581 0.384009
O O4 0.356294 0.025854 0.336160
O O5 0.584531 0.601439 0.931155
O O6 0.682379 0.516718 0.000000
O O7 0.988347 0.247098 0.088123
O O8 0.902686 0.088394 0.067264
O O9 0.990134 0.186872 0.000000
O O10 0.372761 0.533310 0.686002
O O11 0.395119 0.647853 0.754971
O O12 0.390924 0.718716 0.663578
O O13 0.191802 0.308199 0.750000
O O14 0.274009 0.174697 0.699702
O O15 0.179551 0.545980 0.328159
O O16 0.592052 0.907949 0.750000
#
# Coordination Sequence:
#
# PCOD8314807 Si02
#       7
#    16  16  16  16  16  16  16
#     4  12  24  38  62  93 126 169 220 257 316 393
#     4   9  20  43  72  98 127 163 211 279 347 395
#     4   9  20  40  66  94 123 157 202 262 326 382
#     4  11  22  37  59  88 119 162 214 271 323 369
#     4  11  21  39  59  87 122 162 216 271 314 374
#     4  12  24  38  61  89 130 172 212 253 320 394
#     4  11  26  42  61  87 131 177 218 261 321 384
#
# _framework density 20.425315000000001
#
# number of rings (size 3 to 8) (size 9 to 14) (size 15 to 20)
#    0.000    1.286    1.429    6.429    2.000    2.286 
#    0.000    2.143    0.000    1.714    0.000    0.000 
#    0.000    0.000    0.000    0.000    0.000    0.000 
#
# Total GULP energy -1388636.470870 kJ/mol
# GULP energy per Si atom -12398.539918 kJ/mol
# Density = 2.037883 g / cm^3
# Si number density = 20.425315 Si / 1000 Ang^3
#
#
#
# Elastic Constant Matrix: (Units=GPa)
#
#
# Indices 1 2 3 4 5 6 
#
# 1 74.8488 40.9621 46.7476 0.0000 0.0000 0.0000
# 2 40.9621 74.8505 46.7479 0.0000 0.0000 0.0000
# 3 46.7476 46.7479 113.7769 0.0000 0.0000 0.0000
# 4 0.0000 0.0000 0.0000 35.3118 0.0000 0.0000
# 5 0.0000 0.0000 0.0000 0.0000 35.3118 0.0000
# 6 0.0000 0.0000 0.0000 0.0000 0.0000 26.1712
#
#
#
# Elastic Compliance Matrix: (Units=1/GPa)
#
#
# Indices 1 2 3 4 5 6 
#
# 1 0.021215 -0.008294 -0.005309 0.000000 0.000000 0.000000
# 2 -0.008294 0.021215 -0.005309 0.000000 0.000000 0.000000
# 3 -0.005309 -0.005309 0.013151 0.000000 0.000000 0.000000
# 4 0.000000 0.000000 0.000000 0.028319 0.000000 0.000000
# 5 0.000000 0.000000 0.000000 0.000000 0.028319 0.000000
# 6 0.000000 0.000000 0.000000 0.000000 0.000000 0.038210
#
#
# Mechanical properties :
#
#
# Convention : Reuss Voigt Hill
#
# Bulk Modulus (GPa) = 56.31351 59.15461 57.73406
# Shear Modulus (GPa) = 25.75034 27.96020 26.85527
#
# Velocity S-wave (km/s) = 3.55450 3.70388 3.62996
# Velocity P-wave (km/s) = 6.66905 6.87866 6.77466
#
# Compressibility (1/GPa) = 0.01775773
#
# Stress axis : x y z
#
# Youngs Moduli (GPa) = 47.13612 47.13736 76.03713
#
# Poissons Ratio (x) = 0.39098 0.40366
# Poissons Ratio (y) = 0.39097 0.40365
# Poissons Ratio (z) = 0.25023 0.25023
#
# Static dielectric constant tensor:
#      x y z
#    x 3.740480 0.000000 0.000000 
#    y 0.000000 3.740480 0.000000 
#    z 0.000000 0.000000 3.731030 
# 
# 
# High freq. dielectric constant tensor:
#      x y z
#    x 1.797530 0.000000 0.000000 
#    y 0.000000 1.797530 0.000000 
#    z 0.000000 0.000000 1.795360 
# 
# From -- ./inp_files/6436.got.cif
#   From: 2010.03.12/outbox.cif.g09.slc.cpg/sg128_4_cif.got.tgz:6436.got - 2010.04.06 17:11:05.
