data_PCOD8314569
_publ_section_title
;
Structure prediction by ZEFSAII (Michael W. Deem and Ramdas Pophale) SiO2 
 PCOD8314569
Probable space group: P 4/M N C
;
_chemical_formula_sum "Si O2"
_cell_formula_units_Z 80
_cell_length_a 17.930380
_cell_length_b 17.930380
_cell_length_c 13.666759
_cell_angle_alpha 90.000000
_cell_angle_beta 90.000000
_cell_angle_gamma 90.000000
_cell_volume 4393.842887
_symmetry_space_group_name_H-M "P 4/M N C"
_symmetry_group_IT_number 128
_symmetry_cell_setting 'tetragonal'
loop_
_space_group_symop_operation_xyz
x,y,z
-y,x,z
-x,-y,z
y,-x,z
1/2+x,1/2-y,1/2-z
1/2-x,1/2+y,1/2-z
1/2+y,1/2+x,1/2-z
1/2-y,1/2-x,1/2-z
-x,-y,-z
y,-x,-z
x,y,-z
-y,x,-z
1/2-x,1/2+y,1/2+z
1/2+x,1/2-y,1/2+z
1/2-y,1/2-x,1/2+z
1/2+y,1/2+x,1/2+z
loop_
_atom_site_type_symbol
_atom_site_label
_atom_site_fract_x
_atom_site_fract_y
_atom_site_fract_z
Si Si1 0.373712 0.243895 0.235187
Si Si2 0.614880 0.539839 0.254347
Si Si3 0.252548 0.818233 0.610904
Si Si4 0.652280 0.321123 0.386053
Si Si5 0.481416 0.734975 0.887746
O O1 0.338078 0.161923 0.250000
O O2 0.320197 0.299221 0.174291
O O3 0.378772 0.286341 0.339829
O O4 0.453731 0.233393 0.183024
O O5 0.545381 0.593966 0.269065
O O6 0.672057 0.570199 0.336892
O O7 0.651305 0.541821 0.146225
O O8 0.226791 0.804904 0.500000
O O9 0.320939 0.763507 0.636830
O O10 0.280956 0.903875 0.624761
O O11 0.645952 0.339242 0.500000
O O12 0.509049 0.734607 0.000000
#
# Coordination Sequence:
#
# PCOD8314569 Si02
#       5
#    16  16  16  16  16
#     4  10  19  34  55  80 115 150 191 237 281 343
#     4  11  22  35  50  78 116 149 187 225 277 345
#     4   9  18  32  54  81 107 143 193 243 288 337
#     4  10  20  35  53  73 107 154 198 239 276 330
#     4  11  20  34  57  83 115 148 184 236 293 339
#
# _framework density 18.207295999999999
#
# number of rings (size 3 to 8) (size 9 to 14) (size 15 to 20)
#    0.000    1.800    4.000    0.600    0.000    4.000 
#    0.000    2.000    0.000    0.000    0.000    2.800 
#    0.000    9.600    0.000    0.000    0.000    0.000 
#
# Total GULP energy -991147.635037 kJ/mol
# GULP energy per Si atom -12389.345438 kJ/mol
# Density = 1.816586 g / cm^3
# Si number density = 18.207296 Si / 1000 Ang^3
#
#
#
# Elastic Constant Matrix: (Units=GPa)
#
#
# Indices 1 2 3 4 5 6 
#
# 1 97.6192 38.9181 44.1952 0.0000 0.0000 0.0000
# 2 38.9181 97.6197 44.1948 0.0000 0.0000 0.0000
# 3 44.1952 44.1948 97.4583 0.0000 0.0000 0.0000
# 4 0.0000 0.0000 0.0000 27.0546 0.0000 0.0000
# 5 0.0000 0.0000 0.0000 0.0000 27.0545 0.0000
# 6 0.0000 0.0000 0.0000 0.0000 0.0000 -2.5827
#
#
#
# Elastic Compliance Matrix: (Units=1/GPa)
#
#
# Indices 1 2 3 4 5 6 
#
# 1 0.013702 -0.003334 -0.004701 0.000000 0.000000 0.000000
# 2 -0.003334 0.013701 -0.004701 0.000000 0.000000 0.000000
# 3 -0.004701 -0.004701 0.014525 0.000000 0.000000 0.000000
# 4 0.000000 0.000000 0.000000 0.036962 0.000000 0.000000
# 5 0.000000 0.000000 0.000000 0.000000 0.036962 0.000000
# 6 0.000000 0.000000 0.000000 0.000000 0.000000 -0.387187
#
#
# Mechanical properties :
#
#
# Convention : Reuss Voigt Hill
#
# Bulk Modulus (GPa) = 60.77499 60.81259 60.79379
# Shear Modulus (GPa) = -20.80073 21.33121 0.26524
#
# Velocity S-wave (km/s) = -3.38367 3.42654 0.38209
# Velocity P-wave (km/s) = 4.26454 7.00910 5.80146
#
# Compressibility (1/GPa) = 0.01645414
#
# Stress axis : x y z
#
# Youngs Moduli (GPa) = 72.98450 72.98527 68.84788
#
# Poissons Ratio (x) = 0.24333 0.32369
# Poissons Ratio (y) = 0.24332 0.32368
# Poissons Ratio (z) = 0.34314 0.34313
#
# Static dielectric constant tensor:
#      x y z
#    x 3.373630 0.000000 0.000000 
#    y 0.000000 3.373620 0.000000 
#    z 0.000000 0.000000 3.571950 
# 
# 
# High freq. dielectric constant tensor:
#      x y z
#    x 1.687390 0.000000 0.000000 
#    y 0.000000 1.687390 0.000000 
#    z 0.000000 0.000000 1.716360 
# 
# From -- ./inp_files/3700.got.cif
#   From: 2010.03.12/outbox.cif.g09.slc.cpg/sg128_2_cif.got.tgz:3700.got - 2010.04.06 17:11:05.
