data_PCOD8314759
_publ_section_title
;
Structure prediction by ZEFSAII (Michael W. Deem and Ramdas Pophale) SiO2 
 PCOD8314759
Probable space group: P 4/M N C
;
_chemical_formula_sum "Si O2"
_cell_formula_units_Z 44
_cell_length_a 13.469406
_cell_length_b 13.469406
_cell_length_c 12.501967
_cell_angle_alpha 90.000000
_cell_angle_beta 90.000000
_cell_angle_gamma 90.000000
_cell_volume 2268.168088
_symmetry_space_group_name_H-M "P 4/M N C"
_symmetry_group_IT_number 128
_symmetry_cell_setting 'tetragonal'
loop_
_space_group_symop_operation_xyz
x,y,z
-y,x,z
-x,-y,z
y,-x,z
1/2+x,1/2-y,1/2-z
1/2-x,1/2+y,1/2-z
1/2+y,1/2+x,1/2-z
1/2-y,1/2-x,1/2-z
-x,-y,-z
y,-x,-z
x,y,-z
-y,x,-z
1/2-x,1/2+y,1/2+z
1/2+x,1/2-y,1/2+z
1/2-y,1/2-x,1/2+z
1/2+y,1/2+x,1/2+z
loop_
_atom_site_type_symbol
_atom_site_label
_atom_site_fract_x
_atom_site_fract_y
_atom_site_fract_z
Si Si1 0.049178 0.158549 0.000000
Si Si2 0.000000 0.500000 0.750000
Si Si3 0.662550 0.497405 0.880091
Si Si4 0.298362 0.937787 0.202029
O O1 0.072963 0.225002 0.102784
O O2 0.935369 0.122778 0.000000
O O3 0.995895 0.598540 0.826244
O O4 0.598600 0.595952 0.860658
O O5 0.750137 0.495943 0.795239
O O6 0.706497 0.497175 0.000000
O O7 0.328597 0.828597 0.250000
#
# Coordination Sequence:
#
# PCOD8314759 Si02
#       4
#     8   4  16  16
#     4  11  24  45  70  98 134 170 215 280 331 379
#     4   8  24  42  56  80 134 168 200 270 300 370
#     4   9  18  36  62  91 121 156 209 273 321 374
#     4  10  22  41  60  89 131 173 212 259 324 387
#
# _framework density 19.398916
#
# number of rings (size 3 to 8) (size 9 to 14) (size 15 to 20)
#    1.091    1.273    0.000    3.273    2.545    3.636 
#   16.364    0.000    0.000    0.000    0.000    0.000 
#    0.000    0.000    0.000    0.000    0.000    0.000 
#
# Total GULP energy -545110.162262 kJ/mol
# GULP energy per Si atom -12388.867324 kJ/mol
# Density = 1.935476 g / cm^3
# Si number density = 19.398916 Si / 1000 Ang^3
#
#
#
# Elastic Constant Matrix: (Units=GPa)
#
#
# Indices 1 2 3 4 5 6 
#
# 1 111.8643 31.7537 56.9215 0.0000 0.0000 0.0000
# 2 31.7537 111.8643 56.9215 0.0000 0.0000 0.0000
# 3 56.9215 56.9215 125.2191 0.0000 0.0000 0.0000
# 4 0.0000 0.0000 0.0000 26.4045 0.0000 0.0000
# 5 0.0000 0.0000 0.0000 0.0000 26.4045 0.0000
# 6 0.0000 0.0000 0.0000 0.0000 0.0000 25.8405
#
#
#
# Elastic Compliance Matrix: (Units=1/GPa)
#
#
# Indices 1 2 3 4 5 6 
#
# 1 0.011684 -0.000799 -0.004948 0.000000 0.000000 0.000000
# 2 -0.000799 0.011684 -0.004948 0.000000 0.000000 0.000000
# 3 -0.004948 -0.004948 0.012485 0.000000 0.000000 0.000000
# 4 0.000000 0.000000 0.000000 0.037872 0.000000 0.000000
# 5 0.000000 0.000000 0.000000 0.000000 0.037872 0.000000
# 6 0.000000 0.000000 0.000000 0.000000 0.000000 0.038699
#
#
# Mechanical properties :
#
#
# Convention : Reuss Voigt Hill
#
# Bulk Modulus (GPa) = 69.14460 71.12678 70.13569
# Shear Modulus (GPa) = 28.32745 29.28662 28.80704
#
# Velocity S-wave (km/s) = 3.82548 3.88971 3.85773
# Velocity P-wave (km/s) = 7.43191 7.54440 7.48837
#
# Compressibility (1/GPa) = 0.01446245
#
# Stress axis : x y z
#
# Youngs Moduli (GPa) = 85.58726 85.58726 80.09854
#
# Poissons Ratio (x) = 0.06836 0.39634
# Poissons Ratio (y) = 0.06836 0.39634
# Poissons Ratio (z) = 0.42350 0.42350
#
# Static dielectric constant tensor:
#      x y z
#    x 3.496260 0.000000 0.000000 
#    y 0.000000 3.496260 0.000000 
#    z 0.000000 0.000000 3.487970 
# 
# 
# High freq. dielectric constant tensor:
#      x y z
#    x 1.749980 0.000000 0.000000 
#    y 0.000000 1.749980 0.000000 
#    z 0.000000 0.000000 1.748150 
# 
# From -- ./inp_files/2184.got.cif
#   From: 2010.03.12/outbox.cif.g09.slc.cpg/sg128_2_cif.got.tgz:2184.got - 2010.04.06 17:11:05.
