data_PCOD8314504
_publ_section_title
;
Structure prediction by ZEFSAII (Michael W. Deem and Ramdas Pophale) SiO2 
 PCOD8314504
Probable space group: P 4/M N C
;
_chemical_formula_sum "Si O2"
_cell_formula_units_Z 128
_cell_length_a 19.981663
_cell_length_b 19.981663
_cell_length_c 19.867388
_cell_angle_alpha 90.000000
_cell_angle_beta 90.000000
_cell_angle_gamma 90.000000
_cell_volume 7932.389549
_symmetry_space_group_name_H-M "P 4/M N C"
_symmetry_group_IT_number 128
_symmetry_cell_setting 'tetragonal'
loop_
_space_group_symop_operation_xyz
x,y,z
-y,x,z
-x,-y,z
y,-x,z
1/2+x,1/2-y,1/2-z
1/2-x,1/2+y,1/2-z
1/2+y,1/2+x,1/2-z
1/2-y,1/2-x,1/2-z
-x,-y,-z
y,-x,-z
x,y,-z
-y,x,-z
1/2-x,1/2+y,1/2+z
1/2+x,1/2-y,1/2+z
1/2-y,1/2-x,1/2+z
1/2+y,1/2+x,1/2+z
loop_
_atom_site_type_symbol
_atom_site_label
_atom_site_fract_x
_atom_site_fract_y
_atom_site_fract_z
Si Si1 0.093237 0.356849 0.347801
Si Si2 0.958360 0.694809 0.785334
Si Si3 0.318449 0.783200 0.424973
Si Si4 0.160400 0.075163 0.075440
Si Si5 0.863549 0.405739 0.323628
Si Si6 0.331288 0.219163 0.424845
Si Si7 0.979737 0.425021 0.573666
Si Si8 0.189149 0.927240 0.123861
O O1 0.050584 0.312395 0.294944
O O2 0.131168 0.419783 0.315743
O O3 0.151978 0.311378 0.378519
O O4 0.043398 0.380465 0.405977
O O5 0.932729 0.769486 0.805686
O O6 0.033957 0.688809 0.812702
O O7 0.307036 0.808324 0.500000
O O8 0.260076 0.733522 0.401601
O O9 0.389505 0.743181 0.423844
O O10 0.234916 0.103235 0.072696
O O11 0.115967 0.120376 0.127094
O O12 0.165510 0.998973 0.098110
O O13 0.128694 0.079206 0.000000
O O14 0.882167 0.382167 0.250000
O O15 0.834724 0.343892 0.366779
O O16 0.927720 0.427871 0.365509
O O17 0.320954 0.187982 0.500000
O O18 0.953061 0.398712 0.500000
O O19 0.000000 0.500000 0.561884
#
# Coordination Sequence:
#
# PCOD8314504 Si02
#       8
#    16  16  16  16  16  16  16  16
#     4  10  19  34  51  70  95 125 163 206 248 296
#     4  10  20  33  49  67  94 133 161 198 249 291
#     4   9  18  34  53  71  93 125 167 212 256 300
#     4  10  18  30  49  69  96 126 161 207 247 295
#     4  12  21  34  51  70  99 135 167 197 244 301
#     4   9  19  35  50  71  97 127 167 212 253 293
#     4  11  22  32  47  75 101 126 163 204 247 299
#     4  10  19  32  46  70  96 126 165 201 252 299
#
# _framework density 16.136372999999999
#
# number of rings (size 3 to 8) (size 9 to 14) (size 15 to 20)
#    0.000    1.875    3.750    2.625    0.000    0.500 
#    6.750    0.625    0.000    0.000    0.000    0.000 
#    0.000    0.000    0.000    0.000    0.000    0.000 
#
# Total GULP energy -1585831.733089 kJ/mol
# GULP energy per Si atom -12389.310415 kJ/mol
# Density = 1.609965 g / cm^3
# Si number density = 16.136373 Si / 1000 Ang^3
#
#
#
# Elastic Constant Matrix: (Units=GPa)
#
#
# Indices 1 2 3 4 5 6 
#
# 1 63.7358 27.3661 41.1321 0.0000 0.0000 0.0000
# 2 27.3661 63.7358 41.1321 0.0000 0.0000 0.0000
# 3 41.1321 41.1321 109.1750 0.0000 0.0000 0.0000
# 4 0.0000 0.0000 0.0000 20.1831 0.0000 0.0000
# 5 0.0000 0.0000 0.0000 0.0000 20.1831 0.0000
# 6 0.0000 0.0000 0.0000 0.0000 0.0000 21.8822
#
#
#
# Elastic Compliance Matrix: (Units=1/GPa)
#
#
# Indices 1 2 3 4 5 6 
#
# 1 0.022066 -0.005429 -0.006268 0.000000 0.000000 0.000000
# 2 -0.005429 0.022066 -0.006268 0.000000 0.000000 0.000000
# 3 -0.006268 -0.006268 0.013882 0.000000 0.000000 0.000000
# 4 0.000000 0.000000 0.000000 0.049546 0.000000 0.000000
# 5 0.000000 0.000000 0.000000 0.000000 0.049546 0.000000
# 6 0.000000 0.000000 0.000000 0.000000 0.000000 0.045699
#
#
# Mechanical properties :
#
#
# Convention : Reuss Voigt Hill
#
# Bulk Modulus (GPa) = 45.28151 50.65636 47.96894
# Shear Modulus (GPa) = 20.31709 20.91744 20.61727
#
# Velocity S-wave (km/s) = 3.55221 3.60431 3.57836
# Velocity P-wave (km/s) = 6.70425 6.98443 6.84577
#
# Compressibility (1/GPa) = 0.02208407
#
# Stress axis : x y z
#
# Youngs Moduli (GPa) = 45.31864 45.31864 72.03315
#
# Poissons Ratio (x) = 0.24605 0.45149
# Poissons Ratio (y) = 0.24605 0.45149
# Poissons Ratio (z) = 0.28405 0.28405
#
# Static dielectric constant tensor:
#      x y z
#    x 2.956180 0.000000 0.000000 
#    y 0.000000 2.956180 0.000000 
#    z 0.000000 0.000000 3.184160 
# 
# 
# High freq. dielectric constant tensor:
#      x y z
#    x 1.604740 0.000000 0.000000 
#    y 0.000000 1.604740 0.000000 
#    z 0.000000 0.000000 1.616920 
# 
# From -- ./inp_files/5097.got.cif
#   From: 2010.03.12/outbox.cif.g09.slc.cpg/sg128_3_cif.got.tgz:5097.got - 2010.04.06 17:11:05.
