data_PCOD8314780
_publ_section_title
;
Structure prediction by ZEFSAII (Michael W. Deem and Ramdas Pophale) SiO2 
 PCOD8314780
Probable space group: P 4/M N C
;
_chemical_formula_sum "Si O2"
_cell_formula_units_Z 80
_cell_length_a 12.260391
_cell_length_b 12.260391
_cell_length_c 26.914837
_cell_angle_alpha 90.000000
_cell_angle_beta 90.000000
_cell_angle_gamma 90.000000
_cell_volume 4045.762599
_symmetry_space_group_name_H-M "P 4/M N C"
_symmetry_group_IT_number 128
_symmetry_cell_setting 'tetragonal'
loop_
_space_group_symop_operation_xyz
x,y,z
-y,x,z
-x,-y,z
y,-x,z
1/2+x,1/2-y,1/2-z
1/2-x,1/2+y,1/2-z
1/2+y,1/2+x,1/2-z
1/2-y,1/2-x,1/2-z
-x,-y,-z
y,-x,-z
x,y,-z
-y,x,-z
1/2-x,1/2+y,1/2+z
1/2+x,1/2-y,1/2+z
1/2-y,1/2-x,1/2+z
1/2+y,1/2+x,1/2+z
loop_
_atom_site_type_symbol
_atom_site_label
_atom_site_fract_x
_atom_site_fract_y
_atom_site_fract_z
Si Si1 0.367477 0.791869 0.444289
Si Si2 0.175497 0.027498 0.186942
Si Si3 0.510622 0.679845 0.799768
Si Si4 0.097074 0.721450 0.090539
Si Si5 0.126981 0.497915 0.123423
O O1 0.326292 0.817932 0.500000
O O2 0.496127 0.766298 0.446915
O O3 0.309912 0.685506 0.423114
O O4 0.341611 0.892055 0.408126
O O5 0.219793 0.024539 0.243040
O O6 0.269981 0.050094 0.147206
O O7 0.089008 0.122420 0.177125
O O8 0.399264 0.613377 0.810854
O O9 0.509101 0.790647 0.830701
O O10 0.147621 0.600562 0.086863
O O11 0.000000 0.500000 0.140869
#
# Coordination Sequence:
#
# PCOD8314780 Si02
#       5
#    16  16  16  16  16
#     4  11  24  40  60  87 116 154 201 251 303 350
#     4   9  17  33  59  88 118 149 185 241 302 348
#     4   9  18  36  63  88 111 152 203 245 291 345
#     4  11  21  38  62  85 115 154 196 246 302 358
#     4  10  23  39  56  82 124 161 192 238 292 359
#
# _framework density 19.773776999999999
#
# number of rings (size 3 to 8) (size 9 to 14) (size 15 to 20)
#    0.000    2.000    2.000    3.000    0.000    5.600 
#    0.000    8.000    0.000    0.000    0.000    4.200 
#    0.000    0.000    0.000    0.000    0.000    0.000 
#
# Total GULP energy -991617.769449 kJ/mol
# GULP energy per Si atom -12395.222118 kJ/mol
# Density = 1.972877 g / cm^3
# Si number density = 19.773777 Si / 1000 Ang^3
#
#
#
# Elastic Constant Matrix: (Units=GPa)
#
#
# Indices 1 2 3 4 5 6 
#
# 1 67.6488 19.8674 38.5702 0.0000 0.0000 0.0000
# 2 19.8674 67.6488 38.5702 0.0000 0.0000 0.0000
# 3 38.5702 38.5702 101.6931 0.0000 0.0000 0.0000
# 4 0.0000 0.0000 0.0000 17.8365 0.0000 0.0000
# 5 0.0000 0.0000 0.0000 0.0000 17.8365 0.0000
# 6 0.0000 0.0000 0.0000 0.0000 0.0000 24.2764
#
#
#
# Elastic Compliance Matrix: (Units=1/GPa)
#
#
# Indices 1 2 3 4 5 6 
#
# 1 0.019047 -0.001882 -0.006510 0.000000 0.000000 0.000000
# 2 -0.001882 0.019047 -0.006510 0.000000 0.000000 0.000000
# 3 -0.006510 -0.006510 0.014772 0.000000 0.000000 0.000000
# 4 0.000000 0.000000 0.000000 0.056065 0.000000 0.000000
# 5 0.000000 0.000000 0.000000 0.000000 0.056065 0.000000
# 6 0.000000 0.000000 0.000000 0.000000 0.000000 0.041192
#
#
# Mechanical properties :
#
#
# Convention : Reuss Voigt Hill
#
# Bulk Modulus (GPa) = 43.36411 47.88960 45.62686
# Shear Modulus (GPa) = 20.51878 21.32208 20.92043
#
# Velocity S-wave (km/s) = 3.22479 3.28731 3.25620
# Velocity P-wave (km/s) = 5.98694 6.21931 6.10423
#
# Compressibility (1/GPa) = 0.02306054
#
# Stress axis : x y z
#
# Youngs Moduli (GPa) = 52.50234 52.50234 67.69567
#
# Poissons Ratio (x) = 0.09880 0.44072
# Poissons Ratio (y) = 0.09880 0.44072
# Poissons Ratio (z) = 0.34181 0.34181
#
# Static dielectric constant tensor:
#      x y z
#    x 3.594070 0.000000 0.000000 
#    y 0.000000 3.594070 0.000000 
#    z 0.000000 0.000000 3.491770 
# 
# 
# High freq. dielectric constant tensor:
#      x y z
#    x 1.771990 0.000000 0.000000 
#    y 0.000000 1.771990 0.000000 
#    z 0.000000 0.000000 1.764400 
# 
# From -- ./inp_files/7154.got.cif
#   From: 2010.03.12/outbox.cif.g09.slc.cpg/sg128_4_cif.got.tgz:7154.got - 2010.04.06 17:11:05.
