data_PCOD8314280
_publ_section_title
;
Structure prediction by ZEFSAII (Michael W. Deem and Ramdas Pophale) SiO2 
 PCOD8314280
Probable space group: P 4/M B M
;
_chemical_formula_sum "Si O2"
_cell_formula_units_Z 96
_cell_length_a 24.370994
_cell_length_b 24.370994
_cell_length_c 8.098814
_cell_angle_alpha 90.000000
_cell_angle_beta 90.000000
_cell_angle_gamma 90.000000
_cell_volume 4810.252904
_symmetry_space_group_name_H-M "P 4/M B M"
_symmetry_group_IT_number 127
_symmetry_cell_setting 'tetragonal'
loop_
_space_group_symop_operation_xyz
x,y,z
-y,x,z
-x,-y,z
y,-x,z
1/2+x,1/2-y,-z
1/2-x,1/2+y,-z
1/2+y,1/2+x,-z
1/2-y,1/2-x,-z
-x,-y,-z
y,-x,-z
x,y,-z
-y,x,-z
1/2-x,1/2+y,z
1/2+x,1/2-y,z
1/2-y,1/2-x,z
1/2+y,1/2+x,z
loop_
_atom_site_type_symbol
_atom_site_label
_atom_site_fract_x
_atom_site_fract_y
_atom_site_fract_z
Si Si1 0.383212 0.883212 0.682274
Si Si2 0.360686 0.577892 0.315752
Si Si3 0.223859 0.992757 0.811193
Si Si4 0.051675 0.928030 0.000000
Si Si5 0.207444 0.292557 0.317661
Si Si6 0.454767 0.045234 0.804624
Si Si7 0.156451 0.495558 0.694740
Si Si8 0.297899 0.369567 0.310731
O O1 0.402467 0.902467 0.500000
O O2 0.338110 0.838110 0.669792
O O3 0.436649 0.859832 0.772780
O O4 0.386271 0.568677 0.500000
O O5 0.310976 0.535353 0.297961
O O6 0.343656 0.641566 0.299140
O O7 0.404145 0.571817 0.171662
O O8 0.209782 0.929306 0.771550
O O9 0.286724 0.010521 0.783414
O O10 0.207555 0.003404 0.000000
O O11 0.987421 0.923361 0.000000
O O12 0.226746 0.273255 0.500000
O O13 0.259026 0.322309 0.226781
O O14 0.464694 0.106383 0.737624
O O15 0.500000 0.000000 0.739716
O O16 0.455228 0.044773 0.000000
O O17 0.167952 0.494115 0.500000
O O18 0.278919 0.377810 0.500000
#
# Coordination Sequence:
#
# PCOD8314280 Si02
#       8
#     8  16  16   8   8   8  16  16
#     4   9  16  29  55  87 120 151 197 258 311 374
#     4  11  24  42  64  93 130 171 213 260 320 390
#     4  12  24  39  62  90 127 167 210 266 322 384
#     4  11  24  42  66  95 126 162 207 259 316 382
#     4   9  16  34  60  94 126 157 203 265 318 366
#     4  11  23  37  54  85 128 165 205 266 331 387
#     4  11  21  37  60  87 119 164 214 254 314 388
#     4  10  21  38  65  94 125 166 214 263 319 384
#
# _framework density 19.957370999999998
#
# number of rings (size 3 to 8) (size 9 to 14) (size 15 to 20)
#    0.000    1.333    3.333    3.250    1.167    2.333 
#    0.000    2.917    0.000    2.000    0.000    0.000 
#    0.000    0.000    0.000    0.000    0.000    0.000 
#
# Total GULP energy -1189518.599758 kJ/mol
# GULP energy per Si atom -12390.818747 kJ/mol
# Density = 1.991195 g / cm^3
# Si number density = 19.957371 Si / 1000 Ang^3
#
#
#
# Elastic Constant Matrix: (Units=GPa)
#
#
# Indices 1 2 3 4 5 6 
#
# 1 55.8326 94.5612 30.1648 0.0000 0.0000 0.0000
# 2 94.5612 55.8349 30.1650 0.0000 0.0000 0.0000
# 3 30.1648 30.1650 102.7908 0.0000 0.0000 0.0000
# 4 0.0000 0.0000 0.0000 7.7342 0.0000 0.0000
# 5 0.0000 0.0000 0.0000 0.0000 7.7359 0.0000
# 6 0.0000 0.0000 0.0000 0.0000 0.0000 38.7901
#
#
#
# Elastic Compliance Matrix: (Units=1/GPa)
#
#
# Indices 1 2 3 4 5 6 
#
# 1 -0.009143 0.016679 -0.002212 0.000000 0.000000 0.000000
# 2 0.016679 -0.009142 -0.002212 0.000000 0.000000 0.000000
# 3 -0.002212 -0.002212 0.011027 0.000000 0.000000 0.000000
# 4 0.000000 0.000000 0.000000 0.129296 0.000000 0.000000
# 5 0.000000 0.000000 0.000000 0.000000 0.129268 0.000000
# 6 0.000000 0.000000 0.000000 0.000000 0.000000 0.025780
#
#
# Mechanical properties :
#
#
# Convention : Reuss Voigt Hill
#
# Bulk Modulus (GPa) = 57.96171 58.24891 58.10531
# Shear Modulus (GPa) = 19.35546 14.82317 17.08931
#
# Velocity S-wave (km/s) = 3.11760 2.72829 2.92942
# Velocity P-wave (km/s) = 6.48576 6.25897 6.37338
#
# Compressibility (1/GPa) = 0.01725277
#
# Stress axis : x y z
#
# Youngs Moduli (GPa) = -109.37564 -109.38087 90.69039
#
# Poissons Ratio (x) = 1.82435 0.20057
# Poissons Ratio (y) = 1.82427 0.20057
# Poissons Ratio (z) = -0.24189 -0.24191
#
# Static dielectric constant tensor:
#      x y z
#    x 3.815660 0.000000 0.000000 
#    y 0.000000 3.815670 0.000000 
#    z 0.000000 0.000000 3.340530 
# 
# 
# High freq. dielectric constant tensor:
#      x y z
#    x 1.778130 0.000000 0.000000 
#    y 0.000000 1.778130 0.000000 
#    z 0.000000 0.000000 1.772720 
# 
# From -- ./inp_files/2158.got.cif
#   From: 2010.03.12/outbox.cif.g09.slc.cpg/sg127_2_cif.got.tgz:2158.got - 2010.04.06 17:03:15.
