data_PCOD8314993
_publ_section_title
;
Structure prediction by ZEFSAII (Michael W. Deem and Ramdas Pophale) SiO2 
 PCOD8314993
Probable space group: P 4/N M M
;
_chemical_formula_sum "Si O2"
_cell_formula_units_Z 104
_cell_length_a 20.242578
_cell_length_b 20.242578
_cell_length_c 16.181988
_cell_angle_alpha 90.000000
_cell_angle_beta 90.000000
_cell_angle_gamma 90.000000
_cell_volume 6630.763186
_symmetry_space_group_name_H-M "P 4/N M M"
_symmetry_group_IT_number 129
_symmetry_cell_setting 'tetragonal'
loop_
_space_group_symop_operation_xyz
x,y,z
1/2-y,x,z
1/2-x,1/2-y,z
y,1/2-x,z
1/2+x,-y,-z
-x,1/2+y,-z
1/2+y,1/2+x,-z
-y,-x,-z
-x,-y,-z
1/2+y,-x,-z
1/2+x,1/2+y,-z
-y,1/2+x,-z
1/2-x,y,z
x,1/2-y,z
1/2-y,1/2-x,z
y,x,z
loop_
_atom_site_type_symbol
_atom_site_label
_atom_site_fract_x
_atom_site_fract_y
_atom_site_fract_z
Si Si1 0.948724 0.326376 0.612226
Si Si2 0.540686 0.066628 0.742693
Si Si3 0.176399 0.065039 0.491144
Si Si4 0.432511 0.322623 0.139645
Si Si5 0.174049 0.674049 0.500000
Si Si6 0.532779 0.077713 0.082714
Si Si7 0.463610 0.357573 0.315077
O O1 0.955316 0.250000 0.633427
O O2 0.962394 0.363027 0.698442
O O3 0.875973 0.341748 0.575137
O O4 0.005693 0.348993 0.548818
O O5 0.568965 0.077577 0.835435
O O6 0.469159 0.030842 0.744585
O O7 0.591050 0.023342 0.688961
O O8 0.250000 0.089351 0.516576
O O9 0.126109 0.126109 0.498200
O O10 0.183166 0.032876 0.399779
O O11 0.416236 0.250000 0.104164
O O12 0.366667 0.366667 0.135578
O O13 0.490709 0.354842 0.084868
O O14 0.460536 0.313451 0.232658
O O15 0.163613 0.750000 0.530655
O O16 0.482942 0.017059 0.083002
O O17 0.577473 0.077473 0.000000
O O18 0.394686 0.394686 0.317744
#
# Coordination Sequence:
#
# PCOD8314993 Si02
#       7
#    16  16  16  16   8  16  16
#     4  10  19  29  42  62  85 109 141 180 217 252
#     4   9  16  28  46  64  84 109 136 172 218 260
#     4  10  19  29  41  58  84 117 151 184 213 245
#     4   9  16  26  41  63  91 117 141 169 203 251
#     4   9  18  32  47  62  84 114 143 170 206 255
#     4   8  15  29  47  63  80 106 140 176 211 248
#     4   8  15  26  40  59  81 109 143 175 207 245
#
# _framework density 15.684469
#
# number of rings (size 3 to 8) (size 9 to 14) (size 15 to 20)
#    0.000    3.000    0.000    3.692    0.000    0.308 
#    0.000    6.923    0.000    2.769    0.000    0.000 
#    0.000    5.231    0.000    9.692    0.000    0.000 
#
# Total GULP energy -1288712.218634 kJ/mol
# GULP energy per Si atom -12391.463641 kJ/mol
# Density = 1.564877 g / cm^3
# Si number density = 15.684469 Si / 1000 Ang^3
#
#
#
# Elastic Constant Matrix: (Units=GPa)
#
#
# Indices 1 2 3 4 5 6 
#
# 1 73.2629 40.4097 46.6480 0.0000 0.0000 0.0000
# 2 40.4097 73.2629 46.6480 0.0000 0.0000 0.0000
# 3 46.6480 46.6480 92.5920 0.0000 0.0000 0.0000
# 4 0.0000 0.0000 0.0000 14.9833 0.0000 0.0000
# 5 0.0000 0.0000 0.0000 0.0000 14.9833 0.0000
# 6 0.0000 0.0000 0.0000 0.0000 0.0000 16.1856
#
#
#
# Elastic Compliance Matrix: (Units=1/GPa)
#
#
# Indices 1 2 3 4 5 6 
#
# 1 0.022719 -0.007720 -0.007557 0.000000 0.000000 0.000000
# 2 -0.007720 0.022719 -0.007557 0.000000 0.000000 0.000000
# 3 -0.007557 -0.007557 0.018414 0.000000 0.000000 0.000000
# 4 0.000000 0.000000 0.000000 0.066741 0.000000 0.000000
# 5 0.000000 0.000000 0.000000 0.000000 0.066741 0.000000
# 6 0.000000 0.000000 0.000000 0.000000 0.000000 0.061783
#
#
# Mechanical properties :
#
#
# Convention : Reuss Voigt Hill
#
# Bulk Modulus (GPa) = 54.98709 56.28103 55.63406
# Shear Modulus (GPa) = 16.08518 16.25790 16.17154
#
# Velocity S-wave (km/s) = 3.20589 3.22306 3.21449
# Velocity P-wave (km/s) = 6.98842 7.05776 7.02318
#
# Compressibility (1/GPa) = 0.01818609
#
# Stress axis : x y z
#
# Youngs Moduli (GPa) = 44.01635 44.01635 54.30607
#
# Poissons Ratio (x) = 0.33979 0.41037
# Poissons Ratio (y) = 0.33979 0.41037
# Poissons Ratio (z) = 0.33262 0.33262
#
# Static dielectric constant tensor:
#      x y z
#    x 2.852120 0.000000 0.000000 
#    y 0.000000 2.852120 0.000000 
#    z 0.000000 0.000000 3.132650 
# 
# 
# High freq. dielectric constant tensor:
#      x y z
#    x 1.589600 0.000000 0.000000 
#    y 0.000000 1.589600 0.000000 
#    z 0.000000 0.000000 1.584700 
# 
# From -- ./inp_files/5066.got.cif
#   From: 2010.03.12/outbox.cif.g09.slc.cpg/sg129_3_cif.got.tgz:5066.got - 2010.04.06 17:19:44.
