data_PCOD8314021
_publ_section_title
;
Structure prediction by ZEFSAII (Michael W. Deem and Ramdas Pophale) SiO2 
 PCOD8314021
Probable space group: P 4/M B M
;
_chemical_formula_sum "Si O2"
_cell_formula_units_Z 96
_cell_length_a 26.216033
_cell_length_b 26.216033
_cell_length_c 7.824111
_cell_angle_alpha 90.000000
_cell_angle_beta 90.000000
_cell_angle_gamma 90.000000
_cell_volume 5377.358030
_symmetry_space_group_name_H-M "P 4/M B M"
_symmetry_group_IT_number 127
_symmetry_cell_setting 'tetragonal'
loop_
_space_group_symop_operation_xyz
x,y,z
-y,x,z
-x,-y,z
y,-x,z
1/2+x,1/2-y,-z
1/2-x,1/2+y,-z
1/2+y,1/2+x,-z
1/2-y,1/2-x,-z
-x,-y,-z
y,-x,-z
x,y,-z
-y,x,-z
1/2-x,1/2+y,z
1/2+x,1/2-y,z
1/2-y,1/2-x,z
1/2+y,1/2+x,z
loop_
_atom_site_type_symbol
_atom_site_label
_atom_site_fract_x
_atom_site_fract_y
_atom_site_fract_z
Si Si1 0.872543 0.932525 0.191805
Si Si2 0.858458 0.724307 0.806655
Si Si3 0.460383 0.636374 0.307621
Si Si4 0.425970 0.255044 0.803896
Si Si5 0.357332 0.228448 0.500000
Si Si6 0.275630 0.309180 0.500000
Si Si7 0.748854 0.036791 0.701553
O O1 0.910329 0.898465 0.303440
O O2 0.814312 0.925411 0.253381
O O3 0.887334 0.992455 0.201570
O O4 0.879227 0.913135 0.000000
O O5 0.827806 0.672195 0.768368
O O6 0.842592 0.768499 0.671850
O O7 0.918502 0.713084 0.778804
O O8 0.847270 0.743235 0.000000
O O9 0.480504 0.639548 0.500000
O O10 0.448047 0.693445 0.243891
O O11 0.390377 0.223841 0.673360
O O12 0.483346 0.233438 0.787532
O O13 0.407235 0.247820 0.000000
O O14 0.317477 0.182524 0.500000
O O15 0.331177 0.284181 0.500000
O O16 0.235471 0.264530 0.500000
O O17 0.741069 0.032726 0.500000
#
# Coordination Sequence:
#
# PCOD8314021 Si02
#       7
#    16  16  16  16   8   8  16
#     4  10  21  35  50  71  98 129 171 222 270 320
#     4  10  20  33  52  79 111 145 179 217 266 323
#     4  10  21  33  51  71  93 129 174 221 270 321
#     4  10  22  38  57  79 107 139 176 223 271 321
#     4  11  24  39  58  80 107 141 185 230 266 317
#     4   9  20  35  48  72 108 141 178 221 264 308
#     4  10  19  34  56  78 105 140 176 218 267 321
#
# _framework density 17.852633000000001
#
# number of rings (size 3 to 8) (size 9 to 14) (size 15 to 20)
#    0.000    2.000    1.667    1.500    4.667    3.333 
#    0.000    3.333    0.000    0.000    0.000    0.000 
#    0.000    1.333    0.000    3.500    0.000    0.000 
#
# Total GULP energy -1190287.254899 kJ/mol
# GULP energy per Si atom -12398.825572 kJ/mol
# Density = 1.781200 g / cm^3
# Si number density = 17.852633 Si / 1000 Ang^3
#
#
#
# Elastic Constant Matrix: (Units=GPa)
#
#
# Indices 1 2 3 4 5 6 
#
# 1 77.7916 41.7028 35.3292 0.0000 0.0000 0.0000
# 2 41.7028 77.7905 35.3291 0.0000 0.0000 0.0000
# 3 35.3292 35.3291 110.3600 0.0000 0.0000 0.0000
# 4 0.0000 0.0000 0.0000 19.9414 0.0000 0.0000
# 5 0.0000 0.0000 0.0000 0.0000 19.9416 0.0000
# 6 0.0000 0.0000 0.0000 0.0000 0.0000 26.9049
#
#
#
# Elastic Compliance Matrix: (Units=1/GPa)
#
#
# Indices 1 2 3 4 5 6 
#
# 1 0.019016 -0.008694 -0.003305 0.000000 0.000000 0.000000
# 2 -0.008694 0.019016 -0.003305 0.000000 0.000000 0.000000
# 3 -0.003305 -0.003305 0.011177 0.000000 0.000000 0.000000
# 4 0.000000 0.000000 0.000000 0.050147 0.000000 0.000000
# 5 0.000000 0.000000 0.000000 0.000000 0.050146 0.000000
# 6 0.000000 0.000000 0.000000 0.000000 0.000000 0.037168
#
#
# Mechanical properties :
#
#
# Convention : Reuss Voigt Hill
#
# Bulk Modulus (GPa) = 53.75160 54.51827 54.13494
# Shear Modulus (GPa) = 22.37360 23.59630 22.98495
#
# Velocity S-wave (km/s) = 3.54395 3.63950 3.59204
# Velocity P-wave (km/s) = 6.84982 6.94734 6.89875
#
# Compressibility (1/GPa) = 0.01860410
#
# Stress axis : x y z
#
# Youngs Moduli (GPa) = 52.58693 52.58614 89.46940
#
# Poissons Ratio (x) = 0.45716 0.29565
# Poissons Ratio (y) = 0.45717 0.29566
# Poissons Ratio (z) = 0.17377 0.17378
#
# Static dielectric constant tensor:
#      x y z
#    x 3.134760 0.000000 0.000000 
#    y 0.000000 3.134750 0.000000 
#    z 0.000000 0.000000 3.360620 
# 
# 
# High freq. dielectric constant tensor:
#      x y z
#    x 1.664510 0.000000 0.000000 
#    y 0.000000 1.664510 0.000000 
#    z 0.000000 0.000000 1.708840 
# 
# From -- ./inp_files/2121.got.cif
#   From: 2010.03.12/outbox.cif.g09.slc.cpg/sg127_2_cif.got.tgz:2121.got - 2010.04.06 17:03:15.
