data_PCOD8314346
_publ_section_title
;
Structure prediction by ZEFSAII (Michael W. Deem and Ramdas Pophale) SiO2 
 PCOD8314346
Probable space group: P 4/M B M
;
_chemical_formula_sum "Si O2"
_cell_formula_units_Z 56
_cell_length_a 17.972527
_cell_length_b 17.972527
_cell_length_c 8.141032
_cell_angle_alpha 90.000000
_cell_angle_beta 90.000000
_cell_angle_gamma 90.000000
_cell_volume 2629.648804
_symmetry_space_group_name_H-M "P 4/M B M"
_symmetry_group_IT_number 127
_symmetry_cell_setting 'tetragonal'
loop_
_space_group_symop_operation_xyz
x,y,z
-y,x,z
-x,-y,z
y,-x,z
1/2+x,1/2-y,-z
1/2-x,1/2+y,-z
1/2+y,1/2+x,-z
1/2-y,1/2-x,-z
-x,-y,-z
y,-x,-z
x,y,-z
-y,x,-z
1/2-x,1/2+y,z
1/2+x,1/2-y,z
1/2-y,1/2-x,z
1/2+y,1/2+x,z
loop_
_atom_site_type_symbol
_atom_site_label
_atom_site_fract_x
_atom_site_fract_y
_atom_site_fract_z
Si Si1 0.352593 0.661803 0.316471
Si Si2 0.571153 0.186579 0.312720
Si Si3 0.591702 0.790781 0.186161
Si Si4 0.424349 0.593487 0.000000
O O1 0.379636 0.636922 0.500000
O O2 0.365607 0.749904 0.297504
O O3 0.266990 0.636091 0.300887
O O4 0.399468 0.626768 0.171674
O O5 0.546158 0.176307 0.500000
O O6 0.610715 0.110715 0.247920
O O7 0.496650 0.205186 0.213518
O O8 0.627815 0.872186 0.215348
O O9 0.604304 0.763284 0.000000
O O10 0.395277 0.511038 0.000000
#
# Coordination Sequence:
#
# PCOD8314346 Si02
#       4
#    16  16  16   8
#     4  11  23  42  68  95 127 169 217 270 323 382
#     4  10  23  42  65  95 130 172 220 270 327 387
#     4  11  24  41  64  96 132 172 219 270 326 387
#     4  11  24  40  61  94 132 170 215 265 324 392
#
# _framework density 21.295618999999999
#
# number of rings (size 3 to 8) (size 9 to 14) (size 15 to 20)
#    0.000    1.286    1.429    3.429    2.000    8.000 
#    0.000    4.286    0.000    0.000    0.000    0.000 
#    0.000    0.000    0.000    0.000    0.000    0.000 
#
# Total GULP energy -694048.027245 kJ/mol
# GULP energy per Si atom -12393.714772 kJ/mol
# Density = 2.124715 g / cm^3
# Si number density = 21.295619 Si / 1000 Ang^3
#
#
#
# Elastic Constant Matrix: (Units=GPa)
#
#
# Indices 1 2 3 4 5 6 
#
# 1 78.2968 27.2517 31.3251 0.0000 0.0000 0.0000
# 2 27.2517 78.2968 31.3251 0.0000 0.0000 0.0000
# 3 31.3251 31.3251 142.4804 0.0000 0.0000 0.0000
# 4 0.0000 0.0000 0.0000 37.5227 0.0000 0.0000
# 5 0.0000 0.0000 0.0000 0.0000 37.5227 0.0000
# 6 0.0000 0.0000 0.0000 0.0000 0.0000 40.1914
#
#
#
# Elastic Compliance Matrix: (Units=1/GPa)
#
#
# Indices 1 2 3 4 5 6 
#
# 1 0.015243 -0.004347 -0.002396 0.000000 0.000000 0.000000
# 2 -0.004347 0.015243 -0.002396 0.000000 0.000000 0.000000
# 3 -0.002396 -0.002396 0.008072 0.000000 0.000000 0.000000
# 4 0.000000 0.000000 0.000000 0.026651 0.000000 0.000000
# 5 0.000000 0.000000 0.000000 0.000000 0.026651 0.000000
# 6 0.000000 0.000000 0.000000 0.000000 0.000000 0.024881
#
#
# Mechanical properties :
#
#
# Convention : Reuss Voigt Hill
#
# Bulk Modulus (GPa) = 49.30478 53.20864 51.25671
# Shear Modulus (GPa) = 35.26641 36.99218 36.12930
#
# Velocity S-wave (km/s) = 4.07386 4.17235 4.12340
# Velocity P-wave (km/s) = 6.73285 6.94632 6.84042
#
# Compressibility (1/GPa) = 0.02028201
#
# Stress axis : x y z
#
# Youngs Moduli (GPa) = 65.60223 65.60223 123.88681
#
# Poissons Ratio (x) = 0.28518 0.29678
# Poissons Ratio (y) = 0.28518 0.29678
# Poissons Ratio (z) = 0.15716 0.15716
#
# Static dielectric constant tensor:
#      x y z
#    x 3.862790 0.000000 0.000000 
#    y 0.000000 3.862790 0.000000 
#    z 0.000000 0.000000 3.503090 
# 
# 
# High freq. dielectric constant tensor:
#      x y z
#    x 1.834630 0.000000 0.000000 
#    y 0.000000 1.834630 0.000000 
#    z 0.000000 0.000000 1.847200 
# 
# From -- ./inp_files/1072.got.cif
#   From: 2010.03.12/outbox.cif.g09.slc.cpg/sg127_1_cif.got.tgz:1072.got - 2010.04.06 17:03:15.
