data_PCOD8314017
_publ_section_title
;
Structure prediction by ZEFSAII (Michael W. Deem and Ramdas Pophale) SiO2 
 PCOD8314017
Probable space group: P 4/M B M
;
_chemical_formula_sum "Si O2"
_cell_formula_units_Z 72
_cell_length_a 21.331143
_cell_length_b 21.331143
_cell_length_c 8.843025
_cell_angle_alpha 90.000000
_cell_angle_beta 90.000000
_cell_angle_gamma 90.000000
_cell_volume 4023.732558
_symmetry_space_group_name_H-M "P 4/M B M"
_symmetry_group_IT_number 127
_symmetry_cell_setting 'tetragonal'
loop_
_space_group_symop_operation_xyz
x,y,z
-y,x,z
-x,-y,z
y,-x,z
1/2+x,1/2-y,-z
1/2-x,1/2+y,-z
1/2+y,1/2+x,-z
1/2-y,1/2-x,-z
-x,-y,-z
y,-x,-z
x,y,-z
-y,x,-z
1/2-x,1/2+y,z
1/2+x,1/2-y,z
1/2-y,1/2-x,z
1/2+y,1/2+x,z
loop_
_atom_site_type_symbol
_atom_site_label
_atom_site_fract_x
_atom_site_fract_y
_atom_site_fract_z
Si Si1 0.839073 0.240534 0.666940
Si Si2 0.627552 0.379407 0.824538
Si Si3 0.313600 0.038387 0.322424
Si Si4 0.947762 0.447762 0.821661
Si Si5 0.005964 0.189768 0.818933
O O1 0.855055 0.213670 0.500000
O O2 0.771505 0.271505 0.667928
O O3 0.833375 0.184873 0.787305
O O4 0.890732 0.292184 0.711939
O O5 0.564842 0.349605 0.754427
O O6 0.648363 0.447115 0.759422
O O7 0.615990 0.385591 0.000000
O O8 0.320100 0.024344 0.500000
O O9 0.381505 0.028726 0.246839
O O10 0.259808 0.993314 0.251388
O O11 0.000000 0.500000 0.782764
O O12 0.939417 0.439417 0.000000
O O13 0.005791 0.196811 0.000000
#
# Coordination Sequence:
#
# PCOD8314017 Si02
#       5
#    16  16  16   8  16
#     4   9  17  31  50  73  99 126 164 214 260 304
#     4   9  18  31  49  74 103 137 176 216 261 313
#     4  10  19  34  55  77 102 133 170 212 259 307
#     4  11  23  37  55  81 109 137 171 211 259 314
#     4   9  18  33  51  75 106 139 177 219 265 311
#
# _framework density 17.893833000000001
#
# number of rings (size 3 to 8) (size 9 to 14) (size 15 to 20)
#    0.000    2.556    1.111    1.000    0.000    3.556 
#    0.000    3.333    0.000    1.333    0.000    6.222 
#    0.000    0.000    0.000    0.000    0.000    0.000 
#
# Total GULP energy -892280.001385 kJ/mol
# GULP energy per Si atom -12392.777797 kJ/mol
# Density = 1.785311 g / cm^3
# Si number density = 17.893833 Si / 1000 Ang^3
#
#
#
# Elastic Constant Matrix: (Units=GPa)
#
#
# Indices 1 2 3 4 5 6 
#
# 1 113.1821 81.7378 39.3267 0.0000 0.0000 0.0000
# 2 81.7378 113.1821 39.3267 0.0000 0.0000 0.0000
# 3 39.3267 39.3267 52.2946 0.0000 0.0000 0.0000
# 4 0.0000 0.0000 0.0000 21.6495 0.0000 0.0000
# 5 0.0000 0.0000 0.0000 0.0000 21.6495 0.0000
# 6 0.0000 0.0000 0.0000 0.0000 0.0000 27.6647
#
#
#
# Elastic Compliance Matrix: (Units=1/GPa)
#
#
# Indices 1 2 3 4 5 6 
#
# 1 0.019584 -0.012218 -0.005539 0.000000 0.000000 0.000000
# 2 -0.012218 0.019584 -0.005539 0.000000 0.000000 0.000000
# 3 -0.005539 -0.005539 0.027453 0.000000 0.000000 0.000000
# 4 0.000000 0.000000 0.000000 0.046190 0.000000 0.000000
# 5 0.000000 0.000000 0.000000 0.000000 0.046190 0.000000
# 6 0.000000 0.000000 0.000000 0.000000 0.000000 0.036147
#
#
# Mechanical properties :
#
#
# Convention : Reuss Voigt Hill
#
# Bulk Modulus (GPa) = 49.92945 66.60458 58.26702
# Shear Modulus (GPa) = 20.12741 22.07724 21.10232
#
# Velocity S-wave (km/s) = 3.35748 3.51635 3.43783
# Velocity P-wave (km/s) = 6.55698 7.33411 6.95640
#
# Compressibility (1/GPa) = 0.02002826
#
# Stress axis : x y z
#
# Youngs Moduli (GPa) = 51.06260 51.06260 36.42566
#
# Poissons Ratio (x) = 0.62391 0.20176
# Poissons Ratio (y) = 0.62391 0.20176
# Poissons Ratio (z) = 0.28283 0.28283
#
# Static dielectric constant tensor:
#      x y z
#    x 3.385780 0.000000 0.000000 
#    y 0.000000 3.385780 0.000000 
#    z 0.000000 0.000000 3.260670 
# 
# 
# High freq. dielectric constant tensor:
#      x y z
#    x 1.684250 0.000000 0.000000 
#    y 0.000000 1.684250 0.000000 
#    z 0.000000 0.000000 1.687770 
# 
# From -- ./inp_files/1509.got.cif
#   From: 2010.03.12/outbox.cif.g09.slc.cpg/sg127_1_cif.got.tgz:1509.got - 2010.04.06 17:03:15.
