data_PCOD8314792
_publ_section_title
;
Structure prediction by ZEFSAII (Michael W. Deem and Ramdas Pophale) SiO2 
 PCOD8314792
Probable space group: P 4/M N C
;
_chemical_formula_sum "Si O2"
_cell_formula_units_Z 120
_cell_length_a 17.170819
_cell_length_b 17.170819
_cell_length_c 23.595264
_cell_angle_alpha 90.000000
_cell_angle_beta 90.000000
_cell_angle_gamma 90.000000
_cell_volume 6956.757445
_symmetry_space_group_name_H-M "P 4/M N C"
_symmetry_group_IT_number 128
_symmetry_cell_setting 'tetragonal'
loop_
_space_group_symop_operation_xyz
x,y,z
-y,x,z
-x,-y,z
y,-x,z
1/2+x,1/2-y,1/2-z
1/2-x,1/2+y,1/2-z
1/2+y,1/2+x,1/2-z
1/2-y,1/2-x,1/2-z
-x,-y,-z
y,-x,-z
x,y,-z
-y,x,-z
1/2-x,1/2+y,1/2+z
1/2+x,1/2-y,1/2+z
1/2-y,1/2-x,1/2+z
1/2+y,1/2+x,1/2+z
loop_
_atom_site_type_symbol
_atom_site_label
_atom_site_fract_x
_atom_site_fract_y
_atom_site_fract_z
Si Si1 0.655803 0.843854 0.062266
Si Si2 0.089110 0.495244 0.567006
Si Si3 0.159040 0.327518 0.064770
Si Si4 0.085146 0.903062 0.294940
Si Si5 0.090710 0.091432 0.500000
Si Si6 0.346444 0.337225 0.560179
Si Si7 0.822545 0.832336 0.395932
Si Si8 0.100036 0.077524 0.169004
O O1 0.746333 0.842572 0.051992
O O2 0.637604 0.766965 0.099244
O O3 0.629261 0.925551 0.091521
O O4 0.614894 0.835869 0.000000
O O5 0.102620 0.493728 0.500000
O O6 0.122925 0.413210 0.591180
O O7 0.000000 0.500000 0.585068
O O8 0.127637 0.239565 0.066767
O O9 0.238522 0.334548 0.101335
O O10 0.178084 0.353064 0.000000
O O11 0.137341 0.850760 0.335477
O O12 0.104755 0.872411 0.231342
O O13 0.993070 0.892410 0.305001
O O14 0.126421 0.128883 0.444343
O O15 0.999566 0.108840 0.500000
O O16 0.382089 0.370835 0.500000
O O17 0.392967 0.350033 0.617070
O O18 0.013640 0.107457 0.162442
#
# Coordination Sequence:
#
# PCOD8314792 Si02
#       8
#    16  16  16  16   8  16  16  16
#     4   9  18  33  47  71 106 135 166 217 264 306
#     4   9  18  30  46  68  99 141 181 207 255 317
#     4   9  18  33  47  71 106 135 166 217 264 306
#     4   9  19  35  51  70 104 140 171 212 253 309
#     4  11  22  30  44  76 108 134 168 215 266 308
#     4   9  18  31  53  77 104 130 158 207 268 317
#     4  11  18  33  51  72 102 141 179 210 263 316
#     4   9  19  34  50  74 105 133 167 206 252 313
#
# _framework density 17.249414999999999
#
# number of rings (size 3 to 8) (size 9 to 14) (size 15 to 20)
#    0.000    2.600    1.333    2.400    1.867    3.733 
#    0.000    3.333    0.000    0.000    0.000    0.000 
#    0.000    0.000    0.000    0.000    0.000    0.000 
#
# Total GULP energy -1486632.460980 kJ/mol
# GULP energy per Si atom -12388.603842 kJ/mol
# Density = 1.721015 g / cm^3
# Si number density = 17.249415 Si / 1000 Ang^3
#
#
#
# Elastic Constant Matrix: (Units=GPa)
#
#
# Indices 1 2 3 4 5 6 
#
# 1 57.3453 43.6537 22.7103 0.0000 0.0000 0.0000
# 2 43.6537 57.3453 22.7103 0.0000 0.0000 0.0000
# 3 22.7103 22.7103 95.3463 0.0000 0.0000 0.0000
# 4 0.0000 0.0000 0.0000 23.1403 0.0000 0.0000
# 5 0.0000 0.0000 0.0000 0.0000 23.1403 0.0000
# 6 0.0000 0.0000 0.0000 0.0000 0.0000 30.8298
#
#
#
# Elastic Compliance Matrix: (Units=1/GPa)
#
#
# Indices 1 2 3 4 5 6 
#
# 1 0.042063 -0.030974 -0.002641 0.000000 0.000000 0.000000
# 2 -0.030974 0.042063 -0.002641 0.000000 0.000000 0.000000
# 3 -0.002641 -0.002641 0.011746 0.000000 0.000000 0.000000
# 4 0.000000 0.000000 0.000000 0.043215 0.000000 0.000000
# 5 0.000000 0.000000 0.000000 0.000000 0.043215 0.000000
# 6 0.000000 0.000000 0.000000 0.000000 0.000000 0.032436
#
#
# Mechanical properties :
#
#
# Convention : Reuss Voigt Hill
#
# Bulk Modulus (GPa) = 42.80981 43.13172 42.97076
# Shear Modulus (GPa) = 16.94698 23.48627 20.21662
#
# Velocity S-wave (km/s) = 3.13783 3.69395 3.42719
# Velocity P-wave (km/s) = 6.16441 6.57668 6.37388
#
# Compressibility (1/GPa) = 0.02335913
#
# Stress axis : x y z
#
# Youngs Moduli (GPa) = 23.77378 23.77378 85.13319
#
# Poissons Ratio (x) = 0.73638 0.22486
# Poissons Ratio (y) = 0.73638 0.22486
# Poissons Ratio (z) = 0.06279 0.06279
#
# Static dielectric constant tensor:
#      x y z
#    x 3.296650 0.000000 0.000000 
#    y 0.000000 3.296650 0.000000 
#    z 0.000000 0.000000 3.273340 
# 
# 
# High freq. dielectric constant tensor:
#      x y z
#    x 1.663990 0.000000 0.000000 
#    y 0.000000 1.663990 0.000000 
#    z 0.000000 0.000000 1.633010 
# 
# From -- ./inp_files/6022.got.cif
#   From: 2010.03.12/outbox.cif.g09.slc.cpg/sg128_4_cif.got.tgz:6022.got - 2010.04.06 17:11:05.
