data_PCOD8314455
_publ_section_title
;
Structure prediction by ZEFSAII (Michael W. Deem and Ramdas Pophale) SiO2 
 PCOD8314455
Probable space group: P 4/M B M
;
_chemical_formula_sum "Si O2"
_cell_formula_units_Z 88
_cell_length_a 11.684775
_cell_length_b 11.684775
_cell_length_c 33.721841
_cell_angle_alpha 90.000000
_cell_angle_beta 90.000000
_cell_angle_gamma 90.000000
_cell_volume 4604.176720
_symmetry_space_group_name_H-M "P 4/M B M"
_symmetry_group_IT_number 127
_symmetry_cell_setting 'tetragonal'
loop_
_space_group_symop_operation_xyz
x,y,z
-y,x,z
-x,-y,z
y,-x,z
1/2+x,1/2-y,-z
1/2-x,1/2+y,-z
1/2+y,1/2+x,-z
1/2-y,1/2-x,-z
-x,-y,-z
y,-x,-z
x,y,-z
-y,x,-z
1/2-x,1/2+y,z
1/2+x,1/2-y,z
1/2-y,1/2-x,z
1/2+y,1/2+x,z
loop_
_atom_site_type_symbol
_atom_site_label
_atom_site_fract_x
_atom_site_fract_y
_atom_site_fract_z
Si Si1 0.093219 0.593219 0.675949
Si Si2 0.092756 0.592756 0.769493
Si Si3 0.185593 0.035139 0.541768
Si Si4 0.035343 0.816242 0.906359
Si Si5 0.906595 0.406595 0.046618
Si Si6 0.535481 0.683688 0.816047
Si Si7 0.312994 0.536415 0.372172
O O1 0.102509 0.602509 0.722727
O O2 0.055512 0.717079 0.660495
O O3 0.000000 0.500000 0.662615
O O4 0.214245 0.554542 0.786016
O O5 0.000000 0.500000 0.782877
O O6 0.258086 0.049115 0.500000
O O7 0.249231 0.048181 0.584162
O O8 0.089054 0.130765 0.541325
O O9 0.054013 0.713815 0.936268
O O10 0.044576 0.772073 0.861200
O O11 0.910749 0.868115 0.914400
O O12 0.000000 0.500000 0.058580
O O13 0.893313 0.393313 0.000000
O O14 0.410867 0.631943 0.808012
O O15 0.367845 0.411035 0.366990
#
# Coordination Sequence:
#
# PCOD8314455 Si02
#       7
#     8   8  16  16   8  16  16
#     4  11  26  41  55  80 118 155 190 234 277 327
#     4  11  25  40  57  86 119 151 188 230 288 348
#     4   7  10  21  47  81 108 131 172 229 279 327
#     4   9  20  40  64  89 117 152 194 242 298 350
#     4  11  25  39  55  86 126 165 208 247 279 327
#     4   9  20  40  65  92 118 145 185 240 298 353
#     4   9  19  37  61  84 107 147 195 231 276 338
#
# _framework density 19.113081000000001
#
# number of rings (size 3 to 8) (size 9 to 14) (size 15 to 20)
#    0.000    2.818    0.000    3.273    3.818    3.636 
#    0.000    3.182    0.000    1.091    0.000    0.000 
#    0.000    0.000    0.000    0.000    0.000    0.000 
#
# Total GULP energy -1090446.931376 kJ/mol
# GULP energy per Si atom -12391.442402 kJ/mol
# Density = 1.906958 g / cm^3
# Si number density = 19.113081 Si / 1000 Ang^3
#
#
#
# Elastic Constant Matrix: (Units=GPa)
#
#
# Indices 1 2 3 4 5 6 
#
# 1 99.6256 56.1051 63.2534 0.0000 0.0000 0.0000
# 2 56.1051 99.6256 63.2534 0.0000 0.0000 0.0000
# 3 63.2534 63.2534 101.7324 0.0000 0.0000 0.0000
# 4 0.0000 0.0000 0.0000 -0.8490 0.0000 0.0000
# 5 0.0000 0.0000 0.0000 0.0000 -0.8490 0.0000
# 6 0.0000 0.0000 0.0000 0.0000 0.0000 16.8664
#
#
#
# Elastic Compliance Matrix: (Units=1/GPa)
#
#
# Indices 1 2 3 4 5 6 
#
# 1 0.017976 -0.005002 -0.008067 0.000000 0.000000 0.000000
# 2 -0.005002 0.017976 -0.008067 0.000000 0.000000 0.000000
# 3 -0.008067 -0.008067 0.019861 0.000000 0.000000 0.000000
# 4 0.000000 0.000000 0.000000 -1.177849 0.000000 0.000000
# 5 0.000000 0.000000 0.000000 0.000000 -1.177849 0.000000
# 6 0.000000 0.000000 0.000000 0.000000 0.000000 0.059289
#
#
# Mechanical properties :
#
#
# Convention : Reuss Voigt Hill
#
# Bulk Modulus (GPa) = 73.84379 74.02306 73.93342
# Shear Modulus (GPa) = -2.27914 10.92514 4.32300
#
# Velocity S-wave (km/s) = -1.09318 2.39342 1.50556
# Velocity P-wave (km/s) = 6.09309 6.81550 6.46439
#
# Compressibility (1/GPa) = 0.01354210
#
# Stress axis : x y z
#
# Youngs Moduli (GPa) = 55.62926 55.62926 50.34894
#
# Poissons Ratio (x) = 0.27823 0.40617
# Poissons Ratio (y) = 0.27823 0.40617
# Poissons Ratio (z) = 0.44877 0.44877
#
# Static dielectric constant tensor:
#      x y z
#    x 3.333050 0.000000 0.000000 
#    y 0.000000 3.333050 0.000000 
#    z 0.000000 0.000000 3.690800 
# 
# 
# High freq. dielectric constant tensor:
#      x y z
#    x 1.731250 0.000000 0.000000 
#    y 0.000000 1.731250 0.000000 
#    z 0.000000 0.000000 1.754280 
# 
# From -- ./inp_files/6585.got.cif
#   From: 2010.03.12/outbox.cif.g09.slc.cpg/sg127_4_cif.got.tgz:6585.got - 2010.04.06 17:03:15.
