data_PCOD8314594
_publ_section_title
;
Structure prediction by ZEFSAII (Michael W. Deem and Ramdas Pophale) SiO2 
 PCOD8314594
Probable space group: P 4/M N C
;
_chemical_formula_sum "Si O2"
_cell_formula_units_Z 96
_cell_length_a 24.721514
_cell_length_b 24.721514
_cell_length_c 9.387936
_cell_angle_alpha 90.000000
_cell_angle_beta 90.000000
_cell_angle_gamma 90.000000
_cell_volume 5737.467639
_symmetry_space_group_name_H-M "P 4/M N C"
_symmetry_group_IT_number 128
_symmetry_cell_setting 'tetragonal'
loop_
_space_group_symop_operation_xyz
x,y,z
-y,x,z
-x,-y,z
y,-x,z
1/2+x,1/2-y,1/2-z
1/2-x,1/2+y,1/2-z
1/2+y,1/2+x,1/2-z
1/2-y,1/2-x,1/2-z
-x,-y,-z
y,-x,-z
x,y,-z
-y,x,-z
1/2-x,1/2+y,1/2+z
1/2+x,1/2-y,1/2+z
1/2-y,1/2-x,1/2+z
1/2+y,1/2+x,1/2+z
loop_
_atom_site_type_symbol
_atom_site_label
_atom_site_fract_x
_atom_site_fract_y
_atom_site_fract_z
Si Si1 0.309723 0.884029 0.836324
Si Si2 0.183486 0.605197 0.833118
Si Si3 0.489827 0.685564 0.842428
Si Si4 0.889674 0.192267 0.333060
Si Si5 0.610819 0.318261 0.663259
Si Si6 0.186054 0.484915 0.841909
O O1 0.333489 0.833489 0.750000
O O2 0.245558 0.881322 0.820660
O O3 0.333315 0.939686 0.769941
O O4 0.328005 0.880973 0.000000
O O5 0.146493 0.646493 0.750000
O O6 0.245320 0.615142 0.787299
O O7 0.165073 0.544010 0.793689
O O8 0.176504 0.615180 0.000000
O O9 0.550544 0.669028 0.796183
O O10 0.446008 0.662470 0.731815
O O11 0.487455 0.749745 0.848567
O O12 0.476697 0.662322 0.000000
O O13 0.877547 0.185232 0.500000
O O14 0.845739 0.160372 0.242953
O O15 0.610360 0.336590 0.500000
O O16 0.163939 0.470391 0.000000
#
# Coordination Sequence:
#
# PCOD8314594 Si02
#       6
#    16  16  16  16  16  16
#     4  10  20  32  47  69  95 124 157 191 231 277
#     4   9  18  31  48  71  97 125 156 190 230 275
#     4   8  15  30  50  67  86 119 160 194 225 269
#     4   9  18  32  49  69  94 126 160 190 226 275
#     4  10  20  31  46  71  98 123 153 191 235 277
#     4   8  15  30  49  67  89 119 156 194 229 269
#
# _framework density 16.732119999999998
#
# number of rings (size 3 to 8) (size 9 to 14) (size 15 to 20)
#    0.000    3.000    0.000    3.000    0.000    4.667 
#    0.000    6.667    0.000    1.000    0.000    7.000 
#    0.000    0.000    0.000    0.000    0.000    0.000 
#
# Total GULP energy -1190059.742541 kJ/mol
# GULP energy per Si atom -12396.455651 kJ/mol
# Density = 1.669404 g / cm^3
# Si number density = 16.732120 Si / 1000 Ang^3
#
#
#
# Elastic Constant Matrix: (Units=GPa)
#
#
# Indices 1 2 3 4 5 6 
#
# 1 63.7514 36.7618 51.6172 0.0000 0.0000 0.0000
# 2 36.7618 63.7514 51.6172 0.0000 0.0000 0.0000
# 3 51.6172 51.6172 107.6755 0.0000 0.0000 0.0000
# 4 0.0000 0.0000 0.0000 29.4251 0.0000 0.0000
# 5 0.0000 0.0000 0.0000 0.0000 29.4251 0.0000
# 6 0.0000 0.0000 0.0000 0.0000 0.0000 0.8642
#
#
#
# Elastic Compliance Matrix: (Units=1/GPa)
#
#
# Indices 1 2 3 4 5 6 
#
# 1 0.028325 -0.008727 -0.009395 0.000000 0.000000 0.000000
# 2 -0.008727 0.028325 -0.009395 0.000000 0.000000 0.000000
# 3 -0.009395 -0.009395 0.018295 0.000000 0.000000 0.000000
# 4 0.000000 0.000000 0.000000 0.033985 0.000000 0.000000
# 5 0.000000 0.000000 0.000000 0.000000 0.033985 0.000000
# 6 0.000000 0.000000 0.000000 0.000000 0.000000 1.157108
#
#
# Mechanical properties :
#
#
# Convention : Reuss Voigt Hill
#
# Bulk Modulus (GPa) = 50.22273 57.24118 53.73196
# Shear Modulus (GPa) = 3.67191 18.28835 10.98013
#
# Velocity S-wave (km/s) = 1.48300 3.30965 2.56448
# Velocity P-wave (km/s) = 5.74572 6.99212 6.39934
#
# Compressibility (1/GPa) = 0.01991130
#
# Stress axis : x y z
#
# Youngs Moduli (GPa) = 35.30479 35.30479 54.66088
#
# Poissons Ratio (x) = 0.30809 0.51354
# Poissons Ratio (y) = 0.30809 0.51354
# Poissons Ratio (z) = 0.33169 0.33169
#
# Static dielectric constant tensor:
#      x y z
#    x 3.067820 0.000000 0.000000 
#    y 0.000000 3.067820 0.000000 
#    z 0.000000 0.000000 3.261960 
# 
# 
# High freq. dielectric constant tensor:
#      x y z
#    x 1.628010 0.000000 0.000000 
#    y 0.000000 1.628010 0.000000 
#    z 0.000000 0.000000 1.649040 
# 
# From -- ./inp_files/1411.got.cif
#   From: 2010.03.12/outbox.cif.g09.slc.cpg/sg128_1_cif.got.tgz:1411.got - 2010.04.06 17:11:05.
