data_PCOD8314225
_publ_section_title
;
Structure prediction by ZEFSAII (Michael W. Deem and Ramdas Pophale) SiO2 
 PCOD8314225
Probable space group: P 4/M B M
;
_chemical_formula_sum "Si O2"
_cell_formula_units_Z 64
_cell_length_a 15.430853
_cell_length_b 15.430853
_cell_length_c 14.324810
_cell_angle_alpha 90.000000
_cell_angle_beta 90.000000
_cell_angle_gamma 90.000000
_cell_volume 3410.898047
_symmetry_space_group_name_H-M "P 4/M B M"
_symmetry_group_IT_number 127
_symmetry_cell_setting 'tetragonal'
loop_
_space_group_symop_operation_xyz
x,y,z
-y,x,z
-x,-y,z
y,-x,z
1/2+x,1/2-y,-z
1/2-x,1/2+y,-z
1/2+y,1/2+x,-z
1/2-y,1/2-x,-z
-x,-y,-z
y,-x,-z
x,y,-z
-y,x,-z
1/2-x,1/2+y,z
1/2+x,1/2-y,z
1/2-y,1/2-x,z
1/2+y,1/2+x,z
loop_
_atom_site_type_symbol
_atom_site_label
_atom_site_fract_x
_atom_site_fract_y
_atom_site_fract_z
Si Si1 0.240500 0.403606 0.393030
Si Si2 0.903611 0.740494 0.106970
Si Si3 0.004645 0.638789 0.749994
Si Si4 0.580246 0.381278 0.750004
O O1 0.256764 0.428502 0.500000
O O2 0.181845 0.318156 0.382762
O O3 0.195133 0.485674 0.342599
O O4 0.332022 0.385538 0.342519
O O5 0.818160 0.681841 0.117235
O O6 0.985675 0.695130 0.157409
O O7 0.885540 0.832019 0.157474
O O8 0.928514 0.756752 0.000000
O O9 0.943155 0.556846 0.749993
O O10 0.104127 0.604127 0.749993
O O11 0.619236 0.476259 0.750005
#
# Coordination Sequence:
#
# PCOD8314225 Si02
#       4
#    16  16  16  16
#     4   9  18  34  55  76 101 134 168 206 255 306
#     4   9  18  34  55  76 101 134 168 206 255 306
#     4   8  14  26  46  73 103 132 163 200 242 293
#     4  10  21  36  54  75 100 133 172 213 252 292
#
# _framework density 18.763387999999999
#
# number of rings (size 3 to 8) (size 9 to 14) (size 15 to 20)
#    0.000    3.000    0.000    2.250    0.000    3.000 
#    0.000   17.500    0.000    0.000    0.000    0.000 
#    0.000    0.000    0.000    0.000    0.000    0.000 
#
# Total GULP energy -793295.738264 kJ/mol
# GULP energy per Si atom -12395.245910 kJ/mol
# Density = 1.872068 g / cm^3
# Si number density = 18.763388 Si / 1000 Ang^3
#
#
#
# Elastic Constant Matrix: (Units=GPa)
#
#
# Indices 1 2 3 4 5 6 
#
# 1 68.0292 20.0247 43.1860 0.0000 0.0000 0.0000
# 2 20.0247 68.0292 43.1860 0.0000 0.0000 0.0000
# 3 43.1860 43.1860 188.4991 0.0000 0.0000 0.0000
# 4 0.0000 0.0000 0.0000 14.0667 0.0000 0.0000
# 5 0.0000 0.0000 0.0000 0.0000 14.0667 0.0000
# 6 0.0000 0.0000 0.0000 0.0000 0.0000 16.1982
#
#
#
# Elastic Compliance Matrix: (Units=1/GPa)
#
#
# Indices 1 2 3 4 5 6 
#
# 1 0.017740 -0.003091 -0.003356 0.000000 0.000000 0.000000
# 2 -0.003091 0.017740 -0.003356 0.000000 0.000000 0.000000
# 3 -0.003356 -0.003356 0.006843 0.000000 0.000000 0.000000
# 4 0.000000 0.000000 0.000000 0.071090 0.000000 0.000000
# 5 0.000000 0.000000 0.000000 0.000000 0.071090 0.000000
# 6 0.000000 0.000000 0.000000 0.000000 0.000000 0.061735
#
#
# Mechanical properties :
#
#
# Convention : Reuss Voigt Hill
#
# Bulk Modulus (GPa) = 44.02210 59.70566 51.86388
# Shear Modulus (GPa) = 18.28711 23.41039 20.84875
#
# Velocity S-wave (km/s) = 3.12527 3.53606 3.33699
# Velocity P-wave (km/s) = 6.04448 6.96857 6.52291
#
# Compressibility (1/GPa) = 0.02271586
#
# Stress axis : x y z
#
# Youngs Moduli (GPa) = 56.36977 56.36977 146.13796
#
# Poissons Ratio (x) = 0.17426 0.49045
# Poissons Ratio (y) = 0.17426 0.49045
# Poissons Ratio (z) = 0.18918 0.18918
#
# Static dielectric constant tensor:
#      x y z
#    x 3.404030 0.000000 0.000000 
#    y 0.000000 3.404030 0.000000 
#    z 0.000000 0.000000 3.597140 
# 
# 
# High freq. dielectric constant tensor:
#      x y z
#    x 1.716330 0.000000 0.000000 
#    y 0.000000 1.716330 0.000000 
#    z 0.000000 0.000000 1.729330 
# 
# From -- ./inp_files/4076.got.cif
#   From: 2010.03.12/outbox.cif.g09.slc.cpg/sg127_3_cif.got.tgz:4076.got - 2010.04.06 17:03:15.
