data_PCOD8314363
_publ_section_title
;
Structure prediction by ZEFSAII (Michael W. Deem and Ramdas Pophale) SiO2 
 PCOD8314363
Probable space group: P 4/M B M
;
_chemical_formula_sum "Si O2"
_cell_formula_units_Z 96
_cell_length_a 15.394778
_cell_length_b 15.394778
_cell_length_c 22.607415
_cell_angle_alpha 90.000000
_cell_angle_beta 90.000000
_cell_angle_gamma 90.000000
_cell_volume 5357.939036
_symmetry_space_group_name_H-M "P 4/M B M"
_symmetry_group_IT_number 127
_symmetry_cell_setting 'tetragonal'
loop_
_space_group_symop_operation_xyz
x,y,z
-y,x,z
-x,-y,z
y,-x,z
1/2+x,1/2-y,-z
1/2-x,1/2+y,-z
1/2+y,1/2+x,-z
1/2-y,1/2-x,-z
-x,-y,-z
y,-x,-z
x,y,-z
-y,x,-z
1/2-x,1/2+y,z
1/2+x,1/2-y,z
1/2-y,1/2-x,z
1/2+y,1/2+x,z
loop_
_atom_site_type_symbol
_atom_site_label
_atom_site_fract_x
_atom_site_fract_y
_atom_site_fract_z
Si Si1 0.642241 0.142241 0.928582
Si Si2 0.981436 0.860380 0.000000
Si Si3 0.715125 0.784876 0.931071
Si Si4 0.257020 0.017417 0.894819
Si Si5 0.433406 0.933406 0.430410
Si Si6 0.640472 0.480654 0.785782
Si Si7 0.463560 0.362974 0.651355
Si Si8 0.294707 0.059406 0.568246
O O1 0.714369 0.214369 0.906016
O O2 0.546407 0.160273 0.900489
O O3 0.637767 0.137767 0.000000
O O4 0.074604 0.902708 0.000000
O O5 0.969470 0.807914 0.939905
O O6 0.731296 0.883625 0.913008
O O7 0.723751 0.776250 0.000000
O O8 0.223662 0.021777 0.827714
O O9 0.444202 0.944202 0.500000
O O10 0.464822 0.836334 0.413813
O O11 0.500000 0.000000 0.399312
O O12 0.595610 0.572583 0.798927
O O13 0.671388 0.465606 0.718611
O O14 0.560275 0.395861 0.638473
O O15 0.429155 0.288085 0.608974
O O16 0.265026 0.059779 0.500000
O O17 0.363282 0.136719 0.579657
#
# Coordination Sequence:
#
# PCOD8314363 Si02
#       8
#     8   8   8  16   8  16  16  16
#     4  11  22  37  56  80 114 147 178 229 279 334
#     4  11  20  30  52  81 102 128 174 233 284 317
#     4  11  22  37  55  80 112 144 177 224 280 333
#     4  12  22  36  55  78 110 145 180 222 274 331
#     4   7  12  26  49  74 102 139 175 212 262 307
#     4   9  18  35  58  79 102 136 184 236 277 319
#     4   9  19  36  55  77 111 148 180 223 281 336
#     4   9  17  32  54  80 110 143 184 228 268 320
#
# _framework density 17.917337
#
# number of rings (size 3 to 8) (size 9 to 14) (size 15 to 20)
#    0.000    2.167    1.667    5.000    0.000    2.333 
#    3.000    2.500    3.667    0.000    0.000    0.000 
#    0.000    0.000    0.000    0.000    0.000    0.000 
#
# Total GULP energy -1189350.913180 kJ/mol
# GULP energy per Si atom -12389.072012 kJ/mol
# Density = 1.787656 g / cm^3
# Si number density = 17.917337 Si / 1000 Ang^3
#
#
#
# Elastic Constant Matrix: (Units=GPa)
#
#
# Indices 1 2 3 4 5 6 
#
# 1 60.2362 10.2201 34.9914 0.0000 0.0000 0.0000
# 2 10.2201 60.2366 34.9918 0.0000 0.0000 0.0000
# 3 34.9914 34.9918 90.1843 0.0000 0.0000 0.0000
# 4 0.0000 0.0000 0.0000 29.9382 0.0000 0.0000
# 5 0.0000 0.0000 0.0000 0.0000 29.9381 0.0000
# 6 0.0000 0.0000 0.0000 0.0000 0.0000 31.4755
#
#
#
# Elastic Compliance Matrix: (Units=1/GPa)
#
#
# Indices 1 2 3 4 5 6 
#
# 1 0.021543 0.001550 -0.008960 0.000000 0.000000 0.000000
# 2 0.001550 0.021543 -0.008960 0.000000 0.000000 0.000000
# 3 -0.008960 -0.008960 0.018041 0.000000 0.000000 0.000000
# 4 0.000000 0.000000 0.000000 0.033402 0.000000 0.000000
# 5 0.000000 0.000000 0.000000 0.000000 0.033402 0.000000
# 6 0.000000 0.000000 0.000000 0.000000 0.000000 0.031771
#
#
# Mechanical properties :
#
#
# Convention : Reuss Voigt Hill
#
# Bulk Modulus (GPa) = 35.22723 41.22929 38.22826
# Shear Modulus (GPa) = 24.76394 26.96729 25.86561
#
# Velocity S-wave (km/s) = 3.72172 3.88376 3.80361
# Velocity P-wave (km/s) = 6.17835 6.57056 6.37747
#
# Compressibility (1/GPa) = 0.02838713
#
# Stress axis : x y z
#
# Youngs Moduli (GPa) = 46.41814 46.41817 55.42781
#
# Poissons Ratio (x) = -0.07194 0.49664
# Poissons Ratio (y) = -0.07194 0.49664
# Poissons Ratio (z) = 0.41591 0.41592
#
# Static dielectric constant tensor:
#      x y z
#    x 3.357920 0.000000 0.000000 
#    y 0.000000 3.357930 0.000000 
#    z 0.000000 0.000000 3.153310 
# 
# 
# High freq. dielectric constant tensor:
#      x y z
#    x 1.689070 0.000000 0.000000 
#    y 0.000000 1.689070 0.000000 
#    z 0.000000 0.000000 1.676250 
# 
# From -- ./inp_files/5852.got.cif
#   From: 2010.03.12/outbox.cif.g09.slc.cpg/sg127_3_cif.got.tgz:5852.got - 2010.04.06 17:03:15.
