data_PCOD8314302
_publ_section_title
;
Structure prediction by ZEFSAII (Michael W. Deem and Ramdas Pophale) SiO2 
 PCOD8314302
Probable space group: P 4/M B M
;
_chemical_formula_sum "Si O2"
_cell_formula_units_Z 88
_cell_length_a 15.390663
_cell_length_b 15.390663
_cell_length_c 20.558584
_cell_angle_alpha 90.000000
_cell_angle_beta 90.000000
_cell_angle_gamma 90.000000
_cell_volume 4869.763344
_symmetry_space_group_name_H-M "P 4/M B M"
_symmetry_group_IT_number 127
_symmetry_cell_setting 'tetragonal'
loop_
_space_group_symop_operation_xyz
x,y,z
-y,x,z
-x,-y,z
y,-x,z
1/2+x,1/2-y,-z
1/2-x,1/2+y,-z
1/2+y,1/2+x,-z
1/2-y,1/2-x,-z
-x,-y,-z
y,-x,-z
x,y,-z
-y,x,-z
1/2-x,1/2+y,z
1/2+x,1/2-y,z
1/2-y,1/2-x,z
1/2+y,1/2+x,z
loop_
_atom_site_type_symbol
_atom_site_label
_atom_site_fract_x
_atom_site_fract_y
_atom_site_fract_z
Si Si1 0.237323 0.121322 0.620101
Si Si2 0.422089 0.379581 0.500000
Si Si3 0.505373 0.138782 0.678572
Si Si4 0.814971 0.828350 0.760617
Si Si5 0.496591 0.141756 0.927574
Si Si6 0.245207 0.491604 0.802004
O O1 0.312807 0.187194 0.597823
O O2 0.168315 0.112107 0.563587
O O3 0.278717 0.025723 0.635920
O O4 0.188035 0.158583 0.682999
O O5 0.525513 0.381197 0.500000
O O6 0.434366 0.065635 0.669716
O O7 0.509191 0.161947 0.754684
O O8 0.599716 0.099716 0.656599
O O9 0.746391 0.753610 0.781520
O O10 0.795004 0.917817 0.796588
O O11 0.911870 0.805771 0.781813
O O12 0.405683 0.094318 0.910176
O O13 0.517776 0.217077 0.876581
O O14 0.572903 0.072903 0.925473
O O15 0.490929 0.182799 0.000000
#
# Coordination Sequence:
#
# PCOD8314302 Si02
#       6
#    16   8  16  16  16  16
#     4   9  20  39  57  79 110 137 174 233 282 330
#     4  11  25  40  56  77 105 147 188 213 260 337
#     4   9  17  31  55  82 105 135 177 231 294 338
#     4  10  22  36  57  86 111 144 191 234 281 337
#     4   9  17  30  52  82 113 147 188 236 291 342
#     4  11  20  34  53  78 116 149 186 235 277 327
#
# _framework density 18.070695000000001
#
# number of rings (size 3 to 8) (size 9 to 14) (size 15 to 20)
#    0.000    2.273    0.000    5.182    5.091    1.818 
#    0.000    2.273    0.000    5.455    0.000    1.273 
#    0.000    0.000    0.000    0.000    0.000    0.000 
#
# Total GULP energy -1090931.254451 kJ/mol
# GULP energy per Si atom -12396.946073 kJ/mol
# Density = 1.802956 g / cm^3
# Si number density = 18.070695 Si / 1000 Ang^3
#
#
#
# Elastic Constant Matrix: (Units=GPa)
#
#
# Indices 1 2 3 4 5 6 
#
# 1 77.1258 32.2167 47.9134 0.0000 0.0000 0.0000
# 2 32.2167 77.1258 47.9134 0.0000 0.0000 0.0000
# 3 47.9134 47.9134 101.7642 0.0000 0.0000 0.0000
# 4 0.0000 0.0000 0.0000 6677.2982 0.0000 0.0000
# 5 0.0000 0.0000 0.0000 0.0000 6677.2982 0.0000
# 6 0.0000 0.0000 0.0000 0.0000 0.0000 14.5530
#
#
#
# Elastic Compliance Matrix: (Units=1/GPa)
#
#
# Indices 1 2 3 4 5 6 
#
# 1 0.018919 -0.003348 -0.007331 0.000000 0.000000 0.000000
# 2 -0.003348 0.018919 -0.007331 0.000000 0.000000 0.000000
# 3 -0.007331 -0.007331 0.016730 0.000000 0.000000 0.000000
# 4 0.000000 0.000000 0.000000 0.000150 0.000000 0.000000
# 5 0.000000 0.000000 0.000000 0.000000 0.000150 0.000000
# 6 0.000000 0.000000 0.000000 0.000000 0.000000 0.068714
#
#
# Mechanical properties :
#
#
# Convention : Reuss Voigt Hill
#
# Bulk Modulus (GPa) = 53.91776 56.90032 55.40904
# Shear Modulus (GPa) = 30.15968 2682.36134 1356.26051
#
# Velocity S-wave (km/s) = 4.08975 38.56933 27.42553
# Velocity P-wave (km/s) = 7.22519 44.88890 32.14978
#
# Compressibility (1/GPa) = 0.01854676
#
# Stress axis : x y z
#
# Youngs Moduli (GPa) = 52.85750 52.85750 59.77338
#
# Poissons Ratio (x) = 0.17699 0.43820
# Poissons Ratio (y) = 0.17699 0.43820
# Poissons Ratio (z) = 0.38750 0.38750
#
# Static dielectric constant tensor:
#      x y z
#    x 3.411850 0.000000 0.000000 
#    y 0.000000 3.411850 0.000000 
#    z 0.000000 0.000000 3.547620 
# 
# 
# High freq. dielectric constant tensor:
#      x y z
#    x 1.695570 0.000000 0.000000 
#    y 0.000000 1.695570 0.000000 
#    z 0.000000 0.000000 1.688310 
# 
# From -- ./inp_files/5698.got.cif
#   From: 2010.03.12/outbox.cif.g09.slc.cpg/sg127_3_cif.got.tgz:5698.got - 2010.04.06 17:03:15.
