data_PCOD8314394
_publ_section_title
;
Structure prediction by ZEFSAII (Michael W. Deem and Ramdas Pophale) SiO2 
 PCOD8314394
Probable space group: P 4/M B M
;
_chemical_formula_sum "Si O2"
_cell_formula_units_Z 80
_cell_length_a 13.939855
_cell_length_b 13.939855
_cell_length_c 24.933070
_cell_angle_alpha 90.000000
_cell_angle_beta 90.000000
_cell_angle_gamma 90.000000
_cell_volume 4844.983128
_symmetry_space_group_name_H-M "P 4/M B M"
_symmetry_group_IT_number 127
_symmetry_cell_setting 'tetragonal'
loop_
_space_group_symop_operation_xyz
x,y,z
-y,x,z
-x,-y,z
y,-x,z
1/2+x,1/2-y,-z
1/2-x,1/2+y,-z
1/2+y,1/2+x,-z
1/2-y,1/2-x,-z
-x,-y,-z
y,-x,-z
x,y,-z
-y,x,-z
1/2-x,1/2+y,z
1/2+x,1/2-y,z
1/2-y,1/2-x,z
1/2+y,1/2+x,z
loop_
_atom_site_type_symbol
_atom_site_label
_atom_site_fract_x
_atom_site_fract_y
_atom_site_fract_z
Si Si1 0.648218 0.558845 0.172435
Si Si2 0.757825 0.899379 0.666190
Si Si3 0.941424 0.852631 0.943409
Si Si4 0.559425 0.646284 0.439965
Si Si5 0.101780 0.240359 0.719454
O O1 0.552744 0.622264 0.178742
O O2 0.698820 0.579080 0.113881
O O3 0.724536 0.588562 0.217141
O O4 0.666146 0.833855 0.677441
O O5 0.773632 0.908432 0.602367
O O6 0.852841 0.854942 0.693259
O O7 0.736433 0.001590 0.691827
O O8 0.052443 0.878354 0.943801
O O9 0.918627 0.795434 0.000000
O O10 0.448282 0.622543 0.431050
O O11 0.576018 0.686699 0.500000
O O12 0.168793 0.331208 0.709345
#
# Coordination Sequence:
#
# PCOD8314394 Si02
#       5
#    16  16  16  16  16
#     4   9  15  25  45  69  93 126 163 203 251 296
#     4  11  22  35  54  76 100 136 169 199 249 300
#     4   7  10  17  32  59  92 121 152 192 242 297
#     4   9  17  31  54  81 104 128 162 206 249 286
#     4  11  22  34  50  74 101 130 168 213 251 294
#
# _framework density 16.511925999999999
#
# number of rings (size 3 to 8) (size 9 to 14) (size 15 to 20)
#    0.000    2.600    4.000    2.400    0.000    1.200 
#    0.000    0.000    0.000    1.200    0.000    1.400 
#    0.000    0.800    0.000    1.800    0.000    0.000 
#
# Total GULP energy -991120.696730 kJ/mol
# GULP energy per Si atom -12389.008709 kJ/mol
# Density = 1.647434 g / cm^3
# Si number density = 16.511926 Si / 1000 Ang^3
#
#
#
# Elastic Constant Matrix: (Units=GPa)
#
#
# Indices 1 2 3 4 5 6 
#
# 1 56.5645 23.0617 34.2013 0.0000 0.0000 0.0000
# 2 23.0617 56.5645 34.2013 0.0000 0.0000 0.0000
# 3 34.2013 34.2013 159.0463 0.0000 0.0000 0.0000
# 4 0.0000 0.0000 0.0000 15.9639 0.0000 0.0000
# 5 0.0000 0.0000 0.0000 0.0000 15.9639 0.0000
# 6 0.0000 0.0000 0.0000 0.0000 0.0000 9.3629
#
#
#
# Elastic Compliance Matrix: (Units=1/GPa)
#
#
# Indices 1 2 3 4 5 6 
#
# 1 0.022626 -0.007222 -0.003313 0.000000 0.000000 0.000000
# 2 -0.007222 0.022626 -0.003313 0.000000 0.000000 0.000000
# 3 -0.003313 -0.003313 0.007712 0.000000 0.000000 0.000000
# 4 0.000000 0.000000 0.000000 0.062641 0.000000 0.000000
# 5 0.000000 0.000000 0.000000 0.000000 0.062641 0.000000
# 6 0.000000 0.000000 0.000000 0.000000 0.000000 0.106805
#
#
# Mechanical properties :
#
#
# Convention : Reuss Voigt Hill
#
# Bulk Modulus (GPa) = 39.57173 50.56712 45.06943
# Shear Modulus (GPa) = 15.56807 20.30552 17.93680
#
# Velocity S-wave (km/s) = 3.07390 3.51058 3.29947
# Velocity P-wave (km/s) = 6.05112 6.86464 6.47068
#
# Compressibility (1/GPa) = 0.02527056
#
# Stress axis : x y z
#
# Youngs Moduli (GPa) = 44.19640 44.19640 129.66585
#
# Poissons Ratio (x) = 0.31919 0.42952
# Poissons Ratio (y) = 0.31919 0.42952
# Poissons Ratio (z) = 0.14640 0.14640
#
# Static dielectric constant tensor:
#      x y z
#    x 2.692670 0.000000 0.000000 
#    y 0.000000 2.692670 0.000000 
#    z 0.000000 0.000000 3.678390 
# 
# 
# High freq. dielectric constant tensor:
#      x y z
#    x 1.593230 0.000000 0.000000 
#    y 0.000000 1.593230 0.000000 
#    z 0.000000 0.000000 1.668430 
# 
# From -- ./inp_files/5610.got.cif
#   From: 2010.03.12/outbox.cif.g09.slc.cpg/sg127_3_cif.got.tgz:5610.got - 2010.04.06 17:03:15.
