data_PCOD8314401
_publ_section_title
;
Structure prediction by ZEFSAII (Michael W. Deem and Ramdas Pophale) SiO2 
 PCOD8314401
Probable space group: P 4/M B M
;
_chemical_formula_sum "Si O2"
_cell_formula_units_Z 88
_cell_length_a 13.460001
_cell_length_b 13.460001
_cell_length_c 26.606089
_cell_angle_alpha 90.000000
_cell_angle_beta 90.000000
_cell_angle_gamma 90.000000
_cell_volume 4820.268430
_symmetry_space_group_name_H-M "P 4/M B M"
_symmetry_group_IT_number 127
_symmetry_cell_setting 'tetragonal'
loop_
_space_group_symop_operation_xyz
x,y,z
-y,x,z
-x,-y,z
y,-x,z
1/2+x,1/2-y,-z
1/2-x,1/2+y,-z
1/2+y,1/2+x,-z
1/2-y,1/2-x,-z
-x,-y,-z
y,-x,-z
x,y,-z
-y,x,-z
1/2-x,1/2+y,z
1/2+x,1/2-y,z
1/2-y,1/2-x,z
1/2+y,1/2+x,z
loop_
_atom_site_type_symbol
_atom_site_label
_atom_site_fract_x
_atom_site_fract_y
_atom_site_fract_z
Si Si1 0.645824 0.422892 0.891932
Si Si2 0.737051 0.597277 0.736492
Si Si3 0.480765 0.663065 0.366063
Si Si4 0.423497 0.355281 0.000000
Si Si5 0.402069 0.256359 0.789787
Si Si6 0.996225 0.338573 0.557604
O O1 0.631469 0.540597 0.886760
O O2 0.716729 0.384313 0.847984
O O3 0.696804 0.395879 0.946553
O O4 0.829184 0.670817 0.729161
O O5 0.719894 0.533805 0.686246
O O6 0.762603 0.517725 0.779598
O O7 0.638548 0.655909 0.753641
O O8 0.390651 0.586237 0.370436
O O9 0.479183 0.741690 0.410663
O O10 0.540377 0.369035 0.000000
O O11 0.344436 0.155564 0.777805
O O12 0.984589 0.305078 0.500000
O O13 0.087484 0.412517 0.563833
O O14 0.894919 0.394919 0.575205
#
# Coordination Sequence:
#
# PCOD8314401 Si02
#       6
#    16  16  16   8  16  16
#     4   9  15  27  50  75 104 140 178 229 283 330
#     4  11  23  39  58  81 112 147 185 229 280 335
#     4  11  23  38  60  87 116 149 187 234 281 326
#     4   7  12  22  41  74 104 131 174 224 280 333
#     4  11  22  35  55  81 108 145 190 229 275 337
#     4   9  20  40  63  86 116 155 193 229 276 332
#
# _framework density 18.256246000000001
#
# number of rings (size 3 to 8) (size 9 to 14) (size 15 to 20)
#    0.000    2.091    3.636    2.182    0.000    3.636 
#    0.000    3.182    0.000    0.000    0.000    0.636 
#    0.000    1.455    0.000    0.000    0.000    0.000 
#
# Total GULP energy -1090658.254591 kJ/mol
# GULP energy per Si atom -12393.843802 kJ/mol
# Density = 1.821469 g / cm^3
# Si number density = 18.256246 Si / 1000 Ang^3
#
#
#
# Elastic Constant Matrix: (Units=GPa)
#
#
# Indices 1 2 3 4 5 6 
#
# 1 82.0894 30.9574 45.5148 0.0000 0.0000 0.0000
# 2 30.9574 82.0894 45.5148 0.0000 0.0000 0.0000
# 3 45.5148 45.5148 118.1564 0.0000 0.0000 0.0000
# 4 0.0000 0.0000 0.0000 20.2556 0.0000 0.0000
# 5 0.0000 0.0000 0.0000 0.0000 20.2556 0.0000
# 6 0.0000 0.0000 0.0000 0.0000 0.0000 12.7026
#
#
#
# Elastic Compliance Matrix: (Units=1/GPa)
#
#
# Indices 1 2 3 4 5 6 
#
# 1 0.016190 -0.003367 -0.004940 0.000000 0.000000 0.000000
# 2 -0.003367 0.016190 -0.004940 0.000000 0.000000 0.000000
# 3 -0.004940 -0.004940 0.012269 0.000000 0.000000 0.000000
# 4 0.000000 0.000000 0.000000 0.049369 0.000000 0.000000
# 5 0.000000 0.000000 0.000000 0.000000 0.049369 0.000000
# 6 0.000000 0.000000 0.000000 0.000000 0.000000 0.078724
#
#
# Mechanical properties :
#
#
# Convention : Reuss Voigt Hill
#
# Bulk Modulus (GPa) = 55.07463 58.47880 56.77671
# Shear Modulus (GPa) = 19.63425 21.33263 20.48344
#
# Velocity S-wave (km/s) = 3.28301 3.42206 3.35326
# Velocity P-wave (km/s) = 6.67862 6.90766 6.79410
#
# Compressibility (1/GPa) = 0.01815718
#
# Stress axis : x y z
#
# Youngs Moduli (GPa) = 61.76495 61.76495 81.50604
#
# Poissons Ratio (x) = 0.20795 0.40262
# Poissons Ratio (y) = 0.20795 0.40262
# Poissons Ratio (z) = 0.30510 0.30510
#
# Static dielectric constant tensor:
#      x y z
#    x 3.142260 0.000000 0.000000 
#    y 0.000000 3.142260 0.000000 
#    z 0.000000 0.000000 3.640900 
# 
# 
# High freq. dielectric constant tensor:
#      x y z
#    x 1.688510 0.000000 0.000000 
#    y 0.000000 1.688510 0.000000 
#    z 0.000000 0.000000 1.724740 
# 
# From -- ./inp_files/6543.got.cif
#   From: 2010.03.12/outbox.cif.g09.slc.cpg/sg127_4_cif.got.tgz:6543.got - 2010.04.06 17:03:15.
