data_PCOD8314563
_publ_section_title
;
Structure prediction by ZEFSAII (Michael W. Deem and Ramdas Pophale) SiO2 
 PCOD8314563
Probable space group: P 4/M N C
;
_chemical_formula_sum "Si O2"
_cell_formula_units_Z 112
_cell_length_a 15.001062
_cell_length_b 15.001062
_cell_length_c 23.211269
_cell_angle_alpha 90.000000
_cell_angle_beta 90.000000
_cell_angle_gamma 90.000000
_cell_volume 5223.275062
_symmetry_space_group_name_H-M "P 4/M N C"
_symmetry_group_IT_number 128
_symmetry_cell_setting 'tetragonal'
loop_
_space_group_symop_operation_xyz
x,y,z
-y,x,z
-x,-y,z
y,-x,z
1/2+x,1/2-y,1/2-z
1/2-x,1/2+y,1/2-z
1/2+y,1/2+x,1/2-z
1/2-y,1/2-x,1/2-z
-x,-y,-z
y,-x,-z
x,y,-z
-y,x,-z
1/2-x,1/2+y,1/2+z
1/2+x,1/2-y,1/2+z
1/2-y,1/2-x,1/2+z
1/2+y,1/2+x,1/2+z
loop_
_atom_site_type_symbol
_atom_site_label
_atom_site_fract_x
_atom_site_fract_y
_atom_site_fract_z
Si Si1 0.557591 0.628628 0.568598
Si Si2 0.642564 0.172719 0.063849
Si Si3 0.436789 0.917452 0.661733
Si Si4 0.275278 0.185969 0.067267
Si Si5 0.954005 0.234679 0.434963
Si Si6 0.678254 0.968164 0.258826
Si Si7 0.961973 0.139370 0.317880
O O1 0.455971 0.617202 0.590334
O O2 0.557553 0.629752 0.500000
O O3 0.602887 0.719451 0.594520
O O4 0.631957 0.085751 0.102636
O O5 0.719895 0.235438 0.089454
O O6 0.551303 0.226022 0.063550
O O7 0.667045 0.138638 0.000000
O O8 0.477740 0.838374 0.700133
O O9 0.500000 0.000000 0.649400
O O10 0.350955 0.964478 0.690335
O O11 0.380957 0.187803 0.082012
O O12 0.260021 0.179200 0.000000
O O13 0.930055 0.197358 0.500000
O O14 0.949853 0.159779 0.385998
O O15 0.621840 0.878161 0.250000
O O16 0.779215 0.941085 0.274175
O O17 0.062044 0.108098 0.304057
#
# Coordination Sequence:
#
# PCOD8314563 Si02
#       7
#    16  16  16  16  16  16  16
#     4   8  14  28  50  72  99 143 202 262 312 359
#     4  10  19  33  54  86 126 162 203 251 299 364
#     4   9  18  36  62  84 117 157 199 256 308 366
#     4   9  18  32  50  77 116 164 211 251 294 361
#     4  10  20  35  55  82 126 174 210 248 301 367
#     4   9  19  40  64  87 116 157 205 254 313 373
#     4  11  23  39  61  93 129 157 201 264 312 368
#
# _framework density 21.442487
#
# number of rings (size 3 to 8) (size 9 to 14) (size 15 to 20)
#    0.000    2.571    1.429    2.143    0.000    2.000 
#    5.143    0.714    0.000    0.000    0.000    2.000 
#    0.000    0.000    0.000    0.000    0.000    0.000 
#
# Total GULP energy -1387589.835677 kJ/mol
# GULP energy per Si atom -12389.194961 kJ/mol
# Density = 2.139368 g / cm^3
# Si number density = 21.442487 Si / 1000 Ang^3
#
#
#
# Elastic Constant Matrix: (Units=GPa)
#
#
# Indices 1 2 3 4 5 6 
#
# 1 148.8460 -51.6977 14.5811 0.0000 0.0000 0.0000
# 2 -51.6977 148.8464 14.5708 0.0000 0.0000 0.0000
# 3 14.5811 14.5708 62.5035 0.0000 0.0000 0.0000
# 4 0.0000 0.0000 0.0000 16.2059 0.0000 0.0000
# 5 0.0000 0.0000 0.0000 0.0000 16.2060 0.0000
# 6 0.0000 0.0000 0.0000 0.0000 0.0000 21.3627
#
#
#
# Elastic Compliance Matrix: (Units=1/GPa)
#
#
# Indices 1 2 3 4 5 6 
#
# 1 0.008027 0.003041 -0.002582 0.000000 0.000000 0.000000
# 2 0.003041 0.008027 -0.002581 0.000000 0.000000 0.000000
# 3 -0.002582 -0.002581 0.017203 0.000000 0.000000 0.000000
# 4 0.000000 0.000000 0.000000 0.061706 0.000000 0.000000
# 5 0.000000 0.000000 0.000000 0.000000 0.061705 0.000000
# 6 0.000000 0.000000 0.000000 0.000000 0.000000 0.046811
#
#
# Mechanical properties :
#
#
# Convention : Reuss Voigt Hill
#
# Bulk Modulus (GPa) = 34.46534 35.01159 34.73846
# Shear Modulus (GPa) = 22.99974 36.27103 29.63539
#
# Velocity S-wave (km/s) = 3.27865 4.11731 3.72168
# Velocity P-wave (km/s) = 5.51734 6.24232 5.89099
#
# Compressibility (1/GPa) = 0.02901466
#
# Stress axis : x y z
#
# Youngs Moduli (GPa) = 124.57357 124.57800 58.12960
#
# Poissons Ratio (x) = -0.37882 0.15006
# Poissons Ratio (y) = -0.37880 0.15001
# Poissons Ratio (z) = 0.32159 0.32149
#
# Static dielectric constant tensor:
#      x y z
#    x 3.928230 0.000000 0.000000 
#    y 0.000000 3.928230 0.000000 
#    z 0.000000 0.000000 3.749930 
# 
# 
# High freq. dielectric constant tensor:
#      x y z
#    x 1.837990 0.000000 0.000000 
#    y 0.000000 1.837990 0.000000 
#    z 0.000000 0.000000 1.809910 
# 
# From -- ./inp_files/6882.got.cif
#   From: 2010.03.12/outbox.cif.g09.slc.cpg/sg128_4_cif.got.tgz:6882.got - 2010.04.06 17:11:05.
