data_PCOD8314642
_publ_section_title
;
Structure prediction by ZEFSAII (Michael W. Deem and Ramdas Pophale) SiO2 
 PCOD8314642
Probable space group: P 4/M N C
;
_chemical_formula_sum "Si O2"
_cell_formula_units_Z 104
_cell_length_a 16.462182
_cell_length_b 16.462182
_cell_length_c 20.764479
_cell_angle_alpha 90.000000
_cell_angle_beta 90.000000
_cell_angle_gamma 90.000000
_cell_volume 5627.245160
_symmetry_space_group_name_H-M "P 4/M N C"
_symmetry_group_IT_number 128
_symmetry_cell_setting 'tetragonal'
loop_
_space_group_symop_operation_xyz
x,y,z
-y,x,z
-x,-y,z
y,-x,z
1/2+x,1/2-y,1/2-z
1/2-x,1/2+y,1/2-z
1/2+y,1/2+x,1/2-z
1/2-y,1/2-x,1/2-z
-x,-y,-z
y,-x,-z
x,y,-z
-y,x,-z
1/2-x,1/2+y,1/2+z
1/2+x,1/2-y,1/2+z
1/2-y,1/2-x,1/2+z
1/2+y,1/2+x,1/2+z
loop_
_atom_site_type_symbol
_atom_site_label
_atom_site_fract_x
_atom_site_fract_y
_atom_site_fract_z
Si Si1 0.976021 0.133555 0.241585
Si Si2 0.486417 0.631134 0.500000
Si Si3 0.792542 0.086556 0.427154
Si Si4 0.153547 0.296234 0.925359
Si Si5 0.006617 0.757228 0.118581
Si Si6 0.918553 0.200080 0.372185
Si Si7 0.823929 0.296120 0.074723
O O1 0.969200 0.194112 0.181939
O O2 0.960784 0.191667 0.302689
O O3 0.064784 0.093216 0.240309
O O4 0.411130 0.572216 0.500000
O O5 0.478312 0.681275 0.435869
O O6 0.807709 0.115892 0.500000
O O7 0.708146 0.126780 0.403829
O O8 0.868810 0.117854 0.385725
O O9 0.788084 0.990042 0.423758
O O10 0.206782 0.214332 0.915912
O O11 0.075383 0.297673 0.877011
O O12 0.125330 0.303706 0.000000
O O13 0.082709 0.703298 0.096581
O O14 0.859808 0.277531 0.379181
O O15 0.816976 0.322765 0.000000
#
# Coordination Sequence:
#
# PCOD8314642 Si02
#       7
#    16   8  16  16  16  16  16
#     4  11  23  38  55  84 124 158 192 241 295 362
#     4  11  20  30  52  84 109 142 196 240 289 348
#     4  10  20  36  61  88 113 149 197 256 308 354
#     4   9  18  34  55  84 118 149 193 249 297 344
#     4  12  21  35  57  81 119 161 192 236 297 347
#     4  11  21  38  57  83 118 153 193 249 306 354
#     4  10  20  35  58  87 114 148 202 257 291 350
#
# _framework density 18.481513
#
# number of rings (size 3 to 8) (size 9 to 14) (size 15 to 20)
#    0.000    1.462    3.077    5.077    0.000    2.154 
#    0.000    2.308    0.000    2.769    0.000    2.154 
#    0.000    0.000    0.000    0.000    0.000    0.000 
#
# Total GULP energy -1289466.849497 kJ/mol
# GULP energy per Si atom -12398.719707 kJ/mol
# Density = 1.843945 g / cm^3
# Si number density = 18.481513 Si / 1000 Ang^3
#
#
#
# Elastic Constant Matrix: (Units=GPa)
#
#
# Indices 1 2 3 4 5 6 
#
# 1 100.2347 40.3496 22.6862 0.0000 0.0000 0.0000
# 2 40.3496 100.2347 22.6862 0.0000 0.0000 0.0000
# 3 22.6862 22.6862 84.0245 0.0000 0.0000 0.0000
# 4 0.0000 0.0000 0.0000 29.0239 0.0000 0.0000
# 5 0.0000 0.0000 0.0000 0.0000 29.0239 0.0000
# 6 0.0000 0.0000 0.0000 0.0000 0.0000 22.0322
#
#
#
# Elastic Compliance Matrix: (Units=1/GPa)
#
#
# Indices 1 2 3 4 5 6 
#
# 1 0.012245 -0.004453 -0.002104 0.000000 0.000000 0.000000
# 2 -0.004453 0.012245 -0.002104 0.000000 0.000000 0.000000
# 3 -0.002104 -0.002104 0.013037 0.000000 0.000000 0.000000
# 4 0.000000 0.000000 0.000000 0.034454 0.000000 0.000000
# 5 0.000000 0.000000 0.000000 0.000000 0.034454 0.000000
# 6 0.000000 0.000000 0.000000 0.000000 0.000000 0.045388
#
#
# Mechanical properties :
#
#
# Convention : Reuss Voigt Hill
#
# Bulk Modulus (GPa) = 49.48950 50.65974 50.07462
# Shear Modulus (GPa) = 28.42812 29.26748 28.84780
#
# Velocity S-wave (km/s) = 3.92623 3.98377 3.95511
# Velocity P-wave (km/s) = 6.88402 6.97360 6.92896
#
# Compressibility (1/GPa) = 0.02020631
#
# Stress axis : x y z
#
# Youngs Moduli (GPa) = 81.66324 81.66324 76.70277
#
# Poissons Ratio (x) = 0.36367 0.16137
# Poissons Ratio (y) = 0.36367 0.16137
# Poissons Ratio (z) = 0.17181 0.17181
#
# Static dielectric constant tensor:
#      x y z
#    x 3.380540 0.000000 0.000000 
#    y 0.000000 3.380540 0.000000 
#    z 0.000000 0.000000 3.228070 
# 
# 
# High freq. dielectric constant tensor:
#      x y z
#    x 1.712830 0.000000 0.000000 
#    y 0.000000 1.712830 0.000000 
#    z 0.000000 0.000000 1.703650 
# 
# From -- ./inp_files/4888.got.cif
#   From: 2010.03.12/outbox.cif.g09.slc.cpg/sg128_3_cif.got.tgz:4888.got - 2010.04.06 17:11:05.
