data_PCOD8314046
_publ_section_title
;
Structure prediction by ZEFSAII (Michael W. Deem and Ramdas Pophale) SiO2 
 PCOD8314046
Probable space group: P 4/M B M
;
_chemical_formula_sum "Si O2"
_cell_formula_units_Z 96
_cell_length_a 28.343574
_cell_length_b 28.343574
_cell_length_c 9.527604
_cell_angle_alpha 90.000000
_cell_angle_beta 90.000000
_cell_angle_gamma 90.000000
_cell_volume 7654.078677
_symmetry_space_group_name_H-M "P 4/M B M"
_symmetry_group_IT_number 127
_symmetry_cell_setting 'tetragonal'
loop_
_space_group_symop_operation_xyz
x,y,z
-y,x,z
-x,-y,z
y,-x,z
1/2+x,1/2-y,-z
1/2-x,1/2+y,-z
1/2+y,1/2+x,-z
1/2-y,1/2-x,-z
-x,-y,-z
y,-x,-z
x,y,-z
-y,x,-z
1/2-x,1/2+y,z
1/2+x,1/2-y,z
1/2-y,1/2-x,z
1/2+y,1/2+x,z
loop_
_atom_site_type_symbol
_atom_site_label
_atom_site_fract_x
_atom_site_fract_y
_atom_site_fract_z
Si Si1 0.870035 0.449285 0.839590
Si Si2 0.388272 0.191009 0.342679
Si Si3 0.381806 0.959532 0.662756
Si Si4 0.254166 0.325567 0.842136
Si Si5 0.235042 0.185631 0.342463
Si Si6 0.885445 0.693838 0.655597
O O1 0.911594 0.411594 0.829700
O O2 0.822542 0.429698 0.765195
O O3 0.887899 0.495652 0.761374
O O4 0.857467 0.461153 0.000000
O O5 0.409361 0.195635 0.500000
O O6 0.349138 0.150863 0.341785
O O7 0.363714 0.240367 0.296722
O O8 0.382399 0.974925 0.500000
O O9 0.425322 0.925322 0.695684
O O10 0.332373 0.933695 0.699665
O O11 0.214367 0.285634 0.840913
O O12 0.301200 0.307071 0.763666
O O13 0.235049 0.372612 0.765138
O O14 0.268210 0.339366 0.000000
O O15 0.214465 0.181213 0.500000
O O16 0.273544 0.226457 0.339607
O O17 0.890600 0.716082 0.500000
O O18 0.844359 0.655642 0.651569
#
# Coordination Sequence:
#
# PCOD8314046 Si02
#       6
#    16  16  16  16  16  16
#     4  10  20  30  39  52  68  84 102 131 175 219
#     4   8  14  25  39  51  63  82 107 131 155 188
#     4   9  18  31  44  54  62  78 107 140 173 209
#     4   9  15  20  29  48  70  88 103 119 144 181
#     4   8  13  21  33  48  65  85 106 125 146 175
#     4   8  14  25  38  49  62  80 102 128 157 190
#
# _framework density 12.542332
#
# number of rings (size 3 to 8) (size 9 to 14) (size 15 to 20)
#    0.000    3.333    0.000    3.000    0.000    5.000 
#    0.000    6.667    0.000    0.000    0.000    0.000 
#    0.000    0.000    0.000    0.000    0.000    0.000 
#
# Total GULP energy -1189732.013314 kJ/mol
# GULP energy per Si atom -12393.041805 kJ/mol
# Density = 1.251379 g / cm^3
# Si number density = 12.542332 Si / 1000 Ang^3
#
#
#
# Elastic Constant Matrix: (Units=GPa)
#
#
# Indices 1 2 3 4 5 6 
#
# 1 26.5267 26.0437 33.1626 0.0000 0.0000 0.0000
# 2 26.0437 26.5267 33.1626 0.0000 0.0000 0.0000
# 3 33.1626 33.1626 93.6291 0.0000 0.0000 0.0000
# 4 0.0000 0.0000 0.0000 14.5609 0.0000 0.0000
# 5 0.0000 0.0000 0.0000 0.0000 14.5609 0.0000
# 6 0.0000 0.0000 0.0000 0.0000 0.0000 10.3425
#
#
#
# Elastic Compliance Matrix: (Units=1/GPa)
#
#
# Indices 1 2 3 4 5 6 
#
# 1 1.052440 -1.018051 -0.012180 0.000000 0.000000 0.000000
# 2 -1.018051 1.052440 -0.012180 0.000000 0.000000 0.000000
# 3 -0.012180 -0.012180 0.019309 0.000000 0.000000 0.000000
# 4 0.000000 0.000000 0.000000 0.068677 0.000000 0.000000
# 5 0.000000 0.000000 0.000000 0.000000 0.068677 0.000000
# 6 0.000000 0.000000 0.000000 0.000000 0.000000 0.096688
#
#
# Mechanical properties :
#
#
# Convention : Reuss Voigt Hill
#
# Bulk Modulus (GPa) = 25.40263 36.82447 31.11355
# Shear Modulus (GPa) = 1.12204 11.51379 6.31791
#
# Velocity S-wave (km/s) = 0.94686 3.03313 2.24682
# Velocity P-wave (km/s) = 4.63604 6.45681 5.62064
#
# Compressibility (1/GPa) = 0.03936601
#
# Stress axis : x y z
#
# Youngs Moduli (GPa) = 0.95017 0.95017 51.78977
#
# Poissons Ratio (x) = 0.96732 0.63082
# Poissons Ratio (y) = 0.96732 0.63082
# Poissons Ratio (z) = 0.01157 0.01157
#
# Static dielectric constant tensor:
#      x y z
#    x 2.397460 0.000000 0.000000 
#    y 0.000000 2.397460 0.000000 
#    z 0.000000 0.000000 2.760470 
# 
# 
# High freq. dielectric constant tensor:
#      x y z
#    x 1.437440 0.000000 0.000000 
#    y 0.000000 1.437440 0.000000 
#    z 0.000000 0.000000 1.487100 
# 
# From -- ./inp_files/2194.got.cif
#   From: 2010.03.12/outbox.cif.g09.slc.cpg/sg127_2_cif.got.tgz:2194.got - 2010.04.06 17:03:15.
