data_PCOD8314497
_publ_section_title
;
Structure prediction by ZEFSAII (Michael W. Deem and Ramdas Pophale) SiO2 
 PCOD8314497
Probable space group: P 4/M N C
;
_chemical_formula_sum "Si O2"
_cell_formula_units_Z 96
_cell_length_a 19.895564
_cell_length_b 19.895564
_cell_length_c 16.485634
_cell_angle_alpha 90.000000
_cell_angle_beta 90.000000
_cell_angle_gamma 90.000000
_cell_volume 6525.565660
_symmetry_space_group_name_H-M "P 4/M N C"
_symmetry_group_IT_number 128
_symmetry_cell_setting 'tetragonal'
loop_
_space_group_symop_operation_xyz
x,y,z
-y,x,z
-x,-y,z
y,-x,z
1/2+x,1/2-y,1/2-z
1/2-x,1/2+y,1/2-z
1/2+y,1/2+x,1/2-z
1/2-y,1/2-x,1/2-z
-x,-y,-z
y,-x,-z
x,y,-z
-y,x,-z
1/2-x,1/2+y,1/2+z
1/2+x,1/2-y,1/2+z
1/2-y,1/2-x,1/2+z
1/2+y,1/2+x,1/2+z
loop_
_atom_site_type_symbol
_atom_site_label
_atom_site_fract_x
_atom_site_fract_y
_atom_site_fract_z
Si Si1 0.629989 0.818730 0.408466
Si Si2 0.675094 0.011204 0.845821
Si Si3 0.639717 0.943235 0.693642
Si Si4 0.896859 0.170977 0.096367
Si Si5 0.689021 0.547484 0.403733
Si Si6 0.044352 0.434322 0.590528
O O1 0.657935 0.827545 0.500000
O O2 0.549776 0.833383 0.410323
O O3 0.665939 0.873380 0.348582
O O4 0.638401 0.741595 0.376357
O O5 0.736252 0.059594 0.870028
O O6 0.608135 0.056372 0.850231
O O7 0.690908 0.978240 0.756987
O O8 0.574539 0.925462 0.750000
O O9 0.624749 0.997611 0.624833
O O10 0.857441 0.106863 0.132585
O O11 0.973979 0.164718 0.126592
O O12 0.896431 0.170075 0.000000
O O13 0.688892 0.551674 0.500000
O O14 0.068246 0.414176 0.500000
O O15 0.000000 0.500000 0.587572
#
# Coordination Sequence:
#
# PCOD8314497 Si02
#       6
#    16  16  16  16  16  16
#     4   9  15  25  38  56  77 102 131 162 193 233
#     4  10  18  25  37  54  78 105 134 169 204 235
#     4  10  18  24  36  53  77 103 132 168 197 229
#     4   8  15  25  41  60  81 104 132 165 203 244
#     4   9  16  28  42  60  81 106 135 170 209 252
#     4  11  18  24  36  54  75 102 133 167 202 236
#
# _framework density 14.711368
#
# number of rings (size 3 to 8) (size 9 to 14) (size 15 to 20)
#    0.000    2.500    3.333    3.500    0.000    0.333 
#    0.000    1.667    0.000   10.000    0.000    0.000 
#    0.000    0.000    0.000    0.000    0.000    0.000 
#
# Total GULP energy -1189279.972446 kJ/mol
# GULP energy per Si atom -12388.333046 kJ/mol
# Density = 1.467788 g / cm^3
# Si number density = 14.711368 Si / 1000 Ang^3
#
#
#
# Elastic Constant Matrix: (Units=GPa)
#
#
# Indices 1 2 3 4 5 6 
#
# 1 69.2989 37.5352 22.7160 0.0000 0.0000 0.0000
# 2 37.5352 69.2987 22.7160 0.0000 0.0000 0.0000
# 3 22.7160 22.7160 58.6110 0.0000 0.0000 0.0000
# 4 0.0000 0.0000 0.0000 12.0134 0.0000 0.0000
# 5 0.0000 0.0000 0.0000 0.0000 12.0135 0.0000
# 6 0.0000 0.0000 0.0000 0.0000 0.0000 11.9489
#
#
#
# Elastic Compliance Matrix: (Units=1/GPa)
#
#
# Indices 1 2 3 4 5 6 
#
# 1 0.021345 -0.010138 -0.004344 0.000000 0.000000 0.000000
# 2 -0.010138 0.021345 -0.004344 0.000000 0.000000 0.000000
# 3 -0.004344 -0.004344 0.020429 0.000000 0.000000 0.000000
# 4 0.000000 0.000000 0.000000 0.083240 0.000000 0.000000
# 5 0.000000 0.000000 0.000000 0.000000 0.083240 0.000000
# 6 0.000000 0.000000 0.000000 0.000000 0.000000 0.083689
#
#
# Mechanical properties :
#
#
# Convention : Reuss Voigt Hill
#
# Bulk Modulus (GPa) = 39.26371 40.34920 39.80645
# Shear Modulus (GPa) = 13.91100 14.81126 14.36113
#
# Velocity S-wave (km/s) = 3.07839 3.17644 3.12780
# Velocity P-wave (km/s) = 6.27556 6.39842 6.33729
#
# Compressibility (1/GPa) = 0.02546881
#
# Stress axis : x y z
#
# Youngs Moduli (GPa) = 46.84938 46.84926 48.95082
#
# Poissons Ratio (x) = 0.47493 0.21263
# Poissons Ratio (y) = 0.47494 0.21263
# Poissons Ratio (z) = 0.20350 0.20350
#
# Static dielectric constant tensor:
#      x y z
#    x 2.838190 0.000000 0.000000 
#    y 0.000000 2.838190 0.000000 
#    z 0.000000 0.000000 2.872960 
# 
# 
# High freq. dielectric constant tensor:
#      x y z
#    x 1.533240 0.000000 0.000000 
#    y 0.000000 1.533240 0.000000 
#    z 0.000000 0.000000 1.544070 
# 
# From -- ./inp_files/4977.got.cif
#   From: 2010.03.12/outbox.cif.g09.slc.cpg/sg128_3_cif.got.tgz:4977.got - 2010.04.06 17:11:05.
