data_PCOD8314371
_publ_section_title
;
Structure prediction by ZEFSAII (Michael W. Deem and Ramdas Pophale) SiO2 
 PCOD8314371
Probable space group: P 4/M B M
;
_chemical_formula_sum "Si O2"
_cell_formula_units_Z 72
_cell_length_a 22.713312
_cell_length_b 22.713312
_cell_length_c 9.278137
_cell_angle_alpha 90.000000
_cell_angle_beta 90.000000
_cell_angle_gamma 90.000000
_cell_volume 4786.540238
_symmetry_space_group_name_H-M "P 4/M B M"
_symmetry_group_IT_number 127
_symmetry_cell_setting 'tetragonal'
loop_
_space_group_symop_operation_xyz
x,y,z
-y,x,z
-x,-y,z
y,-x,z
1/2+x,1/2-y,-z
1/2-x,1/2+y,-z
1/2+y,1/2+x,-z
1/2-y,1/2-x,-z
-x,-y,-z
y,-x,-z
x,y,-z
-y,x,-z
1/2-x,1/2+y,z
1/2+x,1/2-y,z
1/2-y,1/2-x,z
1/2+y,1/2+x,z
loop_
_atom_site_type_symbol
_atom_site_label
_atom_site_fract_x
_atom_site_fract_y
_atom_site_fract_z
Si Si1 0.512857 0.834118 0.170025
Si Si2 0.199142 0.398199 0.668144
Si Si3 0.632115 0.773400 0.166600
Si Si4 0.292770 0.306204 0.659582
Si Si5 0.549327 0.950674 0.665515
O O1 0.453906 0.804563 0.228301
O O2 0.564705 0.787718 0.202695
O O3 0.524477 0.894152 0.253578
O O4 0.508206 0.847696 0.000000
O O5 0.200107 0.416666 0.500000
O O6 0.143411 0.356590 0.697742
O O7 0.260001 0.365516 0.711964
O O8 0.671159 0.828842 0.219960
O O9 0.651993 0.712604 0.242378
O O10 0.642269 0.762475 0.000000
O O11 0.317936 0.315931 0.500000
O O12 0.244896 0.255105 0.660292
O O13 0.565166 0.934835 0.500000
O O14 0.500000 0.000000 0.670224
#
# Coordination Sequence:
#
# PCOD8314371 Si02
#       5
#    16  16  16  16   8
#     4  11  21  32  45  64  90 118 152 189 224 264
#     4   9  18  32  46  63  89 117 148 187 224 261
#     4   9  17  30  44  61  87 113 141 183 225 261
#     4   8  15  28  46  65  83 107 142 182 223 267
#     4  11  23  35  45  59  83 121 163 197 227 258
#
# _framework density 15.04218
#
# number of rings (size 3 to 8) (size 9 to 14) (size 15 to 20)
#    0.000    2.556    1.111    3.000    0.000    6.667 
#    0.000    2.222    0.000    0.000    0.000    0.000 
#    0.000    0.889    0.000    9.778    0.000    7.111 
#
# Total GULP energy -892539.103064 kJ/mol
# GULP energy per Si atom -12396.376431 kJ/mol
# Density = 1.500794 g / cm^3
# Si number density = 15.042180 Si / 1000 Ang^3
#
#
#
# Elastic Constant Matrix: (Units=GPa)
#
#
# Indices 1 2 3 4 5 6 
#
# 1 68.4639 69.9854 57.3601 0.0000 0.0000 0.0000
# 2 69.9854 68.4647 57.3603 0.0000 0.0000 0.0000
# 3 57.3601 57.3603 88.2150 0.0000 0.0000 0.0000
# 4 0.0000 0.0000 0.0000 25.3522 0.0000 0.0000
# 5 0.0000 0.0000 0.0000 0.0000 25.3525 0.0000
# 6 0.0000 0.0000 0.0000 0.0000 0.0000 24.5630
#
#
#
# Elastic Compliance Matrix: (Units=1/GPa)
#
#
# Indices 1 2 3 4 5 6 
#
# 1 -0.320885 0.336542 -0.010181 0.000000 0.000000 0.000000
# 2 0.336542 -0.320878 -0.010184 0.000000 0.000000 0.000000
# 3 -0.010181 -0.010184 0.024579 0.000000 0.000000 0.000000
# 4 0.000000 0.000000 0.000000 0.039444 0.000000 0.000000
# 5 0.000000 0.000000 0.000000 0.000000 0.039444 0.000000
# 6 0.000000 0.000000 0.000000 0.000000 0.000000 0.040712
#
#
# Mechanical properties :
#
#
# Convention : Reuss Voigt Hill
#
# Bulk Modulus (GPa) = 65.92964 66.06170 65.99567
# Shear Modulus (GPa) = -4.44492 17.74940 6.65224
#
# Velocity S-wave (km/s) = -1.72087 3.43880 2.10523
# Velocity P-wave (km/s) = 6.32270 7.73176 7.06246
#
# Compressibility (1/GPa) = 0.01516769
#
# Stress axis : x y z
#
# Youngs Moduli (GPa) = -3.11638 -3.11645 40.68588
#
# Poissons Ratio (x) = 1.04882 0.41424
# Poissons Ratio (y) = 1.04879 0.41436
# Poissons Ratio (z) = -0.03173 -0.03174
#
# Static dielectric constant tensor:
#      x y z
#    x 2.835160 0.000000 0.000000 
#    y 0.000000 2.835170 0.000000 
#    z 0.000000 0.000000 3.045350 
# 
# 
# High freq. dielectric constant tensor:
#      x y z
#    x 1.555430 0.000000 0.000000 
#    y 0.000000 1.555430 0.000000 
#    z 0.000000 0.000000 1.584570 
# 
# From -- ./inp_files/1725.got.cif
#   From: 2010.03.12/outbox.cif.g09.slc.cpg/sg127_1_cif.got.tgz:1725.got - 2010.04.06 17:03:15.
