data_PCOD8314962
_publ_section_title
;
Structure prediction by ZEFSAII (Michael W. Deem and Ramdas Pophale) SiO2 
 PCOD8314962
Probable space group: P 4/N M M
;
_chemical_formula_sum "Si O2"
_cell_formula_units_Z 96
_cell_length_a 18.689088
_cell_length_b 18.689088
_cell_length_c 16.127544
_cell_angle_alpha 90.000000
_cell_angle_beta 90.000000
_cell_angle_gamma 90.000000
_cell_volume 5633.060989
_symmetry_space_group_name_H-M "P 4/N M M"
_symmetry_group_IT_number 129
_symmetry_cell_setting 'tetragonal'
loop_
_space_group_symop_operation_xyz
x,y,z
1/2-y,x,z
1/2-x,1/2-y,z
y,1/2-x,z
1/2+x,-y,-z
-x,1/2+y,-z
1/2+y,1/2+x,-z
-y,-x,-z
-x,-y,-z
1/2+y,-x,-z
1/2+x,1/2+y,-z
-y,1/2+x,-z
1/2-x,y,z
x,1/2-y,z
1/2-y,1/2-x,z
y,x,z
loop_
_atom_site_type_symbol
_atom_site_label
_atom_site_fract_x
_atom_site_fract_y
_atom_site_fract_z
Si Si1 0.546159 0.668227 0.838362
Si Si2 0.621705 0.079071 0.413772
Si Si3 0.108690 0.665348 0.917362
Si Si4 0.055433 0.172768 0.515350
Si Si5 0.165567 0.750000 0.183062
Si Si6 0.871723 0.511508 0.658001
Si Si7 0.333938 0.750000 0.368225
O O1 0.569088 0.750000 0.864446
O O2 0.609754 0.609754 0.859424
O O3 0.470345 0.646731 0.880950
O O4 0.531556 0.671845 0.740128
O O5 0.578063 0.078063 0.500000
O O6 0.569392 0.097375 0.337021
O O7 0.681497 0.139515 0.417553
O O8 0.655041 0.999878 0.410048
O O9 0.114391 0.750000 0.936297
O O10 0.175526 0.640939 0.859698
O O11 0.118636 0.618636 0.000000
O O12 0.087628 0.250000 0.534617
O O13 0.120082 0.120082 0.517490
O O14 0.018672 0.176819 0.424078
O O15 0.250000 0.750000 0.187944
O O16 0.133126 0.750000 0.275436
O O17 0.940078 0.559923 0.647792
O O18 0.250000 0.750000 0.367608
#
# Coordination Sequence:
#
# PCOD8314962 Si02
#       7
#    16  16  16  16   8  16   8
#     4  10  21  35  52  76 105 137 172 209 252 298
#     4  10  20  31  46  64  96 131 166 206 253 303
#     4  10  18  31  53  77 104 135 166 202 246 301
#     4  10  19  32  49  69  92 127 173 216 260 302
#     4   9  18  30  48  76 102 133 167 204 247 300
#     4   9  18  33  51  68  92 128 167 208 253 305
#     4  11  22  30  42  66  99 133 167 204 244 296
#
# _framework density 17.042244
#
# number of rings (size 3 to 8) (size 9 to 14) (size 15 to 20)
#    0.000    2.167    1.667    2.000    1.167    5.333 
#    0.000    0.000    0.000    3.000    0.000    0.000 
#    0.000    0.000    0.000    1.500    0.000    0.000 
#
# Total GULP energy -1189379.562939 kJ/mol
# GULP energy per Si atom -12389.370447 kJ/mol
# Density = 1.700346 g / cm^3
# Si number density = 17.042244 Si / 1000 Ang^3
#
#
#
# Elastic Constant Matrix: (Units=GPa)
#
#
# Indices 1 2 3 4 5 6 
#
# 1 99.5021 52.2219 25.8586 0.0000 0.0000 0.0000
# 2 52.2219 99.5021 25.8586 0.0000 0.0000 0.0000
# 3 25.8586 25.8586 30.6395 0.0000 0.0000 0.0000
# 4 0.0000 0.0000 0.0000 18.9572 0.0000 0.0000
# 5 0.0000 0.0000 0.0000 0.0000 18.9572 0.0000
# 6 0.0000 0.0000 0.0000 0.0000 0.0000 -1.9692
#
#
#
# Elastic Compliance Matrix: (Units=1/GPa)
#
#
# Indices 1 2 3 4 5 6 
#
# 1 0.015202 -0.005949 -0.007809 0.000000 0.000000 0.000000
# 2 -0.005949 0.015202 -0.007809 0.000000 0.000000 0.000000
# 3 -0.007809 -0.007809 0.045818 0.000000 0.000000 0.000000
# 4 0.000000 0.000000 0.000000 0.052750 0.000000 0.000000
# 5 0.000000 0.000000 0.000000 0.000000 0.052750 0.000000
# 6 0.000000 0.000000 0.000000 0.000000 0.000000 -0.507812
#
#
# Mechanical properties :
#
#
# Convention : Reuss Voigt Hill
#
# Bulk Modulus (GPa) = 30.22231 48.61353 39.41792
# Shear Modulus (GPa) = -18.38727 15.56935 -1.40896
#
# Velocity S-wave (km/s) = -3.28826 3.02582 -0.91024
# Velocity P-wave (km/s) = 1.83177 6.38707 4.69841
#
# Compressibility (1/GPa) = 0.03308814
#
# Stress axis : x y z
#
# Youngs Moduli (GPa) = 65.78257 65.78257 21.82529
#
# Poissons Ratio (x) = 0.39133 0.17043
# Poissons Ratio (y) = 0.39133 0.17043
# Poissons Ratio (z) = 0.51369 0.51369
#
# Static dielectric constant tensor:
#      x y z
#    x 3.161410 0.000000 0.000000 
#    y 0.000000 3.161410 0.000000 
#    z 0.000000 0.000000 3.192460 
# 
# 
# High freq. dielectric constant tensor:
#      x y z
#    x 1.653740 0.000000 0.000000 
#    y 0.000000 1.653740 0.000000 
#    z 0.000000 0.000000 1.630410 
# 
# From -- ./inp_files/5730.got.cif
#   From: 2010.03.12/outbox.cif.g09.slc.cpg/sg129_3_cif.got.tgz:5730.got - 2010.04.06 17:19:44.
