data_PCOD8314047
_publ_section_title
;
Structure prediction by ZEFSAII (Michael W. Deem and Ramdas Pophale) SiO2 
 PCOD8314047
Probable space group: P 4/M B M
;
_chemical_formula_sum "Si O2"
_cell_formula_units_Z 112
_cell_length_a 19.957029
_cell_length_b 19.957029
_cell_length_c 16.801155
_cell_angle_alpha 90.000000
_cell_angle_beta 90.000000
_cell_angle_gamma 90.000000
_cell_volume 6691.614526
_symmetry_space_group_name_H-M "P 4/M B M"
_symmetry_group_IT_number 127
_symmetry_cell_setting 'tetragonal'
loop_
_space_group_symop_operation_xyz
x,y,z
-y,x,z
-x,-y,z
y,-x,z
1/2+x,1/2-y,-z
1/2-x,1/2+y,-z
1/2+y,1/2+x,-z
1/2-y,1/2-x,-z
-x,-y,-z
y,-x,-z
x,y,-z
-y,x,-z
1/2-x,1/2+y,z
1/2+x,1/2-y,z
1/2-y,1/2-x,z
1/2+y,1/2+x,z
loop_
_atom_site_type_symbol
_atom_site_label
_atom_site_fract_x
_atom_site_fract_y
_atom_site_fract_z
Si Si1 0.677080 0.289566 0.769567
Si Si2 0.750961 0.505540 0.590766
Si Si3 0.852286 0.239643 0.088238
Si Si4 0.017987 0.103231 0.594560
Si Si5 0.829887 0.435318 0.188502
Si Si6 0.867662 0.262460 0.339868
Si Si7 0.816391 0.571460 0.265946
O O1 0.735696 0.235696 0.774276
O O2 0.679258 0.333964 0.850682
O O3 0.692485 0.335526 0.691724
O O4 0.605920 0.252854 0.761796
O O5 0.765100 0.527475 0.500000
O O6 0.678838 0.530919 0.623363
O O7 0.750096 0.424447 0.594135
O O8 0.807070 0.538815 0.646661
O O9 0.791751 0.291751 0.087358
O O10 0.919234 0.279521 0.115606
O O11 0.864387 0.209592 0.000000
O O12 0.014951 0.102798 0.500000
O O13 0.945849 0.076325 0.626414
O O14 0.903704 0.403704 0.172514
O O15 0.798895 0.400921 0.265464
O O16 0.835663 0.515068 0.201148
O O17 0.810119 0.310119 0.377414
O O18 0.876526 0.623475 0.272081
#
# Coordination Sequence:
#
# PCOD8314047 Si02
#       7
#    16  16  16  16  16  16  16
#     4   8  15  28  45  66  93 121 149 185 234 289
#     4  10  20  30  45  66  86 117 157 202 247 286
#     4   8  13  25  49  75  94 115 148 191 233 273
#     4   8  15  28  43  59  82 108 136 178 234 293
#     4   8  15  29  47  66  89 122 161 192 222 268
#     4   8  15  29  46  62  83 114 150 191 238 285
#     4  10  20  32  45  64  94 130 164 197 235 284
#
# _framework density 16.737366999999999
#
# number of rings (size 3 to 8) (size 9 to 14) (size 15 to 20)
#    0.000    3.429    0.000    2.143    2.000    0.857 
#    0.000    0.714    0.000    3.857    0.000    6.000 
#    0.000    0.000    0.000    6.714    0.000    1.143 
#
# Total GULP energy -1387765.275375 kJ/mol
# GULP energy per Si atom -12390.761387 kJ/mol
# Density = 1.669927 g / cm^3
# Si number density = 16.737367 Si / 1000 Ang^3
#
#
#
# Elastic Constant Matrix: (Units=GPa)
#
#
# Indices 1 2 3 4 5 6 
#
# 1 79.0136 33.4813 26.5422 0.0000 0.0000 0.0000
# 2 33.4813 79.0136 26.5422 0.0000 0.0000 0.0000
# 3 26.5422 26.5422 65.7071 0.0000 0.0000 0.0000
# 4 0.0000 0.0000 0.0000 15.4900 0.0000 0.0000
# 5 0.0000 0.0000 0.0000 0.0000 15.4900 0.0000
# 6 0.0000 0.0000 0.0000 0.0000 0.0000 21.3244
#
#
#
# Elastic Compliance Matrix: (Units=1/GPa)
#
#
# Indices 1 2 3 4 5 6 
#
# 1 0.016473 -0.005490 -0.004436 0.000000 0.000000 0.000000
# 2 -0.005490 0.016473 -0.004436 0.000000 0.000000 0.000000
# 3 -0.004436 -0.004436 0.018803 0.000000 0.000000 0.000000
# 4 0.000000 0.000000 0.000000 0.064558 0.000000 0.000000
# 5 0.000000 0.000000 0.000000 0.000000 0.064558 0.000000
# 6 0.000000 0.000000 0.000000 0.000000 0.000000 0.046895
#
#
# Mechanical properties :
#
#
# Convention : Reuss Voigt Hill
#
# Bulk Modulus (GPa) = 43.43492 44.09620 43.76556
# Shear Modulus (GPa) = 18.92801 19.60543 19.26672
#
# Velocity S-wave (km/s) = 3.36651 3.42622 3.39650
# Velocity P-wave (km/s) = 6.41236 6.48499 6.44878
#
# Compressibility (1/GPa) = 0.02302295
#
# Stress axis : x y z
#
# Youngs Moduli (GPa) = 60.70681 60.70681 53.18224
#
# Poissons Ratio (x) = 0.33327 0.23594
# Poissons Ratio (y) = 0.33327 0.23594
# Poissons Ratio (z) = 0.26932 0.26932
#
# Static dielectric constant tensor:
#      x y z
#    x 3.233550 0.000000 0.000000 
#    y 0.000000 3.233550 0.000000 
#    z 0.000000 0.000000 3.053030 
# 
# 
# High freq. dielectric constant tensor:
#      x y z
#    x 1.631320 0.000000 0.000000 
#    y 0.000000 1.631320 0.000000 
#    z 0.000000 0.000000 1.615590 
# 
# From -- ./inp_files/5356.got.cif
#   From: 2010.03.12/outbox.cif.g09.slc.cpg/sg127_3_cif.got.tgz:5356.got - 2010.04.06 17:03:15.
