data_PCOD8314992
_publ_section_title
;
Structure prediction by ZEFSAII (Michael W. Deem and Ramdas Pophale) SiO2 
 PCOD8314992
Probable space group: P 4/N M M
;
_chemical_formula_sum "Si O2"
_cell_formula_units_Z 120
_cell_length_a 14.093851
_cell_length_b 14.093851
_cell_length_c 37.804161
_cell_angle_alpha 90.000000
_cell_angle_beta 90.000000
_cell_angle_gamma 90.000000
_cell_volume 7509.291368
_symmetry_space_group_name_H-M "P 4/N M M"
_symmetry_group_IT_number 129
_symmetry_cell_setting 'tetragonal'
loop_
_space_group_symop_operation_xyz
x,y,z
1/2-y,x,z
1/2-x,1/2-y,z
y,1/2-x,z
1/2+x,-y,-z
-x,1/2+y,-z
1/2+y,1/2+x,-z
-y,-x,-z
-x,-y,-z
1/2+y,-x,-z
1/2+x,1/2+y,-z
-y,1/2+x,-z
1/2-x,y,z
x,1/2-y,z
1/2-y,1/2-x,z
y,x,z
loop_
_atom_site_type_symbol
_atom_site_label
_atom_site_fract_x
_atom_site_fract_y
_atom_site_fract_z
Si Si1 0.139849 0.860152 0.500000
Si Si2 0.641349 0.487910 0.896097
Si Si3 0.642769 0.136720 0.424129
Si Si4 0.359926 0.985596 0.850802
Si Si5 0.984622 0.137771 0.359330
Si Si6 0.488185 0.858469 0.978376
Si Si7 0.141560 0.859913 0.706920
Si Si8 0.009963 0.642020 0.229542
O O1 0.250000 0.881300 0.503074
O O2 0.101018 0.900895 0.462343
O O3 0.750000 0.504990 0.884885
O O4 0.583501 0.583501 0.886754
O O5 0.599460 0.398669 0.874927
O O6 0.632675 0.462834 0.937250
O O7 0.750000 0.098009 0.417708
O O8 0.647134 0.250000 0.424293
O O9 0.574075 0.100984 0.393241
O O10 0.250000 0.004443 0.859827
O O11 0.417117 0.082884 0.858447
O O12 0.374062 0.952459 0.810267
O O13 0.003483 0.250000 0.360611
O O14 0.924732 0.107118 0.325101
O O15 0.085818 0.085818 0.358507
O O16 0.505885 0.750000 0.989558
O O17 0.583615 0.916386 0.987725
O O18 0.399298 0.899298 0.000000
O O19 0.250000 0.884390 0.696747
O O20 0.128845 0.750000 0.714433
O O21 0.108929 0.909784 0.743085
O O22 0.981401 0.750000 0.235858
O O23 0.915153 0.584848 0.237172
#
# Coordination Sequence:
#
# PCOD8314992 Si02
#       8
#     8  16  16  16  16  16  16  16
#     4   7  10  18  35  58  80 100 121 151 198 248
#     4   9  18  32  49  69  92 118 149 186 227 268
#     4   8  13  23  40  60  80 101 126 160 203 244
#     4   9  18  31  46  66  92 121 152 183 215 254
#     4  10  19  29  41  57  79 108 139 168 198 235
#     4   9  18  32  49  69  93 120 150 185 224 266
#     4   9  17  29  45  64  83 103 131 170 214 253
#     4   9  17  29  45  65  89 115 141 170 205 248
#
# _framework density 15.980204000000001
#
# number of rings (size 3 to 8) (size 9 to 14) (size 15 to 20)
#    0.000    3.133    0.000    1.600    0.000    3.733 
#    0.000    5.667    0.000    0.000    0.000    3.733 
#    0.000    5.600    0.000    0.000    0.000    2.667 
#
# Total GULP energy -1487295.312597 kJ/mol
# GULP energy per Si atom -12394.127605 kJ/mol
# Density = 1.594383 g / cm^3
# Si number density = 15.980204 Si / 1000 Ang^3
#
#
#
# Elastic Constant Matrix: (Units=GPa)
#
#
# Indices 1 2 3 4 5 6 
#
# 1 82.5792 45.1343 52.2822 0.0000 0.0000 0.0000
# 2 45.1343 82.5788 52.2822 0.0000 0.0000 0.0000
# 3 52.2822 52.2822 87.3778 0.0000 0.0000 0.0000
# 4 0.0000 0.0000 0.0000 17.4799 0.0000 0.0000
# 5 0.0000 0.0000 0.0000 0.0000 17.4800 0.0000
# 6 0.0000 0.0000 0.0000 0.0000 0.0000 18.9109
#
#
#
# Elastic Compliance Matrix: (Units=1/GPa)
#
#
# Indices 1 2 3 4 5 6 
#
# 1 0.021028 -0.005678 -0.009184 0.000000 0.000000 0.000000
# 2 -0.005678 0.021028 -0.009185 0.000000 0.000000 0.000000
# 3 -0.009184 -0.009185 0.022436 0.000000 0.000000 0.000000
# 4 0.000000 0.000000 0.000000 0.057209 0.000000 0.000000
# 5 0.000000 0.000000 0.000000 0.000000 0.057208 0.000000
# 6 0.000000 0.000000 0.000000 0.000000 0.000000 0.052879
#
#
# Mechanical properties :
#
#
# Convention : Reuss Voigt Hill
#
# Bulk Modulus (GPa) = 60.98611 61.32589 61.15600
# Shear Modulus (GPa) = 17.52249 17.62997 17.57623
#
# Velocity S-wave (km/s) = 3.31495 3.32511 3.32003
# Velocity P-wave (km/s) = 7.27312 7.29392 7.28353
#
# Compressibility (1/GPa) = 0.01639718
#
# Stress axis : x y z
#
# Youngs Moduli (GPa) = 47.55602 47.55570 44.57213
#
# Poissons Ratio (x) = 0.27003 0.40937
# Poissons Ratio (y) = 0.27003 0.40937
# Poissons Ratio (z) = 0.43677 0.43678
#
# Static dielectric constant tensor:
#      x y z
#    x 2.881320 0.000000 0.000000 
#    y 0.000000 2.881330 0.000000 
#    z 0.000000 0.000000 3.329860 
# 
# 
# High freq. dielectric constant tensor:
#      x y z
#    x 1.594210 0.000000 0.000000 
#    y 0.000000 1.594210 0.000000 
#    z 0.000000 0.000000 1.628390 
# 
# From -- ./inp_files/7984.got.cif
#   From: 2010.03.12/outbox.cif.g09.slc.cpg/sg129_4_cif.got.tgz:7984.got - 2010.04.06 17:19:44.
