data_PCOD8314032
_publ_section_title
;
Structure prediction by ZEFSAII (Michael W. Deem and Ramdas Pophale) SiO2 
 PCOD8314032
Probable space group: P 4/M B M
;
_chemical_formula_sum "Si O2"
_cell_formula_units_Z 104
_cell_length_a 17.662856
_cell_length_b 17.662856
_cell_length_c 18.441909
_cell_angle_alpha 90.000000
_cell_angle_beta 90.000000
_cell_angle_gamma 90.000000
_cell_volume 5753.441893
_symmetry_space_group_name_H-M "P 4/M B M"
_symmetry_group_IT_number 127
_symmetry_cell_setting 'tetragonal'
loop_
_space_group_symop_operation_xyz
x,y,z
-y,x,z
-x,-y,z
y,-x,z
1/2+x,1/2-y,-z
1/2-x,1/2+y,-z
1/2+y,1/2+x,-z
1/2-y,1/2-x,-z
-x,-y,-z
y,-x,-z
x,y,-z
-y,x,-z
1/2-x,1/2+y,z
1/2+x,1/2-y,z
1/2-y,1/2-x,z
1/2+y,1/2+x,z
loop_
_atom_site_type_symbol
_atom_site_label
_atom_site_fract_x
_atom_site_fract_y
_atom_site_fract_z
Si Si1 0.299439 0.005283 0.326062
Si Si2 0.183853 0.559797 0.833117
Si Si3 0.320344 0.303669 0.836780
Si Si4 0.937074 0.562927 0.417348
Si Si5 0.136878 0.761358 0.418446
Si Si6 0.851107 0.770877 0.686551
Si Si7 0.217756 0.409403 0.082611
O O1 0.327698 0.045349 0.252688
O O2 0.250188 0.061361 0.373835
O O3 0.367012 0.971614 0.373885
O O4 0.241127 0.939703 0.304865
O O5 0.113847 0.613847 0.857472
O O6 0.265106 0.598508 0.853079
O O7 0.183334 0.481241 0.875797
O O8 0.258447 0.241554 0.855324
O O9 0.322838 0.322995 0.752139
O O10 0.297301 0.378393 0.883275
O O11 0.913104 0.586897 0.500000
O O12 0.000000 0.500000 0.423342
O O13 0.115395 0.782626 0.500000
O O14 0.183982 0.683982 0.413760
O O15 0.185728 0.830956 0.387337
O O16 0.810922 0.689079 0.689130
O O17 0.154737 0.345264 0.089254
O O18 0.234148 0.432117 0.000000
#
# Coordination Sequence:
#
# PCOD8314032 Si02
#       7
#    16  16  16   8  16  16  16
#     4  12  21  35  56  82 113 148 192 235 281 337
#     4  11  22  35  59  89 117 150 192 233 279 336
#     4   9  18  36  58  80 109 146 191 234 274 326
#     4  11  24  36  48  76 121 161 189 226 283 346
#     4  10  21  36  54  78 112 148 185 235 289 333
#     4  10  19  35  55  79 107 142 190 238 275 326
#     4  10  22  39  59  86 120 152 181 224 285 343
#
# _framework density 18.076135000000001
#
# number of rings (size 3 to 8) (size 9 to 14) (size 15 to 20)
#    0.000    1.615    3.846    1.846    1.077    3.692 
#    0.000    2.308    0.000    0.923    0.000    2.154 
#    0.000    0.000    0.000    0.000    0.000    0.000 
#
# Total GULP energy -1289335.023090 kJ/mol
# GULP energy per Si atom -12397.452145 kJ/mol
# Density = 1.803499 g / cm^3
# Si number density = 18.076135 Si / 1000 Ang^3
#
#
#
# Elastic Constant Matrix: (Units=GPa)
#
#
# Indices 1 2 3 4 5 6 
#
# 1 48.5370 26.8140 26.9451 0.0000 0.0000 0.0000
# 2 26.8140 48.5371 26.9451 0.0000 0.0000 0.0000
# 3 26.9451 26.9451 107.2591 0.0000 0.0000 0.0000
# 4 0.0000 0.0000 0.0000 22.7547 0.0000 0.0000
# 5 0.0000 0.0000 0.0000 0.0000 22.7546 0.0000
# 6 0.0000 0.0000 0.0000 0.0000 0.0000 23.4789
#
#
#
# Elastic Compliance Matrix: (Units=1/GPa)
#
#
# Indices 1 2 3 4 5 6 
#
# 1 0.031106 -0.014928 -0.004064 0.000000 0.000000 0.000000
# 2 -0.014928 0.031106 -0.004064 0.000000 0.000000 0.000000
# 3 -0.004064 -0.004064 0.011365 0.000000 0.000000 0.000000
# 4 0.000000 0.000000 0.000000 0.043947 0.000000 0.000000
# 5 0.000000 0.000000 0.000000 0.000000 0.043947 0.000000
# 6 0.000000 0.000000 0.000000 0.000000 0.000000 0.042592
#
#
# Mechanical properties :
#
#
# Convention : Reuss Voigt Hill
#
# Bulk Modulus (GPa) = 36.41082 40.63795 38.52438
# Shear Modulus (GPa) = 19.28044 22.03956 20.66000
#
# Velocity S-wave (km/s) = 3.26946 3.49558 3.38441
# Velocity P-wave (km/s) = 5.86850 6.23077 6.05235
#
# Compressibility (1/GPa) = 0.02746437
#
# Stress axis : x y z
#
# Youngs Moduli (GPa) = 32.14818 32.14822 87.98828
#
# Poissons Ratio (x) = 0.47991 0.35759
# Poissons Ratio (y) = 0.47991 0.35760
# Poissons Ratio (z) = 0.13065 0.13065
#
# Static dielectric constant tensor:
#      x y z
#    x 3.269260 0.000000 0.000000 
#    y 0.000000 3.269260 0.000000 
#    z 0.000000 0.000000 3.538720 
# 
# 
# High freq. dielectric constant tensor:
#      x y z
#    x 1.686390 0.000000 0.000000 
#    y 0.000000 1.686390 0.000000 
#    z 0.000000 0.000000 1.708820 
# 
# From -- ./inp_files/5220.got.cif
#   From: 2010.03.12/outbox.cif.g09.slc.cpg/sg127_3_cif.got.tgz:5220.got - 2010.04.06 17:03:15.
