data_PCOD8314024
_publ_section_title
;
Structure prediction by ZEFSAII (Michael W. Deem and Ramdas Pophale) SiO2 
 PCOD8314024
Probable space group: P 4/M B M
;
_chemical_formula_sum "Si O2"
_cell_formula_units_Z 96
_cell_length_a 15.149508
_cell_length_b 15.149508
_cell_length_c 22.657176
_cell_angle_alpha 90.000000
_cell_angle_beta 90.000000
_cell_angle_gamma 90.000000
_cell_volume 5199.993920
_symmetry_space_group_name_H-M "P 4/M B M"
_symmetry_group_IT_number 127
_symmetry_cell_setting 'tetragonal'
loop_
_space_group_symop_operation_xyz
x,y,z
-y,x,z
-x,-y,z
y,-x,z
1/2+x,1/2-y,-z
1/2-x,1/2+y,-z
1/2+y,1/2+x,-z
1/2-y,1/2-x,-z
-x,-y,-z
y,-x,-z
x,y,-z
-y,x,-z
1/2-x,1/2+y,z
1/2+x,1/2-y,z
1/2-y,1/2-x,z
1/2+y,1/2+x,z
loop_
_atom_site_type_symbol
_atom_site_label
_atom_site_fract_x
_atom_site_fract_y
_atom_site_fract_z
Si Si1 0.817375 0.170343 0.430277
Si Si2 0.074252 0.574252 0.066009
Si Si3 0.248970 0.514093 0.617404
Si Si4 0.454722 0.637207 0.932846
Si Si5 0.954286 0.692264 0.862941
Si Si6 0.566485 0.933516 0.432608
Si Si7 0.353873 0.999066 0.733558
O O1 0.836501 0.167310 0.500000
O O2 0.748579 0.248579 0.415058
O O3 0.778910 0.078365 0.408545
O O4 0.908739 0.180073 0.394004
O O5 0.160192 0.537883 0.098898
O O6 0.000000 0.500000 0.067128
O O7 0.101198 0.601198 0.000000
O O8 0.165427 0.544656 0.581065
O O9 0.224551 0.506415 0.686238
O O10 0.390495 0.555355 0.921505
O O11 0.426814 0.711733 0.886124
O O12 0.443627 0.671715 0.000000
O O13 0.871152 0.628849 0.871746
O O14 0.984419 0.695119 0.795311
O O15 0.550492 0.949509 0.500000
O O16 0.500000 0.000000 0.397366
O O17 0.416259 0.916259 0.718488
O O18 0.411468 0.088533 0.734932
#
# Coordination Sequence:
#
# PCOD8314024 Si02
#       7
#    16   8  16  16  16   8  16
#     4  11  23  40  62  91 125 155 194 246 302 362
#     4   9  16  27  49  81 117 148 175 219 292 354
#     4  12  23  39  61  86 118 162 197 242 301 357
#     4   9  19  38  60  81 113 159 200 238 288 343
#     4  10  19  34  56  85 116 150 187 240 297 343
#     4  11  20  33  59  91 113 141 196 249 296 347
#     4  10  19  36  60  84 115 154 199 248 297 352
#
# _framework density 18.461559999999999
#
# number of rings (size 3 to 8) (size 9 to 14) (size 15 to 20)
#    0.000    1.667    2.500    4.000    0.000    2.667 
#    4.500    0.833    0.000    0.000    0.000    0.000 
#    0.000    0.000    0.000    0.000    0.000    0.000 
#
# Total GULP energy -1190404.062030 kJ/mol
# GULP energy per Si atom -12400.042313 kJ/mol
# Density = 1.841954 g / cm^3
# Si number density = 18.461560 Si / 1000 Ang^3
#
#
#
# Elastic Constant Matrix: (Units=GPa)
#
#
# Indices 1 2 3 4 5 6 
#
# 1 92.5265 20.2016 52.4729 0.0000 0.0000 0.0000
# 2 20.2016 92.5265 52.4729 0.0000 0.0000 0.0000
# 3 52.4729 52.4729 136.2049 0.0000 0.0000 0.0000
# 4 0.0000 0.0000 0.0000 49.1836 0.0000 0.0000
# 5 0.0000 0.0000 0.0000 0.0000 49.1010 0.0000
# 6 0.0000 0.0000 0.0000 0.0000 0.0000 26.4870
#
#
#
# Elastic Compliance Matrix: (Units=1/GPa)
#
#
# Indices 1 2 3 4 5 6 
#
# 1 0.013829 0.000003 -0.005329 0.000000 0.000000 0.000000
# 2 0.000003 0.013829 -0.005329 0.000000 0.000000 0.000000
# 3 -0.005329 -0.005329 0.011448 0.000000 0.000000 0.000000
# 4 0.000000 0.000000 0.000000 0.020332 0.000000 0.000000
# 5 0.000000 0.000000 0.000000 0.000000 0.020366 0.000000
# 6 0.000000 0.000000 0.000000 0.000000 0.000000 0.037754
#
#
# Mechanical properties :
#
#
# Convention : Reuss Voigt Hill
#
# Bulk Modulus (GPa) = 56.19123 63.50585 59.84854
# Shear Modulus (GPa) = 34.53042 38.02835 36.27938
#
# Velocity S-wave (km/s) = 4.32950 4.54350 4.43779
# Velocity P-wave (km/s) = 7.44954 7.87389 7.66465
#
# Compressibility (1/GPa) = 0.01779637
#
# Stress axis : x y z
#
# Youngs Moduli (GPa) = 72.31127 72.31130 87.35443
#
# Poissons Ratio (x) = -0.00019 0.46548
# Poissons Ratio (y) = -0.00019 0.46548
# Poissons Ratio (z) = 0.38532 0.38532
#
# Static dielectric constant tensor:
#      x y z
#    x 4.211160 0.000000 0.000000 
#    y 0.000000 4.211090 0.000000 
#    z 0.000000 0.000000 3.490090 
# 
# 
# High freq. dielectric constant tensor:
#      x y z
#    x 1.708140 0.000000 0.000000 
#    y 0.000000 1.708140 0.000000 
#    z 0.000000 0.000000 1.721950 
# 
# From -- ./inp_files/6126.got.cif
#   From: 2010.03.12/outbox.cif.g09.slc.cpg/sg127_4_cif.got.tgz:6126.got - 2010.04.06 17:03:15.
