data_PCOD8314808
_publ_section_title
;
Structure prediction by ZEFSAII (Michael W. Deem and Ramdas Pophale) SiO2 
 PCOD8314808
Probable space group: P 4/M N C
;
_chemical_formula_sum "Si O2"
_cell_formula_units_Z 88
_cell_length_a 17.796258
_cell_length_b 17.796258
_cell_length_c 14.583756
_cell_angle_alpha 90.000000
_cell_angle_beta 90.000000
_cell_angle_gamma 90.000000
_cell_volume 4618.774677
_symmetry_space_group_name_H-M "P 4/M N C"
_symmetry_group_IT_number 128
_symmetry_cell_setting 'tetragonal'
loop_
_space_group_symop_operation_xyz
x,y,z
-y,x,z
-x,-y,z
y,-x,z
1/2+x,1/2-y,1/2-z
1/2-x,1/2+y,1/2-z
1/2+y,1/2+x,1/2-z
1/2-y,1/2-x,1/2-z
-x,-y,-z
y,-x,-z
x,y,-z
-y,x,-z
1/2-x,1/2+y,1/2+z
1/2+x,1/2-y,1/2+z
1/2-y,1/2-x,1/2+z
1/2+y,1/2+x,1/2+z
loop_
_atom_site_type_symbol
_atom_site_label
_atom_site_fract_x
_atom_site_fract_y
_atom_site_fract_z
Si Si1 0.527432 0.282474 0.336581
Si Si2 0.328999 0.988880 0.000000
Si Si3 0.280868 0.878101 0.682397
Si Si4 0.563226 0.141636 0.000000
Si Si5 0.876285 0.161424 0.896687
Si Si6 0.727029 0.793631 0.349410
Si Si7 0.386788 0.155860 0.000000
O O1 0.535408 0.215198 0.409190
O O2 0.551867 0.256084 0.235536
O O3 0.441912 0.310595 0.329192
O O4 0.578175 0.351973 0.369369
O O5 0.407555 0.944038 0.000000
O O6 0.341030 0.078146 0.000000
O O7 0.342426 0.842426 0.750000
O O8 0.316097 0.907587 0.589313
O O9 0.216207 0.816980 0.658848
O O10 0.473992 0.138753 0.000000
O O11 0.804180 0.215623 0.890625
O O12 0.908529 0.162455 0.000000
O O13 0.690996 0.809005 0.250000
O O14 0.704874 0.864409 0.411448
#
# Coordination Sequence:
#
# PCOD8314808 Si02
#       7
#    16   8  16   8  16  16   8
#     4  12  23  38  64  94 129 161 211 262 329 384
#     4  12  21  42  62  86 128 165 210 257 323 381
#     4  11  23  40  66  90 118 172 218 267 310 377
#     4  12  26  39  60  91 131 166 215 261 323 393
#     4  12  21  38  64  94 125 162 200 269 325 377
#     4  11  21  39  64  90 115 162 219 254 305 373
#     4  12  26  39  62  94 130 164 208 273 313 374
#
# _framework density 19.052672999999999
#
# number of rings (size 3 to 8) (size 9 to 14) (size 15 to 20)
#    0.000    0.364   10.000    0.818    2.545    0.364 
#    0.000    0.909    0.000    0.000    0.000    0.000 
#    0.000    4.364    0.000    0.000    0.000    0.000 
#
# Total GULP energy -1091556.537352 kJ/mol
# GULP energy per Si atom -12404.051561 kJ/mol
# Density = 1.900931 g / cm^3
# Si number density = 19.052673 Si / 1000 Ang^3
#
#
#
# Elastic Constant Matrix: (Units=GPa)
#
#
# Indices 1 2 3 4 5 6 
#
# 1 83.2310 27.2103 38.3598 0.0000 0.0000 0.0000
# 2 27.2103 83.2311 38.3597 0.0000 0.0000 0.0000
# 3 38.3598 38.3597 129.4654 0.0000 0.0000 0.0000
# 4 0.0000 0.0000 0.0000 27.3298 0.0000 0.0000
# 5 0.0000 0.0000 0.0000 0.0000 27.3300 0.0000
# 6 0.0000 0.0000 0.0000 0.0000 0.0000 33.2307
#
#
#
# Elastic Compliance Matrix: (Units=1/GPa)
#
#
# Indices 1 2 3 4 5 6 
#
# 1 0.014626 -0.003225 -0.003378 0.000000 0.000000 0.000000
# 2 -0.003225 0.014626 -0.003378 0.000000 0.000000 0.000000
# 3 -0.003378 -0.003378 0.009726 0.000000 0.000000 0.000000
# 4 0.000000 0.000000 0.000000 0.036590 0.000000 0.000000
# 5 0.000000 0.000000 0.000000 0.000000 0.036590 0.000000
# 6 0.000000 0.000000 0.000000 0.000000 0.000000 0.030093
#
#
# Mechanical properties :
#
#
# Convention : Reuss Voigt Hill
#
# Bulk Modulus (GPa) = 52.58755 55.97637 54.28196
# Shear Modulus (GPa) = 29.66468 30.37794 30.02131
#
# Velocity S-wave (km/s) = 3.95014 3.99735 3.97382
# Velocity P-wave (km/s) = 6.96175 7.12381 7.04324
#
# Compressibility (1/GPa) = 0.01901591
#
# Stress axis : x y z
#
# Youngs Moduli (GPa) = 68.37186 68.37203 102.81829
#
# Poissons Ratio (x) = 0.22048 0.34733
# Poissons Ratio (y) = 0.22048 0.34733
# Poissons Ratio (z) = 0.23097 0.23097
#
# Static dielectric constant tensor:
#      x y z
#    x 3.413400 0.000000 0.000000 
#    y 0.000000 3.413400 0.000000 
#    z 0.000000 0.000000 3.693430 
# 
# 
# High freq. dielectric constant tensor:
#      x y z
#    x 1.733620 0.000000 0.000000 
#    y 0.000000 1.733620 0.000000 
#    z 0.000000 0.000000 1.748290 
# 
# From -- ./inp_files/3900.got.cif
#   From: 2010.03.12/outbox.cif.g09.slc.cpg/sg128_2_cif.got.tgz:3900.got - 2010.04.06 17:11:05.
