data_PCOD8314305
_publ_section_title
;
Structure prediction by ZEFSAII (Michael W. Deem and Ramdas Pophale) SiO2 
 PCOD8314305
Probable space group: P 4/M B M
;
_chemical_formula_sum "Si O2"
_cell_formula_units_Z 104
_cell_length_a 19.292825
_cell_length_b 19.292825
_cell_length_c 15.621112
_cell_angle_alpha 90.000000
_cell_angle_beta 90.000000
_cell_angle_gamma 90.000000
_cell_volume 5814.382468
_symmetry_space_group_name_H-M "P 4/M B M"
_symmetry_group_IT_number 127
_symmetry_cell_setting 'tetragonal'
loop_
_space_group_symop_operation_xyz
x,y,z
-y,x,z
-x,-y,z
y,-x,z
1/2+x,1/2-y,-z
1/2-x,1/2+y,-z
1/2+y,1/2+x,-z
1/2-y,1/2-x,-z
-x,-y,-z
y,-x,-z
x,y,-z
-y,x,-z
1/2-x,1/2+y,z
1/2+x,1/2-y,z
1/2-y,1/2-x,z
1/2+y,1/2+x,z
loop_
_atom_site_type_symbol
_atom_site_label
_atom_site_fract_x
_atom_site_fract_y
_atom_site_fract_z
Si Si1 0.950786 0.665338 0.732911
Si Si2 0.109792 0.970931 0.095493
Si Si3 0.497157 0.113500 0.905275
Si Si4 0.078534 0.832445 0.335492
Si Si5 0.932581 0.820652 0.256334
Si Si6 0.681525 0.934181 0.400551
Si Si7 0.588428 0.429179 0.500000
O O1 0.890716 0.609285 0.728997
O O2 0.991078 0.664590 0.824585
O O3 0.916772 0.740982 0.721585
O O4 0.001841 0.649774 0.653140
O O5 0.173680 0.954059 0.157133
O O6 0.047983 0.917286 0.112664
O O7 0.138638 0.963401 0.000000
O O8 0.555479 0.055479 0.901975
O O9 0.422208 0.077793 0.893655
O O10 0.499913 0.150307 0.000000
O O11 0.133030 0.863350 0.267265
O O12 0.089795 0.751228 0.352148
O O13 0.101845 0.873907 0.418718
O O14 0.998768 0.848393 0.310720
O O15 0.695485 0.956035 0.500000
O O16 0.629232 0.870769 0.397329
O O17 0.596866 0.511021 0.500000
#
# Coordination Sequence:
#
# PCOD8314305 Si02
#       7
#    16  16  16  16  16  16   8
#     4  10  22  37  54  81 111 142 183 231 283 332
#     4   9  17  30  51  79 111 144 182 220 254 304
#     4   8  14  28  53  81 105 130 165 215 271 322
#     4  11  21  34  53  78 109 137 178 223 265 325
#     4  11  21  33  54  77 109 148 180 222 271 319
#     4  10  22  39  59  79 103 141 184 228 280 337
#     4  11  20  30  51  80 104 133 168 217 273 315
#
# _framework density 17.886679999999998
#
# number of rings (size 3 to 8) (size 9 to 14) (size 15 to 20)
#    0.000    2.077    3.846    1.385    0.000    2.769 
#    0.000    0.769    0.000    0.000    0.000    0.000 
#    0.000    0.000    0.000    0.000    0.000    0.000 
#
# Total GULP energy -1288978.417973 kJ/mol
# GULP energy per Si atom -12394.023250 kJ/mol
# Density = 1.784597 g / cm^3
# Si number density = 17.886680 Si / 1000 Ang^3
#
#
#
# Elastic Constant Matrix: (Units=GPa)
#
#
# Indices 1 2 3 4 5 6 
#
# 1 67.6903 35.8289 31.9600 0.0000 0.0000 0.0000
# 2 35.8289 67.6903 31.9600 0.0000 0.0000 0.0000
# 3 31.9600 31.9600 108.4983 0.0000 0.0000 0.0000
# 4 0.0000 0.0000 0.0000 19.4652 0.0000 0.0000
# 5 0.0000 0.0000 0.0000 0.0000 19.4652 0.0000
# 6 0.0000 0.0000 0.0000 0.0000 0.0000 23.1855
#
#
#
# Elastic Compliance Matrix: (Units=1/GPa)
#
#
# Indices 1 2 3 4 5 6 
#
# 1 0.021597 -0.009789 -0.003478 0.000000 0.000000 0.000000
# 2 -0.009789 0.021597 -0.003478 0.000000 0.000000 0.000000
# 3 -0.003478 -0.003478 0.011266 0.000000 0.000000 0.000000
# 4 0.000000 0.000000 0.000000 0.051374 0.000000 0.000000
# 5 0.000000 0.000000 0.000000 0.000000 0.051374 0.000000
# 6 0.000000 0.000000 0.000000 0.000000 0.000000 0.043130
#
#
# Mechanical properties :
#
#
# Convention : Reuss Voigt Hill
#
# Bulk Modulus (GPa) = 47.69036 49.26410 48.47723
# Shear Modulus (GPa) = 20.76259 22.03185 21.39722
#
# Velocity S-wave (km/s) = 3.41073 3.51343 3.46246
# Velocity P-wave (km/s) = 6.49855 6.63785 6.56857
#
# Compressibility (1/GPa) = 0.02096860
#
# Stress axis : x y z
#
# Youngs Moduli (GPa) = 46.30302 46.30302 88.76394
#
# Poissons Ratio (x) = 0.45327 0.30874
# Poissons Ratio (y) = 0.45327 0.30874
# Poissons Ratio (z) = 0.16105 0.16105
#
# Static dielectric constant tensor:
#      x y z
#    x 3.056010 0.000000 0.000000 
#    y 0.000000 3.056010 0.000000 
#    z 0.000000 0.000000 3.688300 
# 
# 
# High freq. dielectric constant tensor:
#      x y z
#    x 1.670510 0.000000 0.000000 
#    y 0.000000 1.670510 0.000000 
#    z 0.000000 0.000000 1.711080 
# 
# From -- ./inp_files/4611.got.cif
#   From: 2010.03.12/outbox.cif.g09.slc.cpg/sg127_3_cif.got.tgz:4611.got - 2010.04.06 17:03:15.
