data_PCOD8314846
_publ_section_title
;
Structure prediction by ZEFSAII (Michael W. Deem and Ramdas Pophale) SiO2 
 PCOD8314846
Probable space group: P 4/M N C
;
_chemical_formula_sum "Si O2"
_cell_formula_units_Z 72
_cell_length_a 14.214490
_cell_length_b 14.214490
_cell_length_c 17.986696
_cell_angle_alpha 90.000000
_cell_angle_beta 90.000000
_cell_angle_gamma 90.000000
_cell_volume 3634.242971
_symmetry_space_group_name_H-M "P 4/M N C"
_symmetry_group_IT_number 128
_symmetry_cell_setting 'tetragonal'
loop_
_space_group_symop_operation_xyz
x,y,z
-y,x,z
-x,-y,z
y,-x,z
1/2+x,1/2-y,1/2-z
1/2-x,1/2+y,1/2-z
1/2+y,1/2+x,1/2-z
1/2-y,1/2-x,1/2-z
-x,-y,-z
y,-x,-z
x,y,-z
-y,x,-z
1/2-x,1/2+y,1/2+z
1/2+x,1/2-y,1/2+z
1/2-y,1/2-x,1/2+z
1/2+y,1/2+x,1/2+z
loop_
_atom_site_type_symbol
_atom_site_label
_atom_site_fract_x
_atom_site_fract_y
_atom_site_fract_z
Si Si1 0.274405 0.673207 0.500000
Si Si2 0.599359 0.035151 0.132638
Si Si3 0.879368 0.379368 0.250000
Si Si4 0.761776 0.573644 0.914456
Si Si5 0.759732 0.861917 0.617838
Si Si6 0.733950 0.024697 0.000000
O O1 0.213060 0.698959 0.571936
O O2 0.304868 0.563519 0.500000
O O3 0.373910 0.722367 0.500000
O O4 0.592867 0.148387 0.138753
O O5 0.500000 0.000000 0.101395
O O6 0.624022 0.981147 0.209257
O O7 0.675208 0.005854 0.073391
O O8 0.873447 0.288605 0.302358
O O9 0.735289 0.464340 0.919406
O O10 0.676480 0.633234 0.878258
O O11 0.781616 0.608608 0.000000
#
# Coordination Sequence:
#
# PCOD8314846 Si02
#       6
#     8  16   8  16  16   8
#     4  12  22  45  68 100 129 172 227 273 327 388
#     4  12  22  38  68 101 126 167 224 281 329 375
#     4  12  27  38  62 102 137 174 202 284 335 404
#     4  12  23  42  71  98 127 174 226 279 324 386
#     4  12  25  42  64  97 137 171 222 265 335 395
#     4  12  23  41  74  95 134 173 224 279 326 393
#
# _framework density 19.811554000000001
#
# number of rings (size 3 to 8) (size 9 to 14) (size 15 to 20)
#    0.000    0.000   10.000    0.667    0.000    2.444 
#    0.000    1.111    0.000    0.000    5.778    0.000 
#    0.000    0.000    0.000    0.000    0.000    0.000 
#
# Total GULP energy -892494.358516 kJ/mol
# GULP energy per Si atom -12395.754979 kJ/mol
# Density = 1.976646 g / cm^3
# Si number density = 19.811554 Si / 1000 Ang^3
#
#
#
# Elastic Constant Matrix: (Units=GPa)
#
#
# Indices 1 2 3 4 5 6 
#
# 1 135.3927 68.1672 58.8437 0.0000 0.0000 0.0000
# 2 68.1672 135.3927 58.8437 0.0000 0.0000 0.0000
# 3 58.8437 58.8437 116.0094 0.0000 0.0000 0.0000
# 4 0.0000 0.0000 0.0000 32.4924 0.0000 0.0000
# 5 0.0000 0.0000 0.0000 0.0000 32.4924 0.0000
# 6 0.0000 0.0000 0.0000 0.0000 0.0000 31.0865
#
#
#
# Elastic Compliance Matrix: (Units=1/GPa)
#
#
# Indices 1 2 3 4 5 6 
#
# 1 0.010913 -0.003962 -0.003526 0.000000 0.000000 0.000000
# 2 -0.003962 0.010913 -0.003526 0.000000 0.000000 0.000000
# 3 -0.003526 -0.003526 0.012197 0.000000 0.000000 0.000000
# 4 0.000000 0.000000 0.000000 0.030776 0.000000 0.000000
# 5 0.000000 0.000000 0.000000 0.000000 0.030776 0.000000
# 6 0.000000 0.000000 0.000000 0.000000 0.000000 0.032168
#
#
# Mechanical properties :
#
#
# Convention : Reuss Voigt Hill
#
# Bulk Modulus (GPa) = 83.36348 84.27820 83.82084
# Shear Modulus (GPa) = 32.51609 32.61028 32.56318
#
# Velocity S-wave (km/s) = 4.05565 4.06152 4.05859
# Velocity P-wave (km/s) = 8.00629 8.03909 8.02270
#
# Compressibility (1/GPa) = 0.01199566
#
# Stress axis : x y z
#
# Youngs Moduli (GPa) = 91.63268 91.63268 81.98914
#
# Poissons Ratio (x) = 0.36307 0.28907
# Poissons Ratio (y) = 0.36307 0.28907
# Poissons Ratio (z) = 0.32307 0.32307
#
# Static dielectric constant tensor:
#      x y z
#    x 3.792410 0.000000 0.000000 
#    y 0.000000 3.792410 0.000000 
#    z 0.000000 0.000000 3.502430 
# 
# 
# High freq. dielectric constant tensor:
#      x y z
#    x 1.776230 0.000000 0.000000 
#    y 0.000000 1.776230 0.000000 
#    z 0.000000 0.000000 1.765240 
# 
# From -- ./inp_files/4632.got.cif
#   From: 2010.03.12/outbox.cif.g09.slc.cpg/sg128_3_cif.got.tgz:4632.got - 2010.04.06 17:11:05.
