data_PCOD8314411
_publ_section_title
;
Structure prediction by ZEFSAII (Michael W. Deem and Ramdas Pophale) SiO2 
 PCOD8314411
Probable space group: P 4/M B M
;
_chemical_formula_sum "Si O2"
_cell_formula_units_Z 88
_cell_length_a 13.978189
_cell_length_b 13.978189
_cell_length_c 24.194704
_cell_angle_alpha 90.000000
_cell_angle_beta 90.000000
_cell_angle_gamma 90.000000
_cell_volume 4727.397595
_symmetry_space_group_name_H-M "P 4/M B M"
_symmetry_group_IT_number 127
_symmetry_cell_setting 'tetragonal'
loop_
_space_group_symop_operation_xyz
x,y,z
-y,x,z
-x,-y,z
y,-x,z
1/2+x,1/2-y,-z
1/2-x,1/2+y,-z
1/2+y,1/2+x,-z
1/2-y,1/2-x,-z
-x,-y,-z
y,-x,-z
x,y,-z
-y,x,-z
1/2-x,1/2+y,z
1/2+x,1/2-y,z
1/2-y,1/2-x,z
1/2+y,1/2+x,z
loop_
_atom_site_type_symbol
_atom_site_label
_atom_site_fract_x
_atom_site_fract_y
_atom_site_fract_z
Si Si1 0.926601 0.426601 0.934806
Si Si2 0.147208 0.055874 0.561927
Si Si3 0.739732 0.603013 0.274241
Si Si4 0.434825 0.773153 0.062651
Si Si5 0.756782 0.900494 0.670840
Si Si6 0.643901 0.563268 0.836804
O O1 0.819202 0.461213 0.919239
O O2 0.000000 0.500000 0.905687
O O3 0.937453 0.437453 0.000000
O O4 0.187555 0.071366 0.500000
O O5 0.228425 0.085991 0.605237
O O6 0.054388 0.121014 0.571235
O O7 0.832050 0.667951 0.284218
O O8 0.762591 0.500762 0.300089
O O9 0.646690 0.648056 0.303507
O O10 0.720317 0.594415 0.209059
O O11 0.353424 0.853424 0.067325
O O12 0.412932 0.685419 0.102785
O O13 0.439239 0.733459 0.000000
O O14 0.664789 0.835212 0.681555
O O15 0.548549 0.624228 0.829667
#
# Coordination Sequence:
#
# PCOD8314411 Si02
#       6
#     8  16  16  16  16  16
#     4   7  12  28  54  78 102 138 176 211 266 332
#     4   9  17  31  56  89 121 157 202 248 291 340
#     4  11  23  41  62  86 117 153 197 246 293 356
#     4   9  18  36  59  82 111 145 183 229 279 336
#     4  11  22  37  63  90 116 160 202 241 298 350
#     4  11  23  39  59  81 111 149 186 232 287 348
#
# _framework density 18.614892000000001
#
# number of rings (size 3 to 8) (size 9 to 14) (size 15 to 20)
#    0.000    2.091    3.636    2.182    0.000    1.818 
#    4.909    0.909    0.000    0.545    0.000    1.273 
#    0.000    0.000    0.000    0.000    0.000    0.000 
#
# Total GULP energy -1090991.449381 kJ/mol
# GULP energy per Si atom -12397.630107 kJ/mol
# Density = 1.857252 g / cm^3
# Si number density = 18.614892 Si / 1000 Ang^3
#
#
#
# Elastic Constant Matrix: (Units=GPa)
#
#
# Indices 1 2 3 4 5 6 
#
# 1 73.0546 35.5317 37.2782 0.0000 0.0000 0.0000
# 2 35.5317 73.0546 37.2782 0.0000 0.0000 0.0000
# 3 37.2782 37.2782 122.0482 0.0000 0.0000 0.0000
# 4 0.0000 0.0000 0.0000 30.2975 0.0000 0.0000
# 5 0.0000 0.0000 0.0000 0.0000 30.2975 0.0000
# 6 0.0000 0.0000 0.0000 0.0000 0.0000 10.4893
#
#
#
# Elastic Compliance Matrix: (Units=1/GPa)
#
#
# Indices 1 2 3 4 5 6 
#
# 1 0.019152 -0.007499 -0.003559 0.000000 0.000000 0.000000
# 2 -0.007499 0.019152 -0.003559 0.000000 0.000000 0.000000
# 3 -0.003559 -0.003559 0.010368 0.000000 0.000000 0.000000
# 4 0.000000 0.000000 0.000000 0.033006 0.000000 0.000000
# 5 0.000000 0.000000 0.000000 0.000000 0.033006 0.000000
# 6 0.000000 0.000000 0.000000 0.000000 0.000000 0.095335
#
#
# Mechanical properties :
#
#
# Convention : Reuss Voigt Hill
#
# Bulk Modulus (GPa) = 51.44885 54.25930 52.85408
# Shear Modulus (GPa) = 20.34740 24.75483 22.55111
#
# Velocity S-wave (km/s) = 3.30975 3.65065 3.48437
# Velocity P-wave (km/s) = 6.50419 6.85429 6.68153
#
# Compressibility (1/GPa) = 0.01943678
#
# Stress axis : x y z
#
# Youngs Moduli (GPa) = 52.21456 52.21456 96.45267
#
# Poissons Ratio (x) = 0.39154 0.34330
# Poissons Ratio (y) = 0.39154 0.34330
# Poissons Ratio (z) = 0.18585 0.18585
#
# Static dielectric constant tensor:
#      x y z
#    x 3.299350 0.000000 0.000000 
#    y 0.000000 3.299350 0.000000 
#    z 0.000000 0.000000 3.449730 
# 
# 
# High freq. dielectric constant tensor:
#      x y z
#    x 1.709780 0.000000 0.000000 
#    y 0.000000 1.709780 0.000000 
#    z 0.000000 0.000000 1.726060 
# 
# From -- ./inp_files/5706.got.cif
#   From: 2010.03.12/outbox.cif.g09.slc.cpg/sg127_3_cif.got.tgz:5706.got - 2010.04.06 17:03:15.
