data_PCOD8314819
_publ_section_title
;
Structure prediction by ZEFSAII (Michael W. Deem and Ramdas Pophale) SiO2 
 PCOD8314819
Probable space group: P 4/M N C
;
_chemical_formula_sum "Si O2"
_cell_formula_units_Z 96
_cell_length_a 13.843877
_cell_length_b 13.843877
_cell_length_c 23.359283
_cell_angle_alpha 90.000000
_cell_angle_beta 90.000000
_cell_angle_gamma 90.000000
_cell_volume 4476.875039
_symmetry_space_group_name_H-M "P 4/M N C"
_symmetry_group_IT_number 128
_symmetry_cell_setting 'tetragonal'
loop_
_space_group_symop_operation_xyz
x,y,z
-y,x,z
-x,-y,z
y,-x,z
1/2+x,1/2-y,1/2-z
1/2-x,1/2+y,1/2-z
1/2+y,1/2+x,1/2-z
1/2-y,1/2-x,1/2-z
-x,-y,-z
y,-x,-z
x,y,-z
-y,x,-z
1/2-x,1/2+y,1/2+z
1/2+x,1/2-y,1/2+z
1/2-y,1/2-x,1/2+z
1/2+y,1/2+x,1/2+z
loop_
_atom_site_type_symbol
_atom_site_label
_atom_site_fract_x
_atom_site_fract_y
_atom_site_fract_z
Si Si1 0.067209 0.859786 0.775955
Si Si2 0.731719 0.361493 0.830648
Si Si3 0.106232 0.761604 0.112006
Si Si4 0.044031 0.393679 0.933759
Si Si5 0.538441 0.346483 0.000000
Si Si6 0.126672 0.099504 0.000000
Si Si7 0.433560 0.757135 0.115242
O O1 0.117193 0.774877 0.737773
O O2 0.061095 0.836912 0.843448
O O3 0.955562 0.873507 0.759856
O O4 0.806887 0.281956 0.851019
O O5 0.628089 0.320820 0.849917
O O6 0.763334 0.461262 0.858265
O O7 0.142769 0.820612 0.056189
O O8 0.032464 0.680297 0.092174
O O9 0.136527 0.386566 0.891467
O O10 0.000000 0.500000 0.931124
O O11 0.067288 0.366039 0.000000
O O12 0.615679 0.430561 0.000000
O O13 0.554529 0.277593 0.051835
O O14 0.016590 0.134758 0.000000
#
# Coordination Sequence:
#
# PCOD8314819 Si02
#       7
#    16  16  16  16   8   8  16
#     4  11  25  48  74  99 138 187 238 304 365 417
#     4  12  26  44  71 100 140 186 240 286 358 426
#     4  12  26  45  72 107 139 187 244 295 353 444
#     4  11  24  44  68 100 146 189 226 282 361 427
#     4  11  22  35  58  99 141 171 224 287 338 406
#     4  11  26  47  72 107 147 184 238 309 369 429
#     4  12  24  41  69 100 138 188 228 289 355 427
#
# _framework density 21.443529000000002
#
# number of rings (size 3 to 8) (size 9 to 14) (size 15 to 20)
#    0.000    0.500    6.667    1.500    4.667    3.000 
#    0.000    0.833    0.000    0.000    0.000    0.000 
#    0.000    0.000    0.000    0.000    0.000    0.000 
#
# Total GULP energy -1190141.631462 kJ/mol
# GULP energy per Si atom -12397.308661 kJ/mol
# Density = 2.139472 g / cm^3
# Si number density = 21.443529 Si / 1000 Ang^3
#
#
#
# Elastic Constant Matrix: (Units=GPa)
#
#
# Indices 1 2 3 4 5 6 
#
# 1 64.4433 21.1470 27.6971 0.0000 0.0000 0.0000
# 2 21.1470 64.4433 27.6971 0.0000 0.0000 0.0000
# 3 27.6971 27.6971 148.4491 0.0000 0.0000 0.0000
# 4 0.0000 0.0000 0.0000 165.8124 0.0000 0.0000
# 5 0.0000 0.0000 0.0000 0.0000 165.8124 0.0000
# 6 0.0000 0.0000 0.0000 0.0000 0.0000 27.9239
#
#
#
# Elastic Compliance Matrix: (Units=1/GPa)
#
#
# Indices 1 2 3 4 5 6 
#
# 1 0.018192 -0.004904 -0.002479 0.000000 0.000000 0.000000
# 2 -0.004904 0.018192 -0.002479 0.000000 0.000000 0.000000
# 3 -0.002479 -0.002479 0.007661 0.000000 0.000000 0.000000
# 4 0.000000 0.000000 0.000000 0.006031 0.000000 0.000000
# 5 0.000000 0.000000 0.000000 0.000000 0.006031 0.000000
# 6 0.000000 0.000000 0.000000 0.000000 0.000000 0.035812
#
#
# Mechanical properties :
#
#
# Convention : Reuss Voigt Hill
#
# Bulk Modulus (GPa) = 41.11721 47.82426 44.47073
# Shear Modulus (GPa) = 41.75287 85.29602 63.52445
#
# Velocity S-wave (km/s) = 4.41739 6.31375 5.44870
# Velocity P-wave (km/s) = 6.72563 8.68919 7.76969
#
# Compressibility (1/GPa) = 0.02432072
#
# Stress axis : x y z
#
# Youngs Moduli (GPa) = 54.96794 54.96794 130.52342
#
# Poissons Ratio (x) = 0.26958 0.32360
# Poissons Ratio (y) = 0.26958 0.32360
# Poissons Ratio (z) = 0.13628 0.13628
#
# Static dielectric constant tensor:
#      x y z
#    x 5.054040 0.000000 0.000000 
#    y 0.000000 5.054040 0.000000 
#    z 0.000000 0.000000 3.916240 
# 
# 
# High freq. dielectric constant tensor:
#      x y z
#    x 1.847350 0.000000 0.000000 
#    y 0.000000 1.847350 0.000000 
#    z 0.000000 0.000000 1.850810 
# 
# From -- ./inp_files/5787.got.cif
#   From: 2010.03.12/outbox.cif.g09.slc.cpg/sg128_3_cif.got.tgz:5787.got - 2010.04.06 17:11:05.
