data_PCOD8314647
_publ_section_title
;
Structure prediction by ZEFSAII (Michael W. Deem and Ramdas Pophale) SiO2 
 PCOD8314647
Probable space group: P 4/M N C
;
_chemical_formula_sum "Si O2"
_cell_formula_units_Z 88
_cell_length_a 14.920854
_cell_length_b 14.920854
_cell_length_c 21.847853
_cell_angle_alpha 90.000000
_cell_angle_beta 90.000000
_cell_angle_gamma 90.000000
_cell_volume 4864.028677
_symmetry_space_group_name_H-M "P 4/M N C"
_symmetry_group_IT_number 128
_symmetry_cell_setting 'tetragonal'
loop_
_space_group_symop_operation_xyz
x,y,z
-y,x,z
-x,-y,z
y,-x,z
1/2+x,1/2-y,1/2-z
1/2-x,1/2+y,1/2-z
1/2+y,1/2+x,1/2-z
1/2-y,1/2-x,1/2-z
-x,-y,-z
y,-x,-z
x,y,-z
-y,x,-z
1/2-x,1/2+y,1/2+z
1/2+x,1/2-y,1/2+z
1/2-y,1/2-x,1/2+z
1/2+y,1/2+x,1/2+z
loop_
_atom_site_type_symbol
_atom_site_label
_atom_site_fract_x
_atom_site_fract_y
_atom_site_fract_z
Si Si1 0.576235 0.074036 0.067764
Si Si2 0.459600 0.359155 0.285782
Si Si3 0.971341 0.145772 0.000000
Si Si4 0.864337 0.948412 0.354753
Si Si5 0.307221 0.078722 0.427122
Si Si6 0.779580 0.452296 0.611283
O O1 0.522222 0.160780 0.092358
O O2 0.500000 0.000000 0.062080
O O3 0.657981 0.042272 0.111186
O O4 0.617340 0.090657 0.000000
O O5 0.560303 0.391395 0.301280
O O6 0.444210 0.332641 0.215476
O O7 0.440073 0.269732 0.324138
O O8 0.895952 0.069782 0.000000
O O9 0.958081 0.204576 0.059882
O O10 0.790650 0.909060 0.400014
O O11 0.949075 0.886672 0.368902
O O12 0.307410 0.088674 0.500000
O O13 0.367578 0.156913 0.399010
#
# Coordination Sequence:
#
# PCOD8314647 Si02
#       6
#    16  16   8  16  16  16
#     4   8  15  31  52  73 107 150 179 214 270 325
#     4   9  19  37  59  79 107 151 190 225 277 336
#     4  11  22  34  49  78 120 157 188 219 263 329
#     4   9  20  41  61  77 104 143 189 238 290 336
#     4  10  20  36  57  84 113 146 186 231 286 333
#     4  11  18  34  55  81 114 148 187 226 271 329
#
# _framework density 18.091999000000001
#
# number of rings (size 3 to 8) (size 9 to 14) (size 15 to 20)
#    0.000    2.455    1.818    3.273    0.000    2.909 
#    6.545    1.818    0.000    3.273    0.000    0.000 
#    0.000    0.000    0.000    0.000    0.000    0.000 
#
# Total GULP energy -1090741.912320 kJ/mol
# GULP energy per Si atom -12394.794458 kJ/mol
# Density = 1.805082 g / cm^3
# Si number density = 18.091999 Si / 1000 Ang^3
#
#
#
# Elastic Constant Matrix: (Units=GPa)
#
#
# Indices 1 2 3 4 5 6 
#
# 1 100.5459 41.3750 40.3796 0.0000 0.0000 0.0000
# 2 41.3750 100.5459 40.3796 0.0000 0.0000 0.0000
# 3 40.3796 40.3796 48.3882 0.0000 0.0000 0.0000
# 4 0.0000 0.0000 0.0000 50.2855 0.0000 0.0000
# 5 0.0000 0.0000 0.0000 0.0000 50.2855 0.0000
# 6 0.0000 0.0000 0.0000 0.0000 0.0000 18.1624
#
#
#
# Elastic Compliance Matrix: (Units=1/GPa)
#
#
# Indices 1 2 3 4 5 6 
#
# 1 0.015159 -0.001741 -0.011197 0.000000 0.000000 0.000000
# 2 -0.001741 0.015159 -0.011197 0.000000 0.000000 0.000000
# 3 -0.011197 -0.011197 0.039354 0.000000 0.000000 0.000000
# 4 0.000000 0.000000 0.000000 0.019886 0.000000 0.000000
# 5 0.000000 0.000000 0.000000 0.000000 0.019886 0.000000
# 6 0.000000 0.000000 0.000000 0.000000 0.000000 0.055059
#
#
# Mechanical properties :
#
#
# Convention : Reuss Voigt Hill
#
# Bulk Modulus (GPa) = 46.72617 54.86096 50.79356
# Shear Modulus (GPa) = 22.73680 32.23640 27.48660
#
# Velocity S-wave (km/s) = 3.54889 4.22572 3.90201
# Velocity P-wave (km/s) = 6.53268 7.36194 6.95967
#
# Compressibility (1/GPa) = 0.02140128
#
# Stress axis : x y z
#
# Youngs Moduli (GPa) = 65.96747 65.96747 25.41046
#
# Poissons Ratio (x) = 0.11486 0.28452
# Poissons Ratio (y) = 0.11486 0.28452
# Poissons Ratio (z) = 0.73864 0.73864
#
# Static dielectric constant tensor:
#      x y z
#    x 3.429070 0.000000 0.000000 
#    y 0.000000 3.429070 0.000000 
#    z 0.000000 0.000000 3.202550 
# 
# 
# High freq. dielectric constant tensor:
#      x y z
#    x 1.698610 0.000000 0.000000 
#    y 0.000000 1.698610 0.000000 
#    z 0.000000 0.000000 1.687260 
# 
# From -- ./inp_files/5630.got.cif
#   From: 2010.03.12/outbox.cif.g09.slc.cpg/sg128_3_cif.got.tgz:5630.got - 2010.04.06 17:11:05.
