data_PCOD8314468
_publ_section_title
;
Structure prediction by ZEFSAII (Michael W. Deem and Ramdas Pophale) SiO2 
 PCOD8314468
Probable space group: P 4/M B M
;
_chemical_formula_sum "Si O2"
_cell_formula_units_Z 112
_cell_length_a 25.295246
_cell_length_b 25.295246
_cell_length_c 9.911891
_cell_angle_alpha 90.000000
_cell_angle_beta 90.000000
_cell_angle_gamma 90.000000
_cell_volume 6342.118205
_symmetry_space_group_name_H-M "P 4/M B M"
_symmetry_group_IT_number 127
_symmetry_cell_setting 'tetragonal'
loop_
_space_group_symop_operation_xyz
x,y,z
-y,x,z
-x,-y,z
y,-x,z
1/2+x,1/2-y,-z
1/2-x,1/2+y,-z
1/2+y,1/2+x,-z
1/2-y,1/2-x,-z
-x,-y,-z
y,-x,-z
x,y,-z
-y,x,-z
1/2-x,1/2+y,z
1/2+x,1/2-y,z
1/2-y,1/2-x,z
1/2+y,1/2+x,z
loop_
_atom_site_type_symbol
_atom_site_label
_atom_site_fract_x
_atom_site_fract_y
_atom_site_fract_z
Si Si1 0.214279 0.573904 0.344011
Si Si2 0.267619 0.683205 0.340388
Si Si3 0.882356 0.840745 0.657574
Si Si4 0.958534 0.747801 0.654091
Si Si5 0.541803 0.875852 0.848331
Si Si6 0.059122 0.059030 0.339187
Si Si7 0.572217 0.156922 0.154899
O O1 0.197321 0.577455 0.500000
O O2 0.245364 0.625965 0.298730
O O3 0.250025 0.521526 0.317491
O O4 0.161928 0.571548 0.255512
O O5 0.267833 0.689871 0.500000
O O6 0.230869 0.730869 0.279559
O O7 0.327831 0.683802 0.281009
O O8 0.871424 0.847556 0.500000
O O9 0.933029 0.804223 0.685774
O O10 0.898502 0.898259 0.718370
O O11 0.947717 0.730637 0.500000
O O12 0.928304 0.707281 0.749801
O O13 0.565390 0.934611 0.831028
O O14 0.479562 0.878819 0.818675
O O15 0.551913 0.854328 0.000000
O O16 0.059058 0.061481 0.500000
O O17 0.999738 0.074019 0.288823
O O18 0.622837 0.122837 0.194976
O O19 0.574964 0.175757 0.000000
#
# Coordination Sequence:
#
# PCOD8314468 Si02
#       7
#    16  16  16  16  16  16  16
#     4   9  17  29  46  65  88 119 153 187 223 269
#     4   9  17  27  39  58  84 117 154 187 222 267
#     4   9  17  26  40  62  90 121 151 188 229 271
#     4   9  18  30  45  68  91 115 150 190 229 265
#     4   9  17  29  46  68  91 114 144 186 232 273
#     4   8  14  23  36  57  87 122 153 182 225 278
#     4   9  18  32  48  65  87 118 152 184 224 274
#
# _framework density 17.659714999999998
#
# number of rings (size 3 to 8) (size 9 to 14) (size 15 to 20)
#    0.000    3.143    0.000    0.857    2.000    2.000 
#    0.000    2.857    0.000    0.857    0.000    6.000 
#    0.000    0.000    0.000    1.571    0.000    1.429 
#
# Total GULP energy -1387862.061834 kJ/mol
# GULP energy per Si atom -12391.625552 kJ/mol
# Density = 1.761952 g / cm^3
# Si number density = 17.659715 Si / 1000 Ang^3
#
#
#
# Elastic Constant Matrix: (Units=GPa)
#
#
# Indices 1 2 3 4 5 6 
#
# 1 94.9504 59.1149 14.4170 0.0000 0.0000 0.0000
# 2 59.1149 94.9504 14.4170 0.0000 0.0000 0.0000
# 3 14.4170 14.4170 25.7562 0.0000 0.0000 0.0000
# 4 0.0000 0.0000 0.0000 10.8501 0.0000 0.0000
# 5 0.0000 0.0000 0.0000 0.0000 10.8501 0.0000
# 6 0.0000 0.0000 0.0000 0.0000 0.0000 28.5449
#
#
#
# Elastic Compliance Matrix: (Units=1/GPa)
#
#
# Indices 1 2 3 4 5 6 
#
# 1 0.017578 -0.010328 -0.004058 0.000000 0.000000 0.000000
# 2 -0.010328 0.017578 -0.004058 0.000000 0.000000 0.000000
# 3 -0.004058 -0.004058 0.043369 0.000000 0.000000 0.000000
# 4 0.000000 0.000000 0.000000 0.092165 0.000000 0.000000
# 5 0.000000 0.000000 0.000000 0.000000 0.092165 0.000000
# 6 0.000000 0.000000 0.000000 0.000000 0.000000 0.035032
#
#
# Mechanical properties :
#
#
# Convention : Reuss Voigt Hill
#
# Bulk Modulus (GPa) = 24.01764 43.50611 33.76188
# Shear Modulus (GPa) = 14.34085 18.56289 16.45187
#
# Velocity S-wave (km/s) = 2.85277 3.24565 3.05553
# Velocity P-wave (km/s) = 4.94781 6.22374 5.62209
#
# Compressibility (1/GPa) = 0.04163606
#
# Stress axis : x y z
#
# Youngs Moduli (GPa) = 56.88989 56.88989 23.05802
#
# Poissons Ratio (x) = 0.58753 0.09358
# Poissons Ratio (y) = 0.58753 0.09358
# Poissons Ratio (z) = 0.23088 0.23088
#
# Static dielectric constant tensor:
#      x y z
#    x 3.418240 0.000000 0.000000 
#    y 0.000000 3.418240 0.000000 
#    z 0.000000 0.000000 2.866940 
# 
# 
# High freq. dielectric constant tensor:
#      x y z
#    x 1.685850 0.000000 0.000000 
#    y 0.000000 1.685850 0.000000 
#    z 0.000000 0.000000 1.625300 
# 
# From -- ./inp_files/3771.got.cif
#   From: 2010.03.12/outbox.cif.g09.slc.cpg/sg127_2_cif.got.tgz:3771.got - 2010.04.06 17:03:15.
