data_PCOD8314417
_publ_section_title
;
Structure prediction by ZEFSAII (Michael W. Deem and Ramdas Pophale) SiO2 
 PCOD8314417
Probable space group: P 4/M B M
;
_chemical_formula_sum "Si O2"
_cell_formula_units_Z 72
_cell_length_a 18.667457
_cell_length_b 18.667457
_cell_length_c 9.862223
_cell_angle_alpha 90.000000
_cell_angle_beta 90.000000
_cell_angle_gamma 90.000000
_cell_volume 3436.727813
_symmetry_space_group_name_H-M "P 4/M B M"
_symmetry_group_IT_number 127
_symmetry_cell_setting 'tetragonal'
loop_
_space_group_symop_operation_xyz
x,y,z
-y,x,z
-x,-y,z
y,-x,z
1/2+x,1/2-y,-z
1/2-x,1/2+y,-z
1/2+y,1/2+x,-z
1/2-y,1/2-x,-z
-x,-y,-z
y,-x,-z
x,y,-z
-y,x,-z
1/2-x,1/2+y,z
1/2+x,1/2-y,z
1/2-y,1/2-x,z
1/2+y,1/2+x,z
loop_
_atom_site_type_symbol
_atom_site_label
_atom_site_fract_x
_atom_site_fract_y
_atom_site_fract_z
Si Si1 0.083793 0.583793 0.164347
Si Si2 0.299175 0.200826 0.160717
Si Si3 0.691449 0.516432 0.248843
Si Si4 0.037105 0.348601 0.657020
Si Si5 0.341103 0.628107 0.150694
Si Si6 0.614592 0.475249 0.500000
O O1 0.142473 0.642473 0.202656
O O2 0.106746 0.511387 0.239151
O O3 0.073593 0.573593 0.000000
O O4 0.323894 0.277978 0.219485
O O5 0.295562 0.204439 0.000000
O O6 0.770112 0.545868 0.278869
O O7 0.685052 0.455139 0.133705
O O8 0.638661 0.583446 0.227051
O O9 0.664760 0.466258 0.371246
O O10 0.008118 0.346823 0.500000
O O11 0.115341 0.384660 0.657560
O O12 0.354751 0.657425 0.000000
O O13 0.584360 0.555076 0.500000
#
# Coordination Sequence:
#
# PCOD8314417 Si02
#       6
#     8   8  16  16  16   8
#     4  11  22  42  71  96 126 172 223 271 325 390
#     4   9  20  40  62  87 126 167 207 260 319 380
#     4  12  23  40  66  91 125 170 215 261 318 390
#     4  11  25  43  65  96 134 171 215 271 328 387
#     4  11  24  41  62  93 130 167 210 265 324 383
#     4  11  22  40  61  89 122 165 216 262 308 373
#
# _framework density 20.950158999999999
#
# number of rings (size 3 to 8) (size 9 to 14) (size 15 to 20)
#    0.000    1.000    5.556    1.333    1.556    3.111 
#    0.000    1.111    0.000    0.000    0.000    0.000 
#    0.000    0.000    0.000    0.000    0.000    0.000 
#
# Total GULP energy -892235.512590 kJ/mol
# GULP energy per Si atom -12392.159897 kJ/mol
# Density = 2.090248 g / cm^3
# Si number density = 20.950159 Si / 1000 Ang^3
#
#
#
# Elastic Constant Matrix: (Units=GPa)
#
#
# Indices 1 2 3 4 5 6 
#
# 1 115.5572 36.6681 16.0849 0.0000 0.0000 0.0000
# 2 36.6681 115.5574 16.0849 0.0000 0.0000 0.0000
# 3 16.0849 16.0849 80.7790 0.0000 0.0000 0.0000
# 4 0.0000 0.0000 0.0000 21.4000 0.0000 0.0000
# 5 0.0000 0.0000 0.0000 0.0000 21.4000 0.0000
# 6 0.0000 0.0000 0.0000 0.0000 0.0000 77.1730
#
#
#
# Elastic Compliance Matrix: (Units=1/GPa)
#
#
# Indices 1 2 3 4 5 6 
#
# 1 0.009767 -0.002909 -0.001366 0.000000 0.000000 0.000000
# 2 -0.002909 0.009767 -0.001366 0.000000 0.000000 0.000000
# 3 -0.001366 -0.001366 0.012923 0.000000 0.000000 0.000000
# 4 0.000000 0.000000 0.000000 0.046729 0.000000 0.000000
# 5 0.000000 0.000000 0.000000 0.000000 0.046729 0.000000
# 6 0.000000 0.000000 0.000000 0.000000 0.000000 0.012958
#
#
# Mechanical properties :
#
#
# Convention : Reuss Voigt Hill
#
# Bulk Modulus (GPa) = 47.22172 49.95215 48.58693
# Shear Modulus (GPa) = 31.80413 40.19830 36.00122
#
# Velocity S-wave (km/s) = 3.90049 4.38512 4.14988
# Velocity P-wave (km/s) = 6.54783 7.03805 6.79736
#
# Compressibility (1/GPa) = 0.02117670
#
# Stress axis : x y z
#
# Youngs Moduli (GPa) = 102.38661 102.38673 77.37975
#
# Poissons Ratio (x) = 0.29785 0.10567
# Poissons Ratio (y) = 0.29785 0.10567
# Poissons Ratio (z) = 0.13981 0.13981
#
# Static dielectric constant tensor:
#      x y z
#    x 3.739560 0.000000 0.000000 
#    y 0.000000 3.739560 0.000000 
#    z 0.000000 0.000000 3.791940 
# 
# 
# High freq. dielectric constant tensor:
#      x y z
#    x 1.822300 0.000000 0.000000 
#    y 0.000000 1.822300 0.000000 
#    z 0.000000 0.000000 1.817180 
# 
# From -- ./inp_files/1622.got.cif
#   From: 2010.03.12/outbox.cif.g09.slc.cpg/sg127_1_cif.got.tgz:1622.got - 2010.04.06 17:03:15.
