data_PCOD8314788
_publ_section_title
;
Structure prediction by ZEFSAII (Michael W. Deem and Ramdas Pophale) SiO2 
 PCOD8314788
Probable space group: P 4/M N C
;
_chemical_formula_sum "Si O2"
_cell_formula_units_Z 112
_cell_length_a 15.350687
_cell_length_b 15.350687
_cell_length_c 21.447470
_cell_angle_alpha 90.000000
_cell_angle_beta 90.000000
_cell_angle_gamma 90.000000
_cell_volume 5053.958857
_symmetry_space_group_name_H-M "P 4/M N C"
_symmetry_group_IT_number 128
_symmetry_cell_setting 'tetragonal'
loop_
_space_group_symop_operation_xyz
x,y,z
-y,x,z
-x,-y,z
y,-x,z
1/2+x,1/2-y,1/2-z
1/2-x,1/2+y,1/2-z
1/2+y,1/2+x,1/2-z
1/2-y,1/2-x,1/2-z
-x,-y,-z
y,-x,-z
x,y,-z
-y,x,-z
1/2-x,1/2+y,1/2+z
1/2+x,1/2-y,1/2+z
1/2-y,1/2-x,1/2+z
1/2+y,1/2+x,1/2+z
loop_
_atom_site_type_symbol
_atom_site_label
_atom_site_fract_x
_atom_site_fract_y
_atom_site_fract_z
Si Si1 0.966177 0.859949 0.819457
Si Si2 0.099776 0.643578 0.316546
Si Si3 0.779228 0.781409 0.364152
Si Si4 0.742714 0.603793 0.571424
Si Si5 0.423690 0.791865 0.222372
Si Si6 0.100846 0.519572 0.430594
Si Si7 0.418863 0.390677 0.073350
O O1 0.955546 0.825651 0.890258
O O2 0.949489 0.776348 0.776139
O O3 0.063370 0.895867 0.807471
O O4 0.095018 0.595018 0.250000
O O5 0.179949 0.710176 0.315562
O O6 0.124607 0.584387 0.375363
O O7 0.005121 0.686276 0.322093
O O8 0.740019 0.702564 0.404017
O O9 0.858939 0.753423 0.323516
O O10 0.808660 0.860270 0.408586
O O11 0.711652 0.602645 0.500000
O O12 0.841217 0.567217 0.578184
O O13 0.379636 0.879636 0.250000
O O14 0.119522 0.559309 0.500000
O O15 0.000000 0.500000 0.423938
O O16 0.517640 0.379578 0.099333
O O17 0.422167 0.395202 0.000000
#
# Coordination Sequence:
#
# PCOD8314788 Si02
#       7
#    16  16  16  16  16  16  16
#     4  11  26  48  73 101 140 185 235 296 359 417
#     4  12  28  42  70 104 139 185 234 291 360 425
#     4  12  24  42  64  99 136 178 230 288 353 418
#     4  11  25  43  70 101 138 185 239 295 353 422
#     4  12  25  44  71 102 138 180 231 288 354 431
#     4  10  24  46  70 102 144 189 236 292 357 431
#     4   9  19  37  62  93 132 178 228 283 347 425
#
# _framework density 22.160845999999999
#
# number of rings (size 3 to 8) (size 9 to 14) (size 15 to 20)
#    0.000    1.000    1.429    4.714    6.000    1.714 
#    0.000    5.714    0.000    0.000    0.000    0.000 
#    0.000    0.000    0.000    0.000    0.000    0.000 
#
# Total GULP energy -1388602.113843 kJ/mol
# GULP energy per Si atom -12398.233159 kJ/mol
# Density = 2.211041 g / cm^3
# Si number density = 22.160846 Si / 1000 Ang^3
#
#
#
# Elastic Constant Matrix: (Units=GPa)
#
#
# Indices 1 2 3 4 5 6 
#
# 1 85.0470 34.8510 26.1899 0.0000 0.0000 0.0000
# 2 34.8510 85.0470 26.1899 0.0000 0.0000 0.0000
# 3 26.1899 26.1899 99.1164 0.0000 0.0000 0.0000
# 4 0.0000 0.0000 0.0000 27.6233 0.0000 0.0000
# 5 0.0000 0.0000 0.0000 0.0000 27.6233 0.0000
# 6 0.0000 0.0000 0.0000 0.0000 0.0000 34.6689
#
#
#
# Elastic Compliance Matrix: (Units=1/GPa)
#
#
# Indices 1 2 3 4 5 6 
#
# 1 0.014675 -0.005247 -0.002491 0.000000 0.000000 0.000000
# 2 -0.005247 0.014675 -0.002491 0.000000 0.000000 0.000000
# 3 -0.002491 -0.002491 0.011406 0.000000 0.000000 0.000000
# 4 0.000000 0.000000 0.000000 0.036201 0.000000 0.000000
# 5 0.000000 0.000000 0.000000 0.000000 0.036201 0.000000
# 6 0.000000 0.000000 0.000000 0.000000 0.000000 0.028844
#
#
# Mechanical properties :
#
#
# Convention : Reuss Voigt Hill
#
# Bulk Modulus (GPa) = 49.26640 49.29686 49.28163
# Shear Modulus (GPa) = 29.54590 30.11506 29.83048
#
# Velocity S-wave (km/s) = 3.65533 3.69037 3.67289
# Velocity P-wave (km/s) = 6.33204 6.36017 6.34612
#
# Compressibility (1/GPa) = 0.02029781
#
# Stress axis : x y z
#
# Youngs Moduli (GPa) = 68.14138 68.14138 87.67482
#
# Poissons Ratio (x) = 0.35751 0.21843
# Poissons Ratio (y) = 0.35751 0.21843
# Poissons Ratio (z) = 0.16977 0.16977
#
# Static dielectric constant tensor:
#      x y z
#    x 3.076900 0.000000 0.000000 
#    y 0.000000 3.076900 0.000000 
#    z 0.000000 0.000000 4.208580 
# 
# 
# High freq. dielectric constant tensor:
#      x y z
#    x 1.877250 0.000000 0.000000 
#    y 0.000000 1.877250 0.000000 
#    z 0.000000 0.000000 1.879040 
# 
# From -- ./inp_files/6448.got.cif
#   From: 2010.03.12/outbox.cif.g09.slc.cpg/sg128_4_cif.got.tgz:6448.got - 2010.04.06 17:11:05.
