data_PCOD8314444
_publ_section_title
;
Structure prediction by ZEFSAII (Michael W. Deem and Ramdas Pophale) SiO2 
 PCOD8314444
Probable space group: P 4/M B M
;
_chemical_formula_sum "Si O2"
_cell_formula_units_Z 88
_cell_length_a 15.100564
_cell_length_b 15.100564
_cell_length_c 18.642736
_cell_angle_alpha 90.000000
_cell_angle_beta 90.000000
_cell_angle_gamma 90.000000
_cell_volume 4251.047779
_symmetry_space_group_name_H-M "P 4/M B M"
_symmetry_group_IT_number 127
_symmetry_cell_setting 'tetragonal'
loop_
_space_group_symop_operation_xyz
x,y,z
-y,x,z
-x,-y,z
y,-x,z
1/2+x,1/2-y,-z
1/2-x,1/2+y,-z
1/2+y,1/2+x,-z
1/2-y,1/2-x,-z
-x,-y,-z
y,-x,-z
x,y,-z
-y,x,-z
1/2-x,1/2+y,z
1/2+x,1/2-y,z
1/2-y,1/2-x,z
1/2+y,1/2+x,z
loop_
_atom_site_type_symbol
_atom_site_label
_atom_site_fract_x
_atom_site_fract_y
_atom_site_fract_z
Si Si1 0.431094 0.068907 0.585208
Si Si2 0.859892 0.508140 0.080094
Si Si3 0.011180 0.758966 0.584467
Si Si4 0.275507 0.628878 0.916242
Si Si5 0.396393 0.603022 0.208132
Si Si6 0.818957 0.169809 0.650751
O O1 0.433258 0.066743 0.500000
O O2 0.335248 0.043680 0.613586
O O3 0.500000 0.000000 0.618686
O O4 0.933882 0.433882 0.074989
O O5 0.774199 0.460547 0.114648
O O6 0.903745 0.596256 0.118965
O O7 0.833190 0.537413 0.000000
O O8 0.993667 0.762288 0.500000
O O9 0.090471 0.825009 0.604838
O O10 0.920126 0.774790 0.624768
O O11 0.215075 0.715075 0.904594
O O12 0.365158 0.637020 0.870336
O O13 0.299543 0.618533 0.000000
O O14 0.376881 0.499264 0.217885
O O15 0.338378 0.656887 0.265746
O O16 0.752665 0.252665 0.637856
#
# Coordination Sequence:
#
# PCOD8314444 Si02
#       6
#     8  16  16  16  16  16
#     4   9  18  36  60  94 138 173 208 264 334 396
#     4   7  10  20  43  76 111 143 175 220 285 354
#     4  11  23  39  66 101 133 172 221 273 330 392
#     4   9  18  35  61  91 120 153 200 259 320 384
#     4  11  24  43  63  84 118 166 216 263 319 382
#     4  12  24  43  68  95 133 177 221 273 331 394
#
# _framework density 20.700779000000001
#
# number of rings (size 3 to 8) (size 9 to 14) (size 15 to 20)
#    0.000    2.091    2.727    3.273    0.000    2.909 
#    0.000    3.636    0.000    2.182    0.000    0.000 
#    0.000    0.000    0.000    0.000    0.000    0.000 
#
# Total GULP energy -1090358.283199 kJ/mol
# GULP energy per Si atom -12390.435036 kJ/mol
# Density = 2.065366 g / cm^3
# Si number density = 20.700779 Si / 1000 Ang^3
#
#
#
# Elastic Constant Matrix: (Units=GPa)
#
#
# Indices 1 2 3 4 5 6 
#
# 1 89.5886 29.3078 40.4930 0.0000 0.0000 0.0000
# 2 29.3078 89.5886 40.4930 0.0000 0.0000 0.0000
# 3 40.4930 40.4930 83.1759 0.0000 0.0000 0.0000
# 4 0.0000 0.0000 0.0000 29.1131 0.0000 0.0000
# 5 0.0000 0.0000 0.0000 0.0000 29.1131 0.0000
# 6 0.0000 0.0000 0.0000 0.0000 0.0000 29.2599
#
#
#
# Elastic Compliance Matrix: (Units=1/GPa)
#
#
# Indices 1 2 3 4 5 6 
#
# 1 0.014586 -0.002003 -0.006126 0.000000 0.000000 0.000000
# 2 -0.002003 0.014586 -0.006126 0.000000 0.000000 0.000000
# 3 -0.006126 -0.006126 0.017988 0.000000 0.000000 0.000000
# 4 0.000000 0.000000 0.000000 0.034349 0.000000 0.000000
# 5 0.000000 0.000000 0.000000 0.000000 0.034349 0.000000
# 6 0.000000 0.000000 0.000000 0.000000 0.000000 0.034176
#
#
# Mechanical properties :
#
#
# Convention : Reuss Voigt Hill
#
# Bulk Modulus (GPa) = 53.61901 53.66007 53.63954
# Shear Modulus (GPa) = 27.06206 27.63452 27.34829
#
# Velocity S-wave (km/s) = 3.61958 3.65766 3.63867
# Velocity P-wave (km/s) = 6.58989 6.61937 6.60464
#
# Compressibility (1/GPa) = 0.01865010
#
# Stress axis : x y z
#
# Youngs Moduli (GPa) = 68.55773 68.55784 55.59414
#
# Poissons Ratio (x) = 0.13731 0.34057
# Poissons Ratio (y) = 0.13731 0.34057
# Poissons Ratio (z) = 0.41999 0.41999
#
# Static dielectric constant tensor:
#      x y z
#    x 3.904520 0.000000 0.000000 
#    y 0.000000 3.904530 0.000000 
#    z 0.000000 0.000000 3.407220 
# 
# 
# High freq. dielectric constant tensor:
#      x y z
#    x 1.815620 0.000000 0.000000 
#    y 0.000000 1.815620 0.000000 
#    z 0.000000 0.000000 1.777670 
# 
# From -- ./inp_files/5668.got.cif
#   From: 2010.03.12/outbox.cif.g09.slc.cpg/sg127_3_cif.got.tgz:5668.got - 2010.04.06 17:03:15.
