data_PCOD8314260
_publ_section_title
;
Structure prediction by ZEFSAII (Michael W. Deem and Ramdas Pophale) SiO2 
 PCOD8314260
Probable space group: P 4/M B M
;
_chemical_formula_sum "Si O2"
_cell_formula_units_Z 88
_cell_length_a 12.304622
_cell_length_b 12.304622
_cell_length_c 28.168362
_cell_angle_alpha 90.000000
_cell_angle_beta 90.000000
_cell_angle_gamma 90.000000
_cell_volume 4264.794865
_symmetry_space_group_name_H-M "P 4/M B M"
_symmetry_group_IT_number 127
_symmetry_cell_setting 'tetragonal'
loop_
_space_group_symop_operation_xyz
x,y,z
-y,x,z
-x,-y,z
y,-x,z
1/2+x,1/2-y,-z
1/2-x,1/2+y,-z
1/2+y,1/2+x,-z
1/2-y,1/2-x,-z
-x,-y,-z
y,-x,-z
x,y,-z
-y,x,-z
1/2-x,1/2+y,z
1/2+x,1/2-y,z
1/2-y,1/2-x,z
1/2+y,1/2+x,z
loop_
_atom_site_type_symbol
_atom_site_label
_atom_site_fract_x
_atom_site_fract_y
_atom_site_fract_z
Si Si1 0.326906 0.530704 0.708712
Si Si2 0.534100 0.676794 0.400672
Si Si3 0.878440 0.205003 0.947979
Si Si4 0.673193 0.000276 0.791246
Si Si5 0.911019 0.411019 0.556084
Si Si6 0.757042 0.561804 0.888025
O O1 0.375977 0.413107 0.719431
O O2 0.289627 0.539224 0.654357
O O3 0.227317 0.547663 0.744008
O O4 0.414923 0.625778 0.412620
O O5 0.556375 0.788409 0.428590
O O6 0.766198 0.266198 0.955988
O O7 0.855414 0.109334 0.909696
O O8 0.964379 0.286401 0.923929
O O9 0.918598 0.163028 0.000000
O O10 0.610896 0.110896 0.777393
O O11 0.759672 0.021736 0.833665
O O12 0.589138 0.910863 0.810644
O O13 0.912122 0.412122 0.500000
O O14 0.000000 0.500000 0.575082
O O15 0.856982 0.643019 0.888326
#
# Coordination Sequence:
#
# PCOD8314260 Si02
#       6
#    16  16  16  16   8  16
#     4   9  20  39  62  90 124 160 206 253 302 369
#     4   9  21  44  69  94 130 181 230 277 335 402
#     4  10  21  37  59  83 105 138 185 231 284 347
#     4  10  22  37  55  85 119 155 199 237 290 362
#     4  11  26  42  64 103 143 177 225 288 341 391
#     4  10  22  39  56  78 113 148 181 233 287 347
#
# _framework density 20.634052000000001
#
# number of rings (size 3 to 8) (size 9 to 14) (size 15 to 20)
#    0.000    2.273    0.000    2.182    5.091    4.727 
#    3.273    2.727    0.000    0.000    0.000    0.000 
#    0.000    0.000    0.000    0.000    0.000    0.000 
#
# Total GULP energy -1090464.802902 kJ/mol
# GULP energy per Si atom -12391.645488 kJ/mol
# Density = 2.058709 g / cm^3
# Si number density = 20.634052 Si / 1000 Ang^3
#
#
#
# Elastic Constant Matrix: (Units=GPa)
#
#
# Indices 1 2 3 4 5 6 
#
# 1 93.7449 30.8353 49.7006 0.0000 0.0000 0.0000
# 2 30.8353 93.7449 49.7006 0.0000 0.0000 0.0000
# 3 49.7006 49.7006 113.8499 0.0000 0.0000 0.0000
# 4 0.0000 0.0000 0.0000 33.6988 0.0000 0.0000
# 5 0.0000 0.0000 0.0000 0.0000 33.6988 0.0000
# 6 0.0000 0.0000 0.0000 0.0000 0.0000 19.9596
#
#
#
# Elastic Compliance Matrix: (Units=1/GPa)
#
#
# Indices 1 2 3 4 5 6 
#
# 1 0.014107 -0.001789 -0.005377 0.000000 0.000000 0.000000
# 2 -0.001789 0.014107 -0.005377 0.000000 0.000000 0.000000
# 3 -0.005377 -0.005377 0.013478 0.000000 0.000000 0.000000
# 4 0.000000 0.000000 0.000000 0.029675 0.000000 0.000000
# 5 0.000000 0.000000 0.000000 0.000000 0.029675 0.000000
# 6 0.000000 0.000000 0.000000 0.000000 0.000000 0.050101
#
#
# Mechanical properties :
#
#
# Convention : Reuss Voigt Hill
#
# Bulk Modulus (GPa) = 60.22468 62.42361 61.32415
# Shear Modulus (GPa) = 27.50833 28.87833 28.19333
#
# Velocity S-wave (km/s) = 3.65520 3.74511 3.70043
# Velocity P-wave (km/s) = 6.86035 7.00139 6.93123
#
# Compressibility (1/GPa) = 0.01660449
#
# Stress axis : x y z
#
# Youngs Moduli (GPa) = 70.88921 70.88921 74.19440
#
# Poissons Ratio (x) = 0.12684 0.39894
# Poissons Ratio (y) = 0.12684 0.39894
# Poissons Ratio (z) = 0.38117 0.38117
#
# Static dielectric constant tensor:
#      x y z
#    x 3.662470 0.000000 0.000000 
#    y 0.000000 3.662470 0.000000 
#    z 0.000000 0.000000 3.802830 
# 
# 
# High freq. dielectric constant tensor:
#      x y z
#    x 1.801080 0.000000 0.000000 
#    y 0.000000 1.801080 0.000000 
#    z 0.000000 0.000000 1.811470 
# 
# From -- ./inp_files/6487.got.cif
#   From: 2010.03.12/outbox.cif.g09.slc.cpg/sg127_4_cif.got.tgz:6487.got - 2010.04.06 17:03:15.
