data_PCOD8314221
_publ_section_title
;
Structure prediction by ZEFSAII (Michael W. Deem and Ramdas Pophale) SiO2 
 PCOD8314221
Probable space group: P 4/M B M
;
_chemical_formula_sum "Si O2"
_cell_formula_units_Z 96
_cell_length_a 24.301746
_cell_length_b 24.301746
_cell_length_c 8.716699
_cell_angle_alpha 90.000000
_cell_angle_beta 90.000000
_cell_angle_gamma 90.000000
_cell_volume 5147.863280
_symmetry_space_group_name_H-M "P 4/M B M"
_symmetry_group_IT_number 127
_symmetry_cell_setting 'tetragonal'
loop_
_space_group_symop_operation_xyz
x,y,z
-y,x,z
-x,-y,z
y,-x,z
1/2+x,1/2-y,-z
1/2-x,1/2+y,-z
1/2+y,1/2+x,-z
1/2-y,1/2-x,-z
-x,-y,-z
y,-x,-z
x,y,-z
-y,x,-z
1/2-x,1/2+y,z
1/2+x,1/2-y,z
1/2-y,1/2-x,z
1/2+y,1/2+x,z
loop_
_atom_site_type_symbol
_atom_site_label
_atom_site_fract_x
_atom_site_fract_y
_atom_site_fract_z
Si Si1 0.938579 0.063467 0.681202
Si Si2 0.435468 0.152330 0.824820
Si Si3 0.850520 0.852929 0.819276
Si Si4 0.266099 0.145844 0.321513
Si Si5 0.230352 0.356265 0.817645
Si Si6 0.357047 0.942533 0.182416
O O1 0.934325 0.068058 0.500000
O O2 0.896852 0.107079 0.752403
O O3 0.001276 0.076909 0.733782
O O4 0.407182 0.092819 0.820876
O O5 0.404647 0.194049 0.713739
O O6 0.496001 0.145291 0.753355
O O7 0.436223 0.175052 0.000000
O O8 0.787968 0.866112 0.776657
O O9 0.861835 0.791891 0.750871
O O10 0.857548 0.854496 0.000000
O O11 0.251047 0.146359 0.500000
O O12 0.297038 0.202963 0.274161
O O13 0.199309 0.300692 0.758626
O O14 0.196801 0.409539 0.760990
O O15 0.232628 0.354065 0.000000
O O16 0.411587 0.911587 0.244469
O O17 0.358796 0.943600 0.000000
#
# Coordination Sequence:
#
# PCOD8314221 Si02
#       6
#    16  16  16  16  16  16
#     4   9  20  40  60  76 102 140 175 209 254 307
#     4   9  17  29  47  73 103 133 168 212 257 298
#     4  11  21  32  53  82 105 128 166 215 264 316
#     4  10  21  36  52  71 100 138 176 213 257 312
#     4   8  15  28  45  68 100 133 162 199 251 304
#     4   8  14  26  45  70 101 134 166 204 252 302
#
# _framework density 18.648513999999999
#
# number of rings (size 3 to 8) (size 9 to 14) (size 15 to 20)
#    0.000    2.833    0.000    3.000    0.000    4.000 
#    0.000    4.167    0.000    1.500    0.000    7.000 
#    0.000    0.000    0.000    0.000    0.000    0.000 
#
# Total GULP energy -1189870.690638 kJ/mol
# GULP energy per Si atom -12394.486361 kJ/mol
# Density = 1.860607 g / cm^3
# Si number density = 18.648514 Si / 1000 Ang^3
#
#
#
# Elastic Constant Matrix: (Units=GPa)
#
#
# Indices 1 2 3 4 5 6 
#
# 1 132.6847 95.3615 23.2724 0.0000 0.0000 0.0000
# 2 95.3615 132.6847 23.2724 0.0000 0.0000 0.0000
# 3 23.2724 23.2724 25.3259 0.0000 0.0000 0.0000
# 4 0.0000 0.0000 0.0000 19.8573 0.0000 0.0000
# 5 0.0000 0.0000 0.0000 0.0000 19.8573 0.0000
# 6 0.0000 0.0000 0.0000 0.0000 0.0000 27.0969
#
#
#
# Elastic Compliance Matrix: (Units=1/GPa)
#
#
# Indices 1 2 3 4 5 6 
#
# 1 0.016095 -0.010698 -0.004960 0.000000 0.000000 0.000000
# 2 -0.010698 0.016095 -0.004960 0.000000 0.000000 0.000000
# 3 -0.004960 -0.004960 0.048600 0.000000 0.000000 0.000000
# 4 0.000000 0.000000 0.000000 0.050359 0.000000 0.000000
# 5 0.000000 0.000000 0.000000 0.000000 0.050359 0.000000
# 6 0.000000 0.000000 0.000000 0.000000 0.000000 0.036905
#
#
# Mechanical properties :
#
#
# Convention : Reuss Voigt Hill
#
# Bulk Modulus (GPa) = 25.28048 63.83422 44.55735
# Shear Modulus (GPa) = 18.32617 23.28157 20.80387
#
# Velocity S-wave (km/s) = 3.13823 3.53716 3.34365
# Velocity P-wave (km/s) = 5.16885 7.14048 6.23312
#
# Compressibility (1/GPa) = 0.03955621
#
# Stress axis : x y z
#
# Youngs Moduli (GPa) = 62.13035 62.13035 20.57597
#
# Poissons Ratio (x) = 0.66466 0.10205
# Poissons Ratio (y) = 0.66466 0.10205
# Poissons Ratio (z) = 0.30815 0.30815
#
# Static dielectric constant tensor:
#      x y z
#    x 3.656900 0.000000 0.000000 
#    y 0.000000 3.656900 0.000000 
#    z 0.000000 0.000000 3.033540 
# 
# 
# High freq. dielectric constant tensor:
#      x y z
#    x 1.728910 0.000000 0.000000 
#    y 0.000000 1.728910 0.000000 
#    z 0.000000 0.000000 1.687720 
# 
# From -- ./inp_files/1997.got.cif
#   From: 2010.03.12/outbox.cif.g09.slc.cpg/sg127_1_cif.got.tgz:1997.got - 2010.04.06 17:03:15.
