data_PCOD8314162
_publ_section_title
;
Structure prediction by ZEFSAII (Michael W. Deem and Ramdas Pophale) SiO2 
 PCOD8314162
Probable space group: P 4/M B M
;
_chemical_formula_sum "Si O2"
_cell_formula_units_Z 72
_cell_length_a 21.264105
_cell_length_b 21.264105
_cell_length_c 8.474817
_cell_angle_alpha 90.000000
_cell_angle_beta 90.000000
_cell_angle_gamma 90.000000
_cell_volume 3831.991573
_symmetry_space_group_name_H-M "P 4/M B M"
_symmetry_group_IT_number 127
_symmetry_cell_setting 'tetragonal'
loop_
_space_group_symop_operation_xyz
x,y,z
-y,x,z
-x,-y,z
y,-x,z
1/2+x,1/2-y,-z
1/2-x,1/2+y,-z
1/2+y,1/2+x,-z
1/2-y,1/2-x,-z
-x,-y,-z
y,-x,-z
x,y,-z
-y,x,-z
1/2-x,1/2+y,z
1/2+x,1/2-y,z
1/2-y,1/2-x,z
1/2+y,1/2+x,z
loop_
_atom_site_type_symbol
_atom_site_label
_atom_site_fract_x
_atom_site_fract_y
_atom_site_fract_z
Si Si1 0.488610 0.810663 0.812359
Si Si2 0.644510 0.407202 0.816987
Si Si3 0.038681 0.179282 0.683087
Si Si4 0.551256 0.051256 0.187753
Si Si5 0.625646 0.778544 0.815230
O O1 0.450699 0.751063 0.741902
O O2 0.463815 0.878204 0.751173
O O3 0.559547 0.803865 0.748424
O O4 0.483700 0.806093 0.000000
O O5 0.584060 0.367250 0.776426
O O6 0.651389 0.469704 0.713460
O O7 0.705227 0.364053 0.778608
O O8 0.643518 0.427525 0.000000
O O9 0.054784 0.176137 0.500000
O O10 0.500000 0.000000 0.251966
O O11 0.549207 0.049207 0.000000
O O12 0.682249 0.817752 0.735123
O O13 0.624853 0.791031 0.000000
#
# Coordination Sequence:
#
# PCOD8314162 Si02
#       5
#    16  16  16   8  16
#     4   9  17  31  52  78 109 143 180 225 273 315
#     4  10  20  36  58  81 106 136 177 223 271 320
#     4  11  22  37  55  77 109 143 178 217 270 328
#     4   9  16  28  53  87 113 141 191 243 275 308
#     4   8  14  27  50  78 103 130 169 219 268 309
#
# _framework density 18.789185
#
# number of rings (size 3 to 8) (size 9 to 14) (size 15 to 20)
#    0.000    2.556    0.000    4.667    0.000    3.111 
#    2.000    2.778    0.000   22.667    0.000    0.000 
#    0.000    0.000    0.000    0.000    0.000    0.000 
#
# Total GULP energy -892392.638518 kJ/mol
# GULP energy per Si atom -12394.342202 kJ/mol
# Density = 1.874642 g / cm^3
# Si number density = 18.789185 Si / 1000 Ang^3
#
#
#
# Elastic Constant Matrix: (Units=GPa)
#
#
# Indices 1 2 3 4 5 6 
#
# 1 96.9421 60.3107 7.6081 0.0000 0.0000 0.0000
# 2 60.3107 96.9421 7.6081 0.0000 0.0000 0.0000
# 3 7.6081 7.6081 35.5299 0.0000 0.0000 0.0000
# 4 0.0000 0.0000 0.0000 11.9779 0.0000 0.0000
# 5 0.0000 0.0000 0.0000 0.0000 11.9779 0.0000
# 6 0.0000 0.0000 0.0000 0.0000 0.0000 38.6854
#
#
#
# Elastic Compliance Matrix: (Units=1/GPa)
#
#
# Indices 1 2 3 4 5 6 
#
# 1 0.016896 -0.010403 -0.001391 0.000000 0.000000 0.000000
# 2 -0.010403 0.016896 -0.001391 0.000000 0.000000 0.000000
# 3 -0.001391 -0.001391 0.028741 0.000000 0.000000 0.000000
# 4 0.000000 0.000000 0.000000 0.083487 0.000000 0.000000
# 5 0.000000 0.000000 0.000000 0.000000 0.083487 0.000000
# 6 0.000000 0.000000 0.000000 0.000000 0.000000 0.025850
#
#
# Mechanical properties :
#
#
# Convention : Reuss Voigt Hill
#
# Bulk Modulus (GPa) = 27.65011 42.27421 34.96216
# Shear Modulus (GPa) = 17.01953 22.78738 19.90346
#
# Velocity S-wave (km/s) = 3.01294 3.48630 3.25823
# Velocity P-wave (km/s) = 5.18186 6.22525 5.72736
#
# Compressibility (1/GPa) = 0.03616622
#
# Stress axis : x y z
#
# Youngs Moduli (GPa) = 59.18438 59.18438 34.79371
#
# Poissons Ratio (x) = 0.61567 0.04838
# Poissons Ratio (y) = 0.61567 0.04838
# Poissons Ratio (z) = 0.08230 0.08230
#
# Static dielectric constant tensor:
#      x y z
#    x 3.584730 0.000000 0.000000 
#    y 0.000000 3.584730 0.000000 
#    z 0.000000 0.000000 3.073470 
# 
# 
# High freq. dielectric constant tensor:
#      x y z
#    x 1.731590 0.000000 0.000000 
#    y 0.000000 1.731590 0.000000 
#    z 0.000000 0.000000 1.697440 
# 
# From -- ./inp_files/1546.got.cif
#   From: 2010.03.12/outbox.cif.g09.slc.cpg/sg127_1_cif.got.tgz:1546.got - 2010.04.06 17:03:15.
