data_PCOD8314740
_publ_section_title
;
Structure prediction by ZEFSAII (Michael W. Deem and Ramdas Pophale) SiO2 
 PCOD8314740
Probable space group: P 4/M N C
;
_chemical_formula_sum "Si O2"
_cell_formula_units_Z 64
_cell_length_a 11.380840
_cell_length_b 11.380840
_cell_length_c 27.367577
_cell_angle_alpha 90.000000
_cell_angle_beta 90.000000
_cell_angle_gamma 90.000000
_cell_volume 3544.744882
_symmetry_space_group_name_H-M "P 4/M N C"
_symmetry_group_IT_number 128
_symmetry_cell_setting 'tetragonal'
loop_
_space_group_symop_operation_xyz
x,y,z
-y,x,z
-x,-y,z
y,-x,z
1/2+x,1/2-y,1/2-z
1/2-x,1/2+y,1/2-z
1/2+y,1/2+x,1/2-z
1/2-y,1/2-x,1/2-z
-x,-y,-z
y,-x,-z
x,y,-z
-y,x,-z
1/2-x,1/2+y,1/2+z
1/2+x,1/2-y,1/2+z
1/2-y,1/2-x,1/2+z
1/2+y,1/2+x,1/2+z
loop_
_atom_site_type_symbol
_atom_site_label
_atom_site_fract_x
_atom_site_fract_y
_atom_site_fract_z
Si Si1 0.685048 0.454921 0.943186
Si Si2 0.319717 0.993035 0.734444
Si Si3 0.182949 0.043943 0.823413
Si Si4 0.882288 0.429126 0.866423
O O1 0.639685 0.584989 0.929845
O O2 0.802797 0.424361 0.914209
O O3 0.716531 0.447232 0.000000
O O4 0.359442 0.859442 0.750000
O O5 0.426525 0.073476 0.750000
O O6 0.205412 0.035844 0.764535
O O7 0.304232 0.007957 0.676174
O O8 0.298701 0.077847 0.852553
O O9 0.085898 0.139375 0.837968
O O10 0.000000 0.500000 0.877873
#
# Coordination Sequence:
#
# PCOD8314740 Si02
#       4
#    16  16  16  16
#     4   9  21  41  62  88 117 143 184 247 304 344
#     4   9  16  33  49  76 109 145 186 230 272 315
#     4  10  22  36  52  79 119 158 190 232 282 339
#     4  11  21  35  60  86 112 148 198 235 283 349
#
# _framework density 18.054897
#
# number of rings (size 3 to 8) (size 9 to 14) (size 15 to 20)
#    0.000    2.250    5.000    0.750    3.500    5.500 
#    0.000    2.500    0.000    0.000    0.000    1.750 
#    0.000    0.000    0.000    0.000    0.000    0.000 
#
# Total GULP energy -793136.042388 kJ/mol
# GULP energy per Si atom -12392.750662 kJ/mol
# Density = 1.801380 g / cm^3
# Si number density = 18.054897 Si / 1000 Ang^3
#
#
#
# Elastic Constant Matrix: (Units=GPa)
#
#
# Indices 1 2 3 4 5 6 
#
# 1 108.8568 60.7704 56.7653 0.0000 0.0000 0.0000
# 2 60.7704 108.8570 56.7654 0.0000 0.0000 0.0000
# 3 56.7653 56.7654 86.7135 0.0000 0.0000 0.0000
# 4 0.0000 0.0000 0.0000 25.1572 0.0000 0.0000
# 5 0.0000 0.0000 0.0000 0.0000 25.1574 0.0000
# 6 0.0000 0.0000 0.0000 0.0000 0.0000 19.0745
#
#
#
# Elastic Compliance Matrix: (Units=1/GPa)
#
#
# Indices 1 2 3 4 5 6 
#
# 1 0.015644 -0.005152 -0.006869 0.000000 0.000000 0.000000
# 2 -0.005152 0.015644 -0.006869 0.000000 0.000000 0.000000
# 3 -0.006869 -0.006869 0.020525 0.000000 0.000000 0.000000
# 4 0.000000 0.000000 0.000000 0.039750 0.000000 0.000000
# 5 0.000000 0.000000 0.000000 0.000000 0.039750 0.000000
# 6 0.000000 0.000000 0.000000 0.000000 0.000000 0.052426
#
#
# Mechanical properties :
#
#
# Convention : Reuss Voigt Hill
#
# Bulk Modulus (GPa) = 71.24890 72.55884 71.90387
# Shear Modulus (GPa) = 22.10475 22.55291 22.32883
#
# Velocity S-wave (km/s) = 3.50281 3.53814 3.52052
# Velocity P-wave (km/s) = 7.47714 7.54761 7.51245
#
# Compressibility (1/GPa) = 0.01403530
#
# Stress axis : x y z
#
# Youngs Moduli (GPa) = 63.92158 63.92167 48.72070
#
# Poissons Ratio (x) = 0.32931 0.33465
# Poissons Ratio (y) = 0.32931 0.33465
# Poissons Ratio (z) = 0.43906 0.43906
#
# Static dielectric constant tensor:
#      x y z
#    x 3.714900 0.000000 0.000000 
#    y 0.000000 3.714960 0.000000 
#    z 0.000000 0.000000 3.329750 
# 
# 
# High freq. dielectric constant tensor:
#      x y z
#    x 1.697650 0.000000 0.000000 
#    y 0.000000 1.697650 0.000000 
#    z 0.000000 0.000000 1.675490 
# 
# From -- ./inp_files/6218.got.cif
#   From: 2010.03.12/outbox.cif.g09.slc.cpg/sg128_4_cif.got.tgz:6218.got - 2010.04.06 17:11:05.
