data_PCOD8314420
_publ_section_title
;
Structure prediction by ZEFSAII (Michael W. Deem and Ramdas Pophale) SiO2 
 PCOD8314420
Probable space group: P 4/M B M
;
_chemical_formula_sum "Si O2"
_cell_formula_units_Z 56
_cell_length_a 14.818072
_cell_length_b 14.818072
_cell_length_c 12.435784
_cell_angle_alpha 90.000000
_cell_angle_beta 90.000000
_cell_angle_gamma 90.000000
_cell_volume 2730.590478
_symmetry_space_group_name_H-M "P 4/M B M"
_symmetry_group_IT_number 127
_symmetry_cell_setting 'tetragonal'
loop_
_space_group_symop_operation_xyz
x,y,z
-y,x,z
-x,-y,z
y,-x,z
1/2+x,1/2-y,-z
1/2-x,1/2+y,-z
1/2+y,1/2+x,-z
1/2-y,1/2-x,-z
-x,-y,-z
y,-x,-z
x,y,-z
-y,x,-z
1/2-x,1/2+y,z
1/2+x,1/2-y,z
1/2-y,1/2-x,z
1/2+y,1/2+x,z
loop_
_atom_site_type_symbol
_atom_site_label
_atom_site_fract_x
_atom_site_fract_y
_atom_site_fract_z
Si Si1 0.686038 0.664487 0.286629
Si Si2 0.575396 0.924605 0.624063
Si Si3 0.763117 0.478991 0.222355
Si Si4 0.903827 0.115508 0.500000
Si Si5 0.995489 0.354449 0.000000
O O1 0.779464 0.720537 0.285565
O O2 0.700292 0.560316 0.260333
O O3 0.613383 0.707175 0.204330
O O4 0.637414 0.670051 0.401030
O O5 0.600506 0.899495 0.500000
O O6 0.536513 0.839398 0.687946
O O7 0.500000 0.000000 0.623962
O O8 0.797870 0.510041 0.106994
O O9 0.011385 0.125785 0.500000
O O10 0.894914 0.394914 0.000000
O O11 0.067316 0.432685 0.000000
#
# Coordination Sequence:
#
# PCOD8314420 Si02
#       5
#    16   8  16   8   8
#     4  12  25  43  67  99 141 182 232 289 349 417
#     4  11  24  43  65  99 141 173 229 294 346 405
#     4  12  26  44  69 103 136 185 234 284 354 415
#     4  11  23  42  68  94 135 191 230 276 340 430
#     4  11  22  44  74  99 134 179 235 296 351 411
#
# _framework density 20.508384
#
# number of rings (size 3 to 8) (size 9 to 14) (size 15 to 20)
#    0.000    0.429    5.714    3.000    4.000    1.714 
#    0.000    2.857    0.000    1.714    0.000    0.000 
#    0.000    0.000    0.000    0.000    0.000    0.000 
#
# Total GULP energy -694512.104936 kJ/mol
# GULP energy per Si atom -12402.001874 kJ/mol
# Density = 2.046171 g / cm^3
# Si number density = 20.508384 Si / 1000 Ang^3
#
#
#
# Elastic Constant Matrix: (Units=GPa)
#
#
# Indices 1 2 3 4 5 6 
#
# 1 94.9353 30.2419 22.7214 0.0000 0.0000 0.0000
# 2 30.2419 94.9340 22.7199 0.0000 0.0000 0.0000
# 3 22.7214 22.7199 125.2703 0.0000 0.0000 0.0000
# 4 0.0000 0.0000 0.0000 32.4512 0.0000 0.0000
# 5 0.0000 0.0000 0.0000 0.0000 32.4560 0.0000
# 6 0.0000 0.0000 0.0000 0.0000 0.0000 46.8134
#
#
#
# Elastic Compliance Matrix: (Units=1/GPa)
#
#
# Indices 1 2 3 4 5 6 
#
# 1 0.012005 -0.003453 -0.001551 0.000000 0.000000 0.000000
# 2 -0.003453 0.012005 -0.001551 0.000000 0.000000 0.000000
# 3 -0.001551 -0.001551 0.008545 0.000000 0.000000 0.000000
# 4 0.000000 0.000000 0.000000 0.030815 0.000000 0.000000
# 5 0.000000 0.000000 0.000000 0.000000 0.030811 0.000000
# 6 0.000000 0.000000 0.000000 0.000000 0.000000 0.021361
#
#
# Mechanical properties :
#
#
# Convention : Reuss Voigt Hill
#
# Bulk Modulus (GPa) = 51.42793 51.83402 51.63097
# Shear Modulus (GPa) = 37.00021 38.30789 37.65405
#
# Velocity S-wave (km/s) = 4.25214 4.32663 4.28954
# Velocity P-wave (km/s) = 7.01702 7.09147 7.05434
#
# Compressibility (1/GPa) = 0.01944469
#
# Stress axis : x y z
#
# Youngs Moduli (GPa) = 83.30083 83.30013 117.02232
#
# Poissons Ratio (x) = 0.28763 0.18152
# Poissons Ratio (y) = 0.28763 0.18150
# Poissons Ratio (z) = 0.12921 0.12920
#
# Static dielectric constant tensor:
#      x y z
#    x 3.818230 0.000000 0.000000 
#    y 0.000000 3.818230 0.000000 
#    z 0.000000 0.000000 3.685780 
# 
# 
# High freq. dielectric constant tensor:
#      x y z
#    x 1.812560 0.000000 0.000000 
#    y 0.000000 1.812560 0.000000 
#    z 0.000000 0.000000 1.799910 
# 
# From -- ./inp_files/2885.got.cif
#   From: 2010.03.12/outbox.cif.g09.slc.cpg/sg127_2_cif.got.tgz:2885.got - 2010.04.06 17:03:15.
