data_PCOD8314430
_publ_section_title
;
Structure prediction by ZEFSAII (Michael W. Deem and Ramdas Pophale) SiO2 
 PCOD8314430
Probable space group: P 4/M B M
;
_chemical_formula_sum "Si O2"
_cell_formula_units_Z 96
_cell_length_a 15.139880
_cell_length_b 15.139880
_cell_length_c 23.296579
_cell_angle_alpha 90.000000
_cell_angle_beta 90.000000
_cell_angle_gamma 90.000000
_cell_volume 5339.947870
_symmetry_space_group_name_H-M "P 4/M B M"
_symmetry_group_IT_number 127
_symmetry_cell_setting 'tetragonal'
loop_
_space_group_symop_operation_xyz
x,y,z
-y,x,z
-x,-y,z
y,-x,z
1/2+x,1/2-y,-z
1/2-x,1/2+y,-z
1/2+y,1/2+x,-z
1/2-y,1/2-x,-z
-x,-y,-z
y,-x,-z
x,y,-z
-y,x,-z
1/2-x,1/2+y,z
1/2+x,1/2-y,z
1/2-y,1/2-x,z
1/2+y,1/2+x,z
loop_
_atom_site_type_symbol
_atom_site_label
_atom_site_fract_x
_atom_site_fract_y
_atom_site_fract_z
Si Si1 0.060229 0.292251 0.066940
Si Si2 0.508268 0.742860 0.389435
Si Si3 0.814948 0.172777 0.434405
Si Si4 0.356236 0.476960 0.279763
Si Si5 0.072743 0.572743 0.933627
Si Si6 0.960307 0.860892 0.151768
Si Si7 0.426426 0.073575 0.565795
O O1 0.141642 0.358359 0.075934
O O2 0.074656 0.207077 0.104991
O O3 0.967496 0.335740 0.090392
O O4 0.052983 0.266081 0.000000
O O5 0.592514 0.680548 0.401057
O O6 0.427101 0.720433 0.431225
O O7 0.472470 0.724940 0.324688
O O8 0.536480 0.843503 0.399125
O O9 0.833846 0.196108 0.500000
O O10 0.741981 0.241981 0.409777
O O11 0.428211 0.401007 0.289398
O O12 0.319000 0.459790 0.215717
O O13 0.000000 0.500000 0.922794
O O14 0.087894 0.587894 0.000000
O O15 0.059406 0.893032 0.142410
O O16 0.400361 0.099640 0.500000
O O17 0.500000 0.000000 0.564529
#
# Coordination Sequence:
#
# PCOD8314430 Si02
#       7
#    16  16  16  16   8  16   8
#     4   9  17  32  54  81 113 145 181 229 277 327
#     4  12  21  37  61  83 111 149 188 237 290 343
#     4  11  23  37  55  85 118 146 185 235 287 347
#     4   9  18  36  58  81 106 142 184 228 283 336
#     4   7  12  26  49  73 101 141 176 204 260 322
#     4   9  19  36  57  77 108 150 188 226 275 337
#     4  11  24  42  59  79 117 162 192 221 280 357
#
# _framework density 17.977703000000002
#
# number of rings (size 3 to 8) (size 9 to 14) (size 15 to 20)
#    0.000    2.167    2.500    4.000    0.000    2.333 
#    1.500    4.167    5.500    1.000    0.000    0.000 
#    0.000    0.000    0.000    0.000    0.000    0.000 
#
# Total GULP energy -1189543.139960 kJ/mol
# GULP energy per Si atom -12391.074375 kJ/mol
# Density = 1.793678 g / cm^3
# Si number density = 17.977703 Si / 1000 Ang^3
#
#
#
# Elastic Constant Matrix: (Units=GPa)
#
#
# Indices 1 2 3 4 5 6 
#
# 1 76.5654 23.9298 38.1357 0.0000 0.0000 0.0000
# 2 23.9298 76.5655 38.1358 0.0000 0.0000 0.0000
# 3 38.1357 38.1358 106.6558 0.0000 0.0000 0.0000
# 4 0.0000 0.0000 0.0000 25.1687 0.0000 0.0000
# 5 0.0000 0.0000 0.0000 0.0000 25.1683 0.0000
# 6 0.0000 0.0000 0.0000 0.0000 0.0000 25.5415
#
#
#
# Elastic Compliance Matrix: (Units=1/GPa)
#
#
# Indices 1 2 3 4 5 6 
#
# 1 0.016328 -0.002671 -0.004883 0.000000 0.000000 0.000000
# 2 -0.002671 0.016328 -0.004883 0.000000 0.000000 0.000000
# 3 -0.004883 -0.004883 0.012868 0.000000 0.000000 0.000000
# 4 0.000000 0.000000 0.000000 0.039732 0.000000 0.000000
# 5 0.000000 0.000000 0.000000 0.000000 0.039732 0.000000
# 6 0.000000 0.000000 0.000000 0.000000 0.000000 0.039152
#
#
# Mechanical properties :
#
#
# Convention : Reuss Voigt Hill
#
# Bulk Modulus (GPa) = 48.42828 51.13215 49.78021
# Shear Modulus (GPa) = 25.52363 25.81473 25.66918
#
# Velocity S-wave (km/s) = 3.77203 3.79348 3.78277
# Velocity P-wave (km/s) = 6.77993 6.90587 6.84319
#
# Compressibility (1/GPa) = 0.02064909
#
# Stress axis : x y z
#
# Youngs Moduli (GPa) = 61.24577 61.24579 77.71248
#
# Poissons Ratio (x) = 0.16358 0.37948
# Poissons Ratio (y) = 0.16358 0.37948
# Poissons Ratio (z) = 0.29907 0.29907
#
# Static dielectric constant tensor:
#      x y z
#    x 3.282210 0.000000 0.000000 
#    y 0.000000 3.282210 0.000000 
#    z 0.000000 0.000000 3.219290 
# 
# 
# High freq. dielectric constant tensor:
#      x y z
#    x 1.692120 0.000000 0.000000 
#    y 0.000000 1.692120 0.000000 
#    z 0.000000 0.000000 1.683040 
# 
# From -- ./inp_files/6123.got.cif
#   From: 2010.03.12/outbox.cif.g09.slc.cpg/sg127_4_cif.got.tgz:6123.got - 2010.04.06 17:03:15.
