data_PCOD8314983
_publ_section_title
;
Structure prediction by ZEFSAII (Michael W. Deem and Ramdas Pophale) SiO2 
 PCOD8314983
Probable space group: P 4/N M M
;
_chemical_formula_sum "Si O2"
_cell_formula_units_Z 80
_cell_length_a 13.827463
_cell_length_b 13.827463
_cell_length_c 25.897095
_cell_angle_alpha 90.000000
_cell_angle_beta 90.000000
_cell_angle_gamma 90.000000
_cell_volume 4951.491753
_symmetry_space_group_name_H-M "P 4/N M M"
_symmetry_group_IT_number 129
_symmetry_cell_setting 'tetragonal'
loop_
_space_group_symop_operation_xyz
x,y,z
1/2-y,x,z
1/2-x,1/2-y,z
y,1/2-x,z
1/2+x,-y,-z
-x,1/2+y,-z
1/2+y,1/2+x,-z
-y,-x,-z
-x,-y,-z
1/2+y,-x,-z
1/2+x,1/2+y,-z
-y,1/2+x,-z
1/2-x,y,z
x,1/2-y,z
1/2-y,1/2-x,z
y,x,z
loop_
_atom_site_type_symbol
_atom_site_label
_atom_site_fract_x
_atom_site_fract_y
_atom_site_fract_z
Si Si1 0.635193 0.357937 0.746304
Si Si2 0.364470 0.857649 0.139479
Si Si3 0.022202 0.865242 0.958083
Si Si4 0.516033 0.135640 0.348294
Si Si5 0.642650 0.134970 0.443436
O O1 0.750000 0.356467 0.743329
O O2 0.595669 0.250000 0.735486
O O3 0.601234 0.392193 0.803472
O O4 0.595618 0.429131 0.702414
O O5 0.250000 0.850320 0.138211
O O6 0.406528 0.750000 0.127569
O O7 0.398356 0.935198 0.097239
O O8 0.005427 0.750000 0.962345
O O9 0.100915 0.899086 0.000000
O O10 0.919784 0.919784 0.966264
O O11 0.503989 0.250000 0.348056
O O12 0.572842 0.097207 0.398552
O O13 0.409504 0.090497 0.348891
O O14 0.602974 0.102974 0.500000
O O15 0.750000 0.092233 0.433669
O O16 0.648574 0.250000 0.442071
#
# Coordination Sequence:
#
# PCOD8314983 Si02
#       5
#    16  16  16  16  16
#     4   8  14  26  44  63  81 103 136 180 222 250
#     4   8  14  26  45  66  85 107 137 175 219 262
#     4  10  20  32  47  68  93 122 156 191 227 270
#     4  10  19  28  39  57  83 115 145 170 201 248
#     4   8  14  26  44  63  80  98 126 171 223 263
#
# _framework density 16.156746999999999
#
# number of rings (size 3 to 8) (size 9 to 14) (size 15 to 20)
#    0.000    3.200    0.000    3.000    0.000    5.000 
#    0.000    0.000    0.000    0.000    0.000    5.600 
#    0.000    6.400    0.000   14.800    0.000    1.200 
#
# Total GULP energy -991296.993389 kJ/mol
# GULP energy per Si atom -12391.212417 kJ/mol
# Density = 1.611997 g / cm^3
# Si number density = 16.156747 Si / 1000 Ang^3
#
#
#
# Elastic Constant Matrix: (Units=GPa)
#
#
# Indices 1 2 3 4 5 6 
#
# 1 59.0488 34.3633 43.3819 0.0000 0.0000 0.0000
# 2 34.3633 59.0493 43.3821 0.0000 0.0000 0.0000
# 3 43.3819 43.3821 132.8108 0.0000 0.0000 0.0000
# 4 0.0000 0.0000 0.0000 13.0780 0.0000 0.0000
# 5 0.0000 0.0000 0.0000 0.0000 13.0781 0.0000
# 6 0.0000 0.0000 0.0000 0.0000 0.0000 14.2573
#
#
#
# Elastic Compliance Matrix: (Units=1/GPa)
#
#
# Indices 1 2 3 4 5 6 
#
# 1 0.027939 -0.012571 -0.005020 0.000000 0.000000 0.000000
# 2 -0.012571 0.027938 -0.005020 0.000000 0.000000 0.000000
# 3 -0.005020 -0.005020 0.010809 0.000000 0.000000 0.000000
# 4 0.000000 0.000000 0.000000 0.076464 0.000000 0.000000
# 5 0.000000 0.000000 0.000000 0.000000 0.076464 0.000000
# 6 0.000000 0.000000 0.000000 0.000000 0.000000 0.070139
#
#
# Mechanical properties :
#
#
# Convention : Reuss Voigt Hill
#
# Bulk Modulus (GPa) = 46.58703 54.79594 50.69149
# Shear Modulus (GPa) = 14.61438 16.73479 15.67459
#
# Velocity S-wave (km/s) = 3.01082 3.22184 3.11811
# Velocity P-wave (km/s) = 6.40185 6.91586 6.66382
#
# Compressibility (1/GPa) = 0.02146520
#
# Stress axis : x y z
#
# Youngs Moduli (GPa) = 35.79278 35.79312 92.51633
#
# Poissons Ratio (x) = 0.44994 0.46442
# Poissons Ratio (y) = 0.44994 0.46441
# Poissons Ratio (z) = 0.17967 0.17967
#
# Static dielectric constant tensor:
#      x y z
#    x 2.749170 0.000000 0.000000 
#    y 0.000000 2.749170 0.000000 
#    z 0.000000 0.000000 3.596040 
# 
# 
# High freq. dielectric constant tensor:
#      x y z
#    x 1.584690 0.000000 0.000000 
#    y 0.000000 1.584690 0.000000 
#    z 0.000000 0.000000 1.645020 
# 
# From -- ./inp_files/6929.got.cif
#   From: 2010.03.12/outbox.cif.g09.slc.cpg/sg129_4_cif.got.tgz:6929.got - 2010.04.06 17:19:44.
