data_PCOD8314734
_publ_section_title
;
Structure prediction by ZEFSAII (Michael W. Deem and Ramdas Pophale) SiO2 
 PCOD8314734
Probable space group: P 4/M N C
;
_chemical_formula_sum "Si O2"
_cell_formula_units_Z 88
_cell_length_a 17.014063
_cell_length_b 17.014063
_cell_length_c 15.087421
_cell_angle_alpha 90.000000
_cell_angle_beta 90.000000
_cell_angle_gamma 90.000000
_cell_volume 4367.481582
_symmetry_space_group_name_H-M "P 4/M N C"
_symmetry_group_IT_number 128
_symmetry_cell_setting 'tetragonal'
loop_
_space_group_symop_operation_xyz
x,y,z
-y,x,z
-x,-y,z
y,-x,z
1/2+x,1/2-y,1/2-z
1/2-x,1/2+y,1/2-z
1/2+y,1/2+x,1/2-z
1/2-y,1/2-x,1/2-z
-x,-y,-z
y,-x,-z
x,y,-z
-y,x,-z
1/2-x,1/2+y,1/2+z
1/2+x,1/2-y,1/2+z
1/2-y,1/2-x,1/2+z
1/2+y,1/2+x,1/2+z
loop_
_atom_site_type_symbol
_atom_site_label
_atom_site_fract_x
_atom_site_fract_y
_atom_site_fract_z
Si Si1 0.401490 0.584010 0.000000
Si Si2 0.815578 0.893902 0.323988
Si Si3 0.118218 0.651433 0.398283
Si Si4 0.814906 0.513515 0.398355
Si Si5 0.146529 0.436982 0.900396
Si Si6 0.064231 0.219755 0.737233
O O1 0.389811 0.491017 0.000000
O O2 0.360177 0.621102 0.915523
O O3 0.725643 0.864152 0.334677
O O4 0.863483 0.841370 0.253495
O O5 0.821354 0.985280 0.298573
O O6 0.136937 0.673763 0.500000
O O7 0.169096 0.576342 0.367772
O O8 0.027970 0.627116 0.387870
O O9 0.786230 0.516030 0.500000
O O10 0.893218 0.564438 0.385111
O O11 0.747429 0.548933 0.337168
O O12 0.210113 0.409094 0.828301
O O13 0.179363 0.420648 0.000000
#
# Coordination Sequence:
#
# PCOD8314734 Si02
#       6
#     8  16  16  16  16  16
#     4  11  20  34  62  94 125 163 193 243 329 411
#     4  11  22  36  61  94 129 154 202 256 324 381
#     4   9  18  34  63  93 121 154 197 254 313 382
#     4  10  21  42  60  83 121 171 215 249 299 363
#     4   9  19  35  61  91 121 155 198 252 317 380
#     4  11  24  39  58  90 127 164 208 264 309 372
#
# _framework density 20.148911999999999
#
# number of rings (size 3 to 8) (size 9 to 14) (size 15 to 20)
#    0.000    1.909    2.727    1.091    2.545    5.455 
#    6.545    4.545    0.000    0.000    0.000    1.273 
#    0.000    0.000    0.000    0.000    0.000    0.000 
#
# Total GULP energy -1091269.374007 kJ/mol
# GULP energy per Si atom -12400.788341 kJ/mol
# Density = 2.010305 g / cm^3
# Si number density = 20.148912 Si / 1000 Ang^3
#
#
#
# Elastic Constant Matrix: (Units=GPa)
#
#
# Indices 1 2 3 4 5 6 
#
# 1 95.0930 67.4186 45.3979 0.0000 0.0000 0.0000
# 2 67.4186 95.0930 45.3979 0.0000 0.0000 0.0000
# 3 45.3979 45.3979 81.2584 0.0000 0.0000 0.0000
# 4 0.0000 0.0000 0.0000 30.2662 0.0000 0.0000
# 5 0.0000 0.0000 0.0000 0.0000 30.2662 0.0000
# 6 0.0000 0.0000 0.0000 0.0000 0.0000 29.1135
#
#
#
# Elastic Compliance Matrix: (Units=1/GPa)
#
#
# Indices 1 2 3 4 5 6 
#
# 1 0.022540 -0.013594 -0.004998 0.000000 0.000000 0.000000
# 2 -0.013594 0.022540 -0.004998 0.000000 0.000000 0.000000
# 3 -0.004998 -0.004998 0.017891 0.000000 0.000000 0.000000
# 4 0.000000 0.000000 0.000000 0.033040 0.000000 0.000000
# 5 0.000000 0.000000 0.000000 0.000000 0.033040 0.000000
# 6 0.000000 0.000000 0.000000 0.000000 0.000000 0.034348
#
#
# Mechanical properties :
#
#
# Convention : Reuss Voigt Hill
#
# Bulk Modulus (GPa) = 63.32753 65.31927 64.32340
# Shear Modulus (GPa) = 23.16495 25.47786 24.32140
#
# Velocity S-wave (km/s) = 3.39438 3.55981 3.47808
# Velocity P-wave (km/s) = 6.84547 7.02744 6.93705
#
# Compressibility (1/GPa) = 0.01579092
#
# Stress axis : x y z
#
# Youngs Moduli (GPa) = 44.36543 44.36543 55.89445
#
# Poissons Ratio (x) = 0.60312 0.27935
# Poissons Ratio (y) = 0.60312 0.27935
# Poissons Ratio (z) = 0.22173 0.22173
#
# Static dielectric constant tensor:
#      x y z
#    x 3.571670 0.000000 0.000000 
#    y 0.000000 3.571670 0.000000 
#    z 0.000000 0.000000 3.656920 
# 
# 
# High freq. dielectric constant tensor:
#      x y z
#    x 1.775600 0.000000 0.000000 
#    y 0.000000 1.775600 0.000000 
#    z 0.000000 0.000000 1.781550 
# 
# From -- ./inp_files/3835.got.cif
#   From: 2010.03.12/outbox.cif.g09.slc.cpg/sg128_2_cif.got.tgz:3835.got - 2010.04.06 17:11:05.
