data_PCOD8314619
_publ_section_title
;
Structure prediction by ZEFSAII (Michael W. Deem and Ramdas Pophale) SiO2 
 PCOD8314619
Probable space group: P 4/M N C
;
_chemical_formula_sum "Si O2"
_cell_formula_units_Z 96
_cell_length_a 18.533873
_cell_length_b 18.533873
_cell_length_c 15.399001
_cell_angle_alpha 90.000000
_cell_angle_beta 90.000000
_cell_angle_gamma 90.000000
_cell_volume 5289.625344
_symmetry_space_group_name_H-M "P 4/M N C"
_symmetry_group_IT_number 128
_symmetry_cell_setting 'tetragonal'
loop_
_space_group_symop_operation_xyz
x,y,z
-y,x,z
-x,-y,z
y,-x,z
1/2+x,1/2-y,1/2-z
1/2-x,1/2+y,1/2-z
1/2+y,1/2+x,1/2-z
1/2-y,1/2-x,1/2-z
-x,-y,-z
y,-x,-z
x,y,-z
-y,x,-z
1/2-x,1/2+y,1/2+z
1/2+x,1/2-y,1/2+z
1/2-y,1/2-x,1/2+z
1/2+y,1/2+x,1/2+z
loop_
_atom_site_type_symbol
_atom_site_label
_atom_site_fract_x
_atom_site_fract_y
_atom_site_fract_z
Si Si1 0.580983 0.792719 0.098771
Si Si2 0.280971 0.915610 0.405926
Si Si3 0.348253 0.913137 0.164411
Si Si4 0.433182 0.174246 0.399705
Si Si5 0.299148 0.579833 0.737753
Si Si6 0.304313 0.415909 0.743421
O O1 0.496725 0.805387 0.116626
O O2 0.617615 0.869459 0.113761
O O3 0.607949 0.736088 0.171569
O O4 0.595626 0.764278 0.000000
O O5 0.244345 0.910247 0.500000
O O6 0.353236 0.867505 0.406820
O O7 0.221537 0.888621 0.338052
O O8 0.395215 0.895215 0.250000
O O9 0.262558 0.907235 0.178483
O O10 0.365650 0.993421 0.130632
O O11 0.439719 0.198777 0.500000
O O12 0.415619 0.243364 0.341279
O O13 0.329759 0.498895 0.747837
O O14 0.366472 0.629967 0.712723
#
# Coordination Sequence:
#
# PCOD8314619 Si02
#       6
#    16  16  16  16  16  16
#     4   9  19  33  51  76 106 138 171 203 246 300
#     4   9  17  31  49  73 104 134 162 200 244 294
#     4   9  18  32  49  74 105 136 171 206 244 292
#     4  10  20  34  52  77 106 140 175 206 244 296
#     4  10  20  37  54  72 100 129 165 218 263 304
#     4   9  20  35  52  72  95 127 167 209 260 310
#
# _framework density 18.148734000000001
#
# number of rings (size 3 to 8) (size 9 to 14) (size 15 to 20)
#    0.000    2.667    0.000    2.000    0.000    5.667 
#    0.000   12.500    0.000    0.000    0.000    9.333 
#    0.000    0.000    0.000    0.000    0.000    0.000 
#
# Total GULP energy -1190088.473252 kJ/mol
# GULP energy per Si atom -12396.754930 kJ/mol
# Density = 1.810743 g / cm^3
# Si number density = 18.148734 Si / 1000 Ang^3
#
#
#
# Elastic Constant Matrix: (Units=GPa)
#
#
# Indices 1 2 3 4 5 6 
#
# 1 71.1826 46.9494 26.4082 0.0000 0.0000 0.0000
# 2 46.9494 71.1826 26.4082 0.0000 0.0000 0.0000
# 3 26.4082 26.4082 83.7584 0.0000 0.0000 0.0000
# 4 0.0000 0.0000 0.0000 18.1021 0.0000 0.0000
# 5 0.0000 0.0000 0.0000 0.0000 18.1021 0.0000
# 6 0.0000 0.0000 0.0000 0.0000 0.0000 34.0695
#
#
#
# Elastic Compliance Matrix: (Units=1/GPa)
#
#
# Indices 1 2 3 4 5 6 
#
# 1 0.025560 -0.015706 -0.003107 0.000000 0.000000 0.000000
# 2 -0.015706 0.025560 -0.003107 0.000000 0.000000 0.000000
# 3 -0.003107 -0.003107 0.013898 0.000000 0.000000 0.000000
# 4 0.000000 0.000000 0.000000 0.055242 0.000000 0.000000
# 5 0.000000 0.000000 0.000000 0.000000 0.055242 0.000000
# 6 0.000000 0.000000 0.000000 0.000000 0.000000 0.029352
#
#
# Mechanical properties :
#
#
# Convention : Reuss Voigt Hill
#
# Bulk Modulus (GPa) = 47.21669 47.29502 47.25585
# Shear Modulus (GPa) = 19.55010 22.47860 21.01435
#
# Velocity S-wave (km/s) = 3.28566 3.52316 3.40648
# Velocity P-wave (km/s) = 6.36137 6.53196 6.44723
#
# Compressibility (1/GPa) = 0.02117895
#
# Stress axis : x y z
#
# Youngs Moduli (GPa) = 39.12377 39.12377 71.95143
#
# Poissons Ratio (x) = 0.61447 0.22355
# Poissons Ratio (y) = 0.61447 0.22355
# Poissons Ratio (z) = 0.12155 0.12155
#
# Static dielectric constant tensor:
#      x y z
#    x 3.173220 0.000000 0.000000 
#    y 0.000000 3.173220 0.000000 
#    z 0.000000 0.000000 3.529420 
# 
# 
# High freq. dielectric constant tensor:
#      x y z
#    x 1.689280 0.000000 0.000000 
#    y 0.000000 1.689280 0.000000 
#    z 0.000000 0.000000 1.711530 
# 
# From -- ./inp_files/4782.got.cif
#   From: 2010.03.12/outbox.cif.g09.slc.cpg/sg128_3_cif.got.tgz:4782.got - 2010.04.06 17:11:05.
