data_PCOD8314384
_publ_section_title
;
Structure prediction by ZEFSAII (Michael W. Deem and Ramdas Pophale) SiO2 
 PCOD8314384
Probable space group: P 4/M B M
;
_chemical_formula_sum "Si O2"
_cell_formula_units_Z 96
_cell_length_a 14.040650
_cell_length_b 14.040650
_cell_length_c 25.962243
_cell_angle_alpha 90.000000
_cell_angle_beta 90.000000
_cell_angle_gamma 90.000000
_cell_volume 5118.192754
_symmetry_space_group_name_H-M "P 4/M B M"
_symmetry_group_IT_number 127
_symmetry_cell_setting 'tetragonal'
loop_
_space_group_symop_operation_xyz
x,y,z
-y,x,z
-x,-y,z
y,-x,z
1/2+x,1/2-y,-z
1/2-x,1/2+y,-z
1/2+y,1/2+x,-z
1/2-y,1/2-x,-z
-x,-y,-z
y,-x,-z
x,y,-z
-y,x,-z
1/2-x,1/2+y,z
1/2+x,1/2-y,z
1/2-y,1/2-x,z
1/2+y,1/2+x,z
loop_
_atom_site_type_symbol
_atom_site_label
_atom_site_fract_x
_atom_site_fract_y
_atom_site_fract_z
Si Si1 0.848951 0.040443 0.500000
Si Si2 0.651411 0.540956 0.000000
Si Si3 0.646218 0.557539 0.195181
Si Si4 0.436035 0.777753 0.099643
Si Si5 0.579694 0.920307 0.251770
Si Si6 0.063726 0.277036 0.709106
Si Si7 0.041002 0.153149 0.388563
Si Si8 0.920205 0.420205 0.136613
O O1 0.795563 0.054737 0.445088
O O2 0.934264 0.113806 0.500000
O O3 0.566201 0.615345 0.000000
O O4 0.711571 0.558940 0.050598
O O5 0.553202 0.621753 0.189745
O O6 0.718099 0.588289 0.150458
O O7 0.692521 0.578491 0.250319
O O8 0.353100 0.853100 0.090789
O O9 0.538008 0.829981 0.106080
O O10 0.537621 0.828971 0.281384
O O11 0.610880 0.889121 0.194201
O O12 0.500000 0.000000 0.248013
O O13 0.150215 0.349785 0.715129
O O14 0.063416 0.234455 0.652233
O O15 0.933933 0.114370 0.381672
O O16 0.000000 0.500000 0.141891
#
# Coordination Sequence:
#
# PCOD8314384 Si02
#       8
#     8   8  16  16   8  16  16   8
#     4   7  12  26  53  77 100 143 188 221 272 339
#     4  11  25  47  64  83 122 159 184 227 287 332
#     4  11  23  40  58  82 118 155 184 225 285 335
#     4  11  22  42  65  92 118 145 190 233 275 333
#     4   9  18  36  57  75 111 153 182 220 274 328
#     4  11  21  36  54  81 113 148 191 231 276 332
#     4   9  17  33  54  80 111 143 182 232 283 331
#     4   9  18  37  64  85 115 150 177 227 283 322
#
# _framework density 18.756620000000002
#
# number of rings (size 3 to 8) (size 9 to 14) (size 15 to 20)
#    0.000    2.000    1.667    3.750    0.000    3.000 
#   16.500    1.667    0.000    0.500    0.000    1.750 
#    0.000    0.000    0.000    0.000    0.000    0.000 
#
# Total GULP energy -1190128.696326 kJ/mol
# GULP energy per Si atom -12397.173920 kJ/mol
# Density = 1.871393 g / cm^3
# Si number density = 18.756620 Si / 1000 Ang^3
#
#
#
# Elastic Constant Matrix: (Units=GPa)
#
#
# Indices 1 2 3 4 5 6 
#
# 1 87.3485 21.8444 41.2534 0.0000 0.0000 0.0000
# 2 21.8444 87.3485 41.2534 0.0000 0.0000 0.0000
# 3 41.2534 41.2534 146.5022 0.0000 0.0000 0.0000
# 4 0.0000 0.0000 0.0000 33.0913 0.0000 0.0000
# 5 0.0000 0.0000 0.0000 0.0000 33.0913 0.0000
# 6 0.0000 0.0000 0.0000 0.0000 0.0000 83.8790
#
#
#
# Elastic Compliance Matrix: (Units=1/GPa)
#
#
# Indices 1 2 3 4 5 6 
#
# 1 0.013450 -0.001816 -0.003276 0.000000 0.000000 0.000000
# 2 -0.001816 0.013450 -0.003276 0.000000 0.000000 0.000000
# 3 -0.003276 -0.003276 0.008671 0.000000 0.000000 0.000000
# 4 0.000000 0.000000 0.000000 0.030219 0.000000 0.000000
# 5 0.000000 0.000000 0.000000 0.000000 0.030219 0.000000
# 6 0.000000 0.000000 0.000000 0.000000 0.000000 0.011922
#
#
# Mechanical properties :
#
#
# Convention : Reuss Voigt Hill
#
# Bulk Modulus (GPa) = 53.09519 58.87796 55.98658
# Shear Modulus (GPa) = 38.18392 44.46886 41.32639
#
# Velocity S-wave (km/s) = 4.51683 4.87440 4.69902
# Velocity P-wave (km/s) = 7.45461 7.94597 7.70421
#
# Compressibility (1/GPa) = 0.01883410
#
# Stress axis : x y z
#
# Youngs Moduli (GPa) = 74.35066 74.35066 115.33085
#
# Poissons Ratio (x) = 0.13505 0.37780
# Poissons Ratio (y) = 0.13505 0.37780
# Poissons Ratio (z) = 0.24356 0.24356
#
# Static dielectric constant tensor:
#      x y z
#    x 3.392360 0.000000 0.000000 
#    y 0.000000 3.392360 0.000000 
#    z 0.000000 0.000000 3.308660 
# 
# 
# High freq. dielectric constant tensor:
#      x y z
#    x 1.717570 0.000000 0.000000 
#    y 0.000000 1.717570 0.000000 
#    z 0.000000 0.000000 1.741880 
# 
# From -- ./inp_files/6158.got.cif
#   From: 2010.03.12/outbox.cif.g09.slc.cpg/sg127_4_cif.got.tgz:6158.got - 2010.04.06 17:03:15.
