data_PCOD8314014
_publ_section_title
;
Structure prediction by ZEFSAII (Michael W. Deem and Ramdas Pophale) SiO2 
 PCOD8314014
Probable space group: P 4/M B M
;
_chemical_formula_sum "Si O2"
_cell_formula_units_Z 96
_cell_length_a 24.456765
_cell_length_b 24.456765
_cell_length_c 9.063722
_cell_angle_alpha 90.000000
_cell_angle_beta 90.000000
_cell_angle_gamma 90.000000
_cell_volume 5421.314442
_symmetry_space_group_name_H-M "P 4/M B M"
_symmetry_group_IT_number 127
_symmetry_cell_setting 'tetragonal'
loop_
_space_group_symop_operation_xyz
x,y,z
-y,x,z
-x,-y,z
y,-x,z
1/2+x,1/2-y,-z
1/2-x,1/2+y,-z
1/2+y,1/2+x,-z
1/2-y,1/2-x,-z
-x,-y,-z
y,-x,-z
x,y,-z
-y,x,-z
1/2-x,1/2+y,z
1/2+x,1/2-y,z
1/2-y,1/2-x,z
1/2+y,1/2+x,z
loop_
_atom_site_type_symbol
_atom_site_label
_atom_site_fract_x
_atom_site_fract_y
_atom_site_fract_z
Si Si1 0.972826 0.210423 0.666235
Si Si2 0.621573 0.878428 0.174212
Si Si3 0.174188 0.412968 0.831430
Si Si4 0.200657 0.918920 0.827568
Si Si5 0.204303 0.704303 0.325995
Si Si6 0.648742 0.683280 0.674263
Si Si7 0.982447 0.339491 0.666519
O O1 0.981499 0.188991 0.500000
O O2 0.913331 0.193789 0.726859
O O3 0.974370 0.275177 0.671641
O O4 0.021067 0.184829 0.765766
O O5 0.663309 0.836692 0.247663
O O6 0.560352 0.866691 0.224475
O O7 0.626742 0.873259 0.000000
O O8 0.144767 0.355234 0.805813
O O9 0.237001 0.404610 0.788279
O O10 0.145643 0.457569 0.726822
O O11 0.169069 0.433129 0.000000
O O12 0.165052 0.872473 0.752107
O O13 0.188585 0.918807 0.000000
O O14 0.195822 0.695822 0.500000
O O15 0.188662 0.766322 0.278901
O O16 0.652001 0.675355 0.500000
O O17 0.975663 0.361854 0.500000
#
# Coordination Sequence:
#
# PCOD8314014 Si02
#       7
#    16   8  16  16   8  16  16
#     4   9  18  35  57  76 102 141 182 221 262 312
#     4  12  22  32  51  79 108 140 174 215 273 331
#     4   9  19  36  53  72 105 143 178 219 267 317
#     4  10  21  34  53  81 112 144 177 214 262 321
#     4  10  20  36  54  79 113 144 178 221 267 309
#     4  10  20  35  56  81 111 143 178 221 266 312
#     4  10  19  34  54  75 101 135 181 226 265 314
#
# _framework density 17.707884
#
# number of rings (size 3 to 8) (size 9 to 14) (size 15 to 20)
#    0.000    2.167    1.667    1.750    1.167    3.000 
#    0.000    0.417    0.000    3.000    0.000    3.500 
#    0.000    0.000    0.000    0.000    0.000    0.000 
#
# Total GULP energy -1190399.519085 kJ/mol
# GULP energy per Si atom -12399.994990 kJ/mol
# Density = 1.766758 g / cm^3
# Si number density = 17.707884 Si / 1000 Ang^3
#
#
#
# Elastic Constant Matrix: (Units=GPa)
#
#
# Indices 1 2 3 4 5 6 
#
# 1 82.4037 68.7006 37.6944 0.0000 0.0000 0.0000
# 2 68.7006 82.4029 37.6929 0.0000 0.0000 0.0000
# 3 37.6944 37.6929 53.8258 0.0000 0.0000 0.0000
# 4 0.0000 0.0000 0.0000 26.2791 0.0000 0.0000
# 5 0.0000 0.0000 0.0000 0.0000 26.2789 0.0000
# 6 0.0000 0.0000 0.0000 0.0000 0.0000 21.9252
#
#
#
# Elastic Compliance Matrix: (Units=1/GPa)
#
#
# Indices 1 2 3 4 5 6 
#
# 1 0.041575 -0.031403 -0.007125 0.000000 0.000000 0.000000
# 2 -0.031403 0.041574 -0.007122 0.000000 0.000000 0.000000
# 3 -0.007125 -0.007122 0.028555 0.000000 0.000000 0.000000
# 4 0.000000 0.000000 0.000000 0.038053 0.000000 0.000000
# 5 0.000000 0.000000 0.000000 0.000000 0.038053 0.000000
# 6 0.000000 0.000000 0.000000 0.000000 0.000000 0.045610
#
#
# Mechanical properties :
#
#
# Convention : Reuss Voigt Hill
#
# Bulk Modulus (GPa) = 49.00558 56.31202 52.65880
# Shear Modulus (GPa) = 15.08195 19.86628 17.47412
#
# Velocity S-wave (km/s) = 2.92157 3.35310 3.14474
# Velocity P-wave (km/s) = 6.25422 6.84548 6.55652
#
# Compressibility (1/GPa) = 0.02040584
#
# Stress axis : x y z
#
# Youngs Moduli (GPa) = 24.05264 24.05322 35.02007
#
# Poissons Ratio (x) = 0.75535 0.24950
# Poissons Ratio (y) = 0.75533 0.24941
# Poissons Ratio (z) = 0.17137 0.17130
#
# Static dielectric constant tensor:
#      x y z
#    x 3.271620 0.000000 0.000000 
#    y 0.000000 3.271620 0.000000 
#    z 0.000000 0.000000 3.378750 
# 
# 
# High freq. dielectric constant tensor:
#      x y z
#    x 1.675400 0.000000 0.000000 
#    y 0.000000 1.675400 0.000000 
#    z 0.000000 0.000000 1.687750 
# 
# From -- ./inp_files/2065.got.cif
#   From: 2010.03.12/outbox.cif.g09.slc.cpg/sg127_2_cif.got.tgz:2065.got - 2010.04.06 17:03:15.
