data_PCOD8314296
_publ_section_title
;
Structure prediction by ZEFSAII (Michael W. Deem and Ramdas Pophale) SiO2 
 PCOD8314296
Probable space group: P 4/M B M
;
_chemical_formula_sum "Si O2"
_cell_formula_units_Z 96
_cell_length_a 15.587381
_cell_length_b 15.587381
_cell_length_c 23.307655
_cell_angle_alpha 90.000000
_cell_angle_beta 90.000000
_cell_angle_gamma 90.000000
_cell_volume 5662.978110
_symmetry_space_group_name_H-M "P 4/M B M"
_symmetry_group_IT_number 127
_symmetry_cell_setting 'tetragonal'
loop_
_space_group_symop_operation_xyz
x,y,z
-y,x,z
-x,-y,z
y,-x,z
1/2+x,1/2-y,-z
1/2-x,1/2+y,-z
1/2+y,1/2+x,-z
1/2-y,1/2-x,-z
-x,-y,-z
y,-x,-z
x,y,-z
-y,x,-z
1/2-x,1/2+y,z
1/2+x,1/2-y,z
1/2-y,1/2-x,z
1/2+y,1/2+x,z
loop_
_atom_site_type_symbol
_atom_site_label
_atom_site_fract_x
_atom_site_fract_y
_atom_site_fract_z
Si Si1 0.005238 0.363887 0.263166
Si Si2 0.754014 0.392602 0.336896
Si Si3 0.234229 0.996303 0.823528
Si Si4 0.629323 0.446812 0.565553
Si Si5 0.359122 0.486338 0.935699
Si Si6 0.675451 0.681446 0.775295
O O1 0.101367 0.398634 0.276115
O O2 0.997615 0.333267 0.196424
O O3 0.939573 0.439573 0.271895
O O4 0.980271 0.287250 0.306412
O O5 0.833866 0.333866 0.354912
O O6 0.705478 0.415704 0.394518
O O7 0.693151 0.342380 0.292297
O O8 0.219561 0.977338 0.890989
O O9 0.201061 0.916750 0.785085
O O10 0.190823 0.087222 0.810343
O O11 0.609759 0.545782 0.578306
O O12 0.658789 0.434733 0.500000
O O13 0.424500 0.408364 0.925845
O O14 0.320867 0.482643 0.000000
O O15 0.748840 0.751161 0.794982
#
# Coordination Sequence:
#
# PCOD8314296 Si02
#       6
#    16  16  16  16  16  16
#     4   9  19  35  53  72  98 140 179 208 256 310
#     4   9  19  34  51  76 104 129 168 220 258 302
#     4  11  18  32  53  73 108 136 162 212 267 312
#     4   9  19  35  52  72 102 139 173 203 247 313
#     4   9  17  30  48  73 103 133 167 203 251 318
#     4  10  22  33  47  79 109 133 172 215 262 318
#
# _framework density 16.952210000000001
#
# number of rings (size 3 to 8) (size 9 to 14) (size 15 to 20)
#    0.000    2.500    1.667    3.000    4.667    0.667 
#    0.000    0.000    0.000    6.500    0.000    3.500 
#    0.000    0.000    0.000    0.000    0.000    0.000 
#
# Total GULP energy -1189386.743358 kJ/mol
# GULP energy per Si atom -12389.445243 kJ/mol
# Density = 1.691363 g / cm^3
# Si number density = 16.952210 Si / 1000 Ang^3
#
#
#
# Elastic Constant Matrix: (Units=GPa)
#
#
# Indices 1 2 3 4 5 6 
#
# 1 68.0505 22.6192 45.2121 0.0000 0.0000 0.0000
# 2 22.6192 68.0505 45.2121 0.0000 0.0000 0.0000
# 3 45.2121 45.2121 124.3336 0.0000 0.0000 0.0000
# 4 0.0000 0.0000 0.0000 23.6973 0.0000 0.0000
# 5 0.0000 0.0000 0.0000 0.0000 23.6973 0.0000
# 6 0.0000 0.0000 0.0000 0.0000 0.0000 13.9118
#
#
#
# Elastic Compliance Matrix: (Units=1/GPa)
#
#
# Indices 1 2 3 4 5 6 
#
# 1 0.019658 -0.002353 -0.006293 0.000000 0.000000 0.000000
# 2 -0.002353 0.019658 -0.006293 0.000000 0.000000 0.000000
# 3 -0.006293 -0.006293 0.012619 0.000000 0.000000 0.000000
# 4 0.000000 0.000000 0.000000 0.042199 0.000000 0.000000
# 5 0.000000 0.000000 0.000000 0.000000 0.042199 0.000000
# 6 0.000000 0.000000 0.000000 0.000000 0.000000 0.071881
#
#
# Mechanical properties :
#
#
# Convention : Reuss Voigt Hill
#
# Bulk Modulus (GPa) = 45.33465 54.05792 49.69629
# Shear Modulus (GPa) = 20.37125 22.08735 21.22930
#
# Velocity S-wave (km/s) = 3.47030 3.61351 3.54263
# Velocity P-wave (km/s) = 6.54660 7.02621 6.79064
#
# Compressibility (1/GPa) = 0.02205818
#
# Stress axis : x y z
#
# Youngs Moduli (GPa) = 50.87007 50.87007 79.24388
#
# Poissons Ratio (x) = 0.11972 0.49865
# Poissons Ratio (y) = 0.11972 0.49865
# Poissons Ratio (z) = 0.32010 0.32010
#
# Static dielectric constant tensor:
#      x y z
#    x 3.321530 0.000000 0.000000 
#    y 0.000000 3.321530 0.000000 
#    z 0.000000 0.000000 3.079490 
# 
# 
# High freq. dielectric constant tensor:
#      x y z
#    x 1.649530 0.000000 0.000000 
#    y 0.000000 1.649530 0.000000 
#    z 0.000000 0.000000 1.639550 
# 
# From -- ./inp_files/5777.got.cif
#   From: 2010.03.12/outbox.cif.g09.slc.cpg/sg127_3_cif.got.tgz:5777.got - 2010.04.06 17:03:15.
