data_PCOD8314058
_publ_section_title
;
Structure prediction by ZEFSAII (Michael W. Deem and Ramdas Pophale) SiO2 
 PCOD8314058
Probable space group: P 4/M B M
;
_chemical_formula_sum "Si O2"
_cell_formula_units_Z 96
_cell_length_a 27.215103
_cell_length_b 27.215103
_cell_length_c 9.058012
_cell_angle_alpha 90.000000
_cell_angle_beta 90.000000
_cell_angle_gamma 90.000000
_cell_volume 6708.923756
_symmetry_space_group_name_H-M "P 4/M B M"
_symmetry_group_IT_number 127
_symmetry_cell_setting 'tetragonal'
loop_
_space_group_symop_operation_xyz
x,y,z
-y,x,z
-x,-y,z
y,-x,z
1/2+x,1/2-y,-z
1/2-x,1/2+y,-z
1/2+y,1/2+x,-z
1/2-y,1/2-x,-z
-x,-y,-z
y,-x,-z
x,y,-z
-y,x,-z
1/2-x,1/2+y,z
1/2+x,1/2-y,z
1/2-y,1/2-x,z
1/2+y,1/2+x,z
loop_
_atom_site_type_symbol
_atom_site_label
_atom_site_fract_x
_atom_site_fract_y
_atom_site_fract_z
Si Si1 0.603532 0.816341 0.674584
Si Si2 0.239429 0.821735 0.665254
Si Si3 0.327213 0.255042 0.165339
Si Si4 0.997521 0.421553 0.339582
Si Si5 0.998905 0.330598 0.830183
Si Si6 0.109517 0.311015 0.173606
O O1 0.603956 0.810680 0.500000
O O2 0.634539 0.865462 0.721625
O O3 0.627997 0.768125 0.744069
O O4 0.547209 0.815282 0.729577
O O5 0.224190 0.837495 0.500000
O O6 0.277128 0.777128 0.659326
O O7 0.190798 0.804701 0.753487
O O8 0.263913 0.867770 0.746491
O O9 0.282653 0.217348 0.157915
O O10 0.345017 0.268242 0.000000
O O11 0.003927 0.394476 0.500000
O O12 0.034162 0.465839 0.327409
O O13 0.942038 0.442038 0.332939
O O14 0.006618 0.388133 0.198056
O O15 0.051816 0.308562 0.783190
O O16 0.986475 0.319775 0.000000
O O17 0.138352 0.361649 0.222208
O O18 0.116158 0.304372 0.000000
#
# Coordination Sequence:
#
# PCOD8314058 Si02
#       6
#    16  16  16  16  16  16
#     4  10  20  32  44  58  78 104 134 168 205 245
#     4   9  16  26  42  63  82  99 123 156 194 237
#     4   9  16  27  44  63  81 100 123 155 196 239
#     4   9  18  31  43  53  67  91 125 165 208 249
#     4  11  21  30  41  57  77 101 131 167 205 243
#     4   9  18  31  43  56  77 104 133 166 204 243
#
# _framework density 14.3093
#
# number of rings (size 3 to 8) (size 9 to 14) (size 15 to 20)
#    0.000    2.500    0.000    3.500    0.000    9.667 
#    0.000    2.500    0.000    0.000    0.000    0.000 
#    0.000    0.000    0.000    0.000    0.000    0.833 
#
# Total GULP energy -1189419.707203 kJ/mol
# GULP energy per Si atom -12389.788617 kJ/mol
# Density = 1.427673 g / cm^3
# Si number density = 14.309300 Si / 1000 Ang^3
#
#
#
# Elastic Constant Matrix: (Units=GPa)
#
#
# Indices 1 2 3 4 5 6 
#
# 1 67.5122 47.4609 44.2182 0.0000 0.0000 0.0000
# 2 47.4609 67.5122 44.2182 0.0000 0.0000 0.0000
# 3 44.2182 44.2182 75.5445 0.0000 0.0000 0.0000
# 4 0.0000 0.0000 0.0000 22.7860 0.0000 0.0000
# 5 0.0000 0.0000 0.0000 0.0000 22.7860 0.0000
# 6 0.0000 0.0000 0.0000 0.0000 0.0000 15.3891
#
#
#
# Elastic Compliance Matrix: (Units=1/GPa)
#
#
# Indices 1 2 3 4 5 6 
#
# 1 0.032846 -0.017026 -0.009260 0.000000 0.000000 0.000000
# 2 -0.017026 0.032846 -0.009260 0.000000 0.000000 0.000000
# 3 -0.009260 -0.009260 0.024078 0.000000 0.000000 0.000000
# 4 0.000000 0.000000 0.000000 0.043887 0.000000 0.000000
# 5 0.000000 0.000000 0.000000 0.000000 0.043887 0.000000
# 6 0.000000 0.000000 0.000000 0.000000 0.000000 0.064981
#
#
# Mechanical properties :
#
#
# Convention : Reuss Voigt Hill
#
# Bulk Modulus (GPa) = 53.53878 53.59593 53.56735
# Shear Modulus (GPa) = 15.63269 17.17035 16.40152
#
# Velocity S-wave (km/s) = 3.30886 3.46778 3.38925
# Velocity P-wave (km/s) = 7.21766 7.31919 7.26861
#
# Compressibility (1/GPa) = 0.01867805
#
# Stress axis : x y z
#
# Youngs Moduli (GPa) = 30.44479 30.44479 41.53227
#
# Poissons Ratio (x) = 0.51835 0.38460
# Poissons Ratio (y) = 0.51835 0.38460
# Poissons Ratio (z) = 0.28192 0.28192
#
# Static dielectric constant tensor:
#      x y z
#    x 2.675910 0.000000 0.000000 
#    y 0.000000 2.675910 0.000000 
#    z 0.000000 0.000000 3.029200 
# 
# 
# High freq. dielectric constant tensor:
#      x y z
#    x 1.514130 0.000000 0.000000 
#    y 0.000000 1.514130 0.000000 
#    z 0.000000 0.000000 1.562730 
# 
# From -- ./inp_files/2176.got.cif
#   From: 2010.03.12/outbox.cif.g09.slc.cpg/sg127_2_cif.got.tgz:2176.got - 2010.04.06 17:03:15.
