data_PCOD8314864
_publ_section_title
;
Structure prediction by ZEFSAII (Michael W. Deem and Ramdas Pophale) SiO2 
 PCOD8314864
Probable space group: P 4/N M M
;
_chemical_formula_sum "Si O2"
_cell_formula_units_Z 112
_cell_length_a 24.503033
_cell_length_b 24.503033
_cell_length_c 12.686946
_cell_angle_alpha 90.000000
_cell_angle_beta 90.000000
_cell_angle_gamma 90.000000
_cell_volume 7617.224949
_symmetry_space_group_name_H-M "P 4/N M M"
_symmetry_group_IT_number 129
_symmetry_cell_setting 'tetragonal'
loop_
_space_group_symop_operation_xyz
x,y,z
1/2-y,x,z
1/2-x,1/2-y,z
y,1/2-x,z
1/2+x,-y,-z
-x,1/2+y,-z
1/2+y,1/2+x,-z
-y,-x,-z
-x,-y,-z
1/2+y,-x,-z
1/2+x,1/2+y,-z
-y,1/2+x,-z
1/2-x,y,z
x,1/2-y,z
1/2-y,1/2-x,z
y,x,z
loop_
_atom_site_type_symbol
_atom_site_label
_atom_site_fract_x
_atom_site_fract_y
_atom_site_fract_z
Si Si1 0.581193 0.008905 0.073315
Si Si2 0.374156 0.034198 0.578200
Si Si3 0.900822 0.812195 0.813136
Si Si4 0.053158 0.961664 0.700414
Si Si5 0.811506 0.953167 0.036490
Si Si6 0.688016 0.900415 0.260496
Si Si7 0.623182 0.968630 0.656680
O O1 0.584085 0.034495 0.188838
O O2 0.548605 0.951396 0.070920
O O3 0.642895 0.000356 0.032054
O O4 0.552772 0.052772 0.000000
O O5 0.419618 0.080383 0.584881
O O6 0.326785 0.049731 0.660859
O O7 0.350296 0.029343 0.460133
O O8 0.402774 0.976843 0.610256
O O9 0.887195 0.750000 0.784449
O O10 0.847529 0.847529 0.785703
O O11 0.952348 0.831260 0.742208
O O12 0.914606 0.818927 0.935704
O O13 0.028536 0.901229 0.683195
O O14 0.003528 0.003528 0.699260
O O15 0.750000 0.978282 0.037944
O O16 0.822280 0.917740 0.140471
O O17 0.750000 0.883599 0.280200
O O18 0.652433 0.847568 0.286998
O O19 0.575066 0.924935 0.660240
#
# Coordination Sequence:
#
# PCOD8314864 Si02
#       7
#    16  16  16  16  16  16  16
#     4  10  17  25  42  66  91 114 140 178 220 266
#     4   9  16  27  42  59  81 106 135 171 211 260
#     4  10  20  32  45  59  78 107 144 186 225 259
#     4   9  15  24  40  62  84 105 130 163 207 261
#     4  10  19  31  45  61  86 116 145 178 220 271
#     4  10  19  30  44  60  81 113 151 191 228 259
#     4   9  17  28  42  61  82 104 133 170 215 263
#
# _framework density 14.703517
#
# number of rings (size 3 to 8) (size 9 to 14) (size 15 to 20)
#    0.000    2.429    1.429    2.571    0.000    4.857 
#    0.000    0.000    0.000    2.571    0.000    4.000 
#    0.000    0.286    0.000    0.000    0.000    0.857 
#
# Total GULP energy -1388436.619256 kJ/mol
# GULP energy per Si atom -12396.755529 kJ/mol
# Density = 1.467005 g / cm^3
# Si number density = 14.703517 Si / 1000 Ang^3
#
#
#
# Elastic Constant Matrix: (Units=GPa)
#
#
# Indices 1 2 3 4 5 6 
#
# 1 64.2614 51.2249 33.2409 0.0000 0.0000 0.0000
# 2 51.2249 64.2614 33.2409 0.0000 0.0000 0.0000
# 3 33.2409 33.2409 80.6723 0.0000 0.0000 0.0000
# 4 0.0000 0.0000 0.0000 14.7861 0.0000 0.0000
# 5 0.0000 0.0000 0.0000 0.0000 14.7861 0.0000
# 6 0.0000 0.0000 0.0000 0.0000 0.0000 17.4454
#
#
#
# Elastic Compliance Matrix: (Units=1/GPa)
#
#
# Indices 1 2 3 4 5 6 
#
# 1 0.044030 -0.032678 -0.004677 0.000000 0.000000 0.000000
# 2 -0.032678 0.044030 -0.004677 0.000000 0.000000 0.000000
# 3 -0.004677 -0.004677 0.016251 0.000000 0.000000 0.000000
# 4 0.000000 0.000000 0.000000 0.067631 0.000000 0.000000
# 5 0.000000 0.000000 0.000000 0.000000 0.067631 0.000000
# 6 0.000000 0.000000 0.000000 0.000000 0.000000 0.057322
#
#
# Mechanical properties :
#
#
# Convention : Reuss Voigt Hill
#
# Bulk Modulus (GPa) = 49.39713 49.40096 49.39904
# Shear Modulus (GPa) = 12.89629 15.50274 14.19952
#
# Velocity S-wave (km/s) = 2.96478 3.25061 3.11098
# Velocity P-wave (km/s) = 6.73708 6.91083 6.82451
#
# Compressibility (1/GPa) = 0.02024409
#
# Stress axis : x y z
#
# Youngs Moduli (GPa) = 22.71184 22.71184 61.53653
#
# Poissons Ratio (x) = 0.74218 0.28783
# Poissons Ratio (y) = 0.74218 0.28783
# Poissons Ratio (z) = 0.10623 0.10623
#
# Static dielectric constant tensor:
#      x y z
#    x 2.695180 0.000000 0.000000 
#    y 0.000000 2.695180 0.000000 
#    z 0.000000 0.000000 3.088760 
# 
# 
# High freq. dielectric constant tensor:
#      x y z
#    x 1.528960 0.000000 0.000000 
#    y 0.000000 1.528960 0.000000 
#    z 0.000000 0.000000 1.582750 
# 
# From -- ./inp_files/4074.got.cif
#   From: 2010.03.12/outbox.cif.g09.slc.cpg/sg129_3_cif.got.tgz:4074.got - 2010.04.06 17:19:44.
