data_PCOD8314564
_publ_section_title
;
Structure prediction by ZEFSAII (Michael W. Deem and Ramdas Pophale) SiO2 
 PCOD8314564
Probable space group: P 4/M N C
;
_chemical_formula_sum "Si O2"
_cell_formula_units_Z 96
_cell_length_a 16.666648
_cell_length_b 16.666648
_cell_length_c 18.354359
_cell_angle_alpha 90.000000
_cell_angle_beta 90.000000
_cell_angle_gamma 90.000000
_cell_volume 5098.421635
_symmetry_space_group_name_H-M "P 4/M N C"
_symmetry_group_IT_number 128
_symmetry_cell_setting 'tetragonal'
loop_
_space_group_symop_operation_xyz
x,y,z
-y,x,z
-x,-y,z
y,-x,z
1/2+x,1/2-y,1/2-z
1/2-x,1/2+y,1/2-z
1/2+y,1/2+x,1/2-z
1/2-y,1/2-x,1/2-z
-x,-y,-z
y,-x,-z
x,y,-z
-y,x,-z
1/2-x,1/2+y,1/2+z
1/2+x,1/2-y,1/2+z
1/2-y,1/2-x,1/2+z
1/2+y,1/2+x,1/2+z
loop_
_atom_site_type_symbol
_atom_site_label
_atom_site_fract_x
_atom_site_fract_y
_atom_site_fract_z
Si Si1 0.529624 0.628000 0.289338
Si Si2 0.281035 0.831938 0.915606
Si Si3 0.259611 0.505789 0.584537
Si Si4 0.311321 0.168978 0.916939
Si Si5 0.404063 0.704783 0.915284
Si Si6 0.924929 0.207771 0.647484
O O1 0.440644 0.594829 0.277323
O O2 0.535107 0.663073 0.370591
O O3 0.547534 0.698626 0.231148
O O4 0.202436 0.778044 0.899859
O O5 0.358852 0.784627 0.884590
O O6 0.271250 0.921060 0.881461
O O7 0.294087 0.847963 0.000000
O O8 0.285874 0.499128 0.500000
O O9 0.189750 0.572899 0.593731
O O10 0.375193 0.209820 0.862745
O O11 0.334665 0.191903 0.000000
O O12 0.498017 0.712536 0.904032
O O13 0.369717 0.626562 0.875145
O O14 0.383470 0.695056 0.000000
#
# Coordination Sequence:
#
# PCOD8314564 Si02
#       6
#    16  16  16  16  16  16
#     4  11  23  37  52  80 118 146 181 234 276 332
#     4   8  16  32  53  80 109 137 183 238 274 320
#     4  10  20  37  59  78 104 146 190 237 289 327
#     4   9  18  33  56  84 108 139 192 236 266 333
#     4  10  19  33  56  82 110 149 189 226 273 334
#     4  11  20  35  52  79 117 149 177 229 279 330
#
# _framework density 18.829357000000002
#
# number of rings (size 3 to 8) (size 9 to 14) (size 15 to 20)
#    0.000    2.167    1.667    3.500    0.000    3.000 
#    0.000    3.333    0.000    4.000    0.000    2.333 
#    0.000    0.000    0.000    0.000    0.000    0.000 
#
# Total GULP energy -1190096.883042 kJ/mol
# GULP energy per Si atom -12396.842532 kJ/mol
# Density = 1.878650 g / cm^3
# Si number density = 18.829357 Si / 1000 Ang^3
#
#
#
# Elastic Constant Matrix: (Units=GPa)
#
#
# Indices 1 2 3 4 5 6 
#
# 1 119.2997 52.6852 36.5984 0.0000 0.0000 0.0000
# 2 52.6852 119.2997 36.5984 0.0000 0.0000 0.0000
# 3 36.5984 36.5984 77.4388 0.0000 0.0000 0.0000
# 4 0.0000 0.0000 0.0000 25.1411 0.0000 0.0000
# 5 0.0000 0.0000 0.0000 0.0000 25.1411 0.0000
# 6 0.0000 0.0000 0.0000 0.0000 0.0000 7.5635
#
#
#
# Elastic Compliance Matrix: (Units=1/GPa)
#
#
# Indices 1 2 3 4 5 6 
#
# 1 0.011145 -0.003867 -0.003440 0.000000 0.000000 0.000000
# 2 -0.003867 0.011145 -0.003440 0.000000 0.000000 0.000000
# 3 -0.003440 -0.003440 0.016165 0.000000 0.000000 0.000000
# 4 0.000000 0.000000 0.000000 0.039775 0.000000 0.000000
# 5 0.000000 0.000000 0.000000 0.000000 0.039775 0.000000
# 6 0.000000 0.000000 0.000000 0.000000 0.000000 0.132213
#
#
# Mechanical properties :
#
#
# Convention : Reuss Voigt Hill
#
# Bulk Modulus (GPa) = 58.95427 63.08911 61.02169
# Shear Modulus (GPa) = 18.02671 24.24624 21.13647
#
# Velocity S-wave (km/s) = 3.09750 3.59232 3.35405
# Velocity P-wave (km/s) = 6.64608 7.12635 6.89040
#
# Compressibility (1/GPa) = 0.01696230
#
# Stress axis : x y z
#
# Youngs Moduli (GPa) = 89.72541 89.72541 61.86251
#
# Poissons Ratio (x) = 0.34694 0.21280
# Poissons Ratio (y) = 0.34694 0.21280
# Poissons Ratio (z) = 0.30864 0.30864
#
# Static dielectric constant tensor:
#      x y z
#    x 3.480960 0.000000 0.000000 
#    y 0.000000 3.480960 0.000000 
#    z 0.000000 0.000000 3.238410 
# 
# 
# High freq. dielectric constant tensor:
#      x y z
#    x 1.725100 0.000000 0.000000 
#    y 0.000000 1.725100 0.000000 
#    z 0.000000 0.000000 1.713850 
# 
# From -- ./inp_files/4743.got.cif
#   From: 2010.03.12/outbox.cif.g09.slc.cpg/sg128_3_cif.got.tgz:4743.got - 2010.04.06 17:11:05.
