data_PCOD8314456
_publ_section_title
;
Structure prediction by ZEFSAII (Michael W. Deem and Ramdas Pophale) SiO2 
 PCOD8314456
Probable space group: P 4/M B M
;
_chemical_formula_sum "Si O2"
_cell_formula_units_Z 80
_cell_length_a 11.975660
_cell_length_b 11.975660
_cell_length_c 28.792125
_cell_angle_alpha 90.000000
_cell_angle_beta 90.000000
_cell_angle_gamma 90.000000
_cell_volume 4129.263850
_symmetry_space_group_name_H-M "P 4/M B M"
_symmetry_group_IT_number 127
_symmetry_cell_setting 'tetragonal'
loop_
_space_group_symop_operation_xyz
x,y,z
-y,x,z
-x,-y,z
y,-x,z
1/2+x,1/2-y,-z
1/2-x,1/2+y,-z
1/2+y,1/2+x,-z
1/2-y,1/2-x,-z
-x,-y,-z
y,-x,-z
x,y,-z
-y,x,-z
1/2-x,1/2+y,z
1/2+x,1/2-y,z
1/2-y,1/2-x,z
1/2+y,1/2+x,z
loop_
_atom_site_type_symbol
_atom_site_label
_atom_site_fract_x
_atom_site_fract_y
_atom_site_fract_z
Si Si1 0.465185 0.682246 0.239246
Si Si2 0.590259 0.090259 0.601065
Si Si3 0.909361 0.590640 0.289077
Si Si4 0.676039 0.995091 0.950205
Si Si5 0.178244 0.965209 0.445950
Si Si6 0.031878 0.178648 0.864719
O O1 0.371400 0.587282 0.247919
O O2 0.444319 0.785918 0.272837
O O3 0.457353 0.730981 0.186759
O O4 0.593406 0.093406 0.655987
O O5 0.555476 0.211753 0.583500
O O6 0.500000 0.000000 0.583070
O O7 0.000000 0.500000 0.271176
O O8 0.571288 0.071288 0.958856
O O9 0.737872 0.048490 0.906671
O O10 0.630125 0.869876 0.939006
O O11 0.743983 0.992086 0.000000
O O12 0.208960 0.958555 0.500000
O O13 0.086864 0.870919 0.433551
O O14 0.910868 0.127584 0.870532
#
# Coordination Sequence:
#
# PCOD8314456 Si02
#       6
#    16   8   8  16  16  16
#     4   9  21  43  65  85 116 156 199 252 310 363
#     4  11  25  40  57  91 132 163 202 254 306 358
#     4  11  26  41  60  92 124 158 207 252 301 366
#     4   9  19  34  49  72 108 143 176 215 266 331
#     4   9  20  40  65  93 124 163 210 252 297 356
#     4   9  19  36  56  79 105 134 176 227 280 339
#
# _framework density 19.373913999999999
#
# number of rings (size 3 to 8) (size 9 to 14) (size 15 to 20)
#    0.000    2.600    0.000    2.700    4.200    4.800 
#    3.600    5.000    0.000    0.000    0.000    0.000 
#    0.000    0.000    0.000    0.000    0.000    0.000 
#
# Total GULP energy -991271.696344 kJ/mol
# GULP energy per Si atom -12390.896204 kJ/mol
# Density = 1.932982 g / cm^3
# Si number density = 19.373914 Si / 1000 Ang^3
#
#
#
# Elastic Constant Matrix: (Units=GPa)
#
#
# Indices 1 2 3 4 5 6 
#
# 1 98.4637 58.0708 55.8202 0.0000 0.0000 0.0000
# 2 58.0708 98.4637 55.8202 0.0000 0.0000 0.0000
# 3 55.8202 55.8202 96.8418 0.0000 0.0000 0.0000
# 4 0.0000 0.0000 0.0000 59.5295 0.0000 0.0000
# 5 0.0000 0.0000 0.0000 0.0000 59.5295 0.0000
# 6 0.0000 0.0000 0.0000 0.0000 0.0000 16.3701
#
#
#
# Elastic Compliance Matrix: (Units=1/GPa)
#
#
# Indices 1 2 3 4 5 6 
#
# 1 0.017802 -0.006954 -0.006253 0.000000 0.000000 0.000000
# 2 -0.006954 0.017802 -0.006253 0.000000 0.000000 0.000000
# 3 -0.006253 -0.006253 0.017534 0.000000 0.000000 0.000000
# 4 0.000000 0.000000 0.000000 0.016798 0.000000 0.000000
# 5 0.000000 0.000000 0.000000 0.000000 0.016798 0.000000
# 6 0.000000 0.000000 0.000000 0.000000 0.000000 0.061087
#
#
# Mechanical properties :
#
#
# Convention : Reuss Voigt Hill
#
# Bulk Modulus (GPa) = 70.32836 70.35461 70.34148
# Shear Modulus (GPa) = 26.11205 35.35636 30.73420
#
# Velocity S-wave (km/s) = 3.67521 4.27657 3.98725
# Velocity P-wave (km/s) = 7.37489 7.79605 7.58839
#
# Compressibility (1/GPa) = 0.01421902
#
# Stress axis : x y z
#
# Youngs Moduli (GPa) = 56.17246 56.17246 57.03080
#
# Poissons Ratio (x) = 0.39065 0.35660
# Poissons Ratio (y) = 0.39065 0.35660
# Poissons Ratio (z) = 0.35123 0.35123
#
# Static dielectric constant tensor:
#      x y z
#    x 3.493560 0.000000 0.000000 
#    y 0.000000 3.493560 0.000000 
#    z 0.000000 0.000000 3.608810 
# 
# 
# High freq. dielectric constant tensor:
#      x y z
#    x 1.750880 0.000000 0.000000 
#    y 0.000000 1.750880 0.000000 
#    z 0.000000 0.000000 1.759910 
# 
# From -- ./inp_files/6457.got.cif
#   From: 2010.03.12/outbox.cif.g09.slc.cpg/sg127_4_cif.got.tgz:6457.got - 2010.04.06 17:03:15.
