data_PCOD8314482
_publ_section_title
;
Structure prediction by ZEFSAII (Michael W. Deem and Ramdas Pophale) SiO2 
 PCOD8314482
Probable space group: P 4/M N C
;
_chemical_formula_sum "Si O2"
_cell_formula_units_Z 40
_cell_length_a 20.030981
_cell_length_b 20.030981
_cell_length_c 5.362034
_cell_angle_alpha 90.000000
_cell_angle_beta 90.000000
_cell_angle_gamma 90.000000
_cell_volume 2151.463594
_symmetry_space_group_name_H-M "P 4/M N C"
_symmetry_group_IT_number 128
_symmetry_cell_setting 'tetragonal'
loop_
_space_group_symop_operation_xyz
x,y,z
-y,x,z
-x,-y,z
y,-x,z
1/2+x,1/2-y,1/2-z
1/2-x,1/2+y,1/2-z
1/2+y,1/2+x,1/2-z
1/2-y,1/2-x,1/2-z
-x,-y,-z
y,-x,-z
x,y,-z
-y,x,-z
1/2-x,1/2+y,1/2+z
1/2+x,1/2-y,1/2+z
1/2-y,1/2-x,1/2+z
1/2+y,1/2+x,1/2+z
loop_
_atom_site_type_symbol
_atom_site_label
_atom_site_fract_x
_atom_site_fract_y
_atom_site_fract_z
Si Si1 0.726904 0.116068 0.500000
Si Si2 0.916669 0.682282 0.000000
Si Si3 0.273452 0.663470 0.000000
Si Si4 0.869374 0.271215 0.000000
Si Si5 0.041410 0.597411 0.000000
O O1 0.726228 0.070180 0.249977
O O2 0.660302 0.160796 0.500000
O O3 0.792667 0.160426 0.500000
O O4 0.963885 0.617532 0.000000
O O5 0.208615 0.710472 0.000000
O O6 0.271800 0.616919 0.751158
O O7 0.913811 0.336815 0.000000
O O8 0.054896 0.554896 0.250000
#
# Coordination Sequence:
#
# PCOD8314482 Si02
#       5
#     8   8   8   8   8
#     4  10  19  35  47  68  84 114 166 193 236 272
#     4  10  20  32  48  61  89 121 154 204 231 265
#     4  10  16  28  51  66  84 100 146 202 225 271
#     4  10  16  27  43  69  83 107 139 187 227 276
#     4  12  21  34  44  64  94 125 160 190 228 276
#
# _framework density 18.591996000000002
#
# number of rings (size 3 to 8) (size 9 to 14) (size 15 to 20)
#    0.000    1.600    4.000    7.200    0.000    0.000 
#    0.000   12.000    0.000    0.000    0.000    0.000 
#    0.000    0.000    0.000    0.000    0.000  195.000 
#
# Total GULP energy -495657.027989 kJ/mol
# GULP energy per Si atom -12391.425700 kJ/mol
# Density = 1.854968 g / cm^3
# Si number density = 18.591996 Si / 1000 Ang^3
#
#
#
# Elastic Constant Matrix: (Units=GPa)
#
#
# Indices 1 2 3 4 5 6 
#
# 1 14.3039 11.2196 8.6775 0.0000 0.0000 0.0000
# 2 11.2196 14.3039 8.6775 0.0000 0.0000 0.0000
# 3 8.6775 8.6775 216.1494 0.0000 0.0000 0.0000
# 4 0.0000 0.0000 0.0000 -2.7229 0.0000 0.0000
# 5 0.0000 0.0000 0.0000 0.0000 -2.7229 0.0000
# 6 0.0000 0.0000 0.0000 0.0000 0.0000 18.5628
#
#
#
# Elastic Compliance Matrix: (Units=1/GPa)
#
#
# Indices 1 2 3 4 5 6 
#
# 1 0.182248 -0.141969 -0.001617 0.000000 0.000000 0.000000
# 2 -0.141969 0.182248 -0.001617 0.000000 0.000000 0.000000
# 3 -0.001617 -0.001617 0.004756 0.000000 0.000000 0.000000
# 4 0.000000 0.000000 0.000000 -0.367250 0.000000 0.000000
# 5 0.000000 0.000000 0.000000 0.000000 -0.367250 0.000000
# 6 0.000000 0.000000 0.000000 0.000000 0.000000 0.053871
#
#
# Mechanical properties :
#
#
# Convention : Reuss Voigt Hill
#
# Bulk Modulus (GPa) = 12.68291 33.54518 23.11405
# Shear Modulus (GPa) = 941.28699 17.03555 479.16127
#
# Velocity S-wave (km/s) = 22.52521 3.03030 16.07122
# Velocity P-wave (km/s) = 26.14097 5.50687 18.89015
#
# Compressibility (1/GPa) = 0.07884625
#
# Stress axis : x y z
#
# Youngs Moduli (GPa) = 5.48703 5.48703 210.24904
#
# Poissons Ratio (x) = 0.77899 0.33998
# Poissons Ratio (y) = 0.77899 0.33998
# Poissons Ratio (z) = 0.00887 0.00887
#
# Static dielectric constant tensor:
#      x y z
#    x 3.062310 0.000000 0.000000 
#    y 0.000000 3.062310 0.000000 
#    z 0.000000 0.000000 6.500500 
# 
# 
# High freq. dielectric constant tensor:
#      x y z
#    x 1.663700 0.000000 0.000000 
#    y 0.000000 1.663700 0.000000 
#    z 0.000000 0.000000 1.777540 
# 
# From -- ./inp_files/133.got.cif
#   From: 2010.03.12/outbox.cif.g09.slc.cpg/sg128_1_cif.got.tgz:133.got - 2010.04.06 17:11:05.
