data_PCOD8314506
_publ_section_title
;
Structure prediction by ZEFSAII (Michael W. Deem and Ramdas Pophale) SiO2 
 PCOD8314506
Probable space group: P 4/M N C
;
_chemical_formula_sum "Si O2"
_cell_formula_units_Z 96
_cell_length_a 23.639173
_cell_length_b 23.639173
_cell_length_c 8.913739
_cell_angle_alpha 90.000000
_cell_angle_beta 90.000000
_cell_angle_gamma 90.000000
_cell_volume 4981.090949
_symmetry_space_group_name_H-M "P 4/M N C"
_symmetry_group_IT_number 128
_symmetry_cell_setting 'tetragonal'
loop_
_space_group_symop_operation_xyz
x,y,z
-y,x,z
-x,-y,z
y,-x,z
1/2+x,1/2-y,1/2-z
1/2-x,1/2+y,1/2-z
1/2+y,1/2+x,1/2-z
1/2-y,1/2-x,1/2-z
-x,-y,-z
y,-x,-z
x,y,-z
-y,x,-z
1/2-x,1/2+y,1/2+z
1/2+x,1/2-y,1/2+z
1/2-y,1/2-x,1/2+z
1/2+y,1/2+x,1/2+z
loop_
_atom_site_type_symbol
_atom_site_label
_atom_site_fract_x
_atom_site_fract_y
_atom_site_fract_z
Si Si1 0.435289 0.731149 0.673270
Si Si2 0.562970 0.854495 0.174830
Si Si3 0.359142 0.652740 0.824195
Si Si4 0.955555 0.925682 0.322869
Si Si5 0.947471 0.636873 0.173910
Si Si6 0.553238 0.723089 0.174884
O O1 0.438337 0.714838 0.500000
O O2 0.372763 0.711546 0.738948
O O3 0.434201 0.797796 0.700854
O O4 0.493429 0.706717 0.749136
O O5 0.617568 0.882433 0.250000
O O6 0.506730 0.879716 0.249675
O O7 0.568504 0.787887 0.204796
O O8 0.561531 0.868681 0.000000
O O9 0.420392 0.628210 0.776881
O O10 0.311783 0.608664 0.763899
O O11 0.349656 0.664122 0.000000
O O12 0.955335 0.931898 0.500000
O O13 0.018819 0.922984 0.258437
O O14 0.897735 0.602265 0.250000
O O15 0.951437 0.621193 0.000000
O O16 0.545612 0.708270 0.000000
#
# Coordination Sequence:
#
# PCOD8314506 Si02
#       6
#    16  16  16  16  16  16
#     4  10  21  35  52  77 109 142 175 218 273 322
#     4  10  20  36  58  84 113 142 174 213 260 315
#     4  10  18  30  50  73  99 137 185 225 258 307
#     4   8  13  21  36  61  90 119 158 212 264 302
#     4  10  21  38  59  83 110 140 174 213 261 316
#     4   9  19  35  55  78 104 140 184 225 264 311
#
# _framework density 19.272887000000001
#
# number of rings (size 3 to 8) (size 9 to 14) (size 15 to 20)
#    0.000    2.500    0.000    3.000    0.000    6.333 
#    0.000    2.500    0.000    4.000    0.000    3.500 
#    0.000    0.000    0.000    0.000    0.000    0.000 
#
# Total GULP energy -1189257.365026 kJ/mol
# GULP energy per Si atom -12388.097552 kJ/mol
# Density = 1.922902 g / cm^3
# Si number density = 19.272887 Si / 1000 Ang^3
#
#
#
# Elastic Constant Matrix: (Units=GPa)
#
#
# Indices 1 2 3 4 5 6 
#
# 1 73.4080 46.1862 45.9824 0.0000 0.0000 0.0000
# 2 46.1862 73.4081 45.9819 0.0000 0.0000 0.0000
# 3 45.9824 45.9819 90.6444 0.0000 0.0000 0.0000
# 4 0.0000 0.0000 0.0000 27.4651 0.0000 0.0000
# 5 0.0000 0.0000 0.0000 0.0000 27.4649 0.0000
# 6 0.0000 0.0000 0.0000 0.0000 0.0000 42.1309
#
#
#
# Elastic Compliance Matrix: (Units=1/GPa)
#
#
# Indices 1 2 3 4 5 6 
#
# 1 0.025222 -0.011513 -0.006955 0.000000 0.000000 0.000000
# 2 -0.011513 0.025222 -0.006954 0.000000 0.000000 0.000000
# 3 -0.006955 -0.006954 0.018088 0.000000 0.000000 0.000000
# 4 0.000000 0.000000 0.000000 0.036410 0.000000 0.000000
# 5 0.000000 0.000000 0.000000 0.000000 0.036410 0.000000
# 6 0.000000 0.000000 0.000000 0.000000 0.000000 0.023736
#
#
# Mechanical properties :
#
#
# Convention : Reuss Voigt Hill
#
# Bulk Modulus (GPa) = 56.53337 57.08459 56.80898
# Shear Modulus (GPa) = 22.53998 26.03284 24.28641
#
# Velocity S-wave (km/s) = 3.42353 3.67924 3.55369
# Velocity P-wave (km/s) = 6.71001 6.90887 6.81017
#
# Compressibility (1/GPa) = 0.01768867
#
# Stress axis : x y z
#
# Youngs Moduli (GPa) = 39.64726 39.64766 55.28556
#
# Poissons Ratio (x) = 0.45646 0.38449
# Poissons Ratio (y) = 0.45645 0.38448
# Poissons Ratio (z) = 0.27573 0.27572
#
# Static dielectric constant tensor:
#      x y z
#    x 3.691900 0.000000 0.000000 
#    y 0.000000 3.691890 0.000000 
#    z 0.000000 0.000000 3.344790 
# 
# 
# High freq. dielectric constant tensor:
#      x y z
#    x 1.749670 0.000000 0.000000 
#    y 0.000000 1.749670 0.000000 
#    z 0.000000 0.000000 1.728840 
# 
# From -- ./inp_files/1415.got.cif
#   From: 2010.03.12/outbox.cif.g09.slc.cpg/sg128_1_cif.got.tgz:1415.got - 2010.04.06 17:11:05.
