data_PCOD8314391
_publ_section_title
;
Structure prediction by ZEFSAII (Michael W. Deem and Ramdas Pophale) SiO2 
 PCOD8314391
Probable space group: P 4/M B M
;
_chemical_formula_sum "Si O2"
_cell_formula_units_Z 96
_cell_length_a 19.839351
_cell_length_b 19.839351
_cell_length_c 15.308144
_cell_angle_alpha 90.000000
_cell_angle_beta 90.000000
_cell_angle_gamma 90.000000
_cell_volume 6025.283153
_symmetry_space_group_name_H-M "P 4/M B M"
_symmetry_group_IT_number 127
_symmetry_cell_setting 'tetragonal'
loop_
_space_group_symop_operation_xyz
x,y,z
-y,x,z
-x,-y,z
y,-x,z
1/2+x,1/2-y,-z
1/2-x,1/2+y,-z
1/2+y,1/2+x,-z
1/2-y,1/2-x,-z
-x,-y,-z
y,-x,-z
x,y,-z
-y,x,-z
1/2-x,1/2+y,z
1/2+x,1/2-y,z
1/2-y,1/2-x,z
1/2+y,1/2+x,z
loop_
_atom_site_type_symbol
_atom_site_label
_atom_site_fract_x
_atom_site_fract_y
_atom_site_fract_z
Si Si1 0.274637 0.339036 0.750000
Si Si2 0.053208 0.333826 0.750000
Si Si3 0.839509 0.226235 0.596049
Si Si4 0.160492 0.773766 0.903951
Si Si5 0.053947 0.665027 0.899133
Si Si6 0.553947 0.834974 0.399132
O O1 0.219912 0.280089 0.749999
O O2 0.239292 0.411415 0.750000
O O3 0.322445 0.332317 0.664988
O O4 0.322444 0.332317 0.835012
O O5 0.107643 0.392358 0.750001
O O6 0.010482 0.340888 0.837852
O O7 0.010482 0.340888 0.662147
O O8 0.846618 0.193002 0.500000
O O9 0.780873 0.280873 0.593767
O O10 0.908243 0.264761 0.621922
O O11 0.219127 0.719127 0.906234
O O12 0.091757 0.735240 0.878077
O O13 0.153383 0.806999 0.000000
O O14 0.102643 0.602643 0.878254
O O15 0.030588 0.663018 0.000000
O O16 0.530589 0.836985 0.500000
O O17 0.602643 0.897358 0.378251
#
# Coordination Sequence:
#
# PCOD8314391 Si02
#       6
#    16  16  16  16  16  16
#     4   9  17  27  40  61  87 112 136 169 221 273
#     4  11  22  30  39  62  96 127 147 170 212 261
#     4   8  14  27  47  64  76  99 141 188 225 254
#     4   8  14  27  47  64  76  99 141 188 225 254
#     4   9  18  32  48  63  81 114 159 194 213 238
#     4   9  18  32  48  63  81 114 159 194 213 238
#
# _framework density 15.932861000000001
#
# number of rings (size 3 to 8) (size 9 to 14) (size 15 to 20)
#    0.000    3.000    0.000    3.500    0.000    6.000 
#    0.000    5.000    0.000    0.000    0.000    0.000 
#    0.000   10.667    0.000   29.333    0.000    2.667 
#
# Total GULP energy -1189995.952002 kJ/mol
# GULP energy per Si atom -12395.791167 kJ/mol
# Density = 1.589660 g / cm^3
# Si number density = 15.932861 Si / 1000 Ang^3
#
#
#
# Elastic Constant Matrix: (Units=GPa)
#
#
# Indices 1 2 3 4 5 6 
#
# 1 55.7133 56.6261 59.1426 0.0000 0.0000 0.0000
# 2 56.6261 55.7133 59.1426 0.0000 0.0000 0.0000
# 3 59.1426 59.1426 128.7808 0.0000 0.0000 0.0000
# 4 0.0000 0.0000 0.0000 16.5844 0.0000 0.0000
# 5 0.0000 0.0000 0.0000 0.0000 16.5844 0.0000
# 6 0.0000 0.0000 0.0000 0.0000 0.0000 20.3125
#
#
#
# Elastic Compliance Matrix: (Units=1/GPa)
#
#
# Indices 1 2 3 4 5 6 
#
# 1 -0.539113 0.556349 -0.007916 0.000000 0.000000 0.000000
# 2 0.556349 -0.539113 -0.007916 0.000000 0.000000 0.000000
# 3 -0.007916 -0.007916 0.015036 0.000000 0.000000 0.000000
# 4 0.000000 0.000000 0.000000 0.060298 0.000000 0.000000
# 5 0.000000 0.000000 0.000000 0.000000 0.060298 0.000000
# 6 0.000000 0.000000 0.000000 0.000000 0.000000 0.049231
#
#
# Mechanical properties :
#
#
# Convention : Reuss Voigt Hill
#
# Bulk Modulus (GPa) = 56.03711 65.55889 60.79800
# Shear Modulus (GPa) = -2.54007 15.04933 6.25463
#
# Velocity S-wave (km/s) = -1.26400 3.07668 1.98347
# Velocity P-wave (km/s) = 5.75473 7.33877 6.59448
#
# Compressibility (1/GPa) = 0.01784532
#
# Stress axis : x y z
#
# Youngs Moduli (GPa) = -1.85490 -1.85490 66.50783
#
# Poissons Ratio (x) = 1.03197 0.52646
# Poissons Ratio (y) = 1.03197 0.52646
# Poissons Ratio (z) = -0.01468 -0.01468
#
# Static dielectric constant tensor:
#      x y z
#    x 2.809500 0.000000 0.000000 
#    y 0.000000 2.809500 0.000000 
#    z 0.000000 0.000000 3.389350 
# 
# 
# High freq. dielectric constant tensor:
#      x y z
#    x 1.577740 0.000000 0.000000 
#    y 0.000000 1.577740 0.000000 
#    z 0.000000 0.000000 1.634080 
# 
# From -- ./inp_files/4551.got.cif
#   From: 2010.03.12/outbox.cif.g09.slc.cpg/sg127_3_cif.got.tgz:4551.got - 2010.04.06 17:03:15.
