data_PCOD8314368
_publ_section_title
;
Structure prediction by ZEFSAII (Michael W. Deem and Ramdas Pophale) SiO2 
 PCOD8314368
Probable space group: P 4/M B M
;
_chemical_formula_sum "Si O2"
_cell_formula_units_Z 88
_cell_length_a 16.565980
_cell_length_b 16.565980
_cell_length_c 21.138224
_cell_angle_alpha 90.000000
_cell_angle_beta 90.000000
_cell_angle_gamma 90.000000
_cell_volume 5800.998607
_symmetry_space_group_name_H-M "P 4/M B M"
_symmetry_group_IT_number 127
_symmetry_cell_setting 'tetragonal'
loop_
_space_group_symop_operation_xyz
x,y,z
-y,x,z
-x,-y,z
y,-x,z
1/2+x,1/2-y,-z
1/2-x,1/2+y,-z
1/2+y,1/2+x,-z
1/2-y,1/2-x,-z
-x,-y,-z
y,-x,-z
x,y,-z
-y,x,-z
1/2-x,1/2+y,z
1/2+x,1/2-y,z
1/2-y,1/2-x,z
1/2+y,1/2+x,z
loop_
_atom_site_type_symbol
_atom_site_label
_atom_site_fract_x
_atom_site_fract_y
_atom_site_fract_z
Si Si1 0.682777 0.315923 0.320423
Si Si2 0.722020 0.092088 0.781240
Si Si3 0.407203 0.593123 0.427266
Si Si4 0.594171 0.775629 0.218218
Si Si5 0.314081 0.315648 0.112769
Si Si6 0.403510 0.405144 0.000000
O O1 0.752506 0.252506 0.336957
O O2 0.611327 0.273146 0.281554
O O3 0.649165 0.350336 0.385506
O O4 0.717602 0.388163 0.277596
O O5 0.636659 0.136659 0.777903
O O6 0.770115 0.119463 0.843194
O O7 0.703215 0.998728 0.785371
O O8 0.388111 0.500196 0.412029
O O9 0.387812 0.612594 0.500000
O O10 0.640885 0.859116 0.227467
O O11 0.620905 0.733500 0.153365
O O12 0.247402 0.252599 0.084840
O O13 0.361941 0.364481 0.060084
O O14 0.499035 0.387155 0.000000
#
# Coordination Sequence:
#
# PCOD8314368 Si02
#       6
#    16  16  16  16  16   8
#     4   9  17  28  43  62  84 112 140 167 203 247
#     4   9  17  29  45  64  85 109 138 171 206 244
#     4   9  17  28  42  61  84 109 138 173 210 244
#     4   9  17  29  45  64  85 109 138 171 206 244
#     4   9  18  32  47  62  83 112 142 170 202 244
#     4  11  21  30  44  66  89 111 136 170 210 247
#
# _framework density 15.169802000000001
#
# number of rings (size 3 to 8) (size 9 to 14) (size 15 to 20)
#    0.000    2.818    0.000    5.182    0.000    0.727 
#    0.000    0.000    0.000    8.727    0.000    0.000 
#    0.000   13.091    0.000   33.818    0.000    0.000 
#
# Total GULP energy -1090990.752314 kJ/mol
# GULP energy per Si atom -12397.622185 kJ/mol
# Density = 1.513527 g / cm^3
# Si number density = 15.169802 Si / 1000 Ang^3
#
#
#
# Elastic Constant Matrix: (Units=GPa)
#
#
# Indices 1 2 3 4 5 6 
#
# 1 78.0729 51.5885 42.8436 0.0000 0.0000 0.0000
# 2 51.5885 78.0729 42.8436 0.0000 0.0000 0.0000
# 3 42.8436 42.8436 89.5180 0.0000 0.0000 0.0000
# 4 0.0000 0.0000 0.0000 19.3564 0.0000 0.0000
# 5 0.0000 0.0000 0.0000 0.0000 19.3564 0.0000
# 6 0.0000 0.0000 0.0000 0.0000 0.0000 19.3516
#
#
#
# Elastic Compliance Matrix: (Units=1/GPa)
#
#
# Indices 1 2 3 4 5 6 
#
# 1 0.024519 -0.013239 -0.005399 0.000000 0.000000 0.000000
# 2 -0.013239 0.024519 -0.005399 0.000000 0.000000 0.000000
# 3 -0.005399 -0.005399 0.016339 0.000000 0.000000 0.000000
# 4 0.000000 0.000000 0.000000 0.051662 0.000000 0.000000
# 5 0.000000 0.000000 0.000000 0.000000 0.051662 0.000000
# 6 0.000000 0.000000 0.000000 0.000000 0.000000 0.051675
#
#
# Mechanical properties :
#
#
# Convention : Reuss Voigt Hill
#
# Bulk Modulus (GPa) = 57.78989 57.80169 57.79579
# Shear Modulus (GPa) = 18.23369 18.83877 18.53623
#
# Velocity S-wave (km/s) = 3.47071 3.52783 3.49938
# Velocity P-wave (km/s) = 7.36472 7.40135 7.38306
#
# Compressibility (1/GPa) = 0.01730407
#
# Stress axis : x y z
#
# Youngs Moduli (GPa) = 40.78451 40.78451 61.20464
#
# Poissons Ratio (x) = 0.53994 0.33043
# Poissons Ratio (y) = 0.53994 0.33043
# Poissons Ratio (z) = 0.22018 0.22018
#
# Static dielectric constant tensor:
#      x y z
#    x 2.820220 0.000000 0.000000 
#    y 0.000000 2.820220 0.000000 
#    z 0.000000 0.000000 2.818820 
# 
# 
# High freq. dielectric constant tensor:
#      x y z
#    x 1.580000 0.000000 0.000000 
#    y 0.000000 1.580000 0.000000 
#    z 0.000000 0.000000 1.579230 
# 
# From -- ./inp_files/5680.got.cif
#   From: 2010.03.12/outbox.cif.g09.slc.cpg/sg127_3_cif.got.tgz:5680.got - 2010.04.06 17:03:15.
