data_PCOD8314655
_publ_section_title
;
Structure prediction by ZEFSAII (Michael W. Deem and Ramdas Pophale) SiO2 
 PCOD8314655
Probable space group: P 4/M N C
;
_chemical_formula_sum "Si O2"
_cell_formula_units_Z 64
_cell_length_a 11.671353
_cell_length_b 11.671353
_cell_length_c 25.829901
_cell_angle_alpha 90.000000
_cell_angle_beta 90.000000
_cell_angle_gamma 90.000000
_cell_volume 3518.561535
_symmetry_space_group_name_H-M "P 4/M N C"
_symmetry_group_IT_number 128
_symmetry_cell_setting 'tetragonal'
loop_
_space_group_symop_operation_xyz
x,y,z
-y,x,z
-x,-y,z
y,-x,z
1/2+x,1/2-y,1/2-z
1/2-x,1/2+y,1/2-z
1/2+y,1/2+x,1/2-z
1/2-y,1/2-x,1/2-z
-x,-y,-z
y,-x,-z
x,y,-z
-y,x,-z
1/2-x,1/2+y,1/2+z
1/2+x,1/2-y,1/2+z
1/2-y,1/2-x,1/2+z
1/2+y,1/2+x,1/2+z
loop_
_atom_site_type_symbol
_atom_site_label
_atom_site_fract_x
_atom_site_fract_y
_atom_site_fract_z
Si Si1 0.983731 0.372474 0.326409
Si Si2 0.202371 0.702371 0.250000
Si Si3 0.473946 0.311315 0.500000
Si Si4 0.260502 0.856527 0.160921
Si Si5 0.414041 0.215075 0.393286
O O1 0.910862 0.296004 0.286079
O O2 0.916620 0.380603 0.381575
O O3 0.000000 0.500000 0.302877
O O4 0.106759 0.315704 0.337418
O O5 0.201711 0.817119 0.214737
O O6 0.595898 0.373008 0.500000
O O7 0.464440 0.228768 0.450451
O O8 0.196828 0.795010 0.113149
O O9 0.249574 0.992303 0.150928
#
# Coordination Sequence:
#
# PCOD8314655 Si02
#       5
#    16   8   8  16  16
#     4   9  20  36  55  76 113 154 184 236 278 338
#     4  10  21  32  59  78 108 152 194 220 285 346
#     4  11  20  34  59  83 125 152 181 244 311 349
#     4  10  21  34  55  79 113 145 190 228 284 341
#     4  10  20  37  56  84 110 151 188 238 292 343
#
# _framework density 18.189250000000001
#
# number of rings (size 3 to 8) (size 9 to 14) (size 15 to 20)
#    0.000    2.125    2.500    0.375   10.500    0.500 
#    0.000    6.875    0.000   12.000    0.000    0.000 
#    0.000    8.000    0.000    0.000    0.000    0.000 
#
# Total GULP energy -793186.928161 kJ/mol
# GULP energy per Si atom -12393.545753 kJ/mol
# Density = 1.814785 g / cm^3
# Si number density = 18.189250 Si / 1000 Ang^3
#
#
#
# Elastic Constant Matrix: (Units=GPa)
#
#
# Indices 1 2 3 4 5 6 
#
# 1 89.9912 44.9533 40.9288 0.0000 0.0000 0.0000
# 2 44.9533 89.9912 40.9288 0.0000 0.0000 0.0000
# 3 40.9288 40.9288 114.8559 0.0000 0.0000 0.0000
# 4 0.0000 0.0000 0.0000 24.7224 0.0000 0.0000
# 5 0.0000 0.0000 0.0000 0.0000 24.7224 0.0000
# 6 0.0000 0.0000 0.0000 0.0000 0.0000 24.5501
#
#
#
# Elastic Compliance Matrix: (Units=1/GPa)
#
#
# Indices 1 2 3 4 5 6 
#
# 1 0.015829 -0.006375 -0.003369 0.000000 0.000000 0.000000
# 2 -0.006375 0.015829 -0.003369 0.000000 0.000000 0.000000
# 3 -0.003369 -0.003369 0.011108 0.000000 0.000000 0.000000
# 4 0.000000 0.000000 0.000000 0.040449 0.000000 0.000000
# 5 0.000000 0.000000 0.000000 0.000000 0.040449 0.000000
# 6 0.000000 0.000000 0.000000 0.000000 0.000000 0.040733
#
#
# Mechanical properties :
#
#
# Convention : Reuss Voigt Hill
#
# Bulk Modulus (GPa) = 60.45967 60.93998 60.69983
# Shear Modulus (GPa) = 25.49261 26.00078 25.74670
#
# Velocity S-wave (km/s) = 3.74775 3.78492 3.76638
# Velocity P-wave (km/s) = 7.21380 7.25788 7.23587
#
# Compressibility (1/GPa) = 0.01653995
#
# Stress axis : x y z
#
# Youngs Moduli (GPa) = 63.17599 63.17599 90.02843
#
# Poissons Ratio (x) = 0.40273 0.30330
# Poissons Ratio (y) = 0.40273 0.30330
# Poissons Ratio (z) = 0.21284 0.21284
#
# Static dielectric constant tensor:
#      x y z
#    x 3.397950 0.000000 0.000000 
#    y 0.000000 3.397950 0.000000 
#    z 0.000000 0.000000 3.268450 
# 
# 
# High freq. dielectric constant tensor:
#      x y z
#    x 1.694800 0.000000 0.000000 
#    y 0.000000 1.694800 0.000000 
#    z 0.000000 0.000000 1.693980 
# 
# From -- ./inp_files/6729.got.cif
#   From: 2010.03.12/outbox.cif.g09.slc.cpg/sg128_4_cif.got.tgz:6729.got - 2010.04.06 17:11:05.
