data_PCOD8314524
_publ_section_title
;
Structure prediction by ZEFSAII (Michael W. Deem and Ramdas Pophale) SiO2 
 PCOD8314524
Probable space group: P 4/M N C
;
_chemical_formula_sum "Si O2"
_cell_formula_units_Z 120
_cell_length_a 27.765984
_cell_length_b 27.765984
_cell_length_c 8.430994
_cell_angle_alpha 90.000000
_cell_angle_beta 90.000000
_cell_angle_gamma 90.000000
_cell_volume 6499.873707
_symmetry_space_group_name_H-M "P 4/M N C"
_symmetry_group_IT_number 128
_symmetry_cell_setting 'tetragonal'
loop_
_space_group_symop_operation_xyz
x,y,z
-y,x,z
-x,-y,z
y,-x,z
1/2+x,1/2-y,1/2-z
1/2-x,1/2+y,1/2-z
1/2+y,1/2+x,1/2-z
1/2-y,1/2-x,1/2-z
-x,-y,-z
y,-x,-z
x,y,-z
-y,x,-z
1/2-x,1/2+y,1/2+z
1/2+x,1/2-y,1/2+z
1/2-y,1/2-x,1/2+z
1/2+y,1/2+x,1/2+z
loop_
_atom_site_type_symbol
_atom_site_label
_atom_site_fract_x
_atom_site_fract_y
_atom_site_fract_z
Si Si1 0.752073 0.677047 0.320002
Si Si2 0.811872 0.941550 0.321364
Si Si3 0.763301 0.075396 0.322241
Si Si4 0.969774 0.868445 0.682023
Si Si5 0.778426 0.841463 0.319421
Si Si6 0.532604 0.427455 0.500000
Si Si7 0.513864 0.777066 0.320750
Si Si8 0.182938 0.611545 0.312932
O O1 0.800448 0.699553 0.250000
O O2 0.760964 0.683831 0.500000
O O3 0.746301 0.620976 0.285553
O O4 0.704337 0.706569 0.279292
O O5 0.790702 0.950458 0.500000
O O6 0.818609 0.884096 0.295888
O O7 0.774569 0.959945 0.190356
O O8 0.861308 0.971923 0.304728
O O9 0.756340 0.093197 0.500000
O O10 0.816827 0.055252 0.294480
O O11 0.723452 0.034083 0.286133
O O12 0.958077 0.888406 0.500000
O O13 0.953570 0.900940 0.832583
O O14 0.776670 0.824586 0.500000
O O15 0.725990 0.859878 0.270935
O O16 0.563055 0.475957 0.500000
O O17 0.497243 0.785898 0.500000
O O18 0.554423 0.816098 0.268015
O O19 0.132500 0.632500 0.250000
O O20 0.188394 0.618189 0.500000
#
# Coordination Sequence:
#
# PCOD8314524 Si02
#       8
#    16  16  16  16  16   8  16  16
#     4  12  25  39  54  75 107 144 179 215 259 312
#     4   8  16  30  50  76 101 130 170 220 271 317
#     4  10  21  38  59  81 103 132 175 224 274 320
#     4   9  20  39  62  84 108 138 180 235 289 343
#     4  10  19  33  50  71 105 143 182 220 263 318
#     4  11  26  42  56  80 108 138 180 230 296 361
#     4   9  17  29  49  75 101 131 170 213 258 307
#     4  10  19  30  46  72 105 141 178 213 260 318
#
# _framework density 18.461897
#
# number of rings (size 3 to 8) (size 9 to 14) (size 15 to 20)
#    0.000    2.200    0.000    4.000    4.667    3.733 
#    0.000    3.333    0.000    0.000    0.000    0.000 
#    0.000    0.533    0.000    5.600    0.000    3.067 
#
# Total GULP energy -1486809.685295 kJ/mol
# GULP energy per Si atom -12390.080711 kJ/mol
# Density = 1.841988 g / cm^3
# Si number density = 18.461897 Si / 1000 Ang^3
#
#
#
# Elastic Constant Matrix: (Units=GPa)
#
#
# Indices 1 2 3 4 5 6 
#
# 1 57.4644 30.7381 31.0264 0.0000 0.0000 0.0000
# 2 30.7381 57.4749 31.0273 0.0000 0.0000 0.0000
# 3 31.0264 31.0273 106.3906 0.0000 0.0000 0.0000
# 4 0.0000 0.0000 0.0000 25.0693 0.0000 0.0000
# 5 0.0000 0.0000 0.0000 0.0000 25.0688 0.0000
# 6 0.0000 0.0000 0.0000 0.0000 0.0000 17.4024
#
#
#
# Elastic Compliance Matrix: (Units=1/GPa)
#
#
# Indices 1 2 3 4 5 6 
#
# 1 0.025839 -0.011573 -0.004160 0.000000 0.000000 0.000000
# 2 -0.011573 0.025833 -0.004159 0.000000 0.000000 0.000000
# 3 -0.004160 -0.004159 0.011825 0.000000 0.000000 0.000000
# 4 0.000000 0.000000 0.000000 0.039889 0.000000 0.000000
# 5 0.000000 0.000000 0.000000 0.000000 0.039890 0.000000
# 6 0.000000 0.000000 0.000000 0.000000 0.000000 0.057463
#
#
# Mechanical properties :
#
#
# Convention : Reuss Voigt Hill
#
# Bulk Modulus (GPa) = 42.17030 45.21261 43.69145
# Shear Modulus (GPa) = 20.12645 22.07729 21.10187
#
# Velocity S-wave (km/s) = 3.30534 3.46183 3.38449
# Velocity P-wave (km/s) = 6.12033 6.36568 6.24421
#
# Compressibility (1/GPa) = 0.02371337
#
# Stress axis : x y z
#
# Youngs Moduli (GPa) = 38.70166 38.70962 84.56340
#
# Poissons Ratio (x) = 0.44798 0.35180
# Poissons Ratio (y) = 0.44789 0.35169
# Poissons Ratio (z) = 0.16101 0.16099
#
# Static dielectric constant tensor:
#      x y z
#    x 3.399220 0.000000 0.000000 
#    y 0.000000 3.399220 0.000000 
#    z 0.000000 0.000000 3.559650 
# 
# 
# High freq. dielectric constant tensor:
#      x y z
#    x 1.689230 0.000000 0.000000 
#    y 0.000000 1.689230 0.000000 
#    z 0.000000 0.000000 1.734320 
# 
# From -- ./inp_files/1771.got.cif
#   From: 2010.03.12/outbox.cif.g09.slc.cpg/sg128_1_cif.got.tgz:1771.got - 2010.04.06 17:11:05.
