data_PCOD8314835
_publ_section_title
;
Structure prediction by ZEFSAII (Michael W. Deem and Ramdas Pophale) SiO2 
 PCOD8314835
Probable space group: P 4/M N C
;
_chemical_formula_sum "Si O2"
_cell_formula_units_Z 56
_cell_length_a 17.927193
_cell_length_b 17.927193
_cell_length_c 8.038491
_cell_angle_alpha 90.000000
_cell_angle_beta 90.000000
_cell_angle_gamma 90.000000
_cell_volume 2583.444392
_symmetry_space_group_name_H-M "P 4/M N C"
_symmetry_group_IT_number 128
_symmetry_cell_setting 'tetragonal'
loop_
_space_group_symop_operation_xyz
x,y,z
-y,x,z
-x,-y,z
y,-x,z
1/2+x,1/2-y,1/2-z
1/2-x,1/2+y,1/2-z
1/2+y,1/2+x,1/2-z
1/2-y,1/2-x,1/2-z
-x,-y,-z
y,-x,-z
x,y,-z
-y,x,-z
1/2-x,1/2+y,1/2+z
1/2+x,1/2-y,1/2+z
1/2-y,1/2-x,1/2+z
1/2+y,1/2+x,1/2+z
loop_
_atom_site_type_symbol
_atom_site_label
_atom_site_fract_x
_atom_site_fract_y
_atom_site_fract_z
Si Si1 0.161503 0.155200 0.311713
Si Si2 0.586731 0.804659 0.308344
Si Si3 0.907538 0.922416 0.000000
Si Si4 0.806071 0.579527 0.192043
O O1 0.134056 0.135644 0.500000
O O2 0.249706 0.139210 0.301352
O O3 0.137937 0.239735 0.267834
O O4 0.127424 0.102325 0.172970
O O5 0.612301 0.887700 0.250000
O O6 0.604243 0.789535 0.500000
O O7 0.498511 0.793234 0.284343
O O8 0.990693 0.895063 0.000000
O O9 0.883126 0.616875 0.250000
O O10 0.811049 0.560273 0.000000
#
# Coordination Sequence:
#
# PCOD8314835 Si02
#       4
#    16  16   8  16
#     4  11  24  43  69  99 136 176 228 280 337 401
#     4  12  25  43  69  99 137 179 229 283 342 408
#     4  11  24  40  64  98 134 178 226 273 338 408
#     4  11  25  43  68 100 136 179 229 282 344 406
#
# _framework density 21.676486000000001
#
# number of rings (size 3 to 8) (size 9 to 14) (size 15 to 20)
#    0.000    0.714    1.429    6.000    4.000    6.286 
#    0.000    4.286    0.000    0.000    0.000    0.000 
#    0.000    0.000    0.000    0.000    0.000    0.000 
#
# Total GULP energy -694332.255701 kJ/mol
# GULP energy per Si atom -12398.790280 kJ/mol
# Density = 2.162715 g / cm^3
# Si number density = 21.676486 Si / 1000 Ang^3
#
#
#
# Elastic Constant Matrix: (Units=GPa)
#
#
# Indices 1 2 3 4 5 6 
#
# 1 106.3735 57.3762 32.1442 0.0000 0.0000 0.0000
# 2 57.3762 106.3713 32.1367 0.0000 0.0000 0.0000
# 3 32.1442 32.1367 98.9687 0.0000 0.0000 0.0000
# 4 0.0000 0.0000 0.0000 37.9918 0.0000 0.0000
# 5 0.0000 0.0000 0.0000 0.0000 37.9917 0.0000
# 6 0.0000 0.0000 0.0000 0.0000 0.0000 40.6908
#
#
#
# Elastic Compliance Matrix: (Units=1/GPa)
#
#
# Indices 1 2 3 4 5 6 
#
# 1 0.013705 -0.006705 -0.002274 0.000000 0.000000 0.000000
# 2 -0.006705 0.013704 -0.002272 0.000000 0.000000 0.000000
# 3 -0.002274 -0.002272 0.011581 0.000000 0.000000 0.000000
# 4 0.000000 0.000000 0.000000 0.026321 0.000000 0.000000
# 5 0.000000 0.000000 0.000000 0.000000 0.026322 0.000000
# 6 0.000000 0.000000 0.000000 0.000000 0.000000 0.024576
#
#
# Mechanical properties :
#
#
# Convention : Reuss Voigt Hill
#
# Bulk Modulus (GPa) = 60.65425 61.66976 61.16200
# Shear Modulus (GPa) = 34.67254 36.00529 35.33892
#
# Velocity S-wave (km/s) = 4.00377 4.07999 4.04206
# Velocity P-wave (km/s) = 7.02965 7.12088 7.07541
#
# Compressibility (1/GPa) = 0.01648689
#
# Stress axis : x y z
#
# Youngs Moduli (GPa) = 72.96784 72.96986 86.35170
#
# Poissons Ratio (x) = 0.48928 0.19635
# Poissons Ratio (y) = 0.48927 0.19621
# Poissons Ratio (z) = 0.16592 0.16580
#
# Static dielectric constant tensor:
#      x y z
#    x 4.043140 0.000000 0.000000 
#    y 0.000000 4.043170 0.000000 
#    z 0.000000 0.000000 4.040380 
# 
# 
# High freq. dielectric constant tensor:
#      x y z
#    x 1.852090 0.000000 0.000000 
#    y 0.000000 1.852090 0.000000 
#    z 0.000000 0.000000 1.872280 
# 
# From -- ./inp_files/782.got.cif
#   From: 2010.03.12/outbox.cif.g09.slc.cpg/sg128_1_cif.got.tgz:782.got - 2010.04.06 17:11:05.
