data_PCOD8314437
_publ_section_title
;
Structure prediction by ZEFSAII (Michael W. Deem and Ramdas Pophale) SiO2 
 PCOD8314437
Probable space group: P 4/M B M
;
_chemical_formula_sum "Si O2"
_cell_formula_units_Z 96
_cell_length_a 15.124629
_cell_length_b 15.124629
_cell_length_c 22.062395
_cell_angle_alpha 90.000000
_cell_angle_beta 90.000000
_cell_angle_gamma 90.000000
_cell_volume 5046.869983
_symmetry_space_group_name_H-M "P 4/M B M"
_symmetry_group_IT_number 127
_symmetry_cell_setting 'tetragonal'
loop_
_space_group_symop_operation_xyz
x,y,z
-y,x,z
-x,-y,z
y,-x,z
1/2+x,1/2-y,-z
1/2-x,1/2+y,-z
1/2+y,1/2+x,-z
1/2-y,1/2-x,-z
-x,-y,-z
y,-x,-z
x,y,-z
-y,x,-z
1/2-x,1/2+y,z
1/2+x,1/2-y,z
1/2-y,1/2-x,z
1/2+y,1/2+x,z
loop_
_atom_site_type_symbol
_atom_site_label
_atom_site_fract_x
_atom_site_fract_y
_atom_site_fract_z
Si Si1 0.834854 0.190619 0.385308
Si Si2 0.019440 0.254310 0.569945
Si Si3 0.494812 0.354571 0.932564
Si Si4 0.573200 0.073200 0.360755
Si Si5 0.488790 0.741560 0.812623
Si Si6 0.573508 0.073508 0.774520
Si Si7 0.670120 0.685397 0.756321
O O1 0.775350 0.275350 0.403663
O O2 0.805432 0.106162 0.423956
O O3 0.823463 0.168998 0.314981
O O4 0.936481 0.206109 0.400406
O O5 0.000367 0.273980 0.500000
O O6 0.032466 0.345637 0.604005
O O7 0.583557 0.410322 0.923546
O O8 0.490743 0.277918 0.882859
O O9 0.493314 0.312330 0.000000
O O10 0.603364 0.103364 0.293305
O O11 0.500000 0.000000 0.353892
O O12 0.464505 0.843735 0.810329
O O13 0.574308 0.724344 0.771550
O O14 0.408206 0.681275 0.789406
O O15 0.500000 0.000000 0.771016
O O16 0.745872 0.754128 0.777783
#
# Coordination Sequence:
#
# PCOD8314437 Si02
#       7
#    16  16  16   8  16   8  16
#     4  11  24  43  63  87 123 160 200 253 316 370
#     4  12  25  41  63  88 119 161 203 251 312 378
#     4   9  18  35  58  90 128 160 196 246 297 347
#     4  11  23  42  65  91 118 154 215 267 302 348
#     4  12  21  37  64  93 126 158 209 252 303 363
#     4  11  24  41  61  87 127 171 200 246 316 376
#     4  11  23  38  61  92 124 159 202 257 309 368
#
# _framework density 19.02169
#
# number of rings (size 3 to 8) (size 9 to 14) (size 15 to 20)
#    0.000    1.000    3.333    5.250    0.000    5.667 
#    0.000    2.917    0.000    3.500    0.000    0.000 
#    0.000    0.000    0.000    0.000    0.000    0.000 
#
# Total GULP energy -1190895.337285 kJ/mol
# GULP energy per Si atom -12405.159763 kJ/mol
# Density = 1.897840 g / cm^3
# Si number density = 19.021690 Si / 1000 Ang^3
#
#
#
# Elastic Constant Matrix: (Units=GPa)
#
#
# Indices 1 2 3 4 5 6 
#
# 1 86.2169 9.5467 20.4818 0.0000 0.0000 0.0000
# 2 9.5467 86.2169 20.4818 0.0000 0.0000 0.0000
# 3 20.4818 20.4818 92.6917 0.0000 0.0000 0.0000
# 4 0.0000 0.0000 0.0000 9.6257 0.0000 0.0000
# 5 0.0000 0.0000 0.0000 0.0000 9.6257 0.0000
# 6 0.0000 0.0000 0.0000 0.0000 0.0000 33.6730
#
#
#
# Elastic Compliance Matrix: (Units=1/GPa)
#
#
# Indices 1 2 3 4 5 6 
#
# 1 0.012288 -0.000755 -0.002548 0.000000 0.000000 0.000000
# 2 -0.000755 0.012288 -0.002548 0.000000 0.000000 0.000000
# 3 -0.002548 -0.002548 0.011915 0.000000 0.000000 0.000000
# 4 0.000000 0.000000 0.000000 0.103888 0.000000 0.000000
# 5 0.000000 0.000000 0.000000 0.000000 0.103888 0.000000
# 6 0.000000 0.000000 0.000000 0.000000 0.000000 0.029697
#
#
# Mechanical properties :
#
#
# Convention : Reuss Voigt Hill
#
# Bulk Modulus (GPa) = 40.34480 40.68291 40.51385
# Shear Modulus (GPa) = 17.01086 24.89256 20.95171
#
# Velocity S-wave (km/s) = 2.99371 3.62144 3.32243
# Velocity P-wave (km/s) = 5.76244 6.23863 6.00525
#
# Compressibility (1/GPa) = 0.02478634
#
# Stress axis : x y z
#
# Youngs Moduli (GPa) = 81.38254 81.38254 83.93046
#
# Poissons Ratio (x) = 0.06146 0.21388
# Poissons Ratio (y) = 0.06146 0.21388
# Poissons Ratio (z) = 0.20739 0.20739
#
# Static dielectric constant tensor:
#      x y z
#    x 3.458990 0.000000 0.000000 
#    y 0.000000 3.458990 0.000000 
#    z 0.000000 0.000000 3.560270 
# 
# 
# High freq. dielectric constant tensor:
#      x y z
#    x 1.743400 0.000000 0.000000 
#    y 0.000000 1.743400 0.000000 
#    z 0.000000 0.000000 1.743900 
# 
# From -- ./inp_files/5827.got.cif
#   From: 2010.03.12/outbox.cif.g09.slc.cpg/sg127_3_cif.got.tgz:5827.got - 2010.04.06 17:03:15.
