data_PCOD8314096
_publ_section_title
;
Structure prediction by ZEFSAII (Michael W. Deem and Ramdas Pophale) SiO2 
 PCOD8314096
Probable space group: P 4/M B M
;
_chemical_formula_sum "Si O2"
_cell_formula_units_Z 72
_cell_length_a 21.245065
_cell_length_b 21.245065
_cell_length_c 8.771215
_cell_angle_alpha 90.000000
_cell_angle_beta 90.000000
_cell_angle_gamma 90.000000
_cell_volume 3958.912334
_symmetry_space_group_name_H-M "P 4/M B M"
_symmetry_group_IT_number 127
_symmetry_cell_setting 'tetragonal'
loop_
_space_group_symop_operation_xyz
x,y,z
-y,x,z
-x,-y,z
y,-x,z
1/2+x,1/2-y,-z
1/2-x,1/2+y,-z
1/2+y,1/2+x,-z
1/2-y,1/2-x,-z
-x,-y,-z
y,-x,-z
x,y,-z
-y,x,-z
1/2-x,1/2+y,z
1/2+x,1/2-y,z
1/2-y,1/2-x,z
1/2+y,1/2+x,z
loop_
_atom_site_type_symbol
_atom_site_label
_atom_site_fract_x
_atom_site_fract_y
_atom_site_fract_z
Si Si1 0.179161 0.496592 0.820114
Si Si2 0.880123 0.278306 0.672043
Si Si3 0.551173 0.051173 0.319410
Si Si4 0.395229 0.349000 0.181465
Si Si5 0.818102 0.033302 0.819981
O O1 0.183562 0.569048 0.770943
O O2 0.120777 0.464458 0.737637
O O3 0.244719 0.462671 0.770187
O O4 0.168538 0.492598 0.000000
O O5 0.905914 0.269865 0.500000
O O6 0.815574 0.315574 0.672885
O O7 0.862671 0.211881 0.746896
O O8 0.550853 0.050853 0.500000
O O9 0.500000 0.000000 0.258280
O O10 0.358748 0.409511 0.249128
O O11 0.468088 0.349837 0.235214
O O12 0.390053 0.344947 0.000000
O O13 0.821851 0.036429 0.000000
#
# Coordination Sequence:
#
# PCOD8314096 Si02
#       5
#    16  16   8  16  16
#     4  10  20  35  55  78 105 135 172 216 263 311
#     4  10  20  34  51  73 102 134 172 215 257 304
#     4  11  23  37  53  77 107 141 179 215 261 316
#     4   9  17  32  53  76 103 134 170 211 259 309
#     4   8  16  31  52  78 104 131 168 214 259 305
#
# _framework density 18.186813000000001
#
# number of rings (size 3 to 8) (size 9 to 14) (size 15 to 20)
#    0.000    2.556    0.000    3.667    0.000    5.778 
#    2.000    7.778    0.000    0.000    0.000    6.222 
#    0.000    0.000    0.000    0.000    0.000    0.000 
#
# Total GULP energy -892601.364646 kJ/mol
# GULP energy per Si atom -12397.241176 kJ/mol
# Density = 1.814542 g / cm^3
# Si number density = 18.186813 Si / 1000 Ang^3
#
#
#
# Elastic Constant Matrix: (Units=GPa)
#
#
# Indices 1 2 3 4 5 6 
#
# 1 126.8937 98.6939 35.2910 0.0000 0.0000 0.0000
# 2 98.6939 126.8937 35.2910 0.0000 0.0000 0.0000
# 3 35.2910 35.2910 50.0611 0.0000 0.0000 0.0000
# 4 0.0000 0.0000 0.0000 10.1605 0.0000 0.0000
# 5 0.0000 0.0000 0.0000 0.0000 10.1605 0.0000
# 6 0.0000 0.0000 0.0000 0.0000 0.0000 33.4719
#
#
#
# Elastic Compliance Matrix: (Units=1/GPa)
#
#
# Indices 1 2 3 4 5 6 
#
# 1 0.020574 -0.014887 -0.004009 0.000000 0.000000 0.000000
# 2 -0.014887 0.020574 -0.004009 0.000000 0.000000 0.000000
# 3 -0.004009 -0.004009 0.025628 0.000000 0.000000 0.000000
# 4 0.000000 0.000000 0.000000 0.098420 0.000000 0.000000
# 5 0.000000 0.000000 0.000000 0.000000 0.098420 0.000000
# 6 0.000000 0.000000 0.000000 0.000000 0.000000 0.029876
#
#
# Mechanical properties :
#
#
# Convention : Reuss Voigt Hill
#
# Bulk Modulus (GPa) = 47.69687 71.37780 59.53733
# Shear Modulus (GPa) = 14.43864 19.73009 17.08436
#
# Velocity S-wave (km/s) = 2.82069 3.29729 3.06826
# Velocity P-wave (km/s) = 6.07383 7.33678 6.73498
#
# Compressibility (1/GPa) = 0.02096574
#
# Stress axis : x y z
#
# Youngs Moduli (GPa) = 48.60445 48.60445 39.01929
#
# Poissons Ratio (x) = 0.72357 0.15644
# Poissons Ratio (y) = 0.72357 0.15644
# Poissons Ratio (z) = 0.19487 0.19487
#
# Static dielectric constant tensor:
#      x y z
#    x 3.533300 0.000000 0.000000 
#    y 0.000000 3.533300 0.000000 
#    z 0.000000 0.000000 3.264620 
# 
# 
# High freq. dielectric constant tensor:
#      x y z
#    x 1.704770 0.000000 0.000000 
#    y 0.000000 1.704770 0.000000 
#    z 0.000000 0.000000 1.691980 
# 
# From -- ./inp_files/1563.got.cif
#   From: 2010.03.12/outbox.cif.g09.slc.cpg/sg127_1_cif.got.tgz:1563.got - 2010.04.06 17:03:15.
