data_PCOD8314804
_publ_section_title
;
Structure prediction by ZEFSAII (Michael W. Deem and Ramdas Pophale) SiO2 
 PCOD8314804
Probable space group: P 4/M N C
;
_chemical_formula_sum "Si O2"
_cell_formula_units_Z 104
_cell_length_a 26.637269
_cell_length_b 26.637269
_cell_length_c 8.236114
_cell_angle_alpha 90.000000
_cell_angle_beta 90.000000
_cell_angle_gamma 90.000000
_cell_volume 5843.886094
_symmetry_space_group_name_H-M "P 4/M N C"
_symmetry_group_IT_number 128
_symmetry_cell_setting 'tetragonal'
loop_
_space_group_symop_operation_xyz
x,y,z
-y,x,z
-x,-y,z
y,-x,z
1/2+x,1/2-y,1/2-z
1/2-x,1/2+y,1/2-z
1/2+y,1/2+x,1/2-z
1/2-y,1/2-x,1/2-z
-x,-y,-z
y,-x,-z
x,y,-z
-y,x,-z
1/2-x,1/2+y,1/2+z
1/2+x,1/2-y,1/2+z
1/2-y,1/2-x,1/2+z
1/2+y,1/2+x,1/2+z
loop_
_atom_site_type_symbol
_atom_site_label
_atom_site_fract_x
_atom_site_fract_y
_atom_site_fract_z
Si Si1 0.868559 0.074111 0.684355
Si Si2 0.499651 0.923569 0.186727
Si Si3 0.039038 0.072013 0.000000
Si Si4 0.996825 0.790893 0.188469
Si Si5 0.364763 0.212527 0.691333
Si Si6 0.180636 0.528449 0.689889
Si Si7 0.321657 0.608936 0.309298
O O1 0.888496 0.062986 0.500000
O O2 0.902572 0.052879 0.829437
O O3 0.814320 0.047626 0.703054
O O4 0.865346 0.134110 0.706370
O O5 0.448656 0.948656 0.250000
O O6 0.499513 0.864724 0.225553
O O7 0.550072 0.949929 0.250000
O O8 0.499648 0.932854 0.000000
O O9 0.979813 0.068065 0.000000
O O10 0.998489 0.731763 0.226934
O O11 0.049921 0.816806 0.232054
O O12 0.984580 0.800706 0.000000
O O13 0.314678 0.185323 0.750000
O O14 0.369139 0.210991 0.500000
O O15 0.414835 0.185575 0.761049
O O16 0.363009 0.270606 0.745590
O O17 0.169764 0.530347 0.500000
O O18 0.332711 0.616017 0.500000
#
# Coordination Sequence:
#
# PCOD8314804 Si02
#       7
#    16  16   8  16  16  16  16
#     4  12  23  35  57  83 107 142 188 230 271 329
#     4  11  21  33  50  73 105 143 181 220 265 320
#     4  11  24  40  56  76 110 148 178 223 282 328
#     4   9  18  35  57  77 104 141 177 219 270 325
#     4   9  18  31  51  78 108 140 172 214 267 325
#     4   9  18  33  53  78 106 139 177 217 269 322
#     4   9  18  35  55  75 104 143 180 215 269 325
#
# _framework density 17.796377
#
# number of rings (size 3 to 8) (size 9 to 14) (size 15 to 20)
#    0.000    2.077    1.538    5.077    0.000    5.538 
#    0.000    3.846    0.000    0.923    0.000    4.308 
#    0.000    0.000    0.000    0.000    0.000    0.000 
#
# Total GULP energy -1289161.042216 kJ/mol
# GULP energy per Si atom -12395.779252 kJ/mol
# Density = 1.775587 g / cm^3
# Si number density = 17.796377 Si / 1000 Ang^3
#
#
#
# Elastic Constant Matrix: (Units=GPa)
#
#
# Indices 1 2 3 4 5 6 
#
# 1 113.7047 59.4082 45.9782 0.0000 0.0000 0.0000
# 2 59.4082 113.7071 45.9771 0.0000 0.0000 0.0000
# 3 45.9782 45.9771 104.0895 0.0000 0.0000 0.0000
# 4 0.0000 0.0000 0.0000 20.4680 0.0000 0.0000
# 5 0.0000 0.0000 0.0000 0.0000 20.4686 0.0000
# 6 0.0000 0.0000 0.0000 0.0000 0.0000 32.3199
#
#
#
# Elastic Compliance Matrix: (Units=1/GPa)
#
#
# Indices 1 2 3 4 5 6 
#
# 1 0.012982 -0.005435 -0.003334 0.000000 0.000000 0.000000
# 2 -0.005435 0.012982 -0.003334 0.000000 0.000000 0.000000
# 3 -0.003334 -0.003334 0.012552 0.000000 0.000000 0.000000
# 4 0.000000 0.000000 0.000000 0.048857 0.000000 0.000000
# 5 0.000000 0.000000 0.000000 0.000000 0.048855 0.000000
# 6 0.000000 0.000000 0.000000 0.000000 0.000000 0.030941
#
#
# Mechanical properties :
#
#
# Convention : Reuss Voigt Hill
#
# Bulk Modulus (GPa) = 69.87182 70.46983 70.17082
# Shear Modulus (GPa) = 25.49140 26.66050 26.07595
#
# Velocity S-wave (km/s) = 3.78880 3.87471 3.83200
# Velocity P-wave (km/s) = 7.64769 7.72668 7.68729
#
# Compressibility (1/GPa) = 0.01431192
#
# Stress axis : x y z
#
# Youngs Moduli (GPa) = 77.02717 77.03003 79.66698
#
# Poissons Ratio (x) = 0.41864 0.26561
# Poissons Ratio (y) = 0.41863 0.26557
# Poissons Ratio (z) = 0.25681 0.25678
#
# Static dielectric constant tensor:
#      x y z
#    x 3.387780 0.000000 0.000000 
#    y 0.000000 3.387750 0.000000 
#    z 0.000000 0.000000 3.229100 
# 
# 
# High freq. dielectric constant tensor:
#      x y z
#    x 1.679200 0.000000 0.000000 
#    y 0.000000 1.679200 0.000000 
#    z 0.000000 0.000000 1.687520 
# 
# From -- ./inp_files/1713.got.cif
#   From: 2010.03.12/outbox.cif.g09.slc.cpg/sg128_1_cif.got.tgz:1713.got - 2010.04.06 17:11:05.
