data_PCOD8314307
_publ_section_title
;
Structure prediction by ZEFSAII (Michael W. Deem and Ramdas Pophale) SiO2 
 PCOD8314307
Probable space group: P 4/M B M
;
_chemical_formula_sum "Si O2"
_cell_formula_units_Z 112
_cell_length_a 14.410367
_cell_length_b 14.410367
_cell_length_c 26.956530
_cell_angle_alpha 90.000000
_cell_angle_beta 90.000000
_cell_angle_gamma 90.000000
_cell_volume 5597.757358
_symmetry_space_group_name_H-M "P 4/M B M"
_symmetry_group_IT_number 127
_symmetry_cell_setting 'tetragonal'
loop_
_space_group_symop_operation_xyz
x,y,z
-y,x,z
-x,-y,z
y,-x,z
1/2+x,1/2-y,-z
1/2-x,1/2+y,-z
1/2+y,1/2+x,-z
1/2-y,1/2-x,-z
-x,-y,-z
y,-x,-z
x,y,-z
-y,x,-z
1/2-x,1/2+y,z
1/2+x,1/2-y,z
1/2-y,1/2-x,z
1/2+y,1/2+x,z
loop_
_atom_site_type_symbol
_atom_site_label
_atom_site_fract_x
_atom_site_fract_y
_atom_site_fract_z
Si Si1 0.604971 0.610878 0.054463
Si Si2 0.716100 0.369248 0.850180
Si Si3 0.008222 0.723848 0.716482
Si Si4 0.144924 0.495332 0.822719
Si Si5 0.319178 0.331895 0.745921
Si Si6 0.499819 0.349742 0.441669
Si Si7 0.999735 0.649741 0.609529
O O1 0.496205 0.628388 0.060022
O O2 0.655249 0.665741 0.098477
O O3 0.638184 0.646353 0.000000
O O4 0.801653 0.301653 0.841733
O O5 0.759289 0.474512 0.850184
O O6 0.649588 0.356120 0.802432
O O7 0.929938 0.803635 0.719480
O O8 0.002248 0.657311 0.763783
O O9 0.107179 0.774615 0.713903
O O10 0.996401 0.660601 0.668598
O O11 0.064140 0.564140 0.839569
O O12 0.109987 0.390014 0.836539
O O13 0.221721 0.278280 0.747033
O O14 0.591561 0.408220 0.426375
O O15 0.499816 0.332078 0.500000
O O16 0.499603 0.250464 0.415335
O O17 0.092024 0.592024 0.594345
O O18 0.908446 0.591555 0.593012
#
# Coordination Sequence:
#
# PCOD8314307 Si02
#       7
#    16  16  16  16  16  16  16
#     4   9  19  35  53  72  97 133 173 213 268 338
#     4   9  19  33  51  79 106 132 176 230 275 322
#     4  11  22  37  55  79 121 159 190 238 288 337
#     4   9  17  32  53  73 101 146 189 222 267 330
#     4  10  22  37  54  82 114 151 197 238 281 343
#     4   9  21  44  70  94 123 161 205 253 309 369
#     4  11  24  39  61  93 125 164 210 251 297 356
#
# _framework density 20.008013999999999
#
# number of rings (size 3 to 8) (size 9 to 14) (size 15 to 20)
#    0.000    2.286    0.000    4.286    6.000    2.857 
#    0.000    2.143    0.000    1.286    0.000    2.000 
#    0.000    0.000    0.000    0.000    0.000    0.000 
#
# Total GULP energy -1388104.667509 kJ/mol
# GULP energy per Si atom -12393.791674 kJ/mol
# Density = 1.996247 g / cm^3
# Si number density = 20.008014 Si / 1000 Ang^3
#
#
#
# Elastic Constant Matrix: (Units=GPa)
#
#
# Indices 1 2 3 4 5 6 
#
# 1 89.9408 31.3170 26.8337 0.0000 0.0000 0.0000
# 2 31.3170 89.9408 26.8337 0.0000 0.0000 0.0000
# 3 26.8337 26.8337 67.8127 0.0000 0.0000 0.0000
# 4 0.0000 0.0000 0.0000 27.0018 0.0000 0.0000
# 5 0.0000 0.0000 0.0000 0.0000 27.0018 0.0000
# 6 0.0000 0.0000 0.0000 0.0000 0.0000 25.0108
#
#
#
# Elastic Compliance Matrix: (Units=1/GPa)
#
#
# Indices 1 2 3 4 5 6 
#
# 1 0.013528 -0.003530 -0.003956 0.000000 0.000000 0.000000
# 2 -0.003530 0.013528 -0.003956 0.000000 0.000000 0.000000
# 3 -0.003956 -0.003956 0.017877 0.000000 0.000000 0.000000
# 4 0.000000 0.000000 0.000000 0.037035 0.000000 0.000000
# 5 0.000000 0.000000 0.000000 0.000000 0.037035 0.000000
# 6 0.000000 0.000000 0.000000 0.000000 0.000000 0.039983
#
#
# Mechanical properties :
#
#
# Convention : Reuss Voigt Hill
#
# Bulk Modulus (GPa) = 45.35471 46.40702 45.88087
# Shear Modulus (GPa) = 26.42438 26.65023 26.53730
#
# Velocity S-wave (km/s) = 3.63807 3.65359 3.64584
# Velocity P-wave (km/s) = 6.35334 6.40647 6.37996
#
# Compressibility (1/GPa) = 0.02204843
#
# Stress axis : x y z
#
# Youngs Moduli (GPa) = 73.92141 73.92141 55.93640
#
# Poissons Ratio (x) = 0.26095 0.22129
# Poissons Ratio (y) = 0.26095 0.22129
# Poissons Ratio (z) = 0.29245 0.29245
#
# Static dielectric constant tensor:
#      x y z
#    x 3.695610 0.000000 0.000000 
#    y 0.000000 3.695610 0.000000 
#    z 0.000000 0.000000 3.454530 
# 
# 
# High freq. dielectric constant tensor:
#      x y z
#    x 1.779890 0.000000 0.000000 
#    y 0.000000 1.779890 0.000000 
#    z 0.000000 0.000000 1.760000 
# 
# From -- ./inp_files/6404.got.cif
#   From: 2010.03.12/outbox.cif.g09.slc.cpg/sg127_4_cif.got.tgz:6404.got - 2010.04.06 17:03:15.
