data_PCOD8314266
_publ_section_title
;
Structure prediction by ZEFSAII (Michael W. Deem and Ramdas Pophale) SiO2 
 PCOD8314266
Probable space group: P 4/M B M
;
_chemical_formula_sum "Si O2"
_cell_formula_units_Z 72
_cell_length_a 20.990048
_cell_length_b 20.990048
_cell_length_c 7.626901
_cell_angle_alpha 90.000000
_cell_angle_beta 90.000000
_cell_angle_gamma 90.000000
_cell_volume 3360.276174
_symmetry_space_group_name_H-M "P 4/M B M"
_symmetry_group_IT_number 127
_symmetry_cell_setting 'tetragonal'
loop_
_space_group_symop_operation_xyz
x,y,z
-y,x,z
-x,-y,z
y,-x,z
1/2+x,1/2-y,-z
1/2-x,1/2+y,-z
1/2+y,1/2+x,-z
1/2-y,1/2-x,-z
-x,-y,-z
y,-x,-z
x,y,-z
-y,x,-z
1/2-x,1/2+y,z
1/2+x,1/2-y,z
1/2-y,1/2-x,z
1/2+y,1/2+x,z
loop_
_atom_site_type_symbol
_atom_site_label
_atom_site_fract_x
_atom_site_fract_y
_atom_site_fract_z
Si Si1 0.598031 0.538864 0.000000
Si Si2 0.743882 0.343878 0.705220
Si Si3 0.418433 0.815119 0.207782
Si Si4 0.442646 0.156757 0.794654
Si Si5 0.326788 0.397447 0.300118
O O1 0.535345 0.581957 0.000000
O O2 0.638700 0.551749 0.175515
O O3 0.739654 0.332894 0.500000
O O4 0.787662 0.287662 0.789362
O O5 0.774846 0.411987 0.749053
O O6 0.672524 0.341617 0.780572
O O7 0.363020 0.863020 0.265835
O O8 0.485339 0.844427 0.276502
O O9 0.407316 0.748665 0.302790
O O10 0.419746 0.804415 0.000000
O O11 0.400230 0.099771 0.708210
O O12 0.443582 0.146632 0.000000
O O13 0.352080 0.405396 0.500000
#
# Coordination Sequence:
#
# PCOD8314266 Si02
#       5
#     8  16  16  16  16
#     4  11  28  50  69  94 130 165 204 261 321 389
#     4   9  19  35  55  84 121 159 205 261 317 372
#     4  10  21  37  59  89 129 174 217 265 323 383
#     4   9  19  34  56  87 122 166 216 262 311 373
#     4  11  24  41  68  97 126 166 212 263 323 385
#
# _framework density 21.426808999999999
#
# number of rings (size 3 to 8) (size 9 to 14) (size 15 to 20)
#    0.000    2.111    1.111    0.667    4.667    3.556 
#    0.000    3.333    0.000    0.000    0.000    4.667 
#    0.000    0.000    0.000    0.000    0.000    0.000 
#
# Total GULP energy -892830.475877 kJ/mol
# GULP energy per Si atom -12400.423276 kJ/mol
# Density = 2.137804 g / cm^3
# Si number density = 21.426809 Si / 1000 Ang^3
#
#
#
# Elastic Constant Matrix: (Units=GPa)
#
#
# Indices 1 2 3 4 5 6 
#
# 1 140.4383 35.9674 26.0251 0.0000 0.0000 0.0000
# 2 35.9674 140.4383 26.0251 0.0000 0.0000 0.0000
# 3 26.0251 26.0251 64.3444 0.0000 0.0000 0.0000
# 4 0.0000 0.0000 0.0000 1.8073 0.0000 0.0000
# 5 0.0000 0.0000 0.0000 0.0000 1.8073 0.0000
# 6 0.0000 0.0000 0.0000 0.0000 0.0000 29.6113
#
#
#
# Elastic Compliance Matrix: (Units=1/GPa)
#
#
# Indices 1 2 3 4 5 6 
#
# 1 0.008004 -0.001568 -0.002604 0.000000 0.000000 0.000000
# 2 -0.001568 0.008004 -0.002604 0.000000 0.000000 0.000000
# 3 -0.002604 -0.002604 0.017647 0.000000 0.000000 0.000000
# 4 0.000000 0.000000 0.000000 0.553301 0.000000 0.000000
# 5 0.000000 0.000000 0.000000 0.000000 0.553301 0.000000
# 6 0.000000 0.000000 0.000000 0.000000 0.000000 0.033771
#
#
# Mechanical properties :
#
#
# Convention : Reuss Voigt Hill
#
# Bulk Modulus (GPa) = 49.73335 57.91739 53.82537
# Shear Modulus (GPa) = 4.18662 23.79208 13.98935
#
# Velocity S-wave (km/s) = 1.39934 3.33586 2.55794
# Velocity P-wave (km/s) = 5.08646 6.47506 5.82230
#
# Compressibility (1/GPa) = 0.02010723
#
# Stress axis : x y z
#
# Youngs Moduli (GPa) = 124.92982 124.92982 56.66538
#
# Poissons Ratio (x) = 0.19583 0.14753
# Poissons Ratio (y) = 0.19583 0.14753
# Poissons Ratio (z) = 0.32526 0.32526
#
# Static dielectric constant tensor:
#      x y z
#    x 4.058080 0.000000 0.000000 
#    y 0.000000 4.058080 0.000000 
#    z 0.000000 0.000000 3.596420 
# 
# 
# High freq. dielectric constant tensor:
#      x y z
#    x 1.841360 0.000000 0.000000 
#    y 0.000000 1.841360 0.000000 
#    z 0.000000 0.000000 1.829580 
# 
# From -- ./inp_files/1592.got.cif
#   From: 2010.03.12/outbox.cif.g09.slc.cpg/sg127_1_cif.got.tgz:1592.got - 2010.04.06 17:03:15.
