data_PCOD8314635
_publ_section_title
;
Structure prediction by ZEFSAII (Michael W. Deem and Ramdas Pophale) SiO2 
 PCOD8314635
Probable space group: P 4/M N C
;
_chemical_formula_sum "Si O2"
_cell_formula_units_Z 104
_cell_length_a 26.530462
_cell_length_b 26.530462
_cell_length_c 8.139547
_cell_angle_alpha 90.000000
_cell_angle_beta 90.000000
_cell_angle_gamma 90.000000
_cell_volume 5729.145618
_symmetry_space_group_name_H-M "P 4/M N C"
_symmetry_group_IT_number 128
_symmetry_cell_setting 'tetragonal'
loop_
_space_group_symop_operation_xyz
x,y,z
-y,x,z
-x,-y,z
y,-x,z
1/2+x,1/2-y,1/2-z
1/2-x,1/2+y,1/2-z
1/2+y,1/2+x,1/2-z
1/2-y,1/2-x,1/2-z
-x,-y,-z
y,-x,-z
x,y,-z
-y,x,-z
1/2-x,1/2+y,1/2+z
1/2+x,1/2-y,1/2+z
1/2-y,1/2-x,1/2+z
1/2+y,1/2+x,1/2+z
loop_
_atom_site_type_symbol
_atom_site_label
_atom_site_fract_x
_atom_site_fract_y
_atom_site_fract_z
Si Si1 0.864030 0.714741 0.811689
Si Si2 0.999190 0.421215 0.806820
Si Si3 0.422963 0.368060 0.684860
Si Si4 0.570813 0.458013 0.000000
Si Si5 0.495864 0.290332 0.808196
Si Si6 0.682994 0.032727 0.310447
Si Si7 0.679758 0.607245 0.811146
O O1 0.816770 0.683231 0.750000
O O2 0.915277 0.682522 0.790734
O O3 0.865969 0.766477 0.709938
O O4 0.856594 0.728665 0.000000
O O5 0.948026 0.448026 0.750000
O O6 0.047700 0.452301 0.750000
O O7 0.000159 0.366292 0.726695
O O8 0.999957 0.416270 0.000000
O O9 0.434911 0.388187 0.500000
O O10 0.449819 0.313777 0.705172
O O11 0.362409 0.364172 0.703440
O O12 0.443128 0.403688 0.828740
O O13 0.568980 0.517652 0.000000
O O14 0.498452 0.231121 0.764503
O O15 0.548756 0.316195 0.756543
O O16 0.485332 0.299543 0.000000
O O17 0.685919 0.048450 0.500000
O O18 0.663068 0.610711 0.000000
#
# Coordination Sequence:
#
# PCOD8314635 Si02
#       7
#    16  16  16   8  16  16  16
#     4  11  21  34  53  81 113 144 182 226 280 336
#     4  11  21  34  52  76 109 146 186 226 272 332
#     4  12  23  36  59  84 110 148 192 234 281 342
#     4  11  24  40  56  78 114 150 184 233 286 334
#     4   9  19  36  57  79 107 143 180 227 280 331
#     4  10  20  35  55  79 109 145 183 226 280 329
#     4  10  20  37  58  80 110 145 183 228 283 333
#
# _framework density 18.152795000000001
#
# number of rings (size 3 to 8) (size 9 to 14) (size 15 to 20)
#    0.000    1.462    1.538    6.462    0.000    5.538 
#    0.000    0.769    0.000    0.923    0.000    2.154 
#    0.000    0.000    0.000    0.000    0.000    0.000 
#
# Total GULP energy -1289717.945171 kJ/mol
# GULP energy per Si atom -12401.134088 kJ/mol
# Density = 1.811148 g / cm^3
# Si number density = 18.152795 Si / 1000 Ang^3
#
#
#
# Elastic Constant Matrix: (Units=GPa)
#
#
# Indices 1 2 3 4 5 6 
#
# 1 118.7312 58.3253 34.3398 0.0000 0.0000 0.0000
# 2 58.3253 118.7299 34.3385 0.0000 0.0000 0.0000
# 3 34.3398 34.3385 99.9677 0.0000 0.0000 0.0000
# 4 0.0000 0.0000 0.0000 23.5405 0.0000 0.0000
# 5 0.0000 0.0000 0.0000 0.0000 23.5407 0.0000
# 6 0.0000 0.0000 0.0000 0.0000 0.0000 30.5929
#
#
#
# Elastic Compliance Matrix: (Units=1/GPa)
#
#
# Indices 1 2 3 4 5 6 
#
# 1 0.011535 -0.005019 -0.002238 0.000000 0.000000 0.000000
# 2 -0.005019 0.011536 -0.002238 0.000000 0.000000 0.000000
# 3 -0.002238 -0.002238 0.011541 0.000000 0.000000 0.000000
# 4 0.000000 0.000000 0.000000 0.042480 0.000000 0.000000
# 5 0.000000 0.000000 0.000000 0.000000 0.042480 0.000000
# 6 0.000000 0.000000 0.000000 0.000000 0.000000 0.032687
#
#
# Mechanical properties :
#
#
# Convention : Reuss Voigt Hill
#
# Bulk Modulus (GPa) = 64.02044 65.71513 64.86779
# Shear Modulus (GPa) = 28.33543 29.56317 28.94930
#
# Velocity S-wave (km/s) = 3.95516 4.03994 3.99777
# Velocity P-wave (km/s) = 7.49679 7.61847 7.55788
#
# Compressibility (1/GPa) = 0.01562001
#
# Stress axis : x y z
#
# Youngs Moduli (GPa) = 86.68898 86.68865 86.64787
#
# Poissons Ratio (x) = 0.43512 0.19395
# Poissons Ratio (y) = 0.43512 0.19394
# Poissons Ratio (z) = 0.19405 0.19403
#
# Static dielectric constant tensor:
#      x y z
#    x 3.309930 0.000000 0.000000 
#    y 0.000000 3.309920 0.000000 
#    z 0.000000 0.000000 3.460860 
# 
# 
# High freq. dielectric constant tensor:
#      x y z
#    x 1.692500 0.000000 0.000000 
#    y 0.000000 1.692490 0.000000 
#    z 0.000000 0.000000 1.717960 
# 
# From -- ./inp_files/1728.got.cif
#   From: 2010.03.12/outbox.cif.g09.slc.cpg/sg128_1_cif.got.tgz:1728.got - 2010.04.06 17:11:05.
