data_PCOD8314066
_publ_section_title
;
Structure prediction by ZEFSAII (Michael W. Deem and Ramdas Pophale) SiO2 
 PCOD8314066
Probable space group: P 4/M B M
;
_chemical_formula_sum "Si O2"
_cell_formula_units_Z 80
_cell_length_a 18.942969
_cell_length_b 18.942969
_cell_length_c 13.674395
_cell_angle_alpha 90.000000
_cell_angle_beta 90.000000
_cell_angle_gamma 90.000000
_cell_volume 4906.866223
_symmetry_space_group_name_H-M "P 4/M B M"
_symmetry_group_IT_number 127
_symmetry_cell_setting 'tetragonal'
loop_
_space_group_symop_operation_xyz
x,y,z
-y,x,z
-x,-y,z
y,-x,z
1/2+x,1/2-y,-z
1/2-x,1/2+y,-z
1/2+y,1/2+x,-z
1/2-y,1/2-x,-z
-x,-y,-z
y,-x,-z
x,y,-z
-y,x,-z
1/2-x,1/2+y,z
1/2+x,1/2-y,z
1/2-y,1/2-x,z
1/2+y,1/2+x,z
loop_
_atom_site_type_symbol
_atom_site_label
_atom_site_fract_x
_atom_site_fract_y
_atom_site_fract_z
Si Si1 0.843448 0.126131 0.614304
Si Si2 0.337690 0.047981 0.386702
Si Si3 0.191978 0.022650 0.301206
Si Si4 0.116196 0.004852 0.890593
Si Si5 0.904367 0.595633 0.384417
Si Si6 0.707234 0.207234 0.383729
O O1 0.855488 0.136168 0.500000
O O2 0.918138 0.135793 0.667126
O O3 0.785470 0.183928 0.651665
O O4 0.816167 0.047505 0.634488
O O5 0.315085 0.038068 0.500000
O O6 0.379926 0.120075 0.372822
O O7 0.269489 0.053661 0.318471
O O8 0.385511 0.983013 0.349503
O O9 0.180157 0.006216 0.186653
O O10 0.072048 0.933775 0.874439
O O11 0.148362 0.006231 0.000000
O O12 0.901387 0.598613 0.500000
O O13 0.848753 0.651248 0.339579
O O14 0.703858 0.203858 0.500000
#
# Coordination Sequence:
#
# PCOD8314066 Si02
#       6
#    16  16  16  16   8   8
#     4  11  22  33  47  71 108 143 171 199 242 303
#     4  10  20  32  48  74 106 139 177 214 247 293
#     4  12  21  33  50  75 102 137 169 208 252 301
#     4   9  18  35  55  73  94 125 170 218 257 298
#     4   9  15  30  51  68  94 136 181 218 244 272
#     4   9  18  33  48  65  98 144 177 204 239 288
#
# _framework density 16.303685000000002
#
# number of rings (size 3 to 8) (size 9 to 14) (size 15 to 20)
#    0.000    1.800    4.000    2.700    1.400    1.600 
#    0.000    1.000    0.000    0.600    0.000    4.200 
#    0.000    1.600    0.000    0.000    0.000    0.000 
#
# Total GULP energy -991940.870751 kJ/mol
# GULP energy per Si atom -12399.260884 kJ/mol
# Density = 1.626658 g / cm^3
# Si number density = 16.303685 Si / 1000 Ang^3
#
#
#
# Elastic Constant Matrix: (Units=GPa)
#
#
# Indices 1 2 3 4 5 6 
#
# 1 69.1333 28.4839 24.9560 0.0000 0.0000 0.0000
# 2 28.4839 69.1333 24.9560 0.0000 0.0000 0.0000
# 3 24.9560 24.9560 69.6724 0.0000 0.0000 0.0000
# 4 0.0000 0.0000 0.0000 14.6626 0.0000 0.0000
# 5 0.0000 0.0000 0.0000 0.0000 14.6626 0.0000
# 6 0.0000 0.0000 0.0000 0.0000 0.0000 23.7854
#
#
#
# Elastic Compliance Matrix: (Units=1/GPa)
#
#
# Indices 1 2 3 4 5 6 
#
# 1 0.018571 -0.006030 -0.004492 0.000000 0.000000 0.000000
# 2 -0.006030 0.018571 -0.004492 0.000000 0.000000 0.000000
# 3 -0.004492 -0.004492 0.017571 0.000000 0.000000 0.000000
# 4 0.000000 0.000000 0.000000 0.068201 0.000000 0.000000
# 5 0.000000 0.000000 0.000000 0.000000 0.068201 0.000000
# 6 0.000000 0.000000 0.000000 0.000000 0.000000 0.042043
#
#
# Mechanical properties :
#
#
# Convention : Reuss Voigt Hill
#
# Bulk Modulus (GPa) = 40.51116 40.52563 40.51839
# Shear Modulus (GPa) = 18.42218 19.25836 18.84027
#
# Velocity S-wave (km/s) = 3.36510 3.44063 3.40308
# Velocity P-wave (km/s) = 6.32458 6.37923 6.35197
#
# Compressibility (1/GPa) = 0.02468456
#
# Stress axis : x y z
#
# Youngs Moduli (GPa) = 53.84813 53.84813 56.91236
#
# Poissons Ratio (x) = 0.32470 0.25565
# Poissons Ratio (y) = 0.32470 0.25565
# Poissons Ratio (z) = 0.24189 0.24189
#
# Static dielectric constant tensor:
#      x y z
#    x 3.136870 0.000000 0.000000 
#    y 0.000000 3.136870 0.000000 
#    z 0.000000 0.000000 2.763890 
# 
# 
# High freq. dielectric constant tensor:
#      x y z
#    x 1.630730 0.000000 0.000000 
#    y 0.000000 1.630730 0.000000 
#    z 0.000000 0.000000 1.578640 
# 
# From -- ./inp_files/4288.got.cif
#   From: 2010.03.12/outbox.cif.g09.slc.cpg/sg127_3_cif.got.tgz:4288.got - 2010.04.06 17:03:15.
