data_PCOD8314129
_publ_section_title
;
Structure prediction by ZEFSAII (Michael W. Deem and Ramdas Pophale) SiO2 
 PCOD8314129
Probable space group: P 4/M B M
;
_chemical_formula_sum "Si O2"
_cell_formula_units_Z 120
_cell_length_a 26.724684
_cell_length_b 26.724684
_cell_length_c 8.970732
_cell_angle_alpha 90.000000
_cell_angle_beta 90.000000
_cell_angle_gamma 90.000000
_cell_volume 6406.975153
_symmetry_space_group_name_H-M "P 4/M B M"
_symmetry_group_IT_number 127
_symmetry_cell_setting 'tetragonal'
loop_
_space_group_symop_operation_xyz
x,y,z
-y,x,z
-x,-y,z
y,-x,z
1/2+x,1/2-y,-z
1/2-x,1/2+y,-z
1/2+y,1/2+x,-z
1/2-y,1/2-x,-z
-x,-y,-z
y,-x,-z
x,y,-z
-y,x,-z
1/2-x,1/2+y,z
1/2+x,1/2-y,z
1/2-y,1/2-x,z
1/2+y,1/2+x,z
loop_
_atom_site_type_symbol
_atom_site_label
_atom_site_fract_x
_atom_site_fract_y
_atom_site_fract_z
Si Si1 0.153148 0.520634 0.322633
Si Si2 0.258131 0.841126 0.664449
Si Si3 0.061862 0.281735 0.823861
Si Si4 0.413266 0.233703 0.176174
Si Si5 0.959889 0.459889 0.323324
Si Si6 0.079288 0.999318 0.177563
Si Si7 0.190372 0.003199 0.174762
Si Si8 0.190766 0.774149 0.165932
O O1 0.157301 0.518927 0.500000
O O2 0.174475 0.469315 0.255004
O O3 0.184603 0.567797 0.261932
O O4 0.095864 0.526100 0.268492
O O5 0.247563 0.863464 0.500000
O O6 0.294716 0.794716 0.651914
O O7 0.284694 0.881392 0.770125
O O8 0.205678 0.821933 0.734166
O O9 0.041823 0.226878 0.775363
O O10 0.057803 0.289995 0.000000
O O11 0.445449 0.282440 0.220908
O O12 0.357348 0.245528 0.231294
O O13 0.416874 0.222520 0.000000
O O14 0.961501 0.461501 0.500000
O O15 0.000000 0.500000 0.258118
O O16 0.049946 0.049169 0.232031
O O17 0.135231 0.998959 0.248968
O O18 0.081679 0.999578 0.000000
O O19 0.182477 0.001245 0.000000
O O20 0.236074 0.736074 0.159184
O O21 0.178147 0.794179 0.000000
#
# Coordination Sequence:
#
# PCOD8314129 Si02
#       8
#    16  16  16  16   8  16  16  16
#     4  10  20  35  56  80 105 138 178 220 269 326
#     4  10  21  36  53  75 103 135 171 213 259 311
#     4  10  20  35  54  76 103 136 173 215 262 318
#     4   9  18  32  50  74 105 139 174 216 263 316
#     4   9  20  38  57  79 107 137 175 221 267 325
#     4   8  13  21  35  58  89 124 162 203 245 290
#     4   8  15  27  42  64  95 128 164 203 247 298
#     4   9  18  32  50  74 103 137 175 213 259 314
#
# _framework density 18.729588
#
# number of rings (size 3 to 8) (size 9 to 14) (size 15 to 20)
#    0.000    2.867    0.000    2.400    0.933    2.933 
#    0.000    6.333    0.000    2.800    0.000    0.000 
#    0.000    0.000    0.000   37.867    0.000   34.667 
#
# Total GULP energy -1487460.225727 kJ/mol
# GULP energy per Si atom -12395.501881 kJ/mol
# Density = 1.868696 g / cm^3
# Si number density = 18.729588 Si / 1000 Ang^3
#
#
#
# Elastic Constant Matrix: (Units=GPa)
#
#
# Indices 1 2 3 4 5 6 
#
# 1 122.6162 45.3841 35.5874 0.0000 0.0000 0.0000
# 2 45.3841 122.6162 35.5874 0.0000 0.0000 0.0000
# 3 35.5874 35.5874 60.3519 0.0000 0.0000 0.0000
# 4 0.0000 0.0000 0.0000 23.5029 0.0000 0.0000
# 5 0.0000 0.0000 0.0000 0.0000 23.5029 0.0000
# 6 0.0000 0.0000 0.0000 0.0000 0.0000 12.5376
#
#
#
# Elastic Compliance Matrix: (Units=1/GPa)
#
#
# Indices 1 2 3 4 5 6 
#
# 1 0.010441 -0.002507 -0.004679 0.000000 0.000000 0.000000
# 2 -0.002507 0.010441 -0.004679 0.000000 0.000000 0.000000
# 3 -0.004679 -0.004679 0.022087 0.000000 0.000000 0.000000
# 4 0.000000 0.000000 0.000000 0.042548 0.000000 0.000000
# 5 0.000000 0.000000 0.000000 0.000000 0.042548 0.000000
# 6 0.000000 0.000000 0.000000 0.000000 0.000000 0.079760
#
#
# Mechanical properties :
#
#
# Convention : Reuss Voigt Hill
#
# Bulk Modulus (GPa) = 51.97115 59.85579 55.91347
# Shear Modulus (GPa) = 21.01122 24.51038 22.76080
#
# Velocity S-wave (km/s) = 3.35299 3.62144 3.48980
# Velocity P-wave (km/s) = 6.54205 7.03660 6.79383
#
# Compressibility (1/GPa) = 0.01924144
#
# Stress axis : x y z
#
# Youngs Moduli (GPa) = 95.77381 95.77381 45.27506
#
# Poissons Ratio (x) = 0.24008 0.21183
# Poissons Ratio (y) = 0.24008 0.21183
# Poissons Ratio (z) = 0.44810 0.44810
#
# Static dielectric constant tensor:
#      x y z
#    x 3.567860 0.000000 0.000000 
#    y 0.000000 3.567860 0.000000 
#    z 0.000000 0.000000 3.244890 
# 
# 
# High freq. dielectric constant tensor:
#      x y z
#    x 1.727820 0.000000 0.000000 
#    y 0.000000 1.727820 0.000000 
#    z 0.000000 0.000000 1.693760 
# 
# From -- ./inp_files/2410.got.cif
#   From: 2010.03.12/outbox.cif.g09.slc.cpg/sg127_2_cif.got.tgz:2410.got - 2010.04.06 17:03:15.
