data_PCOD8314923
_publ_section_title
;
Structure prediction by ZEFSAII (Michael W. Deem and Ramdas Pophale) SiO2 
 PCOD8314923
Probable space group: P 4/N M M
;
_chemical_formula_sum "Si O2"
_cell_formula_units_Z 128
_cell_length_a 18.543811
_cell_length_b 18.543811
_cell_length_c 24.231913
_cell_angle_alpha 90.000000
_cell_angle_beta 90.000000
_cell_angle_gamma 90.000000
_cell_volume 8332.698836
_symmetry_space_group_name_H-M "P 4/N M M"
_symmetry_group_IT_number 129
_symmetry_cell_setting 'tetragonal'
loop_
_space_group_symop_operation_xyz
x,y,z
1/2-y,x,z
1/2-x,1/2-y,z
y,1/2-x,z
1/2+x,-y,-z
-x,1/2+y,-z
1/2+y,1/2+x,-z
-y,-x,-z
-x,-y,-z
1/2+y,-x,-z
1/2+x,1/2+y,-z
-y,1/2+x,-z
1/2-x,y,z
x,1/2-y,z
1/2-y,1/2-x,z
y,x,z
loop_
_atom_site_type_symbol
_atom_site_label
_atom_site_fract_x
_atom_site_fract_y
_atom_site_fract_z
Si Si1 0.831778 0.413272 0.773426
Si Si2 0.067815 0.833419 0.034939
Si Si3 0.672132 0.559795 0.713405
Si Si4 0.832643 0.100619 0.553547
Si Si5 0.450577 0.570337 0.872146
Si Si6 0.332597 0.449435 0.055911
Si Si7 0.335210 0.832228 0.334376
Si Si8 0.055459 0.330575 0.411714
O O1 0.750000 0.387645 0.791751
O O2 0.826125 0.494790 0.754912
O O3 0.892535 0.410063 0.820519
O O4 0.863483 0.366675 0.722558
O O5 0.084962 0.750000 0.051779
O O6 0.051990 0.884805 0.086927
O O7 0.135644 0.864357 0.000000
O O8 0.994506 0.836448 0.000260
O O9 0.750000 0.598016 0.712009
O O10 0.615902 0.615902 0.737811
O O11 0.652216 0.534204 0.651650
O O12 0.872500 0.127501 0.500000
O O13 0.750000 0.125868 0.550205
O O14 0.867622 0.131364 0.610244
O O15 0.840718 0.014951 0.551589
O O16 0.497140 0.497140 0.858668
O O17 0.504499 0.630104 0.896090
O O18 0.250000 0.433552 0.072878
O O19 0.373885 0.373885 0.047219
O O20 0.250000 0.843963 0.335057
O O21 0.359355 0.750000 0.334877
O O22 0.086066 0.250000 0.417507
O O23 0.116369 0.383632 0.434406
#
# Coordination Sequence:
#
# PCOD8314923 Si02
#       8
#    16  16  16  16  16  16  16  16
#     4  10  18  29  43  60  84 114 146 180 216 254
#     4   9  18  32  48  66  89 116 145 182 224 264
#     4   9  16  27  42  58  79 107 137 172 210 247
#     4  10  18  29  45  66  89 115 147 183 221 267
#     4  10  19  30  46  66  87 116 153 183 216 264
#     4   9  17  30  47  67  91 117 145 179 217 257
#     4   9  17  29  43  60  84 114 146 179 218 262
#     4   9  17  29  44  62  85 112 143 178 217 259
#
# _framework density 15.361169
#
# number of rings (size 3 to 8) (size 9 to 14) (size 15 to 20)
#    0.000    2.625    1.250    1.500    0.000    3.875 
#    0.000    1.250    0.000    0.000    0.000    1.750 
#    0.000    0.000    0.000    0.000    0.000    0.250 
#
# Total GULP energy -1586373.022845 kJ/mol
# GULP energy per Si atom -12393.539241 kJ/mol
# Density = 1.532621 g / cm^3
# Si number density = 15.361169 Si / 1000 Ang^3
#
#
#
# Elastic Constant Matrix: (Units=GPa)
#
#
# Indices 1 2 3 4 5 6 
#
# 1 62.1632 27.2172 29.6861 0.0000 0.0000 0.0000
# 2 27.2172 62.1650 29.6866 0.0000 0.0000 0.0000
# 3 29.6861 29.6866 83.2451 0.0000 0.0000 0.0000
# 4 0.0000 0.0000 0.0000 18.9424 0.0000 0.0000
# 5 0.0000 0.0000 0.0000 0.0000 18.9416 0.0000
# 6 0.0000 0.0000 0.0000 0.0000 0.0000 19.6938
#
#
#
# Elastic Compliance Matrix: (Units=1/GPa)
#
#
# Indices 1 2 3 4 5 6 
#
# 1 0.021638 -0.006977 -0.005228 0.000000 0.000000 0.000000
# 2 -0.006977 0.021638 -0.005228 0.000000 0.000000 0.000000
# 3 -0.005228 -0.005228 0.015742 0.000000 0.000000 0.000000
# 4 0.000000 0.000000 0.000000 0.052792 0.000000 0.000000
# 5 0.000000 0.000000 0.000000 0.000000 0.052794 0.000000
# 6 0.000000 0.000000 0.000000 0.000000 0.000000 0.050777
#
#
# Mechanical properties :
#
#
# Convention : Reuss Voigt Hill
#
# Bulk Modulus (GPa) = 41.40712 42.30590 41.85651
# Shear Modulus (GPa) = 19.35751 19.58112 19.46931
#
# Velocity S-wave (km/s) = 3.55372 3.57419 3.56397
# Velocity P-wave (km/s) = 6.62215 6.68085 6.65156
#
# Compressibility (1/GPa) = 0.02415044
#
# Stress axis : x y z
#
# Youngs Moduli (GPa) = 46.21455 46.21582 63.52561
#
# Poissons Ratio (x) = 0.32244 0.33213
# Poissons Ratio (y) = 0.32244 0.33213
# Poissons Ratio (z) = 0.24162 0.24163
#
# Static dielectric constant tensor:
#      x y z
#    x 2.925100 0.000000 0.000000 
#    y 0.000000 2.925100 0.000000 
#    z 0.000000 0.000000 2.900730 
# 
# 
# High freq. dielectric constant tensor:
#      x y z
#    x 1.575520 0.000000 0.000000 
#    y 0.000000 1.575520 0.000000 
#    z 0.000000 0.000000 1.581060 
# 
# From -- ./inp_files/7326.got.cif
#   From: 2010.03.12/outbox.cif.g09.slc.cpg/sg129_4_cif.got.tgz:7326.got - 2010.04.06 17:19:44.
