data_PCOD8314522
_publ_section_title
;
Structure prediction by ZEFSAII (Michael W. Deem and Ramdas Pophale) SiO2 
 PCOD8314522
Probable space group: P 4/M N C
;
_chemical_formula_sum "Si O2"
_cell_formula_units_Z 128
_cell_length_a 20.024545
_cell_length_b 20.024545
_cell_length_c 16.998957
_cell_angle_alpha 90.000000
_cell_angle_beta 90.000000
_cell_angle_gamma 90.000000
_cell_volume 6816.282617
_symmetry_space_group_name_H-M "P 4/M N C"
_symmetry_group_IT_number 128
_symmetry_cell_setting 'tetragonal'
loop_
_space_group_symop_operation_xyz
x,y,z
-y,x,z
-x,-y,z
y,-x,z
1/2+x,1/2-y,1/2-z
1/2-x,1/2+y,1/2-z
1/2+y,1/2+x,1/2-z
1/2-y,1/2-x,1/2-z
-x,-y,-z
y,-x,-z
x,y,-z
-y,x,-z
1/2-x,1/2+y,1/2+z
1/2+x,1/2-y,1/2+z
1/2-y,1/2-x,1/2+z
1/2+y,1/2+x,1/2+z
loop_
_atom_site_type_symbol
_atom_site_label
_atom_site_fract_x
_atom_site_fract_y
_atom_site_fract_z
Si Si1 0.485696 0.391815 0.410305
Si Si2 0.896946 0.314082 0.307377
Si Si3 0.317218 0.984229 0.585904
Si Si4 0.161505 0.012271 0.413484
Si Si5 0.865595 0.112659 0.328889
Si Si6 0.194720 0.094177 0.192238
Si Si7 0.735077 0.795439 0.091471
Si Si8 0.351061 0.765256 0.089984
O O1 0.556267 0.425711 0.393320
O O2 0.482680 0.367233 0.500000
O O3 0.472816 0.327806 0.354110
O O4 0.872405 0.372405 0.250000
O O5 0.960858 0.345629 0.353224
O O6 0.922860 0.251598 0.255897
O O7 0.836601 0.290438 0.364496
O O8 0.349669 0.998090 0.500000
O O9 0.238355 0.993885 0.581964
O O10 0.326261 0.904347 0.607827
O O11 0.129137 0.003180 0.500000
O O12 0.156444 0.087882 0.385805
O O13 0.123369 0.965583 0.349455
O O14 0.878648 0.129126 0.237778
O O15 0.791009 0.133505 0.347219
O O16 0.219896 0.147269 0.128712
O O17 0.779897 0.727832 0.100721
O O18 0.720916 0.811157 0.000000
O O19 0.363832 0.741104 0.000000
#
# Coordination Sequence:
#
# PCOD8314522 Si02
#       8
#    16  16  16  16  16  16  16  16
#     4   9  20  38  55  67  88 129 179 222 261 302
#     4  10  19  30  45  70  98 129 162 208 253 303
#     4   9  16  28  45  65  90 127 164 194 237 294
#     4  10  19  30  43  60  89 133 173 204 244 296
#     4  11  20  29  42  62  92 125 167 208 246 287
#     4  11  21  30  47  70  97 122 169 220 267 289
#     4  10  19  33  49  67  93 131 171 208 253 313
#     4   9  17  29  47  66  89 124 163 194 235 301
#
# _framework density 18.778565
#
# number of rings (size 3 to 8) (size 9 to 14) (size 15 to 20)
#    0.000    2.125    2.500    3.000    1.750    2.250 
#    0.000    0.625    0.000    0.000    0.000    0.000 
#    0.000    0.000    0.000   37.125    0.000  270.125 
#
# Total GULP energy -1585739.491135 kJ/mol
# GULP energy per Si atom -12388.589774 kJ/mol
# Density = 1.873582 g / cm^3
# Si number density = 18.778565 Si / 1000 Ang^3
#
#
#
# Elastic Constant Matrix: (Units=GPa)
#
#
# Indices 1 2 3 4 5 6 
#
# 1 17.8056 1.3216 6.0152 0.0000 0.0000 0.0000
# 2 1.3216 17.8056 6.0152 0.0000 0.0000 0.0000
# 3 6.0152 6.0152 74.8090 0.0000 0.0000 0.0000
# 4 0.0000 0.0000 0.0000 25.6037 0.0000 0.0000
# 5 0.0000 0.0000 0.0000 0.0000 25.6037 0.0000
# 6 0.0000 0.0000 0.0000 0.0000 0.0000 18.1323
#
#
#
# Elastic Compliance Matrix: (Units=1/GPa)
#
#
# Indices 1 2 3 4 5 6 
#
# 1 0.057866 -0.002799 -0.004428 0.000000 0.000000 0.000000
# 2 -0.002799 0.057866 -0.004428 0.000000 0.000000 0.000000
# 3 -0.004428 -0.004428 0.014079 0.000000 0.000000 0.000000
# 4 0.000000 0.000000 0.000000 0.039057 0.000000 0.000000
# 5 0.000000 0.000000 0.000000 0.000000 0.039057 0.000000
# 6 0.000000 0.000000 0.000000 0.000000 0.000000 0.055150
#
#
# Mechanical properties :
#
#
# Convention : Reuss Voigt Hill
#
# Bulk Modulus (GPa) = 9.38956 15.23602 12.31279
# Shear Modulus (GPa) = 15.53353 20.33916 17.93634
#
# Velocity S-wave (km/s) = 2.87922 3.29463 3.09390
# Velocity P-wave (km/s) = 4.00802 4.75435 4.39705
#
# Compressibility (1/GPa) = 0.10650124
#
# Stress axis : x y z
#
# Youngs Moduli (GPa) = 17.28141 17.28141 71.02564
#
# Poissons Ratio (x) = 0.04838 0.31448
# Poissons Ratio (y) = 0.04838 0.31448
# Poissons Ratio (z) = 0.07652 0.07652
#
# Static dielectric constant tensor:
#      x y z
#    x 3.374230 0.000000 0.000000 
#    y 0.000000 3.374230 0.000000 
#    z 0.000000 0.000000 3.642020 
# 
# 
# High freq. dielectric constant tensor:
#      x y z
#    x 1.694620 0.000000 0.000000 
#    y 0.000000 1.694620 0.000000 
#    z 0.000000 0.000000 1.741790 
# 
# From -- ./inp_files/5086.got.cif
#   From: 2010.03.12/outbox.cif.g09.slc.cpg/sg128_3_cif.got.tgz:5086.got - 2010.04.06 17:11:05.
