data_PCOD8314984
_publ_section_title
;
Structure prediction by ZEFSAII (Michael W. Deem and Ramdas Pophale) SiO2 
 PCOD8314984
Probable space group: P 4/N M M
;
_chemical_formula_sum "Si O2"
_cell_formula_units_Z 96
_cell_length_a 18.171876
_cell_length_b 18.171876
_cell_length_c 18.753366
_cell_angle_alpha 90.000000
_cell_angle_beta 90.000000
_cell_angle_gamma 90.000000
_cell_volume 6192.681711
_symmetry_space_group_name_H-M "P 4/N M M"
_symmetry_group_IT_number 129
_symmetry_cell_setting 'tetragonal'
loop_
_space_group_symop_operation_xyz
x,y,z
1/2-y,x,z
1/2-x,1/2-y,z
y,1/2-x,z
1/2+x,-y,-z
-x,1/2+y,-z
1/2+y,1/2+x,-z
-y,-x,-z
-x,-y,-z
1/2+y,-x,-z
1/2+x,1/2+y,-z
-y,1/2+x,-z
1/2-x,y,z
x,1/2-y,z
1/2-y,1/2-x,z
y,x,z
loop_
_atom_site_type_symbol
_atom_site_label
_atom_site_fract_x
_atom_site_fract_y
_atom_site_fract_z
Si Si1 0.487329 0.604052 0.922433
Si Si2 0.837471 0.168280 0.576687
Si Si3 0.667742 0.089875 0.142707
Si Si4 0.050828 0.332760 0.214150
Si Si5 0.549638 0.667560 0.064824
Si Si6 0.836109 0.104869 0.723936
O O1 0.519322 0.519322 0.914027
O O2 0.400805 0.616876 0.905930
O O3 0.533627 0.655332 0.869164
O O4 0.500993 0.630337 0.002562
O O5 0.864716 0.135285 0.500000
O O6 0.750000 0.172103 0.572443
O O7 0.869561 0.250000 0.589403
O O8 0.862653 0.118370 0.643014
O O9 0.750000 0.117796 0.117610
O O10 0.655880 0.115680 0.223724
O O11 0.667167 0.000912 0.135948
O O12 0.077033 0.250000 0.226081
O O13 0.115921 0.384080 0.242004
O O14 0.979869 0.352326 0.260939
O O15 0.571739 0.750000 0.042627
O O16 0.624299 0.624299 0.080029
O O17 0.750000 0.124480 0.735415
#
# Coordination Sequence:
#
# PCOD8314984 Si02
#       6
#    16  16  16  16  16  16
#     4   9  17  31  47  60  80 109 139 173 213 254
#     4   8  13  22  39  63  87 111 139 167 195 229
#     4  10  19  28  41  62  86 114 144 169 197 237
#     4   9  17  28  43  62  81 105 137 172 213 257
#     4  10  20  33  48  64  81 103 135 176 219 258
#     4   9  17  29  43  60  86 116 142 168 199 239
#
# _framework density 15.502169
#
# number of rings (size 3 to 8) (size 9 to 14) (size 15 to 20)
#    0.000    2.833    0.000    2.500    0.000    4.000 
#    0.000    0.833    0.000    4.500    0.000    0.000 
#    0.000    0.000    0.000    0.000    0.000   21.000 
#
# Total GULP energy -1189363.325679 kJ/mol
# GULP energy per Si atom -12389.201309 kJ/mol
# Density = 1.546688 g / cm^3
# Si number density = 15.502169 Si / 1000 Ang^3
#
#
#
# Elastic Constant Matrix: (Units=GPa)
#
#
# Indices 1 2 3 4 5 6 
#
# 1 83.6812 45.5857 37.3038 0.0000 0.0000 0.0000
# 2 45.5857 83.6814 37.3038 0.0000 0.0000 0.0000
# 3 37.3038 37.3038 102.0451 0.0000 0.0000 0.0000
# 4 0.0000 0.0000 0.0000 14.3943 0.0000 0.0000
# 5 0.0000 0.0000 0.0000 0.0000 14.3942 0.0000
# 6 0.0000 0.0000 0.0000 0.0000 0.0000 19.6971
#
#
#
# Elastic Compliance Matrix: (Units=1/GPa)
#
#
# Indices 1 2 3 4 5 6 
#
# 1 0.018027 -0.008223 -0.003584 0.000000 0.000000 0.000000
# 2 -0.008223 0.018027 -0.003584 0.000000 0.000000 0.000000
# 3 -0.003584 -0.003584 0.012420 0.000000 0.000000 0.000000
# 4 0.000000 0.000000 0.000000 0.069472 0.000000 0.000000
# 5 0.000000 0.000000 0.000000 0.000000 0.069473 0.000000
# 6 0.000000 0.000000 0.000000 0.000000 0.000000 0.050769
#
#
# Mechanical properties :
#
#
# Convention : Reuss Voigt Hill
#
# Bulk Modulus (GPa) = 56.52116 56.64383 56.58249
# Shear Modulus (GPa) = 18.19058 19.64472 18.91765
#
# Velocity S-wave (km/s) = 3.42924 3.56367 3.49710
# Velocity P-wave (km/s) = 7.22626 7.31790 7.27223
#
# Compressibility (1/GPa) = 0.01769249
#
# Stress axis : x y z
#
# Youngs Moduli (GPa) = 55.47182 55.47194 80.51489
#
# Poissons Ratio (x) = 0.45612 0.28858
# Poissons Ratio (y) = 0.45612 0.28858
# Poissons Ratio (z) = 0.19882 0.19882
#
# Static dielectric constant tensor:
#      x y z
#    x 2.950930 0.000000 0.000000 
#    y 0.000000 2.950930 0.000000 
#    z 0.000000 0.000000 3.054660 
# 
# 
# High freq. dielectric constant tensor:
#      x y z
#    x 1.582040 0.000000 0.000000 
#    y 0.000000 1.582040 0.000000 
#    z 0.000000 0.000000 1.574960 
# 
# From -- ./inp_files/5642.got.cif
#   From: 2010.03.12/outbox.cif.g09.slc.cpg/sg129_3_cif.got.tgz:5642.got - 2010.04.06 17:19:44.
