data_PCOD8314228
_publ_section_title
;
Structure prediction by ZEFSAII (Michael W. Deem and Ramdas Pophale) SiO2 
 PCOD8314228
Probable space group: P 4/M B M
;
_chemical_formula_sum "Si O2"
_cell_formula_units_Z 96
_cell_length_a 23.961997
_cell_length_b 23.961997
_cell_length_c 9.004694
_cell_angle_alpha 90.000000
_cell_angle_beta 90.000000
_cell_angle_gamma 90.000000
_cell_volume 5170.290890
_symmetry_space_group_name_H-M "P 4/M B M"
_symmetry_group_IT_number 127
_symmetry_cell_setting 'tetragonal'
loop_
_space_group_symop_operation_xyz
x,y,z
-y,x,z
-x,-y,z
y,-x,z
1/2+x,1/2-y,-z
1/2-x,1/2+y,-z
1/2+y,1/2+x,-z
1/2-y,1/2-x,-z
-x,-y,-z
y,-x,-z
x,y,-z
-y,x,-z
1/2-x,1/2+y,z
1/2+x,1/2-y,z
1/2-y,1/2-x,z
1/2+y,1/2+x,z
loop_
_atom_site_type_symbol
_atom_site_label
_atom_site_fract_x
_atom_site_fract_y
_atom_site_fract_z
Si Si1 0.064351 0.939166 0.823605
Si Si2 0.857610 0.266858 0.326140
Si Si3 0.062649 0.653011 0.169206
Si Si4 0.148981 0.155297 0.823955
Si Si5 0.639053 0.048674 0.666995
Si Si6 0.230787 0.358799 0.669586
O O1 0.110265 0.895789 0.761209
O O2 0.002199 0.921761 0.768093
O O3 0.065636 0.938286 0.000000
O O4 0.861056 0.255623 0.500000
O O5 0.802184 0.302184 0.284706
O O6 0.912426 0.299755 0.275490
O O7 0.857893 0.209050 0.241344
O O8 0.095413 0.595413 0.190675
O O9 0.999331 0.641870 0.212197
O O10 0.065921 0.674127 0.000000
O O11 0.130708 0.216816 0.774972
O O12 0.152152 0.152653 0.000000
O O13 0.636808 0.024079 0.500000
O O14 0.583650 0.083650 0.700213
O O15 0.692908 0.087087 0.684737
O O16 0.250967 0.350593 0.500000
O O17 0.196272 0.303729 0.719123
#
# Coordination Sequence:
#
# PCOD8314228 Si02
#       6
#    16  16  16  16  16  16
#     4   8  16  33  53  72 100 136 168 201 246 301
#     4  10  21  37  55  74 102 142 180 212 255 314
#     4  10  21  36  54  78 108 139 174 222 274 317
#     4  11  21  31  52  85 109 130 170 219 265 313
#     4   9  19  36  56  77 104 142 185 223 261 313
#     4   9  19  36  54  73 103 142 179 214 256 309
#
# _framework density 18.567620000000002
#
# number of rings (size 3 to 8) (size 9 to 14) (size 15 to 20)
#    0.000    2.500    0.000    3.500    0.000    7.000 
#    0.000    5.000    0.000    3.000    0.000    4.667 
#    0.000    0.000    0.000    0.000    0.000    0.000 
#
# Total GULP energy -1190394.008897 kJ/mol
# GULP energy per Si atom -12399.937593 kJ/mol
# Density = 1.852536 g / cm^3
# Si number density = 18.567620 Si / 1000 Ang^3
#
#
#
# Elastic Constant Matrix: (Units=GPa)
#
#
# Indices 1 2 3 4 5 6 
#
# 1 144.9449 32.0396 42.8272 0.0000 0.0000 0.0000
# 2 32.0396 144.9449 42.8272 0.0000 0.0000 0.0000
# 3 42.8272 42.8272 62.8875 0.0000 0.0000 0.0000
# 4 0.0000 0.0000 0.0000 31.1521 0.0000 0.0000
# 5 0.0000 0.0000 0.0000 0.0000 31.1521 0.0000
# 6 0.0000 0.0000 0.0000 0.0000 0.0000 23.2299
#
#
#
# Elastic Compliance Matrix: (Units=1/GPa)
#
#
# Indices 1 2 3 4 5 6 
#
# 1 0.008642 -0.000215 -0.005740 0.000000 0.000000 0.000000
# 2 -0.000215 0.008642 -0.005740 0.000000 0.000000 0.000000
# 3 -0.005740 -0.005740 0.023719 0.000000 0.000000 0.000000
# 4 0.000000 0.000000 0.000000 0.032101 0.000000 0.000000
# 5 0.000000 0.000000 0.000000 0.000000 0.032101 0.000000
# 6 0.000000 0.000000 0.000000 0.000000 0.000000 0.043048
#
#
# Mechanical properties :
#
#
# Convention : Reuss Voigt Hill
#
# Bulk Modulus (GPa) = 56.76482 65.35171 61.05826
# Shear Modulus (GPa) = 28.16704 32.77901 30.47303
#
# Velocity S-wave (km/s) = 3.89909 4.20621 4.05556
# Velocity P-wave (km/s) = 7.13504 7.67220 7.40849
#
# Compressibility (1/GPa) = 0.01761655
#
# Stress axis : x y z
#
# Youngs Moduli (GPa) = 115.70758 115.70758 42.16053
#
# Poissons Ratio (x) = 0.02482 0.24198
# Poissons Ratio (y) = 0.02482 0.24198
# Poissons Ratio (z) = 0.66411 0.66411
#
# Static dielectric constant tensor:
#      x y z
#    x 3.495780 0.000000 0.000000 
#    y 0.000000 3.495780 0.000000 
#    z 0.000000 0.000000 3.360290 
# 
# 
# High freq. dielectric constant tensor:
#      x y z
#    x 1.724030 0.000000 0.000000 
#    y 0.000000 1.724030 0.000000 
#    z 0.000000 0.000000 1.707170 
# 
# From -- ./inp_files/1932.got.cif
#   From: 2010.03.12/outbox.cif.g09.slc.cpg/sg127_1_cif.got.tgz:1932.got - 2010.04.06 17:03:15.
