data_PCOD8314206
_publ_section_title
;
Structure prediction by ZEFSAII (Michael W. Deem and Ramdas Pophale) SiO2 
 PCOD8314206
Probable space group: P 4/M B M
;
_chemical_formula_sum "Si O2"
_cell_formula_units_Z 96
_cell_length_a 20.028886
_cell_length_b 20.028886
_cell_length_c 13.290215
_cell_angle_alpha 90.000000
_cell_angle_beta 90.000000
_cell_angle_gamma 90.000000
_cell_volume 5331.453135
_symmetry_space_group_name_H-M "P 4/M B M"
_symmetry_group_IT_number 127
_symmetry_cell_setting 'tetragonal'
loop_
_space_group_symop_operation_xyz
x,y,z
-y,x,z
-x,-y,z
y,-x,z
1/2+x,1/2-y,-z
1/2-x,1/2+y,-z
1/2+y,1/2+x,-z
1/2-y,1/2-x,-z
-x,-y,-z
y,-x,-z
x,y,-z
-y,x,-z
1/2-x,1/2+y,z
1/2+x,1/2-y,z
1/2-y,1/2-x,z
1/2+y,1/2+x,z
loop_
_atom_site_type_symbol
_atom_site_label
_atom_site_fract_x
_atom_site_fract_y
_atom_site_fract_z
Si Si1 0.066365 0.087025 0.387951
Si Si2 0.799579 0.096824 0.245170
Si Si3 0.000025 0.390393 0.782043
Si Si4 0.330065 0.278266 0.116655
Si Si5 0.820440 0.569620 0.611288
Si Si6 0.753829 0.479945 0.116981
O O1 0.085531 0.112529 0.500000
O O2 0.100531 0.129981 0.301430
O O3 0.987385 0.092214 0.373658
O O4 0.794317 0.162525 0.177290
O O5 0.743646 0.096101 0.330359
O O6 0.793350 0.031357 0.175976
O O7 0.932201 0.432201 0.778825
O O8 0.994343 0.332203 0.864407
O O9 0.062948 0.437053 0.811391
O O10 0.010464 0.357233 0.672316
O O11 0.289503 0.210498 0.136207
O O12 0.405584 0.265146 0.153176
O O13 0.328555 0.298623 0.000000
O O14 0.800968 0.542367 0.500000
O O15 0.868033 0.631967 0.599354
O O16 0.739409 0.489221 0.000000
#
# Coordination Sequence:
#
# PCOD8314206 Si02
#       6
#    16  16  16  16  16  16
#     4   9  18  32  50  73  99 126 158 198 246 299
#     4  11  19  32  52  75  97 127 168 212 249 293
#     4   9  18  32  51  75 100 129 168 211 256 310
#     4  10  21  36  53  73 100 136 173 209 256 313
#     4   9  18  31  47  70  99 128 159 198 245 296
#     4  10  21  35  51  73 103 136 171 214 264 314
#
# _framework density 18.006347999999999
#
# number of rings (size 3 to 8) (size 9 to 14) (size 15 to 20)
#    0.000    2.333    0.000    3.500    0.000    2.333 
#    0.000    2.500    0.000    1.000    0.000    7.000 
#    0.000    0.000    0.000    0.000    0.000    0.000 
#
# Total GULP energy -1190387.934393 kJ/mol
# GULP energy per Si atom -12399.874317 kJ/mol
# Density = 1.796536 g / cm^3
# Si number density = 18.006348 Si / 1000 Ang^3
#
#
#
# Elastic Constant Matrix: (Units=GPa)
#
#
# Indices 1 2 3 4 5 6 
#
# 1 62.5479 3.6418 24.1500 0.0000 0.0000 0.0000
# 2 3.6418 62.5479 24.1500 0.0000 0.0000 0.0000
# 3 24.1500 24.1500 80.1659 0.0000 0.0000 0.0000
# 4 0.0000 0.0000 0.0000 26.3564 0.0000 0.0000
# 5 0.0000 0.0000 0.0000 0.0000 26.3564 0.0000
# 6 0.0000 0.0000 0.0000 0.0000 0.0000 19.9990
#
#
#
# Elastic Compliance Matrix: (Units=1/GPa)
#
#
# Indices 1 2 3 4 5 6 
#
# 1 0.018171 0.001194 -0.005834 0.000000 0.000000 0.000000
# 2 0.001194 0.018171 -0.005834 0.000000 0.000000 0.000000
# 3 -0.005834 -0.005834 0.015989 0.000000 0.000000 0.000000
# 4 0.000000 0.000000 0.000000 0.037941 0.000000 0.000000
# 5 0.000000 0.000000 0.000000 0.000000 0.037941 0.000000
# 6 0.000000 0.000000 0.000000 0.000000 0.000000 0.050003
#
#
# Mechanical properties :
#
#
# Convention : Reuss Voigt Hill
#
# Bulk Modulus (GPa) = 31.86315 34.34945 33.10630
# Shear Modulus (GPa) = 23.85235 24.76370 24.30803
#
# Velocity S-wave (km/s) = 3.64354 3.71249 3.67818
# Velocity P-wave (km/s) = 5.95268 6.12328 6.03858
#
# Compressibility (1/GPa) = 0.03138421
#
# Stress axis : x y z
#
# Youngs Moduli (GPa) = 55.03387 55.03387 62.54315
#
# Poissons Ratio (x) = -0.06574 0.36486
# Poissons Ratio (y) = -0.06574 0.36486
# Poissons Ratio (z) = 0.32105 0.32105
#
# Static dielectric constant tensor:
#      x y z
#    x 3.279840 0.000000 0.000000 
#    y 0.000000 3.279840 0.000000 
#    z 0.000000 0.000000 3.432490 
# 
# 
# High freq. dielectric constant tensor:
#      x y z
#    x 1.694940 0.000000 0.000000 
#    y 0.000000 1.694940 0.000000 
#    z 0.000000 0.000000 1.701400 
# 
# From -- ./inp_files/3531.got.cif
#   From: 2010.03.12/outbox.cif.g09.slc.cpg/sg127_2_cif.got.tgz:3531.got - 2010.04.06 17:03:15.
