data_PCOD8314578
_publ_section_title
;
Structure prediction by ZEFSAII (Michael W. Deem and Ramdas Pophale) SiO2 
 PCOD8314578
Probable space group: P 4/M N C
;
_chemical_formula_sum "Si O2"
_cell_formula_units_Z 104
_cell_length_a 17.742137
_cell_length_b 17.742137
_cell_length_c 17.180629
_cell_angle_alpha 90.000000
_cell_angle_beta 90.000000
_cell_angle_gamma 90.000000
_cell_volume 5408.177246
_symmetry_space_group_name_H-M "P 4/M N C"
_symmetry_group_IT_number 128
_symmetry_cell_setting 'tetragonal'
loop_
_space_group_symop_operation_xyz
x,y,z
-y,x,z
-x,-y,z
y,-x,z
1/2+x,1/2-y,1/2-z
1/2-x,1/2+y,1/2-z
1/2+y,1/2+x,1/2-z
1/2-y,1/2-x,1/2-z
-x,-y,-z
y,-x,-z
x,y,-z
-y,x,-z
1/2-x,1/2+y,1/2+z
1/2+x,1/2-y,1/2+z
1/2-y,1/2-x,1/2+z
1/2+y,1/2+x,1/2+z
loop_
_atom_site_type_symbol
_atom_site_label
_atom_site_fract_x
_atom_site_fract_y
_atom_site_fract_z
Si Si1 0.052866 0.113873 0.828933
Si Si2 0.082488 0.355051 0.677207
Si Si3 0.684942 0.578131 0.834450
Si Si4 0.089275 0.497698 0.584025
Si Si5 0.421743 0.301629 0.907436
Si Si6 0.112686 0.948089 0.000000
Si Si7 0.908709 0.356599 0.325772
O O1 0.078982 0.168743 0.758715
O O2 0.070172 0.151812 0.915261
O O3 0.963940 0.098478 0.820565
O O4 0.136651 0.363350 0.750000
O O5 0.093100 0.271739 0.644756
O O6 0.113009 0.416879 0.617209
O O7 0.995274 0.369806 0.700513
O O8 0.663746 0.497224 0.870063
O O9 0.643279 0.642461 0.881715
O O10 0.127236 0.502387 0.500000
O O11 0.120821 0.570362 0.628418
O O12 0.000000 0.500000 0.578950
O O13 0.401139 0.218558 0.876344
O O14 0.429434 0.297603 0.000000
O O15 0.036098 0.902166 0.000000
O O16 0.854467 0.354467 0.250000
#
# Coordination Sequence:
#
# PCOD8314578 Si02
#       7
#    16  16  16  16  16   8  16
#     4   9  15  29  52  80 110 147 200 241 287 334
#     4  10  20  34  57  85 113 146 186 235 293 360
#     4  11  22  36  57  82 122 164 204 241 282 346
#     4   9  17  30  55  86 112 139 182 243 298 347
#     4  11  24  39  56  87 122 161 204 244 286 338
#     4   7  12  22  46  80 104 132 185 251 287 323
#     4  10  19  35  63  87 110 142 194 242 296 359
#
# _framework density 19.230139000000001
#
# number of rings (size 3 to 8) (size 9 to 14) (size 15 to 20)
#    0.000    2.231    3.077    1.846    0.000    5.231 
#    0.000    0.769    1.692    0.000    4.000    0.000 
#    0.000    0.000    0.000    0.000    0.000    0.000 
#
# Total GULP energy -1288586.432534 kJ/mol
# GULP energy per Si atom -12390.254159 kJ/mol
# Density = 1.918637 g / cm^3
# Si number density = 19.230139 Si / 1000 Ang^3
#
#
#
# Elastic Constant Matrix: (Units=GPa)
#
#
# Indices 1 2 3 4 5 6 
#
# 1 69.6443 36.9648 35.7138 0.0000 0.0000 0.0000
# 2 36.9648 69.6459 35.7141 0.0000 0.0000 0.0000
# 3 35.7138 35.7141 155.0179 0.0000 0.0000 0.0000
# 4 0.0000 0.0000 0.0000 -1.0298 0.0000 0.0000
# 5 0.0000 0.0000 0.0000 0.0000 -1.0430 0.0000
# 6 0.0000 0.0000 0.0000 0.0000 0.0000 15.3905
#
#
#
# Elastic Compliance Matrix: (Units=1/GPa)
#
#
# Indices 1 2 3 4 5 6 
#
# 1 0.020846 -0.009754 -0.002555 0.000000 0.000000 0.000000
# 2 -0.009754 0.020846 -0.002555 0.000000 0.000000 0.000000
# 3 -0.002555 -0.002555 0.007628 0.000000 0.000000 0.000000
# 4 0.000000 0.000000 0.000000 -0.971024 0.000000 0.000000
# 5 0.000000 0.000000 0.000000 0.000000 -0.958782 0.000000
# 6 0.000000 0.000000 0.000000 0.000000 0.000000 0.064975
#
#
# Mechanical properties :
#
#
# Convention : Reuss Voigt Hill
#
# Bulk Modulus (GPa) = 51.04451 56.78817 53.91634
# Shear Modulus (GPa) = -2.81017 15.05789 6.12386
#
# Velocity S-wave (km/s) = -1.21017 2.80131 1.78646
# Velocity P-wave (km/s) = 4.96477 6.32914 5.68802
#
# Compressibility (1/GPa) = 0.01959075
#
# Stress axis : x y z
#
# Youngs Moduli (GPa) = 47.97070 47.97182 131.08985
#
# Poissons Ratio (x) = 0.46790 0.33500
# Poissons Ratio (y) = 0.46789 0.33499
# Poissons Ratio (z) = 0.12259 0.12259
#
# Static dielectric constant tensor:
#      x y z
#    x 3.286660 0.000000 0.000000 
#    y 0.000000 3.286660 0.000000 
#    z 0.000000 0.000000 3.902680 
# 
# 
# High freq. dielectric constant tensor:
#      x y z
#    x 1.721410 0.000000 0.000000 
#    y 0.000000 1.721410 0.000000 
#    z 0.000000 0.000000 1.766140 
# 
# From -- ./inp_files/4886.got.cif
#   From: 2010.03.12/outbox.cif.g09.slc.cpg/sg128_3_cif.got.tgz:4886.got - 2010.04.06 17:11:05.
