data_PCOD8314010
_publ_section_title
;
Structure prediction by ZEFSAII (Michael W. Deem and Ramdas Pophale) SiO2 
 PCOD8314010
Probable space group: P 4/M B M
;
_chemical_formula_sum "Si O2"
_cell_formula_units_Z 112
_cell_length_a 15.527867
_cell_length_b 15.527867
_cell_length_c 25.218279
_cell_angle_alpha 90.000000
_cell_angle_beta 90.000000
_cell_angle_gamma 90.000000
_cell_volume 6080.496605
_symmetry_space_group_name_H-M "P 4/M B M"
_symmetry_group_IT_number 127
_symmetry_cell_setting 'tetragonal'
loop_
_space_group_symop_operation_xyz
x,y,z
-y,x,z
-x,-y,z
y,-x,z
1/2+x,1/2-y,-z
1/2-x,1/2+y,-z
1/2+y,1/2+x,-z
1/2-y,1/2-x,-z
-x,-y,-z
y,-x,-z
x,y,-z
-y,x,-z
1/2-x,1/2+y,z
1/2+x,1/2-y,z
1/2-y,1/2-x,z
1/2+y,1/2+x,z
loop_
_atom_site_type_symbol
_atom_site_label
_atom_site_fract_x
_atom_site_fract_y
_atom_site_fract_z
Si Si1 0.569148 0.377198 0.699852
Si Si2 0.178127 0.535988 0.227881
Si Si3 0.482880 0.638678 0.938028
Si Si4 0.315335 0.680533 0.787138
Si Si5 0.413207 0.780005 0.133582
Si Si6 0.294712 0.938432 0.661303
Si Si7 0.504239 0.859835 0.557460
O O1 0.615920 0.467013 0.691865
O O2 0.594943 0.338862 0.757023
O O3 0.599730 0.302769 0.659448
O O4 0.088629 0.588629 0.226974
O O5 0.258074 0.595793 0.212233
O O6 0.176109 0.463331 0.182763
O O7 0.190030 0.497150 0.286752
O O8 0.405442 0.573507 0.922644
O O9 0.474031 0.730551 0.908185
O O10 0.480037 0.658973 0.000000
O O11 0.259473 0.759473 0.761277
O O12 0.345454 0.708368 0.845403
O O13 0.357509 0.857509 0.106523
O O14 0.361184 0.861184 0.660653
O O15 0.297973 0.995087 0.607856
O O16 0.494236 0.811986 0.500000
O O17 0.598596 0.901405 0.560384
O O18 0.433770 0.933770 0.561873
#
# Coordination Sequence:
#
# PCOD8314010 Si02
#       7
#    16  16  16  16  16  16  16
#     4  11  21  34  51  73 102 137 180 222 266 316
#     4  11  22  34  51  78 113 146 179 215 263 324
#     4   9  19  37  60  82 103 132 177 232 280 317
#     4  10  19  34  52  75 109 143 179 222 264 311
#     4  11  21  33  52  78 112 147 176 211 263 324
#     4  11  20  33  53  77 107 142 179 219 272 326
#     4   8  15  29  50  77 106 136 175 223 272 321
#
# _framework density 18.419549
#
# number of rings (size 3 to 8) (size 9 to 14) (size 15 to 20)
#    0.000    1.857    2.857    3.000    0.000    2.000 
#    0.000    1.429    0.000    2.143    0.000    4.000 
#    0.000    0.000    0.000    0.000    0.000    0.000 
#
# Total GULP energy -1387485.408748 kJ/mol
# GULP energy per Si atom -12388.262578 kJ/mol
# Density = 1.837763 g / cm^3
# Si number density = 18.419549 Si / 1000 Ang^3
#
#
#
# Elastic Constant Matrix: (Units=GPa)
#
#
# Indices 1 2 3 4 5 6 
#
# 1 77.5393 27.1931 29.3267 0.0000 0.0000 0.0000
# 2 27.1931 77.5393 29.3267 0.0000 0.0000 0.0000
# 3 29.3267 29.3267 81.1341 0.0000 0.0000 0.0000
# 4 0.0000 0.0000 0.0000 23.4854 0.0000 0.0000
# 5 0.0000 0.0000 0.0000 0.0000 23.4854 0.0000
# 6 0.0000 0.0000 0.0000 0.0000 0.0000 30.2552
#
#
#
# Elastic Compliance Matrix: (Units=1/GPa)
#
#
# Indices 1 2 3 4 5 6 
#
# 1 0.015917 -0.003945 -0.004327 0.000000 0.000000 0.000000
# 2 -0.003945 0.015917 -0.004327 0.000000 0.000000 0.000000
# 3 -0.004327 -0.004327 0.015453 0.000000 0.000000 0.000000
# 4 0.000000 0.000000 0.000000 0.042580 0.000000 0.000000
# 5 0.000000 0.000000 0.000000 0.000000 0.042580 0.000000
# 6 0.000000 0.000000 0.000000 0.000000 0.000000 0.033052
#
#
# Mechanical properties :
#
#
# Convention : Reuss Voigt Hill
#
# Bulk Modulus (GPa) = 45.27412 45.32284 45.29848
# Shear Modulus (GPa) = 25.24469 25.46960 25.35714
#
# Velocity S-wave (km/s) = 3.70609 3.72257 3.71434
# Velocity P-wave (km/s) = 6.55334 6.56779 6.56057
#
# Compressibility (1/GPa) = 0.02208767
#
# Stress axis : x y z
#
# Youngs Moduli (GPa) = 62.82586 62.82586 64.71028
#
# Poissons Ratio (x) = 0.24788 0.28002
# Poissons Ratio (y) = 0.24788 0.28002
# Poissons Ratio (z) = 0.27186 0.27186
#
# Static dielectric constant tensor:
#      x y z
#    x 3.482710 0.000000 0.000000 
#    y 0.000000 3.482710 0.000000 
#    z 0.000000 0.000000 3.353350 
# 
# 
# High freq. dielectric constant tensor:
#      x y z
#    x 1.712140 0.000000 0.000000 
#    y 0.000000 1.712140 0.000000 
#    z 0.000000 0.000000 1.689720 
# 
# From -- ./inp_files/6173.got.cif
#   From: 2010.03.12/outbox.cif.g09.slc.cpg/sg127_4_cif.got.tgz:6173.got - 2010.04.06 17:03:15.
