data_PCOD8314242
_publ_section_title
;
Structure prediction by ZEFSAII (Michael W. Deem and Ramdas Pophale) SiO2 
 PCOD8314242
Probable space group: P 4/M B M
;
_chemical_formula_sum "Si O2"
_cell_formula_units_Z 56
_cell_length_a 14.593435
_cell_length_b 14.593435
_cell_length_c 14.164987
_cell_angle_alpha 90.000000
_cell_angle_beta 90.000000
_cell_angle_gamma 90.000000
_cell_volume 3016.693840
_symmetry_space_group_name_H-M "P 4/M B M"
_symmetry_group_IT_number 127
_symmetry_cell_setting 'tetragonal'
loop_
_space_group_symop_operation_xyz
x,y,z
-y,x,z
-x,-y,z
y,-x,z
1/2+x,1/2-y,-z
1/2-x,1/2+y,-z
1/2+y,1/2+x,-z
1/2-y,1/2-x,-z
-x,-y,-z
y,-x,-z
x,y,-z
-y,x,-z
1/2-x,1/2+y,z
1/2+x,1/2-y,z
1/2-y,1/2-x,z
1/2+y,1/2+x,z
loop_
_atom_site_type_symbol
_atom_site_label
_atom_site_fract_x
_atom_site_fract_y
_atom_site_fract_z
Si Si1 0.728783 0.024650 0.249189
Si Si2 0.122918 0.089005 0.500000
Si Si3 0.075998 0.424002 0.109967
Si Si4 0.841020 0.189146 0.303687
Si Si5 0.576746 0.076746 0.392493
O O1 0.671490 0.043717 0.154752
O O2 0.815542 0.092658 0.255173
O O3 0.667419 0.038907 0.342512
O O4 0.764625 0.921146 0.242607
O O5 0.176856 0.124794 0.409776
O O6 0.020288 0.126377 0.500000
O O7 0.000000 0.500000 0.132376
O O8 0.091510 0.408491 0.000000
O O9 0.751086 0.251086 0.303057
O O10 0.601820 0.101820 0.500000
O O11 0.500000 0.000000 0.386909
#
# Coordination Sequence:
#
# PCOD8314242 Si02
#       5
#    16   8   8  16   8
#     4  11  23  39  60  92 123 161 209 254 318 373
#     4  11  23  38  54  82 123 181 224 250 300 368
#     4  10  21  45  74  95 121 154 205 272 332 386
#     4  12  23  38  60  85 128 170 213 265 304 367
#     4  10  21  37  54  79 119 162 211 264 302 348
#
# _framework density 18.563368000000001
#
# number of rings (size 3 to 8) (size 9 to 14) (size 15 to 20)
#    0.000    1.000    5.714    3.857    4.000    0.571 
#    0.000    1.429    0.000    0.000    0.000    2.000 
#    0.000    0.000    0.000    0.000    0.000    0.000 
#
# Total GULP energy -694761.241067 kJ/mol
# GULP energy per Si atom -12406.450733 kJ/mol
# Density = 1.852112 g / cm^3
# Si number density = 18.563368 Si / 1000 Ang^3
#
#
#
# Elastic Constant Matrix: (Units=GPa)
#
#
# Indices 1 2 3 4 5 6 
#
# 1 77.7571 19.0058 24.2235 0.0000 0.0000 0.0000
# 2 19.0058 77.7571 24.2232 0.0000 0.0000 0.0000
# 3 24.2235 24.2232 109.6661 0.0000 0.0000 0.0000
# 4 0.0000 0.0000 0.0000 -9.6981 0.0000 0.0000
# 5 0.0000 0.0000 0.0000 0.0000 -9.6967 0.0000
# 6 0.0000 0.0000 0.0000 0.0000 0.0000 46.5246
#
#
#
# Elastic Compliance Matrix: (Units=1/GPa)
#
#
# Indices 1 2 3 4 5 6 
#
# 1 0.014320 -0.002701 -0.002567 0.000000 0.000000 0.000000
# 2 -0.002701 0.014320 -0.002567 0.000000 0.000000 0.000000
# 3 -0.002567 -0.002567 0.010252 0.000000 0.000000 0.000000
# 4 0.000000 0.000000 0.000000 -0.103113 0.000000 0.000000
# 5 0.000000 0.000000 0.000000 0.000000 -0.103128 0.000000
# 6 0.000000 0.000000 0.000000 0.000000 0.000000 0.021494
#
#
# Mechanical properties :
#
#
# Convention : Reuss Voigt Hill
#
# Bulk Modulus (GPa) = 43.05657 44.45394 43.75526
# Shear Modulus (GPa) = -40.83484 18.60781 -11.11351
#
# Velocity S-wave (km/s) = -4.69524 3.16950 -2.44945
# Velocity P-wave (km/s) = 2.47972 6.11501 3.95249
#
# Compressibility (1/GPa) = 0.02322526
#
# Stress axis : x y z
#
# Youngs Moduli (GPa) = 69.83128 69.83131 97.53808
#
# Poissons Ratio (x) = 0.18859 0.25034
# Poissons Ratio (y) = 0.18859 0.25034
# Poissons Ratio (z) = 0.17923 0.17922
#
# Static dielectric constant tensor:
#      x y z
#    x 3.539950 0.000000 0.000000 
#    y 0.000000 3.539950 0.000000 
#    z 0.000000 0.000000 3.178060 
# 
# 
# High freq. dielectric constant tensor:
#      x y z
#    x 1.733060 0.000000 0.000000 
#    y 0.000000 1.733060 0.000000 
#    z 0.000000 0.000000 1.688830 
# 
# From -- ./inp_files/4050.got.cif
#   From: 2010.03.12/outbox.cif.g09.slc.cpg/sg127_3_cif.got.tgz:4050.got - 2010.04.06 17:03:15.
