data_PCOD8314931
_publ_section_title
;
Structure prediction by ZEFSAII (Michael W. Deem and Ramdas Pophale) SiO2 
 PCOD8314931
Probable space group: P 4/N M M
;
_chemical_formula_sum "Si O2"
_cell_formula_units_Z 112
_cell_length_a 24.789022
_cell_length_b 24.789022
_cell_length_c 10.234777
_cell_angle_alpha 90.000000
_cell_angle_beta 90.000000
_cell_angle_gamma 90.000000
_cell_volume 6289.225553
_symmetry_space_group_name_H-M "P 4/N M M"
_symmetry_group_IT_number 129
_symmetry_cell_setting 'tetragonal'
loop_
_space_group_symop_operation_xyz
x,y,z
1/2-y,x,z
1/2-x,1/2-y,z
y,1/2-x,z
1/2+x,-y,-z
-x,1/2+y,-z
1/2+y,1/2+x,-z
-y,-x,-z
-x,-y,-z
1/2+y,-x,-z
1/2+x,1/2+y,-z
-y,1/2+x,-z
1/2-x,y,z
x,1/2-y,z
1/2-y,1/2-x,z
y,x,z
loop_
_atom_site_type_symbol
_atom_site_label
_atom_site_fract_x
_atom_site_fract_y
_atom_site_fract_z
Si Si1 0.188551 0.902722 0.221951
Si Si2 0.431020 0.654434 0.497741
Si Si3 0.051795 0.361668 0.579529
Si Si4 0.187690 0.101942 0.337707
Si Si5 0.186935 0.484850 0.840119
Si Si6 0.896291 0.310604 0.773096
Si Si7 0.015966 0.313595 0.129361
O O1 0.250000 0.888736 0.180508
O O2 0.188613 0.918541 0.373915
O O3 0.151442 0.851371 0.187098
O O4 0.164505 0.954825 0.146321
O O5 0.403514 0.596487 0.500000
O O6 0.493009 0.639297 0.482033
O O7 0.406877 0.690416 0.381684
O O8 0.078900 0.421101 0.573506
O O9 0.086148 0.320880 0.489332
O O10 0.050457 0.343332 0.730731
O O11 0.250000 0.112465 0.309965
O O12 0.157078 0.157078 0.305015
O O13 0.163529 0.056138 0.239930
O O14 0.250000 0.479942 0.809548
O O15 0.170243 0.547951 0.839682
O O16 0.171722 0.462415 0.984044
O O17 0.880005 0.250000 0.817497
O O18 0.012040 0.250000 0.148559
#
# Coordination Sequence:
#
# PCOD8314931 Si02
#       7
#    16  16  16  16  16  16  16
#     4  10  18  29  48  71  99 135 173 215 261 306
#     4   9  17  30  47  69  96 134 169 208 255 304
#     4  10  19  31  51  77 100 127 163 206 253 301
#     4  10  20  34  54  80 107 134 167 207 252 306
#     4   9  18  33  51  70  98 133 170 211 250 299
#     4   9  18  30  46  71 100 133 174 215 260 310
#     4   9  18  32  51  73  96 132 175 210 249 300
#
# _framework density 17.808233999999999
#
# number of rings (size 3 to 8) (size 9 to 14) (size 15 to 20)
#    0.000    2.571    1.429    0.857    0.000    3.000 
#    0.000    0.000    0.000    2.571    0.000    8.000 
#    0.000    3.429    0.000    0.000    0.000    0.000 
#
# Total GULP energy -1388219.572071 kJ/mol
# GULP energy per Si atom -12394.817608 kJ/mol
# Density = 1.776770 g / cm^3
# Si number density = 17.808234 Si / 1000 Ang^3
#
#
#
# Elastic Constant Matrix: (Units=GPa)
#
#
# Indices 1 2 3 4 5 6 
#
# 1 81.1615 50.0799 22.6967 0.0000 0.0000 0.0000
# 2 50.0799 81.1628 22.6980 0.0000 0.0000 0.0000
# 3 22.6967 22.6980 84.9394 0.0000 0.0000 0.0000
# 4 0.0000 0.0000 0.0000 15.4186 0.0000 0.0000
# 5 0.0000 0.0000 0.0000 0.0000 15.4187 0.0000
# 6 0.0000 0.0000 0.0000 0.0000 0.0000 21.9283
#
#
#
# Elastic Compliance Matrix: (Units=1/GPa)
#
#
# Indices 1 2 3 4 5 6 
#
# 1 0.020284 -0.011889 -0.002243 0.000000 0.000000 0.000000
# 2 -0.011889 0.020284 -0.002244 0.000000 0.000000 0.000000
# 3 -0.002243 -0.002244 0.012972 0.000000 0.000000 0.000000
# 4 0.000000 0.000000 0.000000 0.064857 0.000000 0.000000
# 5 0.000000 0.000000 0.000000 0.000000 0.064856 0.000000
# 6 0.000000 0.000000 0.000000 0.000000 0.000000 0.045603
#
#
# Mechanical properties :
#
#
# Convention : Reuss Voigt Hill
#
# Bulk Modulus (GPa) = 48.10162 48.69033 48.39598
# Shear Modulus (GPa) = 18.61940 20.67240 19.64590
#
# Velocity S-wave (km/s) = 3.23700 3.41080 3.32504
# Velocity P-wave (km/s) = 6.40628 6.55074 6.47891
#
# Compressibility (1/GPa) = 0.02078932
#
# Stress axis : x y z
#
# Youngs Moduli (GPa) = 49.29952 49.29985 77.08872
#
# Poissons Ratio (x) = 0.58611 0.17292
# Poissons Ratio (y) = 0.58610 0.17296
# Poissons Ratio (z) = 0.11059 0.11061
#
# Static dielectric constant tensor:
#      x y z
#    x 3.142480 0.000000 0.000000 
#    y 0.000000 3.142470 0.000000 
#    z 0.000000 0.000000 3.456850 
# 
# 
# High freq. dielectric constant tensor:
#      x y z
#    x 1.670300 0.000000 0.000000 
#    y 0.000000 1.670300 0.000000 
#    z 0.000000 0.000000 1.699150 
# 
# From -- ./inp_files/4133.got.cif
#   From: 2010.03.12/outbox.cif.g09.slc.cpg/sg129_3_cif.got.tgz:4133.got - 2010.04.06 17:19:44.
