data_PCOD8314693
_publ_section_title
;
Structure prediction by ZEFSAII (Michael W. Deem and Ramdas Pophale) SiO2 
 PCOD8314693
Probable space group: P 4/M N C
;
_chemical_formula_sum "Si O2"
_cell_formula_units_Z 88
_cell_length_a 12.358605
_cell_length_b 12.358605
_cell_length_c 31.289223
_cell_angle_alpha 90.000000
_cell_angle_beta 90.000000
_cell_angle_gamma 90.000000
_cell_volume 4778.963153
_symmetry_space_group_name_H-M "P 4/M N C"
_symmetry_group_IT_number 128
_symmetry_cell_setting 'tetragonal'
loop_
_space_group_symop_operation_xyz
x,y,z
-y,x,z
-x,-y,z
y,-x,z
1/2+x,1/2-y,1/2-z
1/2-x,1/2+y,1/2-z
1/2+y,1/2+x,1/2-z
1/2-y,1/2-x,1/2-z
-x,-y,-z
y,-x,-z
x,y,-z
-y,x,-z
1/2-x,1/2+y,1/2+z
1/2+x,1/2-y,1/2+z
1/2-y,1/2-x,1/2+z
1/2+y,1/2+x,1/2+z
loop_
_atom_site_type_symbol
_atom_site_label
_atom_site_fract_x
_atom_site_fract_y
_atom_site_fract_z
Si Si1 0.115718 0.272786 0.413383
Si Si2 0.967983 0.173326 0.295497
Si Si3 0.373310 0.991021 0.133240
Si Si4 0.908423 0.841362 0.500000
Si Si5 0.009072 0.339162 0.769209
Si Si6 0.609954 0.775053 0.123665
O O1 0.152693 0.396001 0.401195
O O2 0.138101 0.231844 0.461243
O O3 0.181040 0.196908 0.381123
O O4 0.987611 0.256704 0.409153
O O5 0.943721 0.269977 0.329066
O O6 0.085308 0.123510 0.303168
O O7 0.970128 0.222445 0.247960
O O8 0.323274 0.975332 0.180148
O O9 0.500000 0.000000 0.140376
O O10 0.333747 0.107887 0.115525
O O11 0.039120 0.854322 0.500000
O O12 0.126310 0.373691 0.750000
O O13 0.924294 0.424294 0.750000
#
# Coordination Sequence:
#
# PCOD8314693 Si02
#       6
#    16  16  16   8  16  16
#     4  11  22  37  60  88 118 156 198 241 303 375
#     4  11  23  34  50  82 117 150 197 251 300 354
#     4  10  21  37  55  84 117 157 202 244 294 354
#     4  11  22  38  61  95 129 154 185 242 317 383
#     4  11  19  34  53  75 108 150 200 239 277 340
#     4  11  20  35  58  84 118 159 194 242 304 363
#
# _framework density 18.414037
#
# number of rings (size 3 to 8) (size 9 to 14) (size 15 to 20)
#    0.000    1.182    7.273    1.091    0.000    2.545 
#    0.000    5.000    0.000    0.545    0.000    0.000 
#    0.000    1.455    0.000    0.000    0.000    0.000 
#
# Total GULP energy -1090300.715684 kJ/mol
# GULP energy per Si atom -12389.780860 kJ/mol
# Density = 1.837213 g / cm^3
# Si number density = 18.414037 Si / 1000 Ang^3
#
#
#
# Elastic Constant Matrix: (Units=GPa)
#
#
# Indices 1 2 3 4 5 6 
#
# 1 84.4125 32.8392 32.3975 0.0000 0.0000 0.0000
# 2 32.8392 84.4120 32.3977 0.0000 0.0000 0.0000
# 3 32.3975 32.3977 106.3070 0.0000 0.0000 0.0000
# 4 0.0000 0.0000 0.0000 24.8166 0.0000 0.0000
# 5 0.0000 0.0000 0.0000 0.0000 24.8165 0.0000
# 6 0.0000 0.0000 0.0000 0.0000 0.0000 6.3068
#
#
#
# Elastic Compliance Matrix: (Units=1/GPa)
#
#
# Indices 1 2 3 4 5 6 
#
# 1 0.014823 -0.004567 -0.003126 0.000000 0.000000 0.000000
# 2 -0.004567 0.014823 -0.003126 0.000000 0.000000 0.000000
# 3 -0.003126 -0.003126 0.011312 0.000000 0.000000 0.000000
# 4 0.000000 0.000000 0.000000 0.040296 0.000000 0.000000
# 5 0.000000 0.000000 0.000000 0.000000 0.040296 0.000000
# 6 0.000000 0.000000 0.000000 0.000000 0.000000 0.158559
#
#
# Mechanical properties :
#
#
# Convention : Reuss Voigt Hill
#
# Bulk Modulus (GPa) = 51.75602 52.26670 52.01136
# Shear Modulus (GPa) = 16.22403 23.02114 19.62258
#
# Velocity S-wave (km/s) = 2.97150 3.53965 3.26794
# Velocity P-wave (km/s) = 6.31988 6.71947 6.52274
#
# Compressibility (1/GPa) = 0.01932142
#
# Stress axis : x y z
#
# Youngs Moduli (GPa) = 67.46330 67.46277 88.40356
#
# Poissons Ratio (x) = 0.30810 0.27631
# Poissons Ratio (y) = 0.30811 0.27631
# Poissons Ratio (z) = 0.21086 0.21086
#
# Static dielectric constant tensor:
#      x y z
#    x 3.500360 0.000000 0.000000 
#    y 0.000000 3.500360 0.000000 
#    z 0.000000 0.000000 3.270050 
# 
# 
# High freq. dielectric constant tensor:
#      x y z
#    x 1.700970 0.000000 0.000000 
#    y 0.000000 1.700970 0.000000 
#    z 0.000000 0.000000 1.700290 
# 
# From -- ./inp_files/7262.got.cif
#   From: 2010.03.12/outbox.cif.g09.slc.cpg/sg128_4_cif.got.tgz:7262.got - 2010.04.06 17:11:05.
