data_PCOD8314589
_publ_section_title
;
Structure prediction by ZEFSAII (Michael W. Deem and Ramdas Pophale) SiO2 
 PCOD8314589
Probable space group: P 4/M N C
;
_chemical_formula_sum "Si O2"
_cell_formula_units_Z 64
_cell_length_a 13.245286
_cell_length_b 13.245286
_cell_length_c 17.903616
_cell_angle_alpha 90.000000
_cell_angle_beta 90.000000
_cell_angle_gamma 90.000000
_cell_volume 3140.967444
_symmetry_space_group_name_H-M "P 4/M N C"
_symmetry_group_IT_number 128
_symmetry_cell_setting 'tetragonal'
loop_
_space_group_symop_operation_xyz
x,y,z
-y,x,z
-x,-y,z
y,-x,z
1/2+x,1/2-y,1/2-z
1/2-x,1/2+y,1/2-z
1/2+y,1/2+x,1/2-z
1/2-y,1/2-x,1/2-z
-x,-y,-z
y,-x,-z
x,y,-z
-y,x,-z
1/2-x,1/2+y,1/2+z
1/2+x,1/2-y,1/2+z
1/2-y,1/2-x,1/2+z
1/2+y,1/2+x,1/2+z
loop_
_atom_site_type_symbol
_atom_site_label
_atom_site_fract_x
_atom_site_fract_y
_atom_site_fract_z
Si Si1 0.776978 0.287401 0.586238
Si Si2 0.126202 0.900650 0.650624
Si Si3 0.949264 0.392759 0.168942
Si Si4 0.737617 0.619292 0.703130
O O1 0.752402 0.303153 0.500000
O O2 0.798990 0.169758 0.603468
O O3 0.869606 0.360037 0.610285
O O4 0.678175 0.314314 0.634495
O O5 0.146245 0.902412 0.739886
O O6 0.016265 0.860234 0.627356
O O7 0.898824 0.398824 0.250000
O O8 0.000000 0.500000 0.146991
O O9 0.024874 0.298140 0.169070
O O10 0.818021 0.681979 0.750000
#
# Coordination Sequence:
#
# PCOD8314589 Si02
#       4
#    16  16  16  16
#     4  11  25  38  55  89 130 166 201 245 314 387
#     4  10  21  38  62  86 112 156 206 251 300 358
#     4  11  21  39  67  96 119 157 216 273 318 362
#     4  10  19  38  63  86 117 152 203 262 303 358
#
# _framework density 20.375886000000001
#
# number of rings (size 3 to 8) (size 9 to 14) (size 15 to 20)
#    0.000    1.500    2.500    5.250    3.500    2.500 
#    0.000    1.250    0.000    0.000    0.000    5.250 
#    0.000    0.000    0.000    0.000    0.000    0.000 
#
# Total GULP energy -793376.933116 kJ/mol
# GULP energy per Si atom -12396.514580 kJ/mol
# Density = 2.032951 g / cm^3
# Si number density = 20.375886 Si / 1000 Ang^3
#
#
#
# Elastic Constant Matrix: (Units=GPa)
#
#
# Indices 1 2 3 4 5 6 
#
# 1 56.5655 19.0694 14.0250 0.0000 0.0000 0.0000
# 2 19.0694 56.5660 14.0254 0.0000 0.0000 0.0000
# 3 14.0250 14.0254 95.5811 0.0000 0.0000 0.0000
# 4 0.0000 0.0000 0.0000 15.2782 0.0000 0.0000
# 5 0.0000 0.0000 0.0000 0.0000 15.2779 0.0000
# 6 0.0000 0.0000 0.0000 0.0000 0.0000 36.1182
#
#
#
# Elastic Compliance Matrix: (Units=1/GPa)
#
#
# Indices 1 2 3 4 5 6 
#
# 1 0.020326 -0.006344 -0.002052 0.000000 0.000000 0.000000
# 2 -0.006344 0.020326 -0.002052 0.000000 0.000000 0.000000
# 3 -0.002052 -0.002052 0.011064 0.000000 0.000000 0.000000
# 4 0.000000 0.000000 0.000000 0.065453 0.000000 0.000000
# 5 0.000000 0.000000 0.000000 0.000000 0.065454 0.000000
# 6 0.000000 0.000000 0.000000 0.000000 0.000000 0.027687
#
#
# Mechanical properties :
#
#
# Convention : Reuss Voigt Hill
#
# Bulk Modulus (GPa) = 32.44418 33.66134 33.05276
# Shear Modulus (GPa) = 20.70587 24.10771 22.40679
#
# Velocity S-wave (km/s) = 3.19124 3.44342 3.31973
# Velocity P-wave (km/s) = 5.43471 5.68908 5.56335
#
# Compressibility (1/GPa) = 0.03082217
#
# Stress axis : x y z
#
# Youngs Moduli (GPa) = 49.19846 49.19877 90.37962
#
# Poissons Ratio (x) = 0.31209 0.18543
# Poissons Ratio (y) = 0.31209 0.18544
# Poissons Ratio (z) = 0.10094 0.10094
#
# Static dielectric constant tensor:
#      x y z
#    x 3.749690 0.000000 0.000000 
#    y 0.000000 3.749700 0.000000 
#    z 0.000000 0.000000 3.443170 
# 
# 
# High freq. dielectric constant tensor:
#      x y z
#    x 1.798700 0.000000 0.000000 
#    y 0.000000 1.798700 0.000000 
#    z 0.000000 0.000000 1.764950 
# 
# From -- ./inp_files/3496.got.cif
#   From: 2010.03.12/outbox.cif.g09.slc.cpg/sg128_2_cif.got.tgz:3496.got - 2010.04.06 17:11:05.
