data_PCOD8314828
_publ_section_title
;
Structure prediction by ZEFSAII (Michael W. Deem and Ramdas Pophale) SiO2 
 PCOD8314828
Probable space group: P 4/M N C
;
_chemical_formula_sum "Si O2"
_cell_formula_units_Z 112
_cell_length_a 13.936783
_cell_length_b 13.936783
_cell_length_c 27.486922
_cell_angle_alpha 90.000000
_cell_angle_beta 90.000000
_cell_angle_gamma 90.000000
_cell_volume 5338.892619
_symmetry_space_group_name_H-M "P 4/M N C"
_symmetry_group_IT_number 128
_symmetry_cell_setting 'tetragonal'
loop_
_space_group_symop_operation_xyz
x,y,z
-y,x,z
-x,-y,z
y,-x,z
1/2+x,1/2-y,1/2-z
1/2-x,1/2+y,1/2-z
1/2+y,1/2+x,1/2-z
1/2-y,1/2-x,1/2-z
-x,-y,-z
y,-x,-z
x,y,-z
-y,x,-z
1/2-x,1/2+y,1/2+z
1/2+x,1/2-y,1/2+z
1/2-y,1/2-x,1/2+z
1/2+y,1/2+x,1/2+z
loop_
_atom_site_type_symbol
_atom_site_label
_atom_site_fract_x
_atom_site_fract_y
_atom_site_fract_z
Si Si1 0.503989 0.341192 0.218468
Si Si2 0.156365 0.015709 0.172132
Si Si3 0.078540 0.726965 0.916282
Si Si4 0.634837 0.718806 0.092389
Si Si5 0.415620 0.926482 0.054552
Si Si6 0.937343 0.744914 0.372182
Si Si7 0.614146 0.610317 0.000000
Si Si8 0.418659 0.365009 0.500000
O O1 0.596065 0.408859 0.209159
O O2 0.492548 0.301878 0.273349
O O3 0.517038 0.247681 0.182927
O O4 0.242701 0.034615 0.135423
O O5 0.083918 0.102983 0.162520
O O6 0.167913 0.655707 0.907520
O O7 0.116155 0.812977 0.950550
O O8 0.990990 0.679260 0.945083
O O9 0.520976 0.701434 0.097459
O O10 0.696349 0.662238 0.132845
O O11 0.667316 0.662866 0.044216
O O12 0.416648 0.855527 0.101001
O O13 0.500000 0.000000 0.063408
O O14 0.423349 0.877948 0.000000
O O15 0.501688 0.634415 0.000000
O O16 0.532758 0.370035 0.500000
#
# Coordination Sequence:
#
# PCOD8314828 Si02
#       8
#    16  16  16  16  16  16   8   8
#     4   9  18  38  68  99 129 163 208 269 338 393
#     4   9  20  40  69  98 127 163 214 283 341 382
#     4  12  24  43  65  92 131 177 224 266 330 402
#     4  12  26  38  63  97 131 172 221 273 333 400
#     4  11  26  45  62  86 132 185 219 257 320 404
#     4  12  24  41  65  97 130 170 221 273 328 396
#     4  11  23  38  56  89 132 172 213 280 346 389
#     4  11  25  42  65  96 127 161 224 293 337 369
#
# _framework density 20.978134000000001
#
# number of rings (size 3 to 8) (size 9 to 14) (size 15 to 20)
#    0.000    1.143    5.000    2.143    6.000    1.429 
#    0.000    1.429    0.000    0.857    0.000    0.000 
#    0.000    0.000    0.000    0.000    0.000    0.000 
#
# Total GULP energy -1387609.541299 kJ/mol
# GULP energy per Si atom -12389.370904 kJ/mol
# Density = 2.093039 g / cm^3
# Si number density = 20.978134 Si / 1000 Ang^3
#
#
#
# Elastic Constant Matrix: (Units=GPa)
#
#
# Indices 1 2 3 4 5 6 
#
# 1 76.6367 16.2700 31.9653 0.0000 0.0000 0.0000
# 2 16.2700 76.6367 31.9653 0.0000 0.0000 0.0000
# 3 31.9653 31.9653 129.2607 0.0000 0.0000 0.0000
# 4 0.0000 0.0000 0.0000 24.3747 0.0000 0.0000
# 5 0.0000 0.0000 0.0000 0.0000 24.3747 0.0000
# 6 0.0000 0.0000 0.0000 0.0000 0.0000 34.0815
#
#
#
# Elastic Compliance Matrix: (Units=1/GPa)
#
#
# Indices 1 2 3 4 5 6 
#
# 1 0.014768 -0.001797 -0.003208 0.000000 0.000000 0.000000
# 2 -0.001797 0.014768 -0.003208 0.000000 0.000000 0.000000
# 3 -0.003208 -0.003208 0.009323 0.000000 0.000000 0.000000
# 4 0.000000 0.000000 0.000000 0.041026 0.000000 0.000000
# 5 0.000000 0.000000 0.000000 0.000000 0.041026 0.000000
# 6 0.000000 0.000000 0.000000 0.000000 0.000000 0.029341
#
#
# Mechanical properties :
#
#
# Convention : Reuss Voigt Hill
#
# Bulk Modulus (GPa) = 44.57560 49.21505 46.89533
# Shear Modulus (GPa) = 28.70997 30.05507 29.38252
#
# Velocity S-wave (km/s) = 3.70343 3.78919 3.74655
# Velocity P-wave (km/s) = 6.29141 6.53108 6.41237
#
# Compressibility (1/GPa) = 0.02243380
#
# Stress axis : x y z
#
# Youngs Moduli (GPa) = 67.71379 67.71379 107.26487
#
# Poissons Ratio (x) = 0.12171 0.34406
# Poissons Ratio (y) = 0.12171 0.34406
# Poissons Ratio (z) = 0.21720 0.21720
#
# Static dielectric constant tensor:
#      x y z
#    x 3.711050 0.000000 0.000000 
#    y 0.000000 3.711050 0.000000 
#    z 0.000000 0.000000 3.883230 
# 
# 
# High freq. dielectric constant tensor:
#      x y z
#    x 1.809090 0.000000 0.000000 
#    y 0.000000 1.809090 0.000000 
#    z 0.000000 0.000000 1.824220 
# 
# From -- ./inp_files/6956.got.cif
#   From: 2010.03.12/outbox.cif.g09.slc.cpg/sg128_4_cif.got.tgz:6956.got - 2010.04.06 17:11:05.
