data_PCOD8314246
_publ_section_title
;
Structure prediction by ZEFSAII (Michael W. Deem and Ramdas Pophale) SiO2 
 PCOD8314246
Probable space group: P 4/M B M
;
_chemical_formula_sum "Si O2"
_cell_formula_units_Z 96
_cell_length_a 23.899530
_cell_length_b 23.899530
_cell_length_c 9.041872
_cell_angle_alpha 90.000000
_cell_angle_beta 90.000000
_cell_angle_gamma 90.000000
_cell_volume 5164.604572
_symmetry_space_group_name_H-M "P 4/M B M"
_symmetry_group_IT_number 127
_symmetry_cell_setting 'tetragonal'
loop_
_space_group_symop_operation_xyz
x,y,z
-y,x,z
-x,-y,z
y,-x,z
1/2+x,1/2-y,-z
1/2-x,1/2+y,-z
1/2+y,1/2+x,-z
1/2-y,1/2-x,-z
-x,-y,-z
y,-x,-z
x,y,-z
-y,x,-z
1/2-x,1/2+y,z
1/2+x,1/2-y,z
1/2-y,1/2-x,z
1/2+y,1/2+x,z
loop_
_atom_site_type_symbol
_atom_site_label
_atom_site_fract_x
_atom_site_fract_y
_atom_site_fract_z
Si Si1 0.133528 0.725244 0.829570
Si Si2 0.797112 0.068453 0.675368
Si Si3 0.030202 0.083313 0.324064
Si Si4 0.795608 0.482619 0.324826
Si Si5 0.091028 0.500488 0.830758
Si Si6 0.694393 0.284344 0.328065
O O1 0.168862 0.668862 0.808344
O O2 0.077207 0.718375 0.740187
O O3 0.166562 0.777956 0.765875
O O4 0.120027 0.736627 0.000000
O O5 0.799782 0.065044 0.500000
O O6 0.857774 0.051642 0.742350
O O7 0.779380 0.130569 0.725824
O O8 0.750487 0.026030 0.735998
O O9 0.031075 0.085444 0.500000
O O10 0.966735 0.071034 0.269528
O O11 0.794600 0.478620 0.500000
O O12 0.856043 0.503975 0.274855
O O13 0.056177 0.443824 0.811812
O O14 0.053474 0.553474 0.783701
O O15 0.110709 0.507947 0.000000
O O16 0.698399 0.301038 0.500000
O O17 0.725273 0.225273 0.298015
#
# Coordination Sequence:
#
# PCOD8314246 Si02
#       6
#    16  16  16  16  16  16
#     4  10  21  37  56  77 104 141 184 227 267 310
#     4   9  19  31  47  76 109 140 172 214 267 321
#     4   8  14  25  43  68  97 130 168 210 256 305
#     4  11  22  33  51  83 115 141 174 218 270 326
#     4   9  19  37  58  77 102 141 184 223 267 318
#     4   9  18  34  55  77 104 138 174 216 267 316
#
# _framework density 18.588065
#
# number of rings (size 3 to 8) (size 9 to 14) (size 15 to 20)
#    0.000    2.667    0.000    2.500    2.333    4.333 
#    0.000    4.167    0.000    2.000    0.000    0.000 
#    0.000    1.333    0.000    0.000    0.000    0.000 
#
# Total GULP energy -1190371.613422 kJ/mol
# GULP energy per Si atom -12399.704306 kJ/mol
# Density = 1.854576 g / cm^3
# Si number density = 18.588065 Si / 1000 Ang^3
#
#
#
# Elastic Constant Matrix: (Units=GPa)
#
#
# Indices 1 2 3 4 5 6 
#
# 1 114.6706 106.8923 39.7489 0.0000 0.0000 0.0000
# 2 106.8923 114.6706 39.7489 0.0000 0.0000 0.0000
# 3 39.7489 39.7489 54.4157 0.0000 0.0000 0.0000
# 4 0.0000 0.0000 0.0000 10.3757 0.0000 0.0000
# 5 0.0000 0.0000 0.0000 0.0000 10.3757 0.0000
# 6 0.0000 0.0000 0.0000 0.0000 0.0000 19.7210
#
#
#
# Elastic Compliance Matrix: (Units=1/GPa)
#
#
# Indices 1 2 3 4 5 6 
#
# 1 0.067339 -0.061223 -0.004468 0.000000 0.000000 0.000000
# 2 -0.061223 0.067339 -0.004468 0.000000 0.000000 0.000000
# 3 -0.004468 -0.004468 0.024904 0.000000 0.000000 0.000000
# 4 0.000000 0.000000 0.000000 0.096379 0.000000 0.000000
# 5 0.000000 0.000000 0.000000 0.000000 0.096379 0.000000
# 6 0.000000 0.000000 0.000000 0.000000 0.000000 0.050707
#
#
# Mechanical properties :
#
#
# Convention : Reuss Voigt Hill
#
# Bulk Modulus (GPa) = 51.90561 72.94857 62.42709
# Shear Modulus (GPa) = 9.09444 14.58561 11.84003
#
# Velocity S-wave (km/s) = 2.21433 2.80425 2.52656
# Velocity P-wave (km/s) = 5.87558 7.05798 6.49375
#
# Compressibility (1/GPa) = 0.01926574
#
# Stress axis : x y z
#
# Youngs Moduli (GPa) = 14.85023 14.85023 40.15367
#
# Poissons Ratio (x) = 0.90917 0.17940
# Poissons Ratio (y) = 0.90917 0.17940
# Poissons Ratio (z) = 0.06635 0.06635
#
# Static dielectric constant tensor:
#      x y z
#    x 3.616100 0.000000 0.000000 
#    y 0.000000 3.616100 0.000000 
#    z 0.000000 0.000000 3.101850 
# 
# 
# High freq. dielectric constant tensor:
#      x y z
#    x 1.729180 0.000000 0.000000 
#    y 0.000000 1.729180 0.000000 
#    z 0.000000 0.000000 1.685120 
# 
# From -- ./inp_files/1954.got.cif
#   From: 2010.03.12/outbox.cif.g09.slc.cpg/sg127_1_cif.got.tgz:1954.got - 2010.04.06 17:03:15.
