data_PCOD8314104
_publ_section_title
;
Structure prediction by ZEFSAII (Michael W. Deem and Ramdas Pophale) SiO2 
 PCOD8314104
Probable space group: P 4/M B M
;
_chemical_formula_sum "Si O2"
_cell_formula_units_Z 88
_cell_length_a 19.369761
_cell_length_b 19.369761
_cell_length_c 14.379800
_cell_angle_alpha 90.000000
_cell_angle_beta 90.000000
_cell_angle_gamma 90.000000
_cell_volume 5395.123243
_symmetry_space_group_name_H-M "P 4/M B M"
_symmetry_group_IT_number 127
_symmetry_cell_setting 'tetragonal'
loop_
_space_group_symop_operation_xyz
x,y,z
-y,x,z
-x,-y,z
y,-x,z
1/2+x,1/2-y,-z
1/2-x,1/2+y,-z
1/2+y,1/2+x,-z
1/2-y,1/2-x,-z
-x,-y,-z
y,-x,-z
x,y,-z
-y,x,-z
1/2-x,1/2+y,z
1/2+x,1/2-y,z
1/2-y,1/2-x,z
1/2+y,1/2+x,z
loop_
_atom_site_type_symbol
_atom_site_label
_atom_site_fract_x
_atom_site_fract_y
_atom_site_fract_z
Si Si1 0.189265 0.078954 0.395579
Si Si2 0.000001 0.758140 0.896442
Si Si3 0.310734 0.421049 0.395579
Si Si4 0.112169 1.000000 0.000000
Si Si5 0.637366 0.250939 0.782420
Si Si6 0.249059 0.137369 0.782420
O O1 0.219827 0.085445 0.500000
O O2 0.114306 0.114308 0.389611
O O3 0.242110 0.115685 0.325410
O O4 0.178795 0.000001 0.365610
O O5 0.930336 0.737383 0.843717
O O6 0.069667 0.737386 0.843717
O O7 0.000002 0.723639 0.000000
O O8 1.000000 0.841279 0.906953
O O9 0.280172 0.414559 0.500000
O O10 0.257888 0.384319 0.325410
O O11 0.068477 0.931523 0.000000
O O12 0.683267 0.183267 0.792862
O O13 0.681231 0.318766 0.814406
O O14 0.316731 0.183270 0.792864
#
# Coordination Sequence:
#
# PCOD8314104 Si02
#       6
#    16  16  16   8  16  16
#     4   9  17  30  49  75 107 138 167 203 249 306
#     4  10  21  34  51  72 102 133 169 215 257 300
#     4   9  17  30  49  75 107 138 167 203 249 306
#     4   9  18  32  50  72 100 133 164 198 246 305
#     4  10  20  34  53  77 104 135 173 214 257 305
#     4  10  20  34  53  77 104 135 173 214 257 305
#
# _framework density 16.311026999999999
#
# number of rings (size 3 to 8) (size 9 to 14) (size 15 to 20)
#    0.545    1.909    1.818    1.091    0.000    1.818 
#    0.000    7.273    0.000    0.545    0.000    1.273 
#    0.000    2.909    0.000    0.000    0.000    0.000 
#
# Total GULP energy -1090622.657271 kJ/mol
# GULP energy per Si atom -12393.439287 kJ/mol
# Density = 1.627390 g / cm^3
# Si number density = 16.311027 Si / 1000 Ang^3
#
#
#
# Elastic Constant Matrix: (Units=GPa)
#
#
# Indices 1 2 3 4 5 6 
#
# 1 102.5259 53.1393 52.5195 0.0000 0.0000 0.0000
# 2 53.1393 102.5259 52.5195 0.0000 0.0000 0.0000
# 3 52.5195 52.5195 98.5056 0.0000 0.0000 0.0000
# 4 0.0000 0.0000 0.0000 22.5795 0.0000 0.0000
# 5 0.0000 0.0000 0.0000 0.0000 22.5795 0.0000
# 6 0.0000 0.0000 0.0000 0.0000 0.0000 30.9730
#
#
#
# Elastic Compliance Matrix: (Units=1/GPa)
#
#
# Indices 1 2 3 4 5 6 
#
# 1 0.015141 -0.005107 -0.005350 0.000000 0.000000 0.000000
# 2 -0.005107 0.015141 -0.005350 0.000000 0.000000 0.000000
# 3 -0.005350 -0.005350 0.015856 0.000000 0.000000 0.000000
# 4 0.000000 0.000000 0.000000 0.044288 0.000000 0.000000
# 5 0.000000 0.000000 0.000000 0.000000 0.044288 0.000000
# 6 0.000000 0.000000 0.000000 0.000000 0.000000 0.032286
#
#
# Mechanical properties :
#
#
# Convention : Reuss Voigt Hill
#
# Bulk Modulus (GPa) = 68.84579 68.87934 68.86256
# Shear Modulus (GPa) = 24.57539 24.91835 24.74687
#
# Velocity S-wave (km/s) = 3.88580 3.91282 3.89933
# Velocity P-wave (km/s) = 7.90141 7.92047 7.91095
#
# Compressibility (1/GPa) = 0.01452522
#
# Stress axis : x y z
#
# Youngs Moduli (GPa) = 66.04519 66.04519 63.06667
#
# Poissons Ratio (x) = 0.33731 0.33739
# Poissons Ratio (y) = 0.33731 0.33739
# Poissons Ratio (z) = 0.35332 0.35332
#
# Static dielectric constant tensor:
#      x y z
#    x 2.902950 0.000000 0.000000 
#    y 0.000000 2.902950 0.000000 
#    z 0.000000 0.000000 3.184030 
# 
# 
# High freq. dielectric constant tensor:
#      x y z
#    x 1.611030 0.000000 0.000000 
#    y 0.000000 1.611030 0.000000 
#    z 0.000000 0.000000 1.635940 
# 
# From -- ./inp_files/4391.got.cif
#   From: 2010.03.12/outbox.cif.g09.slc.cpg/sg127_3_cif.got.tgz:4391.got - 2010.04.06 17:03:15.
