data_PCOD8314152
_publ_section_title
;
Structure prediction by ZEFSAII (Michael W. Deem and Ramdas Pophale) SiO2 
 PCOD8314152
Probable space group: P 4/M B M
;
_chemical_formula_sum "Si O2"
_cell_formula_units_Z 68
_cell_length_a 16.717977
_cell_length_b 16.717977
_cell_length_c 13.562823
_cell_angle_alpha 90.000000
_cell_angle_beta 90.000000
_cell_angle_gamma 90.000000
_cell_volume 3790.683640
_symmetry_space_group_name_H-M "P 4/M B M"
_symmetry_group_IT_number 127
_symmetry_cell_setting 'tetragonal'
loop_
_space_group_symop_operation_xyz
x,y,z
-y,x,z
-x,-y,z
y,-x,z
1/2+x,1/2-y,-z
1/2-x,1/2+y,-z
1/2+y,1/2+x,-z
1/2-y,1/2-x,-z
-x,-y,-z
y,-x,-z
x,y,-z
-y,x,-z
1/2-x,1/2+y,z
1/2+x,1/2-y,z
1/2-y,1/2-x,z
1/2+y,1/2+x,z
loop_
_atom_site_type_symbol
_atom_site_label
_atom_site_fract_x
_atom_site_fract_y
_atom_site_fract_z
Si Si1 0.872771 0.372771 0.608149
Si Si2 0.091589 0.198384 0.613579
Si Si3 0.034671 0.872892 0.111276
Si Si4 0.500000 0.000000 0.638654
Si Si5 0.208945 0.073545 0.301476
Si Si6 0.380125 0.880125 0.617155
O O1 0.842462 0.342462 0.500000
O O2 0.939449 0.439449 0.583141
O O3 0.800550 0.410050 0.670864
O O4 0.111362 0.184347 0.500000
O O5 0.155463 0.150084 0.676148
O O6 0.100705 0.289991 0.645137
O O7 0.000730 0.172950 0.636518
O O8 0.054064 0.799789 0.185142
O O9 0.945056 0.903744 0.130134
O O10 0.043502 0.840372 0.000000
O O11 0.562938 0.062938 0.687221
O O12 0.397087 0.897087 0.500000
#
# Coordination Sequence:
#
# PCOD8314152 Si02
#       6
#     8  16  16   4  16   8
#     4  12  24  38  56  83 119 156 201 245 278 337
#     4  11  22  34  51  78 119 156 186 225 276 343
#     4   9  18  36  60  84 110 145 191 240 287 346
#     4  12  21  36  60  78  99 152 211 236 258 312
#     4  12  22  36  55  84 114 151 191 232 291 346
#     4  10  20  36  53  72 103 150 198 233 263 307
#
# _framework density 17.938717
#
# number of rings (size 3 to 8) (size 9 to 14) (size 15 to 20)
#    0.000    1.176    4.706    4.588    0.000    1.412 
#    0.000    1.765    0.000    0.000    0.000    4.118 
#    0.000    0.000    0.000    0.000    0.000    0.000 
#
# Total GULP energy -842602.953138 kJ/mol
# GULP energy per Si atom -12391.219899 kJ/mol
# Density = 1.789789 g / cm^3
# Si number density = 17.938717 Si / 1000 Ang^3
#
#
#
# Elastic Constant Matrix: (Units=GPa)
#
#
# Indices 1 2 3 4 5 6 
#
# 1 95.1024 44.9661 35.7409 0.0000 0.0000 0.0000
# 2 44.9661 95.1024 35.7409 0.0000 0.0000 0.0000
# 3 35.7409 35.7409 101.6917 0.0000 0.0000 0.0000
# 4 0.0000 0.0000 0.0000 18.0251 0.0000 0.0000
# 5 0.0000 0.0000 0.0000 0.0000 18.0251 0.0000
# 6 0.0000 0.0000 0.0000 0.0000 0.0000 34.5328
#
#
#
# Elastic Compliance Matrix: (Units=1/GPa)
#
#
# Indices 1 2 3 4 5 6 
#
# 1 0.014323 -0.005623 -0.003058 0.000000 0.000000 0.000000
# 2 -0.005623 0.014323 -0.003058 0.000000 0.000000 0.000000
# 3 -0.003058 -0.003058 0.011983 0.000000 0.000000 0.000000
# 4 0.000000 0.000000 0.000000 0.055478 0.000000 0.000000
# 5 0.000000 0.000000 0.000000 0.000000 0.055478 0.000000
# 6 0.000000 0.000000 0.000000 0.000000 0.000000 0.028958
#
#
# Mechanical properties :
#
#
# Convention : Reuss Voigt Hill
#
# Bulk Modulus (GPa) = 58.30256 58.31026 58.30641
# Shear Modulus (GPa) = 23.83944 25.81317 24.82631
#
# Velocity S-wave (km/s) = 3.64941 3.79748 3.72419
# Velocity P-wave (km/s) = 7.09430 7.19748 7.14608
#
# Compressibility (1/GPa) = 0.01715191
#
# Stress axis : x y z
#
# Youngs Moduli (GPa) = 69.81917 69.81917 83.45187
#
# Poissons Ratio (x) = 0.39259 0.25517
# Poissons Ratio (y) = 0.39259 0.25517
# Poissons Ratio (z) = 0.21348 0.21348
#
# Static dielectric constant tensor:
#      x y z
#    x 3.421870 0.000000 0.000000 
#    y 0.000000 3.421870 0.000000 
#    z 0.000000 0.000000 3.087780 
# 
# 
# High freq. dielectric constant tensor:
#      x y z
#    x 1.700150 0.000000 0.000000 
#    y 0.000000 1.700150 0.000000 
#    z 0.000000 0.000000 1.657290 
# 
# From -- ./inp_files/3258.got.cif
#   From: 2010.03.12/outbox.cif.g09.slc.cpg/sg127_2_cif.got.tgz:3258.got - 2010.04.06 17:03:15.
