data_PCOD8314422
_publ_section_title
;
Structure prediction by ZEFSAII (Michael W. Deem and Ramdas Pophale) SiO2 
 PCOD8314422
Probable space group: P 4/M B M
;
_chemical_formula_sum "Si O2"
_cell_formula_units_Z 72
_cell_length_a 23.170961
_cell_length_b 23.170961
_cell_length_c 8.717670
_cell_angle_alpha 90.000000
_cell_angle_beta 90.000000
_cell_angle_gamma 90.000000
_cell_volume 4680.459780
_symmetry_space_group_name_H-M "P 4/M B M"
_symmetry_group_IT_number 127
_symmetry_cell_setting 'tetragonal'
loop_
_space_group_symop_operation_xyz
x,y,z
-y,x,z
-x,-y,z
y,-x,z
1/2+x,1/2-y,-z
1/2-x,1/2+y,-z
1/2+y,1/2+x,-z
1/2-y,1/2-x,-z
-x,-y,-z
y,-x,-z
x,y,-z
-y,x,-z
1/2-x,1/2+y,z
1/2+x,1/2-y,z
1/2-y,1/2-x,z
1/2+y,1/2+x,z
loop_
_atom_site_type_symbol
_atom_site_label
_atom_site_fract_x
_atom_site_fract_y
_atom_site_fract_z
Si Si1 0.517493 0.830879 0.819987
Si Si2 0.197284 0.396932 0.682379
Si Si3 0.626280 0.779690 0.317448
Si Si4 0.286924 0.309473 0.667377
Si Si5 0.546439 0.953562 0.681434
O O1 0.456186 0.805431 0.772753
O O2 0.565211 0.784814 0.766184
O O3 0.527644 0.891573 0.739699
O O4 0.520808 0.839889 0.000000
O O5 0.201827 0.407113 0.500000
O O6 0.140321 0.359680 0.719727
O O7 0.254963 0.363851 0.747665
O O8 0.618073 0.775338 0.500000
O O9 0.664007 0.835994 0.275827
O O10 0.657663 0.721038 0.251912
O O11 0.307187 0.330661 0.500000
O O12 0.239925 0.260075 0.645062
O O13 0.548971 0.951030 0.500000
O O14 0.500000 0.000000 0.739993
#
# Coordination Sequence:
#
# PCOD8314422 Si02
#       5
#    16  16  16  16   8
#     4  12  23  31  42  64  94 121 150 185 225 268
#     4   9  17  31  49  66  86 115 152 188 223 264
#     4   9  16  29  49  67  85 112 148 186 226 266
#     4   7  12  25  47  70  84 102 141 189 227 262
#     4  11  23  37  49  59  77 117 167 203 229 256
#
# _framework density 15.383103
#
# number of rings (size 3 to 8) (size 9 to 14) (size 15 to 20)
#    0.000    2.556    1.111    5.667    0.000    4.000 
#    0.000    1.111    0.000    4.000    0.000    0.000 
#    0.000    0.889    0.000   10.222    0.000    4.000 
#
# Total GULP energy -891977.555379 kJ/mol
# GULP energy per Si atom -12388.577158 kJ/mol
# Density = 1.534809 g / cm^3
# Si number density = 15.383103 Si / 1000 Ang^3
#
#
#
# Elastic Constant Matrix: (Units=GPa)
#
#
# Indices 1 2 3 4 5 6 
#
# 1 73.7503 74.3075 19.4611 0.0000 0.0000 0.0000
# 2 74.3075 73.7516 19.4616 0.0000 0.0000 0.0000
# 3 19.4611 19.4616 32.7716 0.0000 0.0000 0.0000
# 4 0.0000 0.0000 0.0000 -4.0861 0.0000 0.0000
# 5 0.0000 0.0000 0.0000 0.0000 -4.0861 0.0000
# 6 0.0000 0.0000 0.0000 0.0000 0.0000 28.1756
#
#
#
# Elastic Compliance Matrix: (Units=1/GPa)
#
#
# Indices 1 2 3 4 5 6 
#
# 1 -0.894449 0.902448 -0.004764 0.000000 0.000000 0.000000
# 2 0.902448 -0.894440 -0.004742 0.000000 0.000000 0.000000
# 3 -0.004764 -0.004742 0.036159 0.000000 0.000000 0.000000
# 4 0.000000 0.000000 0.000000 -0.244734 0.000000 0.000000
# 5 0.000000 0.000000 0.000000 0.000000 -0.244734 0.000000
# 6 0.000000 0.000000 0.000000 0.000000 0.000000 0.035492
#
#
# Mechanical properties :
#
#
# Convention : Reuss Voigt Hill
#
# Bulk Modulus (GPa) = 30.16158 45.19265 37.67711
# Shear Modulus (GPa) = -1.25580 8.47024 3.60722
#
# Velocity S-wave (km/s) = -0.90450 2.34907 1.53298
# Velocity P-wave (km/s) = 4.30798 6.06625 5.26109
#
# Compressibility (1/GPa) = 0.03315477
#
# Stress axis : x y z
#
# Youngs Moduli (GPa) = -1.11801 -1.11802 27.65543
#
# Poissons Ratio (x) = 1.00895 0.13175
# Poissons Ratio (y) = 1.00894 0.13114
# Poissons Ratio (z) = -0.00533 -0.00530
#
# Static dielectric constant tensor:
#      x y z
#    x 3.165140 0.000000 0.000000 
#    y 0.000000 3.165130 0.000000 
#    z 0.000000 0.000000 2.718890 
# 
# 
# High freq. dielectric constant tensor:
#      x y z
#    x 1.575250 0.000000 0.000000 
#    y 0.000000 1.575250 0.000000 
#    z 0.000000 0.000000 1.568740 
# 
# From -- ./inp_files/1726.got.cif
#   From: 2010.03.12/outbox.cif.g09.slc.cpg/sg127_1_cif.got.tgz:1726.got - 2010.04.06 17:03:15.
