data_PCOD8314712
_publ_section_title
;
Structure prediction by ZEFSAII (Michael W. Deem and Ramdas Pophale) SiO2 
 PCOD8314712
Probable space group: P 4/M N C
;
_chemical_formula_sum "Si O2"
_cell_formula_units_Z 72
_cell_length_a 15.143282
_cell_length_b 15.143282
_cell_length_c 15.760391
_cell_angle_alpha 90.000000
_cell_angle_beta 90.000000
_cell_angle_gamma 90.000000
_cell_volume 3614.156942
_symmetry_space_group_name_H-M "P 4/M N C"
_symmetry_group_IT_number 128
_symmetry_cell_setting 'tetragonal'
loop_
_space_group_symop_operation_xyz
x,y,z
-y,x,z
-x,-y,z
y,-x,z
1/2+x,1/2-y,1/2-z
1/2-x,1/2+y,1/2-z
1/2+y,1/2+x,1/2-z
1/2-y,1/2-x,1/2-z
-x,-y,-z
y,-x,-z
x,y,-z
-y,x,-z
1/2-x,1/2+y,1/2+z
1/2+x,1/2-y,1/2+z
1/2-y,1/2-x,1/2+z
1/2+y,1/2+x,1/2+z
loop_
_atom_site_type_symbol
_atom_site_label
_atom_site_fract_x
_atom_site_fract_y
_atom_site_fract_z
Si Si1 0.982168 0.764301 0.596442
Si Si2 0.342412 0.312511 0.835534
Si Si3 0.128805 0.070520 0.000000
Si Si4 0.246594 0.634826 0.352026
Si Si5 0.576870 0.937140 0.400622
O O1 0.948986 0.773788 0.500000
O O2 0.903629 0.789380 0.660081
O O3 0.067731 0.825702 0.611056
O O4 0.010396 0.665650 0.619199
O O5 0.369195 0.290296 0.739761
O O6 0.281730 0.235019 0.875476
O O7 0.181544 0.099759 0.917138
O O8 0.034725 0.118722 0.000000
O O9 0.157525 0.575097 0.353165
O O10 0.565427 0.917145 0.500000
O O11 0.500000 0.000000 0.365343
#
# Coordination Sequence:
#
# PCOD8314712 Si02
#       5
#    16  16   8  16  16
#     4  10  21  38  63  89 123 159 210 261 319 387
#     4  10  23  40  61  92 123 164 210 264 325 379
#     4  11  26  42  65  92 126 175 223 258 312 394
#     4  10  22  43  62  88 131 168 209 266 319 378
#     4   9  18  37  64  97 125 160 210 263 318 382
#
# _framework density 19.921658999999998
#
# number of rings (size 3 to 8) (size 9 to 14) (size 15 to 20)
#    0.000    2.111    1.111    0.667    6.222    2.222 
#    4.000    8.889    0.000    0.000    0.000    0.000 
#    0.000    0.000    0.000    0.000    0.000    0.000 
#
# Total GULP energy -892928.718097 kJ/mol
# GULP energy per Si atom -12401.787751 kJ/mol
# Density = 1.987632 g / cm^3
# Si number density = 19.921659 Si / 1000 Ang^3
#
#
#
# Elastic Constant Matrix: (Units=GPa)
#
#
# Indices 1 2 3 4 5 6 
#
# 1 126.8350 77.1826 61.4334 0.0000 0.0000 0.0000
# 2 77.1826 126.8350 61.4334 0.0000 0.0000 0.0000
# 3 61.4334 61.4334 103.8094 0.0000 0.0000 0.0000
# 4 0.0000 0.0000 0.0000 31.6677 0.0000 0.0000
# 5 0.0000 0.0000 0.0000 0.0000 31.6677 0.0000
# 6 0.0000 0.0000 0.0000 0.0000 0.0000 36.7241
#
#
#
# Elastic Compliance Matrix: (Units=1/GPa)
#
#
# Indices 1 2 3 4 5 6 
#
# 1 0.013878 -0.006262 -0.004507 0.000000 0.000000 0.000000
# 2 -0.006262 0.013878 -0.004507 0.000000 0.000000 0.000000
# 3 -0.004507 -0.004507 0.014967 0.000000 0.000000 0.000000
# 4 0.000000 0.000000 0.000000 0.031578 0.000000 0.000000
# 5 0.000000 0.000000 0.000000 0.000000 0.031578 0.000000
# 6 0.000000 0.000000 0.000000 0.000000 0.000000 0.027230
#
#
# Mechanical properties :
#
#
# Convention : Reuss Voigt Hill
#
# Bulk Modulus (GPa) = 82.16147 84.17534 83.16841
# Shear Modulus (GPa) = 29.81195 30.50726 30.15961
#
# Velocity S-wave (km/s) = 3.87261 3.91751 3.89512
# Velocity P-wave (km/s) = 7.83121 7.92511 7.87830
#
# Compressibility (1/GPa) = 0.01217115
#
# Stress axis : x y z
#
# Youngs Moduli (GPa) = 72.05711 72.05711 66.81206
#
# Poissons Ratio (x) = 0.45123 0.30112
# Poissons Ratio (y) = 0.45123 0.30112
# Poissons Ratio (z) = 0.32476 0.32476
#
# Static dielectric constant tensor:
#      x y z
#    x 3.664550 0.000000 0.000000 
#    y 0.000000 3.664550 0.000000 
#    z 0.000000 0.000000 3.525030 
# 
# 
# High freq. dielectric constant tensor:
#      x y z
#    x 1.777260 0.000000 0.000000 
#    y 0.000000 1.777260 0.000000 
#    z 0.000000 0.000000 1.776960 
# 
# From -- ./inp_files/4599.got.cif
#   From: 2010.03.12/outbox.cif.g09.slc.cpg/sg128_3_cif.got.tgz:4599.got - 2010.04.06 17:11:05.
