data_PCOD8314988
_publ_section_title
;
Structure prediction by ZEFSAII (Michael W. Deem and Ramdas Pophale) SiO2 
 PCOD8314988
Probable space group: P 4/N M M
;
_chemical_formula_sum "Si O2"
_cell_formula_units_Z 112
_cell_length_a 26.683898
_cell_length_b 26.683898
_cell_length_c 11.447998
_cell_angle_alpha 90.000000
_cell_angle_beta 90.000000
_cell_angle_gamma 90.000000
_cell_volume 8151.322738
_symmetry_space_group_name_H-M "P 4/N M M"
_symmetry_group_IT_number 129
_symmetry_cell_setting 'tetragonal'
loop_
_space_group_symop_operation_xyz
x,y,z
1/2-y,x,z
1/2-x,1/2-y,z
y,1/2-x,z
1/2+x,-y,-z
-x,1/2+y,-z
1/2+y,1/2+x,-z
-y,-x,-z
-x,-y,-z
1/2+y,-x,-z
1/2+x,1/2+y,-z
-y,1/2+x,-z
1/2-x,y,z
x,1/2-y,z
1/2-y,1/2-x,z
y,x,z
loop_
_atom_site_type_symbol
_atom_site_label
_atom_site_fract_x
_atom_site_fract_y
_atom_site_fract_z
Si Si1 0.969289 0.447186 0.624038
Si Si2 0.305186 0.382142 0.106608
Si Si3 0.960319 0.875559 0.261876
Si Si4 0.693852 0.938213 0.655421
Si Si5 0.984195 0.899612 0.760923
Si Si6 0.878391 0.957888 0.005382
Si Si7 0.808411 0.609095 0.405263
O O1 0.941247 0.441247 0.500000
O O2 0.930211 0.467600 0.719397
O O3 0.014847 0.485154 0.609368
O O4 0.991571 0.393711 0.663510
O O5 0.250000 0.381943 0.055356
O O6 0.326083 0.326083 0.099037
O O7 0.308131 0.398351 0.240776
O O8 0.336047 0.417822 0.022623
O O9 0.918442 0.918442 0.256988
O O10 0.981585 0.864093 0.130956
O O11 0.935695 0.826386 0.319439
O O12 0.750000 0.962960 0.650739
O O13 0.682243 0.909159 0.536670
O O14 0.649879 0.978693 0.679469
O O15 0.932929 0.932929 0.753325
O O16 0.995792 0.882810 0.895074
O O17 0.932470 0.932470 0.018865
O O18 0.750000 0.620489 0.380833
O O19 0.840206 0.659795 0.383521
#
# Coordination Sequence:
#
# PCOD8314988 Si02
#       7
#    16  16  16  16  16  16  16
#     4   9  16  24  37  57  76  93 112 138 176 219
#     4   9  16  25  37  51  67  89 119 157 197 233
#     4   9  17  28  39  52  71  92 116 147 183 224
#     4   9  16  26  39  54  72  95 122 151 189 233
#     4   9  15  24  39  56  74  94 117 147 179 215
#     4   8  15  26  37  49  66  89 114 141 177 219
#     4  10  19  29  41  54  70  95 126 162 200 234
#
# _framework density 13.740100999999999
#
# number of rings (size 3 to 8) (size 9 to 14) (size 15 to 20)
#    0.000    3.000    0.000    3.000    0.000    3.714 
#    0.000    2.857    0.000    2.571    0.000    4.000 
#    0.000    0.000    0.000    0.000    0.000    0.714 
#
# Total GULP energy -1387763.168342 kJ/mol
# GULP energy per Si atom -12390.742574 kJ/mol
# Density = 1.370883 g / cm^3
# Si number density = 13.740101 Si / 1000 Ang^3
#
#
#
# Elastic Constant Matrix: (Units=GPa)
#
#
# Indices 1 2 3 4 5 6 
#
# 1 44.3461 36.2156 29.9084 0.0000 0.0000 0.0000
# 2 36.2156 44.3461 29.9084 0.0000 0.0000 0.0000
# 3 29.9084 29.9084 90.2435 0.0000 0.0000 0.0000
# 4 0.0000 0.0000 0.0000 9.1509 0.0000 0.0000
# 5 0.0000 0.0000 0.0000 0.0000 9.1509 0.0000
# 6 0.0000 0.0000 0.0000 0.0000 0.0000 14.6869
#
#
#
# Elastic Compliance Matrix: (Units=1/GPa)
#
#
# Indices 1 2 3 4 5 6 
#
# 1 0.069729 -0.053264 -0.005457 0.000000 0.000000 0.000000
# 2 -0.053264 0.069729 -0.005457 0.000000 0.000000 0.000000
# 3 -0.005457 -0.005457 0.014698 0.000000 0.000000 0.000000
# 4 0.000000 0.000000 0.000000 0.109278 0.000000 0.000000
# 5 0.000000 0.000000 0.000000 0.000000 0.109278 0.000000
# 6 0.000000 0.000000 0.000000 0.000000 0.000000 0.068088
#
#
# Mechanical properties :
#
#
# Convention : Reuss Voigt Hill
#
# Bulk Modulus (GPa) = 38.75926 41.22227 39.99077
# Shear Modulus (GPa) = 8.65419 12.12465 10.38942
#
# Velocity S-wave (km/s) = 2.51240 2.97379 2.75278
# Velocity P-wave (km/s) = 6.05692 6.46976 6.26674
#
# Compressibility (1/GPa) = 0.02580028
#
# Stress axis : x y z
#
# Youngs Moduli (GPa) = 14.34132 14.34132 68.03668
#
# Poissons Ratio (x) = 0.76388 0.37125
# Poissons Ratio (y) = 0.76388 0.37125
# Poissons Ratio (z) = 0.07825 0.07825
#
# Static dielectric constant tensor:
#      x y z
#    x 2.563120 0.000000 0.000000 
#    y 0.000000 2.563120 0.000000 
#    z 0.000000 0.000000 2.962310 
# 
# 
# High freq. dielectric constant tensor:
#      x y z
#    x 1.485030 0.000000 0.000000 
#    y 0.000000 1.485030 0.000000 
#    z 0.000000 0.000000 1.542600 
# 
# From -- ./inp_files/4094.got.cif
#   From: 2010.03.12/outbox.cif.g09.slc.cpg/sg129_3_cif.got.tgz:4094.got - 2010.04.06 17:19:44.
