data_PCOD8314146
_publ_section_title
;
Structure prediction by ZEFSAII (Michael W. Deem and Ramdas Pophale) SiO2 
 PCOD8314146
Probable space group: P 4/M B M
;
_chemical_formula_sum "Si O2"
_cell_formula_units_Z 96
_cell_length_a 25.011690
_cell_length_b 25.011690
_cell_length_c 7.553749
_cell_angle_alpha 90.000000
_cell_angle_beta 90.000000
_cell_angle_gamma 90.000000
_cell_volume 4725.509324
_symmetry_space_group_name_H-M "P 4/M B M"
_symmetry_group_IT_number 127
_symmetry_cell_setting 'tetragonal'
loop_
_space_group_symop_operation_xyz
x,y,z
-y,x,z
-x,-y,z
y,-x,z
1/2+x,1/2-y,-z
1/2-x,1/2+y,-z
1/2+y,1/2+x,-z
1/2-y,1/2-x,-z
-x,-y,-z
y,-x,-z
x,y,-z
-y,x,-z
1/2-x,1/2+y,z
1/2+x,1/2-y,z
1/2-y,1/2-x,z
1/2+y,1/2+x,z
loop_
_atom_site_type_symbol
_atom_site_label
_atom_site_fract_x
_atom_site_fract_y
_atom_site_fract_z
Si Si1 0.762227 0.822780 0.290281
Si Si2 0.541722 0.875101 0.000000
Si Si3 0.060978 0.941716 0.289306
Si Si4 0.952062 0.740160 0.702416
Si Si5 0.072877 0.340572 0.000000
Si Si6 0.931780 0.293757 0.296519
Si Si7 0.338107 0.380389 0.709107
O O1 0.763283 0.817933 0.500000
O O2 0.725706 0.774295 0.212401
O O3 0.738119 0.879710 0.232770
O O4 0.822618 0.820547 0.212058
O O5 0.562299 0.845585 0.824142
O O6 0.565354 0.934647 0.000000
O O7 0.477926 0.880052 0.000000
O O8 0.063166 0.941626 0.500000
O O9 0.104821 0.900115 0.212868
O O10 0.001951 0.925234 0.222810
O O11 0.937274 0.726220 0.500000
O O12 0.927427 0.694193 0.822861
O O13 0.925666 0.795619 0.762130
O O14 0.016205 0.744326 0.727611
O O15 0.126986 0.373015 0.000000
O O16 0.926042 0.312612 0.500000
O O17 0.342931 0.374371 0.500000
#
# Coordination Sequence:
#
# PCOD8314146 Si02
#       7
#    16   8  16  16   8  16  16
#     4   9  17  28  43  67 100 137 174 216 268 316
#     4  10  20  35  57  83 107 132 170 217 265 322
#     4   8  14  23  37  64 103 141 177 221 268 312
#     4   9  19  35  55  79 104 138 182 219 259 311
#     4  10  22  39  57  79 107 137 171 214 264 321
#     4   9  18  33  54  77 105 141 178 218 262 312
#     4   9  17  27  45  73 104 139 180 223 265 315
#
# _framework density 20.315272
#
# number of rings (size 3 to 8) (size 9 to 14) (size 15 to 20)
#    0.000    3.000    0.000    1.000    2.333    2.167 
#    0.000    2.500    0.000    1.000    0.000    4.667 
#    0.000    1.333    0.000    0.167    0.000    0.000 
#
# Total GULP energy -1189895.349147 kJ/mol
# GULP energy per Si atom -12394.743220 kJ/mol
# Density = 2.026903 g / cm^3
# Si number density = 20.315272 Si / 1000 Ang^3
#
#
#
# Elastic Constant Matrix: (Units=GPa)
#
#
# Indices 1 2 3 4 5 6 
#
# 1 125.3144 87.4494 13.7745 0.0000 0.0000 0.0000
# 2 87.4494 125.3189 13.7760 0.0000 0.0000 0.0000
# 3 13.7745 13.7760 50.1486 0.0000 0.0000 0.0000
# 4 0.0000 0.0000 0.0000 5.0386 0.0000 0.0000
# 5 0.0000 0.0000 0.0000 0.0000 5.0377 0.0000
# 6 0.0000 0.0000 0.0000 0.0000 0.0000 38.7730
#
#
#
# Elastic Compliance Matrix: (Units=1/GPa)
#
#
# Indices 1 2 3 4 5 6 
#
# 1 0.015641 -0.010767 -0.001338 0.000000 0.000000 0.000000
# 2 -0.010767 0.015640 -0.001339 0.000000 0.000000 0.000000
# 3 -0.001338 -0.001339 0.020676 0.000000 0.000000 0.000000
# 4 0.000000 0.000000 0.000000 0.198467 0.000000 0.000000
# 5 0.000000 0.000000 0.000000 0.000000 0.198502 0.000000
# 6 0.000000 0.000000 0.000000 0.000000 0.000000 0.025791
#
#
# Mechanical properties :
#
#
# Convention : Reuss Voigt Hill
#
# Bulk Modulus (GPa) = 39.89113 58.97575 49.43344
# Shear Modulus (GPa) = 9.80463 22.15534 15.97998
#
# Velocity S-wave (km/s) = 2.19925 3.30597 2.80768
# Velocity P-wave (km/s) = 5.11152 6.60801 5.90735
#
# Compressibility (1/GPa) = 0.02506823
#
# Stress axis : x y z
#
# Youngs Moduli (GPa) = 63.93478 63.93674 48.36490
#
# Poissons Ratio (x) = 0.68843 0.06473
# Poissons Ratio (y) = 0.68841 0.06476
# Poissons Ratio (z) = 0.08557 0.08561
#
# Static dielectric constant tensor:
#      x y z
#    x 3.797450 0.000000 0.000000 
#    y 0.000000 3.797450 0.000000 
#    z 0.000000 0.000000 3.403750 
# 
# 
# High freq. dielectric constant tensor:
#      x y z
#    x 1.787900 0.000000 0.000000 
#    y 0.000000 1.787900 0.000000 
#    z 0.000000 0.000000 1.772420 
# 
# From -- ./inp_files/2115.got.cif
#   From: 2010.03.12/outbox.cif.g09.slc.cpg/sg127_2_cif.got.tgz:2115.got - 2010.04.06 17:03:15.
