data_PCOD8314814
_publ_section_title
;
Structure prediction by ZEFSAII (Michael W. Deem and Ramdas Pophale) SiO2 
 PCOD8314814
Probable space group: P 4/M N C
;
_chemical_formula_sum "Si O2"
_cell_formula_units_Z 80
_cell_length_a 11.623162
_cell_length_b 11.623162
_cell_length_c 30.797577
_cell_angle_alpha 90.000000
_cell_angle_beta 90.000000
_cell_angle_gamma 90.000000
_cell_volume 4160.687820
_symmetry_space_group_name_H-M "P 4/M N C"
_symmetry_group_IT_number 128
_symmetry_cell_setting 'tetragonal'
loop_
_space_group_symop_operation_xyz
x,y,z
-y,x,z
-x,-y,z
y,-x,z
1/2+x,1/2-y,1/2-z
1/2-x,1/2+y,1/2-z
1/2+y,1/2+x,1/2-z
1/2-y,1/2-x,1/2-z
-x,-y,-z
y,-x,-z
x,y,-z
-y,x,-z
1/2-x,1/2+y,1/2+z
1/2+x,1/2-y,1/2+z
1/2-y,1/2-x,1/2+z
1/2+y,1/2+x,1/2+z
loop_
_atom_site_type_symbol
_atom_site_label
_atom_site_fract_x
_atom_site_fract_y
_atom_site_fract_z
Si Si1 0.496655 0.863954 0.932035
Si Si2 0.319367 0.459058 0.776076
Si Si3 0.954923 0.819686 0.825910
Si Si4 0.136724 0.680603 0.000000
Si Si5 0.365662 0.814982 0.500000
Si Si6 0.112648 0.429696 0.839427
O O1 0.611222 0.820876 0.956903
O O2 0.486705 0.825896 0.881734
O O3 0.500000 0.000000 0.933466
O O4 0.384321 0.822048 0.957805
O O5 0.414456 0.364292 0.789013
O O6 0.295151 0.451683 0.725188
O O7 0.201827 0.431743 0.800281
O O8 0.924410 0.701656 0.850624
O O9 0.082574 0.862426 0.839066
O O10 0.191600 0.806105 0.000000
O O11 0.001512 0.701945 0.000000
O O12 0.000000 0.500000 0.825056
#
# Coordination Sequence:
#
# PCOD8314814 Si02
#       6
#    16  16  16   8   8  16
#     4   8  18  36  52  74 109 145 176 216 266 317
#     4   9  20  37  54  75 110 150 186 233 285 324
#     4   9  20  39  56  75 110 151 184 227 287 335
#     4   9  17  34  60  78 111 141 178 212 268 327
#     4   9  17  34  56  80 103 147 174 208 264 327
#     4  11  22  34  56  85 108 143 193 234 274 333
#
# _framework density 19.227588999999998
#
# number of rings (size 3 to 8) (size 9 to 14) (size 15 to 20)
#    0.000    2.800    0.000    3.000    2.800    3.400 
#    7.200    0.000    0.000    4.800    0.000    0.000 
#    0.000    0.000    0.000    0.000    0.000    0.000 
#
# Total GULP energy -991641.844693 kJ/mol
# GULP energy per Si atom -12395.523059 kJ/mol
# Density = 1.918383 g / cm^3
# Si number density = 19.227589 Si / 1000 Ang^3
#
#
#
# Elastic Constant Matrix: (Units=GPa)
#
#
# Indices 1 2 3 4 5 6 
#
# 1 89.9504 43.3017 20.0084 0.0000 0.0000 0.0000
# 2 43.3017 89.9504 20.0084 0.0000 0.0000 0.0000
# 3 20.0084 20.0084 53.4293 0.0000 0.0000 0.0000
# 4 0.0000 0.0000 0.0000 15.4825 0.0000 0.0000
# 5 0.0000 0.0000 0.0000 0.0000 15.4825 0.0000
# 6 0.0000 0.0000 0.0000 0.0000 0.0000 20.7010
#
#
#
# Elastic Compliance Matrix: (Units=1/GPa)
#
#
# Indices 1 2 3 4 5 6 
#
# 1 0.014946 -0.006491 -0.003166 0.000000 0.000000 0.000000
# 2 -0.006491 0.014946 -0.003166 0.000000 0.000000 0.000000
# 3 -0.003166 -0.003166 0.021088 0.000000 0.000000 0.000000
# 4 0.000000 0.000000 0.000000 0.064589 0.000000 0.000000
# 5 0.000000 0.000000 0.000000 0.000000 0.064589 0.000000
# 6 0.000000 0.000000 0.000000 0.000000 0.000000 0.048307
#
#
# Mechanical properties :
#
#
# Convention : Reuss Voigt Hill
#
# Bulk Modulus (GPa) = 39.47407 44.44078 41.95742
# Shear Modulus (GPa) = 19.04351 20.33397 19.68874
#
# Velocity S-wave (km/s) = 3.15052 3.25551 3.20345
# Velocity P-wave (km/s) = 5.81454 6.10691 5.96252
#
# Compressibility (1/GPa) = 0.02533309
#
# Stress axis : x y z
#
# Youngs Moduli (GPa) = 66.90684 66.90684 47.42062
#
# Poissons Ratio (x) = 0.43427 0.15015
# Poissons Ratio (y) = 0.43427 0.15015
# Poissons Ratio (z) = 0.21186 0.21186
#
# Static dielectric constant tensor:
#      x y z
#    x 3.410560 0.000000 0.000000 
#    y 0.000000 3.410560 0.000000 
#    z 0.000000 0.000000 4.343170 
# 
# 
# High freq. dielectric constant tensor:
#      x y z
#    x 1.738700 0.000000 0.000000 
#    y 0.000000 1.738700 0.000000 
#    z 0.000000 0.000000 1.738330 
# 
# From -- ./inp_files/7198.got.cif
#   From: 2010.03.12/outbox.cif.g09.slc.cpg/sg128_4_cif.got.tgz:7198.got - 2010.04.06 17:11:05.
