data_PCOD8314965
_publ_section_title
;
Structure prediction by ZEFSAII (Michael W. Deem and Ramdas Pophale) SiO2 
 PCOD8314965
Probable space group: P 4/N M M
;
_chemical_formula_sum "Si O2"
_cell_formula_units_Z 96
_cell_length_a 19.966821
_cell_length_b 19.966821
_cell_length_c 14.199042
_cell_angle_alpha 90.000000
_cell_angle_beta 90.000000
_cell_angle_gamma 90.000000
_cell_volume 5660.788030
_symmetry_space_group_name_H-M "P 4/N M M"
_symmetry_group_IT_number 129
_symmetry_cell_setting 'tetragonal'
loop_
_space_group_symop_operation_xyz
x,y,z
1/2-y,x,z
1/2-x,1/2-y,z
y,1/2-x,z
1/2+x,-y,-z
-x,1/2+y,-z
1/2+y,1/2+x,-z
-y,-x,-z
-x,-y,-z
1/2+y,-x,-z
1/2+x,1/2+y,-z
-y,1/2+x,-z
1/2-x,y,z
x,1/2-y,z
1/2-y,1/2-x,z
y,x,z
loop_
_atom_site_type_symbol
_atom_site_label
_atom_site_fract_x
_atom_site_fract_y
_atom_site_fract_z
Si Si1 0.829578 0.432125 0.045550
Si Si2 0.931326 0.823683 0.943095
Si Si3 0.823778 0.568431 0.559697
Si Si4 0.134856 0.471613 0.250734
Si Si5 0.921171 0.034934 0.217957
Si Si6 0.516703 0.408478 0.572155
O O1 0.750000 0.415248 0.057311
O O2 0.841033 0.494503 0.976721
O O3 0.860835 0.458345 0.143748
O O4 0.868147 0.368147 0.000000
O O5 0.908364 0.750000 0.977670
O O6 0.878311 0.878311 0.981187
O O7 0.933792 0.822966 0.829473
O O8 0.750000 0.591545 0.533883
O O9 0.864612 0.635389 0.580802
O O10 0.822810 0.520941 0.653085
O O11 0.850772 0.529457 0.469473
O O12 0.069391 0.430610 0.281373
O O13 0.106028 0.540800 0.210398
O O14 0.887382 0.035203 0.321783
O O15 0.969817 0.969817 0.198111
O O16 0.579188 0.420812 0.500000
O O17 0.479174 0.479174 0.581619
#
# Coordination Sequence:
#
# PCOD8314965 Si02
#       6
#    16  16  16  16  16  16
#     4  11  23  37  54  76 101 132 174 220 263 313
#     4  10  20  33  51  77 107 137 171 209 251 305
#     4  10  19  30  46  71 104 139 171 203 242 295
#     4   9  16  28  49  74  98 130 171 210 252 299
#     4  10  18  31  55  80 103 131 163 212 268 308
#     4   9  16  29  49  74 100 126 161 206 253 295
#
# _framework density 16.958770000000001
#
# number of rings (size 3 to 8) (size 9 to 14) (size 15 to 20)
#    0.000    2.167    3.333    1.000    0.000    1.833 
#    0.000    0.000    0.000    3.000    0.000    0.000 
#    0.000    4.333    0.000    0.000    0.000    0.000 
#
# Total GULP energy -1189371.700861 kJ/mol
# GULP energy per Si atom -12389.288551 kJ/mol
# Density = 1.692017 g / cm^3
# Si number density = 16.958770 Si / 1000 Ang^3
#
#
#
# Elastic Constant Matrix: (Units=GPa)
#
#
# Indices 1 2 3 4 5 6 
#
# 1 88.8957 49.8705 34.6505 0.0000 0.0000 0.0000
# 2 49.8705 88.8969 34.6509 0.0000 0.0000 0.0000
# 3 34.6505 34.6509 105.3375 0.0000 0.0000 0.0000
# 4 0.0000 0.0000 0.0000 18.6580 0.0000 0.0000
# 5 0.0000 0.0000 0.0000 0.0000 18.6579 0.0000
# 6 0.0000 0.0000 0.0000 0.0000 0.0000 16.7040
#
#
#
# Elastic Compliance Matrix: (Units=1/GPa)
#
#
# Indices 1 2 3 4 5 6 
#
# 1 0.017124 -0.008501 -0.002836 0.000000 0.000000 0.000000
# 2 -0.008501 0.017123 -0.002837 0.000000 0.000000 0.000000
# 3 -0.002836 -0.002837 0.011359 0.000000 0.000000 0.000000
# 4 0.000000 0.000000 0.000000 0.053596 0.000000 0.000000
# 5 0.000000 0.000000 0.000000 0.000000 0.053597 0.000000
# 6 0.000000 0.000000 0.000000 0.000000 0.000000 0.059866
#
#
# Mechanical properties :
#
#
# Convention : Reuss Voigt Hill
#
# Bulk Modulus (GPa) = 57.93998 57.94155 57.94076
# Shear Modulus (GPa) = 20.26214 21.73451 20.99833
#
# Velocity S-wave (km/s) = 3.46032 3.58384 3.52262
# Velocity P-wave (km/s) = 7.08551 7.16697 7.12636
#
# Compressibility (1/GPa) = 0.01725924
#
# Stress axis : x y z
#
# Youngs Moduli (GPa) = 58.39889 58.39964 88.03260
#
# Poissons Ratio (x) = 0.49643 0.24970
# Poissons Ratio (y) = 0.49643 0.24971
# Poissons Ratio (z) = 0.16565 0.16565
#
# Static dielectric constant tensor:
#      x y z
#    x 3.003400 0.000000 0.000000 
#    y 0.000000 3.003400 0.000000 
#    z 0.000000 0.000000 3.274750 
# 
# 
# High freq. dielectric constant tensor:
#      x y z
#    x 1.630130 0.000000 0.000000 
#    y 0.000000 1.630130 0.000000 
#    z 0.000000 0.000000 1.664110 
# 
# From -- ./inp_files/3848.got.cif
#   From: 2010.03.12/outbox.cif.g09.slc.cpg/sg129_2_cif.got.tgz:3848.got - 2010.04.06 17:19:44.
