data_PCOD8314748
_publ_section_title
;
Structure prediction by ZEFSAII (Michael W. Deem and Ramdas Pophale) SiO2 
 PCOD8314748
Probable space group: P 4/M N C
;
_chemical_formula_sum "Si O2"
_cell_formula_units_Z 96
_cell_length_a 23.180934
_cell_length_b 23.180934
_cell_length_c 9.373744
_cell_angle_alpha 90.000000
_cell_angle_beta 90.000000
_cell_angle_gamma 90.000000
_cell_volume 5037.034779
_symmetry_space_group_name_H-M "P 4/M N C"
_symmetry_group_IT_number 128
_symmetry_cell_setting 'tetragonal'
loop_
_space_group_symop_operation_xyz
x,y,z
-y,x,z
-x,-y,z
y,-x,z
1/2+x,1/2-y,1/2-z
1/2-x,1/2+y,1/2-z
1/2+y,1/2+x,1/2-z
1/2-y,1/2-x,1/2-z
-x,-y,-z
y,-x,-z
x,y,-z
-y,x,-z
1/2-x,1/2+y,1/2+z
1/2+x,1/2-y,1/2+z
1/2-y,1/2-x,1/2+z
1/2+y,1/2+x,1/2+z
loop_
_atom_site_type_symbol
_atom_site_label
_atom_site_fract_x
_atom_site_fract_y
_atom_site_fract_z
Si Si1 0.952052 0.917794 0.500000
Si Si2 0.435111 0.146082 0.838585
Si Si3 0.556595 0.724662 0.834720
Si Si4 0.080413 0.050069 0.000000
Si Si5 0.377940 0.381632 0.748991
Si Si6 0.847627 0.568628 0.832778
Si Si7 0.442468 0.732086 0.333124
O O1 0.932769 0.882905 0.637279
O O2 0.020403 0.921249 0.500000
O O3 0.398665 0.101336 0.750000
O O4 0.420934 0.211741 0.792721
O O5 0.502507 0.133638 0.815698
O O6 0.416663 0.135793 0.000000
O O7 0.611242 0.681526 0.816682
O O8 0.502337 0.708727 0.734094
O O9 0.535478 0.724129 0.000000
O O10 0.113962 0.070087 0.861822
O O11 0.018104 0.079331 0.000000
O O12 0.315579 0.391144 0.677805
O O13 0.894770 0.605231 0.750000
O O14 0.786696 0.579771 0.756096
O O15 0.843289 0.586034 0.000000
O O16 0.451916 0.747183 0.500000
#
# Coordination Sequence:
#
# PCOD8314748 Si02
#       7
#     8  16  16   8  16  16  16
#     4  11  22  34  52  78 105 148 202 254 313 364
#     4   9  20  39  62  92 122 153 188 234 288 348
#     4  10  22  39  59  82 115 158 205 249 297 353
#     4  11  22  36  50  74 113 148 190 258 317 358
#     4  12  23  35  55  79 114 156 203 250 302 359
#     4  10  22  41  66  94 126 155 191 236 289 352
#     4  11  23  38  59  85 117 158 205 249 301 357
#
# _framework density 19.058831999999999
#
# number of rings (size 3 to 8) (size 9 to 14) (size 15 to 20)
#    0.000    1.500    1.667    5.000    3.500    5.000 
#    0.000    2.500    0.000    2.000    0.000    0.000 
#    0.000    0.000    0.000    0.000    0.000    0.000 
#
# Total GULP energy -1190369.645652 kJ/mol
# GULP energy per Si atom -12399.683809 kJ/mol
# Density = 1.901545 g / cm^3
# Si number density = 19.058832 Si / 1000 Ang^3
#
#
#
# Elastic Constant Matrix: (Units=GPa)
#
#
# Indices 1 2 3 4 5 6 
#
# 1 105.7370 31.5958 40.0567 0.0000 0.0000 0.0000
# 2 31.5958 105.7639 40.0600 0.0000 0.0000 0.0000
# 3 40.0567 40.0600 127.2511 0.0000 0.0000 0.0000
# 4 0.0000 0.0000 0.0000 34.1004 0.0000 0.0000
# 5 0.0000 0.0000 0.0000 0.0000 34.1003 0.0000
# 6 0.0000 0.0000 0.0000 0.0000 0.0000 -8.9485
#
#
#
# Elastic Compliance Matrix: (Units=1/GPa)
#
#
# Indices 1 2 3 4 5 6 
#
# 1 0.011203 -0.002283 -0.002808 0.000000 0.000000 0.000000
# 2 -0.002283 0.011200 -0.002807 0.000000 0.000000 0.000000
# 3 -0.002808 -0.002807 0.009626 0.000000 0.000000 0.000000
# 4 0.000000 0.000000 0.000000 0.029325 0.000000 0.000000
# 5 0.000000 0.000000 0.000000 0.000000 0.029325 0.000000
# 6 0.000000 0.000000 0.000000 0.000000 0.000000 -0.111750
#
#
# Mechanical properties :
#
#
# Convention : Reuss Voigt Hill
#
# Bulk Modulus (GPa) = 61.60274 62.46413 62.03344
# Shear Modulus (GPa) = 36115.70603 26.98639 18071.34621
#
# Velocity S-wave (km/s) = 137.80685 3.76700 97.48056
# Velocity P-wave (km/s) = 159.22740 7.19485 112.70566
#
# Compressibility (1/GPa) = 0.01623304
#
# Stress axis : x y z
#
# Youngs Moduli (GPa) = 89.25829 89.28212 103.88433
#
# Poissons Ratio (x) = 0.20387 0.29169
# Poissons Ratio (y) = 0.20381 0.29163
# Poissons Ratio (z) = 0.25062 0.25064
#
# Static dielectric constant tensor:
#      x y z
#    x 3.353110 0.000000 0.000000 
#    y 0.000000 3.353120 0.000000 
#    z 0.000000 0.000000 3.633570 
# 
# 
# High freq. dielectric constant tensor:
#      x y z
#    x 1.728450 0.000000 0.000000 
#    y 0.000000 1.728450 0.000000 
#    z 0.000000 0.000000 1.759770 
# 
# From -- ./inp_files/1539.got.cif
#   From: 2010.03.12/outbox.cif.g09.slc.cpg/sg128_1_cif.got.tgz:1539.got - 2010.04.06 17:11:05.
