data_PCOD8314143
_publ_section_title
;
Structure prediction by ZEFSAII (Michael W. Deem and Ramdas Pophale) SiO2 
 PCOD8314143
Probable space group: P 4/M B M
;
_chemical_formula_sum "Si O2"
_cell_formula_units_Z 120
_cell_length_a 14.113025
_cell_length_b 14.113025
_cell_length_c 32.048472
_cell_angle_alpha 90.000000
_cell_angle_beta 90.000000
_cell_angle_gamma 90.000000
_cell_volume 6383.333719
_symmetry_space_group_name_H-M "P 4/M B M"
_symmetry_group_IT_number 127
_symmetry_cell_setting 'tetragonal'
loop_
_space_group_symop_operation_xyz
x,y,z
-y,x,z
-x,-y,z
y,-x,z
1/2+x,1/2-y,-z
1/2-x,1/2+y,-z
1/2+y,1/2+x,-z
1/2-y,1/2-x,-z
-x,-y,-z
y,-x,-z
x,y,-z
-y,x,-z
1/2-x,1/2+y,z
1/2+x,1/2-y,z
1/2-y,1/2-x,z
1/2+y,1/2+x,z
loop_
_atom_site_type_symbol
_atom_site_label
_atom_site_fract_x
_atom_site_fract_y
_atom_site_fract_z
Si Si1 0.291321 0.637667 0.084830
Si Si2 0.649168 0.001989 0.115630
Si Si3 0.364117 0.426776 0.748952
Si Si4 0.549433 0.647891 0.546897
Si Si5 0.240441 0.894393 0.668169
Si Si6 0.245448 0.097998 0.627849
Si Si7 0.370508 0.718187 0.163898
Si Si8 0.611720 0.393540 0.000000
O O1 0.231756 0.731756 0.088914
O O2 0.225398 0.543339 0.083649
O O3 0.360041 0.642379 0.125475
O O4 0.346584 0.649574 0.041993
O O5 0.583630 0.083630 0.093533
O O6 0.704908 0.048035 0.153984
O O7 0.581646 0.918354 0.133366
O O8 0.462068 0.373713 0.740414
O O9 0.284247 0.389716 0.717306
O O10 0.337725 0.404784 0.796222
O O11 0.441361 0.617629 0.554247
O O12 0.562801 0.687352 0.500000
O O13 0.575875 0.731284 0.578876
O O14 0.336772 0.836772 0.660385
O O15 0.153091 0.847829 0.643377
O O16 0.257407 0.001275 0.653361
O O17 0.339632 0.160369 0.634352
O O18 0.271132 0.771132 0.173053
O O19 0.632502 0.503390 0.000000
#
# Coordination Sequence:
#
# PCOD8314143 Si02
#       8
#    16  16  16  16  16  16  16   8
#     4  10  20  36  57  79 106 139 178 223 271 329
#     4   9  18  34  55  78 105 140 179 218 269 330
#     4  11  22  36  57  84 112 147 193 241 288 345
#     4   9  17  31  56  89 121 156 203 258 307 354
#     4  11  23  40  60  86 118 153 200 251 299 363
#     4  11  22  37  62  88 116 164 205 244 307 361
#     4  10  20  35  56  82 112 145 179 225 281 336
#     4  11  23  36  52  75 105 139 176 219 270 329
#
# _framework density 18.798956
#
# number of rings (size 3 to 8) (size 9 to 14) (size 15 to 20)
#    0.000    1.800    2.667    2.600    0.000    0.800 
#    0.000    3.667    0.000    3.600    0.000    0.933 
#    0.000    0.000    0.000    0.000    0.000    0.000 
#
# Total GULP energy -1487659.533601 kJ/mol
# GULP energy per Si atom -12397.162780 kJ/mol
# Density = 1.875617 g / cm^3
# Si number density = 18.798956 Si / 1000 Ang^3
#
#
#
# Elastic Constant Matrix: (Units=GPa)
#
#
# Indices 1 2 3 4 5 6 
#
# 1 21.5119 98.9992 37.3825 0.0000 0.0000 0.0000
# 2 98.9992 21.5119 37.3825 0.0000 0.0000 0.0000
# 3 37.3825 37.3825 130.9105 0.0000 0.0000 0.0000
# 4 0.0000 0.0000 0.0000 27.3575 0.0000 0.0000
# 5 0.0000 0.0000 0.0000 0.0000 27.3575 0.0000
# 6 0.0000 0.0000 0.0000 0.0000 0.0000 -35.3935
#
#
#
# Elastic Compliance Matrix: (Units=1/GPa)
#
#
# Indices 1 2 3 4 5 6 
#
# 1 -0.001410 0.011495 -0.002880 0.000000 0.000000 0.000000
# 2 0.011495 -0.001410 -0.002880 0.000000 0.000000 0.000000
# 3 -0.002880 -0.002880 0.009283 0.000000 0.000000 0.000000
# 4 0.000000 0.000000 0.000000 0.036553 0.000000 0.000000
# 5 0.000000 0.000000 0.000000 0.000000 0.036553 0.000000
# 6 0.000000 0.000000 0.000000 0.000000 0.000000 -0.028254
#
#
# Mechanical properties :
#
#
# Convention : Reuss Voigt Hill
#
# Bulk Modulus (GPa) = 55.76094 57.94029 56.85061
# Shear Modulus (GPa) = 109.11807 3.87565 56.49686
#
# Velocity S-wave (km/s) = 7.62698 1.43740 5.48803
# Velocity P-wave (km/s) = 10.35795 5.80024 8.39434
#
# Compressibility (1/GPa) = 0.01793370
#
# Stress axis : x y z
#
# Youngs Moduli (GPa) = -709.02285 -709.02285 107.71850
#
# Poissons Ratio (x) = 8.15019 0.31020
# Poissons Ratio (y) = 8.15019 0.31020
# Poissons Ratio (z) = -2.04179 -2.04179
#
# Static dielectric constant tensor:
#      x y z
#    x 3.448150 0.000000 0.000000 
#    y 0.000000 3.448150 0.000000 
#    z 0.000000 0.000000 2.455280 
# 
# 
# High freq. dielectric constant tensor:
#      x y z
#    x 1.728680 0.000000 0.000000 
#    y 0.000000 1.728680 0.000000 
#    z 0.000000 0.000000 1.723790 
# 
# From -- ./inp_files/6694.got.cif
#   From: 2010.03.12/outbox.cif.g09.slc.cpg/sg127_4_cif.got.tgz:6694.got - 2010.04.06 17:03:15.
