data_PCOD8314331
_publ_section_title
;
Structure prediction by ZEFSAII (Michael W. Deem and Ramdas Pophale) SiO2 
 PCOD8314331
Probable space group: P 4/M B M
;
_chemical_formula_sum "Si O2"
_cell_formula_units_Z 88
_cell_length_a 14.225096
_cell_length_b 14.225096
_cell_length_c 22.487659
_cell_angle_alpha 90.000000
_cell_angle_beta 90.000000
_cell_angle_gamma 90.000000
_cell_volume 4550.453272
_symmetry_space_group_name_H-M "P 4/M B M"
_symmetry_group_IT_number 127
_symmetry_cell_setting 'tetragonal'
loop_
_space_group_symop_operation_xyz
x,y,z
-y,x,z
-x,-y,z
y,-x,z
1/2+x,1/2-y,-z
1/2-x,1/2+y,-z
1/2+y,1/2+x,-z
1/2-y,1/2-x,-z
-x,-y,-z
y,-x,-z
x,y,-z
-y,x,-z
1/2-x,1/2+y,z
1/2+x,1/2-y,z
1/2-y,1/2-x,z
1/2+y,1/2+x,z
loop_
_atom_site_type_symbol
_atom_site_label
_atom_site_fract_x
_atom_site_fract_y
_atom_site_fract_z
Si Si1 0.571020 0.071020 0.569653
Si Si2 0.406685 0.754011 0.069171
Si Si3 0.417122 0.367646 0.243060
Si Si4 0.508057 0.272269 0.430596
Si Si5 0.833459 0.179704 0.634203
Si Si6 0.267035 0.612502 0.122076
O O1 0.559601 0.059601 0.500000
O O2 0.674181 0.049056 0.589674
O O3 0.500000 0.000000 0.602486
O O4 0.344444 0.844444 0.089678
O O5 0.346949 0.658960 0.080323
O O6 0.504763 0.752022 0.104338
O O7 0.430565 0.760657 0.000000
O O8 0.529406 0.371739 0.240769
O O9 0.380262 0.314525 0.301335
O O10 0.380803 0.305334 0.188786
O O11 0.521827 0.296715 0.500000
O O12 0.399229 0.269001 0.413849
O O13 0.571655 0.338705 0.388896
O O14 0.732287 0.232287 0.633500
O O15 0.169440 0.669440 0.116711
#
# Coordination Sequence:
#
# PCOD8314331 Si02
#       6
#     8  16  16  16  16  16
#     4   9  18  36  58  82 114 153 195 233 284 360
#     4  10  22  39  62  97 135 169 209 255 307 369
#     4  11  22  41  65  88 117 159 208 260 313 361
#     4  11  23  38  60  89 121 156 194 245 309 374
#     4  12  24  41  63  88 121 159 204 255 310 372
#     4  11  22  40  65  91 126 169 211 257 310 364
#
# _framework density 19.338730999999999
#
# number of rings (size 3 to 8) (size 9 to 14) (size 15 to 20)
#    0.000    1.182    4.545    2.182    0.000    4.000 
#    0.000    2.727    2.000    0.000    0.000    0.000 
#    0.000    0.000    0.000    0.000    0.000    0.000 
#
# Total GULP energy -1090879.090449 kJ/mol
# GULP energy per Si atom -12396.353301 kJ/mol
# Density = 1.929472 g / cm^3
# Si number density = 19.338731 Si / 1000 Ang^3
#
#
#
# Elastic Constant Matrix: (Units=GPa)
#
#
# Indices 1 2 3 4 5 6 
#
# 1 94.2039 32.0450 33.7604 0.0000 0.0000 0.0000
# 2 32.0450 94.2039 33.7604 0.0000 0.0000 0.0000
# 3 33.7604 33.7604 102.3972 0.0000 0.0000 0.0000
# 4 0.0000 0.0000 0.0000 28.1984 0.0000 0.0000
# 5 0.0000 0.0000 0.0000 0.0000 28.1984 0.0000
# 6 0.0000 0.0000 0.0000 0.0000 0.0000 27.8493
#
#
#
# Elastic Compliance Matrix: (Units=1/GPa)
#
#
# Indices 1 2 3 4 5 6 
#
# 1 0.012852 -0.003236 -0.003171 0.000000 0.000000 0.000000
# 2 -0.003236 0.012852 -0.003171 0.000000 0.000000 0.000000
# 3 -0.003171 -0.003171 0.011857 0.000000 0.000000 0.000000
# 4 0.000000 0.000000 0.000000 0.035463 0.000000 0.000000
# 5 0.000000 0.000000 0.000000 0.000000 0.035463 0.000000
# 6 0.000000 0.000000 0.000000 0.000000 0.000000 0.035908
#
#
# Mechanical properties :
#
#
# Convention : Reuss Voigt Hill
#
# Bulk Modulus (GPa) = 54.32609 54.43741 54.38175
# Shear Modulus (GPa) = 29.46655 29.59849 29.53252
#
# Velocity S-wave (km/s) = 3.90770 3.91644 3.91207
# Velocity P-wave (km/s) = 6.96513 6.97581 6.97047
#
# Compressibility (1/GPa) = 0.01840736
#
# Stress axis : x y z
#
# Youngs Moduli (GPa) = 77.80777 77.80777 84.34136
#
# Poissons Ratio (x) = 0.25176 0.26741
# Poissons Ratio (y) = 0.25176 0.26741
# Poissons Ratio (z) = 0.24670 0.24670
#
# Static dielectric constant tensor:
#      x y z
#    x 3.586580 0.000000 0.000000 
#    y 0.000000 3.586580 0.000000 
#    z 0.000000 0.000000 3.458020 
# 
# 
# High freq. dielectric constant tensor:
#      x y z
#    x 1.757080 0.000000 0.000000 
#    y 0.000000 1.757080 0.000000 
#    z 0.000000 0.000000 1.751630 
# 
# From -- ./inp_files/5679.got.cif
#   From: 2010.03.12/outbox.cif.g09.slc.cpg/sg127_3_cif.got.tgz:5679.got - 2010.04.06 17:03:15.
