data_PCOD8314253
_publ_section_title
;
Structure prediction by ZEFSAII (Michael W. Deem and Ramdas Pophale) SiO2 
 PCOD8314253
Probable space group: P 4/M B M
;
_chemical_formula_sum "Si O2"
_cell_formula_units_Z 96
_cell_length_a 14.914740
_cell_length_b 14.914740
_cell_length_c 20.836439
_cell_angle_alpha 90.000000
_cell_angle_beta 90.000000
_cell_angle_gamma 90.000000
_cell_volume 4635.054797
_symmetry_space_group_name_H-M "P 4/M B M"
_symmetry_group_IT_number 127
_symmetry_cell_setting 'tetragonal'
loop_
_space_group_symop_operation_xyz
x,y,z
-y,x,z
-x,-y,z
y,-x,z
1/2+x,1/2-y,-z
1/2-x,1/2+y,-z
1/2+y,1/2+x,-z
1/2-y,1/2-x,-z
-x,-y,-z
y,-x,-z
x,y,-z
-y,x,-z
1/2-x,1/2+y,z
1/2+x,1/2-y,z
1/2-y,1/2-x,z
1/2+y,1/2+x,z
loop_
_atom_site_type_symbol
_atom_site_label
_atom_site_fract_x
_atom_site_fract_y
_atom_site_fract_z
Si Si1 0.642970 0.004635 0.382605
Si Si2 0.495182 0.142834 0.234810
Si Si3 0.102744 0.105874 0.688270
Si Si4 0.372883 0.276563 0.428552
Si Si5 0.384062 0.409159 0.071844
Si Si6 0.723510 0.627727 0.807749
O O1 0.561762 0.938239 0.396334
O O2 0.672302 0.000184 0.308664
O O3 0.729929 0.971772 0.422113
O O4 0.605407 0.105407 0.400286
O O5 0.394255 0.105746 0.217199
O O6 0.528642 0.229476 0.194897
O O7 0.561374 0.061374 0.221523
O O8 0.145357 0.145669 0.623074
O O9 0.143746 0.150493 0.751985
O O10 0.998192 0.125301 0.689077
O O11 0.366495 0.318022 0.500000
O O12 0.298391 0.201610 0.416511
O O13 0.484938 0.377040 0.082711
O O14 0.321531 0.359790 0.123046
O O15 0.351868 0.383994 0.000000
O O16 0.797303 0.702698 0.797353
#
# Coordination Sequence:
#
# PCOD8314253 Si02
#       6
#    16  16  16  16  16  16
#     4   8  14  27  49  77 109 142 176 221 282 350
#     4   8  15  29  50  79 115 149 177 212 269 340
#     4  11  24  41  59  78 105 146 197 243 281 333
#     4  10  21  37  57  81 110 143 182 235 297 355
#     4   9  19  38  61  82 111 154 197 232 269 319
#     4  11  21  34  59  91 119 146 181 233 290 340
#
# _framework density 20.711728999999998
#
# number of rings (size 3 to 8) (size 9 to 14) (size 15 to 20)
#    0.000    2.500    0.000    4.000    0.000    2.667 
#    0.000    8.333    0.000    1.500    0.000    2.333 
#    0.000    0.000    0.000    0.000    0.000    0.000 
#
# Total GULP energy -1189668.183497 kJ/mol
# GULP energy per Si atom -12392.376911 kJ/mol
# Density = 2.066459 g / cm^3
# Si number density = 20.711729 Si / 1000 Ang^3
#
#
#
# Elastic Constant Matrix: (Units=GPa)
#
#
# Indices 1 2 3 4 5 6 
#
# 1 77.6993 27.4028 53.0696 0.0000 0.0000 0.0000
# 2 27.4028 77.6993 53.0696 0.0000 0.0000 0.0000
# 3 53.0696 53.0696 143.7857 0.0000 0.0000 0.0000
# 4 0.0000 0.0000 0.0000 42.6225 0.0000 0.0000
# 5 0.0000 0.0000 0.0000 0.0000 42.6225 0.0000
# 6 0.0000 0.0000 0.0000 0.0000 0.0000 13.1704
#
#
#
# Elastic Compliance Matrix: (Units=1/GPa)
#
#
# Indices 1 2 3 4 5 6 
#
# 1 0.017525 -0.002357 -0.005598 0.000000 0.000000 0.000000
# 2 -0.002357 0.017525 -0.005598 0.000000 0.000000 0.000000
# 3 -0.005598 -0.005598 0.011087 0.000000 0.000000 0.000000
# 4 0.000000 0.000000 0.000000 0.023462 0.000000 0.000000
# 5 0.000000 0.000000 0.000000 0.000000 0.023462 0.000000
# 6 0.000000 0.000000 0.000000 0.000000 0.000000 0.075928
#
#
# Mechanical properties :
#
#
# Convention : Reuss Voigt Hill
#
# Bulk Modulus (GPa) = 52.54805 62.91869 57.73337
# Shear Modulus (GPa) = 24.69866 30.72590 27.71228
#
# Velocity S-wave (km/s) = 3.45700 3.85580 3.66184
# Velocity P-wave (km/s) = 6.43123 7.08994 6.76860
#
# Compressibility (1/GPa) = 0.01903020
#
# Stress axis : x y z
#
# Youngs Moduli (GPa) = 57.06084 57.06084 90.19250
#
# Poissons Ratio (x) = 0.13449 0.50493
# Poissons Ratio (y) = 0.13449 0.50493
# Poissons Ratio (z) = 0.31945 0.31945
#
# Static dielectric constant tensor:
#      x y z
#    x 3.952030 0.000000 0.000000 
#    y 0.000000 3.952030 0.000000 
#    z 0.000000 0.000000 3.593870 
# 
# 
# High freq. dielectric constant tensor:
#      x y z
#    x 1.803850 0.000000 0.000000 
#    y 0.000000 1.803850 0.000000 
#    z 0.000000 0.000000 1.788070 
# 
# From -- ./inp_files/5760.got.cif
#   From: 2010.03.12/outbox.cif.g09.slc.cpg/sg127_3_cif.got.tgz:5760.got - 2010.04.06 17:03:15.
