data_PCOD8314410
_publ_section_title
;
Structure prediction by ZEFSAII (Michael W. Deem and Ramdas Pophale) SiO2 
 PCOD8314410
Probable space group: P 4/M B M
;
_chemical_formula_sum "Si O2"
_cell_formula_units_Z 96
_cell_length_a 21.353219
_cell_length_b 21.353219
_cell_length_c 11.329353
_cell_angle_alpha 90.000000
_cell_angle_beta 90.000000
_cell_angle_gamma 90.000000
_cell_volume 5165.731360
_symmetry_space_group_name_H-M "P 4/M B M"
_symmetry_group_IT_number 127
_symmetry_cell_setting 'tetragonal'
loop_
_space_group_symop_operation_xyz
x,y,z
-y,x,z
-x,-y,z
y,-x,z
1/2+x,1/2-y,-z
1/2-x,1/2+y,-z
1/2+y,1/2+x,-z
1/2-y,1/2-x,-z
-x,-y,-z
y,-x,-z
x,y,-z
-y,x,-z
1/2-x,1/2+y,z
1/2+x,1/2-y,z
1/2-y,1/2-x,z
1/2+y,1/2+x,z
loop_
_atom_site_type_symbol
_atom_site_label
_atom_site_fract_x
_atom_site_fract_y
_atom_site_fract_z
Si Si1 0.611797 0.332872 0.500000
Si Si2 0.833304 0.431178 0.139996
Si Si3 0.036130 0.910125 0.760139
Si Si4 0.877906 0.971340 0.500000
Si Si5 0.236840 0.839808 0.271045
Si Si6 0.071187 0.327588 0.864106
Si Si7 0.198776 0.115466 0.139198
O O1 0.649975 0.399384 0.500000
O O2 0.534737 0.335849 0.500000
O O3 0.632672 0.294819 0.613612
O O4 0.890335 0.390335 0.193573
O O5 0.837853 0.501825 0.188077
O O6 0.768712 0.399836 0.180784
O O7 0.837895 0.431474 0.000000
O O8 0.030749 0.918248 0.618954
O O9 0.063071 0.844096 0.799447
O O10 0.965548 0.919080 0.809826
O O11 0.282710 0.782710 0.303915
O O12 0.273783 0.895968 0.210175
O O13 0.185330 0.816425 0.178752
O O14 0.106823 0.393178 0.851030
O O15 0.069281 0.305465 0.000000
O O16 0.189897 0.110101 0.000000
#
# Coordination Sequence:
#
# PCOD8314410 Si02
#       7
#     8  16  16   8  16  16  16
#     4  12  25  37  58  86 108 148 194 242 287 330
#     4   9  19  34  53  80 113 146 183 228 281 344
#     4  11  22  37  56  81 114 153 196 239 283 331
#     4  12  20  37  58  82 108 143 193 235 280 334
#     4  11  23  40  58  81 114 148 189 239 289 347
#     4   9  19  35  58  85 111 145 186 230 287 351
#     4  11  23  36  56  83 114 154 192 230 284 349
#
# _framework density 18.584008999999998
#
# number of rings (size 3 to 8) (size 9 to 14) (size 15 to 20)
#    0.000    1.500    3.333    1.250    4.667    3.500 
#    0.000    2.500    0.000    0.000    0.000    0.583 
#    0.000    2.667    0.000    0.000    0.000    0.000 
#
# Total GULP energy -1189761.077786 kJ/mol
# GULP energy per Si atom -12393.344560 kJ/mol
# Density = 1.854171 g / cm^3
# Si number density = 18.584009 Si / 1000 Ang^3
#
#
#
# Elastic Constant Matrix: (Units=GPa)
#
#
# Indices 1 2 3 4 5 6 
#
# 1 131.5521 63.8313 41.1661 0.0000 0.0000 0.0000
# 2 63.8313 131.5521 41.1661 0.0000 0.0000 0.0000
# 3 41.1661 41.1661 67.2157 0.0000 0.0000 0.0000
# 4 0.0000 0.0000 0.0000 20.6340 0.0000 0.0000
# 5 0.0000 0.0000 0.0000 0.0000 20.6340 0.0000
# 6 0.0000 0.0000 0.0000 0.0000 0.0000 29.7738
#
#
#
# Elastic Compliance Matrix: (Units=1/GPa)
#
#
# Indices 1 2 3 4 5 6 
#
# 1 0.010832 -0.003934 -0.004225 0.000000 0.000000 0.000000
# 2 -0.003934 0.010832 -0.004225 0.000000 0.000000 0.000000
# 3 -0.004225 -0.004225 0.020053 0.000000 0.000000 0.000000
# 4 0.000000 0.000000 0.000000 0.048464 0.000000 0.000000
# 5 0.000000 0.000000 0.000000 0.000000 0.048464 0.000000
# 6 0.000000 0.000000 0.000000 0.000000 0.000000 0.033587
#
#
# Mechanical properties :
#
#
# Convention : Reuss Voigt Hill
#
# Bulk Modulus (GPa) = 58.99793 69.18297 64.09045
# Shear Modulus (GPa) = 24.67315 26.48545 25.57930
#
# Velocity S-wave (km/s) = 3.64765 3.77924 3.71403
# Velocity P-wave (km/s) = 7.03960 7.50677 7.27694
#
# Compressibility (1/GPa) = 0.01694975
#
# Stress axis : x y z
#
# Youngs Moduli (GPa) = 92.31480 92.31480 49.86880
#
# Poissons Ratio (x) = 0.36317 0.21069
# Poissons Ratio (y) = 0.36317 0.21069
# Poissons Ratio (z) = 0.39003 0.39003
#
# Static dielectric constant tensor:
#      x y z
#    x 3.598590 0.000000 0.000000 
#    y 0.000000 3.598590 0.000000 
#    z 0.000000 0.000000 3.250660 
# 
# 
# High freq. dielectric constant tensor:
#      x y z
#    x 1.729060 0.000000 0.000000 
#    y 0.000000 1.729060 0.000000 
#    z 0.000000 0.000000 1.697760 
# 
# From -- ./inp_files/3618.got.cif
#   From: 2010.03.12/outbox.cif.g09.slc.cpg/sg127_2_cif.got.tgz:3618.got - 2010.04.06 17:03:15.
