data_PCOD8314845
_publ_section_title
;
Structure prediction by ZEFSAII (Michael W. Deem and Ramdas Pophale) SiO2 
 PCOD8314845
Probable space group: P 4/M N C
;
_chemical_formula_sum "Si O2"
_cell_formula_units_Z 64
_cell_length_a 9.762440
_cell_length_b 9.762440
_cell_length_c 28.062566
_cell_angle_alpha 90.000000
_cell_angle_beta 90.000000
_cell_angle_gamma 90.000000
_cell_volume 2674.509440
_symmetry_space_group_name_H-M "P 4/M N C"
_symmetry_group_IT_number 128
_symmetry_cell_setting 'tetragonal'
loop_
_space_group_symop_operation_xyz
x,y,z
-y,x,z
-x,-y,z
y,-x,z
1/2+x,1/2-y,1/2-z
1/2-x,1/2+y,1/2-z
1/2+y,1/2+x,1/2-z
1/2-y,1/2-x,1/2-z
-x,-y,-z
y,-x,-z
x,y,-z
-y,x,-z
1/2-x,1/2+y,1/2+z
1/2+x,1/2-y,1/2+z
1/2-y,1/2-x,1/2+z
1/2+y,1/2+x,1/2+z
loop_
_atom_site_type_symbol
_atom_site_label
_atom_site_fract_x
_atom_site_fract_y
_atom_site_fract_z
Si Si1 0.366819 0.061639 0.629926
Si Si2 0.055023 0.218941 0.448378
Si Si3 0.103038 0.798148 0.720791
Si Si4 0.282242 0.558742 0.447343
O O1 0.321712 0.933349 0.595916
O O2 0.247352 0.110547 0.665625
O O3 0.409149 0.184105 0.595945
O O4 0.500000 0.000000 0.657726
O O5 0.073865 0.291183 0.500000
O O6 0.163353 0.099416 0.443589
O O7 0.174995 0.674995 0.750000
O O8 0.940552 0.817749 0.731909
O O9 0.333810 0.404775 0.442594
O O10 0.214275 0.578976 0.500000
#
# Coordination Sequence:
#
# PCOD8314845 Si02
#       4
#    16  16  16  16
#     4  12  26  38  67 105 139 180 238 302 366 446
#     4   9  19  37  60  89 134 188 236 289 358 430
#     4  11  29  54  84 113 149 191 242 312 388 470
#     4   9  21  41  61  90 140 197 247 298 355 420
#
# _framework density 23.92962
#
# number of rings (size 3 to 8) (size 9 to 14) (size 15 to 20)
#    0.000    1.750    0.000    3.750   10.500    4.000 
#    0.000    2.500    0.000    0.000    0.000    0.000 
#    0.000    0.000    0.000    0.000    0.000    0.000 
#
# Total GULP energy -792902.200231 kJ/mol
# GULP energy per Si atom -12389.096879 kJ/mol
# Density = 2.387515 g / cm^3
# Si number density = 23.929620 Si / 1000 Ang^3
#
#
#
# Elastic Constant Matrix: (Units=GPa)
#
#
# Indices 1 2 3 4 5 6 
#
# 1 107.0251 33.2889 37.9629 0.0000 0.0000 0.0000
# 2 33.2889 107.0251 37.9629 0.0000 0.0000 0.0000
# 3 37.9629 37.9629 107.0325 0.0000 0.0000 0.0000
# 4 0.0000 0.0000 0.0000 -32.0136 0.0000 0.0000
# 5 0.0000 0.0000 0.0000 0.0000 -32.0136 0.0000
# 6 0.0000 0.0000 0.0000 0.0000 0.0000 51.4851
#
#
#
# Elastic Compliance Matrix: (Units=1/GPa)
#
#
# Indices 1 2 3 4 5 6 
#
# 1 0.011191 -0.002371 -0.003128 0.000000 0.000000 0.000000
# 2 -0.002371 0.011191 -0.003128 0.000000 0.000000 0.000000
# 3 -0.003128 -0.003128 0.011562 0.000000 0.000000 0.000000
# 4 0.000000 0.000000 0.000000 -0.031237 0.000000 0.000000
# 5 0.000000 0.000000 0.000000 0.000000 -0.031237 0.000000
# 6 0.000000 0.000000 0.000000 0.000000 0.000000 0.019423
#
#
# Mechanical properties :
#
#
# Convention : Reuss Voigt Hill
#
# Bulk Modulus (GPa) = 59.92175 59.94580 59.93377
# Shear Modulus (GPa) = 364.67214 11.61610 188.14412
#
# Velocity S-wave (km/s) = 12.35817 2.20563 8.87663
# Velocity P-wave (km/s) = 15.12375 5.62065 11.40876
#
# Compressibility (1/GPa) = 0.01668843
#
# Stress axis : x y z
#
# Youngs Moduli (GPa) = 89.35978 89.35978 86.49029
#
# Poissons Ratio (x) = 0.21189 0.27056
# Poissons Ratio (y) = 0.21189 0.27056
# Poissons Ratio (z) = 0.27953 0.27953
#
# Static dielectric constant tensor:
#      x y z
#    x 4.577130 0.000000 0.000000 
#    y 0.000000 4.577130 0.000000 
#    z 0.000000 0.000000 4.124030 
# 
# 
# High freq. dielectric constant tensor:
#      x y z
#    x 1.963420 0.000000 0.000000 
#    y 0.000000 1.963420 0.000000 
#    z 0.000000 0.000000 1.925690 
# 
# From -- ./inp_files/6711.got.cif
#   From: 2010.03.12/outbox.cif.g09.slc.cpg/sg128_4_cif.got.tgz:6711.got - 2010.04.06 17:11:05.
