data_PCOD8314484
_publ_section_title
;
Structure prediction by ZEFSAII (Michael W. Deem and Ramdas Pophale) SiO2 
 PCOD8314484
Probable space group: P 4/M N C
;
_chemical_formula_sum "Si O2"
_cell_formula_units_Z 112
_cell_length_a 21.000146
_cell_length_b 21.000146
_cell_length_c 16.787523
_cell_angle_alpha 90.000000
_cell_angle_beta 90.000000
_cell_angle_gamma 90.000000
_cell_volume 7403.400584
_symmetry_space_group_name_H-M "P 4/M N C"
_symmetry_group_IT_number 128
_symmetry_cell_setting 'tetragonal'
loop_
_space_group_symop_operation_xyz
x,y,z
-y,x,z
-x,-y,z
y,-x,z
1/2+x,1/2-y,1/2-z
1/2-x,1/2+y,1/2-z
1/2+y,1/2+x,1/2-z
1/2-y,1/2-x,1/2-z
-x,-y,-z
y,-x,-z
x,y,-z
-y,x,-z
1/2-x,1/2+y,1/2+z
1/2+x,1/2-y,1/2+z
1/2-y,1/2-x,1/2+z
1/2+y,1/2+x,1/2+z
loop_
_atom_site_type_symbol
_atom_site_label
_atom_site_fract_x
_atom_site_fract_y
_atom_site_fract_z
Si Si1 0.728779 0.846529 0.692000
Si Si2 0.919687 0.059300 0.758513
Si Si3 0.224917 0.260755 0.910211
Si Si4 0.263013 0.392520 0.872239
Si Si5 0.755913 0.961996 0.409984
Si Si6 0.648742 0.311968 0.285655
Si Si7 0.893051 0.905247 0.412319
O O1 0.668899 0.831102 0.750000
O O2 0.737775 0.791638 0.626445
O O3 0.717777 0.914885 0.649673
O O4 0.791578 0.848058 0.746321
O O5 0.866611 0.098141 0.806264
O O6 0.915525 0.059351 0.661374
O O7 0.986878 0.087851 0.785621
O O8 0.216228 0.337762 0.906487
O O9 0.166822 0.228154 0.863043
O O10 0.220912 0.236246 0.000000
O O11 0.240436 0.464059 0.891944
O O12 0.264186 0.384408 0.776895
O O13 0.330942 0.374632 0.911466
O O14 0.734262 0.946948 0.500000
O O15 0.831011 0.949120 0.399874
O O16 0.923573 0.920376 0.500000
#
# Coordination Sequence:
#
# PCOD8314484 Si02
#       7
#    16  16  16  16  16  16  16
#     4   9  17  28  42  63  89 121 155 187 226 269
#     4  10  19  29  41  59  85 122 162 189 218 263
#     4  10  17  30  47  65  86 115 154 201 236 268
#     4  10  18  27  41  64  93 123 154 184 224 270
#     4  11  18  25  41  65  93 127 157 188 223 265
#     4   9  18  29  45  61  88 121 159 188 230 264
#     4  10  17  24  35  55  89 127 159 186 209 245
#
# _framework density 15.128183
#
# number of rings (size 3 to 8) (size 9 to 14) (size 15 to 20)
#    0.000    2.143    4.286    4.714    0.000    1.714 
#    0.000    0.714    0.000    0.857    0.000    1.000 
#    0.000    2.286    0.000    6.714    1.429    0.143 
#
# Total GULP energy -1387936.251541 kJ/mol
# GULP energy per Si atom -12392.287960 kJ/mol
# Density = 1.509375 g / cm^3
# Si number density = 15.128183 Si / 1000 Ang^3
#
#
#
# Elastic Constant Matrix: (Units=GPa)
#
#
# Indices 1 2 3 4 5 6 
#
# 1 62.8646 30.4542 35.3686 0.0000 0.0000 0.0000
# 2 30.4542 62.8642 35.3682 0.0000 0.0000 0.0000
# 3 35.3686 35.3682 78.3162 0.0000 0.0000 0.0000
# 4 0.0000 0.0000 0.0000 13.6443 0.0000 0.0000
# 5 0.0000 0.0000 0.0000 0.0000 13.6444 0.0000
# 6 0.0000 0.0000 0.0000 0.0000 0.0000 23.4563
#
#
#
# Elastic Compliance Matrix: (Units=1/GPa)
#
#
# Indices 1 2 3 4 5 6 
#
# 1 0.023574 -0.007280 -0.007358 0.000000 0.000000 0.000000
# 2 -0.007280 0.023574 -0.007358 0.000000 0.000000 0.000000
# 3 -0.007358 -0.007358 0.019415 0.000000 0.000000 0.000000
# 4 0.000000 0.000000 0.000000 0.073291 0.000000 0.000000
# 5 0.000000 0.000000 0.000000 0.000000 0.073290 0.000000
# 6 0.000000 0.000000 0.000000 0.000000 0.000000 0.042632
#
#
# Mechanical properties :
#
#
# Convention : Reuss Voigt Hill
#
# Bulk Modulus (GPa) = 44.30886 45.15854 44.73370
# Shear Modulus (GPa) = 16.27106 17.00593 16.63850
#
# Velocity S-wave (km/s) = 3.28311 3.35643 3.31997
# Velocity P-wave (km/s) = 6.61243 6.70345 6.65810
#
# Compressibility (1/GPa) = 0.02256885
#
# Stress axis : x y z
#
# Youngs Moduli (GPa) = 42.41943 42.41935 51.50650
#
# Poissons Ratio (x) = 0.30883 0.37901
# Poissons Ratio (y) = 0.30883 0.37900
# Poissons Ratio (z) = 0.31214 0.31214
#
# Static dielectric constant tensor:
#      x y z
#    x 2.774190 0.000000 0.000000 
#    y 0.000000 2.774190 0.000000 
#    z 0.000000 0.000000 2.884130 
# 
# 
# High freq. dielectric constant tensor:
#      x y z
#    x 1.551970 0.000000 0.000000 
#    y 0.000000 1.551970 0.000000 
#    z 0.000000 0.000000 1.565890 
# 
# From -- ./inp_files/5021.got.cif
#   From: 2010.03.12/outbox.cif.g09.slc.cpg/sg128_3_cif.got.tgz:5021.got - 2010.04.06 17:11:05.
