data_PCOD8314059
_publ_section_title
;
Structure prediction by ZEFSAII (Michael W. Deem and Ramdas Pophale) SiO2 
 PCOD8314059
Probable space group: P 4/M B M
;
_chemical_formula_sum "Si O2"
_cell_formula_units_Z 88
_cell_length_a 26.386275
_cell_length_b 26.386275
_cell_length_c 9.021506
_cell_angle_alpha 90.000000
_cell_angle_beta 90.000000
_cell_angle_gamma 90.000000
_cell_volume 6281.092816
_symmetry_space_group_name_H-M "P 4/M B M"
_symmetry_group_IT_number 127
_symmetry_cell_setting 'tetragonal'
loop_
_space_group_symop_operation_xyz
x,y,z
-y,x,z
-x,-y,z
y,-x,z
1/2+x,1/2-y,-z
1/2-x,1/2+y,-z
1/2+y,1/2+x,-z
1/2-y,1/2-x,-z
-x,-y,-z
y,-x,-z
x,y,-z
-y,x,-z
1/2-x,1/2+y,z
1/2+x,1/2-y,z
1/2-y,1/2-x,z
1/2+y,1/2+x,z
loop_
_atom_site_type_symbol
_atom_site_label
_atom_site_fract_x
_atom_site_fract_y
_atom_site_fract_z
Si Si1 0.748634 0.836490 0.333453
Si Si2 0.267071 0.318384 0.832890
Si Si3 0.195124 0.386889 0.329276
Si Si4 0.957592 0.542409 0.168586
Si Si5 0.509505 0.144066 0.326152
Si Si6 0.676154 0.907779 0.826995
O O1 0.760224 0.855461 0.500000
O O2 0.708193 0.791808 0.336757
O O3 0.800439 0.816095 0.259721
O O4 0.727232 0.882491 0.235554
O O5 0.224754 0.275246 0.826781
O O6 0.243978 0.369791 0.764643
O O7 0.284491 0.329338 0.000000
O O8 0.208707 0.377896 0.500000
O O9 0.145435 0.354565 0.285079
O O10 0.183426 0.445225 0.294723
O O11 0.908960 0.520675 0.250004
O O12 0.000000 0.500000 0.172149
O O13 0.943346 0.556655 0.000000
O O14 0.502593 0.134161 0.500000
O O15 0.459551 0.168500 0.259476
O O16 0.627927 0.872074 0.797657
O O17 0.683424 0.918600 0.000000
#
# Coordination Sequence:
#
# PCOD8314059 Si02
#       6
#    16  16  16   8  16  16
#     4   9  16  27  43  61  79 101 127 158 197 242
#     4   9  16  25  40  62  82 100 123 154 196 243
#     4   9  17  30  43  57  78 102 130 165 204 245
#     4  11  23  35  45  57  75 101 137 181 225 261
#     4  11  21  33  46  60  77 103 138 176 214 253
#     4  10  20  32  44  59  80 104 133 172 213 251
#
# _framework density 14.010301
#
# number of rings (size 3 to 8) (size 9 to 14) (size 15 to 20)
#    0.000    2.273    0.909    3.000    0.000    9.818 
#    0.000    0.000    0.000    0.000    0.000    0.000 
#    0.000    0.000    0.000    0.000    0.000    0.909 
#
# Total GULP energy -1091261.461981 kJ/mol
# GULP energy per Si atom -12400.698432 kJ/mol
# Density = 1.397841 g / cm^3
# Si number density = 14.010301 Si / 1000 Ang^3
#
#
#
# Elastic Constant Matrix: (Units=GPa)
#
#
# Indices 1 2 3 4 5 6 
#
# 1 58.2758 51.6990 50.0043 0.0000 0.0000 0.0000
# 2 51.6990 58.2753 50.0036 0.0000 0.0000 0.0000
# 3 50.0043 50.0036 113.1661 0.0000 0.0000 0.0000
# 4 0.0000 0.0000 0.0000 21.3730 0.0000 0.0000
# 5 0.0000 0.0000 0.0000 0.0000 21.3731 0.0000
# 6 0.0000 0.0000 0.0000 0.0000 0.0000 18.5819
#
#
#
# Elastic Compliance Matrix: (Units=1/GPa)
#
#
# Indices 1 2 3 4 5 6 
#
# 1 0.083629 -0.068428 -0.006717 0.000000 0.000000 0.000000
# 2 -0.068428 0.083629 -0.006716 0.000000 0.000000 0.000000
# 3 -0.006717 -0.006716 0.014772 0.000000 0.000000 0.000000
# 4 0.000000 0.000000 0.000000 0.046788 0.000000 0.000000
# 5 0.000000 0.000000 0.000000 0.000000 0.046788 0.000000
# 6 0.000000 0.000000 0.000000 0.000000 0.000000 0.053816
#
#
# Mechanical properties :
#
#
# Convention : Reuss Voigt Hill
#
# Bulk Modulus (GPa) = 54.62288 59.23680 56.92984
# Shear Modulus (GPa) = 10.01509 17.46629 13.74069
#
# Velocity S-wave (km/s) = 2.67655 3.53466 3.13510
# Velocity P-wave (km/s) = 6.97310 7.68317 7.33673
#
# Compressibility (1/GPa) = 0.01830735
#
# Stress axis : x y z
#
# Youngs Moduli (GPa) = 11.95760 11.95761 67.69386
#
# Poissons Ratio (x) = 0.81823 0.45472
# Poissons Ratio (y) = 0.81823 0.45465
# Poissons Ratio (z) = 0.08032 0.08031
#
# Static dielectric constant tensor:
#      x y z
#    x -0.822660 0.000000 0.000000 
#    y 0.000000 -0.829340 0.000000 
#    z 0.000000 0.000000 2.993340 
# 
# 
# High freq. dielectric constant tensor:
#      x y z
#    x 1.504570 0.000000 0.000000 
#    y 0.000000 1.504570 0.000000 
#    z 0.000000 0.000000 1.556750 
# 
# From -- ./inp_files/2175.got.cif
#   From: 2010.03.12/outbox.cif.g09.slc.cpg/sg127_2_cif.got.tgz:2175.got - 2010.04.06 17:03:15.
