data_PCOD8314640
_publ_section_title
;
Structure prediction by ZEFSAII (Michael W. Deem and Ramdas Pophale) SiO2 
 PCOD8314640
Probable space group: P 4/M N C
;
_chemical_formula_sum "Si O2"
_cell_formula_units_Z 80
_cell_length_a 14.275509
_cell_length_b 14.275509
_cell_length_c 20.845269
_cell_angle_alpha 90.000000
_cell_angle_beta 90.000000
_cell_angle_gamma 90.000000
_cell_volume 4248.060647
_symmetry_space_group_name_H-M "P 4/M N C"
_symmetry_group_IT_number 128
_symmetry_cell_setting 'tetragonal'
loop_
_space_group_symop_operation_xyz
x,y,z
-y,x,z
-x,-y,z
y,-x,z
1/2+x,1/2-y,1/2-z
1/2-x,1/2+y,1/2-z
1/2+y,1/2+x,1/2-z
1/2-y,1/2-x,1/2-z
-x,-y,-z
y,-x,-z
x,y,-z
-y,x,-z
1/2-x,1/2+y,1/2+z
1/2+x,1/2-y,1/2+z
1/2-y,1/2-x,1/2+z
1/2+y,1/2+x,1/2+z
loop_
_atom_site_type_symbol
_atom_site_label
_atom_site_fract_x
_atom_site_fract_y
_atom_site_fract_z
Si Si1 0.903183 0.458535 0.173279
Si Si2 0.463844 0.228004 0.295080
Si Si3 0.297806 0.300560 0.925334
Si Si4 0.723229 0.676499 0.309454
Si Si5 0.500480 0.772406 0.927931
O O1 0.822553 0.469362 0.226369
O O2 0.921891 0.349554 0.155728
O O3 0.868045 0.514702 0.111500
O O4 0.000000 0.500000 0.198862
O O5 0.387337 0.310969 0.294509
O O6 0.565314 0.263073 0.316722
O O7 0.224565 0.252114 0.876893
O O8 0.295447 0.412822 0.917217
O O9 0.403670 0.276382 0.904872
O O10 0.275588 0.272838 0.000000
O O11 0.783751 0.716250 0.250000
O O12 0.509172 0.806009 0.000000
#
# Coordination Sequence:
#
# PCOD8314640 Si02
#       5
#    16  16  16  16  16
#     4  11  20  37  56  88 117 148 199 238 298 347
#     4  11  22  36  60  84 112 156 187 242 294 346
#     4  10  21  38  58  86 121 157 197 244 295 349
#     4  12  22  40  61  85 119 152 199 241 293 350
#     4  10  20  35  57  84 118 158 196 241 293 350
#
# _framework density 18.832121000000001
#
# number of rings (size 3 to 8) (size 9 to 14) (size 15 to 20)
#    0.000    1.200    4.000    4.800    0.000    1.200 
#    0.000    4.000    0.000    4.800    0.000    1.400 
#    0.000    0.000    0.000    0.000    0.000    0.000 
#
# Total GULP energy -991398.583229 kJ/mol
# GULP energy per Si atom -12392.482290 kJ/mol
# Density = 1.878926 g / cm^3
# Si number density = 18.832121 Si / 1000 Ang^3
#
#
#
# Elastic Constant Matrix: (Units=GPa)
#
#
# Indices 1 2 3 4 5 6 
#
# 1 117.3686 37.5172 46.5009 0.0000 0.0000 0.0000
# 2 37.5172 117.3693 46.5009 0.0000 0.0000 0.0000
# 3 46.5009 46.5009 91.5747 0.0000 0.0000 0.0000
# 4 0.0000 0.0000 0.0000 22.8333 0.0000 0.0000
# 5 0.0000 0.0000 0.0000 0.0000 22.8332 0.0000
# 6 0.0000 0.0000 0.0000 0.0000 0.0000 35.7009
#
#
#
# Elastic Compliance Matrix: (Units=1/GPa)
#
#
# Indices 1 2 3 4 5 6 
#
# 1 0.010906 -0.001617 -0.004717 0.000000 0.000000 0.000000
# 2 -0.001617 0.010906 -0.004717 0.000000 0.000000 0.000000
# 3 -0.004717 -0.004717 0.015710 0.000000 0.000000 0.000000
# 4 0.000000 0.000000 0.000000 0.043796 0.000000 0.000000
# 5 0.000000 0.000000 0.000000 0.000000 0.043796 0.000000
# 6 0.000000 0.000000 0.000000 0.000000 0.000000 0.028011
#
#
# Mechanical properties :
#
#
# Convention : Reuss Voigt Hill
#
# Bulk Modulus (GPa) = 64.84813 65.26119 65.05466
# Shear Modulus (GPa) = 27.72153 29.32638 28.52396
#
# Velocity S-wave (km/s) = 3.84087 3.95049 3.89606
# Velocity P-wave (km/s) = 7.36066 7.45237 7.40666
#
# Compressibility (1/GPa) = 0.01542065
#
# Stress axis : x y z
#
# Youngs Moduli (GPa) = 91.69369 91.69439 63.65309
#
# Poissons Ratio (x) = 0.14830 0.30023
# Poissons Ratio (y) = 0.14830 0.30022
# Poissons Ratio (z) = 0.43249 0.43248
#
# Static dielectric constant tensor:
#      x y z
#    x 3.585750 0.000000 0.000000 
#    y 0.000000 3.585750 0.000000 
#    z 0.000000 0.000000 3.530900 
# 
# 
# High freq. dielectric constant tensor:
#      x y z
#    x 1.729880 0.000000 0.000000 
#    y 0.000000 1.729880 0.000000 
#    z 0.000000 0.000000 1.729300 
# 
# From -- ./inp_files/5519.got.cif
#   From: 2010.03.12/outbox.cif.g09.slc.cpg/sg128_3_cif.got.tgz:5519.got - 2010.04.06 17:11:05.
