data_PCOD8314918
_publ_section_title
;
Structure prediction by ZEFSAII (Michael W. Deem and Ramdas Pophale) SiO2 
 PCOD8314918
Probable space group: P 4/N M M
;
_chemical_formula_sum "Si O2"
_cell_formula_units_Z 112
_cell_length_a 17.843000
_cell_length_b 17.843000
_cell_length_c 22.495446
_cell_angle_alpha 90.000000
_cell_angle_beta 90.000000
_cell_angle_gamma 90.000000
_cell_volume 7161.934733
_symmetry_space_group_name_H-M "P 4/N M M"
_symmetry_group_IT_number 129
_symmetry_cell_setting 'tetragonal'
loop_
_space_group_symop_operation_xyz
x,y,z
1/2-y,x,z
1/2-x,1/2-y,z
y,1/2-x,z
1/2+x,-y,-z
-x,1/2+y,-z
1/2+y,1/2+x,-z
-y,-x,-z
-x,-y,-z
1/2+y,-x,-z
1/2+x,1/2+y,-z
-y,1/2+x,-z
1/2-x,y,z
x,1/2-y,z
1/2-y,1/2-x,z
y,x,z
loop_
_atom_site_type_symbol
_atom_site_label
_atom_site_fract_x
_atom_site_fract_y
_atom_site_fract_z
Si Si1 0.572782 0.164958 0.826158
Si Si2 0.557366 0.063966 0.648076
Si Si3 0.060067 0.560723 0.933281
Si Si4 0.835609 0.164265 0.429853
Si Si5 0.550632 0.165176 0.245366
Si Si6 0.549257 0.666017 0.865106
Si Si7 0.045157 0.164661 0.726318
O O1 0.598920 0.250000 0.833081
O O2 0.557965 0.132727 0.891638
O O3 0.639095 0.123676 0.790940
O O4 0.496163 0.157329 0.789370
O O5 0.607047 0.103636 0.597396
O O6 0.612941 0.033005 0.698594
O O7 0.503093 0.126799 0.674538
O O8 0.506478 0.993523 0.624495
O O9 0.020627 0.479373 0.932259
O O10 0.004139 0.623570 0.910282
O O11 0.083416 0.583416 0.000000
O O12 0.843092 0.156909 0.500000
O O13 0.750000 0.144319 0.410077
O O14 0.853468 0.250000 0.410181
O O15 0.564629 0.250000 0.267084
O O16 0.479573 0.159699 0.202293
O O17 0.553972 0.750000 0.888105
O O18 0.632064 0.632064 0.866620
O O19 0.058691 0.250000 0.707770
O O20 0.125284 0.125284 0.732663
#
# Coordination Sequence:
#
# PCOD8314918 Si02
#       7
#    16  16  16  16  16  16  16
#     4   9  17  28  42  61  83 106 136 176 217 254
#     4  10  18  28  45  68  92 116 145 181 219 257
#     4   9  17  29  44  60  79 107 141 173 210 259
#     4   9  18  32  48  66  91 123 155 185 218 258
#     4   9  17  29  44  62  86 115 143 171 207 254
#     4   9  17  29  44  62  84 108 136 171 208 247
#     4   9  17  28  42  61  84 110 139 172 212 256
#
# _framework density 15.638232
#
# number of rings (size 3 to 8) (size 9 to 14) (size 15 to 20)
#    0.000    2.857    0.000    2.143    0.000    5.429 
#    0.000    0.000    0.000    0.000    0.000    2.000 
#    0.000    6.000    0.000   10.571    0.000    0.286 
#
# Total GULP energy -1388449.731573 kJ/mol
# GULP energy per Si atom -12396.872603 kJ/mol
# Density = 1.560264 g / cm^3
# Si number density = 15.638232 Si / 1000 Ang^3
#
#
#
# Elastic Constant Matrix: (Units=GPa)
#
#
# Indices 1 2 3 4 5 6 
#
# 1 90.7107 47.3450 30.1345 0.0000 0.0000 0.0000
# 2 47.3450 90.7107 30.1344 0.0000 0.0000 0.0000
# 3 30.1345 30.1344 64.7956 0.0000 0.0000 0.0000
# 4 0.0000 0.0000 0.0000 18.4416 0.0000 0.0000
# 5 0.0000 0.0000 0.0000 0.0000 18.4416 0.0000
# 6 0.0000 0.0000 0.0000 0.0000 0.0000 22.7619
#
#
#
# Elastic Compliance Matrix: (Units=1/GPa)
#
#
# Indices 1 2 3 4 5 6 
#
# 1 0.016074 -0.006985 -0.004227 0.000000 0.000000 0.000000
# 2 -0.006985 0.016074 -0.004227 0.000000 0.000000 0.000000
# 3 -0.004227 -0.004227 0.019365 0.000000 0.000000 0.000000
# 4 0.000000 0.000000 0.000000 0.054225 0.000000 0.000000
# 5 0.000000 0.000000 0.000000 0.000000 0.054225 0.000000
# 6 0.000000 0.000000 0.000000 0.000000 0.000000 0.043933
#
#
# Mechanical properties :
#
#
# Convention : Reuss Voigt Hill
#
# Bulk Modulus (GPa) = 48.46220 51.27162 49.86691
# Shear Modulus (GPa) = 20.69077 21.16921 20.92999
#
# Velocity S-wave (km/s) = 3.64137 3.68323 3.66236
# Velocity P-wave (km/s) = 6.98114 7.13761 7.05981
#
# Compressibility (1/GPa) = 0.02063464
#
# Stress axis : x y z
#
# Youngs Moduli (GPa) = 62.21145 62.21149 51.64029
#
# Poissons Ratio (x) = 0.43458 0.21828
# Poissons Ratio (y) = 0.43458 0.21828
# Poissons Ratio (z) = 0.26296 0.26296
#
# Static dielectric constant tensor:
#      x y z
#    x 3.015160 0.000000 0.000000 
#    y 0.000000 3.015160 0.000000 
#    z 0.000000 0.000000 2.856140 
# 
# 
# High freq. dielectric constant tensor:
#      x y z
#    x 1.595970 0.000000 0.000000 
#    y 0.000000 1.595970 0.000000 
#    z 0.000000 0.000000 1.588150 
# 
# From -- ./inp_files/6702.got.cif
#   From: 2010.03.12/outbox.cif.g09.slc.cpg/sg129_4_cif.got.tgz:6702.got - 2010.04.06 17:19:44.
