data_PCOD8314796
_publ_section_title
;
Structure prediction by ZEFSAII (Michael W. Deem and Ramdas Pophale) SiO2 
 PCOD8314796
Probable space group: P 4/M N C
;
_chemical_formula_sum "Si O2"
_cell_formula_units_Z 104
_cell_length_a 28.176678
_cell_length_b 28.176678
_cell_length_c 9.434668
_cell_angle_alpha 90.000000
_cell_angle_beta 90.000000
_cell_angle_gamma 90.000000
_cell_volume 7490.420520
_symmetry_space_group_name_H-M "P 4/M N C"
_symmetry_group_IT_number 128
_symmetry_cell_setting 'tetragonal'
loop_
_space_group_symop_operation_xyz
x,y,z
-y,x,z
-x,-y,z
y,-x,z
1/2+x,1/2-y,1/2-z
1/2-x,1/2+y,1/2-z
1/2+y,1/2+x,1/2-z
1/2-y,1/2-x,1/2-z
-x,-y,-z
y,-x,-z
x,y,-z
-y,x,-z
1/2-x,1/2+y,1/2+z
1/2+x,1/2-y,1/2+z
1/2-y,1/2-x,1/2+z
1/2+y,1/2+x,1/2+z
loop_
_atom_site_type_symbol
_atom_site_label
_atom_site_fract_x
_atom_site_fract_y
_atom_site_fract_z
Si Si1 0.304240 0.614126 0.660810
Si Si2 0.323468 0.240686 0.161963
Si Si3 0.043314 0.877757 0.271426
Si Si4 0.193895 0.883261 0.840808
Si Si5 0.243448 0.320602 0.161565
Si Si6 0.010545 0.923110 0.000000
Si Si7 0.870455 0.057745 0.347909
O O1 0.289409 0.599082 0.500000
O O2 0.258969 0.630026 0.753749
O O3 0.328907 0.571680 0.747875
O O4 0.340373 0.657311 0.648870
O O5 0.304388 0.195613 0.250000
O O6 0.284057 0.281213 0.157556
O O7 0.336637 0.226101 0.000000
O O8 0.077371 0.921198 0.313593
O O9 0.999052 0.871544 0.377004
O O10 0.014051 0.889199 0.131567
O O11 0.238188 0.867475 0.743500
O O12 0.168114 0.928328 0.770233
O O13 0.210955 0.896803 0.000000
O O14 0.198498 0.301503 0.250000
O O15 0.228405 0.333366 0.000000
O O16 0.959698 0.946630 0.000000
O O17 0.855521 0.080315 0.500000
#
# Coordination Sequence:
#
# PCOD8314796 Si02
#       7
#    16  16  16  16  16   8  16
#     4   9  17  27  42  57  72  91 115 145 179 222
#     4   9  16  25  38  55  76  95 114 136 167 209
#     4  11  21  32  47  57  74  93 124 156 199 241
#     4   9  18  29  42  57  72  93 119 146 181 222
#     4   9  15  24  39  57  78  97 115 138 168 211
#     4  11  20  32  48  62  70  90 124 166 200 244
#     4  11  23  34  43  56  75  95 120 158 200 241
#
# _framework density 13.884401
#
# number of rings (size 3 to 8) (size 9 to 14) (size 15 to 20)
#    0.000    2.231    2.308    1.846    2.154    8.308 
#    0.000    0.769    0.000    0.000    0.000    0.000 
#    0.000    0.000    0.000    0.000    0.000    0.000 
#
# Total GULP energy -1288790.764133 kJ/mol
# GULP energy per Si atom -12392.218886 kJ/mol
# Density = 1.385280 g / cm^3
# Si number density = 13.884401 Si / 1000 Ang^3
#
#
#
# Elastic Constant Matrix: (Units=GPa)
#
#
# Indices 1 2 3 4 5 6 
#
# 1 43.1306 38.8987 27.0726 0.0000 0.0000 0.0000
# 2 38.8987 43.1305 27.0727 0.0000 0.0000 0.0000
# 3 27.0726 27.0727 112.6296 0.0000 0.0000 0.0000
# 4 0.0000 0.0000 0.0000 15.3606 0.0000 0.0000
# 5 0.0000 0.0000 0.0000 0.0000 15.3608 0.0000
# 6 0.0000 0.0000 0.0000 0.0000 0.0000 24.4139
#
#
#
# Elastic Compliance Matrix: (Units=1/GPa)
#
#
# Indices 1 2 3 4 5 6 
#
# 1 0.125396 -0.110906 -0.003483 0.000000 0.000000 0.000000
# 2 -0.110906 0.125396 -0.003483 0.000000 0.000000 0.000000
# 3 -0.003483 -0.003483 0.010553 0.000000 0.000000 0.000000
# 4 0.000000 0.000000 0.000000 0.065102 0.000000 0.000000
# 5 0.000000 0.000000 0.000000 0.000000 0.065101 0.000000
# 6 0.000000 0.000000 0.000000 0.000000 0.000000 0.040960
#
#
# Mechanical properties :
#
#
# Convention : Reuss Voigt Hill
#
# Bulk Modulus (GPa) = 39.06104 42.77540 40.91822
# Shear Modulus (GPa) = 7.38786 18.08349 12.73568
#
# Velocity S-wave (km/s) = 2.30923 3.61284 3.03192
# Velocity P-wave (km/s) = 5.94173 6.94828 6.46462
#
# Compressibility (1/GPa) = 0.02560096
#
# Stress axis : x y z
#
# Youngs Moduli (GPa) = 7.97474 7.97472 94.75962
#
# Poissons Ratio (x) = 0.88445 0.33003
# Poissons Ratio (y) = 0.88445 0.33005
# Poissons Ratio (z) = 0.02777 0.02778
#
# Static dielectric constant tensor:
#      x y z
#    x 2.489680 0.000000 0.000000 
#    y 0.000000 2.489680 0.000000 
#    z 0.000000 0.000000 3.055660 
# 
# 
# High freq. dielectric constant tensor:
#      x y z
#    x 1.482990 0.000000 0.000000 
#    y 0.000000 1.482990 0.000000 
#    z 0.000000 0.000000 1.559720 
# 
# From -- ./inp_files/1683.got.cif
#   From: 2010.03.12/outbox.cif.g09.slc.cpg/sg128_1_cif.got.tgz:1683.got - 2010.04.06 17:11:05.
