data_PCOD8314145
_publ_section_title
;
Structure prediction by ZEFSAII (Michael W. Deem and Ramdas Pophale) SiO2 
 PCOD8314145
Probable space group: P 4/M B M
;
_chemical_formula_sum "Si O2"
_cell_formula_units_Z 72
_cell_length_a 21.039011
_cell_length_b 21.039011
_cell_length_c 8.722221
_cell_angle_alpha 90.000000
_cell_angle_beta 90.000000
_cell_angle_gamma 90.000000
_cell_volume 3860.803763
_symmetry_space_group_name_H-M "P 4/M B M"
_symmetry_group_IT_number 127
_symmetry_cell_setting 'tetragonal'
loop_
_space_group_symop_operation_xyz
x,y,z
-y,x,z
-x,-y,z
y,-x,z
1/2+x,1/2-y,-z
1/2-x,1/2+y,-z
1/2+y,1/2+x,-z
1/2-y,1/2-x,-z
-x,-y,-z
y,-x,-z
x,y,-z
-y,x,-z
1/2-x,1/2+y,z
1/2+x,1/2-y,z
1/2-y,1/2-x,z
1/2+y,1/2+x,z
loop_
_atom_site_type_symbol
_atom_site_label
_atom_site_fract_x
_atom_site_fract_y
_atom_site_fract_z
Si Si1 0.139888 0.901287 0.677436
Si Si2 0.617651 0.217626 0.326839
Si Si3 0.948563 0.448563 0.680584
Si Si4 0.319115 0.006085 0.177532
Si Si5 0.176470 0.029765 0.179345
O O1 0.119613 0.896900 0.500000
O O2 0.208865 0.872021 0.709836
O O3 0.094242 0.859306 0.781692
O O4 0.140068 0.974557 0.728551
O O5 0.591483 0.208596 0.500000
O O6 0.686005 0.186005 0.304468
O O7 0.568798 0.183916 0.212057
O O8 0.951841 0.451841 0.500000
O O9 0.876867 0.463126 0.730789
O O10 0.000000 0.500000 0.747973
O O11 0.250784 0.035687 0.228099
O O12 0.332623 0.017634 0.000000
O O13 0.171714 0.014389 0.000000
#
# Coordination Sequence:
#
# PCOD8314145 Si02
#       5
#    16  16   8  16  16
#     4  10  20  35  57  82 109 141 182 224 269 325
#     4   9  18  34  55  79 108 140 177 221 268 319
#     4  11  23  37  55  81 111 147 189 229 275 326
#     4  10  21  36  55  79 110 144 180 224 272 322
#     4  10  21  38  57  79 111 144 179 223 277 326
#
# _framework density 18.648966000000001
#
# number of rings (size 3 to 8) (size 9 to 14) (size 15 to 20)
#    0.000    2.111    0.000    3.000    0.000    8.000 
#    2.000    2.222    0.000    0.000    0.000    0.000 
#    0.000    0.000    0.000    0.000    0.000    0.000 
#
# Total GULP energy -892869.940739 kJ/mol
# GULP energy per Si atom -12400.971399 kJ/mol
# Density = 1.860652 g / cm^3
# Si number density = 18.648966 Si / 1000 Ang^3
#
#
#
# Elastic Constant Matrix: (Units=GPa)
#
#
# Indices 1 2 3 4 5 6 
#
# 1 101.5098 73.9164 28.2411 0.0000 0.0000 0.0000
# 2 73.9164 101.5098 28.2411 0.0000 0.0000 0.0000
# 3 28.2411 28.2411 52.1856 0.0000 0.0000 0.0000
# 4 0.0000 0.0000 0.0000 30.6127 0.0000 0.0000
# 5 0.0000 0.0000 0.0000 0.0000 30.6127 0.0000
# 6 0.0000 0.0000 0.0000 0.0000 0.0000 30.0579
#
#
#
# Elastic Compliance Matrix: (Units=1/GPa)
#
#
# Indices 1 2 3 4 5 6 
#
# 1 0.021572 -0.014669 -0.003736 0.000000 0.000000 0.000000
# 2 -0.014669 0.021572 -0.003736 0.000000 0.000000 0.000000
# 3 -0.003736 -0.003736 0.023206 0.000000 0.000000 0.000000
# 4 0.000000 0.000000 0.000000 0.032666 0.000000 0.000000
# 5 0.000000 0.000000 0.000000 0.000000 0.032666 0.000000
# 6 0.000000 0.000000 0.000000 0.000000 0.000000 0.033269
#
#
# Mechanical properties :
#
#
# Convention : Reuss Voigt Hill
#
# Bulk Modulus (GPa) = 45.31241 57.33362 51.32301
# Shear Modulus (GPa) = 23.08533 26.57709 24.83121
#
# Velocity S-wave (km/s) = 3.52218 3.77918 3.65294
# Velocity P-wave (km/s) = 6.39463 7.06068 6.73589
#
# Compressibility (1/GPa) = 0.02206901
#
# Stress axis : x y z
#
# Youngs Moduli (GPa) = 46.35672 46.35672 43.09274
#
# Poissons Ratio (x) = 0.67999 0.16099
# Poissons Ratio (y) = 0.67999 0.16099
# Poissons Ratio (z) = 0.17318 0.17318
#
# Static dielectric constant tensor:
#      x y z
#    x 3.413000 0.000000 0.000000 
#    y 0.000000 3.413000 0.000000 
#    z 0.000000 0.000000 3.485700 
# 
# 
# High freq. dielectric constant tensor:
#      x y z
#    x 1.721970 0.000000 0.000000 
#    y 0.000000 1.721970 0.000000 
#    z 0.000000 0.000000 1.732030 
# 
# From -- ./inp_files/1555.got.cif
#   From: 2010.03.12/outbox.cif.g09.slc.cpg/sg127_1_cif.got.tgz:1555.got - 2010.04.06 17:03:15.
