data_PCOD8314115
_publ_section_title
;
Structure prediction by ZEFSAII (Michael W. Deem and Ramdas Pophale) SiO2 
 PCOD8314115
Probable space group: P 4/M B M
;
_chemical_formula_sum "Si O2"
_cell_formula_units_Z 56
_cell_length_a 19.556097
_cell_length_b 19.556097
_cell_length_c 7.917626
_cell_angle_alpha 90.000000
_cell_angle_beta 90.000000
_cell_angle_gamma 90.000000
_cell_volume 3028.024250
_symmetry_space_group_name_H-M "P 4/M B M"
_symmetry_group_IT_number 127
_symmetry_cell_setting 'tetragonal'
loop_
_space_group_symop_operation_xyz
x,y,z
-y,x,z
-x,-y,z
y,-x,z
1/2+x,1/2-y,-z
1/2-x,1/2+y,-z
1/2+y,1/2+x,-z
1/2-y,1/2-x,-z
-x,-y,-z
y,-x,-z
x,y,-z
-y,x,-z
1/2-x,1/2+y,z
1/2+x,1/2-y,z
1/2-y,1/2-x,z
1/2+y,1/2+x,z
loop_
_atom_site_type_symbol
_atom_site_label
_atom_site_fract_x
_atom_site_fract_y
_atom_site_fract_z
Si Si1 0.208742 0.499714 0.191873
Si Si2 0.003519 0.390420 0.500000
Si Si3 0.248981 0.638916 0.307058
Si Si4 0.647427 0.256906 0.195498
O O1 0.148999 0.508954 0.326008
O O2 0.254105 0.568790 0.200122
O O3 0.252040 0.432528 0.243246
O O4 0.180494 0.490418 0.000000
O O5 0.950839 0.450839 0.500000
O O6 0.080613 0.419387 0.500000
O O7 0.234439 0.619064 0.500000
O O8 0.187863 0.687863 0.237784
O O9 0.320586 0.679263 0.295657
O O10 0.686302 0.186302 0.245414
O O11 0.657813 0.272794 0.000000
#
# Coordination Sequence:
#
# PCOD8314115 Si02
#       4
#    16   8  16  16
#     4  11  22  37  58  82 112 150 188 230 283 336
#     4  11  24  38  52  78 114 149 190 232 272 329
#     4  10  20  34  55  83 112 145 187 234 282 331
#     4   9  19  35  55  81 109 142 188 235 280 331
#
# _framework density 18.493905999999999
#
# number of rings (size 3 to 8) (size 9 to 14) (size 15 to 20)
#    0.000    1.857    1.429    2.571    2.000    5.143 
#    0.000    1.429    0.000    0.857    0.000    6.000 
#    0.000    0.000    0.000    0.000    0.000    0.000 
#
# Total GULP energy -694281.978920 kJ/mol
# GULP energy per Si atom -12397.892481 kJ/mol
# Density = 1.845181 g / cm^3
# Si number density = 18.493906 Si / 1000 Ang^3
#
#
#
# Elastic Constant Matrix: (Units=GPa)
#
#
# Indices 1 2 3 4 5 6 
#
# 1 120.9005 51.1877 30.1738 0.0000 0.0000 0.0000
# 2 51.1877 120.9018 30.1742 0.0000 0.0000 0.0000
# 3 30.1738 30.1742 82.5261 0.0000 0.0000 0.0000
# 4 0.0000 0.0000 0.0000 26.1173 0.0000 0.0000
# 5 0.0000 0.0000 0.0000 0.0000 26.1164 0.0000
# 6 0.0000 0.0000 0.0000 0.0000 0.0000 19.7943
#
#
#
# Elastic Compliance Matrix: (Units=1/GPa)
#
#
# Indices 1 2 3 4 5 6 
#
# 1 0.010505 -0.003839 -0.002437 0.000000 0.000000 0.000000
# 2 -0.003839 0.010505 -0.002437 0.000000 0.000000 0.000000
# 3 -0.002437 -0.002437 0.013900 0.000000 0.000000 0.000000
# 4 0.000000 0.000000 0.000000 0.038289 0.000000 0.000000
# 5 0.000000 0.000000 0.000000 0.000000 0.038290 0.000000
# 6 0.000000 0.000000 0.000000 0.000000 0.000000 0.050520
#
#
# Mechanical properties :
#
#
# Convention : Reuss Voigt Hill
#
# Bulk Modulus (GPa) = 57.20102 60.82219 59.01161
# Shear Modulus (GPa) = 26.98869 28.59179 27.79024
#
# Velocity S-wave (km/s) = 3.82426 3.93620 3.88063
# Velocity P-wave (km/s) = 7.10611 7.32239 7.21506
#
# Compressibility (1/GPa) = 0.01748220
#
# Stress axis : x y z
#
# Youngs Moduli (GPa) = 95.19208 95.19300 71.94472
#
# Poissons Ratio (x) = 0.36549 0.17534
# Poissons Ratio (y) = 0.36548 0.17534
# Poissons Ratio (z) = 0.23200 0.23200
#
# Static dielectric constant tensor:
#      x y z
#    x 3.377010 0.000000 0.000000 
#    y 0.000000 3.377010 0.000000 
#    z 0.000000 0.000000 3.530110 
# 
# 
# High freq. dielectric constant tensor:
#      x y z
#    x 1.703540 0.000000 0.000000 
#    y 0.000000 1.703540 0.000000 
#    z 0.000000 0.000000 1.728160 
# 
# From -- ./inp_files/1098.got.cif
#   From: 2010.03.12/outbox.cif.g09.slc.cpg/sg127_1_cif.got.tgz:1098.got - 2010.04.06 17:03:15.
