data_PCOD8314499
_publ_section_title
;
Structure prediction by ZEFSAII (Michael W. Deem and Ramdas Pophale) SiO2 
 PCOD8314499
Probable space group: P 4/M N C
;
_chemical_formula_sum "Si O2"
_cell_formula_units_Z 96
_cell_length_a 19.311008
_cell_length_b 19.311008
_cell_length_c 15.099495
_cell_angle_alpha 90.000000
_cell_angle_beta 90.000000
_cell_angle_gamma 90.000000
_cell_volume 5630.828631
_symmetry_space_group_name_H-M "P 4/M N C"
_symmetry_group_IT_number 128
_symmetry_cell_setting 'tetragonal'
loop_
_space_group_symop_operation_xyz
x,y,z
-y,x,z
-x,-y,z
y,-x,z
1/2+x,1/2-y,1/2-z
1/2-x,1/2+y,1/2-z
1/2+y,1/2+x,1/2-z
1/2-y,1/2-x,1/2-z
-x,-y,-z
y,-x,-z
x,y,-z
-y,x,-z
1/2-x,1/2+y,1/2+z
1/2+x,1/2-y,1/2+z
1/2-y,1/2-x,1/2+z
1/2+y,1/2+x,1/2+z
loop_
_atom_site_type_symbol
_atom_site_label
_atom_site_fract_x
_atom_site_fract_y
_atom_site_fract_z
Si Si1 0.576850 0.770641 0.399854
Si Si2 0.078150 0.188735 0.724915
Si Si3 0.162567 0.718448 0.598058
Si Si4 0.189795 0.078385 0.727276
Si Si5 0.781695 0.686699 0.847194
Si Si6 0.576682 0.232270 0.599129
O O1 0.585949 0.741577 0.500000
O O2 0.637034 0.826194 0.380153
O O3 0.583601 0.707369 0.331307
O O4 0.499215 0.804042 0.388539
O O5 0.118717 0.117774 0.708200
O O6 0.110279 0.248279 0.661075
O O7 0.084758 0.207057 0.828987
O O8 0.999692 0.178243 0.695467
O O9 0.130010 0.725860 0.500000
O O10 0.110203 0.747377 0.670814
O O11 0.235338 0.760349 0.596044
O O12 0.780327 0.719674 0.750000
O O13 0.859448 0.678632 0.886563
O O14 0.581676 0.263696 0.500000
#
# Coordination Sequence:
#
# PCOD8314499 Si02
#       6
#    16  16  16  16  16  16
#     4   9  17  28  47  73  99 123 147 180 230 282
#     4   9  19  31  47  67  92 124 160 193 235 276
#     4  10  18  29  47  69  90 120 160 198 234 273
#     4  10  19  33  47  67  95 124 157 199 233 271
#     4   9  16  28  46  68  91 119 156 196 231 270
#     4   9  16  27  45  72 100 122 145 182 228 280
#
# _framework density 17.049001000000001
#
# number of rings (size 3 to 8) (size 9 to 14) (size 15 to 20)
#    0.000    2.667    0.000    4.000    0.000    2.333 
#    0.000    4.167    0.000    1.000    0.000   18.667 
#    0.000    0.000    0.000    0.000    0.000    0.000 
#
# Total GULP energy -1189577.597131 kJ/mol
# GULP energy per Si atom -12391.433303 kJ/mol
# Density = 1.701020 g / cm^3
# Si number density = 17.049001 Si / 1000 Ang^3
#
#
#
# Elastic Constant Matrix: (Units=GPa)
#
#
# Indices 1 2 3 4 5 6 
#
# 1 127.0769 60.5657 32.9653 0.0000 0.0000 0.0000
# 2 60.5657 127.0764 32.9652 0.0000 0.0000 0.0000
# 3 32.9653 32.9652 57.7396 0.0000 0.0000 0.0000
# 4 0.0000 0.0000 0.0000 18.9093 0.0000 0.0000
# 5 0.0000 0.0000 0.0000 0.0000 18.9094 0.0000
# 6 0.0000 0.0000 0.0000 0.0000 0.0000 14.7608
#
#
#
# Elastic Compliance Matrix: (Units=1/GPa)
#
#
# Indices 1 2 3 4 5 6 
#
# 1 0.010851 -0.004184 -0.003806 0.000000 0.000000 0.000000
# 2 -0.004184 0.010851 -0.003806 0.000000 0.000000 0.000000
# 3 -0.003806 -0.003806 0.021665 0.000000 0.000000 0.000000
# 4 0.000000 0.000000 0.000000 0.052884 0.000000 0.000000
# 5 0.000000 0.000000 0.000000 0.000000 0.052884 0.000000
# 6 0.000000 0.000000 0.000000 0.000000 0.000000 0.067747
#
#
# Mechanical properties :
#
#
# Convention : Reuss Voigt Hill
#
# Bulk Modulus (GPa) = 50.57193 62.76503 56.66848
# Shear Modulus (GPa) = 20.23750 22.87568 21.55659
#
# Velocity S-wave (km/s) = 3.44905 3.66698 3.55968
# Velocity P-wave (km/s) = 6.75192 7.40428 7.08561
#
# Compressibility (1/GPa) = 0.01977382
#
# Stress axis : x y z
#
# Youngs Moduli (GPa) = 92.15860 92.15821 46.15685
#
# Poissons Ratio (x) = 0.38561 0.17568
# Poissons Ratio (y) = 0.38561 0.17568
# Poissons Ratio (z) = 0.35077 0.35077
#
# Static dielectric constant tensor:
#      x y z
#    x 3.161190 0.000000 0.000000 
#    y 0.000000 3.161180 0.000000 
#    z 0.000000 0.000000 3.284840 
# 
# 
# High freq. dielectric constant tensor:
#      x y z
#    x 1.637100 0.000000 0.000000 
#    y 0.000000 1.637100 0.000000 
#    z 0.000000 0.000000 1.665880 
# 
# From -- ./inp_files/4773.got.cif
#   From: 2010.03.12/outbox.cif.g09.slc.cpg/sg128_3_cif.got.tgz:4773.got - 2010.04.06 17:11:05.
