data_PCOD8314211
_publ_section_title
;
Structure prediction by ZEFSAII (Michael W. Deem and Ramdas Pophale) SiO2 
 PCOD8314211
Probable space group: P 4/M B M
;
_chemical_formula_sum "Si O2"
_cell_formula_units_Z 64
_cell_length_a 13.605848
_cell_length_b 13.605848
_cell_length_c 18.845964
_cell_angle_alpha 90.000000
_cell_angle_beta 90.000000
_cell_angle_gamma 90.000000
_cell_volume 3488.747891
_symmetry_space_group_name_H-M "P 4/M B M"
_symmetry_group_IT_number 127
_symmetry_cell_setting 'tetragonal'
loop_
_space_group_symop_operation_xyz
x,y,z
-y,x,z
-x,-y,z
y,-x,z
1/2+x,1/2-y,-z
1/2-x,1/2+y,-z
1/2+y,1/2+x,-z
1/2-y,1/2-x,-z
-x,-y,-z
y,-x,-z
x,y,-z
-y,x,-z
1/2-x,1/2+y,z
1/2+x,1/2-y,z
1/2-y,1/2-x,z
1/2+y,1/2+x,z
loop_
_atom_site_type_symbol
_atom_site_label
_atom_site_fract_x
_atom_site_fract_y
_atom_site_fract_z
Si Si1 0.004644 0.339413 0.848125
Si Si2 0.370604 0.402132 0.500000
Si Si3 0.744058 0.916806 0.712954
Si Si4 0.842035 0.493606 0.000000
Si Si5 0.272774 0.383154 0.645865
O O1 0.924642 0.424642 0.855961
O O2 0.970052 0.260491 0.789687
O O3 0.109269 0.390732 0.826998
O O4 0.012485 0.283966 0.925366
O O5 0.481001 0.364333 0.500000
O O6 0.317641 0.359409 0.569207
O O7 0.644166 0.855835 0.697741
O O8 0.838365 0.845515 0.706449
O O9 0.756746 0.001272 0.654573
O O10 0.881570 0.381570 0.000000
O O11 0.933689 0.566312 0.000000
O O12 0.166976 0.333025 0.652136
#
# Coordination Sequence:
#
# PCOD8314211 Si02
#       5
#    16   8  16   8  16
#     4   8  13  24  44  71 103 135 169 210 254 303
#     4  11  21  38  60  77 102 138 174 217 260 316
#     4  10  21  35  53  78 106 138 177 220 267 317
#     4   7  10  18  38  68  98 133 171 203 246 301
#     4  11  22  37  57  79 106 136 171 218 268 319
#
# _framework density 18.344688999999999
#
# number of rings (size 3 to 8) (size 9 to 14) (size 15 to 20)
#    0.000    2.500    2.500    2.625    0.000    2.000 
#    0.000    0.625    0.000    3.000    0.000    7.000 
#    0.000    2.000    0.000    0.000    0.000    0.000 
#
# Total GULP energy -792945.106755 kJ/mol
# GULP energy per Si atom -12389.767293 kJ/mol
# Density = 1.830294 g / cm^3
# Si number density = 18.344689 Si / 1000 Ang^3
#
#
#
# Elastic Constant Matrix: (Units=GPa)
#
#
# Indices 1 2 3 4 5 6 
#
# 1 61.4199 27.9729 20.5588 0.0000 0.0000 0.0000
# 2 27.9729 61.4200 20.5589 0.0000 0.0000 0.0000
# 3 20.5588 20.5589 114.8481 0.0000 0.0000 0.0000
# 4 0.0000 0.0000 0.0000 18.6587 0.0000 0.0000
# 5 0.0000 0.0000 0.0000 0.0000 18.6591 0.0000
# 6 0.0000 0.0000 0.0000 0.0000 0.0000 14.3373
#
#
#
# Elastic Compliance Matrix: (Units=1/GPa)
#
#
# Indices 1 2 3 4 5 6 
#
# 1 0.021044 -0.008854 -0.002182 0.000000 0.000000 0.000000
# 2 -0.008854 0.021044 -0.002182 0.000000 0.000000 0.000000
# 3 -0.002182 -0.002182 0.009488 0.000000 0.000000 0.000000
# 4 0.000000 0.000000 0.000000 0.053594 0.000000 0.000000
# 5 0.000000 0.000000 0.000000 0.000000 0.053593 0.000000
# 6 0.000000 0.000000 0.000000 0.000000 0.000000 0.069748
#
#
# Mechanical properties :
#
#
# Convention : Reuss Voigt Hill
#
# Bulk Modulus (GPa) = 39.77672 41.76323 40.76997
# Shear Modulus (GPa) = 18.98768 21.57085 20.27926
#
# Velocity S-wave (km/s) = 3.22071 3.43281 3.32845
# Velocity P-wave (km/s) = 5.96328 6.20705 6.08638
#
# Compressibility (1/GPa) = 0.02514033
#
# Stress axis : x y z
#
# Youngs Moduli (GPa) = 47.51911 47.51917 105.39166
#
# Poissons Ratio (x) = 0.42073 0.22998
# Poissons Ratio (y) = 0.42073 0.22998
# Poissons Ratio (z) = 0.10369 0.10370
#
# Static dielectric constant tensor:
#      x y z
#    x 3.082380 0.000000 0.000000 
#    y 0.000000 3.082380 0.000000 
#    z 0.000000 0.000000 3.819420 
# 
# 
# High freq. dielectric constant tensor:
#      x y z
#    x 1.680270 0.000000 0.000000 
#    y 0.000000 1.680270 0.000000 
#    z 0.000000 0.000000 1.724330 
# 
# From -- ./inp_files/4904.got.cif
#   From: 2010.03.12/outbox.cif.g09.slc.cpg/sg127_3_cif.got.tgz:4904.got - 2010.04.06 17:03:15.
