data_PCOD8314072
_publ_section_title
;
Structure prediction by ZEFSAII (Michael W. Deem and Ramdas Pophale) SiO2 
 PCOD8314072
Probable space group: P 4/M B M
;
_chemical_formula_sum "Si O2"
_cell_formula_units_Z 112
_cell_length_a 20.235066
_cell_length_b 20.235066
_cell_length_c 15.118697
_cell_angle_alpha 90.000000
_cell_angle_beta 90.000000
_cell_angle_gamma 90.000000
_cell_volume 6190.469864
_symmetry_space_group_name_H-M "P 4/M B M"
_symmetry_group_IT_number 127
_symmetry_cell_setting 'tetragonal'
loop_
_space_group_symop_operation_xyz
x,y,z
-y,x,z
-x,-y,z
y,-x,z
1/2+x,1/2-y,-z
1/2-x,1/2+y,-z
1/2+y,1/2+x,-z
1/2-y,1/2-x,-z
-x,-y,-z
y,-x,-z
x,y,-z
-y,x,-z
1/2-x,1/2+y,z
1/2+x,1/2-y,z
1/2-y,1/2-x,z
1/2+y,1/2+x,z
loop_
_atom_site_type_symbol
_atom_site_label
_atom_site_fract_x
_atom_site_fract_y
_atom_site_fract_z
Si Si1 0.599440 0.527080 0.604753
Si Si2 0.278588 0.393088 0.604105
Si Si3 0.810284 0.421379 0.747010
Si Si4 0.354782 0.256087 0.098370
Si Si5 0.680263 0.072980 0.250463
Si Si6 0.750686 0.139769 0.901114
Si Si7 0.149582 0.759953 0.402224
O O1 0.545676 0.580850 0.640717
O O2 0.595001 0.529955 0.500000
O O3 0.673139 0.546868 0.633524
O O4 0.261552 0.392541 0.500000
O O5 0.211082 0.401046 0.657689
O O6 0.315552 0.326076 0.632658
O O7 0.873628 0.373628 0.748432
O O8 0.763500 0.411376 0.832412
O O9 0.836962 0.495799 0.744342
O O10 0.764063 0.408691 0.661791
O O11 0.297378 0.202623 0.103916
O O12 0.322114 0.327466 0.120487
O O13 0.386014 0.257247 0.000000
O O14 0.612004 0.112004 0.233749
O O15 0.732788 0.084224 0.170951
O O16 0.696329 0.196329 0.895685
O O17 0.751551 0.108656 0.000000
O O18 0.118675 0.771891 0.500000
O O19 0.204877 0.704877 0.406181
#
# Coordination Sequence:
#
# PCOD8314072 Si02
#       7
#    16  16  16  16  16  16  16
#     4   8  15  28  45  68  99 131 158 187 235 305
#     4  10  20  32  52  76 102 131 163 208 261 311
#     4  10  21  35  51  72 101 138 178 217 254 300
#     4   8  14  28  53  80 101 123 156 203 258 309
#     4  11  23  35  49  73 103 136 178 221 259 303
#     4   8  15  31  54  76  98 124 155 200 259 310
#     4   9  18  33  52  72  94 124 166 215 266 312
#
# _framework density 18.092324999999999
#
# number of rings (size 3 to 8) (size 9 to 14) (size 15 to 20)
#    0.000    2.857    0.000    2.571    2.000    4.571 
#    0.000    0.000    0.000    0.000    0.000    7.000 
#    0.000    0.000    0.000    8.714    0.000    1.286 
#
# Total GULP energy -1388202.404549 kJ/mol
# GULP energy per Si atom -12394.664326 kJ/mol
# Density = 1.805115 g / cm^3
# Si number density = 18.092325 Si / 1000 Ang^3
#
#
#
# Elastic Constant Matrix: (Units=GPa)
#
#
# Indices 1 2 3 4 5 6 
#
# 1 70.5551 21.8876 38.1003 0.0000 0.0000 0.0000
# 2 21.8876 70.5551 38.1003 0.0000 0.0000 0.0000
# 3 38.1003 38.1003 93.2271 0.0000 0.0000 0.0000
# 4 0.0000 0.0000 0.0000 14.7093 0.0000 0.0000
# 5 0.0000 0.0000 0.0000 0.0000 14.7093 0.0000
# 6 0.0000 0.0000 0.0000 0.0000 0.0000 12.8100
#
#
#
# Elastic Compliance Matrix: (Units=1/GPa)
#
#
# Indices 1 2 3 4 5 6 
#
# 1 0.018430 -0.002117 -0.006667 0.000000 0.000000 0.000000
# 2 -0.002117 0.018430 -0.006667 0.000000 0.000000 0.000000
# 3 -0.006667 -0.006667 0.016176 0.000000 0.000000 0.000000
# 4 0.000000 0.000000 0.000000 0.067984 0.000000 0.000000
# 5 0.000000 0.000000 0.000000 0.000000 0.067984 0.000000
# 6 0.000000 0.000000 0.000000 0.000000 0.000000 0.078064
#
#
# Mechanical properties :
#
#
# Convention : Reuss Voigt Hill
#
# Bulk Modulus (GPa) = 45.17860 47.83485 46.50673
# Shear Modulus (GPa) = 16.37476 17.52903 16.95189
#
# Velocity S-wave (km/s) = 3.01170 3.11604 3.06431
# Velocity P-wave (km/s) = 6.09254 6.28036 6.18717
#
# Compressibility (1/GPa) = 0.02213437
#
# Stress axis : x y z
#
# Youngs Moduli (GPa) = 54.25857 54.25857 61.82103
#
# Poissons Ratio (x) = 0.11488 0.41215
# Poissons Ratio (y) = 0.11488 0.41215
# Poissons Ratio (z) = 0.36173 0.36173
#
# Static dielectric constant tensor:
#      x y z
#    x 3.221610 0.000000 0.000000 
#    y 0.000000 3.221610 0.000000 
#    z 0.000000 0.000000 3.683080 
# 
# 
# High freq. dielectric constant tensor:
#      x y z
#    x 1.681560 0.000000 0.000000 
#    y 0.000000 1.681560 0.000000 
#    z 0.000000 0.000000 1.692240 
# 
# From -- ./inp_files/5339.got.cif
#   From: 2010.03.12/outbox.cif.g09.slc.cpg/sg127_3_cif.got.tgz:5339.got - 2010.04.06 17:03:15.
