data_PCOD8314806
_publ_section_title
;
Structure prediction by ZEFSAII (Michael W. Deem and Ramdas Pophale) SiO2 
 PCOD8314806
Probable space group: P 4/M N C
;
_chemical_formula_sum "Si O2"
_cell_formula_units_Z 48
_cell_length_a 9.853107
_cell_length_b 9.853107
_cell_length_c 26.778052
_cell_angle_alpha 90.000000
_cell_angle_beta 90.000000
_cell_angle_gamma 90.000000
_cell_volume 2599.712837
_symmetry_space_group_name_H-M "P 4/M N C"
_symmetry_group_IT_number 128
_symmetry_cell_setting 'tetragonal'
loop_
_space_group_symop_operation_xyz
x,y,z
-y,x,z
-x,-y,z
y,-x,z
1/2+x,1/2-y,1/2-z
1/2-x,1/2+y,1/2-z
1/2+y,1/2+x,1/2-z
1/2-y,1/2-x,1/2-z
-x,-y,-z
y,-x,-z
x,y,-z
-y,x,-z
1/2-x,1/2+y,1/2+z
1/2+x,1/2-y,1/2+z
1/2-y,1/2-x,1/2+z
1/2+y,1/2+x,1/2+z
loop_
_atom_site_type_symbol
_atom_site_label
_atom_site_fract_x
_atom_site_fract_y
_atom_site_fract_z
Si Si1 0.101573 0.800836 0.556065
Si Si2 0.843135 0.352283 0.153446
Si Si3 0.359434 0.861765 0.307881
O O1 0.128440 0.747058 0.500000
O O2 0.160947 0.690142 0.594533
O O3 0.941750 0.820792 0.564748
O O4 0.793607 0.500512 0.171084
O O5 0.763060 0.241055 0.185223
O O6 0.001918 0.329619 0.162631
O O7 0.388158 0.888158 0.250000
#
# Coordination Sequence:
#
# PCOD8314806 Si02
#       3
#    16  16  16
#     4   9  17  33  58  86 111 145 193 240 280 330
#     4  11  21  38  57  84 115 150 188 232 284 331
#     4  11  23  38  57  82 117 152 191 232 276 337
#
# _framework density 18.463577999999998
#
# number of rings (size 3 to 8) (size 9 to 14) (size 15 to 20)
#    0.000    1.667    3.333    5.000    0.000    1.333 
#    0.000    8.333    0.000    0.000    0.000    2.333 
#    0.000    0.000    0.000    0.000    0.000    0.000 
#
# Total GULP energy -595269.286729 kJ/mol
# GULP energy per Si atom -12401.443474 kJ/mol
# Density = 1.842155 g / cm^3
# Si number density = 18.463578 Si / 1000 Ang^3
#
#
#
# Elastic Constant Matrix: (Units=GPa)
#
#
# Indices 1 2 3 4 5 6 
#
# 1 63.0352 61.8850 30.7518 0.0000 0.0000 0.0000
# 2 61.8850 63.0352 30.7518 0.0000 0.0000 0.0000
# 3 30.7518 30.7518 134.2170 0.0000 0.0000 0.0000
# 4 0.0000 0.0000 0.0000 21.4824 0.0000 0.0000
# 5 0.0000 0.0000 0.0000 0.0000 21.4824 0.0000
# 6 0.0000 0.0000 0.0000 0.0000 0.0000 33.3798
#
#
#
# Elastic Compliance Matrix: (Units=1/GPa)
#
#
# Indices 1 2 3 4 5 6 
#
# 1 0.439205 -0.430182 -0.002067 0.000000 0.000000 0.000000
# 2 -0.430182 0.439205 -0.002067 0.000000 0.000000 0.000000
# 3 -0.002067 -0.002067 0.008398 0.000000 0.000000 0.000000
# 4 0.000000 0.000000 0.000000 0.046550 0.000000 0.000000
# 5 0.000000 0.000000 0.000000 0.000000 0.046550 0.000000
# 6 0.000000 0.000000 0.000000 0.000000 0.000000 0.029958
#
#
# Mechanical properties :
#
#
# Convention : Reuss Voigt Hill
#
# Bulk Modulus (GPa) = 55.02214 56.34052 55.68133
# Shear Modulus (GPa) = 2.65314 24.39553 13.52434
#
# Velocity S-wave (km/s) = 1.20003 3.63888 2.70939
# Velocity P-wave (km/s) = 5.63783 6.94521 6.32539
#
# Compressibility (1/GPa) = 0.01817450
#
# Stress axis : x y z
#
# Youngs Moduli (GPa) = 2.27684 2.27684 119.07653
#
# Poissons Ratio (x) = 0.97946 0.24617
# Poissons Ratio (y) = 0.97946 0.24617
# Poissons Ratio (z) = 0.00471 0.00471
#
# Static dielectric constant tensor:
#      x y z
#    x 3.211790 0.000000 0.000000 
#    y 0.000000 3.211790 0.000000 
#    z 0.000000 0.000000 3.531780 
# 
# 
# High freq. dielectric constant tensor:
#      x y z
#    x 1.701570 0.000000 0.000000 
#    y 0.000000 1.701570 0.000000 
#    z 0.000000 0.000000 1.732580 
# 
# From -- ./inp_files/6981.got.cif
#   From: 2010.03.12/outbox.cif.g09.slc.cpg/sg128_4_cif.got.tgz:6981.got - 2010.04.06 17:11:05.
