data_PCOD8314275
_publ_section_title
;
Structure prediction by ZEFSAII (Michael W. Deem and Ramdas Pophale) SiO2 
 PCOD8314275
Probable space group: P 4/M B M
;
_chemical_formula_sum "Si O2"
_cell_formula_units_Z 112
_cell_length_a 14.317870
_cell_length_b 14.317870
_cell_length_c 27.845251
_cell_angle_alpha 90.000000
_cell_angle_beta 90.000000
_cell_angle_gamma 90.000000
_cell_volume 5708.315476
_symmetry_space_group_name_H-M "P 4/M B M"
_symmetry_group_IT_number 127
_symmetry_cell_setting 'tetragonal'
loop_
_space_group_symop_operation_xyz
x,y,z
-y,x,z
-x,-y,z
y,-x,z
1/2+x,1/2-y,-z
1/2-x,1/2+y,-z
1/2+y,1/2+x,-z
1/2-y,1/2-x,-z
-x,-y,-z
y,-x,-z
x,y,-z
-y,x,-z
1/2-x,1/2+y,z
1/2+x,1/2-y,z
1/2-y,1/2-x,z
1/2+y,1/2+x,z
loop_
_atom_site_type_symbol
_atom_site_label
_atom_site_fract_x
_atom_site_fract_y
_atom_site_fract_z
Si Si1 0.999938 0.649012 0.867133
Si Si2 0.241270 0.102970 0.399609
Si Si3 0.101734 0.246898 0.556619
Si Si4 0.898142 0.756787 0.053374
Si Si5 0.355588 0.553445 0.305234
Si Si6 0.259954 0.611067 0.791069
Si Si7 0.608224 0.607038 0.869586
O O1 0.908109 0.591892 0.852026
O O2 0.978948 0.715546 0.912419
O O3 0.081678 0.581678 0.885658
O O4 0.031385 0.703845 0.819795
O O5 0.334076 0.165925 0.405612
O O6 0.151093 0.154820 0.421760
O O7 0.222048 0.083635 0.343678
O O8 0.257851 0.004179 0.425531
O O9 0.100592 0.233952 0.500000
O O10 0.160741 0.339260 0.571466
O O11 0.811691 0.688310 0.049601
O O12 0.862591 0.853259 0.078014
O O13 0.938021 0.776978 0.000000
O O14 0.381506 0.445573 0.312133
O O15 0.312778 0.563687 0.252721
O O16 0.191358 0.691358 0.771761
O O17 0.334814 0.659298 0.827449
O O18 0.500772 0.630063 0.863047
#
# Coordination Sequence:
#
# PCOD8314275 Si02
#       7
#    16  16  16  16  16  16  16
#     4   9  19  38  62  86 113 143 181 235 291 351
#     4  11  22  41  65  95 134 174 220 274 327 381
#     4  10  22  40  65  98 134 177 227 274 324 381
#     4  10  21  38  59  83 110 142 184 234 288 346
#     4  11  23  41  63  90 125 162 205 257 310 371
#     4  11  22  39  62  89 115 148 195 243 299 362
#     4  11  22  38  57  79 111 148 188 231 281 345
#
# _framework density 19.620498000000001
#
# number of rings (size 3 to 8) (size 9 to 14) (size 15 to 20)
#    0.000    1.571    2.857    2.143    0.000    3.429 
#    0.000    5.000    0.000    1.714    0.000    0.000 
#    0.000    0.000    0.000    0.000    0.000    0.000 
#
# Total GULP energy -1388456.913358 kJ/mol
# GULP energy per Si atom -12396.936726 kJ/mol
# Density = 1.957584 g / cm^3
# Si number density = 19.620498 Si / 1000 Ang^3
#
#
#
# Elastic Constant Matrix: (Units=GPa)
#
#
# Indices 1 2 3 4 5 6 
#
# 1 105.8607 36.9257 41.0466 0.0000 0.0000 0.0000
# 2 36.9257 105.8607 41.0466 0.0000 0.0000 0.0000
# 3 41.0466 41.0466 121.8856 0.0000 0.0000 0.0000
# 4 0.0000 0.0000 0.0000 27.9199 0.0000 0.0000
# 5 0.0000 0.0000 0.0000 0.0000 27.9199 0.0000
# 6 0.0000 0.0000 0.0000 0.0000 0.0000 10.1749
#
#
#
# Elastic Compliance Matrix: (Units=1/GPa)
#
#
# Indices 1 2 3 4 5 6 
#
# 1 0.011596 -0.002911 -0.002925 0.000000 0.000000 0.000000
# 2 -0.002911 0.011596 -0.002925 0.000000 0.000000 0.000000
# 3 -0.002925 -0.002925 0.010174 0.000000 0.000000 0.000000
# 4 0.000000 0.000000 0.000000 0.035817 0.000000 0.000000
# 5 0.000000 0.000000 0.000000 0.000000 0.035817 0.000000
# 6 0.000000 0.000000 0.000000 0.000000 0.000000 0.098281
#
#
# Mechanical properties :
#
#
# Convention : Reuss Voigt Hill
#
# Bulk Modulus (GPa) = 63.11048 63.51606 63.31327
# Shear Modulus (GPa) = 22.11576 27.50879 24.81228
#
# Velocity S-wave (km/s) = 3.36099 3.74845 3.55999
# Velocity P-wave (km/s) = 6.87729 7.15381 7.01691
#
# Compressibility (1/GPa) = 0.01584523
#
# Stress axis : x y z
#
# Youngs Moduli (GPa) = 86.23861 86.23861 98.28639
#
# Poissons Ratio (x) = 0.25101 0.28747
# Poissons Ratio (y) = 0.25101 0.28747
# Poissons Ratio (z) = 0.25223 0.25223
#
# Static dielectric constant tensor:
#      x y z
#    x 3.672680 0.000000 0.000000 
#    y 0.000000 3.672680 0.000000 
#    z 0.000000 0.000000 3.657180 
# 
# 
# High freq. dielectric constant tensor:
#      x y z
#    x 1.770640 0.000000 0.000000 
#    y 0.000000 1.770640 0.000000 
#    z 0.000000 0.000000 1.763800 
# 
# From -- ./inp_files/6387.got.cif
#   From: 2010.03.12/outbox.cif.g09.slc.cpg/sg127_4_cif.got.tgz:6387.got - 2010.04.06 17:03:15.
