data_PCOD8314684
_publ_section_title
;
Structure prediction by ZEFSAII (Michael W. Deem and Ramdas Pophale) SiO2 
 PCOD8314684
Probable space group: P 4/M N C
;
_chemical_formula_sum "Si O2"
_cell_formula_units_Z 88
_cell_length_a 14.680387
_cell_length_b 14.680387
_cell_length_c 21.444649
_cell_angle_alpha 90.000000
_cell_angle_beta 90.000000
_cell_angle_gamma 90.000000
_cell_volume 4621.616991
_symmetry_space_group_name_H-M "P 4/M N C"
_symmetry_group_IT_number 128
_symmetry_cell_setting 'tetragonal'
loop_
_space_group_symop_operation_xyz
x,y,z
-y,x,z
-x,-y,z
y,-x,z
1/2+x,1/2-y,1/2-z
1/2-x,1/2+y,1/2-z
1/2+y,1/2+x,1/2-z
1/2-y,1/2-x,1/2-z
-x,-y,-z
y,-x,-z
x,y,-z
-y,x,-z
1/2-x,1/2+y,1/2+z
1/2+x,1/2-y,1/2+z
1/2-y,1/2-x,1/2+z
1/2+y,1/2+x,1/2+z
loop_
_atom_site_type_symbol
_atom_site_label
_atom_site_fract_x
_atom_site_fract_y
_atom_site_fract_z
Si Si1 0.414885 0.625353 0.500000
Si Si2 0.176612 0.838477 0.633656
Si Si3 0.267334 0.508547 0.930314
Si Si4 0.628494 0.580336 0.737720
Si Si5 0.257020 0.366331 0.381984
Si Si6 0.926390 0.569524 0.428642
O O1 0.374980 0.523863 0.500000
O O2 0.376610 0.675975 0.439896
O O3 0.087482 0.778842 0.620621
O O4 0.181010 0.879786 0.702836
O O5 0.262225 0.774171 0.621523
O O6 0.168824 0.922899 0.585797
O O7 0.165678 0.473995 0.924553
O O8 0.289137 0.543594 0.000000
O O9 0.528482 0.623739 0.737375
O O10 0.687221 0.608470 0.678759
O O11 0.167920 0.431067 0.389651
O O12 0.902518 0.543021 0.500000
O O13 0.000000 0.500000 0.399571
#
# Coordination Sequence:
#
# PCOD8314684 Si02
#       6
#     8  16  16  16  16  16
#     4  11  24  42  63  96 128 161 209 266 316 366
#     4  11  22  40  60  89 123 158 203 251 310 372
#     4  10  21  35  61  91 123 154 195 251 306 373
#     4  11  23  42  63  86 118 163 208 258 314 369
#     4  11  23  39  63  90 125 163 208 259 310 374
#     4   9  19  38  60  90 127 163 200 247 311 372
#
# _framework density 19.040956000000001
#
# number of rings (size 3 to 8) (size 9 to 14) (size 15 to 20)
#    0.000    1.545    2.727    2.182    2.545    4.727 
#    0.000    0.909    0.000    4.364    0.000    0.000 
#    0.000    0.000    0.000    0.000    0.000    0.000 
#
# Total GULP energy -1091236.607465 kJ/mol
# GULP energy per Si atom -12400.415994 kJ/mol
# Density = 1.899762 g / cm^3
# Si number density = 19.040956 Si / 1000 Ang^3
#
#
#
# Elastic Constant Matrix: (Units=GPa)
#
#
# Indices 1 2 3 4 5 6 
#
# 1 97.7169 60.2878 61.5667 0.0000 0.0000 0.0000
# 2 60.2878 97.7169 61.5667 0.0000 0.0000 0.0000
# 3 61.5667 61.5667 136.1505 0.0000 0.0000 0.0000
# 4 0.0000 0.0000 0.0000 38.4844 0.0000 0.0000
# 5 0.0000 0.0000 0.0000 0.0000 38.4844 0.0000
# 6 0.0000 0.0000 0.0000 0.0000 0.0000 29.5082
#
#
#
# Elastic Compliance Matrix: (Units=1/GPa)
#
#
# Indices 1 2 3 4 5 6 
#
# 1 0.018245 -0.008472 -0.004419 0.000000 0.000000 0.000000
# 2 -0.008472 0.018245 -0.004419 0.000000 0.000000 0.000000
# 3 -0.004419 -0.004419 0.011342 0.000000 0.000000 0.000000
# 4 0.000000 0.000000 0.000000 0.025985 0.000000 0.000000
# 5 0.000000 0.000000 0.000000 0.000000 0.025985 0.000000
# 6 0.000000 0.000000 0.000000 0.000000 0.000000 0.033889
#
#
# Mechanical properties :
#
#
# Convention : Reuss Voigt Hill
#
# Bulk Modulus (GPa) = 75.69872 77.60301 76.65086
# Shear Modulus (GPa) = 28.94955 31.17295 30.06125
#
# Velocity S-wave (km/s) = 3.90344 4.05056 3.97768
# Velocity P-wave (km/s) = 7.75615 7.91962 7.83831
#
# Compressibility (1/GPa) = 0.01321026
#
# Stress axis : x y z
#
# Youngs Moduli (GPa) = 54.80948 54.80948 88.17141
#
# Poissons Ratio (x) = 0.46436 0.38965
# Poissons Ratio (y) = 0.46436 0.38965
# Poissons Ratio (z) = 0.24222 0.24222
#
# Static dielectric constant tensor:
#      x y z
#    x 3.659490 0.000000 0.000000 
#    y 0.000000 3.659490 0.000000 
#    z 0.000000 0.000000 3.338830 
# 
# 
# High freq. dielectric constant tensor:
#      x y z
#    x 1.747290 0.000000 0.000000 
#    y 0.000000 1.747290 0.000000 
#    z 0.000000 0.000000 1.739840 
# 
# From -- ./inp_files/5625.got.cif
#   From: 2010.03.12/outbox.cif.g09.slc.cpg/sg128_3_cif.got.tgz:5625.got - 2010.04.06 17:11:05.
