data_PCOD8314343
_publ_section_title
;
Structure prediction by ZEFSAII (Michael W. Deem and Ramdas Pophale) SiO2 
 PCOD8314343
Probable space group: P 4/M B M
;
_chemical_formula_sum "Si O2"
_cell_formula_units_Z 72
_cell_length_a 21.013179
_cell_length_b 21.013179
_cell_length_c 7.741575
_cell_angle_alpha 90.000000
_cell_angle_beta 90.000000
_cell_angle_gamma 90.000000
_cell_volume 3418.321021
_symmetry_space_group_name_H-M "P 4/M B M"
_symmetry_group_IT_number 127
_symmetry_cell_setting 'tetragonal'
loop_
_space_group_symop_operation_xyz
x,y,z
-y,x,z
-x,-y,z
y,-x,z
1/2+x,1/2-y,-z
1/2-x,1/2+y,-z
1/2+y,1/2+x,-z
1/2-y,1/2-x,-z
-x,-y,-z
y,-x,-z
x,y,-z
-y,x,-z
1/2-x,1/2+y,z
1/2+x,1/2-y,z
1/2-y,1/2-x,z
1/2+y,1/2+x,z
loop_
_atom_site_type_symbol
_atom_site_label
_atom_site_fract_x
_atom_site_fract_y
_atom_site_fract_z
Si Si1 0.094396 0.954371 0.000000
Si Si2 0.317652 0.916608 0.698078
Si Si3 0.556818 0.842447 0.204205
Si Si4 0.239349 0.156666 0.200909
Si Si5 0.676466 0.600542 0.302889
O O1 0.130693 0.937962 0.176411
O O2 0.029368 0.915479 0.000000
O O3 0.311994 0.898000 0.500000
O O4 0.367285 0.867285 0.788020
O O5 0.247233 0.909320 0.777105
O O6 0.344234 0.987674 0.713526
O O7 0.595313 0.904688 0.267881
O O8 0.594955 0.779208 0.262036
O O9 0.550964 0.842983 0.000000
O O10 0.280063 0.219938 0.236999
O O11 0.174970 0.159300 0.308966
O O12 0.221709 0.151214 0.000000
O O13 0.670167 0.574318 0.500000
#
# Coordination Sequence:
#
# PCOD8314343 Si02
#       5
#     8  16  16  16  16
#     4  11  28  50  69  94 130 167 204 257 325 393
#     4  10  23  40  57  86 127 166 208 260 318 378
#     4   9  20  37  59  89 123 164 214 261 308 373
#     4   9  18  35  60  90 127 169 213 264 322 378
#     4  11  24  41  68  98 127 165 213 265 320 384
#
# _framework density 21.062973
#
# number of rings (size 3 to 8) (size 9 to 14) (size 15 to 20)
#    0.000    2.111    1.111    2.000    4.667    4.444 
#    0.000    5.556    0.000    0.000    0.000    0.000 
#    0.000    0.000    0.000    0.000    0.000    0.000 
#
# Total GULP energy -892794.403132 kJ/mol
# GULP energy per Si atom -12399.922266 kJ/mol
# Density = 2.101503 g / cm^3
# Si number density = 21.062973 Si / 1000 Ang^3
#
#
#
# Elastic Constant Matrix: (Units=GPa)
#
#
# Indices 1 2 3 4 5 6 
#
# 1 139.0848 82.3805 36.8060 0.0000 0.0000 0.0000
# 2 82.3805 139.0848 36.8060 0.0000 0.0000 0.0000
# 3 36.8060 36.8060 72.7239 0.0000 0.0000 0.0000
# 4 0.0000 0.0000 0.0000 25.5111 0.0000 0.0000
# 5 0.0000 0.0000 0.0000 0.0000 25.5111 0.0000
# 6 0.0000 0.0000 0.0000 0.0000 0.0000 26.7562
#
#
#
# Elastic Compliance Matrix: (Units=1/GPa)
#
#
# Indices 1 2 3 4 5 6 
#
# 1 0.011532 -0.006103 -0.002747 0.000000 0.000000 0.000000
# 2 -0.006103 0.011532 -0.002747 0.000000 0.000000 0.000000
# 3 -0.002747 -0.002747 0.016532 0.000000 0.000000 0.000000
# 4 0.000000 0.000000 0.000000 0.039199 0.000000 0.000000
# 5 0.000000 0.000000 0.000000 0.000000 0.039199 0.000000
# 6 0.000000 0.000000 0.000000 0.000000 0.000000 0.037375
#
#
# Mechanical properties :
#
#
# Convention : Reuss Voigt Hill
#
# Bulk Modulus (GPa) = 60.97919 73.65318 67.31618
# Shear Modulus (GPa) = 27.16945 28.54907 27.85926
#
# Velocity S-wave (km/s) = 3.59544 3.68559 3.64079
# Velocity P-wave (km/s) = 6.80073 7.29078 7.05001
#
# Compressibility (1/GPa) = 0.01639904
#
# Stress axis : x y z
#
# Youngs Moduli (GPa) = 86.71544 86.71544 60.49010
#
# Poissons Ratio (x) = 0.52926 0.16619
# Poissons Ratio (y) = 0.52926 0.16619
# Poissons Ratio (z) = 0.23825 0.23825
#
# Static dielectric constant tensor:
#      x y z
#    x 4.004860 0.000000 0.000000 
#    y 0.000000 4.004860 0.000000 
#    z 0.000000 0.000000 3.572850 
# 
# 
# High freq. dielectric constant tensor:
#      x y z
#    x 1.828680 0.000000 0.000000 
#    y 0.000000 1.828680 0.000000 
#    z 0.000000 0.000000 1.814090 
# 
# From -- ./inp_files/1518.got.cif
#   From: 2010.03.12/outbox.cif.g09.slc.cpg/sg127_1_cif.got.tgz:1518.got - 2010.04.06 17:03:15.
