data_PCOD8314231
_publ_section_title
;
Structure prediction by ZEFSAII (Michael W. Deem and Ramdas Pophale) SiO2 
 PCOD8314231
Probable space group: P 4/M B M
;
_chemical_formula_sum "Si O2"
_cell_formula_units_Z 56
_cell_length_a 13.610669
_cell_length_b 13.610669
_cell_length_c 16.009137
_cell_angle_alpha 90.000000
_cell_angle_beta 90.000000
_cell_angle_gamma 90.000000
_cell_volume 2965.697602
_symmetry_space_group_name_H-M "P 4/M B M"
_symmetry_group_IT_number 127
_symmetry_cell_setting 'tetragonal'
loop_
_space_group_symop_operation_xyz
x,y,z
-y,x,z
-x,-y,z
y,-x,z
1/2+x,1/2-y,-z
1/2-x,1/2+y,-z
1/2+y,1/2+x,-z
1/2-y,1/2-x,-z
-x,-y,-z
y,-x,-z
x,y,-z
-y,x,-z
1/2-x,1/2+y,z
1/2+x,1/2-y,z
1/2-y,1/2-x,z
1/2+y,1/2+x,z
loop_
_atom_site_type_symbol
_atom_site_label
_atom_site_fract_x
_atom_site_fract_y
_atom_site_fract_z
Si Si1 0.745229 0.083927 0.748817
Si Si2 0.227878 0.115957 0.828252
Si Si3 0.004620 0.659778 0.407756
Si Si4 0.097034 0.870009 0.000000
O O1 0.645680 0.145680 0.765685
O O2 0.839861 0.154557 0.757083
O O3 0.742082 0.029847 0.658482
O O4 0.755813 0.999568 0.817941
O O5 0.333324 0.166677 0.820531
O O6 0.183253 0.139495 0.918593
O O7 0.015309 0.708360 0.500000
O O8 0.923710 0.576291 0.412065
O O9 0.108669 0.608669 0.381503
O O10 0.980160 0.864517 0.000000
#
# Coordination Sequence:
#
# PCOD8314231 Si02
#       4
#    16  16  16   8
#     4  10  21  36  55  82 113 145 189 233 277 337
#     4  11  22  37  58  82 110 145 183 234 287 333
#     4   8  14  28  52  79 109 145 180 219 269 324
#     4  11  21  38  60  79 106 146 188 227 282 340
#
# _framework density 18.882573000000001
#
# number of rings (size 3 to 8) (size 9 to 14) (size 15 to 20)
#    0.000    2.143    2.857    2.143    0.000    2.286 
#    0.000    2.143    0.000    6.857    0.000    2.000 
#    0.000    0.000    0.000    0.000    0.000    0.000 
#
# Total GULP energy -694139.255910 kJ/mol
# GULP energy per Si atom -12395.343856 kJ/mol
# Density = 1.883960 g / cm^3
# Si number density = 18.882573 Si / 1000 Ang^3
#
#
#
# Elastic Constant Matrix: (Units=GPa)
#
#
# Indices 1 2 3 4 5 6 
#
# 1 73.2385 33.3085 22.2097 0.0000 0.0000 0.0000
# 2 33.3085 73.2385 22.2097 0.0000 0.0000 0.0000
# 3 22.2097 22.2097 101.3099 0.0000 0.0000 0.0000
# 4 0.0000 0.0000 0.0000 27.3317 0.0000 0.0000
# 5 0.0000 0.0000 0.0000 0.0000 27.3317 0.0000
# 6 0.0000 0.0000 0.0000 0.0000 0.0000 16.9625
#
#
#
# Elastic Compliance Matrix: (Units=1/GPa)
#
#
# Indices 1 2 3 4 5 6 
#
# 1 0.017687 -0.007357 -0.002265 0.000000 0.000000 0.000000
# 2 -0.007357 0.017687 -0.002265 0.000000 0.000000 0.000000
# 3 -0.002265 -0.002265 0.010864 0.000000 0.000000 0.000000
# 4 0.000000 0.000000 0.000000 0.036588 0.000000 0.000000
# 5 0.000000 0.000000 0.000000 0.000000 0.036588 0.000000
# 6 0.000000 0.000000 0.000000 0.000000 0.000000 0.058953
#
#
# Mechanical properties :
#
#
# Convention : Reuss Voigt Hill
#
# Bulk Modulus (GPa) = 44.51419 44.80473 44.65946
# Shear Modulus (GPa) = 23.85198 25.66244 24.75721
#
# Velocity S-wave (km/s) = 3.55797 3.69053 3.62486
# Velocity P-wave (km/s) = 6.36430 6.47608 6.42043
#
# Compressibility (1/GPa) = 0.02246475
#
# Stress axis : x y z
#
# Youngs Moduli (GPa) = 56.53959 56.53959 92.05069
#
# Poissons Ratio (x) = 0.41597 0.20845
# Poissons Ratio (y) = 0.41597 0.20845
# Poissons Ratio (z) = 0.12803 0.12803
#
# Static dielectric constant tensor:
#      x y z
#    x 3.290960 0.000000 0.000000 
#    y 0.000000 3.290960 0.000000 
#    z 0.000000 0.000000 3.711260 
# 
# 
# High freq. dielectric constant tensor:
#      x y z
#    x 1.718550 0.000000 0.000000 
#    y 0.000000 1.718550 0.000000 
#    z 0.000000 0.000000 1.735980 
# 
# From -- ./inp_files/4020.got.cif
#   From: 2010.03.12/outbox.cif.g09.slc.cpg/sg127_3_cif.got.tgz:4020.got - 2010.04.06 17:03:15.
