data_PCOD8314340
_publ_section_title
;
Structure prediction by ZEFSAII (Michael W. Deem and Ramdas Pophale) SiO2 
 PCOD8314340
Probable space group: P 4/M B M
;
_chemical_formula_sum "Si O2"
_cell_formula_units_Z 64
_cell_length_a 11.247866
_cell_length_b 11.247866
_cell_length_c 26.043600
_cell_angle_alpha 90.000000
_cell_angle_beta 90.000000
_cell_angle_gamma 90.000000
_cell_volume 3294.892760
_symmetry_space_group_name_H-M "P 4/M B M"
_symmetry_group_IT_number 127
_symmetry_cell_setting 'tetragonal'
loop_
_space_group_symop_operation_xyz
x,y,z
-y,x,z
-x,-y,z
y,-x,z
1/2+x,1/2-y,-z
1/2-x,1/2+y,-z
1/2+y,1/2+x,-z
1/2-y,1/2-x,-z
-x,-y,-z
y,-x,-z
x,y,-z
-y,x,-z
1/2-x,1/2+y,z
1/2+x,1/2-y,z
1/2-y,1/2-x,z
1/2+y,1/2+x,z
loop_
_atom_site_type_symbol
_atom_site_label
_atom_site_fract_x
_atom_site_fract_y
_atom_site_fract_z
Si Si1 0.596230 0.903771 0.055889
Si Si2 0.304801 0.462229 0.500000
Si Si3 0.398906 0.898906 0.424407
Si Si4 0.904549 0.595452 0.310584
Si Si5 0.487508 0.306633 0.875087
Si Si6 0.488672 0.693630 0.241820
O O1 0.697850 0.970216 0.087382
O O2 0.500000 0.000000 0.043467
O O3 0.643232 0.856769 0.000000
O O4 0.406878 0.361781 0.500000
O O5 0.222130 0.446508 0.450103
O O6 0.361045 0.861045 0.366396
O O7 0.500000 0.000000 0.429387
O O8 0.803836 0.528153 0.278728
O O9 0.000000 0.500000 0.325570
O O10 0.608972 0.375599 0.886039
O O11 0.499141 0.261210 0.816645
O O12 0.376207 0.609789 0.252871
#
# Coordination Sequence:
#
# PCOD8314340 Si02
#       6
#     8   8   8   8  16  16
#     4  11  26  39  56  89 121 152 197 251 303 358
#     4  10  22  41  69  93 112 160 215 250 298 359
#     4  10  24  41  59  91 131 159 196 258 307 347
#     4  11  25  37  58  94 127 164 200 241 306 359
#     4   9  21  41  64  87 114 156 202 248 301 356
#     4   9  21  40  61  88 120 158 203 247 294 355
#
# _framework density 19.423998999999998
#
# number of rings (size 3 to 8) (size 9 to 14) (size 15 to 20)
#    0.000    2.250    0.000    2.250   10.500    5.000 
#    0.000    3.750    0.000    0.000    0.000    0.000 
#    0.000    0.000    0.000    0.000    0.000    0.000 
#
# Total GULP energy -793240.927836 kJ/mol
# GULP energy per Si atom -12394.389497 kJ/mol
# Density = 1.937979 g / cm^3
# Si number density = 19.423999 Si / 1000 Ang^3
#
#
#
# Elastic Constant Matrix: (Units=GPa)
#
#
# Indices 1 2 3 4 5 6 
#
# 1 94.9288 46.0759 66.6998 0.0000 0.0000 0.0000
# 2 46.0759 94.9286 66.6997 0.0000 0.0000 0.0000
# 3 66.6998 66.6997 159.3482 0.0000 0.0000 0.0000
# 4 0.0000 0.0000 0.0000 -16.2694 0.0000 0.0000
# 5 0.0000 0.0000 0.0000 0.0000 -16.2692 0.0000
# 6 0.0000 0.0000 0.0000 0.0000 0.0000 27.7513
#
#
#
# Elastic Compliance Matrix: (Units=1/GPa)
#
#
# Indices 1 2 3 4 5 6 
#
# 1 0.016106 -0.004364 -0.004915 0.000000 0.000000 0.000000
# 2 -0.004364 0.016106 -0.004915 0.000000 0.000000 0.000000
# 3 -0.004915 -0.004915 0.010390 0.000000 0.000000 0.000000
# 4 0.000000 0.000000 0.000000 -0.061465 0.000000 0.000000
# 5 0.000000 0.000000 0.000000 0.000000 -0.061466 0.000000
# 6 0.000000 0.000000 0.000000 0.000000 0.000000 0.036034
#
#
# Mechanical properties :
#
#
# Convention : Reuss Voigt Hill
#
# Bulk Modulus (GPa) = 70.35238 78.68403 74.51821
# Shear Modulus (GPa) = -447.63541 10.35789 -218.63876
#
# Velocity S-wave (km/s) = -15.19721 2.31173 -10.62099
# Velocity P-wave (km/s) = 16.48157 6.90812 10.58112
#
# Compressibility (1/GPa) = 0.01421416
#
# Stress axis : x y z
#
# Youngs Moduli (GPa) = 62.08999 62.08988 96.24603
#
# Poissons Ratio (x) = 0.27096 0.47303
# Poissons Ratio (y) = 0.27096 0.47303
# Poissons Ratio (z) = 0.30516 0.30516
#
# Static dielectric constant tensor:
#      x y z
#    x 3.697400 0.000000 0.000000 
#    y 0.000000 3.697400 0.000000 
#    z 0.000000 0.000000 3.595570 
# 
# 
# High freq. dielectric constant tensor:
#      x y z
#    x 1.760700 0.000000 0.000000 
#    y 0.000000 1.760700 0.000000 
#    z 0.000000 0.000000 1.760320 
# 
# From -- ./inp_files/6292.got.cif
#   From: 2010.03.12/outbox.cif.g09.slc.cpg/sg127_4_cif.got.tgz:6292.got - 2010.04.06 17:03:15.
