data_PCOD8314857
_publ_section_title
;
Structure prediction by ZEFSAII (Michael W. Deem and Ramdas Pophale) SiO2 
 PCOD8314857
Probable space group: P 4/N M M
;
_chemical_formula_sum "Si O2"
_cell_formula_units_Z 96
_cell_length_a 22.126456
_cell_length_b 22.126456
_cell_length_c 12.350436
_cell_angle_alpha 90.000000
_cell_angle_beta 90.000000
_cell_angle_gamma 90.000000
_cell_volume 6046.527138
_symmetry_space_group_name_H-M "P 4/N M M"
_symmetry_group_IT_number 129
_symmetry_cell_setting 'tetragonal'
loop_
_space_group_symop_operation_xyz
x,y,z
1/2-y,x,z
1/2-x,1/2-y,z
y,1/2-x,z
1/2+x,-y,-z
-x,1/2+y,-z
1/2+y,1/2+x,-z
-y,-x,-z
-x,-y,-z
1/2+y,-x,-z
1/2+x,1/2+y,-z
-y,1/2+x,-z
1/2-x,y,z
x,1/2-y,z
1/2-y,1/2-x,z
y,x,z
loop_
_atom_site_type_symbol
_atom_site_label
_atom_site_fract_x
_atom_site_fract_y
_atom_site_fract_z
Si Si1 0.182087 0.413353 0.591177
Si Si2 0.533643 0.682353 0.639271
Si Si3 0.820635 0.919178 0.873609
Si Si4 0.032653 0.566503 0.619814
Si Si5 0.386064 0.012612 0.748487
Si Si6 0.998083 0.400856 0.987184
O O1 0.250000 0.392377 0.603119
O O2 0.143095 0.356906 0.629674
O O3 0.165708 0.428717 0.467660
O O4 0.170265 0.469834 0.671991
O O5 0.506997 0.750000 0.630708
O O6 0.576100 0.676143 0.744053
O O7 0.477862 0.636636 0.644925
O O8 0.750000 0.912864 0.910889
O O9 0.859407 0.859407 0.908841
O O10 0.850996 0.980505 0.924197
O O11 0.056885 0.556885 0.500000
O O12 0.083927 0.548525 0.704916
O O13 0.970525 0.529475 0.638352
O O14 0.435167 0.064834 0.735973
O O15 0.366333 0.002097 0.872050
O O16 0.044053 0.455948 0.991358
O O17 0.930382 0.430382 0.000000
#
# Coordination Sequence:
#
# PCOD8314857 Si02
#       6
#    16  16  16  16  16  16
#     4  10  19  30  43  61  88 121 156 192 228 265
#     4  10  19  30  44  65  94 122 153 192 233 277
#     4  10  20  32  47  66  92 129 167 202 237 274
#     4  10  16  25  45  68  90 115 147 183 230 286
#     4   9  17  28  44  66  87 110 143 187 233 278
#     4   9  17  30  47  66  88 114 148 192 242 289
#
# _framework density 15.876882
#
# number of rings (size 3 to 8) (size 9 to 14) (size 15 to 20)
#    0.000    2.333    1.667    2.500    0.000    3.667 
#    0.000    0.000    0.000    3.000    0.000    4.667 
#    0.000    2.667    0.000   10.833    0.000    2.500 
#
# Total GULP energy -1189716.854964 kJ/mol
# GULP energy per Si atom -12392.883906 kJ/mol
# Density = 1.584075 g / cm^3
# Si number density = 15.876882 Si / 1000 Ang^3
#
#
#
# Elastic Constant Matrix: (Units=GPa)
#
#
# Indices 1 2 3 4 5 6 
#
# 1 67.0708 44.1193 28.1119 0.0000 0.0000 0.0000
# 2 44.1193 67.0708 28.1119 0.0000 0.0000 0.0000
# 3 28.1119 28.1119 86.1438 0.0000 0.0000 0.0000
# 4 0.0000 0.0000 0.0000 16.8500 0.0000 0.0000
# 5 0.0000 0.0000 0.0000 0.0000 16.8500 0.0000
# 6 0.0000 0.0000 0.0000 0.0000 0.0000 17.4228
#
#
#
# Elastic Compliance Matrix: (Units=1/GPa)
#
#
# Indices 1 2 3 4 5 6 
#
# 1 0.027171 -0.016400 -0.003515 0.000000 0.000000 0.000000
# 2 -0.016400 0.027171 -0.003515 0.000000 0.000000 0.000000
# 3 -0.003515 -0.003515 0.013903 0.000000 0.000000 0.000000
# 4 0.000000 0.000000 0.000000 0.059347 0.000000 0.000000
# 5 0.000000 0.000000 0.000000 0.000000 0.059347 0.000000
# 6 0.000000 0.000000 0.000000 0.000000 0.000000 0.057396
#
#
# Mechanical properties :
#
#
# Convention : Reuss Voigt Hill
#
# Bulk Modulus (GPa) = 46.76241 46.77462 46.76851
# Shear Modulus (GPa) = 16.76044 18.22071 17.49057
#
# Velocity S-wave (km/s) = 3.25260 3.39134 3.32269
# Velocity P-wave (km/s) = 6.60477 6.69774 6.65142
#
# Compressibility (1/GPa) = 0.02138470
#
# Stress axis : x y z
#
# Youngs Moduli (GPa) = 36.80458 36.80458 71.92893
#
# Poissons Ratio (x) = 0.60358 0.25283
# Poissons Ratio (y) = 0.60358 0.25283
# Poissons Ratio (z) = 0.12937 0.12937
#
# Static dielectric constant tensor:
#      x y z
#    x 2.916530 0.000000 0.000000 
#    y 0.000000 2.916530 0.000000 
#    z 0.000000 0.000000 3.219190 
# 
# 
# High freq. dielectric constant tensor:
#      x y z
#    x 1.580550 0.000000 0.000000 
#    y 0.000000 1.580550 0.000000 
#    z 0.000000 0.000000 1.625400 
# 
# From -- ./inp_files/3819.got.cif
#   From: 2010.03.12/outbox.cif.g09.slc.cpg/sg129_2_cif.got.tgz:3819.got - 2010.04.06 17:19:44.
