data_PCOD8314737
_publ_section_title
;
Structure prediction by ZEFSAII (Michael W. Deem and Ramdas Pophale) SiO2 
 PCOD8314737
Probable space group: P 4/M N C
;
_chemical_formula_sum "Si O2"
_cell_formula_units_Z 88
_cell_length_a 13.907009
_cell_length_b 13.907009
_cell_length_c 22.710553
_cell_angle_alpha 90.000000
_cell_angle_beta 90.000000
_cell_angle_gamma 90.000000
_cell_volume 4392.332217
_symmetry_space_group_name_H-M "P 4/M N C"
_symmetry_group_IT_number 128
_symmetry_cell_setting 'tetragonal'
loop_
_space_group_symop_operation_xyz
x,y,z
-y,x,z
-x,-y,z
y,-x,z
1/2+x,1/2-y,1/2-z
1/2-x,1/2+y,1/2-z
1/2+y,1/2+x,1/2-z
1/2-y,1/2-x,1/2-z
-x,-y,-z
y,-x,-z
x,y,-z
-y,x,-z
1/2-x,1/2+y,1/2+z
1/2+x,1/2-y,1/2+z
1/2-y,1/2-x,1/2+z
1/2+y,1/2+x,1/2+z
loop_
_atom_site_type_symbol
_atom_site_label
_atom_site_fract_x
_atom_site_fract_y
_atom_site_fract_z
Si Si1 0.034704 0.391057 0.566843
Si Si2 0.926918 0.336176 0.674842
Si Si3 0.136909 0.067480 0.721965
Si Si4 0.610834 0.110834 0.750000
Si Si5 0.723699 0.408742 0.656624
Si Si6 0.230183 0.388401 0.367137
O O1 0.024605 0.355324 0.500000
O O2 0.143875 0.373299 0.587301
O O3 0.000000 0.500000 0.574212
O O4 0.963166 0.330242 0.607652
O O5 0.891142 0.229363 0.689630
O O6 0.832555 0.401511 0.681913
O O7 0.008575 0.380395 0.717120
O O8 0.146969 0.077701 0.791700
O O9 0.043931 0.127335 0.702795
O O10 0.620395 0.195470 0.701347
O O11 0.724033 0.506616 0.618716
O O12 0.691180 0.313570 0.620474
#
# Coordination Sequence:
#
# PCOD8314737 Si02
#       6
#    16  16  16   8  16  16
#     4  10  22  44  65  85 114 150 203 264 316 354
#     4  11  23  35  60  90 119 159 202 257 304 369
#     4  11  23  37  54  85 132 173 195 230 297 378
#     4  10  22  35  52  88 124 151 194 242 310 361
#     4  12  22  35  56  89 125 159 202 238 302 363
#     4  11  24  36  57  90 120 162 198 246 300 373
#
# _framework density 20.034915000000002
#
# number of rings (size 3 to 8) (size 9 to 14) (size 15 to 20)
#    0.000    1.091    5.455    0.545    7.636    1.091 
#    0.000    1.818    0.000    0.000    0.000    2.545 
#    0.000    0.000    0.000    0.000    0.000    0.000 
#
# Total GULP energy -1091141.703143 kJ/mol
# GULP energy per Si atom -12399.337536 kJ/mol
# Density = 1.998931 g / cm^3
# Si number density = 20.034915 Si / 1000 Ang^3
#
#
#
# Elastic Constant Matrix: (Units=GPa)
#
#
# Indices 1 2 3 4 5 6 
#
# 1 74.7357 21.4266 10.9964 0.0000 0.0000 0.0000
# 2 21.4266 74.7357 10.9964 0.0000 0.0000 0.0000
# 3 10.9964 10.9964 82.0738 0.0000 0.0000 0.0000
# 4 0.0000 0.0000 0.0000 16.3988 0.0000 0.0000
# 5 0.0000 0.0000 0.0000 0.0000 16.3988 0.0000
# 6 0.0000 0.0000 0.0000 0.0000 0.0000 34.9731
#
#
#
# Elastic Compliance Matrix: (Units=1/GPa)
#
#
# Indices 1 2 3 4 5 6 
#
# 1 0.014743 -0.004015 -0.001437 0.000000 0.000000 0.000000
# 2 -0.004015 0.014743 -0.001437 0.000000 0.000000 0.000000
# 3 -0.001437 -0.001437 0.012569 0.000000 0.000000 0.000000
# 4 0.000000 0.000000 0.000000 0.060980 0.000000 0.000000
# 5 0.000000 0.000000 0.000000 0.000000 0.060980 0.000000
# 6 0.000000 0.000000 0.000000 0.000000 0.000000 0.028593
#
#
# Mechanical properties :
#
#
# Convention : Reuss Voigt Hill
#
# Bulk Modulus (GPa) = 35.36617 35.37599 35.37108
# Shear Modulus (GPa) = 23.16804 26.09585 24.63195
#
# Velocity S-wave (km/s) = 3.40425 3.61296 3.51016
# Velocity P-wave (km/s) = 5.75695 5.92454 5.84135
#
# Compressibility (1/GPa) = 0.02827561
#
# Stress axis : x y z
#
# Youngs Moduli (GPa) = 67.82796 67.82796 79.55884
#
# Poissons Ratio (x) = 0.27235 0.11435
# Poissons Ratio (y) = 0.27235 0.11435
# Poissons Ratio (z) = 0.09749 0.09749
#
# Static dielectric constant tensor:
#      x y z
#    x 3.706930 0.000000 0.000000 
#    y 0.000000 3.706930 0.000000 
#    z 0.000000 0.000000 3.340340 
# 
# 
# High freq. dielectric constant tensor:
#      x y z
#    x 1.791100 0.000000 0.000000 
#    y 0.000000 1.791100 0.000000 
#    z 0.000000 0.000000 1.728260 
# 
# From -- ./inp_files/5653.got.cif
#   From: 2010.03.12/outbox.cif.g09.slc.cpg/sg128_3_cif.got.tgz:5653.got - 2010.04.06 17:11:05.
