data_PCOD8314252
_publ_section_title
;
Structure prediction by ZEFSAII (Michael W. Deem and Ramdas Pophale) SiO2 
 PCOD8314252
Probable space group: P 4/M B M
;
_chemical_formula_sum "Si O2"
_cell_formula_units_Z 88
_cell_length_a 13.897097
_cell_length_b 13.897097
_cell_length_c 25.796723
_cell_angle_alpha 90.000000
_cell_angle_beta 90.000000
_cell_angle_gamma 90.000000
_cell_volume 4982.103185
_symmetry_space_group_name_H-M "P 4/M B M"
_symmetry_group_IT_number 127
_symmetry_cell_setting 'tetragonal'
loop_
_space_group_symop_operation_xyz
x,y,z
-y,x,z
-x,-y,z
y,-x,z
1/2+x,1/2-y,-z
1/2-x,1/2+y,-z
1/2+y,1/2+x,-z
1/2-y,1/2-x,-z
-x,-y,-z
y,-x,-z
x,y,-z
-y,x,-z
1/2-x,1/2+y,z
1/2+x,1/2-y,z
1/2-y,1/2-x,z
1/2+y,1/2+x,z
loop_
_atom_site_type_symbol
_atom_site_label
_atom_site_fract_x
_atom_site_fract_y
_atom_site_fract_z
Si Si1 0.350829 0.553110 0.000000
Si Si2 0.397743 0.739945 0.732142
Si Si3 0.758341 0.900446 0.783840
Si Si4 0.259799 0.398054 0.388545
Si Si5 0.741046 0.400214 0.560151
Si Si6 0.150770 0.053651 0.111753
O O1 0.380085 0.443062 0.000000
O O2 0.297522 0.572176 0.055179
O O3 0.332671 0.832671 0.743310
O O4 0.355106 0.646841 0.761057
O O5 0.502382 0.763984 0.753507
O O6 0.402730 0.715266 0.671782
O O7 0.667652 0.832349 0.774633
O O8 0.771731 0.919779 0.844841
O O9 0.166847 0.333154 0.399842
O O10 0.235562 0.502859 0.409581
O O11 0.352513 0.356095 0.418040
O O12 0.726115 0.422735 0.500000
O O13 0.830528 0.330528 0.570399
O O14 0.057310 0.120719 0.117635
#
# Coordination Sequence:
#
# PCOD8314252 Si02
#       6
#     8  16  16  16  16  16
#     4   7  12  22  43  72 102 133 166 216 270 311
#     4  10  22  37  54  78 106 137 177 216 257 311
#     4  11  21  34  53  77 106 139 178 222 264 312
#     4  10  21  38  57  78 107 141 173 211 257 309
#     4  10  21  37  57  81 107 135 171 214 259 308
#     4   9  15  28  49  75 104 135 175 220 268 314
#
# _framework density 17.663222000000001
#
# number of rings (size 3 to 8) (size 9 to 14) (size 15 to 20)
#    0.000    2.273    1.818    2.727    0.000    4.727 
#    0.000    5.909    0.000    0.000    0.000    0.636 
#    0.000    1.455    0.000    0.000    0.000    0.000 
#
# Total GULP energy -1091024.430302 kJ/mol
# GULP energy per Si atom -12398.004890 kJ/mol
# Density = 1.762302 g / cm^3
# Si number density = 17.663222 Si / 1000 Ang^3
#
#
#
# Elastic Constant Matrix: (Units=GPa)
#
#
# Indices 1 2 3 4 5 6 
#
# 1 75.0139 16.6941 27.1311 0.0000 0.0000 0.0000
# 2 16.6941 75.0139 27.1311 0.0000 0.0000 0.0000
# 3 27.1311 27.1311 72.2001 0.0000 0.0000 0.0000
# 4 0.0000 0.0000 0.0000 21.0302 0.0000 0.0000
# 5 0.0000 0.0000 0.0000 0.0000 21.0302 0.0000
# 6 0.0000 0.0000 0.0000 0.0000 0.0000 11.8484
#
#
#
# Elastic Compliance Matrix: (Units=1/GPa)
#
#
# Indices 1 2 3 4 5 6 
#
# 1 0.015584 -0.001563 -0.005269 0.000000 0.000000 0.000000
# 2 -0.001563 0.015584 -0.005269 0.000000 0.000000 0.000000
# 3 -0.005269 -0.005269 0.017810 0.000000 0.000000 0.000000
# 4 0.000000 0.000000 0.000000 0.047551 0.000000 0.000000
# 5 0.000000 0.000000 0.000000 0.000000 0.047551 0.000000
# 6 0.000000 0.000000 0.000000 0.000000 0.000000 0.084400
#
#
# Mechanical properties :
#
#
# Convention : Reuss Voigt Hill
#
# Bulk Modulus (GPa) = 40.35885 40.46007 40.40946
# Shear Modulus (GPa) = 19.16144 20.86652 20.01398
#
# Velocity S-wave (km/s) = 3.29724 3.44081 3.36979
# Velocity P-wave (km/s) = 6.11509 6.22428 6.16993
#
# Compressibility (1/GPa) = 0.02477771
#
# Stress axis : x y z
#
# Youngs Moduli (GPa) = 64.16710 64.16710 56.14709
#
# Poissons Ratio (x) = 0.10026 0.29584
# Poissons Ratio (y) = 0.10026 0.29584
# Poissons Ratio (z) = 0.33810 0.33810
#
# Static dielectric constant tensor:
#      x y z
#    x 3.069340 0.000000 0.000000 
#    y 0.000000 3.069340 0.000000 
#    z 0.000000 0.000000 3.673700 
# 
# 
# High freq. dielectric constant tensor:
#      x y z
#    x 1.663850 0.000000 0.000000 
#    y 0.000000 1.663850 0.000000 
#    z 0.000000 0.000000 1.709110 
# 
# From -- ./inp_files/6082.got.cif
#   From: 2010.03.12/outbox.cif.g09.slc.cpg/sg127_4_cif.got.tgz:6082.got - 2010.04.06 17:03:15.
