data_PCOD8314077
_publ_section_title
;
Structure prediction by ZEFSAII (Michael W. Deem and Ramdas Pophale) SiO2 
 PCOD8314077
Probable space group: P 4/M B M
;
_chemical_formula_sum "Si O2"
_cell_formula_units_Z 96
_cell_length_a 24.080497
_cell_length_b 24.080497
_cell_length_c 9.011658
_cell_angle_alpha 90.000000
_cell_angle_beta 90.000000
_cell_angle_gamma 90.000000
_cell_volume 5225.593150
_symmetry_space_group_name_H-M "P 4/M B M"
_symmetry_group_IT_number 127
_symmetry_cell_setting 'tetragonal'
loop_
_space_group_symop_operation_xyz
x,y,z
-y,x,z
-x,-y,z
y,-x,z
1/2+x,1/2-y,-z
1/2-x,1/2+y,-z
1/2+y,1/2+x,-z
1/2-y,1/2-x,-z
-x,-y,-z
y,-x,-z
x,y,-z
-y,x,-z
1/2-x,1/2+y,z
1/2+x,1/2-y,z
1/2-y,1/2-x,z
1/2+y,1/2+x,z
loop_
_atom_site_type_symbol
_atom_site_label
_atom_site_fract_x
_atom_site_fract_y
_atom_site_fract_z
Si Si1 0.298462 0.488230 0.671318
Si Si2 0.670220 0.829781 0.823499
Si Si3 0.239190 0.260810 0.823461
Si Si4 0.499068 0.409336 0.167526
Si Si5 0.299277 0.049365 0.825936
Si Si6 0.876404 0.741748 0.326679
Si Si7 0.853955 0.560937 0.169722
O O1 0.288239 0.500512 0.500000
O O2 0.360736 0.502767 0.713876
O O3 0.258514 0.528908 0.760535
O O4 0.287742 0.423344 0.707808
O O5 0.715440 0.784560 0.771134
O O6 0.685310 0.890618 0.758434
O O7 0.667824 0.832177 0.000000
O O8 0.257812 0.320522 0.760361
O O9 0.235652 0.264348 0.000000
O O10 0.553974 0.444976 0.195087
O O11 0.499300 0.385612 0.000000
O O12 0.347583 0.004035 0.786694
O O13 0.291150 0.055318 0.000000
O O14 0.862196 0.737679 0.500000
O O15 0.899941 0.682888 0.273637
O O16 0.917905 0.582096 0.187655
O O17 0.833690 0.569128 0.000000
#
# Coordination Sequence:
#
# PCOD8314077 Si02
#       7
#    16   8   8  16  16  16  16
#     4  10  21  35  53  80 110 139 175 217 267 323
#     4   9  20  37  54  73 102 144 185 219 257 308
#     4  11  21  33  51  74 101 135 179 224 264 309
#     4   9  19  36  56  77 102 135 176 219 263 313
#     4   9  18  35  55  74 102 140 179 216 259 313
#     4  10  20  33  49  74 106 136 167 210 264 316
#     4   9  16  28  51  80 104 128 163 210 258 306
#
# _framework density 18.371119
#
# number of rings (size 3 to 8) (size 9 to 14) (size 15 to 20)
#    0.000    2.500    0.833    1.750    0.000    4.000 
#    0.000    8.333    0.000    2.500    0.000    0.000 
#    0.000    5.333    0.000    0.000    0.000    0.000 
#
# Total GULP energy -1190118.988204 kJ/mol
# GULP energy per Si atom -12397.072794 kJ/mol
# Density = 1.832931 g / cm^3
# Si number density = 18.371119 Si / 1000 Ang^3
#
#
#
# Elastic Constant Matrix: (Units=GPa)
#
#
# Indices 1 2 3 4 5 6 
#
# 1 125.7420 65.1395 35.7058 0.0000 0.0000 0.0000
# 2 65.1395 125.7418 35.7060 0.0000 0.0000 0.0000
# 3 35.7058 35.7060 48.8096 0.0000 0.0000 0.0000
# 4 0.0000 0.0000 0.0000 16.2832 0.0000 0.0000
# 5 0.0000 0.0000 0.0000 0.0000 16.2832 0.0000
# 6 0.0000 0.0000 0.0000 0.0000 0.0000 20.6612
#
#
#
# Elastic Compliance Matrix: (Units=1/GPa)
#
#
# Indices 1 2 3 4 5 6 
#
# 1 0.011857 -0.004644 -0.005276 0.000000 0.000000 0.000000
# 2 -0.004644 0.011857 -0.005277 0.000000 0.000000 0.000000
# 3 -0.005276 -0.005277 0.028208 0.000000 0.000000 0.000000
# 4 0.000000 0.000000 0.000000 0.061413 0.000000 0.000000
# 5 0.000000 0.000000 0.000000 0.000000 0.061413 0.000000
# 6 0.000000 0.000000 0.000000 0.000000 0.000000 0.048400
#
#
# Mechanical properties :
#
#
# Convention : Reuss Voigt Hill
#
# Bulk Modulus (GPa) = 46.45221 63.71067 55.08144
# Shear Modulus (GPa) = 19.17787 21.56165 20.36976
#
# Velocity S-wave (km/s) = 3.23447 3.42960 3.33347
# Velocity P-wave (km/s) = 6.26813 7.10197 6.69804
#
# Compressibility (1/GPa) = 0.02152750
#
# Stress axis : x y z
#
# Youngs Moduli (GPa) = 84.33906 84.33864 35.45140
#
# Poissons Ratio (x) = 0.39167 0.18706
# Poissons Ratio (y) = 0.39168 0.18706
# Poissons Ratio (z) = 0.44501 0.44502
#
# Static dielectric constant tensor:
#      x y z
#    x 3.424570 0.000000 0.000000 
#    y 0.000000 3.424580 0.000000 
#    z 0.000000 0.000000 3.274230 
# 
# 
# High freq. dielectric constant tensor:
#      x y z
#    x 1.707460 0.000000 0.000000 
#    y 0.000000 1.707460 0.000000 
#    z 0.000000 0.000000 1.703830 
# 
# From -- ./inp_files/2084.got.cif
#   From: 2010.03.12/outbox.cif.g09.slc.cpg/sg127_2_cif.got.tgz:2084.got - 2010.04.06 17:03:15.
