data_PCOD8314450
_publ_section_title
;
Structure prediction by ZEFSAII (Michael W. Deem and Ramdas Pophale) SiO2 
 PCOD8314450
Probable space group: P 4/M B M
;
_chemical_formula_sum "Si O2"
_cell_formula_units_Z 96
_cell_length_a 23.432715
_cell_length_b 23.432715
_cell_length_c 9.296862
_cell_angle_alpha 90.000000
_cell_angle_beta 90.000000
_cell_angle_gamma 90.000000
_cell_volume 5104.833779
_symmetry_space_group_name_H-M "P 4/M B M"
_symmetry_group_IT_number 127
_symmetry_cell_setting 'tetragonal'
loop_
_space_group_symop_operation_xyz
x,y,z
-y,x,z
-x,-y,z
y,-x,z
1/2+x,1/2-y,-z
1/2-x,1/2+y,-z
1/2+y,1/2+x,-z
1/2-y,1/2-x,-z
-x,-y,-z
y,-x,-z
x,y,-z
-y,x,-z
1/2-x,1/2+y,z
1/2+x,1/2-y,z
1/2-y,1/2-x,z
1/2+y,1/2+x,z
loop_
_atom_site_type_symbol
_atom_site_label
_atom_site_fract_x
_atom_site_fract_y
_atom_site_fract_z
Si Si1 0.500423 0.907424 0.167133
Si Si2 0.520341 0.793518 0.667811
Si Si3 0.725797 0.681444 0.834776
Si Si4 0.302246 0.429004 0.668155
Si Si5 0.464468 0.585916 0.166389
Si Si6 0.774034 0.367785 0.837828
O O1 0.556690 0.943311 0.210246
O O2 0.496440 0.850102 0.257736
O O3 0.444279 0.944279 0.200619
O O4 0.503334 0.891258 0.000000
O O5 0.524239 0.806156 0.500000
O O6 0.479721 0.740836 0.703854
O O7 0.581996 0.775940 0.724138
O O8 0.782121 0.717880 0.800318
O O9 0.725798 0.627810 0.730884
O O10 0.669789 0.718747 0.803901
O O11 0.726243 0.661153 0.000000
O O12 0.311681 0.420619 0.500000
O O13 0.363121 0.441721 0.737363
O O14 0.426619 0.530410 0.202045
O O15 0.457441 0.602693 0.000000
O O16 0.830894 0.330894 0.820908
O O17 0.770688 0.392367 0.000000
#
# Coordination Sequence:
#
# PCOD8314450 Si02
#       6
#    16  16  16  16  16  16
#     4   9  19  37  60  84 110 144 189 239 287 333
#     4  11  24  37  51  81 120 153 186 225 274 336
#     4   9  20  40  63  85 109 143 192 242 285 332
#     4  11  25  39  54  83 122 158 190 229 282 345
#     4   9  20  40  64  88 112 143 190 244 292 339
#     4   9  19  37  61  86 110 140 183 237 287 328
#
# _framework density 18.805705
#
# number of rings (size 3 to 8) (size 9 to 14) (size 15 to 20)
#    0.000    2.333    0.000    3.500    2.333    8.000 
#    0.000    6.667    0.000    0.000    0.000    0.000 
#    0.000    0.000    0.000    0.000    0.000    0.000 
#
# Total GULP energy -1190672.535712 kJ/mol
# GULP energy per Si atom -12402.838914 kJ/mol
# Density = 1.876290 g / cm^3
# Si number density = 18.805705 Si / 1000 Ang^3
#
#
#
# Elastic Constant Matrix: (Units=GPa)
#
#
# Indices 1 2 3 4 5 6 
#
# 1 70.5270 50.8148 53.9883 0.0000 0.0000 0.0000
# 2 50.8148 70.5270 53.9883 0.0000 0.0000 0.0000
# 3 53.9883 53.9883 80.7000 0.0000 0.0000 0.0000
# 4 0.0000 0.0000 0.0000 20.2591 0.0000 0.0000
# 5 0.0000 0.0000 0.0000 0.0000 20.2591 0.0000
# 6 0.0000 0.0000 0.0000 0.0000 0.0000 15.9747
#
#
#
# Elastic Compliance Matrix: (Units=1/GPa)
#
#
# Indices 1 2 3 4 5 6 
#
# 1 0.035547 -0.015183 -0.013624 0.000000 0.000000 0.000000
# 2 -0.015183 0.035547 -0.013624 0.000000 0.000000 0.000000
# 3 -0.013624 -0.013624 0.030620 0.000000 0.000000 0.000000
# 4 0.000000 0.000000 0.000000 0.049361 0.000000 0.000000
# 5 0.000000 0.000000 0.000000 0.000000 0.049361 0.000000
# 6 0.000000 0.000000 0.000000 0.000000 0.000000 0.062599
#
#
# Mechanical properties :
#
#
# Convention : Reuss Voigt Hill
#
# Bulk Modulus (GPa) = 59.33361 59.92629 59.62995
# Shear Modulus (GPa) = 14.14375 15.49608 14.81991
#
# Velocity S-wave (km/s) = 2.74542 2.87367 2.81028
# Velocity P-wave (km/s) = 6.45516 6.55331 6.50442
#
# Compressibility (1/GPa) = 0.01685385
#
# Stress axis : x y z
#
# Youngs Moduli (GPa) = 28.13163 28.13163 32.65826
#
# Poissons Ratio (x) = 0.42712 0.44493
# Poissons Ratio (y) = 0.42712 0.44493
# Poissons Ratio (z) = 0.38326 0.38326
#
# Static dielectric constant tensor:
#      x y z
#    x 3.453700 0.000000 0.000000 
#    y 0.000000 3.453700 0.000000 
#    z 0.000000 0.000000 3.374630 
# 
# 
# High freq. dielectric constant tensor:
#      x y z
#    x 1.737360 0.000000 0.000000 
#    y 0.000000 1.737360 0.000000 
#    z 0.000000 0.000000 1.726900 
# 
# From -- ./inp_files/1972.got.cif
#   From: 2010.03.12/outbox.cif.g09.slc.cpg/sg127_1_cif.got.tgz:1972.got - 2010.04.06 17:03:15.
