data_PCOD8314925
_publ_section_title
;
Structure prediction by ZEFSAII (Michael W. Deem and Ramdas Pophale) SiO2 
 PCOD8314925
Probable space group: P 4/N M M
;
_chemical_formula_sum "Si O2"
_cell_formula_units_Z 128
_cell_length_a 18.282562
_cell_length_b 18.282562
_cell_length_c 24.159407
_cell_angle_alpha 90.000000
_cell_angle_beta 90.000000
_cell_angle_gamma 90.000000
_cell_volume 8075.331879
_symmetry_space_group_name_H-M "P 4/N M M"
_symmetry_group_IT_number 129
_symmetry_cell_setting 'tetragonal'
loop_
_space_group_symop_operation_xyz
x,y,z
1/2-y,x,z
1/2-x,1/2-y,z
y,1/2-x,z
1/2+x,-y,-z
-x,1/2+y,-z
1/2+y,1/2+x,-z
-y,-x,-z
-x,-y,-z
1/2+y,-x,-z
1/2+x,1/2+y,-z
-y,1/2+x,-z
1/2-x,y,z
x,1/2-y,z
1/2-y,1/2-x,z
y,x,z
loop_
_atom_site_type_symbol
_atom_site_label
_atom_site_fract_x
_atom_site_fract_y
_atom_site_fract_z
Si Si1 0.592621 0.333191 0.277970
Si Si2 0.164301 0.666511 0.832807
Si Si3 0.548839 0.666050 0.561918
Si Si4 0.446946 0.168803 0.096540
Si Si5 0.943734 0.670776 0.778807
Si Si6 0.951855 0.834140 0.431684
Si Si7 0.058035 0.938124 0.626436
Si Si8 0.897783 0.333359 0.054418
O O1 0.620921 0.250000 0.293254
O O2 0.633778 0.367154 0.224252
O O3 0.507542 0.328539 0.265207
O O4 0.600753 0.393235 0.325864
O O5 0.250000 0.659294 0.831742
O O6 0.135755 0.750000 0.833593
O O7 0.135398 0.629564 0.889674
O O8 0.551882 0.750000 0.584143
O O9 0.625480 0.625480 0.576378
O O10 0.535171 0.665457 0.496853
O O11 0.481147 0.622230 0.588239
O O12 0.414081 0.250000 0.093346
O O13 0.385150 0.114851 0.074634
O O14 0.471818 0.150186 0.159498
O O15 0.515285 0.161281 0.056234
O O16 0.905871 0.750000 0.781098
O O17 0.885211 0.614790 0.755561
O O18 0.947817 0.750000 0.409815
O O19 0.875782 0.875782 0.416792
O O20 0.020199 0.877423 0.405679
O O21 0.997589 0.997589 0.647887
O O22 0.869700 0.250000 0.049715
O O23 0.875676 0.375676 0.000000
#
# Coordination Sequence:
#
# PCOD8314925 Si02
#       8
#    16  16  16  16  16  16  16  16
#     4  10  18  29  44  62  86 119 155 188 221 261
#     4   9  17  29  43  60  83 111 144 180 219 263
#     4   9  17  30  48  70  96 125 156 191 230 271
#     4   9  17  29  44  62  86 114 145 180 217 259
#     4   9  16  27  42  59  82 112 145 182 220 257
#     4   9  18  32  50  71  94 119 149 190 237 282
#     4  10  19  30  46  68  92 121 157 190 227 275
#     4  10  18  29  45  66  89 114 144 180 223 272
#
# _framework density 15.850740999999999
#
# number of rings (size 3 to 8) (size 9 to 14) (size 15 to 20)
#    0.000    2.625    1.250    1.500    0.000    3.375 
#    0.000    2.500    0.000    1.125    0.000    5.250 
#    0.000    0.000    0.000    0.000    0.000   10.500 
#
# Total GULP energy -1586266.360719 kJ/mol
# GULP energy per Si atom -12392.705943 kJ/mol
# Density = 1.581466 g / cm^3
# Si number density = 15.850741 Si / 1000 Ang^3
#
#
#
# Elastic Constant Matrix: (Units=GPa)
#
#
# Indices 1 2 3 4 5 6 
#
# 1 77.0811 38.6305 34.0589 0.0000 0.0000 0.0000
# 2 38.6305 77.0811 34.0589 0.0000 0.0000 0.0000
# 3 34.0589 34.0589 65.2303 0.0000 0.0000 0.0000
# 4 0.0000 0.0000 0.0000 19.4829 0.0000 0.0000
# 5 0.0000 0.0000 0.0000 0.0000 19.4829 0.0000
# 6 0.0000 0.0000 0.0000 0.0000 0.0000 19.1370
#
#
#
# Elastic Compliance Matrix: (Units=1/GPa)
#
#
# Indices 1 2 3 4 5 6 
#
# 1 0.019242 -0.006765 -0.006515 0.000000 0.000000 0.000000
# 2 -0.006765 0.019242 -0.006515 0.000000 0.000000 0.000000
# 3 -0.006515 -0.006515 0.022134 0.000000 0.000000 0.000000
# 4 0.000000 0.000000 0.000000 0.051327 0.000000 0.000000
# 5 0.000000 0.000000 0.000000 0.000000 0.051327 0.000000
# 6 0.000000 0.000000 0.000000 0.000000 0.000000 0.052255
#
#
# Mechanical properties :
#
#
# Convention : Reuss Voigt Hill
#
# Bulk Modulus (GPa) = 47.55366 48.09881 47.82623
# Shear Modulus (GPa) = 19.07479 19.13019 19.10249
#
# Velocity S-wave (km/s) = 3.47277 3.47781 3.47529
# Velocity P-wave (km/s) = 6.79310 6.82185 6.80749
#
# Compressibility (1/GPa) = 0.02102888
#
# Stress axis : x y z
#
# Youngs Moduli (GPa) = 51.96858 51.96858 45.18030
#
# Poissons Ratio (x) = 0.35157 0.29434
# Poissons Ratio (y) = 0.35157 0.29434
# Poissons Ratio (z) = 0.33857 0.33857
#
# Static dielectric constant tensor:
#      x y z
#    x 2.982020 0.000000 0.000000 
#    y 0.000000 2.982020 0.000000 
#    z 0.000000 0.000000 2.947480 
# 
# 
# High freq. dielectric constant tensor:
#      x y z
#    x 1.596830 0.000000 0.000000 
#    y 0.000000 1.596830 0.000000 
#    z 0.000000 0.000000 1.599320 
# 
# From -- ./inp_files/7300.got.cif
#   From: 2010.03.12/outbox.cif.g09.slc.cpg/sg129_4_cif.got.tgz:7300.got - 2010.04.06 17:19:44.
