data_PCOD8314650
_publ_section_title
;
Structure prediction by ZEFSAII (Michael W. Deem and Ramdas Pophale) SiO2 
 PCOD8314650
Probable space group: P 4/M N C
;
_chemical_formula_sum "Si O2"
_cell_formula_units_Z 96
_cell_length_a 23.342415
_cell_length_b 23.342415
_cell_length_c 9.169915
_cell_angle_alpha 90.000000
_cell_angle_beta 90.000000
_cell_angle_gamma 90.000000
_cell_volume 4996.396346
_symmetry_space_group_name_H-M "P 4/M N C"
_symmetry_group_IT_number 128
_symmetry_cell_setting 'tetragonal'
loop_
_space_group_symop_operation_xyz
x,y,z
-y,x,z
-x,-y,z
y,-x,z
1/2+x,1/2-y,1/2-z
1/2-x,1/2+y,1/2-z
1/2+y,1/2+x,1/2-z
1/2-y,1/2-x,1/2-z
-x,-y,-z
y,-x,-z
x,y,-z
-y,x,-z
1/2-x,1/2+y,1/2+z
1/2+x,1/2-y,1/2+z
1/2-y,1/2-x,1/2+z
1/2+y,1/2+x,1/2+z
loop_
_atom_site_type_symbol
_atom_site_label
_atom_site_fract_x
_atom_site_fract_y
_atom_site_fract_z
Si Si1 0.922564 0.055433 0.500000
Si Si2 0.445662 0.140277 0.673490
Si Si3 0.567400 0.729108 0.667780
Si Si4 0.919634 0.951921 0.000000
Si Si5 0.377337 0.376280 0.741840
Si Si6 0.848786 0.565281 0.824446
Si Si7 0.437421 0.734405 0.334794
O O1 0.885180 0.079667 0.629485
O O2 0.987054 0.078825 0.500000
O O3 0.401678 0.098323 0.750000
O O4 0.451408 0.128343 0.500000
O O5 0.423607 0.204338 0.704932
O O6 0.506055 0.130524 0.752910
O O7 0.583618 0.717450 0.500000
O O8 0.611997 0.691936 0.769998
O O9 0.501287 0.711593 0.699130
O O10 0.886096 0.932197 0.859722
O O11 0.980678 0.921723 0.000000
O O12 0.315806 0.389998 0.672983
O O13 0.885466 0.614535 0.750000
O O14 0.783073 0.578754 0.781632
O O15 0.855401 0.564281 0.000000
O O16 0.436733 0.759723 0.500000
#
# Coordination Sequence:
#
# PCOD8314650 Si02
#       7
#     8  16  16   8  16  16  16
#     4  11  24  36  46  72 115 154 196 262 325 362
#     4  10  21  40  65  95 128 157 195 240 294 356
#     4   9  18  35  57  83 114 156 203 250 295 352
#     4  11  20  30  52  80 105 146 206 260 307 358
#     4  12  21  35  55  78 115 160 206 252 304 358
#     4  11  23  41  66  94 125 157 193 237 295 356
#     4  10  20  36  59  85 118 157 205 254 299 354
#
# _framework density 19.213847000000001
#
# number of rings (size 3 to 8) (size 9 to 14) (size 15 to 20)
#    0.000    1.500    1.667    6.000    1.167    1.667 
#    7.500    2.500    0.000    2.000    0.000    0.000 
#    0.000    0.000    0.000    0.000    0.000    0.000 
#
# Total GULP energy -1189811.727417 kJ/mol
# GULP energy per Si atom -12393.872161 kJ/mol
# Density = 1.917012 g / cm^3
# Si number density = 19.213847 Si / 1000 Ang^3
#
#
#
# Elastic Constant Matrix: (Units=GPa)
#
#
# Indices 1 2 3 4 5 6 
#
# 1 91.0127 54.1983 30.9680 0.0000 0.0000 0.0000
# 2 54.1983 91.0020 30.9654 0.0000 0.0000 0.0000
# 3 30.9680 30.9654 109.9577 0.0000 0.0000 0.0000
# 4 0.0000 0.0000 0.0000 21.8215 0.0000 0.0000
# 5 0.0000 0.0000 0.0000 0.0000 21.8190 0.0000
# 6 0.0000 0.0000 0.0000 0.0000 0.0000 36.5252
#
#
#
# Elastic Compliance Matrix: (Units=1/GPa)
#
#
# Indices 1 2 3 4 5 6 
#
# 1 0.017496 -0.009670 -0.002204 0.000000 0.000000 0.000000
# 2 -0.009670 0.017498 -0.002204 0.000000 0.000000 0.000000
# 3 -0.002204 -0.002204 0.010336 0.000000 0.000000 0.000000
# 4 0.000000 0.000000 0.000000 0.045826 0.000000 0.000000
# 5 0.000000 0.000000 0.000000 0.000000 0.045832 0.000000
# 6 0.000000 0.000000 0.000000 0.000000 0.000000 0.027378
#
#
# Mechanical properties :
#
#
# Convention : Reuss Voigt Hill
#
# Bulk Modulus (GPa) = 58.23153 58.24842 58.23997
# Shear Modulus (GPa) = 25.22092 27.75585 26.48838
#
# Velocity S-wave (km/s) = 3.62697 3.80488 3.71699
# Velocity P-wave (km/s) = 6.92190 7.04872 6.98560
#
# Compressibility (1/GPa) = 0.01717283
#
# Stress axis : x y z
#
# Youngs Moduli (GPa) = 57.15552 57.14915 96.74974
#
# Poissons Ratio (x) = 0.55264 0.21327
# Poissons Ratio (y) = 0.55270 0.21326
# Poissons Ratio (z) = 0.12599 0.12597
#
# Static dielectric constant tensor:
#      x y z
#    x 3.496700 0.000000 0.000000 
#    y 0.000000 3.496700 0.000000 
#    z 0.000000 0.000000 3.524740 
# 
# 
# High freq. dielectric constant tensor:
#      x y z
#    x 1.743000 0.000000 0.000000 
#    y 0.000000 1.743000 0.000000 
#    z 0.000000 0.000000 1.745050 
# 
# From -- ./inp_files/1542.got.cif
#   From: 2010.03.12/outbox.cif.g09.slc.cpg/sg128_1_cif.got.tgz:1542.got - 2010.04.06 17:11:05.
