data_PCOD8314196
_publ_section_title
;
Structure prediction by ZEFSAII (Michael W. Deem and Ramdas Pophale) SiO2 
 PCOD8314196
Probable space group: P 4/M B M
;
_chemical_formula_sum "Si O2"
_cell_formula_units_Z 96
_cell_length_a 23.616850
_cell_length_b 23.616850
_cell_length_c 9.265989
_cell_angle_alpha 90.000000
_cell_angle_beta 90.000000
_cell_angle_gamma 90.000000
_cell_volume 5168.157291
_symmetry_space_group_name_H-M "P 4/M B M"
_symmetry_group_IT_number 127
_symmetry_cell_setting 'tetragonal'
loop_
_space_group_symop_operation_xyz
x,y,z
-y,x,z
-x,-y,z
y,-x,z
1/2+x,1/2-y,-z
1/2-x,1/2+y,-z
1/2+y,1/2+x,-z
1/2-y,1/2-x,-z
-x,-y,-z
y,-x,-z
x,y,-z
-y,x,-z
1/2-x,1/2+y,z
1/2+x,1/2-y,z
1/2-y,1/2-x,z
1/2+y,1/2+x,z
loop_
_atom_site_type_symbol
_atom_site_label
_atom_site_fract_x
_atom_site_fract_y
_atom_site_fract_z
Si Si1 0.773379 0.818311 0.164316
Si Si2 0.415767 0.537642 0.167166
Si Si3 0.927616 0.195817 0.670741
Si Si4 0.410670 0.000601 0.671563
Si Si5 0.775365 0.633667 0.835460
Si Si6 0.285763 0.979410 0.670748
O O1 0.716921 0.783080 0.200718
O O2 0.776980 0.869638 0.274691
O O3 0.828120 0.779600 0.185755
O O4 0.771218 0.840699 0.000000
O O5 0.426366 0.471877 0.203366
O O6 0.365749 0.562007 0.263440
O O7 0.399616 0.544946 0.000000
O O8 0.924863 0.189622 0.500000
O O9 0.976760 0.238227 0.721484
O O10 0.409396 0.001197 0.500000
O O11 0.445278 0.945278 0.725178
O O12 0.346959 0.998623 0.733632
O O13 0.442601 0.057400 0.727323
O O14 0.831250 0.668751 0.792511
O O15 0.768433 0.581113 0.730872
O O16 0.779798 0.612680 0.000000
O O17 0.288512 0.974771 0.500000
#
# Coordination Sequence:
#
# PCOD8314196 Si02
#       6
#    16  16  16  16  16  16
#     4   9  20  40  61  79 104 144 193 235 273 326
#     4   9  20  40  63  83 104 140 190 235 280 337
#     4  11  24  36  52  84 120 150 182 226 282 340
#     4   8  14  27  49  74 100 136 180 219 255 303
#     4   9  19  36  58  82 106 137 181 233 279 317
#     4  10  21  34  50  79 114 145 177 217 270 331
#
# _framework density 18.575285999999998
#
# number of rings (size 3 to 8) (size 9 to 14) (size 15 to 20)
#    0.000    2.667    0.000    3.000    2.333    4.667 
#    0.000    4.167    0.000    0.500    0.000    2.333 
#    0.000    0.000    0.000    0.000    0.000    0.000 
#
# Total GULP energy -1190390.304488 kJ/mol
# GULP energy per Si atom -12399.899005 kJ/mol
# Density = 1.853301 g / cm^3
# Si number density = 18.575286 Si / 1000 Ang^3
#
#
#
# Elastic Constant Matrix: (Units=GPa)
#
#
# Indices 1 2 3 4 5 6 
#
# 1 105.4956 47.1751 40.0654 0.0000 0.0000 0.0000
# 2 47.1751 105.4956 40.0654 0.0000 0.0000 0.0000
# 3 40.0654 40.0654 42.2414 0.0000 0.0000 0.0000
# 4 0.0000 0.0000 0.0000 28.2813 0.0000 0.0000
# 5 0.0000 0.0000 0.0000 0.0000 28.2813 0.0000
# 6 0.0000 0.0000 0.0000 0.0000 0.0000 20.3303
#
#
#
# Elastic Compliance Matrix: (Units=1/GPa)
#
#
# Indices 1 2 3 4 5 6 
#
# 1 0.015095 -0.002052 -0.012371 0.000000 0.000000 0.000000
# 2 -0.002052 0.015095 -0.012371 0.000000 0.000000 0.000000
# 3 -0.012371 -0.012371 0.047142 0.000000 0.000000 0.000000
# 4 0.000000 0.000000 0.000000 0.035359 0.000000 0.000000
# 5 0.000000 0.000000 0.000000 0.000000 0.035359 0.000000
# 6 0.000000 0.000000 0.000000 0.000000 0.000000 0.049188
#
#
# Mechanical properties :
#
#
# Convention : Reuss Voigt Hill
#
# Bulk Modulus (GPa) = 42.11828 56.42717 49.27273
# Shear Modulus (GPa) = 19.32437 23.77368 21.54903
#
# Velocity S-wave (km/s) = 3.22891 3.58139 3.40971
# Velocity P-wave (km/s) = 6.05184 6.89531 6.48730
#
# Compressibility (1/GPa) = 0.02374266
#
# Stress axis : x y z
#
# Youngs Moduli (GPa) = 66.24730 66.24730 21.21267
#
# Poissons Ratio (x) = 0.13592 0.26243
# Poissons Ratio (y) = 0.13592 0.26243
# Poissons Ratio (z) = 0.81957 0.81957
#
# Static dielectric constant tensor:
#      x y z
#    x 3.510700 0.000000 0.000000 
#    y 0.000000 3.510700 0.000000 
#    z 0.000000 0.000000 3.147990 
# 
# 
# High freq. dielectric constant tensor:
#      x y z
#    x 1.727700 0.000000 0.000000 
#    y 0.000000 1.727700 0.000000 
#    z 0.000000 0.000000 1.697380 
# 
# From -- ./inp_files/1973.got.cif
#   From: 2010.03.12/outbox.cif.g09.slc.cpg/sg127_1_cif.got.tgz:1973.got - 2010.04.06 17:03:15.
