data_PCOD8314002
_publ_section_title
;
Structure prediction by ZEFSAII (Michael W. Deem and Ramdas Pophale) SiO2 
 PCOD8314002
Probable space group: P 4/M B M
;
_chemical_formula_sum "Si O2"
_cell_formula_units_Z 96
_cell_length_a 15.104904
_cell_length_b 15.104904
_cell_length_c 21.711875
_cell_angle_alpha 90.000000
_cell_angle_beta 90.000000
_cell_angle_gamma 90.000000
_cell_volume 4953.740687
_symmetry_space_group_name_H-M "P 4/M B M"
_symmetry_group_IT_number 127
_symmetry_cell_setting 'tetragonal'
loop_
_space_group_symop_operation_xyz
x,y,z
-y,x,z
-x,-y,z
y,-x,z
1/2+x,1/2-y,-z
1/2-x,1/2+y,-z
1/2+y,1/2+x,-z
1/2-y,1/2-x,-z
-x,-y,-z
y,-x,-z
x,y,-z
-y,x,-z
1/2-x,1/2+y,z
1/2+x,1/2-y,z
1/2-y,1/2-x,z
1/2+y,1/2+x,z
loop_
_atom_site_type_symbol
_atom_site_label
_atom_site_fract_x
_atom_site_fract_y
_atom_site_fract_z
Si Si1 0.679106 0.320204 0.288500
Si Si2 0.267721 0.906499 0.393611
Si Si3 0.925314 0.425314 0.930475
Si Si4 0.053258 0.134680 0.187808
Si Si5 0.966222 0.320091 0.285740
Si Si6 0.972998 0.853561 0.500000
Si Si7 0.458016 0.816608 0.849306
O O1 0.739951 0.239951 0.261562
O O2 0.657682 0.302881 0.359843
O O3 0.583709 0.324406 0.253802
O O4 0.728176 0.412969 0.280818
O O5 0.343953 0.843953 0.424554
O O6 0.211854 0.963753 0.441946
O O7 0.316213 0.966628 0.342735
O O8 0.838968 0.460801 0.894812
O O9 0.000000 0.500000 0.928406
O O10 0.899487 0.399487 0.000000
O O11 0.069065 0.213837 0.139349
O O12 0.950601 0.113116 0.179067
O O13 0.900677 0.400677 0.300289
O O14 0.014414 0.336844 0.220988
O O15 0.070217 0.897714 0.500000
O O16 0.373260 0.873260 0.867738
#
# Coordination Sequence:
#
# PCOD8314002 Si02
#       7
#    16  16   8  16  16   8  16
#     4  10  19  33  55  84 123 160 194 248 306 363
#     4  11  22  38  59  83 117 152 195 245 306 373
#     4   9  20  38  62  92 124 161 205 252 300 355
#     4  11  21  33  51  83 123 162 203 247 303 367
#     4  11  21  34  56  90 123 152 192 246 309 366
#     4  11  25  44  64  81 105 151 208 259 304 365
#     4  11  20  34  58  88 121 159 200 252 307 358
#
# _framework density 19.379294999999999
#
# number of rings (size 3 to 8) (size 9 to 14) (size 15 to 20)
#    0.000    1.333    4.167    2.250    0.000    1.000 
#    1.500    2.917    0.000    2.000    0.000    1.167 
#    0.000    0.000    0.000    0.000    0.000    0.000 
#
# Total GULP energy -1189703.893583 kJ/mol
# GULP energy per Si atom -12392.748891 kJ/mol
# Density = 1.933519 g / cm^3
# Si number density = 19.379295 Si / 1000 Ang^3
#
#
#
# Elastic Constant Matrix: (Units=GPa)
#
#
# Indices 1 2 3 4 5 6 
#
# 1 106.0602 34.2270 35.0026 0.0000 0.0000 0.0000
# 2 34.2270 106.0602 35.0026 0.0000 0.0000 0.0000
# 3 35.0026 35.0026 84.0126 0.0000 0.0000 0.0000
# 4 0.0000 0.0000 0.0000 16.3993 0.0000 0.0000
# 5 0.0000 0.0000 0.0000 0.0000 16.3993 0.0000
# 6 0.0000 0.0000 0.0000 0.0000 0.0000 30.0817
#
#
#
# Elastic Compliance Matrix: (Units=1/GPa)
#
#
# Indices 1 2 3 4 5 6 
#
# 1 0.011460 -0.002461 -0.003749 0.000000 0.000000 0.000000
# 2 -0.002461 0.011460 -0.003749 0.000000 0.000000 0.000000
# 3 -0.003749 -0.003749 0.015027 0.000000 0.000000 0.000000
# 4 0.000000 0.000000 0.000000 0.060978 0.000000 0.000000
# 5 0.000000 0.000000 0.000000 0.000000 0.060978 0.000000
# 6 0.000000 0.000000 0.000000 0.000000 0.000000 0.033243
#
#
# Mechanical properties :
#
#
# Convention : Reuss Voigt Hill
#
# Bulk Modulus (GPa) = 55.46890 56.06637 55.76764
# Shear Modulus (GPa) = 22.82317 25.36945 24.09631
#
# Velocity S-wave (km/s) = 3.43550 3.62208 3.53002
# Velocity P-wave (km/s) = 6.66497 6.81810 6.74197
#
# Compressibility (1/GPa) = 0.01802812
#
# Stress axis : x y z
#
# Youngs Moduli (GPa) = 87.25864 87.25864 66.54589
#
# Poissons Ratio (x) = 0.21474 0.24951
# Poissons Ratio (y) = 0.21474 0.24951
# Poissons Ratio (z) = 0.32717 0.32717
#
# Static dielectric constant tensor:
#      x y z
#    x 3.710740 0.000000 0.000000 
#    y 0.000000 3.710740 0.000000 
#    z 0.000000 0.000000 3.226170 
# 
# 
# High freq. dielectric constant tensor:
#      x y z
#    x 1.766850 0.000000 0.000000 
#    y 0.000000 1.766850 0.000000 
#    z 0.000000 0.000000 1.708220 
# 
# From -- ./inp_files/5815.got.cif
#   From: 2010.03.12/outbox.cif.g09.slc.cpg/sg127_3_cif.got.tgz:5815.got - 2010.04.06 17:03:15.
