data_PCOD8314008
_publ_section_title
;
Structure prediction by ZEFSAII (Michael W. Deem and Ramdas Pophale) SiO2 
 PCOD8314008
Probable space group: P 4/M B M
;
_chemical_formula_sum "Si O2"
_cell_formula_units_Z 88
_cell_length_a 17.535336
_cell_length_b 17.535336
_cell_length_c 15.546852
_cell_angle_alpha 90.000000
_cell_angle_beta 90.000000
_cell_angle_gamma 90.000000
_cell_volume 4780.470562
_symmetry_space_group_name_H-M "P 4/M B M"
_symmetry_group_IT_number 127
_symmetry_cell_setting 'tetragonal'
loop_
_space_group_symop_operation_xyz
x,y,z
-y,x,z
-x,-y,z
y,-x,z
1/2+x,1/2-y,-z
1/2-x,1/2+y,-z
1/2+y,1/2+x,-z
1/2-y,1/2-x,-z
-x,-y,-z
y,-x,-z
x,y,-z
-y,x,-z
1/2-x,1/2+y,z
1/2+x,1/2-y,z
1/2-y,1/2-x,z
1/2+y,1/2+x,z
loop_
_atom_site_type_symbol
_atom_site_label
_atom_site_fract_x
_atom_site_fract_y
_atom_site_fract_z
Si Si1 0.896230 0.270432 0.000000
Si Si2 0.063748 0.563748 0.397827
Si Si3 0.152977 0.777289 0.174813
Si Si4 0.121048 0.005775 0.601617
Si Si5 0.467805 0.222954 0.305328
Si Si6 0.728786 0.106515 0.181979
Si Si7 0.821908 0.559710 0.000000
O O1 0.897752 0.219086 0.912842
O O2 0.968909 0.325970 0.000000
O O3 0.822859 0.322859 0.000000
O O4 0.071539 0.571539 0.500000
O O5 0.145772 0.539708 0.360168
O O6 0.000000 0.500000 0.373705
O O7 0.225081 0.725081 0.153492
O O8 0.109996 0.742873 0.256675
O O9 0.185626 0.861098 0.198466
O O10 0.124989 0.006065 0.500000
O O11 0.207024 0.008352 0.634719
O O12 0.071683 0.078864 0.633387
O O13 0.530389 0.211380 0.232956
O O14 0.666316 0.166316 0.214890
O O15 0.723877 0.091472 0.080957
O O16 0.908764 0.591237 0.000000
#
# Coordination Sequence:
#
# PCOD8314008 Si02
#       7
#     8   8  16  16  16  16   8
#     4  10  19  34  53  78 114 153 190 227 276 334
#     4  11  26  44  60  81 117 161 193 231 302 373
#     4  10  20  35  54  81 111 146 189 232 281 331
#     4   9  19  36  58  84 112 143 182 234 296 351
#     4  12  20  36  59  86 110 145 192 239 282 342
#     4  10  21  35  55  81 113 149 187 237 279 331
#     4  10  19  34  51  78 114 154 191 222 279 331
#
# _framework density 18.408228999999999
#
# number of rings (size 3 to 8) (size 9 to 14) (size 15 to 20)
#    0.000    1.727    2.727    3.273    0.000    2.364 
#    0.000    0.000    0.000    0.000    0.000    1.273 
#    0.000    0.000    0.000    0.000    0.000    0.000 
#
# Total GULP energy -1090840.136498 kJ/mol
# GULP energy per Si atom -12395.910642 kJ/mol
# Density = 1.836633 g / cm^3
# Si number density = 18.408229 Si / 1000 Ang^3
#
#
#
# Elastic Constant Matrix: (Units=GPa)
#
#
# Indices 1 2 3 4 5 6 
#
# 1 94.5880 37.9138 36.6182 0.0000 0.0000 0.0000
# 2 37.9138 94.5881 36.6180 0.0000 0.0000 0.0000
# 3 36.6182 36.6180 84.4084 0.0000 0.0000 0.0000
# 4 0.0000 0.0000 0.0000 24.2803 0.0000 0.0000
# 5 0.0000 0.0000 0.0000 0.0000 24.2797 0.0000
# 6 0.0000 0.0000 0.0000 0.0000 0.0000 25.3530
#
#
#
# Elastic Compliance Matrix: (Units=1/GPa)
#
#
# Indices 1 2 3 4 5 6 
#
# 1 0.013786 -0.003859 -0.004307 0.000000 0.000000 0.000000
# 2 -0.003859 0.013786 -0.004307 0.000000 0.000000 0.000000
# 3 -0.004307 -0.004307 0.015584 0.000000 0.000000 0.000000
# 4 0.000000 0.000000 0.000000 0.041186 0.000000 0.000000
# 5 0.000000 0.000000 0.000000 0.000000 0.041187 0.000000
# 6 0.000000 0.000000 0.000000 0.000000 0.000000 0.039443
#
#
# Mechanical properties :
#
#
# Convention : Reuss Voigt Hill
#
# Bulk Modulus (GPa) = 54.90929 55.09827 55.00378
# Shear Modulus (GPa) = 25.51199 25.61157 25.56178
#
# Velocity S-wave (km/s) = 3.72681 3.73407 3.73044
# Velocity P-wave (km/s) = 6.95789 6.97047 6.96418
#
# Compressibility (1/GPa) = 0.01821186
#
# Stress axis : x y z
#
# Youngs Moduli (GPa) = 72.53679 72.53693 64.16888
#
# Poissons Ratio (x) = 0.27989 0.27636
# Poissons Ratio (y) = 0.27989 0.27636
# Poissons Ratio (z) = 0.31240 0.31240
#
# Static dielectric constant tensor:
#      x y z
#    x 3.434330 0.000000 0.000000 
#    y 0.000000 3.434330 0.000000 
#    z 0.000000 0.000000 3.381790 
# 
# 
# High freq. dielectric constant tensor:
#      x y z
#    x 1.711310 0.000000 0.000000 
#    y 0.000000 1.711310 0.000000 
#    z 0.000000 0.000000 1.717910 
# 
# From -- ./inp_files/4439.got.cif
#   From: 2010.03.12/outbox.cif.g09.slc.cpg/sg127_3_cif.got.tgz:4439.got - 2010.04.06 17:03:15.
