data_PCOD8314512
_publ_section_title
;
Structure prediction by ZEFSAII (Michael W. Deem and Ramdas Pophale) SiO2 
 PCOD8314512
Probable space group: P 4/M N C
;
_chemical_formula_sum "Si O2"
_cell_formula_units_Z 104
_cell_length_a 16.877823
_cell_length_b 16.877823
_cell_length_c 18.248142
_cell_angle_alpha 90.000000
_cell_angle_beta 90.000000
_cell_angle_gamma 90.000000
_cell_volume 5198.182322
_symmetry_space_group_name_H-M "P 4/M N C"
_symmetry_group_IT_number 128
_symmetry_cell_setting 'tetragonal'
loop_
_space_group_symop_operation_xyz
x,y,z
-y,x,z
-x,-y,z
y,-x,z
1/2+x,1/2-y,1/2-z
1/2-x,1/2+y,1/2-z
1/2+y,1/2+x,1/2-z
1/2-y,1/2-x,1/2-z
-x,-y,-z
y,-x,-z
x,y,-z
-y,x,-z
1/2-x,1/2+y,1/2+z
1/2+x,1/2-y,1/2+z
1/2-y,1/2-x,1/2+z
1/2+y,1/2+x,1/2+z
loop_
_atom_site_type_symbol
_atom_site_label
_atom_site_fract_x
_atom_site_fract_y
_atom_site_fract_z
Si Si1 0.955148 0.877034 0.693571
Si Si2 0.372512 0.520539 0.416218
Si Si3 0.753399 0.039039 0.186897
Si Si4 0.000000 0.500000 0.365833
Si Si5 0.366139 0.893138 0.081279
Si Si6 0.156885 0.560954 0.205270
Si Si7 0.015660 0.251532 0.585059
O O1 0.925497 0.819883 0.758811
O O2 0.950945 0.832358 0.614942
O O3 0.047449 0.899626 0.700269
O O4 0.411176 0.435033 0.398164
O O5 0.345890 0.525695 0.500000
O O6 0.294921 0.526788 0.365706
O O7 0.708204 0.103919 0.137154
O O8 0.686099 0.000916 0.235307
O O9 0.072941 0.467029 0.414350
O O10 0.033813 0.569890 0.316859
O O11 0.413062 0.812509 0.096441
O O12 0.329538 0.892705 0.000000
O O13 0.145096 0.645096 0.250000
O O14 0.217128 0.559569 0.134978
O O15 0.989386 0.244069 0.500000
#
# Coordination Sequence:
#
# PCOD8314512 Si02
#       7
#    16  16  16   8  16  16  16
#     4  10  22  40  65  91 108 140 200 263 310 345
#     4   9  18  34  56  79 107 145 190 242 292 338
#     4  11  20  31  55  83 119 147 186 241 289 350
#     4  10  18  32  52  76 111 151 204 248 260 308
#     4  10  20  33  55  86 120 161 198 231 280 344
#     4  10  19  31  51  79 112 146 185 230 277 325
#     4   9  21  38  59  85 117 151 190 242 297 349
#
# _framework density 20.006993999999999
#
# number of rings (size 3 to 8) (size 9 to 14) (size 15 to 20)
#    0.000    2.154    1.538    2.308    2.154    4.308 
#    0.000    0.769   20.308    0.000    0.000    0.000 
#    0.000    0.000    0.000    0.000    0.000    0.000 
#
# Total GULP energy -1288473.838147 kJ/mol
# GULP energy per Si atom -12389.171521 kJ/mol
# Density = 1.996146 g / cm^3
# Si number density = 20.006994 Si / 1000 Ang^3
#
#
#
# Elastic Constant Matrix: (Units=GPa)
#
#
# Indices 1 2 3 4 5 6 
#
# 1 71.7459 13.6045 34.0448 0.0000 0.0000 0.0000
# 2 13.6045 71.7459 34.0448 0.0000 0.0000 0.0000
# 3 34.0448 34.0448 134.3152 0.0000 0.0000 0.0000
# 4 0.0000 0.0000 0.0000 20.9578 0.0000 0.0000
# 5 0.0000 0.0000 0.0000 0.0000 20.9578 0.0000
# 6 0.0000 0.0000 0.0000 0.0000 0.0000 14.9959
#
#
#
# Elastic Compliance Matrix: (Units=1/GPa)
#
#
# Indices 1 2 3 4 5 6 
#
# 1 0.015943 -0.001257 -0.003722 0.000000 0.000000 0.000000
# 2 -0.001257 0.015943 -0.003722 0.000000 0.000000 0.000000
# 3 -0.003722 -0.003722 0.009332 0.000000 0.000000 0.000000
# 4 0.000000 0.000000 0.000000 0.047715 0.000000 0.000000
# 5 0.000000 0.000000 0.000000 0.000000 0.047715 0.000000
# 6 0.000000 0.000000 0.000000 0.000000 0.000000 0.066685
#
#
# Mechanical properties :
#
#
# Convention : Reuss Voigt Hill
#
# Bulk Modulus (GPa) = 41.99127 49.02171 45.50649
# Shear Modulus (GPa) = 21.86520 24.45650 23.16085
#
# Velocity S-wave (km/s) = 3.30946 3.50007 3.40610
# Velocity P-wave (km/s) = 5.96969 6.39449 6.18574
#
# Compressibility (1/GPa) = 0.02381447
#
# Stress axis : x y z
#
# Youngs Moduli (GPa) = 62.72444 62.72444 107.15546
#
# Poissons Ratio (x) = 0.07883 0.39888
# Poissons Ratio (y) = 0.07883 0.39888
# Poissons Ratio (z) = 0.23349 0.23349
#
# Static dielectric constant tensor:
#      x y z
#    x 3.555570 0.000000 0.000000 
#    y 0.000000 3.555570 0.000000 
#    z 0.000000 0.000000 4.004730 
# 
# 
# High freq. dielectric constant tensor:
#      x y z
#    x 1.756080 0.000000 0.000000 
#    y 0.000000 1.756080 0.000000 
#    z 0.000000 0.000000 1.804100 
# 
# From -- ./inp_files/4864.got.cif
#   From: 2010.03.12/outbox.cif.g09.slc.cpg/sg128_3_cif.got.tgz:4864.got - 2010.04.06 17:11:05.
