data_PCOD8314730
_publ_section_title
;
Structure prediction by ZEFSAII (Michael W. Deem and Ramdas Pophale) SiO2 
 PCOD8314730
Probable space group: P 4/M N C
;
_chemical_formula_sum "Si O2"
_cell_formula_units_Z 96
_cell_length_a 23.900320
_cell_length_b 23.900320
_cell_length_c 8.560122
_cell_angle_alpha 90.000000
_cell_angle_beta 90.000000
_cell_angle_gamma 90.000000
_cell_volume 4889.758224
_symmetry_space_group_name_H-M "P 4/M N C"
_symmetry_group_IT_number 128
_symmetry_cell_setting 'tetragonal'
loop_
_space_group_symop_operation_xyz
x,y,z
-y,x,z
-x,-y,z
y,-x,z
1/2+x,1/2-y,1/2-z
1/2-x,1/2+y,1/2-z
1/2+y,1/2+x,1/2-z
1/2-y,1/2-x,1/2-z
-x,-y,-z
y,-x,-z
x,y,-z
-y,x,-z
1/2-x,1/2+y,1/2+z
1/2+x,1/2-y,1/2+z
1/2-y,1/2-x,1/2+z
1/2+y,1/2+x,1/2+z
loop_
_atom_site_type_symbol
_atom_site_label
_atom_site_fract_x
_atom_site_fract_y
_atom_site_fract_z
Si Si1 0.224830 0.190551 0.814042
Si Si2 0.582594 0.468687 0.814519
Si Si3 0.498771 0.915454 0.816515
Si Si4 0.781446 0.636404 0.683049
Si Si5 0.795029 0.511589 0.316545
Si Si6 0.296701 0.569547 0.815384
O O1 0.281667 0.218334 0.750000
O O2 0.172202 0.228262 0.759944
O O3 0.217258 0.132620 0.726811
O O4 0.228193 0.182480 0.000000
O O5 0.571458 0.532200 0.754691
O O6 0.641585 0.446068 0.750480
O O7 0.583192 0.468110 0.000000
O O8 0.441030 0.941030 0.750000
O O9 0.505461 0.851063 0.772417
O O10 0.552041 0.947960 0.750000
O O11 0.497995 0.922763 0.000000
O O12 0.838874 0.661127 0.750000
O O13 0.786291 0.640304 0.500000
O O14 0.774878 0.572813 0.739993
O O15 0.807137 0.510157 0.500000
O O16 0.746642 0.469107 0.273937
O O17 0.291867 0.560032 0.000000
#
# Coordination Sequence:
#
# PCOD8314730 Si02
#       6
#    16  16  16  16  16  16
#     4  10  21  40  61  83 113 151 192 237 287 344
#     4   8  16  33  56  83 116 152 192 240 292 346
#     4  11  22  39  62  89 119 155 196 239 289 346
#     4   9  20  37  60  86 113 149 190 236 289 340
#     4  11  23  39  57  84 120 156 193 239 290 343
#     4  11  23  36  57  89 118 154 198 241 293 348
#
# _framework density 19.632871999999999
#
# number of rings (size 3 to 8) (size 9 to 14) (size 15 to 20)
#    0.000    2.000    0.000    4.500    2.333    4.000 
#    0.000    3.333    0.000    0.000    0.000    4.667 
#    0.000    0.000    0.000    0.000    0.000    0.000 
#
# Total GULP energy -1190588.121686 kJ/mol
# GULP energy per Si atom -12401.959601 kJ/mol
# Density = 1.958819 g / cm^3
# Si number density = 19.632872 Si / 1000 Ang^3
#
#
#
# Elastic Constant Matrix: (Units=GPa)
#
#
# Indices 1 2 3 4 5 6 
#
# 1 144.9673 64.4777 20.8521 0.0000 0.0000 0.0000
# 2 64.4777 144.9742 20.8538 0.0000 0.0000 0.0000
# 3 20.8521 20.8538 61.1691 0.0000 0.0000 0.0000
# 4 0.0000 0.0000 0.0000 23.1334 0.0000 0.0000
# 5 0.0000 0.0000 0.0000 0.0000 23.1323 0.0000
# 6 0.0000 0.0000 0.0000 0.0000 0.0000 26.8535
#
#
#
# Elastic Compliance Matrix: (Units=1/GPa)
#
#
# Indices 1 2 3 4 5 6 
#
# 1 0.008773 -0.003651 -0.001746 0.000000 0.000000 0.000000
# 2 -0.003651 0.008773 -0.001746 0.000000 0.000000 0.000000
# 3 -0.001746 -0.001746 0.017539 0.000000 0.000000 0.000000
# 4 0.000000 0.000000 0.000000 0.043228 0.000000 0.000000
# 5 0.000000 0.000000 0.000000 0.000000 0.043230 0.000000
# 6 0.000000 0.000000 0.000000 0.000000 0.000000 0.037239
#
#
# Mechanical properties :
#
#
# Convention : Reuss Voigt Hill
#
# Bulk Modulus (GPa) = 48.08089 62.60864 55.34476
# Shear Modulus (GPa) = 27.77788 30.95231 29.36510
#
# Velocity S-wave (km/s) = 3.76555 3.97489 3.87164
# Velocity P-wave (km/s) = 6.59158 7.28185 6.94530
#
# Compressibility (1/GPa) = 0.02079829
#
# Stress axis : x y z
#
# Youngs Moduli (GPa) = 113.98651 113.99127 57.01683
#
# Poissons Ratio (x) = 0.41614 0.09955
# Poissons Ratio (y) = 0.41612 0.09957
# Poissons Ratio (z) = 0.19903 0.19906
#
# Static dielectric constant tensor:
#      x y z
#    x 3.768350 0.000000 0.000000 
#    y 0.000000 3.768330 0.000000 
#    z 0.000000 0.000000 3.443660 
# 
# 
# High freq. dielectric constant tensor:
#      x y z
#    x 1.772480 0.000000 0.000000 
#    y 0.000000 1.772470 0.000000 
#    z 0.000000 0.000000 1.756990 
# 
# From -- ./inp_files/1419.got.cif
#   From: 2010.03.12/outbox.cif.g09.slc.cpg/sg128_1_cif.got.tgz:1419.got - 2010.04.06 17:11:05.
