data_PCOD8314981
_publ_section_title
;
Structure prediction by ZEFSAII (Michael W. Deem and Ramdas Pophale) SiO2 
 PCOD8314981
Probable space group: P 4/N M M
;
_chemical_formula_sum "Si O2"
_cell_formula_units_Z 96
_cell_length_a 14.231528
_cell_length_b 14.231528
_cell_length_c 30.596729
_cell_angle_alpha 90.000000
_cell_angle_beta 90.000000
_cell_angle_gamma 90.000000
_cell_volume 6196.951013
_symmetry_space_group_name_H-M "P 4/N M M"
_symmetry_group_IT_number 129
_symmetry_cell_setting 'tetragonal'
loop_
_space_group_symop_operation_xyz
x,y,z
1/2-y,x,z
1/2-x,1/2-y,z
y,1/2-x,z
1/2+x,-y,-z
-x,1/2+y,-z
1/2+y,1/2+x,-z
-y,-x,-z
-x,-y,-z
1/2+y,-x,-z
1/2+x,1/2+y,-z
-y,1/2+x,-z
1/2-x,y,z
x,1/2-y,z
1/2-y,1/2-x,z
y,x,z
loop_
_atom_site_type_symbol
_atom_site_label
_atom_site_fract_x
_atom_site_fract_y
_atom_site_fract_z
Si Si1 0.987142 0.358990 0.472335
Si Si2 0.506089 0.357038 0.372747
Si Si3 0.361640 0.854114 0.300920
Si Si4 0.854996 0.138726 0.203917
Si Si5 0.513195 0.361756 0.126205
Si Si6 0.361327 0.854372 0.048302
O O1 0.901267 0.401267 0.500000
O O2 0.004184 0.250000 0.485032
O O3 0.083438 0.416563 0.481504
O O4 0.955495 0.368304 0.421921
O O5 0.486838 0.250000 0.360507
O O6 0.406741 0.406741 0.367306
O O7 0.579500 0.403304 0.338770
O O8 0.250000 0.851502 0.304550
O O9 0.402300 0.750000 0.308896
O O10 0.391893 0.889018 0.252484
O O11 0.750000 0.098597 0.194471
O O12 0.849413 0.250000 0.200775
O O13 0.929186 0.102225 0.168460
O O14 0.495788 0.250000 0.126363
O O15 0.412252 0.412252 0.125905
O O16 0.571868 0.396715 0.084170
O O17 0.250000 0.846443 0.050540
O O18 0.403558 0.750000 0.057629
O O19 0.390771 0.890771 0.000000
#
# Coordination Sequence:
#
# PCOD8314981 Si02
#       6
#    16  16  16  16  16  16
#     4   9  18  31  45  63  87 114 146 183 220 259
#     4   9  17  28  42  61  86 115 143 169 199 240
#     4   8  14  25  41  60  80 102 130 166 207 244
#     4   8  14  26  43  59  75  98 131 173 213 238
#     4  10  19  28  39  57  82 112 140 163 193 238
#     4   8  14  26  44  63  80  98 126 170 217 248
#
# _framework density 15.491489
#
# number of rings (size 3 to 8) (size 9 to 14) (size 15 to 20)
#    0.000    3.333    0.000    2.000    0.000    4.333 
#    0.000    3.333    0.000    0.000    0.000    4.667 
#    0.000    5.667    0.000    7.333    0.000    2.000 
#
# Total GULP energy -1189660.938076 kJ/mol
# GULP energy per Si atom -12392.301438 kJ/mol
# Density = 1.545623 g / cm^3
# Si number density = 15.491489 Si / 1000 Ang^3
#
#
#
# Elastic Constant Matrix: (Units=GPa)
#
#
# Indices 1 2 3 4 5 6 
#
# 1 65.7998 35.2313 49.8676 0.0000 0.0000 0.0000
# 2 35.2313 65.7998 49.8676 0.0000 0.0000 0.0000
# 3 49.8676 49.8676 112.9610 0.0000 0.0000 0.0000
# 4 0.0000 0.0000 0.0000 18.0250 0.0000 0.0000
# 5 0.0000 0.0000 0.0000 0.0000 18.0250 0.0000
# 6 0.0000 0.0000 0.0000 0.0000 0.0000 13.0220
#
#
#
# Elastic Compliance Matrix: (Units=1/GPa)
#
#
# Indices 1 2 3 4 5 6 
#
# 1 0.025128 -0.007585 -0.007745 0.000000 0.000000 0.000000
# 2 -0.007585 0.025128 -0.007745 0.000000 0.000000 0.000000
# 3 -0.007745 -0.007745 0.015690 0.000000 0.000000 0.000000
# 4 0.000000 0.000000 0.000000 0.055478 0.000000 0.000000
# 5 0.000000 0.000000 0.000000 0.000000 0.055478 0.000000
# 6 0.000000 0.000000 0.000000 0.000000 0.000000 0.076793
#
#
# Mechanical properties :
#
#
# Convention : Reuss Voigt Hill
#
# Bulk Modulus (GPa) = 50.50895 57.16597 53.83746
# Shear Modulus (GPa) = 16.31612 17.12066 16.71839
#
# Velocity S-wave (km/s) = 3.24887 3.32801 3.28868
# Velocity P-wave (km/s) = 6.83730 7.19369 7.01776
#
# Compressibility (1/GPa) = 0.01979847
#
# Stress axis : x y z
#
# Youngs Moduli (GPa) = 39.79569 39.79569 63.73290
#
# Poissons Ratio (x) = 0.30185 0.49359
# Poissons Ratio (y) = 0.30185 0.49359
# Poissons Ratio (z) = 0.30820 0.30820
#
# Static dielectric constant tensor:
#      x y z
#    x 2.768010 0.000000 0.000000 
#    y 0.000000 2.768010 0.000000 
#    z 0.000000 0.000000 3.368910 
# 
# 
# High freq. dielectric constant tensor:
#      x y z
#    x 1.562290 0.000000 0.000000 
#    y 0.000000 1.562290 0.000000 
#    z 0.000000 0.000000 1.611090 
# 
# From -- ./inp_files/7825.got.cif
#   From: 2010.03.12/outbox.cif.g09.slc.cpg/sg129_4_cif.got.tgz:7825.got - 2010.04.06 17:19:44.
