data_PCOD8314421
_publ_section_title
;
Structure prediction by ZEFSAII (Michael W. Deem and Ramdas Pophale) SiO2 
 PCOD8314421
Probable space group: P 4/M B M
;
_chemical_formula_sum "Si O2"
_cell_formula_units_Z 64
_cell_length_a 20.535723
_cell_length_b 20.535723
_cell_length_c 7.856368
_cell_angle_alpha 90.000000
_cell_angle_beta 90.000000
_cell_angle_gamma 90.000000
_cell_volume 3313.155452
_symmetry_space_group_name_H-M "P 4/M B M"
_symmetry_group_IT_number 127
_symmetry_cell_setting 'tetragonal'
loop_
_space_group_symop_operation_xyz
x,y,z
-y,x,z
-x,-y,z
y,-x,z
1/2+x,1/2-y,-z
1/2-x,1/2+y,-z
1/2+y,1/2+x,-z
1/2-y,1/2-x,-z
-x,-y,-z
y,-x,-z
x,y,-z
-y,x,-z
1/2-x,1/2+y,z
1/2+x,1/2-y,z
1/2-y,1/2-x,z
1/2+y,1/2+x,z
loop_
_atom_site_type_symbol
_atom_site_label
_atom_site_fract_x
_atom_site_fract_y
_atom_site_fract_z
Si Si1 0.251233 0.022087 0.811966
Si Si2 0.729412 0.124097 0.189429
Si Si3 0.715145 0.894263 0.500000
Si Si4 0.817220 0.791517 0.500000
Si Si5 0.489932 0.395327 0.299934
O O1 0.288611 0.064282 0.671844
O O2 0.173539 0.016284 0.792577
O O3 0.285367 0.951886 0.798005
O O4 0.264627 0.051596 0.000000
O O5 0.662915 0.162915 0.231008
O O6 0.784519 0.140455 0.328941
O O7 0.755215 0.142627 0.000000
O O8 0.656795 0.843206 0.500000
O O9 0.786953 0.862860 0.500000
O O10 0.759638 0.740363 0.500000
O O11 0.557807 0.429976 0.246966
O O12 0.489505 0.382662 0.500000
#
# Coordination Sequence:
#
# PCOD8314421 Si02
#       5
#    16  16   8   8  16
#     4  11  23  36  59  86 109 150 193 234 287 340
#     4   9  19  36  58  86 115 143 186 239 286 336
#     4  11  25  42  57  78 116 154 188 238 286 335
#     4   9  19  34  56  80 107 149 184 221 279 332
#     4   9  19  35  55  81 118 161 196 231 275 328
#
# _framework density 19.316932999999999
#
# number of rings (size 3 to 8) (size 9 to 14) (size 15 to 20)
#    0.000    2.250    1.250    1.500    3.500    2.500 
#    0.000    3.750    0.000    1.500    0.000    3.500 
#    0.000    0.000    0.000    0.000    0.000    0.000 
#
# Total GULP energy -793462.065583 kJ/mol
# GULP energy per Si atom -12397.844775 kJ/mol
# Density = 1.927297 g / cm^3
# Si number density = 19.316933 Si / 1000 Ang^3
#
#
#
# Elastic Constant Matrix: (Units=GPa)
#
#
# Indices 1 2 3 4 5 6 
#
# 1 73.8376 34.1830 51.3738 0.0000 0.0000 0.0000
# 2 34.1830 73.8389 51.3740 0.0000 0.0000 0.0000
# 3 51.3738 51.3740 160.5944 0.0000 0.0000 0.0000
# 4 0.0000 0.0000 0.0000 9.6454 0.0000 0.0000
# 5 0.0000 0.0000 0.0000 0.0000 9.6448 0.0000
# 6 0.0000 0.0000 0.0000 0.0000 0.0000 24.7672
#
#
#
# Elastic Compliance Matrix: (Units=1/GPa)
#
#
# Indices 1 2 3 4 5 6 
#
# 1 0.019262 -0.005956 -0.004257 0.000000 0.000000 0.000000
# 2 -0.005956 0.019262 -0.004257 0.000000 0.000000 0.000000
# 3 -0.004257 -0.004257 0.008950 0.000000 0.000000 0.000000
# 4 0.000000 0.000000 0.000000 0.103676 0.000000 0.000000
# 5 0.000000 0.000000 0.000000 0.000000 0.103682 0.000000
# 6 0.000000 0.000000 0.000000 0.000000 0.000000 0.040376
#
#
# Mechanical properties :
#
#
# Convention : Reuss Voigt Hill
#
# Bulk Modulus (GPa) = 53.94845 64.68138 59.31492
# Shear Modulus (GPa) = 15.13661 20.23416 17.68538
#
# Velocity S-wave (km/s) = 2.80231 3.24000 3.02907
# Velocity P-wave (km/s) = 6.20155 6.89592 6.55793
#
# Compressibility (1/GPa) = 0.01853621
#
# Stress axis : x y z
#
# Youngs Moduli (GPa) = 51.91559 51.91673 111.72853
#
# Poissons Ratio (x) = 0.30919 0.47560
# Poissons Ratio (y) = 0.30918 0.47558
# Poissons Ratio (z) = 0.22099 0.22099
#
# Static dielectric constant tensor:
#      x y z
#    x 3.420580 0.000000 0.000000 
#    y 0.000000 3.420590 0.000000 
#    z 0.000000 0.000000 3.795070 
# 
# 
# High freq. dielectric constant tensor:
#      x y z
#    x 1.736290 0.000000 0.000000 
#    y 0.000000 1.736290 0.000000 
#    z 0.000000 0.000000 1.766490 
# 
# From -- ./inp_files/1413.got.cif
#   From: 2010.03.12/outbox.cif.g09.slc.cpg/sg127_1_cif.got.tgz:1413.got - 2010.04.06 17:03:15.
