data_PCOD8314889
_publ_section_title
;
Structure prediction by ZEFSAII (Michael W. Deem and Ramdas Pophale) SiO2 
 PCOD8314889
Probable space group: P 4/N M M
;
_chemical_formula_sum "Si O2"
_cell_formula_units_Z 112
_cell_length_a 20.824779
_cell_length_b 20.824779
_cell_length_c 17.528165
_cell_angle_alpha 90.000000
_cell_angle_beta 90.000000
_cell_angle_gamma 90.000000
_cell_volume 7601.464213
_symmetry_space_group_name_H-M "P 4/N M M"
_symmetry_group_IT_number 129
_symmetry_cell_setting 'tetragonal'
loop_
_space_group_symop_operation_xyz
x,y,z
1/2-y,x,z
1/2-x,1/2-y,z
y,1/2-x,z
1/2+x,-y,-z
-x,1/2+y,-z
1/2+y,1/2+x,-z
-y,-x,-z
-x,-y,-z
1/2+y,-x,-z
1/2+x,1/2+y,-z
-y,1/2+x,-z
1/2-x,y,z
x,1/2-y,z
1/2-y,1/2-x,z
y,x,z
loop_
_atom_site_type_symbol
_atom_site_label
_atom_site_fract_x
_atom_site_fract_y
_atom_site_fract_z
Si Si1 0.428390 0.176303 0.878906
Si Si2 0.571178 0.677831 0.682786
Si Si3 0.513024 0.404740 0.777151
Si Si4 0.990973 0.616370 0.549741
Si Si5 0.504135 0.611252 0.815552
Si Si6 0.071920 0.323835 0.054278
Si Si7 0.086809 0.978916 0.608428
O O1 0.411974 0.250000 0.860216
O O2 0.364887 0.135114 0.859344
O O3 0.489494 0.154255 0.829088
O O4 0.448526 0.167108 0.966776
O O5 0.594017 0.750000 0.697541
O O6 0.633789 0.633789 0.689465
O O7 0.538323 0.674385 0.598970
O O8 0.517620 0.658207 0.744622
O O9 0.459747 0.459747 0.779725
O O10 0.580608 0.432875 0.809405
O O11 0.523569 0.378450 0.690704
O O12 0.942232 0.557769 0.551432
O O13 0.003367 0.636090 0.460930
O O14 0.056040 0.590466 0.589371
O O15 0.553492 0.553492 0.811218
O O16 0.512832 0.650131 0.894612
O O17 0.086588 0.250000 0.073961
O O18 0.136795 0.363205 0.073313
O O19 0.031327 0.031327 0.613573
#
# Coordination Sequence:
#
# PCOD8314889 Si02
#       7
#    16  16  16  16  16  16  16
#     4   9  18  30  43  60  82 110 142 173 204 243
#     4  10  18  27  38  55  83 117 150 179 206 241
#     4   9  15  25  42  62  82 103 131 169 216 261
#     4   8  13  22  37  56  75  99 131 167 205 242
#     4   9  16  26  40  58  79 105 137 176 220 255
#     4   9  17  28  40  56  81 113 148 180 206 238
#     4   8  12  21  39  59  76  95 125 164 209 254
#
# _framework density 14.734003
#
# number of rings (size 3 to 8) (size 9 to 14) (size 15 to 20)
#    0.000    3.143    1.429    1.286    0.000    1.000 
#    0.000    5.000    0.000    2.571    0.000    0.000 
#    0.000    8.000    0.000    6.571    0.000    0.571 
#
# Total GULP energy -1387745.729553 kJ/mol
# GULP energy per Si atom -12390.586871 kJ/mol
# Density = 1.470047 g / cm^3
# Si number density = 14.734003 Si / 1000 Ang^3
#
#
#
# Elastic Constant Matrix: (Units=GPa)
#
#
# Indices 1 2 3 4 5 6 
#
# 1 48.2628 43.1747 43.3072 0.0000 0.0000 0.0000
# 2 43.1747 48.2628 43.3072 0.0000 0.0000 0.0000
# 3 43.3072 43.3072 110.9758 0.0000 0.0000 0.0000
# 4 0.0000 0.0000 0.0000 15.2078 0.0000 0.0000
# 5 0.0000 0.0000 0.0000 0.0000 15.2078 0.0000
# 6 0.0000 0.0000 0.0000 0.0000 0.0000 12.8729
#
#
#
# Elastic Compliance Matrix: (Units=1/GPa)
#
#
# Indices 1 2 3 4 5 6 
#
# 1 0.106944 -0.089595 -0.006771 0.000000 0.000000 0.000000
# 2 -0.089595 0.106944 -0.006771 0.000000 0.000000 0.000000
# 3 -0.006771 -0.006771 0.014295 0.000000 0.000000 0.000000
# 4 0.000000 0.000000 0.000000 0.065756 0.000000 0.000000
# 5 0.000000 0.000000 0.000000 0.000000 0.065756 0.000000
# 6 0.000000 0.000000 0.000000 0.000000 0.000000 0.077683
#
#
# Mechanical properties :
#
#
# Convention : Reuss Voigt Hill
#
# Bulk Modulus (GPa) = 45.63577 51.89773 48.76675
# Shear Modulus (GPa) = 7.68104 13.83854 10.75979
#
# Velocity S-wave (km/s) = 2.28571 3.06800 2.70528
# Velocity P-wave (km/s) = 6.16492 6.91735 6.55195
#
# Compressibility (1/GPa) = 0.02191264
#
# Stress axis : x y z
#
# Youngs Moduli (GPa) = 9.35065 9.35065 69.95299
#
# Poissons Ratio (x) = 0.83777 0.47363
# Poissons Ratio (y) = 0.83777 0.47363
# Poissons Ratio (z) = 0.06331 0.06331
#
# Static dielectric constant tensor:
#      x y z
#    x 2.620870 0.000000 0.000000 
#    y 0.000000 2.620870 0.000000 
#    z 0.000000 0.000000 3.237900 
# 
# 
# High freq. dielectric constant tensor:
#      x y z
#    x 1.523020 0.000000 0.000000 
#    y 0.000000 1.523020 0.000000 
#    z 0.000000 0.000000 1.582600 
# 
# From -- ./inp_files/5976.got.cif
#   From: 2010.03.12/outbox.cif.g09.slc.cpg/sg129_3_cif.got.tgz:5976.got - 2010.04.06 17:19:44.
