data_PCOD8314546
_publ_section_title
;
Structure prediction by ZEFSAII (Michael W. Deem and Ramdas Pophale) SiO2 
 PCOD8314546
Probable space group: P 4/M N C
;
_chemical_formula_sum "Si O2"
_cell_formula_units_Z 96
_cell_length_a 25.113027
_cell_length_b 25.113027
_cell_length_c 8.887462
_cell_angle_alpha 90.000000
_cell_angle_beta 90.000000
_cell_angle_gamma 90.000000
_cell_volume 5605.003447
_symmetry_space_group_name_H-M "P 4/M N C"
_symmetry_group_IT_number 128
_symmetry_cell_setting 'tetragonal'
loop_
_space_group_symop_operation_xyz
x,y,z
-y,x,z
-x,-y,z
y,-x,z
1/2+x,1/2-y,1/2-z
1/2-x,1/2+y,1/2-z
1/2+y,1/2+x,1/2-z
1/2-y,1/2-x,1/2-z
-x,-y,-z
y,-x,-z
x,y,-z
-y,x,-z
1/2-x,1/2+y,1/2+z
1/2+x,1/2-y,1/2+z
1/2-y,1/2-x,1/2+z
1/2+y,1/2+x,1/2+z
loop_
_atom_site_type_symbol
_atom_site_label
_atom_site_fract_x
_atom_site_fract_y
_atom_site_fract_z
Si Si1 0.055278 0.881258 0.834267
Si Si2 0.546922 0.371507 0.173470
Si Si3 0.260485 0.679434 0.821257
Si Si4 0.162823 0.258070 0.175457
Si Si5 0.044437 0.237147 0.173365
Si Si6 0.930151 0.243001 0.834761
O O1 0.103851 0.897522 0.727463
O O2 0.000030 0.901599 0.763368
O O3 0.053928 0.818222 0.841099
O O4 0.062854 0.905905 0.000000
O O5 0.548368 0.309442 0.206197
O O6 0.537559 0.381722 0.000000
O O7 0.212249 0.712249 0.750000
O O8 0.315810 0.702769 0.751698
O O9 0.248817 0.617319 0.783526
O O10 0.261980 0.685889 0.000000
O O11 0.191919 0.308082 0.250000
O O12 0.099631 0.269302 0.198033
O O13 0.177702 0.254510 0.000000
O O14 0.988536 0.269930 0.205691
O O15 0.043053 0.216168 0.000000
O O16 0.910759 0.262675 0.000000
#
# Coordination Sequence:
#
# PCOD8314546 Si02
#       6
#    16  16  16  16  16  16
#     4  10  20  34  48  60  81 115 149 181 229 285
#     4  11  21  31  45  65  85 106 144 195 235 267
#     4  11  21  32  48  71  98 128 160 197 241 284
#     4  10  19  32  50  72  98 129 163 197 235 281
#     4   9  19  34  50  67  92 127 157 183 229 288
#     4   9  18  33  50  67  89 119 155 191 226 275
#
# _framework density 17.127554
#
# number of rings (size 3 to 8) (size 9 to 14) (size 15 to 20)
#    0.000    2.000    0.000    7.000    0.000    9.000 
#    0.000    1.667    0.000    0.000    0.000    0.000 
#    0.000    0.667    0.000    7.667    0.000    2.333 
#
# Total GULP energy -1189394.156883 kJ/mol
# GULP energy per Si atom -12389.522468 kJ/mol
# Density = 1.708857 g / cm^3
# Si number density = 17.127554 Si / 1000 Ang^3
#
#
#
# Elastic Constant Matrix: (Units=GPa)
#
#
# Indices 1 2 3 4 5 6 
#
# 1 77.8456 17.5406 33.5828 0.0000 0.0000 0.0000
# 2 17.5406 77.8451 33.5839 0.0000 0.0000 0.0000
# 3 33.5828 33.5839 114.2867 0.0000 0.0000 0.0000
# 4 0.0000 0.0000 0.0000 20.3736 0.0000 0.0000
# 5 0.0000 0.0000 0.0000 0.0000 20.3736 0.0000
# 6 0.0000 0.0000 0.0000 0.0000 0.0000 18.7272
#
#
#
# Elastic Compliance Matrix: (Units=1/GPa)
#
#
# Indices 1 2 3 4 5 6 
#
# 1 0.014901 -0.001682 -0.003884 0.000000 0.000000 0.000000
# 2 -0.001682 0.014901 -0.003885 0.000000 0.000000 0.000000
# 3 -0.003884 -0.003885 0.011033 0.000000 0.000000 0.000000
# 4 0.000000 0.000000 0.000000 0.049083 0.000000 0.000000
# 5 0.000000 0.000000 0.000000 0.000000 0.049083 0.000000
# 6 0.000000 0.000000 0.000000 0.000000 0.000000 0.053398
#
#
# Mechanical properties :
#
#
# Convention : Reuss Voigt Hill
#
# Bulk Modulus (GPa) = 45.59323 48.82130 47.20727
# Shear Modulus (GPa) = 22.87169 24.24623 23.55896
#
# Velocity S-wave (km/s) = 3.65824 3.76656 3.71280
# Velocity P-wave (km/s) = 6.67242 6.89075 6.78247
#
# Compressibility (1/GPa) = 0.02193308
#
# Stress axis : x y z
#
# Youngs Moduli (GPa) = 67.11154 67.11043 90.63877
#
# Poissons Ratio (x) = 0.11286 0.35207
# Poissons Ratio (y) = 0.11286 0.35209
# Poissons Ratio (z) = 0.26068 0.26069
#
# Static dielectric constant tensor:
#      x y z
#    x 3.159080 0.000000 0.000000 
#    y 0.000000 3.159090 0.000000 
#    z 0.000000 0.000000 3.294520 
# 
# 
# High freq. dielectric constant tensor:
#      x y z
#    x 1.633380 0.000000 0.000000 
#    y 0.000000 1.633380 0.000000 
#    z 0.000000 0.000000 1.673470 
# 
# From -- ./inp_files/1519.got.cif
#   From: 2010.03.12/outbox.cif.g09.slc.cpg/sg128_1_cif.got.tgz:1519.got - 2010.04.06 17:11:05.
