data_PCOD8314465
_publ_section_title
;
Structure prediction by ZEFSAII (Michael W. Deem and Ramdas Pophale) SiO2 
 PCOD8314465
Probable space group: P 4/M B M
;
_chemical_formula_sum "Si O2"
_cell_formula_units_Z 96
_cell_length_a 16.690182
_cell_length_b 16.690182
_cell_length_c 18.081393
_cell_angle_alpha 90.000000
_cell_angle_beta 90.000000
_cell_angle_gamma 90.000000
_cell_volume 5036.792165
_symmetry_space_group_name_H-M "P 4/M B M"
_symmetry_group_IT_number 127
_symmetry_cell_setting 'tetragonal'
loop_
_space_group_symop_operation_xyz
x,y,z
-y,x,z
-x,-y,z
y,-x,z
1/2+x,1/2-y,-z
1/2-x,1/2+y,-z
1/2+y,1/2+x,-z
1/2-y,1/2-x,-z
-x,-y,-z
y,-x,-z
x,y,-z
-y,x,-z
1/2-x,1/2+y,z
1/2+x,1/2-y,z
1/2-y,1/2-x,z
1/2+y,1/2+x,z
loop_
_atom_site_type_symbol
_atom_site_label
_atom_site_fract_x
_atom_site_fract_y
_atom_site_fract_z
Si Si1 0.796821 0.172736 0.664349
Si Si2 0.619241 0.549418 0.087245
Si Si3 0.504275 0.869525 0.725340
Si Si4 0.604733 0.236362 0.185461
Si Si5 0.444951 0.815970 0.580797
Si Si6 0.109791 0.069000 0.584491
O O1 0.762857 0.262857 0.660824
O O2 0.786594 0.139306 0.746358
O O3 0.751760 0.117715 0.604669
O O4 0.889873 0.173715 0.639765
O O5 0.542748 0.603270 0.111574
O O6 0.701018 0.583539 0.121629
O O7 0.630233 0.553977 0.000000
O O8 0.433596 0.933596 0.718374
O O9 0.477772 0.807593 0.789355
O O10 0.512132 0.826170 0.644973
O O11 0.588496 0.911505 0.746681
O O12 0.670876 0.170876 0.158254
O O13 0.482662 0.792576 0.500000
O O14 0.399660 0.899660 0.571501
O O15 0.133633 0.083803 0.500000
O O16 0.024178 0.108707 0.602452
#
# Coordination Sequence:
#
# PCOD8314465 Si02
#       6
#    16  16  16  16  16  16
#     4   9  17  29  46  69  96 127 165 205 245 295
#     4   9  19  37  60  84 107 130 160 199 241 288
#     4   8  14  25  41  63  95 135 174 210 249 293
#     4   9  18  32  51  77 107 137 168 202 245 299
#     4   8  13  21  36  60  87 119 165 215 255 289
#     4   9  18  31  46  66  92 123 163 213 265 309
#
# _framework density 19.059749
#
# number of rings (size 3 to 8) (size 9 to 14) (size 15 to 20)
#    0.000    3.333    0.000    3.500    0.000    3.000 
#    0.000    4.167    0.000    7.500    0.000    7.000 
#    0.000    0.000    0.000    0.000    0.000    0.000 
#
# Total GULP energy -1189431.855911 kJ/mol
# GULP energy per Si atom -12389.915166 kJ/mol
# Density = 1.901637 g / cm^3
# Si number density = 19.059749 Si / 1000 Ang^3
#
#
#
# Elastic Constant Matrix: (Units=GPa)
#
#
# Indices 1 2 3 4 5 6 
#
# 1 64.2503 36.2227 40.9496 0.0000 0.0000 0.0000
# 2 36.2227 64.2503 40.9496 0.0000 0.0000 0.0000
# 3 40.9496 40.9496 71.0422 0.0000 0.0000 0.0000
# 4 0.0000 0.0000 0.0000 24.6530 0.0000 0.0000
# 5 0.0000 0.0000 0.0000 0.0000 24.6530 0.0000
# 6 0.0000 0.0000 0.0000 0.0000 0.0000 24.9015
#
#
#
# Elastic Compliance Matrix: (Units=1/GPa)
#
#
# Indices 1 2 3 4 5 6 
#
# 1 0.027227 -0.008453 -0.010822 0.000000 0.000000 0.000000
# 2 -0.008453 0.027227 -0.010822 0.000000 0.000000 0.000000
# 3 -0.010822 -0.010822 0.026551 0.000000 0.000000 0.000000
# 4 0.000000 0.000000 0.000000 0.040563 0.000000 0.000000
# 5 0.000000 0.000000 0.000000 0.000000 0.040563 0.000000
# 6 0.000000 0.000000 0.000000 0.000000 0.000000 0.040158
#
#
# Mechanical properties :
#
#
# Convention : Reuss Voigt Hill
#
# Bulk Modulus (GPa) = 48.04637 48.42074 48.23355
# Shear Modulus (GPa) = 18.55855 20.26957 19.41406
#
# Velocity S-wave (km/s) = 3.12381 3.26463 3.19500
# Velocity P-wave (km/s) = 6.18659 6.29844 6.24277
#
# Compressibility (1/GPa) = 0.02081323
#
# Stress axis : x y z
#
# Youngs Moduli (GPa) = 36.72891 36.72891 37.66276
#
# Poissons Ratio (x) = 0.31045 0.40757
# Poissons Ratio (y) = 0.31045 0.40757
# Poissons Ratio (z) = 0.39746 0.39746
#
# Static dielectric constant tensor:
#      x y z
#    x 3.433860 0.000000 0.000000 
#    y 0.000000 3.433860 0.000000 
#    z 0.000000 0.000000 3.242410 
# 
# 
# High freq. dielectric constant tensor:
#      x y z
#    x 1.729660 0.000000 0.000000 
#    y 0.000000 1.729660 0.000000 
#    z 0.000000 0.000000 1.714710 
# 
# From -- ./inp_files/5101.got.cif
#   From: 2010.03.12/outbox.cif.g09.slc.cpg/sg127_3_cif.got.tgz:5101.got - 2010.04.06 17:03:15.
