data_PCOD8314207
_publ_section_title
;
Structure prediction by ZEFSAII (Michael W. Deem and Ramdas Pophale) SiO2 
 PCOD8314207
Probable space group: P 4/M B M
;
_chemical_formula_sum "Si O2"
_cell_formula_units_Z 56
_cell_length_a 20.247390
_cell_length_b 20.247390
_cell_length_c 7.655516
_cell_angle_alpha 90.000000
_cell_angle_beta 90.000000
_cell_angle_gamma 90.000000
_cell_volume 3138.430856
_symmetry_space_group_name_H-M "P 4/M B M"
_symmetry_group_IT_number 127
_symmetry_cell_setting 'tetragonal'
loop_
_space_group_symop_operation_xyz
x,y,z
-y,x,z
-x,-y,z
y,-x,z
1/2+x,1/2-y,-z
1/2-x,1/2+y,-z
1/2+y,1/2+x,-z
1/2-y,1/2-x,-z
-x,-y,-z
y,-x,-z
x,y,-z
-y,x,-z
1/2-x,1/2+y,z
1/2+x,1/2-y,z
1/2-y,1/2-x,z
1/2+y,1/2+x,z
loop_
_atom_site_type_symbol
_atom_site_label
_atom_site_fract_x
_atom_site_fract_y
_atom_site_fract_z
Si Si1 0.461420 0.797529 0.797189
Si Si2 0.296002 0.500987 0.500000
Si Si3 0.552858 0.052858 0.206892
Si Si4 0.776925 0.171158 0.808027
Si Si5 0.363712 0.362022 0.500000
O O1 0.505102 0.750470 0.672242
O O2 0.467306 0.873397 0.731970
O O3 0.385638 0.776663 0.770310
O O4 0.483842 0.789479 0.000000
O O5 0.344136 0.438297 0.500000
O O6 0.349654 0.558770 0.500000
O O7 0.500000 0.000000 0.282906
O O8 0.552360 0.052360 0.000000
O O9 0.740885 0.240885 0.794865
O O10 0.835771 0.172866 0.671764
O O11 0.808041 0.160966 0.000000
#
# Coordination Sequence:
#
# PCOD8314207 Si02
#       5
#    16   8   8  16   8
#     4   9  17  32  53  76 103 132 167 209 248 296
#     4  10  22  36  53  73  98 133 174 220 272 307
#     4   9  16  29  51  79 110 143 173 198 237 303
#     4   9  16  30  54  78  98 126 168 217 257 293
#     4  10  21  35  51  76 101 132 173 218 263 318
#
# _framework density 17.843311
#
# number of rings (size 3 to 8) (size 9 to 14) (size 15 to 20)
#    0.000    2.714    1.429    0.429    0.000    2.000 
#    0.000    4.286    0.000    3.429    0.000    8.000 
#    0.000    0.000    0.000    0.000    0.000    0.000 
#
# Total GULP energy -694155.029502 kJ/mol
# GULP energy per Si atom -12395.625527 kJ/mol
# Density = 1.780270 g / cm^3
# Si number density = 17.843311 Si / 1000 Ang^3
#
#
#
# Elastic Constant Matrix: (Units=GPa)
#
#
# Indices 1 2 3 4 5 6 
#
# 1 90.4394 54.5906 46.4820 0.0000 0.0000 0.0000
# 2 54.5906 90.4394 46.4820 0.0000 0.0000 0.0000
# 3 46.4820 46.4820 109.3002 0.0000 0.0000 0.0000
# 4 0.0000 0.0000 0.0000 21.3095 0.0000 0.0000
# 5 0.0000 0.0000 0.0000 0.0000 21.3095 0.0000
# 6 0.0000 0.0000 0.0000 0.0000 0.0000 25.6793
#
#
#
# Elastic Compliance Matrix: (Units=1/GPa)
#
#
# Indices 1 2 3 4 5 6 
#
# 1 0.018687 -0.009208 -0.004031 0.000000 0.000000 0.000000
# 2 -0.009208 0.018687 -0.004031 0.000000 0.000000 0.000000
# 3 -0.004031 -0.004031 0.012578 0.000000 0.000000 0.000000
# 4 0.000000 0.000000 0.000000 0.046927 0.000000 0.000000
# 5 0.000000 0.000000 0.000000 0.000000 0.046927 0.000000
# 6 0.000000 0.000000 0.000000 0.000000 0.000000 0.038942
#
#
# Mechanical properties :
#
#
# Convention : Reuss Voigt Hill
#
# Bulk Modulus (GPa) = 64.88742 65.03199 64.95970
# Shear Modulus (GPa) = 22.47937 23.16795 22.82366
#
# Velocity S-wave (km/s) = 3.55325 3.60726 3.58035
# Velocity P-wave (km/s) = 7.29919 7.33996 7.31960
#
# Compressibility (1/GPa) = 0.01541131
#
# Stress axis : x y z
#
# Youngs Moduli (GPa) = 53.51308 53.51308 79.50539
#
# Poissons Ratio (x) = 0.49274 0.32050
# Poissons Ratio (y) = 0.49274 0.32050
# Poissons Ratio (z) = 0.21572 0.21572
#
# Static dielectric constant tensor:
#      x y z
#    x 3.077930 0.000000 0.000000 
#    y 0.000000 3.077930 0.000000 
#    z 0.000000 0.000000 3.526370 
# 
# 
# High freq. dielectric constant tensor:
#      x y z
#    x 1.667350 0.000000 0.000000 
#    y 0.000000 1.667350 0.000000 
#    z 0.000000 0.000000 1.701290 
# 
# From -- ./inp_files/1146.got.cif
#   From: 2010.03.12/outbox.cif.g09.slc.cpg/sg127_1_cif.got.tgz:1146.got - 2010.04.06 17:03:15.
