data_PCOD8314837
_publ_section_title
;
Structure prediction by ZEFSAII (Michael W. Deem and Ramdas Pophale) SiO2 
 PCOD8314837
Probable space group: P 4/M N C
;
_chemical_formula_sum "Si O2"
_cell_formula_units_Z 88
_cell_length_a 11.740751
_cell_length_b 11.740751
_cell_length_c 30.681923
_cell_angle_alpha 90.000000
_cell_angle_beta 90.000000
_cell_angle_gamma 90.000000
_cell_volume 4229.356857
_symmetry_space_group_name_H-M "P 4/M N C"
_symmetry_group_IT_number 128
_symmetry_cell_setting 'tetragonal'
loop_
_space_group_symop_operation_xyz
x,y,z
-y,x,z
-x,-y,z
y,-x,z
1/2+x,1/2-y,1/2-z
1/2-x,1/2+y,1/2-z
1/2+y,1/2+x,1/2-z
1/2-y,1/2-x,1/2-z
-x,-y,-z
y,-x,-z
x,y,-z
-y,x,-z
1/2-x,1/2+y,1/2+z
1/2+x,1/2-y,1/2+z
1/2-y,1/2-x,1/2+z
1/2+y,1/2+x,1/2+z
loop_
_atom_site_type_symbol
_atom_site_label
_atom_site_fract_x
_atom_site_fract_y
_atom_site_fract_z
Si Si1 0.537173 0.317479 0.216824
Si Si2 0.165802 0.535263 0.500000
Si Si3 0.168863 0.386615 0.857015
Si Si4 0.218237 0.268768 0.000000
Si Si5 0.000000 0.500000 0.577312
Si Si6 0.652933 0.610540 0.923563
Si Si7 0.050976 0.178036 0.817005
O O1 0.632200 0.412924 0.206543
O O2 0.552499 0.202714 0.188407
O O3 0.554119 0.282368 0.266947
O O4 0.254930 0.636464 0.500000
O O5 0.231027 0.416980 0.500000
O O6 0.096239 0.547522 0.544943
O O7 0.104658 0.466988 0.891372
O O8 0.291431 0.352419 0.877603
O O9 0.086132 0.280694 0.848265
O O10 0.265807 0.336302 0.040772
O O11 0.526009 0.656592 0.927976
O O12 0.923333 0.138728 0.827393
#
# Coordination Sequence:
#
# PCOD8314837 Si02
#       7
#    16   8  16   8   8  16  16
#     4   9  19  38  62  90 126 167 214 269 321 381
#     4  11  26  49  70  92 132 177 212 256 333 394
#     4  12  22  38  64  94 128 168 209 267 329 389
#     4  12  24  46  72  96 126 173 218 267 326 401
#     4  11  26  46  61  96 140 164 199 272 340 381
#     4  11  24  41  65  99 131 167 217 275 334 400
#     4   9  21  41  60  84 125 175 224 264 314 381
#
# _framework density 20.806944999999999
#
# number of rings (size 3 to 8) (size 9 to 14) (size 15 to 20)
#    0.000    1.455    1.818    4.364    2.545    6.727 
#    0.000    3.636    0.000    0.000    0.000    0.000 
#    0.000    0.000    0.000    0.000    0.000    0.000 
#
# Total GULP energy -1091047.985316 kJ/mol
# GULP energy per Si atom -12398.272560 kJ/mol
# Density = 2.075959 g / cm^3
# Si number density = 20.806945 Si / 1000 Ang^3
#
#
#
# Elastic Constant Matrix: (Units=GPa)
#
#
# Indices 1 2 3 4 5 6 
#
# 1 115.8314 56.6241 63.9506 0.0000 0.0000 0.0000
# 2 56.6241 115.8314 63.9506 0.0000 0.0000 0.0000
# 3 63.9506 63.9506 84.0723 0.0000 0.0000 0.0000
# 4 0.0000 0.0000 0.0000 33.0401 0.0000 0.0000
# 5 0.0000 0.0000 0.0000 0.0000 33.0401 0.0000
# 6 0.0000 0.0000 0.0000 0.0000 0.0000 27.3054
#
#
#
# Elastic Compliance Matrix: (Units=1/GPa)
#
#
# Indices 1 2 3 4 5 6 
#
# 1 0.015097 -0.001793 -0.010120 0.000000 0.000000 0.000000
# 2 -0.001793 0.015097 -0.010120 0.000000 0.000000 0.000000
# 3 -0.010120 -0.010120 0.027290 0.000000 0.000000 0.000000
# 4 0.000000 0.000000 0.000000 0.030266 0.000000 0.000000
# 5 0.000000 0.000000 0.000000 0.000000 0.030266 0.000000
# 6 0.000000 0.000000 0.000000 0.000000 0.000000 0.036623
#
#
# Mechanical properties :
#
#
# Convention : Reuss Voigt Hill
#
# Bulk Modulus (GPa) = 74.52292 76.08731 75.30511
# Shear Modulus (GPa) = 24.60909 27.42444 26.01677
#
# Velocity S-wave (km/s) = 3.44282 3.63442 3.53992
# Velocity P-wave (km/s) = 7.19014 7.36612 7.27866
#
# Compressibility (1/GPa) = 0.01341869
#
# Stress axis : x y z
#
# Youngs Moduli (GPa) = 66.23898 66.23898 36.64345
#
# Poissons Ratio (x) = 0.11876 0.37082
# Poissons Ratio (y) = 0.11876 0.37082
# Poissons Ratio (z) = 0.67032 0.67032
#
# Static dielectric constant tensor:
#      x y z
#    x 3.691760 0.000000 0.000000 
#    y 0.000000 3.691760 0.000000 
#    z 0.000000 0.000000 3.733940 
# 
# 
# High freq. dielectric constant tensor:
#      x y z
#    x 1.809460 0.000000 0.000000 
#    y 0.000000 1.809460 0.000000 
#    z 0.000000 0.000000 1.827910 
# 
# From -- ./inp_files/7299.got.cif
#   From: 2010.03.12/outbox.cif.g09.slc.cpg/sg128_4_cif.got.tgz:7299.got - 2010.04.06 17:11:05.
