data_PCOD8314535
_publ_section_title
;
Structure prediction by ZEFSAII (Michael W. Deem and Ramdas Pophale) SiO2 
 PCOD8314535
Probable space group: P 4/M N C
;
_chemical_formula_sum "Si O2"
_cell_formula_units_Z 128
_cell_length_a 17.851600
_cell_length_b 17.851600
_cell_length_c 21.735950
_cell_angle_alpha 90.000000
_cell_angle_beta 90.000000
_cell_angle_gamma 90.000000
_cell_volume 6926.804342
_symmetry_space_group_name_H-M "P 4/M N C"
_symmetry_group_IT_number 128
_symmetry_cell_setting 'tetragonal'
loop_
_space_group_symop_operation_xyz
x,y,z
-y,x,z
-x,-y,z
y,-x,z
1/2+x,1/2-y,1/2-z
1/2-x,1/2+y,1/2-z
1/2+y,1/2+x,1/2-z
1/2-y,1/2-x,1/2-z
-x,-y,-z
y,-x,-z
x,y,-z
-y,x,-z
1/2-x,1/2+y,1/2+z
1/2+x,1/2-y,1/2+z
1/2-y,1/2-x,1/2+z
1/2+y,1/2+x,1/2+z
loop_
_atom_site_type_symbol
_atom_site_label
_atom_site_fract_x
_atom_site_fract_y
_atom_site_fract_z
Si Si1 0.991329 0.788414 0.929623
Si Si2 0.652976 0.664658 0.573702
Si Si3 0.271604 0.287590 0.070057
Si Si4 0.859810 0.525251 0.764322
Si Si5 0.589259 0.939936 0.155137
Si Si6 0.286547 0.929930 0.622527
Si Si7 0.193821 0.587174 0.068839
Si Si8 0.940349 0.619034 0.070081
O O1 0.920268 0.833680 0.901530
O O2 0.974841 0.701273 0.922895
O O3 0.072161 0.808396 0.899199
O O4 0.997424 0.812618 0.000000
O O5 0.653825 0.668807 0.500000
O O6 0.721127 0.718258 0.596841
O O7 0.273240 0.364558 0.109908
O O8 0.357757 0.263759 0.072846
O O9 0.246146 0.306007 0.000000
O O10 0.893776 0.606225 0.750000
O O11 0.920968 0.485414 0.807798
O O12 0.847381 0.473997 0.702977
O O13 0.785773 0.542091 0.805607
O O14 0.616753 0.865986 0.119071
O O15 0.565574 0.000399 0.103874
O O16 0.362994 0.887106 0.605558
O O17 0.276106 0.003259 0.580543
O O18 0.158316 0.591058 0.000000
O O19 0.929906 0.593993 0.000000
#
# Coordination Sequence:
#
# PCOD8314535 Si02
#       8
#    16  16  16  16  16  16  16  16
#     4   9  17  27  41  66  97 137 182 218 265 320
#     4   9  16  27  42  62  97 141 179 219 264 315
#     4  10  19  35  53  76 115 146 176 233 292 337
#     4  10  20  34  49  69 100 148 181 217 265 317
#     4  10  19  31  50  72 109 143 176 216 277 325
#     4  11  21  34  55  74 104 145 190 227 276 342
#     4  10  21  33  52  84 112 146 185 224 284 353
#     4  11  19  28  47  75 104 134 177 225 268 338
#
# _framework density 18.478940000000001
#
# number of rings (size 3 to 8) (size 9 to 14) (size 15 to 20)
#    0.000    2.000    2.500    3.000    1.750    2.250 
#    0.000    3.125    5.500    0.375    0.000    1.750 
#    0.000    0.000    0.000    0.000    0.000    0.000 
#
# Total GULP energy -1585702.741582 kJ/mol
# GULP energy per Si atom -12388.302669 kJ/mol
# Density = 1.843688 g / cm^3
# Si number density = 18.478940 Si / 1000 Ang^3
#
#
#
# Elastic Constant Matrix: (Units=GPa)
#
#
# Indices 1 2 3 4 5 6 
#
# 1 87.3492 40.3303 26.4885 0.0000 0.0000 0.0000
# 2 40.3303 87.3490 26.4887 0.0000 0.0000 0.0000
# 3 26.4885 26.4887 79.9113 0.0000 0.0000 0.0000
# 4 0.0000 0.0000 0.0000 17.8352 0.0000 0.0000
# 5 0.0000 0.0000 0.0000 0.0000 17.8354 0.0000
# 6 0.0000 0.0000 0.0000 0.0000 0.0000 21.2361
#
#
#
# Elastic Compliance Matrix: (Units=1/GPa)
#
#
# Indices 1 2 3 4 5 6 
#
# 1 0.015175 -0.006093 -0.003010 0.000000 0.000000 0.000000
# 2 -0.006093 0.015175 -0.003010 0.000000 0.000000 0.000000
# 3 -0.003010 -0.003010 0.014509 0.000000 0.000000 0.000000
# 4 0.000000 0.000000 0.000000 0.056069 0.000000 0.000000
# 5 0.000000 0.000000 0.000000 0.000000 0.056068 0.000000
# 6 0.000000 0.000000 0.000000 0.000000 0.000000 0.047090
#
#
# Mechanical properties :
#
#
# Convention : Reuss Voigt Hill
#
# Bulk Modulus (GPa) = 48.47070 49.02496 48.74783
# Shear Modulus (GPa) = 21.25939 22.13480 21.69709
#
# Velocity S-wave (km/s) = 3.39553 3.46474 3.43031
# Velocity P-wave (km/s) = 6.45446 6.52638 6.49052
#
# Compressibility (1/GPa) = 0.02063102
#
# Stress axis : x y z
#
# Youngs Moduli (GPa) = 65.89976 65.89951 68.92057
#
# Poissons Ratio (x) = 0.40156 0.20746
# Poissons Ratio (y) = 0.40156 0.20746
# Poissons Ratio (z) = 0.19837 0.19837
#
# Static dielectric constant tensor:
#      x y z
#    x 3.329080 0.000000 0.000000 
#    y 0.000000 3.329080 0.000000 
#    z 0.000000 0.000000 3.604400 
# 
# 
# High freq. dielectric constant tensor:
#      x y z
#    x 1.697320 0.000000 0.000000 
#    y 0.000000 1.697320 0.000000 
#    z 0.000000 0.000000 1.692790 
# 
# From -- ./inp_files/6620.got.cif
#   From: 2010.03.12/outbox.cif.g09.slc.cpg/sg128_4_cif.got.tgz:6620.got - 2010.04.06 17:11:05.
