data_PCOD8314582
_publ_section_title
;
Structure prediction by ZEFSAII (Michael W. Deem and Ramdas Pophale) SiO2 
 PCOD8314582
Probable space group: P 4/M N C
;
_chemical_formula_sum "Si O2"
_cell_formula_units_Z 80
_cell_length_a 11.934051
_cell_length_b 11.934051
_cell_length_c 27.745593
_cell_angle_alpha 90.000000
_cell_angle_beta 90.000000
_cell_angle_gamma 90.000000
_cell_volume 3951.571006
_symmetry_space_group_name_H-M "P 4/M N C"
_symmetry_group_IT_number 128
_symmetry_cell_setting 'tetragonal'
loop_
_space_group_symop_operation_xyz
x,y,z
-y,x,z
-x,-y,z
y,-x,z
1/2+x,1/2-y,1/2-z
1/2-x,1/2+y,1/2-z
1/2+y,1/2+x,1/2-z
1/2-y,1/2-x,1/2-z
-x,-y,-z
y,-x,-z
x,y,-z
-y,x,-z
1/2-x,1/2+y,1/2+z
1/2+x,1/2-y,1/2+z
1/2-y,1/2-x,1/2+z
1/2+y,1/2+x,1/2+z
loop_
_atom_site_type_symbol
_atom_site_label
_atom_site_fract_x
_atom_site_fract_y
_atom_site_fract_z
Si Si1 0.520629 0.320184 0.266599
Si Si2 0.503207 0.821415 0.177685
Si Si3 0.916750 0.396501 0.052973
Si Si4 0.464378 0.320573 0.090261
Si Si5 0.331364 0.997625 0.149727
O O1 0.622404 0.402478 0.255990
O O2 0.533748 0.214160 0.231165
O O3 0.526179 0.284382 0.322763
O O4 0.538659 0.712043 0.146891
O O5 0.605833 0.907708 0.181306
O O6 0.402212 0.882612 0.149058
O O7 0.789539 0.439275 0.058770
O O8 0.954930 0.310693 0.095360
O O9 0.000000 0.500000 0.057649
O O10 0.928044 0.340053 0.000000
O O11 0.587067 0.370130 0.078234
#
# Coordination Sequence:
#
# PCOD8314582 Si02
#       5
#    16  16  16  16  16
#     4  11  24  37  53  81 118 156 193 237 290 350
#     4  10  19  36  57  86 116 154 191 233 284 355
#     4  10  20  40  62  82 112 153 200 244 288 350
#     4  10  20  34  58  93 129 156 186 240 308 364
#     4  10  20  37  57  85 111 149 196 247 288 342
#
# _framework density 20.245111999999999
#
# number of rings (size 3 to 8) (size 9 to 14) (size 15 to 20)
#    0.000    1.800    4.000    2.400    0.000   10.400 
#    0.000    1.000    0.000    0.000    0.000    1.400 
#    0.000    0.000    0.000    0.000    0.000    0.000 
#
# Total GULP energy -991724.653578 kJ/mol
# GULP energy per Si atom -12396.558170 kJ/mol
# Density = 2.019903 g / cm^3
# Si number density = 20.245112 Si / 1000 Ang^3
#
#
#
# Elastic Constant Matrix: (Units=GPa)
#
#
# Indices 1 2 3 4 5 6 
#
# 1 79.8130 14.4379 32.6929 0.0000 0.0000 0.0000
# 2 14.4379 79.8130 32.6929 0.0000 0.0000 0.0000
# 3 32.6929 32.6929 151.9705 0.0000 0.0000 0.0000
# 4 0.0000 0.0000 0.0000 14.3716 0.0000 0.0000
# 5 0.0000 0.0000 0.0000 0.0000 14.3716 0.0000
# 6 0.0000 0.0000 0.0000 0.0000 0.0000 -5.0302
#
#
#
# Elastic Compliance Matrix: (Units=1/GPa)
#
#
# Indices 1 2 3 4 5 6 
#
# 1 0.013884 -0.001413 -0.002683 0.000000 0.000000 0.000000
# 2 -0.001413 0.013884 -0.002683 0.000000 0.000000 0.000000
# 3 -0.002683 -0.002683 0.007735 0.000000 0.000000 0.000000
# 4 0.000000 0.000000 0.000000 0.069582 0.000000 0.000000
# 5 0.000000 0.000000 0.000000 0.000000 0.069582 0.000000
# 6 0.000000 0.000000 0.000000 0.000000 0.000000 -0.198799
#
#
# Mechanical properties :
#
#
# Convention : Reuss Voigt Hill
#
# Bulk Modulus (GPa) = 45.56759 52.36041 48.96400
# Shear Modulus (GPa) = -1533.25777 20.19410 -756.53183
#
# Velocity S-wave (km/s) = -27.54980 3.16172 -19.35194
# Velocity P-wave (km/s) = 31.45523 6.26482 21.79660
#
# Compressibility (1/GPa) = 0.02194542
#
# Stress axis : x y z
#
# Youngs Moduli (GPa) = 72.02652 72.02652 129.29008
#
# Poissons Ratio (x) = 0.10174 0.34687
# Poissons Ratio (y) = 0.10174 0.34687
# Poissons Ratio (z) = 0.19324 0.19324
#
# Static dielectric constant tensor:
#      x y z
#    x 3.547590 0.000000 0.000000 
#    y 0.000000 3.547590 0.000000 
#    z 0.000000 0.000000 3.815590 
# 
# 
# High freq. dielectric constant tensor:
#      x y z
#    x 1.775870 0.000000 0.000000 
#    y 0.000000 1.775870 0.000000 
#    z 0.000000 0.000000 1.789690 
# 
# From -- ./inp_files/7175.got.cif
#   From: 2010.03.12/outbox.cif.g09.slc.cpg/sg128_4_cif.got.tgz:7175.got - 2010.04.06 17:11:05.
