data_PCOD8314084
_publ_section_title
;
Structure prediction by ZEFSAII (Michael W. Deem and Ramdas Pophale) SiO2 
 PCOD8314084
Probable space group: P 4/M B M
;
_chemical_formula_sum "Si O2"
_cell_formula_units_Z 120
_cell_length_a 26.480281
_cell_length_b 26.480281
_cell_length_c 9.094676
_cell_angle_alpha 90.000000
_cell_angle_beta 90.000000
_cell_angle_gamma 90.000000
_cell_volume 6377.234848
_symmetry_space_group_name_H-M "P 4/M B M"
_symmetry_group_IT_number 127
_symmetry_cell_setting 'tetragonal'
loop_
_space_group_symop_operation_xyz
x,y,z
-y,x,z
-x,-y,z
y,-x,z
1/2+x,1/2-y,-z
1/2-x,1/2+y,-z
1/2+y,1/2+x,-z
1/2-y,1/2-x,-z
-x,-y,-z
y,-x,-z
x,y,-z
-y,x,-z
1/2-x,1/2+y,z
1/2+x,1/2-y,z
1/2-y,1/2-x,z
1/2+y,1/2+x,z
loop_
_atom_site_type_symbol
_atom_site_label
_atom_site_fract_x
_atom_site_fract_y
_atom_site_fract_z
Si Si1 0.459474 0.040527 0.174660
Si Si2 0.587243 0.758553 0.828876
Si Si3 0.268212 0.684409 0.336442
Si Si4 0.508399 0.692484 0.671389
Si Si5 0.497211 0.579493 0.325404
Si Si6 0.012540 0.651994 0.171569
Si Si7 0.248068 0.335988 0.163912
Si Si8 0.433451 0.781725 0.328917
O O1 0.403690 0.025979 0.231266
O O2 0.500000 0.000000 0.235536
O O3 0.459245 0.040756 0.000000
O O4 0.640879 0.760963 0.750233
O O5 0.555893 0.712236 0.762462
O O6 0.560357 0.812007 0.799096
O O7 0.595207 0.748601 0.000000
O O8 0.283755 0.665958 0.500000
O O9 0.231395 0.731395 0.349376
O O10 0.318889 0.701325 0.250257
O O11 0.523249 0.691710 0.500000
O O12 0.495028 0.636839 0.732813
O O13 0.460700 0.728372 0.700013
O O14 0.448313 0.548304 0.268753
O O15 0.496881 0.579801 0.500000
O O16 0.964741 0.671902 0.261718
O O17 0.998039 0.651440 0.000000
O O18 0.210753 0.289248 0.152451
O O19 0.219757 0.379931 0.250500
O O20 0.263211 0.354236 0.000000
O O21 0.425580 0.792448 0.500000
#
# Coordination Sequence:
#
# PCOD8314084 Si02
#       8
#     8  16  16  16  16  16  16  16
#     4   9  18  34  57  83 107 133 177 233 279 327
#     4  10  20  33  52  76 106 141 178 219 265 320
#     4  10  21  36  54  78 107 137 172 216 267 321
#     4   9  18  32  50  74 105 138 176 217 261 314
#     4   8  14  26  46  72  99 129 170 218 264 311
#     4   9  19  35  55  79 107 142 183 225 273 332
#     4  10  21  37  56  78 105 139 179 220 263 317
#     4  10  20  34  53  78 109 143 179 222 270 322
#
# _framework density 18.816934
#
# number of rings (size 3 to 8) (size 9 to 14) (size 15 to 20)
#    0.000    2.600    0.000    2.000    0.933    4.267 
#    0.000    4.333    0.000    1.200    0.000    0.933 
#    0.000    0.000    0.000    0.000    0.000    0.000 
#
# Total GULP energy -1488021.610427 kJ/mol
# GULP energy per Si atom -12400.180087 kJ/mol
# Density = 1.877411 g / cm^3
# Si number density = 18.816934 Si / 1000 Ang^3
#
#
#
# Elastic Constant Matrix: (Units=GPa)
#
#
# Indices 1 2 3 4 5 6 
#
# 1 105.9529 29.6269 36.5224 0.0000 0.0000 0.0000
# 2 29.6269 105.9528 36.5223 0.0000 0.0000 0.0000
# 3 36.5224 36.5223 92.8811 0.0000 0.0000 0.0000
# 4 0.0000 0.0000 0.0000 26.1058 0.0000 0.0000
# 5 0.0000 0.0000 0.0000 0.0000 26.1058 0.0000
# 6 0.0000 0.0000 0.0000 0.0000 0.0000 18.3487
#
#
#
# Elastic Compliance Matrix: (Units=1/GPa)
#
#
# Indices 1 2 3 4 5 6 
#
# 1 0.011230 -0.001872 -0.003680 0.000000 0.000000 0.000000
# 2 -0.001872 0.011230 -0.003680 0.000000 0.000000 0.000000
# 3 -0.003680 -0.003680 0.013660 0.000000 0.000000 0.000000
# 4 0.000000 0.000000 0.000000 0.038306 0.000000 0.000000
# 5 0.000000 0.000000 0.000000 0.000000 0.038306 0.000000
# 6 0.000000 0.000000 0.000000 0.000000 0.000000 0.054500
#
#
# Mechanical properties :
#
#
# Convention : Reuss Voigt Hill
#
# Bulk Modulus (GPa) = 56.63275 56.68112 56.65693
# Shear Modulus (GPa) = 26.09876 27.58641 26.84258
#
# Velocity S-wave (km/s) = 3.72826 3.83305 3.78102
# Velocity P-wave (km/s) = 6.97820 7.05531 7.01686
#
# Compressibility (1/GPa) = 0.01765763
#
# Stress axis : x y z
#
# Youngs Moduli (GPa) = 89.04733 89.04729 73.20436
#
# Poissons Ratio (x) = 0.16667 0.26938
# Poissons Ratio (y) = 0.16667 0.26938
# Poissons Ratio (z) = 0.32768 0.32768
#
# Static dielectric constant tensor:
#      x y z
#    x 3.464040 0.000000 0.000000 
#    y 0.000000 3.464050 0.000000 
#    z 0.000000 0.000000 3.452040 
# 
# 
# High freq. dielectric constant tensor:
#      x y z
#    x 1.728450 0.000000 0.000000 
#    y 0.000000 1.728450 0.000000 
#    z 0.000000 0.000000 1.717850 
# 
# From -- ./inp_files/2393.got.cif
#   From: 2010.03.12/outbox.cif.g09.slc.cpg/sg127_2_cif.got.tgz:2393.got - 2010.04.06 17:03:15.
