data_PCOD8314134
_publ_section_title
;
Structure prediction by ZEFSAII (Michael W. Deem and Ramdas Pophale) SiO2 
 PCOD8314134
Probable space group: P 4/M B M
;
_chemical_formula_sum "Si O2"
_cell_formula_units_Z 88
_cell_length_a 18.999297
_cell_length_b 18.999297
_cell_length_c 13.858298
_cell_angle_alpha 90.000000
_cell_angle_beta 90.000000
_cell_angle_gamma 90.000000
_cell_volume 5002.475374
_symmetry_space_group_name_H-M "P 4/M B M"
_symmetry_group_IT_number 127
_symmetry_cell_setting 'tetragonal'
loop_
_space_group_symop_operation_xyz
x,y,z
-y,x,z
-x,-y,z
y,-x,z
1/2+x,1/2-y,-z
1/2-x,1/2+y,-z
1/2+y,1/2+x,-z
1/2-y,1/2-x,-z
-x,-y,-z
y,-x,-z
x,y,-z
-y,x,-z
1/2-x,1/2+y,z
1/2+x,1/2-y,z
1/2-y,1/2-x,z
1/2+y,1/2+x,z
loop_
_atom_site_type_symbol
_atom_site_label
_atom_site_fract_x
_atom_site_fract_y
_atom_site_fract_z
Si Si1 0.745640 0.132221 0.791006
Si Si2 0.173008 0.883283 0.608463
Si Si3 0.709280 0.461092 0.390550
Si Si4 0.940675 0.440675 0.114237
Si Si5 0.291825 0.024452 0.205095
Si Si6 0.732441 0.344263 0.112999
O O1 0.676367 0.176367 0.815419
O O2 0.763709 0.140735 0.677841
O O3 0.812507 0.158752 0.851699
O O4 0.731285 0.053326 0.824101
O O5 0.195334 0.863014 0.500000
O O6 0.101211 0.844073 0.637830
O O7 0.163551 0.967485 0.619418
O O8 0.737901 0.452259 0.500000
O O9 0.777696 0.462168 0.319756
O O10 0.965996 0.371952 0.171689
O O11 0.000000 0.500000 0.123094
O O12 0.924754 0.424754 0.000000
O O13 0.240387 0.076418 0.148239
O O14 0.797098 0.297098 0.154833
O O15 0.733677 0.342863 0.000000
#
# Coordination Sequence:
#
# PCOD8314134 Si02
#       6
#    16  16  16   8  16  16
#     4  10  21  35  53  80 110 141 180 226 277 332
#     4   9  17  31  51  78 109 142 180 224 271 323
#     4   9  18  32  53  81 112 145 184 224 270 330
#     4  11  24  40  61  85 107 143 194 239 286 335
#     4  11  20  36  58  80 113 146 180 234 281 328
#     4  10  20  35  55  78 105 141 182 226 281 335
#
# _framework density 17.591290000000001
#
# number of rings (size 3 to 8) (size 9 to 14) (size 15 to 20)
#    0.000    2.091    2.727    1.091    0.000    2.182 
#    0.000    4.091    0.000    2.727    0.000    1.273 
#    0.000    0.000    0.000    0.000    0.000    0.000 
#
# Total GULP energy -1090861.531632 kJ/mol
# GULP energy per Si atom -12396.153769 kJ/mol
# Density = 1.755125 g / cm^3
# Si number density = 17.591290 Si / 1000 Ang^3
#
#
#
# Elastic Constant Matrix: (Units=GPa)
#
#
# Indices 1 2 3 4 5 6 
#
# 1 108.3028 72.4531 50.8383 0.0000 0.0000 0.0000
# 2 72.4531 108.3028 50.8383 0.0000 0.0000 0.0000
# 3 50.8383 50.8383 85.4141 0.0000 0.0000 0.0000
# 4 0.0000 0.0000 0.0000 27.1206 0.0000 0.0000
# 5 0.0000 0.0000 0.0000 0.0000 27.1206 0.0000
# 6 0.0000 0.0000 0.0000 0.0000 0.0000 23.3821
#
#
#
# Elastic Compliance Matrix: (Units=1/GPa)
#
#
# Indices 1 2 3 4 5 6 
#
# 1 0.018106 -0.009789 -0.004950 0.000000 0.000000 0.000000
# 2 -0.009789 0.018106 -0.004950 0.000000 0.000000 0.000000
# 3 -0.004950 -0.004950 0.017600 0.000000 0.000000 0.000000
# 4 0.000000 0.000000 0.000000 0.036872 0.000000 0.000000
# 5 0.000000 0.000000 0.000000 0.000000 0.036872 0.000000
# 6 0.000000 0.000000 0.000000 0.000000 0.000000 0.042768
#
#
# Mechanical properties :
#
#
# Convention : Reuss Voigt Hill
#
# Bulk Modulus (GPa) = 69.28403 72.25322 70.76862
# Shear Modulus (GPa) = 23.30864 24.05068 23.67966
#
# Velocity S-wave (km/s) = 3.64402 3.70157 3.67291
# Velocity P-wave (km/s) = 7.56149 7.70917 7.63568
#
# Compressibility (1/GPa) = 0.01443334
#
# Stress axis : x y z
#
# Youngs Moduli (GPa) = 55.23182 55.23182 56.81722
#
# Poissons Ratio (x) = 0.54065 0.28125
# Poissons Ratio (y) = 0.54065 0.28125
# Poissons Ratio (z) = 0.27341 0.27341
#
# Static dielectric constant tensor:
#      x y z
#    x 3.310120 0.000000 0.000000 
#    y 0.000000 3.310120 0.000000 
#    z 0.000000 0.000000 3.426820 
# 
# 
# High freq. dielectric constant tensor:
#      x y z
#    x 1.675770 0.000000 0.000000 
#    y 0.000000 1.675770 0.000000 
#    z 0.000000 0.000000 1.687000 
# 
# From -- ./inp_files/4373.got.cif
#   From: 2010.03.12/outbox.cif.g09.slc.cpg/sg127_3_cif.got.tgz:4373.got - 2010.04.06 17:03:15.
