data_PCOD8314533
_publ_section_title
;
Structure prediction by ZEFSAII (Michael W. Deem and Ramdas Pophale) SiO2 
 PCOD8314533
Probable space group: P 4/M N C
;
_chemical_formula_sum "Si O2"
_cell_formula_units_Z 96
_cell_length_a 24.997446
_cell_length_b 24.997446
_cell_length_c 9.059279
_cell_angle_alpha 90.000000
_cell_angle_beta 90.000000
_cell_angle_gamma 90.000000
_cell_volume 5660.892564
_symmetry_space_group_name_H-M "P 4/M N C"
_symmetry_group_IT_number 128
_symmetry_cell_setting 'tetragonal'
loop_
_space_group_symop_operation_xyz
x,y,z
-y,x,z
-x,-y,z
y,-x,z
1/2+x,1/2-y,1/2-z
1/2-x,1/2+y,1/2-z
1/2+y,1/2+x,1/2-z
1/2-y,1/2-x,1/2-z
-x,-y,-z
y,-x,-z
x,y,-z
-y,x,-z
1/2-x,1/2+y,1/2+z
1/2+x,1/2-y,1/2+z
1/2-y,1/2-x,1/2+z
1/2+y,1/2+x,1/2+z
loop_
_atom_site_type_symbol
_atom_site_label
_atom_site_fract_x
_atom_site_fract_y
_atom_site_fract_z
Si Si1 0.309827 0.890563 0.175208
Si Si2 0.896840 0.802814 0.672664
Si Si3 0.501458 0.685476 0.334674
Si Si4 0.491268 0.187575 0.663260
Si Si5 0.809398 0.387739 0.827987
Si Si6 0.105256 0.813546 0.330141
O O1 0.348613 0.848613 0.250000
O O2 0.251321 0.882362 0.242897
O O3 0.333075 0.949922 0.211094
O O4 0.306210 0.881264 0.000000
O O5 0.905329 0.790830 0.500000
O O6 0.847803 0.842369 0.702101
O O7 0.950193 0.830844 0.737012
O O8 0.495198 0.662283 0.500000
O O9 0.504997 0.748924 0.337502
O O10 0.555798 0.662578 0.263126
O O11 0.476459 0.166418 0.500000
O O12 0.445363 0.167865 0.774657
O O13 0.839654 0.339654 0.750000
O O14 0.747330 0.381683 0.784746
O O15 0.819816 0.383322 0.000000
O O16 0.087802 0.816096 0.500000
#
# Coordination Sequence:
#
# PCOD8314533 Si02
#       6
#    16  16  16  16  16  16
#     4  10  20  33  50  73 100 129 162 199 242 289
#     4  10  19  32  50  72 100 130 162 200 241 288
#     4   9  17  30  49  71  94 124 162 201 240 284
#     4   8  16  31  48  67  91 121 159 197 232 277
#     4  10  19  31  48  70  96 125 158 194 235 282
#     4   9  19  33  49  71  97 129 164 197 238 286
#
# _framework density 16.958456999999999
#
# number of rings (size 3 to 8) (size 9 to 14) (size 15 to 20)
#    0.000    2.667    0.000    3.000    0.000    7.333 
#    0.000    1.667    0.000    1.000    0.000    7.000 
#    0.000    0.000    0.000    0.000    0.000    0.000 
#
# Total GULP energy -1190201.114255 kJ/mol
# GULP energy per Si atom -12397.928273 kJ/mol
# Density = 1.691986 g / cm^3
# Si number density = 16.958457 Si / 1000 Ang^3
#
#
#
# Elastic Constant Matrix: (Units=GPa)
#
#
# Indices 1 2 3 4 5 6 
#
# 1 88.2843 52.9015 60.2837 0.0000 0.0000 0.0000
# 2 52.9015 88.2843 60.2837 0.0000 0.0000 0.0000
# 3 60.2837 60.2837 118.4863 0.0000 0.0000 0.0000
# 4 0.0000 0.0000 0.0000 28.2008 0.0000 0.0000
# 5 0.0000 0.0000 0.0000 0.0000 28.2008 0.0000
# 6 0.0000 0.0000 0.0000 0.0000 0.0000 0.2229
#
#
#
# Elastic Compliance Matrix: (Units=1/GPa)
#
#
# Indices 1 2 3 4 5 6 
#
# 1 0.020393 -0.007869 -0.006372 0.000000 0.000000 0.000000
# 2 -0.007869 0.020393 -0.006372 0.000000 0.000000 0.000000
# 3 -0.006372 -0.006372 0.014924 0.000000 0.000000 0.000000
# 4 0.000000 0.000000 0.000000 0.035460 0.000000 0.000000
# 5 0.000000 0.000000 0.000000 0.000000 0.035460 0.000000
# 6 0.000000 0.000000 0.000000 0.000000 0.000000 4.486451
#
#
# Mechanical properties :
#
#
# Convention : Reuss Voigt Hill
#
# Bulk Modulus (GPa) = 69.04166 71.33254 70.18710
# Shear Modulus (GPa) = 1.07316 19.43062 10.25189
#
# Velocity S-wave (km/s) = 0.79636 3.38861 2.46139
# Velocity P-wave (km/s) = 6.45339 7.58054 7.03956
#
# Compressibility (1/GPa) = 0.01448401
#
# Stress axis : x y z
#
# Youngs Moduli (GPa) = 49.03536 49.03536 67.00623
#
# Poissons Ratio (x) = 0.38585 0.42698
# Poissons Ratio (y) = 0.38585 0.42698
# Poissons Ratio (z) = 0.31247 0.31247
#
# Static dielectric constant tensor:
#      x y z
#    x 3.136360 0.000000 0.000000 
#    y 0.000000 3.136360 0.000000 
#    z 0.000000 0.000000 3.390420 
# 
# 
# High freq. dielectric constant tensor:
#      x y z
#    x 1.636600 0.000000 0.000000 
#    y 0.000000 1.636600 0.000000 
#    z 0.000000 0.000000 1.669510 
# 
# From -- ./inp_files/1520.got.cif
#   From: 2010.03.12/outbox.cif.g09.slc.cpg/sg128_1_cif.got.tgz:1520.got - 2010.04.06 17:11:05.
