data_PCOD8314215
_publ_section_title
;
Structure prediction by ZEFSAII (Michael W. Deem and Ramdas Pophale) SiO2 
 PCOD8314215
Probable space group: P 4/M B M
;
_chemical_formula_sum "Si O2"
_cell_formula_units_Z 72
_cell_length_a 19.293508
_cell_length_b 19.293508
_cell_length_c 10.288305
_cell_angle_alpha 90.000000
_cell_angle_beta 90.000000
_cell_angle_gamma 90.000000
_cell_volume 3829.713004
_symmetry_space_group_name_H-M "P 4/M B M"
_symmetry_group_IT_number 127
_symmetry_cell_setting 'tetragonal'
loop_
_space_group_symop_operation_xyz
x,y,z
-y,x,z
-x,-y,z
y,-x,z
1/2+x,1/2-y,-z
1/2-x,1/2+y,-z
1/2+y,1/2+x,-z
1/2-y,1/2-x,-z
-x,-y,-z
y,-x,-z
x,y,-z
-y,x,-z
1/2-x,1/2+y,z
1/2+x,1/2-y,z
1/2-y,1/2-x,z
1/2+y,1/2+x,z
loop_
_atom_site_type_symbol
_atom_site_label
_atom_site_fract_x
_atom_site_fract_y
_atom_site_fract_z
Si Si1 0.583378 0.576817 0.000000
Si Si2 0.677583 0.435437 0.644530
Si Si3 0.433350 0.818195 0.150581
Si Si4 0.448171 0.166379 0.650177
Si Si5 0.334286 0.419615 0.242357
O O1 0.504547 0.597569 0.000000
O O2 0.620901 0.609106 0.123078
O O3 0.674855 0.465399 0.500000
O O4 0.757201 0.418214 0.680122
O O5 0.649334 0.499553 0.730916
O O6 0.631344 0.365283 0.647644
O O7 0.368246 0.868246 0.151769
O O8 0.492166 0.850504 0.244211
O O9 0.408150 0.746489 0.215196
O O10 0.459185 0.807830 0.000000
O O11 0.475470 0.160405 0.500000
O O12 0.386835 0.113166 0.675712
#
# Coordination Sequence:
#
# PCOD8314215 Si02
#       5
#     8  16  16  16  16
#     4  11  20  32  51  78 106 145 192 225 263 321
#     4  10  21  35  54  81 111 145 184 227 272 322
#     4  10  22  38  58  84 113 145 183 231 283 335
#     4   9  20  40  62  83 109 143 186 232 281 339
#     4  11  20  35  55  76 112 148 184 225 271 325
#
# _framework density 18.800363999999998
#
# number of rings (size 3 to 8) (size 9 to 14) (size 15 to 20)
#    0.000    1.889    3.333    0.667    0.000    3.556 
#    0.000    3.333    0.000    0.000    0.000    0.000 
#    0.000    0.000    0.000    0.000    0.000    0.000 
#
# Total GULP energy -892280.323157 kJ/mol
# GULP energy per Si atom -12392.782266 kJ/mol
# Density = 1.875757 g / cm^3
# Si number density = 18.800364 Si / 1000 Ang^3
#
#
#
# Elastic Constant Matrix: (Units=GPa)
#
#
# Indices 1 2 3 4 5 6 
#
# 1 88.3477 44.3514 33.5888 0.0000 0.0000 0.0000
# 2 44.3514 88.3477 33.5888 0.0000 0.0000 0.0000
# 3 33.5888 33.5888 75.5758 0.0000 0.0000 0.0000
# 4 0.0000 0.0000 0.0000 27.8610 0.0000 0.0000
# 5 0.0000 0.0000 0.0000 0.0000 27.8610 0.0000
# 6 0.0000 0.0000 0.0000 0.0000 0.0000 35.4341
#
#
#
# Elastic Compliance Matrix: (Units=1/GPa)
#
#
# Indices 1 2 3 4 5 6 
#
# 1 0.016226 -0.006503 -0.004322 0.000000 0.000000 0.000000
# 2 -0.006503 0.016226 -0.004322 0.000000 0.000000 0.000000
# 3 -0.004322 -0.004322 0.017073 0.000000 0.000000 0.000000
# 4 0.000000 0.000000 0.000000 0.035892 0.000000 0.000000
# 5 0.000000 0.000000 0.000000 0.000000 0.035892 0.000000
# 6 0.000000 0.000000 0.000000 0.000000 0.000000 0.028221
#
#
# Mechanical properties :
#
#
# Convention : Reuss Voigt Hill
#
# Bulk Modulus (GPa) = 51.99101 52.81433 52.40267
# Shear Modulus (GPa) = 26.84775 27.61402 27.23088
#
# Velocity S-wave (km/s) = 3.78305 3.83665 3.80994
# Velocity P-wave (km/s) = 6.84078 6.91229 6.87662
#
# Compressibility (1/GPa) = 0.01923410
#
# Stress axis : x y z
#
# Youngs Moduli (GPa) = 61.62798 61.62798 58.57181
#
# Poissons Ratio (x) = 0.40076 0.25312
# Poissons Ratio (y) = 0.40076 0.25312
# Poissons Ratio (z) = 0.26633 0.26633
#
# Static dielectric constant tensor:
#      x y z
#    x 3.258460 0.000000 0.000000 
#    y 0.000000 3.258460 0.000000 
#    z 0.000000 0.000000 3.728080 
# 
# 
# High freq. dielectric constant tensor:
#      x y z
#    x 1.719060 0.000000 0.000000 
#    y 0.000000 1.719060 0.000000 
#    z 0.000000 0.000000 1.746870 
# 
# From -- ./inp_files/1524.got.cif
#   From: 2010.03.12/outbox.cif.g09.slc.cpg/sg127_1_cif.got.tgz:1524.got - 2010.04.06 17:03:15.
