data_PCOD8314446
_publ_section_title
;
Structure prediction by ZEFSAII (Michael W. Deem and Ramdas Pophale) SiO2 
 PCOD8314446
Probable space group: P 4/M B M
;
_chemical_formula_sum "Si O2"
_cell_formula_units_Z 72
_cell_length_a 14.956590
_cell_length_b 14.956590
_cell_length_c 18.118445
_cell_angle_alpha 90.000000
_cell_angle_beta 90.000000
_cell_angle_gamma 90.000000
_cell_volume 4053.088617
_symmetry_space_group_name_H-M "P 4/M B M"
_symmetry_group_IT_number 127
_symmetry_cell_setting 'tetragonal'
loop_
_space_group_symop_operation_xyz
x,y,z
-y,x,z
-x,-y,z
y,-x,z
1/2+x,1/2-y,-z
1/2-x,1/2+y,-z
1/2+y,1/2+x,-z
1/2-y,1/2-x,-z
-x,-y,-z
y,-x,-z
x,y,-z
-y,x,-z
1/2-x,1/2+y,z
1/2+x,1/2-y,z
1/2-y,1/2-x,z
1/2+y,1/2+x,z
loop_
_atom_site_type_symbol
_atom_site_label
_atom_site_fract_x
_atom_site_fract_y
_atom_site_fract_z
Si Si1 0.004700 0.356841 0.656426
Si Si2 0.424993 0.075008 0.913376
Si Si3 0.355136 0.006019 0.500000
Si Si4 0.304436 0.344010 0.148587
Si Si5 0.890120 0.100657 0.000000
Si Si6 0.531812 0.764073 0.193408
O O1 0.938091 0.438091 0.641657
O O2 0.102573 0.397428 0.675964
O O3 0.008461 0.301132 0.578016
O O4 0.969950 0.300904 0.724487
O O5 0.460227 0.162819 0.871750
O O6 0.500000 0.000000 0.906814
O O7 0.404260 0.095741 0.000000
O O8 0.435063 0.935063 0.500000
O O9 0.393242 0.106759 0.500000
O O10 0.213039 0.286962 0.149563
O O11 0.341927 0.351782 0.066991
O O12 0.291021 0.442041 0.181154
O O13 0.381127 0.297568 0.196411
O O14 0.994571 0.124872 0.000000
#
# Coordination Sequence:
#
# PCOD8314446 Si02
#       6
#    16   8   8  16   8  16
#     4   9  15  29  53  82 114 144 183 234 293 346
#     4  11  24  40  56  81 111 142 192 243 300 344
#     4   7  12  22  46  82 112 141 176 225 287 352
#     4  12  25  40  59  83 112 149 197 242 290 347
#     4  11  23  42  62  76 105 151 196 244 292 340
#     4  12  24  39  58  82 114 156 191 239 291 341
#
# _framework density 17.764232
#
# number of rings (size 3 to 8) (size 9 to 14) (size 15 to 20)
#    0.000    1.444    4.444    3.667    3.111    0.444 
#    0.000    0.000    0.000    1.333    0.000    6.222 
#    0.000    1.778    0.000    0.000    0.000    0.000 
#
# Total GULP energy -892159.727296 kJ/mol
# GULP energy per Si atom -12391.107324 kJ/mol
# Density = 1.772380 g / cm^3
# Si number density = 17.764232 Si / 1000 Ang^3
#
#
#
# Elastic Constant Matrix: (Units=GPa)
#
#
# Indices 1 2 3 4 5 6 
#
# 1 64.0245 17.7449 32.6620 0.0000 0.0000 0.0000
# 2 17.7449 64.0243 32.6621 0.0000 0.0000 0.0000
# 3 32.6620 32.6621 168.3147 0.0000 0.0000 0.0000
# 4 0.0000 0.0000 0.0000 14.0393 0.0000 0.0000
# 5 0.0000 0.0000 0.0000 0.0000 14.0392 0.0000
# 6 0.0000 0.0000 0.0000 0.0000 0.0000 32.3504
#
#
#
# Elastic Compliance Matrix: (Units=1/GPa)
#
#
# Indices 1 2 3 4 5 6 
#
# 1 0.018041 -0.003567 -0.002809 0.000000 0.000000 0.000000
# 2 -0.003567 0.018041 -0.002809 0.000000 0.000000 0.000000
# 3 -0.002809 -0.002809 0.007031 0.000000 0.000000 0.000000
# 4 0.000000 0.000000 0.000000 0.071228 0.000000 0.000000
# 5 0.000000 0.000000 0.000000 0.000000 0.071229 0.000000
# 6 0.000000 0.000000 0.000000 0.000000 0.000000 0.030912
#
#
# Mechanical properties :
#
#
# Convention : Reuss Voigt Hill
#
# Bulk Modulus (GPa) = 40.41471 51.38904 45.90187
# Shear Modulus (GPa) = 20.56783 26.30542 23.43663
#
# Velocity S-wave (km/s) = 3.40637 3.85230 3.63618
# Velocity P-wave (km/s) = 6.18637 6.98414 6.59732
#
# Compressibility (1/GPa) = 0.02474347
#
# Stress axis : x y z
#
# Youngs Moduli (GPa) = 55.43079 55.43053 142.22153
#
# Poissons Ratio (x) = 0.19774 0.39944
# Poissons Ratio (y) = 0.19774 0.39944
# Poissons Ratio (z) = 0.15568 0.15568
#
# Static dielectric constant tensor:
#      x y z
#    x 3.232920 0.000000 0.000000 
#    y 0.000000 3.232920 0.000000 
#    z 0.000000 0.000000 3.764330 
# 
# 
# High freq. dielectric constant tensor:
#      x y z
#    x 1.668320 0.000000 0.000000 
#    y 0.000000 1.668320 0.000000 
#    z 0.000000 0.000000 1.701760 
# 
# From -- ./inp_files/4996.got.cif
#   From: 2010.03.12/outbox.cif.g09.slc.cpg/sg127_3_cif.got.tgz:4996.got - 2010.04.06 17:03:15.
