data_PCOD8314107
_publ_section_title
;
Structure prediction by ZEFSAII (Michael W. Deem and Ramdas Pophale) SiO2 
 PCOD8314107
Probable space group: P 4/M B M
;
_chemical_formula_sum "Si O2"
_cell_formula_units_Z 96
_cell_length_a 23.983150
_cell_length_b 23.983150
_cell_length_c 8.906739
_cell_angle_alpha 90.000000
_cell_angle_beta 90.000000
_cell_angle_gamma 90.000000
_cell_volume 5123.080422
_symmetry_space_group_name_H-M "P 4/M B M"
_symmetry_group_IT_number 127
_symmetry_cell_setting 'tetragonal'
loop_
_space_group_symop_operation_xyz
x,y,z
-y,x,z
-x,-y,z
y,-x,z
1/2+x,1/2-y,-z
1/2-x,1/2+y,-z
1/2+y,1/2+x,-z
1/2-y,1/2-x,-z
-x,-y,-z
y,-x,-z
x,y,-z
-y,x,-z
1/2-x,1/2+y,z
1/2+x,1/2-y,z
1/2-y,1/2-x,z
1/2+y,1/2+x,z
loop_
_atom_site_type_symbol
_atom_site_label
_atom_site_fract_x
_atom_site_fract_y
_atom_site_fract_z
Si Si1 0.565333 0.847767 0.323620
Si Si2 0.559218 0.149291 0.675980
Si Si3 0.777218 0.944804 0.322058
Si Si4 0.561515 0.266262 0.823580
Si Si5 0.637372 0.363614 0.170377
Si Si6 0.925621 0.052352 0.664330
O O1 0.574546 0.848081 0.500000
O O2 0.611406 0.888595 0.247687
O O3 0.503550 0.870036 0.283902
O O4 0.572099 0.784551 0.264614
O O5 0.564494 0.162714 0.500000
O O6 0.600169 0.100169 0.727211
O O7 0.574737 0.204736 0.765443
O O8 0.779847 0.951257 0.500000
O O9 0.816935 0.893457 0.274629
O O10 0.792587 0.005795 0.254570
O O11 0.619458 0.300066 0.788880
O O12 0.549382 0.265985 0.000000
O O13 0.578004 0.393232 0.195898
O O14 0.657752 0.369334 0.000000
O O15 0.901653 0.070361 0.500000
O O16 0.986995 0.076761 0.678068
#
# Coordination Sequence:
#
# PCOD8314107 Si02
#       6
#    16  16  16  16  16  16
#     4   8  15  30  53  81 109 133 161 202 254 308
#     4   9  18  33  55  83 110 136 170 211 255 307
#     4  10  20  34  54  77 102 135 173 215 262 310
#     4  10  21  36  53  74 104 141 178 217 261 310
#     4  11  22  33  47  69  96 131 175 216 256 304
#     4   9  18  31  46  66  92 122 159 207 262 313
#
# _framework density 18.738726
#
# number of rings (size 3 to 8) (size 9 to 14) (size 15 to 20)
#    0.000    2.500    0.000    4.000    0.000    6.667 
#    0.000    3.333    0.000   15.500    0.000    4.667 
#    0.000    0.000    0.000    0.000    0.000    0.000 
#
# Total GULP energy -1189477.672610 kJ/mol
# GULP energy per Si atom -12390.392423 kJ/mol
# Density = 1.869608 g / cm^3
# Si number density = 18.738726 Si / 1000 Ang^3
#
#
#
# Elastic Constant Matrix: (Units=GPa)
#
#
# Indices 1 2 3 4 5 6 
#
# 1 76.9503 50.2557 37.1894 0.0000 0.0000 0.0000
# 2 50.2557 76.9503 37.1894 0.0000 0.0000 0.0000
# 3 37.1894 37.1894 57.9758 0.0000 0.0000 0.0000
# 4 0.0000 0.0000 0.0000 19.5252 0.0000 0.0000
# 5 0.0000 0.0000 0.0000 0.0000 19.5252 0.0000
# 6 0.0000 0.0000 0.0000 0.0000 0.0000 37.8939
#
#
#
# Elastic Compliance Matrix: (Units=1/GPa)
#
#
# Indices 1 2 3 4 5 6 
#
# 1 0.025020 -0.012441 -0.008069 0.000000 0.000000 0.000000
# 2 -0.012441 0.025020 -0.008069 0.000000 0.000000 0.000000
# 3 -0.008069 -0.008069 0.027601 0.000000 0.000000 0.000000
# 4 0.000000 0.000000 0.000000 0.051216 0.000000 0.000000
# 5 0.000000 0.000000 0.000000 0.000000 0.051216 0.000000
# 6 0.000000 0.000000 0.000000 0.000000 0.000000 0.026389
#
#
# Mechanical properties :
#
#
# Convention : Reuss Voigt Hill
#
# Bulk Modulus (GPa) = 48.82169 51.23838 50.03004
# Shear Modulus (GPa) = 18.48780 21.20496 19.84638
#
# Velocity S-wave (km/s) = 3.14444 3.36759 3.25793
# Velocity P-wave (km/s) = 6.26848 6.52103 6.39600
#
# Compressibility (1/GPa) = 0.02048270
#
# Stress axis : x y z
#
# Youngs Moduli (GPa) = 39.96778 39.96778 36.23064
#
# Poissons Ratio (x) = 0.49723 0.29236
# Poissons Ratio (y) = 0.49723 0.29236
# Poissons Ratio (z) = 0.32251 0.32251
#
# Static dielectric constant tensor:
#      x y z
#    x 3.580270 0.000000 0.000000 
#    y 0.000000 3.580270 0.000000 
#    z 0.000000 0.000000 3.300500 
# 
# 
# High freq. dielectric constant tensor:
#      x y z
#    x 1.722490 0.000000 0.000000 
#    y 0.000000 1.722490 0.000000 
#    z 0.000000 0.000000 1.712230 
# 
# From -- ./inp_files/2039.got.cif
#   From: 2010.03.12/outbox.cif.g09.slc.cpg/sg127_2_cif.got.tgz:2039.got - 2010.04.06 17:03:15.
