data_PCOD8314082
_publ_section_title
;
Structure prediction by ZEFSAII (Michael W. Deem and Ramdas Pophale) SiO2 
 PCOD8314082
Probable space group: P 4/M B M
;
_chemical_formula_sum "Si O2"
_cell_formula_units_Z 96
_cell_length_a 23.647793
_cell_length_b 23.647793
_cell_length_c 9.302595
_cell_angle_alpha 90.000000
_cell_angle_beta 90.000000
_cell_angle_gamma 90.000000
_cell_volume 5202.179629
_symmetry_space_group_name_H-M "P 4/M B M"
_symmetry_group_IT_number 127
_symmetry_cell_setting 'tetragonal'
loop_
_space_group_symop_operation_xyz
x,y,z
-y,x,z
-x,-y,z
y,-x,z
1/2+x,1/2-y,-z
1/2-x,1/2+y,-z
1/2+y,1/2+x,-z
1/2-y,1/2-x,-z
-x,-y,-z
y,-x,-z
x,y,-z
-y,x,-z
1/2-x,1/2+y,z
1/2+x,1/2-y,z
1/2-y,1/2-x,z
1/2+y,1/2+x,z
loop_
_atom_site_type_symbol
_atom_site_label
_atom_site_fract_x
_atom_site_fract_y
_atom_site_fract_z
Si Si1 0.438342 0.697791 0.830873
Si Si2 0.784857 0.484478 0.668958
Si Si3 0.687807 0.277728 0.166734
Si Si4 0.464035 0.585281 0.666203
Si Si5 0.500093 0.910721 0.329373
Si Si6 0.764459 0.355456 0.664862
O O1 0.484075 0.736924 0.756329
O O2 0.378178 0.726978 0.797003
O O3 0.441186 0.634926 0.766887
O O4 0.450128 0.694048 0.000000
O O5 0.778307 0.497570 0.500000
O O6 0.846749 0.501986 0.728766
O O7 0.776936 0.419288 0.705089
O O8 0.720661 0.220661 0.218211
O O9 0.711638 0.332941 0.245239
O O10 0.697918 0.288012 0.000000
O O11 0.426975 0.529743 0.699657
O O12 0.457036 0.602945 0.500000
O O13 0.504735 0.909026 0.500000
O O14 0.554793 0.945208 0.270164
O O15 0.442916 0.942916 0.280633
O O16 0.747347 0.348543 0.500000
O O17 0.820785 0.320785 0.702825
#
# Coordination Sequence:
#
# PCOD8314082 Si02
#       6
#    16  16  16  16  16  16
#     4  11  24  37  53  80 111 146 184 222 265 318
#     4  10  20  33  51  79 111 141 175 220 270 318
#     4   9  20  39  57  73 101 142 182 219 262 312
#     4   9  20  40  63  84 107 138 175 219 276 333
#     4   8  14  27  50  79 109 141 178 223 273 320
#     4   9  18  33  55  81 105 133 173 222 270 313
#
# _framework density 18.453804000000002
#
# number of rings (size 3 to 8) (size 9 to 14) (size 15 to 20)
#    0.000    2.667    0.000    2.000    2.333    5.333 
#    0.000    0.833    0.000    1.500    0.000    1.167 
#    0.000    0.000    0.000    0.000    0.000    0.000 
#
# Total GULP energy -1190306.065606 kJ/mol
# GULP energy per Si atom -12399.021517 kJ/mol
# Density = 1.841180 g / cm^3
# Si number density = 18.453804 Si / 1000 Ang^3
#
#
#
# Elastic Constant Matrix: (Units=GPa)
#
#
# Indices 1 2 3 4 5 6 
#
# 1 86.2728 45.4584 43.7836 0.0000 0.0000 0.0000
# 2 45.4584 86.2728 43.7836 0.0000 0.0000 0.0000
# 3 43.7836 43.7836 54.9807 0.0000 0.0000 0.0000
# 4 0.0000 0.0000 0.0000 21.1657 0.0000 0.0000
# 5 0.0000 0.0000 0.0000 0.0000 21.1657 0.0000
# 6 0.0000 0.0000 0.0000 0.0000 0.0000 21.7664
#
#
#
# Elastic Compliance Matrix: (Units=1/GPa)
#
#
# Indices 1 2 3 4 5 6 
#
# 1 0.020315 -0.004186 -0.012845 0.000000 0.000000 0.000000
# 2 -0.004186 0.020315 -0.012845 0.000000 0.000000 0.000000
# 3 -0.012845 -0.012845 0.038646 0.000000 0.000000 0.000000
# 4 0.000000 0.000000 0.000000 0.047246 0.000000 0.000000
# 5 0.000000 0.000000 0.000000 0.000000 0.047246 0.000000
# 6 0.000000 0.000000 0.000000 0.000000 0.000000 0.045942
#
#
# Mechanical properties :
#
#
# Convention : Reuss Voigt Hill
#
# Bulk Modulus (GPa) = 51.21336 54.84197 53.02766
# Shear Modulus (GPa) = 17.48429 19.11962 18.30195
#
# Velocity S-wave (km/s) = 3.08143 3.22231 3.15266
# Velocity P-wave (km/s) = 6.36182 6.60511 6.48460
#
# Compressibility (1/GPa) = 0.01952616
#
# Stress axis : x y z
#
# Youngs Moduli (GPa) = 49.22363 49.22363 25.87592
#
# Poissons Ratio (x) = 0.20604 0.33237
# Poissons Ratio (y) = 0.20604 0.33237
# Poissons Ratio (z) = 0.63227 0.63227
#
# Static dielectric constant tensor:
#      x y z
#    x 3.550830 0.000000 0.000000 
#    y 0.000000 3.550830 0.000000 
#    z 0.000000 0.000000 3.182150 
# 
# 
# High freq. dielectric constant tensor:
#      x y z
#    x 1.722140 0.000000 0.000000 
#    y 0.000000 1.722140 0.000000 
#    z 0.000000 0.000000 1.691060 
# 
# From -- ./inp_files/1942.got.cif
#   From: 2010.03.12/outbox.cif.g09.slc.cpg/sg127_1_cif.got.tgz:1942.got - 2010.04.06 17:03:15.
