data_PCOD8314605
_publ_section_title
;
Structure prediction by ZEFSAII (Michael W. Deem and Ramdas Pophale) SiO2 
 PCOD8314605
Probable space group: P 4/M N C
;
_chemical_formula_sum "Si O2"
_cell_formula_units_Z 80
_cell_length_a 27.451232
_cell_length_b 27.451232
_cell_length_c 7.893272
_cell_angle_alpha 90.000000
_cell_angle_beta 90.000000
_cell_angle_gamma 90.000000
_cell_volume 5948.134073
_symmetry_space_group_name_H-M "P 4/M N C"
_symmetry_group_IT_number 128
_symmetry_cell_setting 'tetragonal'
loop_
_space_group_symop_operation_xyz
x,y,z
-y,x,z
-x,-y,z
y,-x,z
1/2+x,1/2-y,1/2-z
1/2-x,1/2+y,1/2-z
1/2+y,1/2+x,1/2-z
1/2-y,1/2-x,1/2-z
-x,-y,-z
y,-x,-z
x,y,-z
-y,x,-z
1/2-x,1/2+y,1/2+z
1/2+x,1/2-y,1/2+z
1/2-y,1/2-x,1/2+z
1/2+y,1/2+x,1/2+z
loop_
_atom_site_type_symbol
_atom_site_label
_atom_site_fract_x
_atom_site_fract_y
_atom_site_fract_z
Si Si1 0.136817 0.055042 0.500000
Si Si2 0.182800 0.101190 0.187852
Si Si3 0.246716 0.674579 0.197663
Si Si4 0.055039 0.136818 0.500000
Si Si5 0.246712 0.325425 0.197663
Si Si6 0.682803 0.601187 0.687852
O O1 0.170259 0.062071 0.332755
O O2 0.090137 0.090139 0.500000
O O3 0.117175 0.000001 0.500000
O O4 0.237033 0.124002 0.213397
O O5 0.144648 0.144652 0.208387
O O6 0.179777 0.077330 0.000000
O O7 0.192083 0.692083 0.250000
O O8 0.283595 0.716409 0.260025
O O9 0.250180 0.665499 0.000000
O O10 0.062068 0.170262 0.667245
O O11 0.192080 0.307921 0.250000
O O12 0.262964 0.376002 0.286603
O O13 0.250176 0.334506 0.000000
O O14 0.679780 0.577326 0.500000
#
# Coordination Sequence:
#
# PCOD8314605 Si02
#       6
#     8  16  16   8  16  16
#     4  10  20  33  46  58  72  92 124 168 215 257
#     4   9  16  27  41  56  75  96 118 148 189 236
#     4   9  14  20  32  53  79 102 121 139 165 212
#     4  10  20  33  46  58  72  92 124 168 215 257
#     4   9  14  20  32  53  79 102 121 139 165 212
#     4   9  16  27  41  56  75  96 118 148 189 236
#
# _framework density 13.449596
#
# number of rings (size 3 to 8) (size 9 to 14) (size 15 to 20)
#    0.000    2.800    2.000    1.200    0.000    5.800 
#    0.000    0.000    0.000    0.000    0.000    5.600 
#    0.000    0.000    0.000    0.000    0.000    0.000 
#
# Total GULP energy -991153.664102 kJ/mol
# GULP energy per Si atom -12389.420801 kJ/mol
# Density = 1.341898 g / cm^3
# Si number density = 13.449596 Si / 1000 Ang^3
#
#
#
# Elastic Constant Matrix: (Units=GPa)
#
#
# Indices 1 2 3 4 5 6 
#
# 1 35.4392 33.3766 27.9592 0.0000 0.0000 0.0000
# 2 33.3766 35.4386 27.9586 0.0000 0.0000 0.0000
# 3 27.9592 27.9586 92.9826 0.0000 0.0000 0.0000
# 4 0.0000 0.0000 0.0000 10.8542 0.0000 0.0000
# 5 0.0000 0.0000 0.0000 0.0000 10.8544 0.0000
# 6 0.0000 0.0000 0.0000 0.0000 0.0000 9.9685
#
#
#
# Elastic Compliance Matrix: (Units=1/GPa)
#
#
# Indices 1 2 3 4 5 6 
#
# 1 0.252066 -0.232837 -0.005783 0.000000 0.000000 0.000000
# 2 -0.232837 0.252068 -0.005781 0.000000 0.000000 0.000000
# 3 -0.005783 -0.005781 0.014232 0.000000 0.000000 0.000000
# 4 0.000000 0.000000 0.000000 0.092130 0.000000 0.000000
# 5 0.000000 0.000000 0.000000 0.000000 0.092128 0.000000
# 6 0.000000 0.000000 0.000000 0.000000 0.000000 0.100316
#
#
# Mechanical properties :
#
#
# Convention : Reuss Voigt Hill
#
# Bulk Modulus (GPa) = 33.82589 38.04992 35.93791
# Shear Modulus (GPa) = 3.84143 11.30647 7.57395
#
# Velocity S-wave (km/s) = 1.69185 2.90255 2.37562
# Velocity P-wave (km/s) = 5.38713 6.29168 5.85690
#
# Compressibility (1/GPa) = 0.02956315
#
# Stress axis : x y z
#
# Youngs Moduli (GPa) = 3.96722 3.96718 70.26383
#
# Poissons Ratio (x) = 0.92370 0.40636
# Poissons Ratio (y) = 0.92372 0.40621
# Poissons Ratio (z) = 0.02294 0.02294
#
# Static dielectric constant tensor:
#      x y z
#    x 2.397110 0.000000 0.000000 
#    y 0.000000 2.397110 0.000000 
#    z 0.000000 0.000000 2.861270 
# 
# 
# High freq. dielectric constant tensor:
#      x y z
#    x 1.462770 0.000000 0.000000 
#    y 0.000000 1.462770 0.000000 
#    z 0.000000 0.000000 1.536210 
# 
# From -- ./inp_files/1364.got.cif
#   From: 2010.03.12/outbox.cif.g09.slc.cpg/sg128_1_cif.got.tgz:1364.got - 2010.04.06 17:11:05.
