data_PCOD8314142
_publ_section_title
;
Structure prediction by ZEFSAII (Michael W. Deem and Ramdas Pophale) SiO2 
 PCOD8314142
Probable space group: P 4/M B M
;
_chemical_formula_sum "Si O2"
_cell_formula_units_Z 72
_cell_length_a 20.133590
_cell_length_b 20.133590
_cell_length_c 9.505403
_cell_angle_alpha 90.000000
_cell_angle_beta 90.000000
_cell_angle_gamma 90.000000
_cell_volume 3853.123908
_symmetry_space_group_name_H-M "P 4/M B M"
_symmetry_group_IT_number 127
_symmetry_cell_setting 'tetragonal'
loop_
_space_group_symop_operation_xyz
x,y,z
-y,x,z
-x,-y,z
y,-x,z
1/2+x,1/2-y,-z
1/2-x,1/2+y,-z
1/2+y,1/2+x,-z
1/2-y,1/2-x,-z
-x,-y,-z
y,-x,-z
x,y,-z
-y,x,-z
1/2-x,1/2+y,z
1/2+x,1/2-y,z
1/2-y,1/2-x,z
1/2+y,1/2+x,z
loop_
_atom_site_type_symbol
_atom_site_label
_atom_site_fract_x
_atom_site_fract_y
_atom_site_fract_z
Si Si1 0.092554 0.055007 0.839037
Si Si2 0.555462 0.944539 0.161065
Si Si3 0.991537 0.672410 0.335734
Si Si4 0.659672 0.159672 0.334111
Si Si5 0.406107 0.285443 0.337048
Si Si6 0.234465 0.734465 0.667022
O O1 0.145317 0.089681 0.740830
O O2 0.022781 0.089310 0.805449
O O3 0.112901 0.066388 0.000000
O O4 0.528847 0.880735 0.241454
O O5 0.500000 0.000000 0.165238
O O6 0.573765 0.926236 0.000000
O O7 0.996145 0.651310 0.500000
O O8 0.915077 0.678358 0.285536
O O9 0.028215 0.742022 0.308872
O O10 0.663925 0.163925 0.500000
O O11 0.712328 0.212328 0.269299
O O12 0.398054 0.301791 0.500000
O O13 0.339861 0.249528 0.279692
O O14 0.237397 0.737397 0.500000
#
# Coordination Sequence:
#
# PCOD8314142 Si02
#       6
#    16   8  16   8  16   8
#     4   9  20  39  59  80 111 151 190 228 280 340
#     4  11  22  35  53  79 111 144 183 234 283 317
#     4  10  20  35  56  82 107 146 191 226 273 344
#     4   9  18  32  53  76 108 150 184 216 277 347
#     4  10  21  35  59  88 113 142 187 237 281 332
#     4   9  19  35  51  78 120 149 171 227 293 340
#
# _framework density 18.686135
#
# number of rings (size 3 to 8) (size 9 to 14) (size 15 to 20)
#    0.000    2.333    1.111    1.667    3.111    4.000 
#    0.000    1.667    0.000    1.333    0.000    0.000 
#    0.000    0.000    0.000    0.000    0.000    0.000 
#
# Total GULP energy -892793.207092 kJ/mol
# GULP energy per Si atom -12399.905654 kJ/mol
# Density = 1.864360 g / cm^3
# Si number density = 18.686135 Si / 1000 Ang^3
#
#
#
# Elastic Constant Matrix: (Units=GPa)
#
#
# Indices 1 2 3 4 5 6 
#
# 1 107.7852 61.1347 32.8032 0.0000 0.0000 0.0000
# 2 61.1347 107.7850 32.8032 0.0000 0.0000 0.0000
# 3 32.8032 32.8032 50.0736 0.0000 0.0000 0.0000
# 4 0.0000 0.0000 0.0000 21.3952 0.0000 0.0000
# 5 0.0000 0.0000 0.0000 0.0000 21.3952 0.0000
# 6 0.0000 0.0000 0.0000 0.0000 0.0000 37.5801
#
#
#
# Elastic Compliance Matrix: (Units=1/GPa)
#
#
# Indices 1 2 3 4 5 6 
#
# 1 0.014688 -0.006748 -0.005202 0.000000 0.000000 0.000000
# 2 -0.006748 0.014688 -0.005202 0.000000 0.000000 0.000000
# 3 -0.005202 -0.005202 0.026786 0.000000 0.000000 0.000000
# 4 0.000000 0.000000 0.000000 0.046740 0.000000 0.000000
# 5 0.000000 0.000000 0.000000 0.000000 0.046740 0.000000
# 6 0.000000 0.000000 0.000000 0.000000 0.000000 0.026610
#
#
# Mechanical properties :
#
#
# Convention : Reuss Voigt Hill
#
# Bulk Modulus (GPa) = 45.74635 57.68070 51.71353
# Shear Modulus (GPa) = 22.95263 25.33426 24.14345
#
# Velocity S-wave (km/s) = 3.50855 3.68608 3.59841
# Velocity P-wave (km/s) = 6.39905 7.00368 6.70818
#
# Compressibility (1/GPa) = 0.02185967
#
# Stress axis : x y z
#
# Youngs Moduli (GPa) = 68.08222 68.08208 37.33323
#
# Poissons Ratio (x) = 0.45941 0.19419
# Poissons Ratio (y) = 0.45941 0.19419
# Poissons Ratio (z) = 0.35414 0.35414
#
# Static dielectric constant tensor:
#      x y z
#    x 3.547170 0.000000 0.000000 
#    y 0.000000 3.547170 0.000000 
#    z 0.000000 0.000000 3.203540 
# 
# 
# High freq. dielectric constant tensor:
#      x y z
#    x 1.733940 0.000000 0.000000 
#    y 0.000000 1.733940 0.000000 
#    z 0.000000 0.000000 1.695490 
# 
# From -- ./inp_files/1632.got.cif
#   From: 2010.03.12/outbox.cif.g09.slc.cpg/sg127_1_cif.got.tgz:1632.got - 2010.04.06 17:03:15.
