data_PCOD8314997
_publ_section_title
;
Structure prediction by ZEFSAII (Michael W. Deem and Ramdas Pophale) SiO2 
 PCOD8314997
Probable space group: P 4/N M M
;
_chemical_formula_sum "Si O2"
_cell_formula_units_Z 112
_cell_length_a 18.571672
_cell_length_b 18.571672
_cell_length_c 20.503767
_cell_angle_alpha 90.000000
_cell_angle_beta 90.000000
_cell_angle_gamma 90.000000
_cell_volume 7071.892783
_symmetry_space_group_name_H-M "P 4/N M M"
_symmetry_group_IT_number 129
_symmetry_cell_setting 'tetragonal'
loop_
_space_group_symop_operation_xyz
x,y,z
1/2-y,x,z
1/2-x,1/2-y,z
y,1/2-x,z
1/2+x,-y,-z
-x,1/2+y,-z
1/2+y,1/2+x,-z
-y,-x,-z
-x,-y,-z
1/2+y,-x,-z
1/2+x,1/2+y,-z
-y,1/2+x,-z
1/2-x,y,z
x,1/2-y,z
1/2-y,1/2-x,z
y,x,z
loop_
_atom_site_type_symbol
_atom_site_label
_atom_site_fract_x
_atom_site_fract_y
_atom_site_fract_z
Si Si1 0.405913 0.669002 0.318689
Si Si2 0.904310 0.334688 0.199861
Si Si3 0.666031 0.550289 0.734768
Si Si4 0.059191 0.171992 0.649288
Si Si5 0.553272 0.832982 0.499538
Si Si6 0.519941 0.404170 0.386354
Si Si7 0.164272 0.830439 0.071050
O O1 0.382033 0.750000 0.343500
O O2 0.366309 0.651531 0.251911
O O3 0.490883 0.670854 0.303196
O O4 0.395952 0.605095 0.371821
O O5 0.894323 0.250000 0.204572
O O6 0.883398 0.363900 0.128063
O O7 0.986415 0.356330 0.215344
O O8 0.750000 0.569577 0.739578
O O9 0.620913 0.620913 0.754446
O O10 0.647586 0.524417 0.662095
O O11 0.097154 0.250000 0.649755
O O12 0.115447 0.115447 0.676823
O O13 0.032006 0.155290 0.575786
O O14 0.557971 0.750000 0.519632
O O15 0.631152 0.868849 0.513535
O O16 0.492066 0.873762 0.541099
O O17 0.486215 0.486215 0.380032
O O18 0.250000 0.827154 0.070649
O O19 0.133633 0.750000 0.083621
O O20 0.139407 0.860594 0.000000
#
# Coordination Sequence:
#
# PCOD8314997 Si02
#       7
#    16  16  16  16  16  16  16
#     4  10  19  29  42  60  82 110 143 174 198 229
#     4   9  17  29  44  62  86 115 142 168 202 243
#     4   9  17  28  42  61  83 108 139 172 208 250
#     4   9  18  31  46  65  85 104 131 168 211 257
#     4   9  17  29  45  63  82 104 130 165 211 259
#     4   9  17  29  44  60  80 107 136 168 210 256
#     4   8  13  22  39  64  90 113 138 167 198 235
#
# _framework density 15.837344
#
# number of rings (size 3 to 8) (size 9 to 14) (size 15 to 20)
#    0.000    3.000    0.000    1.714    0.000    3.000 
#    0.000    3.571    0.000    3.857    0.000    2.000 
#    0.000    0.000    0.000    0.000    0.000   18.000 
#
# Total GULP energy -1387804.107577 kJ/mol
# GULP energy per Si atom -12391.108103 kJ/mol
# Density = 1.580130 g / cm^3
# Si number density = 15.837344 Si / 1000 Ang^3
#
#
#
# Elastic Constant Matrix: (Units=GPa)
#
#
# Indices 1 2 3 4 5 6 
#
# 1 74.4142 33.9781 15.9547 0.0000 0.0000 0.0000
# 2 33.9781 74.4141 15.9547 0.0000 0.0000 0.0000
# 3 15.9547 15.9547 24.9299 0.0000 0.0000 0.0000
# 4 0.0000 0.0000 0.0000 15.9410 0.0000 0.0000
# 5 0.0000 0.0000 0.0000 0.0000 15.9411 0.0000
# 6 0.0000 0.0000 0.0000 0.0000 0.0000 19.9915
#
#
#
# Elastic Compliance Matrix: (Units=1/GPa)
#
#
# Indices 1 2 3 4 5 6 
#
# 1 0.018049 -0.006681 -0.007275 0.000000 0.000000 0.000000
# 2 -0.006681 0.018049 -0.007275 0.000000 0.000000 0.000000
# 3 -0.007275 -0.007275 0.049424 0.000000 0.000000 0.000000
# 4 0.000000 0.000000 0.000000 0.062731 0.000000 0.000000
# 5 0.000000 0.000000 0.000000 0.000000 0.062731 0.000000
# 6 0.000000 0.000000 0.000000 0.000000 0.000000 0.050021
#
#
# Mechanical properties :
#
#
# Convention : Reuss Voigt Hill
#
# Bulk Modulus (GPa) = 23.22388 33.94815 28.58601
# Shear Modulus (GPa) = 15.73211 17.56610 16.64911
#
# Velocity S-wave (km/s) = 3.15517 3.33401 3.24583
# Velocity P-wave (km/s) = 5.28860 6.02519 5.66887
#
# Compressibility (1/GPa) = 0.04305913
#
# Stress axis : x y z
#
# Youngs Moduli (GPa) = 55.40505 55.40498 20.23304
#
# Poissons Ratio (x) = 0.37019 0.14719
# Poissons Ratio (y) = 0.37019 0.14719
# Poissons Ratio (z) = 0.40307 0.40307
#
# Static dielectric constant tensor:
#      x y z
#    x 3.020340 0.000000 0.000000 
#    y 0.000000 3.020340 0.000000 
#    z 0.000000 0.000000 3.074680 
# 
# 
# High freq. dielectric constant tensor:
#      x y z
#    x 1.600230 0.000000 0.000000 
#    y 0.000000 1.600230 0.000000 
#    z 0.000000 0.000000 1.580910 
# 
# From -- ./inp_files/6655.got.cif
#   From: 2010.03.12/outbox.cif.g09.slc.cpg/sg129_4_cif.got.tgz:6655.got - 2010.04.06 17:19:44.
