data_PCOD8314892
_publ_section_title
;
Structure prediction by ZEFSAII (Michael W. Deem and Ramdas Pophale) SiO2 
 PCOD8314892
Probable space group: P 4/N M M
;
_chemical_formula_sum "Si O2"
_cell_formula_units_Z 112
_cell_length_a 35.712444
_cell_length_b 35.712444
_cell_length_c 5.219269
_cell_angle_alpha 90.000000
_cell_angle_beta 90.000000
_cell_angle_gamma 90.000000
_cell_volume 6656.544285
_symmetry_space_group_name_H-M "P 4/N M M"
_symmetry_group_IT_number 129
_symmetry_cell_setting 'tetragonal'
loop_
_space_group_symop_operation_xyz
x,y,z
1/2-y,x,z
1/2-x,1/2-y,z
y,1/2-x,z
1/2+x,-y,-z
-x,1/2+y,-z
1/2+y,1/2+x,-z
-y,-x,-z
-x,-y,-z
1/2+y,-x,-z
1/2+x,1/2+y,-z
-y,1/2+x,-z
1/2-x,y,z
x,1/2-y,z
1/2-y,1/2-x,z
y,x,z
loop_
_atom_site_type_symbol
_atom_site_label
_atom_site_fract_x
_atom_site_fract_y
_atom_site_fract_z
Si Si1 0.093505 0.290568 0.746169
Si Si2 0.413336 0.793611 0.736752
Si Si3 0.680881 0.621707 0.754055
Si Si4 0.829561 0.294517 0.250336
Si Si5 0.205565 0.959035 0.770860
Si Si6 0.028798 0.349818 0.745671
Si Si7 0.442364 0.381448 0.245549
O O1 0.073395 0.250000 0.747402
O O2 0.119095 0.293275 0.495204
O O3 0.064254 0.323426 0.747627
O O4 0.119456 0.293487 0.995422
O O5 0.408863 0.750000 0.778393
O O6 0.371814 0.811134 0.746696
O O7 0.431721 0.802890 0.465097
O O8 0.438824 0.808202 0.970086
O O9 0.661947 0.661947 0.752158
O O10 0.650074 0.589107 0.754281
O O11 0.808139 0.308139 0.500000
O O12 0.829493 0.250000 0.249864
O O13 0.808701 0.308701 0.000000
O O14 0.250000 0.970485 0.778628
O O15 0.178153 0.993911 0.738056
O O16 0.031088 0.376585 0.495821
O O17 0.030717 0.376295 0.997167
O O18 0.422395 0.422395 0.243958
#
# Coordination Sequence:
#
# PCOD8314892 Si02
#       7
#    16  16  16  16  16  16  16
#     4  10  18  27  39  58  81  98 122 165 210 242
#     4   9  19  33  48  66  92 127 161 196 236 285
#     4   9  17  28  40  52  72 101 127 155 195 251
#     4  11  22  36  54  76 102 132 170 212 255 296
#     4  10  18  30  46  65  91 122 161 199 230 268
#     4  10  18  27  42  62  84 115 151 182 216 257
#     4   9  17  28  40  56  81 114 149 180 214 262
#
# _framework density 16.825548000000001
#
# number of rings (size 3 to 8) (size 9 to 14) (size 15 to 20)
#    0.000    2.286    0.000    3.857    0.000    6.571 
#    0.000    4.286    0.000    0.000    0.000    0.000 
#    0.000   20.000    0.000    0.000    0.000  180.000 
#
# Total GULP energy -1388168.295962 kJ/mol
# GULP energy per Si atom -12394.359785 kJ/mol
# Density = 1.678725 g / cm^3
# Si number density = 16.825548 Si / 1000 Ang^3
#
#
#
# Elastic Constant Matrix: (Units=GPa)
#
#
# Indices 1 2 3 4 5 6 
#
# 1 59.3778 25.5635 30.3324 0.0000 0.0000 0.0000
# 2 25.5635 59.3778 30.3324 0.0000 0.0000 0.0000
# 3 30.3324 30.3324 133.3788 0.0000 0.0000 0.0000
# 4 0.0000 0.0000 0.0000 21.0652 0.0000 0.0000
# 5 0.0000 0.0000 0.0000 0.0000 21.0652 0.0000
# 6 0.0000 0.0000 0.0000 0.0000 0.0000 -16.0921
#
#
#
# Elastic Compliance Matrix: (Units=1/GPa)
#
#
# Indices 1 2 3 4 5 6 
#
# 1 0.021815 -0.007759 -0.003196 0.000000 0.000000 0.000000
# 2 -0.007759 0.021815 -0.003196 0.000000 0.000000 0.000000
# 3 -0.003196 -0.003196 0.008951 0.000000 0.000000 0.000000
# 4 0.000000 0.000000 0.000000 0.047472 0.000000 0.000000
# 5 0.000000 0.000000 0.000000 0.000000 0.047472 0.000000
# 6 0.000000 0.000000 0.000000 0.000000 0.000000 -0.062142
#
#
# Mechanical properties :
#
#
# Convention : Reuss Voigt Hill
#
# Bulk Modulus (GPa) = 41.19151 47.17678 44.18414
# Shear Modulus (GPa) = 41.05854 16.26805 28.66330
#
# Velocity S-wave (km/s) = 4.94525 3.11282 4.13190
# Velocity P-wave (km/s) = 7.55923 6.40462 7.00575
#
# Compressibility (1/GPa) = 0.02427685
#
# Stress axis : x y z
#
# Youngs Moduli (GPa) = 45.84099 45.84099 111.71546
#
# Poissons Ratio (x) = 0.35567 0.35710
# Poissons Ratio (y) = 0.35567 0.35710
# Poissons Ratio (z) = 0.14653 0.14653
#
# Static dielectric constant tensor:
#      x y z
#    x 2.969310 0.000000 0.000000 
#    y 0.000000 2.969310 0.000000 
#    z 0.000000 0.000000 3.644240 
# 
# 
# High freq. dielectric constant tensor:
#      x y z
#    x 1.615160 0.000000 0.000000 
#    y 0.000000 1.615160 0.000000 
#    z 0.000000 0.000000 1.677340 
# 
# From -- ./inp_files/1179.got.cif
#   From: 2010.03.12/outbox.cif.g09.slc.cpg/sg129_1_cif.got.tgz:1179.got - 2010.04.06 17:19:44.
