data_PCOD8314750
_publ_section_title
;
Structure prediction by ZEFSAII (Michael W. Deem and Ramdas Pophale) SiO2 
 PCOD8314750
Probable space group: P 4/M N C
;
_chemical_formula_sum "Si O2"
_cell_formula_units_Z 56
_cell_length_a 16.974889
_cell_length_b 16.974889
_cell_length_c 9.263873
_cell_angle_alpha 90.000000
_cell_angle_beta 90.000000
_cell_angle_gamma 90.000000
_cell_volume 2669.355885
_symmetry_space_group_name_H-M "P 4/M N C"
_symmetry_group_IT_number 128
_symmetry_cell_setting 'tetragonal'
loop_
_space_group_symop_operation_xyz
x,y,z
-y,x,z
-x,-y,z
y,-x,z
1/2+x,1/2-y,1/2-z
1/2-x,1/2+y,1/2-z
1/2+y,1/2+x,1/2-z
1/2-y,1/2-x,1/2-z
-x,-y,-z
y,-x,-z
x,y,-z
-y,x,-z
1/2-x,1/2+y,1/2+z
1/2+x,1/2-y,1/2+z
1/2-y,1/2-x,1/2+z
1/2+y,1/2+x,1/2+z
loop_
_atom_site_type_symbol
_atom_site_label
_atom_site_fract_x
_atom_site_fract_y
_atom_site_fract_z
Si Si1 0.523008 0.123193 0.844531
Si Si2 0.316640 0.604885 0.666863
Si Si3 0.796290 0.054918 0.673014
Si Si4 0.144447 0.644447 0.750000
O O1 0.549105 0.049105 0.750000
O O2 0.562078 0.204026 0.789449
O O3 0.428983 0.135277 0.858687
O O4 0.556803 0.102335 0.000000
O O5 0.343909 0.598230 0.500000
O O6 0.329989 0.522073 0.747204
O O7 0.368331 0.665876 0.757301
O O8 0.227076 0.636700 0.667281
O O9 0.811488 0.049576 0.500000
#
# Coordination Sequence:
#
# PCOD8314750 Si02
#       4
#    16  16  16   8
#     4  10  22  39  60  89 125 163 204 248 302 361
#     4  11  23  41  66  93 122 160 211 259 306 369
#     4  10  23  42  62  90 127 165 204 254 316 370
#     4  10  23  40  62  92 124 165 200 256 308 364
#
# _framework density 20.978843999999999
#
# number of rings (size 3 to 8) (size 9 to 14) (size 15 to 20)
#    0.000    1.714    0.000    3.000    2.000   12.000 
#    0.000    2.857    0.000    0.000    0.000    0.000 
#    0.000    0.000    0.000    0.000    0.000    0.000 
#
# Total GULP energy -694104.330609 kJ/mol
# GULP energy per Si atom -12394.720189 kJ/mol
# Density = 2.093109 g / cm^3
# Si number density = 20.978844 Si / 1000 Ang^3
#
#
#
# Elastic Constant Matrix: (Units=GPa)
#
#
# Indices 1 2 3 4 5 6 
#
# 1 107.0164 78.2455 51.5703 0.0000 0.0000 0.0000
# 2 78.2455 107.0164 51.5703 0.0000 0.0000 0.0000
# 3 51.5703 51.5703 129.8299 0.0000 0.0000 0.0000
# 4 0.0000 0.0000 0.0000 13.4119 0.0000 0.0000
# 5 0.0000 0.0000 0.0000 0.0000 13.4119 0.0000
# 6 0.0000 0.0000 0.0000 0.0000 0.0000 42.8018
#
#
#
# Elastic Compliance Matrix: (Units=1/GPa)
#
#
# Indices 1 2 3 4 5 6 
#
# 1 0.020844 -0.013914 -0.002753 0.000000 0.000000 0.000000
# 2 -0.013914 0.020844 -0.002753 0.000000 0.000000 0.000000
# 3 -0.002753 -0.002753 0.009889 0.000000 0.000000 0.000000
# 4 0.000000 0.000000 0.000000 0.074561 0.000000 0.000000
# 5 0.000000 0.000000 0.000000 0.000000 0.074561 0.000000
# 6 0.000000 0.000000 0.000000 0.000000 0.000000 0.023363
#
#
# Mechanical properties :
#
#
# Convention : Reuss Voigt Hill
#
# Bulk Modulus (GPa) = 78.50110 78.51498 78.50804
# Shear Modulus (GPa) = 18.71630 24.75688 21.73659
#
# Velocity S-wave (km/s) = 2.99013 3.43897 3.22237
# Velocity P-wave (km/s) = 7.03005 7.29902 7.16580
#
# Compressibility (1/GPa) = 0.01273868
#
# Stress axis : x y z
#
# Youngs Moduli (GPa) = 47.97574 47.97574 101.11923
#
# Poissons Ratio (x) = 0.66751 0.27836
# Poissons Ratio (y) = 0.66751 0.27836
# Poissons Ratio (z) = 0.13207 0.13207
#
# Static dielectric constant tensor:
#      x y z
#    x 3.810140 0.000000 0.000000 
#    y 0.000000 3.810140 0.000000 
#    z 0.000000 0.000000 3.738090 
# 
# 
# High freq. dielectric constant tensor:
#      x y z
#    x 1.825360 0.000000 0.000000 
#    y 0.000000 1.825360 0.000000 
#    z 0.000000 0.000000 1.826140 
# 
# From -- ./inp_files/794.got.cif
#   From: 2010.03.12/outbox.cif.g09.slc.cpg/sg128_1_cif.got.tgz:794.got - 2010.04.06 17:11:05.
