data_PCOD8314194
_publ_section_title
;
Structure prediction by ZEFSAII (Michael W. Deem and Ramdas Pophale) SiO2 
 PCOD8314194
Probable space group: P 4/M B M
;
_chemical_formula_sum "Si O2"
_cell_formula_units_Z 88
_cell_length_a 15.229914
_cell_length_b 15.229914
_cell_length_c 17.570794
_cell_angle_alpha 90.000000
_cell_angle_beta 90.000000
_cell_angle_gamma 90.000000
_cell_volume 4075.550596
_symmetry_space_group_name_H-M "P 4/M B M"
_symmetry_group_IT_number 127
_symmetry_cell_setting 'tetragonal'
loop_
_space_group_symop_operation_xyz
x,y,z
-y,x,z
-x,-y,z
y,-x,z
1/2+x,1/2-y,-z
1/2-x,1/2+y,-z
1/2+y,1/2+x,-z
1/2-y,1/2-x,-z
-x,-y,-z
y,-x,-z
x,y,-z
-y,x,-z
1/2-x,1/2+y,z
1/2+x,1/2-y,z
1/2-y,1/2-x,z
1/2+y,1/2+x,z
loop_
_atom_site_type_symbol
_atom_site_label
_atom_site_fract_x
_atom_site_fract_y
_atom_site_fract_z
Si Si1 0.578504 0.785963 0.692627
Si Si2 0.547736 0.636530 0.918704
Si Si3 0.188876 0.457819 0.831964
Si Si4 0.313385 0.676607 0.805111
Si Si5 0.511017 0.642177 0.411216
Si Si6 0.998075 0.354237 0.000000
O O1 0.632470 0.867531 0.654675
O O2 0.529410 0.826621 0.766211
O O3 0.650785 0.713705 0.719764
O O4 0.516275 0.735610 0.632673
O O5 0.448111 0.609931 0.912223
O O6 0.583159 0.695824 0.849856
O O7 0.566409 0.683174 0.000000
O O8 0.104284 0.395717 0.830466
O O9 0.278764 0.408454 0.808520
O O10 0.202013 0.494296 0.919988
O O11 0.244208 0.744208 0.842281
O O12 0.420867 0.592819 0.389540
O O13 0.513025 0.664119 0.500000
O O14 0.078217 0.421784 0.000000
O O15 0.906061 0.406061 0.000000
#
# Coordination Sequence:
#
# PCOD8314194 Si02
#       6
#    16  16  16  16  16   8
#     4  11  22  36  56  85 118 149 184 232 290 341
#     4   9  18  32  49  67  90 127 173 220 273 335
#     4  10  21  37  56  77 107 152 200 243 286 338
#     4  10  21  34  49  74 106 139 179 230 286 335
#     4   9  19  38  65  93 118 148 186 224 268 335
#     4   9  18  34  54  72  94 137 199 247 276 319
#
# _framework density 21.592175999999998
#
# number of rings (size 3 to 8) (size 9 to 14) (size 15 to 20)
#    0.000    2.273    0.000    3.818    1.273    1.818 
#    1.636    1.818    0.000    1.636    0.000    1.273 
#    0.000    0.000    0.000    0.000    0.000    0.000 
#
# Total GULP energy -1090395.097055 kJ/mol
# GULP energy per Si atom -12390.853376 kJ/mol
# Density = 2.154303 g / cm^3
# Si number density = 21.592176 Si / 1000 Ang^3
#
#
#
# Elastic Constant Matrix: (Units=GPa)
#
#
# Indices 1 2 3 4 5 6 
#
# 1 46.2674 8.1580 32.3679 0.0000 0.0000 0.0000
# 2 8.1580 46.2676 32.3678 0.0000 0.0000 0.0000
# 3 32.3679 32.3678 78.6675 0.0000 0.0000 0.0000
# 4 0.0000 0.0000 0.0000 32.7618 0.0000 0.0000
# 5 0.0000 0.0000 0.0000 0.0000 32.7618 0.0000
# 6 0.0000 0.0000 0.0000 0.0000 0.0000 37.9048
#
#
#
# Elastic Compliance Matrix: (Units=1/GPa)
#
#
# Indices 1 2 3 4 5 6 
#
# 1 0.031112 0.004872 -0.014806 0.000000 0.000000 0.000000
# 2 0.004872 0.031112 -0.014806 0.000000 0.000000 0.000000
# 3 -0.014806 -0.014806 0.024895 0.000000 0.000000 0.000000
# 4 0.000000 0.000000 0.000000 0.030523 0.000000 0.000000
# 5 0.000000 0.000000 0.000000 0.000000 0.030523 0.000000
# 6 0.000000 0.000000 0.000000 0.000000 0.000000 0.026382
#
#
# Mechanical properties :
#
#
# Convention : Reuss Voigt Hill
#
# Bulk Modulus (GPa) = 26.56686 35.22112 30.89399
# Shear Modulus (GPa) = 21.13498 27.23959 24.18728
#
# Velocity S-wave (km/s) = 3.13201 3.55568 3.35055
# Velocity P-wave (km/s) = 5.04083 5.76234 5.41362
#
# Compressibility (1/GPa) = 0.03764088
#
# Stress axis : x y z
#
# Youngs Moduli (GPa) = 32.14157 32.14180 40.16798
#
# Poissons Ratio (x) = -0.15660 0.59472
# Poissons Ratio (y) = -0.15660 0.59472
# Poissons Ratio (z) = 0.47588 0.47588
#
# Static dielectric constant tensor:
#      x y z
#    x 3.970100 0.000000 0.000000 
#    y 0.000000 3.970100 0.000000 
#    z 0.000000 0.000000 3.662170 
# 
# 
# High freq. dielectric constant tensor:
#      x y z
#    x 1.856190 0.000000 0.000000 
#    y 0.000000 1.856190 0.000000 
#    z 0.000000 0.000000 1.821850 
# 
# From -- ./inp_files/4365.got.cif
#   From: 2010.03.12/outbox.cif.g09.slc.cpg/sg127_3_cif.got.tgz:4365.got - 2010.04.06 17:03:15.
