data_PCOD8314657
_publ_section_title
;
Structure prediction by ZEFSAII (Michael W. Deem and Ramdas Pophale) SiO2 
 PCOD8314657
Probable space group: P 4/M N C
;
_chemical_formula_sum "Si O2"
_cell_formula_units_Z 96
_cell_length_a 23.719071
_cell_length_b 23.719071
_cell_length_c 8.950847
_cell_angle_alpha 90.000000
_cell_angle_beta 90.000000
_cell_angle_gamma 90.000000
_cell_volume 5035.695763
_symmetry_space_group_name_H-M "P 4/M N C"
_symmetry_group_IT_number 128
_symmetry_cell_setting 'tetragonal'
loop_
_space_group_symop_operation_xyz
x,y,z
-y,x,z
-x,-y,z
y,-x,z
1/2+x,1/2-y,1/2-z
1/2-x,1/2+y,1/2-z
1/2+y,1/2+x,1/2-z
1/2-y,1/2-x,1/2-z
-x,-y,-z
y,-x,-z
x,y,-z
-y,x,-z
1/2-x,1/2+y,1/2+z
1/2+x,1/2-y,1/2+z
1/2-y,1/2-x,1/2+z
1/2+y,1/2+x,1/2+z
loop_
_atom_site_type_symbol
_atom_site_label
_atom_site_fract_x
_atom_site_fract_y
_atom_site_fract_z
Si Si1 0.055910 0.223891 0.673499
Si Si2 0.573946 0.445352 0.163820
Si Si3 0.145259 0.437458 0.175367
Si Si4 0.138140 0.553067 0.323494
Si Si5 0.559631 0.732585 0.325744
Si Si6 0.640239 0.638721 0.329304
O O1 0.050599 0.211463 0.500000
O O2 0.068685 0.288725 0.709409
O O3 0.110409 0.189480 0.732360
O O4 0.995551 0.206140 0.743952
O O5 0.577780 0.511353 0.178463
O O6 0.606080 0.418140 0.302204
O O7 0.597523 0.426690 0.000000
O O8 0.116358 0.383643 0.250000
O O9 0.120483 0.493453 0.252338
O O10 0.132306 0.439712 0.000000
O O11 0.101394 0.601394 0.250000
O O12 0.127987 0.550880 0.500000
O O13 0.202482 0.567067 0.280820
O O14 0.547193 0.725222 0.500000
O O15 0.619672 0.702260 0.284051
O O16 0.659675 0.635561 0.500000
#
# Coordination Sequence:
#
# PCOD8314657 Si02
#       6
#    16  16  16  16  16  16
#     4  10  21  36  55  79 107 141 181 224 270 319
#     4   9  18  31  45  64  93 128 168 219 276 325
#     4  10  21  38  60  86 113 142 176 214 262 318
#     4  10  20  37  60  85 114 144 176 216 263 316
#     4   9  20  37  55  77 107 144 182 223 271 319
#     4  11  21  32  49  73 101 137 182 224 265 316
#
# _framework density 19.063901000000001
#
# number of rings (size 3 to 8) (size 9 to 14) (size 15 to 20)
#    0.000    2.167    0.000    3.500    0.000    7.667 
#    0.000    3.333    0.000    4.000    0.000    0.000 
#    0.000    0.000    0.000    0.000    0.000    0.000 
#
# Total GULP energy -1189896.050056 kJ/mol
# GULP energy per Si atom -12394.750521 kJ/mol
# Density = 1.902051 g / cm^3
# Si number density = 19.063901 Si / 1000 Ang^3
#
#
#
# Elastic Constant Matrix: (Units=GPa)
#
#
# Indices 1 2 3 4 5 6 
#
# 1 66.4359 36.0982 43.0741 0.0000 0.0000 0.0000
# 2 36.0982 66.4427 43.0729 0.0000 0.0000 0.0000
# 3 43.0741 43.0729 84.9049 0.0000 0.0000 0.0000
# 4 0.0000 0.0000 0.0000 32.8001 0.0000 0.0000
# 5 0.0000 0.0000 0.0000 0.0000 32.8000 0.0000
# 6 0.0000 0.0000 0.0000 0.0000 0.0000 37.5517
#
#
#
# Elastic Compliance Matrix: (Units=1/GPa)
#
#
# Indices 1 2 3 4 5 6 
#
# 1 0.024980 -0.007981 -0.008624 0.000000 0.000000 0.000000
# 2 -0.007981 0.024976 -0.008621 0.000000 0.000000 0.000000
# 3 -0.008624 -0.008621 0.020527 0.000000 0.000000 0.000000
# 4 0.000000 0.000000 0.000000 0.030488 0.000000 0.000000
# 5 0.000000 0.000000 0.000000 0.000000 0.030488 0.000000
# 6 0.000000 0.000000 0.000000 0.000000 0.000000 0.026630
#
#
# Mechanical properties :
#
#
# Convention : Reuss Voigt Hill
#
# Bulk Modulus (GPa) = 49.92624 51.36377 50.64500
# Shear Modulus (GPa) = 23.23234 26.99959 25.11597
#
# Velocity S-wave (km/s) = 3.49471 3.76742 3.63362
# Velocity P-wave (km/s) = 6.52148 6.77687 6.65040
#
# Compressibility (1/GPa) = 0.02002955
#
# Stress axis : x y z
#
# Youngs Moduli (GPa) = 40.03200 40.03916 48.71668
#
# Poissons Ratio (x) = 0.31954 0.42014
# Poissons Ratio (y) = 0.31949 0.42001
# Poissons Ratio (z) = 0.34524 0.34520
#
# Static dielectric constant tensor:
#      x y z
#    x 3.517230 0.000000 0.000000 
#    y 0.000000 3.517230 0.000000 
#    z 0.000000 0.000000 3.593060 
# 
# 
# High freq. dielectric constant tensor:
#      x y z
#    x 1.735760 0.000000 0.000000 
#    y 0.000000 1.735760 0.000000 
#    z 0.000000 0.000000 1.748710 
# 
# From -- ./inp_files/1414.got.cif
#   From: 2010.03.12/outbox.cif.g09.slc.cpg/sg128_1_cif.got.tgz:1414.got - 2010.04.06 17:11:05.
