data_PCOD8314436
_publ_section_title
;
Structure prediction by ZEFSAII (Michael W. Deem and Ramdas Pophale) SiO2 
 PCOD8314436
Probable space group: P 4/M B M
;
_chemical_formula_sum "Si O2"
_cell_formula_units_Z 112
_cell_length_a 15.101391
_cell_length_b 15.101391
_cell_length_c 27.746325
_cell_angle_alpha 90.000000
_cell_angle_beta 90.000000
_cell_angle_gamma 90.000000
_cell_volume 6327.605190
_symmetry_space_group_name_H-M "P 4/M B M"
_symmetry_group_IT_number 127
_symmetry_cell_setting 'tetragonal'
loop_
_space_group_symop_operation_xyz
x,y,z
-y,x,z
-x,-y,z
y,-x,z
1/2+x,1/2-y,-z
1/2-x,1/2+y,-z
1/2+y,1/2+x,-z
1/2-y,1/2-x,-z
-x,-y,-z
y,-x,-z
x,y,-z
-y,x,-z
1/2-x,1/2+y,z
1/2+x,1/2-y,z
1/2-y,1/2-x,z
1/2+y,1/2+x,z
loop_
_atom_site_type_symbol
_atom_site_label
_atom_site_fract_x
_atom_site_fract_y
_atom_site_fract_z
Si Si1 0.259408 0.488782 0.251581
Si Si2 0.830268 0.185485 0.296832
Si Si3 0.493562 0.353679 0.949120
Si Si4 0.073262 0.426739 0.388170
Si Si5 0.664841 0.690746 0.590631
Si Si6 0.519852 0.244739 0.444530
Si Si7 0.506433 0.646764 0.845245
Si Si8 0.573713 0.073713 0.719447
O O1 0.319568 0.407906 0.270049
O O2 0.275078 0.573791 0.285002
O O3 0.280525 0.511236 0.196271
O O4 0.157100 0.463876 0.252285
O O5 0.754293 0.254293 0.279952
O O6 0.823972 0.168368 0.353489
O O7 0.582556 0.409845 0.949392
O O8 0.491310 0.302167 0.897676
O O9 0.491065 0.297023 0.000000
O O10 0.154555 0.467790 0.416102
O O11 0.103424 0.396577 0.334564
O O12 0.000000 0.500000 0.382509
O O13 0.723574 0.776426 0.576524
O O14 0.563115 0.705338 0.578149
O O15 0.695584 0.606903 0.559701
O O16 0.501468 0.222524 0.500000
O O17 0.416954 0.590612 0.840140
O O18 0.500000 0.000000 0.717241
#
# Coordination Sequence:
#
# PCOD8314436 Si02
#       8
#    16  16  16   8  16  16  16   8
#     4  12  21  35  57  82 114 145 185 228 278 322
#     4  11  23  38  58  83 110 145 187 225 268 332
#     4   7  10  18  35  59  97 145 180 209 256 318
#     4  11  23  42  65  88 108 136 186 235 273 314
#     4  11  24  43  63  84 114 146 180 222 271 327
#     4  12  25  41  63  88 114 143 175 219 274 330
#     4   9  16  27  42  74 113 142 177 220 268 319
#     4  11  24  41  58  77 109 149 186 226 271 327
#
# _framework density 17.700219000000001
#
# number of rings (size 3 to 8) (size 9 to 14) (size 15 to 20)
#    0.000    1.571    2.857    5.357    0.000    4.857 
#    0.000    2.143    0.000    0.000    0.000    0.500 
#    0.000    4.000    0.000    0.000    0.000    0.000 
#
# Total GULP energy -1388360.828751 kJ/mol
# GULP energy per Si atom -12396.078828 kJ/mol
# Density = 1.765993 g / cm^3
# Si number density = 17.700219 Si / 1000 Ang^3
#
#
#
# Elastic Constant Matrix: (Units=GPa)
#
#
# Indices 1 2 3 4 5 6 
#
# 1 66.7674 6.6684 18.6126 0.0000 0.0000 0.0000
# 2 6.6684 66.7674 18.6126 0.0000 0.0000 0.0000
# 3 18.6126 18.6126 108.3967 0.0000 0.0000 0.0000
# 4 0.0000 0.0000 0.0000 9.0157 0.0000 0.0000
# 5 0.0000 0.0000 0.0000 0.0000 9.0157 0.0000
# 6 0.0000 0.0000 0.0000 0.0000 0.0000 23.6475
#
#
#
# Elastic Compliance Matrix: (Units=1/GPa)
#
#
# Indices 1 2 3 4 5 6 
#
# 1 0.015777 -0.000862 -0.002561 0.000000 0.000000 0.000000
# 2 -0.000862 0.015777 -0.002561 0.000000 0.000000 0.000000
# 3 -0.002561 -0.002561 0.010105 0.000000 0.000000 0.000000
# 4 0.000000 0.000000 0.000000 0.110918 0.000000 0.000000
# 5 0.000000 0.000000 0.000000 0.000000 0.110918 0.000000
# 6 0.000000 0.000000 0.000000 0.000000 0.000000 0.042288
#
#
# Mechanical properties :
#
#
# Convention : Reuss Voigt Hill
#
# Bulk Modulus (GPa) = 33.67958 36.63541 35.15750
# Shear Modulus (GPa) = 15.26024 21.53830 18.39927
#
# Velocity S-wave (km/s) = 2.93942 3.49211 3.22762
# Velocity P-wave (km/s) = 5.53077 6.08296 5.81342
#
# Compressibility (1/GPa) = 0.02969158
#
# Stress axis : x y z
#
# Youngs Moduli (GPa) = 63.38177 63.38177 98.96186
#
# Poissons Ratio (x) = 0.05462 0.25345
# Poissons Ratio (y) = 0.05462 0.25345
# Poissons Ratio (z) = 0.16233 0.16233
#
# Static dielectric constant tensor:
#      x y z
#    x 3.100160 0.000000 0.000000 
#    y 0.000000 3.100160 0.000000 
#    z 0.000000 0.000000 3.722600 
# 
# 
# High freq. dielectric constant tensor:
#      x y z
#    x 1.667080 0.000000 0.000000 
#    y 0.000000 1.667080 0.000000 
#    z 0.000000 0.000000 1.698730 
# 
# From -- ./inp_files/6432.got.cif
#   From: 2010.03.12/outbox.cif.g09.slc.cpg/sg127_4_cif.got.tgz:6432.got - 2010.04.06 17:03:15.
