data_PCOD8314709
_publ_section_title
;
Structure prediction by ZEFSAII (Michael W. Deem and Ramdas Pophale) SiO2 
 PCOD8314709
Probable space group: P 4/M N C
;
_chemical_formula_sum "Si O2"
_cell_formula_units_Z 96
_cell_length_a 14.979958
_cell_length_b 14.979958
_cell_length_c 20.125409
_cell_angle_alpha 90.000000
_cell_angle_beta 90.000000
_cell_angle_gamma 90.000000
_cell_volume 4516.124506
_symmetry_space_group_name_H-M "P 4/M N C"
_symmetry_group_IT_number 128
_symmetry_cell_setting 'tetragonal'
loop_
_space_group_symop_operation_xyz
x,y,z
-y,x,z
-x,-y,z
y,-x,z
1/2+x,1/2-y,1/2-z
1/2-x,1/2+y,1/2-z
1/2+y,1/2+x,1/2-z
1/2-y,1/2-x,1/2-z
-x,-y,-z
y,-x,-z
x,y,-z
-y,x,-z
1/2-x,1/2+y,1/2+z
1/2+x,1/2-y,1/2+z
1/2-y,1/2-x,1/2+z
1/2+y,1/2+x,1/2+z
loop_
_atom_site_type_symbol
_atom_site_label
_atom_site_fract_x
_atom_site_fract_y
_atom_site_fract_z
Si Si1 0.540776 0.641114 0.131949
Si Si2 0.465708 0.263199 0.267562
Si Si3 0.373568 0.838759 0.422712
Si Si4 0.464814 0.186076 0.927769
Si Si5 0.782328 0.168048 0.804693
Si Si6 0.903761 0.464570 0.658935
O O1 0.439501 0.608501 0.129966
O O2 0.558077 0.703506 0.194944
O O3 0.559869 0.708578 0.071540
O O4 0.383411 0.296028 0.313872
O O5 0.563828 0.297030 0.286694
O O6 0.464753 0.155040 0.273426
O O7 0.375696 0.807813 0.500000
O O8 0.324474 0.765139 0.376666
O O9 0.473653 0.855358 0.396182
O O10 0.319171 0.929910 0.413229
O O11 0.408716 0.133328 0.872881
O O12 0.443135 0.145324 0.000000
O O13 0.723047 0.223047 0.750000
O O14 0.000000 0.500000 0.678834
#
# Coordination Sequence:
#
# PCOD8314709 Si02
#       6
#    16  16  16  16  16  16
#     4  11  24  41  60  84 117 164 215 264 312 375
#     4  11  23  41  65  88 125 168 210 269 320 379
#     4   9  19  39  64  93 130 165 202 260 319 381
#     4  10  21  38  62  89 123 165 206 253 319 387
#     4  11  24  42  64  96 127 167 221 265 323 391
#     4   9  20  38  63  95 126 162 206 256 320 388
#
# _framework density 21.257165000000001
#
# number of rings (size 3 to 8) (size 9 to 14) (size 15 to 20)
#    0.000    1.833    1.667    1.500    2.333    3.000 
#    0.000    9.167    0.000    0.000    0.000    4.667 
#    0.000    0.000    0.000    0.000    0.000    0.000 
#
# Total GULP energy -1189791.803211 kJ/mol
# GULP energy per Si atom -12393.664617 kJ/mol
# Density = 2.120878 g / cm^3
# Si number density = 21.257165 Si / 1000 Ang^3
#
#
#
# Elastic Constant Matrix: (Units=GPa)
#
#
# Indices 1 2 3 4 5 6 
#
# 1 116.0361 32.0405 19.0211 0.0000 0.0000 0.0000
# 2 32.0405 116.0361 19.0211 0.0000 0.0000 0.0000
# 3 19.0211 19.0211 58.0728 0.0000 0.0000 0.0000
# 4 0.0000 0.0000 0.0000 24.4860 0.0000 0.0000
# 5 0.0000 0.0000 0.0000 0.0000 24.4860 0.0000
# 6 0.0000 0.0000 0.0000 0.0000 0.0000 2.0061
#
#
#
# Elastic Compliance Matrix: (Units=1/GPa)
#
#
# Indices 1 2 3 4 5 6 
#
# 1 0.009640 -0.002266 -0.002415 0.000000 0.000000 0.000000
# 2 -0.002266 0.009640 -0.002415 0.000000 0.000000 0.000000
# 3 -0.002415 -0.002415 0.018802 0.000000 0.000000 0.000000
# 4 0.000000 0.000000 0.000000 0.040840 0.000000 0.000000
# 5 0.000000 0.000000 0.000000 0.000000 0.040840 0.000000
# 6 0.000000 0.000000 0.000000 0.000000 0.000000 0.498490
#
#
# Mechanical properties :
#
#
# Convention : Reuss Voigt Hill
#
# Bulk Modulus (GPa) = 41.86092 47.81228 44.83660
# Shear Modulus (GPa) = 7.80755 24.86642 16.33699
#
# Velocity S-wave (km/s) = 1.91856 3.42393 2.77526
# Velocity P-wave (km/s) = 4.96419 6.17837 5.60426
#
# Compressibility (1/GPa) = 0.02388863
#
# Stress axis : x y z
#
# Youngs Moduli (GPa) = 103.73909 103.73909 53.18612
#
# Poissons Ratio (x) = 0.23505 0.12845
# Poissons Ratio (y) = 0.23505 0.12845
# Poissons Ratio (z) = 0.25055 0.25055
#
# Static dielectric constant tensor:
#      x y z
#    x 3.965240 0.000000 0.000000 
#    y 0.000000 3.965240 0.000000 
#    z 0.000000 0.000000 3.765720 
# 
# 
# High freq. dielectric constant tensor:
#      x y z
#    x 1.837110 0.000000 0.000000 
#    y 0.000000 1.837110 0.000000 
#    z 0.000000 0.000000 1.824470 
# 
# From -- ./inp_files/5775.got.cif
#   From: 2010.03.12/outbox.cif.g09.slc.cpg/sg128_3_cif.got.tgz:5775.got - 2010.04.06 17:11:05.
