data_PCOD8314649
_publ_section_title
;
Structure prediction by ZEFSAII (Michael W. Deem and Ramdas Pophale) SiO2 
 PCOD8314649
Probable space group: P 4/M N C
;
_chemical_formula_sum "Si O2"
_cell_formula_units_Z 56
_cell_length_a 19.571126
_cell_length_b 19.571126
_cell_length_c 7.935503
_cell_angle_alpha 90.000000
_cell_angle_beta 90.000000
_cell_angle_gamma 90.000000
_cell_volume 3039.527564
_symmetry_space_group_name_H-M "P 4/M N C"
_symmetry_group_IT_number 128
_symmetry_cell_setting 'tetragonal'
loop_
_space_group_symop_operation_xyz
x,y,z
-y,x,z
-x,-y,z
y,-x,z
1/2+x,1/2-y,1/2-z
1/2-x,1/2+y,1/2-z
1/2+y,1/2+x,1/2-z
1/2-y,1/2-x,1/2-z
-x,-y,-z
y,-x,-z
x,y,-z
-y,x,-z
1/2-x,1/2+y,1/2+z
1/2+x,1/2-y,1/2+z
1/2-y,1/2-x,1/2+z
1/2+y,1/2+x,1/2+z
loop_
_atom_site_type_symbol
_atom_site_label
_atom_site_fract_x
_atom_site_fract_y
_atom_site_fract_z
Si Si1 0.759865 0.633202 0.801645
Si Si2 0.256228 0.649227 0.198100
Si Si3 0.995781 0.888979 0.500000
Si Si4 0.496526 0.291146 0.312003
O O1 0.829377 0.670624 0.750000
O O2 0.694691 0.678825 0.742582
O O3 0.760932 0.560046 0.708577
O O4 0.756695 0.621090 0.000000
O O5 0.186814 0.686814 0.250000
O O6 0.254279 0.576153 0.289129
O O7 0.259443 0.636560 0.000000
O O8 0.992776 0.848173 0.327743
O O9 0.929113 0.934320 0.500000
O O10 0.498891 0.322877 0.500000
#
# Coordination Sequence:
#
# PCOD8314649 Si02
#       4
#    16  16   8  16
#     4  10  20  36  58  85 116 150 194 247 297 349
#     4  10  20  36  58  85 116 150 194 247 297 349
#     4  11  24  40  56  80 118 159 198 242 290 351
#     4  12  23  37  59  85 117 157 198 242 295 352
#
# _framework density 18.423915000000001
#
# number of rings (size 3 to 8) (size 9 to 14) (size 15 to 20)
#    0.000    1.286    2.857    3.429    0.000    6.857 
#    0.000    1.429    0.000    0.857    0.000    6.000 
#    0.000    0.000    0.000    0.000    0.000    0.000 
#
# Total GULP energy -694415.969508 kJ/mol
# GULP energy per Si atom -12400.285170 kJ/mol
# Density = 1.838198 g / cm^3
# Si number density = 18.423915 Si / 1000 Ang^3
#
#
#
# Elastic Constant Matrix: (Units=GPa)
#
#
# Indices 1 2 3 4 5 6 
#
# 1 68.6598 -2.5705 16.9165 0.0000 0.0000 0.0000
# 2 -2.5705 68.6634 16.9167 0.0000 0.0000 0.0000
# 3 16.9165 16.9167 121.7435 0.0000 0.0000 0.0000
# 4 0.0000 0.0000 0.0000 78.1492 0.0000 0.0000
# 5 0.0000 0.0000 0.0000 0.0000 78.1618 0.0000
# 6 0.0000 0.0000 0.0000 0.0000 0.0000 31.0873
#
#
#
# Elastic Compliance Matrix: (Units=1/GPa)
#
#
# Indices 1 2 3 4 5 6 
#
# 1 0.015164 0.001125 -0.002263 0.000000 0.000000 0.000000
# 2 0.001125 0.015164 -0.002263 0.000000 0.000000 0.000000
# 3 -0.002263 -0.002263 0.008843 0.000000 0.000000 0.000000
# 4 0.000000 0.000000 0.000000 0.012796 0.000000 0.000000
# 5 0.000000 0.000000 0.000000 0.000000 0.012794 0.000000
# 6 0.000000 0.000000 0.000000 0.000000 0.000000 0.032167
#
#
# Mechanical properties :
#
#
# Convention : Reuss Voigt Hill
#
# Bulk Modulus (GPa) = 30.89482 35.73245 33.31363
# Shear Modulus (GPa) = 43.66019 52.66659 48.16339
#
# Velocity S-wave (km/s) = 4.87330 5.35239 5.11845
# Velocity P-wave (km/s) = 6.96208 7.59171 7.28371
#
# Compressibility (1/GPa) = 0.03236789
#
# Stress axis : x y z
#
# Youngs Moduli (GPa) = 65.94400 65.94753 113.08353
#
# Poissons Ratio (x) = -0.07421 0.25596
# Poissons Ratio (y) = -0.07421 0.25595
# Poissons Ratio (z) = 0.14926 0.14927
#
# Static dielectric constant tensor:
#      x y z
#    x 3.506740 0.000000 0.000000 
#    y 0.000000 3.506730 0.000000 
#    z 0.000000 0.000000 3.530940 
# 
# 
# High freq. dielectric constant tensor:
#      x y z
#    x 1.705140 0.000000 0.000000 
#    y 0.000000 1.705140 0.000000 
#    z 0.000000 0.000000 1.733470 
# 
# From -- ./inp_files/770.got.cif
#   From: 2010.03.12/outbox.cif.g09.slc.cpg/sg128_1_cif.got.tgz:770.got - 2010.04.06 17:11:05.
