data_PCOD8314438
_publ_section_title
;
Structure prediction by ZEFSAII (Michael W. Deem and Ramdas Pophale) SiO2 
 PCOD8314438
Probable space group: P 4/M B M
;
_chemical_formula_sum "Si O2"
_cell_formula_units_Z 96
_cell_length_a 14.860698
_cell_length_b 14.860698
_cell_length_c 21.165695
_cell_angle_alpha 90.000000
_cell_angle_beta 90.000000
_cell_angle_gamma 90.000000
_cell_volume 4674.239387
_symmetry_space_group_name_H-M "P 4/M B M"
_symmetry_group_IT_number 127
_symmetry_cell_setting 'tetragonal'
loop_
_space_group_symop_operation_xyz
x,y,z
-y,x,z
-x,-y,z
y,-x,z
1/2+x,1/2-y,-z
1/2-x,1/2+y,-z
1/2+y,1/2+x,-z
1/2-y,1/2-x,-z
-x,-y,-z
y,-x,-z
x,y,-z
-y,x,-z
1/2-x,1/2+y,z
1/2+x,1/2-y,z
1/2-y,1/2-x,z
1/2+y,1/2+x,z
loop_
_atom_site_type_symbol
_atom_site_label
_atom_site_fract_x
_atom_site_fract_y
_atom_site_fract_z
Si Si1 0.185575 0.836504 0.500000
Si Si2 0.495478 0.254221 0.805852
Si Si3 0.175990 0.825514 0.251944
Si Si4 0.924226 0.424226 0.605725
Si Si5 0.117231 0.092296 0.376414
Si Si6 0.425828 0.074173 0.251314
Si Si7 0.981105 0.668939 0.500000
Si Si8 0.490772 0.648138 0.929220
O O1 0.251488 0.751488 0.500000
O O2 0.119735 0.834781 0.440929
O O3 0.237427 0.930657 0.500000
O O4 0.414315 0.321872 0.789654
O O5 0.583465 0.272399 0.764470
O O6 0.465855 0.153993 0.790195
O O7 0.516233 0.268919 0.880165
O O8 0.239267 0.739267 0.239636
O O9 0.145065 0.825844 0.324176
O O10 0.895113 0.395113 0.677360
O O11 0.839090 0.460966 0.564924
O O12 0.000000 0.500000 0.611680
O O13 0.014459 0.124334 0.370221
O O14 0.500000 0.000000 0.260077
O O15 0.913617 0.586383 0.500000
O O16 0.406469 0.582644 0.918673
O O17 0.488357 0.688643 0.000000
#
# Coordination Sequence:
#
# PCOD8314438 Si02
#       8
#     8  16  16   8  16   8   8  16
#     4  11  23  39  62  88 121 159 207 264 328 402
#     4  12  23  41  68  97 140 173 222 277 330 392
#     4  12  25  42  66  99 134 176 223 277 333 401
#     4   8  16  33  54  79 112 154 216 266 309 373
#     4  11  24  43  66  89 120 166 216 272 337 399
#     4  11  25  42  62  94 139 190 222 267 335 406
#     4   8  16  31  55  82 108 149 205 268 317 365
#     4   9  18  35  65 102 134 166 213 273 329 382
#
# _framework density 20.5381
#
# number of rings (size 3 to 8) (size 9 to 14) (size 15 to 20)
#    0.000    1.500    4.167    2.500    2.333    1.000 
#    0.000    0.417    7.333    3.500    0.000    0.000 
#    0.000    0.000    0.000    0.000    0.000    0.000 
#
# Total GULP energy -1190289.839176 kJ/mol
# GULP energy per Si atom -12398.852491 kJ/mol
# Density = 2.049135 g / cm^3
# Si number density = 20.538100 Si / 1000 Ang^3
#
#
#
# Elastic Constant Matrix: (Units=GPa)
#
#
# Indices 1 2 3 4 5 6 
#
# 1 67.2001 11.3649 27.1328 0.0000 0.0000 0.0000
# 2 11.3649 67.1999 27.1326 0.0000 0.0000 0.0000
# 3 27.1328 27.1326 148.7623 0.0000 0.0000 0.0000
# 4 0.0000 0.0000 0.0000 26.0640 0.0000 0.0000
# 5 0.0000 0.0000 0.0000 0.0000 26.0639 0.0000
# 6 0.0000 0.0000 0.0000 0.0000 0.0000 33.1985
#
#
#
# Elastic Compliance Matrix: (Units=1/GPa)
#
#
# Indices 1 2 3 4 5 6 
#
# 1 0.016236 -0.001673 -0.002656 0.000000 0.000000 0.000000
# 2 -0.001673 0.016236 -0.002656 0.000000 0.000000 0.000000
# 3 -0.002656 -0.002656 0.007691 0.000000 0.000000 0.000000
# 4 0.000000 0.000000 0.000000 0.038367 0.000000 0.000000
# 5 0.000000 0.000000 0.000000 0.000000 0.038367 0.000000
# 6 0.000000 0.000000 0.000000 0.000000 0.000000 0.030122
#
#
# Mechanical properties :
#
#
# Convention : Reuss Voigt Hill
#
# Bulk Modulus (GPa) = 38.17903 46.04698 42.11300
# Shear Modulus (GPa) = 29.45989 31.56741 30.51365
#
# Velocity S-wave (km/s) = 3.79146 3.92473 3.85867
# Velocity P-wave (km/s) = 6.14789 6.55797 6.35624
#
# Compressibility (1/GPa) = 0.02619239
#
# Stress axis : x y z
#
# Youngs Moduli (GPa) = 61.59004 61.58995 130.02156
#
# Poissons Ratio (x) = 0.10307 0.34535
# Poissons Ratio (y) = 0.10307 0.34535
# Poissons Ratio (z) = 0.16359 0.16359
#
# Static dielectric constant tensor:
#      x y z
#    x 3.634230 0.000000 0.000000 
#    y 0.000000 3.634230 0.000000 
#    z 0.000000 0.000000 3.768770 
# 
# 
# High freq. dielectric constant tensor:
#      x y z
#    x 1.800620 0.000000 0.000000 
#    y 0.000000 1.800620 0.000000 
#    z 0.000000 0.000000 1.801120 
# 
# From -- ./inp_files/5849.got.cif
#   From: 2010.03.12/outbox.cif.g09.slc.cpg/sg127_3_cif.got.tgz:5849.got - 2010.04.06 17:03:15.
