data_PCOD8314526
_publ_section_title
;
Structure prediction by ZEFSAII (Michael W. Deem and Ramdas Pophale) SiO2 
 PCOD8314526
Probable space group: P 4/M N C
;
_chemical_formula_sum "Si O2"
_cell_formula_units_Z 52
_cell_length_a 11.585973
_cell_length_b 11.585973
_cell_length_c 22.960837
_cell_angle_alpha 90.000000
_cell_angle_beta 90.000000
_cell_angle_gamma 90.000000
_cell_volume 3082.142682
_symmetry_space_group_name_H-M "P 4/M N C"
_symmetry_group_IT_number 128
_symmetry_cell_setting 'tetragonal'
loop_
_space_group_symop_operation_xyz
x,y,z
-y,x,z
-x,-y,z
y,-x,z
1/2+x,1/2-y,1/2-z
1/2-x,1/2+y,1/2-z
1/2+y,1/2+x,1/2-z
1/2-y,1/2-x,1/2-z
-x,-y,-z
y,-x,-z
x,y,-z
-y,x,-z
1/2-x,1/2+y,1/2+z
1/2+x,1/2-y,1/2+z
1/2-y,1/2-x,1/2+z
1/2+y,1/2+x,1/2+z
loop_
_atom_site_type_symbol
_atom_site_label
_atom_site_fract_x
_atom_site_fract_y
_atom_site_fract_z
Si Si1 0.583543 0.332659 0.215778
Si Si2 0.542220 0.315309 0.434713
Si Si3 0.500000 0.000000 0.250000
Si Si4 0.399241 0.809114 0.322827
O O1 0.652591 0.448621 0.200634
O O2 0.604000 0.308214 0.284740
O O3 0.629567 0.225845 0.177468
O O4 0.635850 0.414839 0.424836
O O5 0.553655 0.264787 0.500000
O O6 0.565621 0.213290 0.389206
O O7 0.497025 0.888361 0.291964
#
# Coordination Sequence:
#
# PCOD8314526 Si02
#       4
#    16  16   4  16
#     4   9  18  30  45  68  94 124 158 189 233 293
#     4   9  18  32  50  72  96 125 162 197 233 283
#     4   8  20  32  42  72 100 118 152 192 232 288
#     4  10  19  30  49  70  97 126 151 197 244 276
#
# _framework density 16.871381
#
# number of rings (size 3 to 8) (size 9 to 14) (size 15 to 20)
#    0.000    3.077    0.000    2.769    0.000   17.231 
#    0.000    0.769    0.000    1.846    0.000    2.154 
#    0.000    0.000    0.000    0.000    0.000    0.000 
#
# Total GULP energy -644548.590897 kJ/mol
# GULP energy per Si atom -12395.165210 kJ/mol
# Density = 1.683298 g / cm^3
# Si number density = 16.871381 Si / 1000 Ang^3
#
#
#
# Elastic Constant Matrix: (Units=GPa)
#
#
# Indices 1 2 3 4 5 6 
#
# 1 82.5673 53.3461 50.0915 0.0000 0.0000 0.0000
# 2 53.3461 82.5673 50.0915 0.0000 0.0000 0.0000
# 3 50.0915 50.0915 145.3310 0.0000 0.0000 0.0000
# 4 0.0000 0.0000 0.0000 25.8901 0.0000 0.0000
# 5 0.0000 0.0000 0.0000 0.0000 25.8901 0.0000
# 6 0.0000 0.0000 0.0000 0.0000 0.0000 23.0451
#
#
#
# Elastic Compliance Matrix: (Units=1/GPa)
#
#
# Indices 1 2 3 4 5 6 
#
# 1 0.022043 -0.012179 -0.003400 0.000000 0.000000 0.000000
# 2 -0.012179 0.022043 -0.003400 0.000000 0.000000 0.000000
# 3 -0.003400 -0.003400 0.009224 0.000000 0.000000 0.000000
# 4 0.000000 0.000000 0.000000 0.038625 0.000000 0.000000
# 5 0.000000 0.000000 0.000000 0.000000 0.038625 0.000000
# 6 0.000000 0.000000 0.000000 0.000000 0.000000 0.043393
#
#
# Mechanical properties :
#
#
# Convention : Reuss Voigt Hill
#
# Bulk Modulus (GPa) = 65.13487 68.61378 66.87432
# Shear Modulus (GPa) = 23.03863 25.42751 24.23307
#
# Velocity S-wave (km/s) = 3.69934 3.88640 3.79402
# Velocity P-wave (km/s) = 7.54568 7.80358 7.67571
#
# Compressibility (1/GPa) = 0.01535276
#
# Stress axis : x y z
#
# Youngs Moduli (GPa) = 45.36664 45.36664 108.40813
#
# Poissons Ratio (x) = 0.55252 0.36855
# Poissons Ratio (y) = 0.55252 0.36855
# Poissons Ratio (z) = 0.15423 0.15423
#
# Static dielectric constant tensor:
#      x y z
#    x 3.075380 0.000000 0.000000 
#    y 0.000000 3.075380 0.000000 
#    z 0.000000 0.000000 2.981830 
# 
# 
# High freq. dielectric constant tensor:
#      x y z
#    x 1.645380 0.000000 0.000000 
#    y 0.000000 1.645380 0.000000 
#    z 0.000000 0.000000 1.626570 
# 
# From -- ./inp_files/5317.got.cif
#   From: 2010.03.12/outbox.cif.g09.slc.cpg/sg128_3_cif.got.tgz:5317.got - 2010.04.06 17:11:05.
