data_PCOD8314679
_publ_section_title
;
Structure prediction by ZEFSAII (Michael W. Deem and Ramdas Pophale) SiO2 
 PCOD8314679
Probable space group: P 4/M N C
;
_chemical_formula_sum "Si O2"
_cell_formula_units_Z 116
_cell_length_a 19.556792
_cell_length_b 19.556792
_cell_length_c 17.334670
_cell_angle_alpha 90.000000
_cell_angle_beta 90.000000
_cell_angle_gamma 90.000000
_cell_volume 6629.958530
_symmetry_space_group_name_H-M "P 4/M N C"
_symmetry_group_IT_number 128
_symmetry_cell_setting 'tetragonal'
loop_
_space_group_symop_operation_xyz
x,y,z
-y,x,z
-x,-y,z
y,-x,z
1/2+x,1/2-y,1/2-z
1/2-x,1/2+y,1/2-z
1/2+y,1/2+x,1/2-z
1/2-y,1/2-x,1/2-z
-x,-y,-z
y,-x,-z
x,y,-z
-y,x,-z
1/2-x,1/2+y,1/2+z
1/2+x,1/2-y,1/2+z
1/2-y,1/2-x,1/2+z
1/2+y,1/2+x,1/2+z
loop_
_atom_site_type_symbol
_atom_site_label
_atom_site_fract_x
_atom_site_fract_y
_atom_site_fract_z
Si Si1 0.775144 0.556874 0.330783
Si Si2 0.500000 0.000000 0.750000
Si Si3 0.334236 0.870086 0.588023
Si Si4 0.713680 0.285597 0.857860
Si Si5 0.421277 0.255233 0.411252
Si Si6 0.000900 0.352303 0.682103
Si Si7 0.321518 0.325499 0.303063
Si Si8 0.127875 0.672806 0.414887
O O1 0.830329 0.610893 0.360568
O O2 0.755554 0.501085 0.394564
O O3 0.807275 0.520555 0.256087
O O4 0.705013 0.596986 0.312950
O O5 0.566889 0.000256 0.697003
O O6 0.355832 0.860970 0.500000
O O7 0.255624 0.846581 0.599760
O O8 0.337034 0.948626 0.611875
O O9 0.685592 0.332809 0.788175
O O10 0.764656 0.227357 0.829529
O O11 0.753007 0.335852 0.915838
O O12 0.411207 0.279043 0.500000
O O13 0.389891 0.312912 0.353814
O O14 0.385452 0.182917 0.395958
O O15 0.926539 0.329844 0.653489
O O16 0.095906 0.661006 0.500000
#
# Coordination Sequence:
#
# PCOD8314679 Si02
#       8
#    16   4  16  16  16  16  16  16
#     4  11  20  36  55  75 107 143 185 222 262 323
#     4  12  24  36  54  68 108 160 194 220 248 312
#     4  11  21  34  54  79 108 143 184 229 274 322
#     4   9  17  34  55  77 101 135 176 230 280 318
#     4  10  21  35  52  80 110 139 179 225 272 319
#     4  12  22  37  52  76 107 149 190 223 261 320
#     4   9  18  32  55  77 100 135 179 224 268 321
#     4  10  21  35  52  78 109 138 175 225 279 323
#
# _framework density 17.496338999999999
#
# number of rings (size 3 to 8) (size 9 to 14) (size 15 to 20)
#    0.000    1.655    2.759    2.897    0.000    6.069 
#    0.000    0.690    0.000    0.414    0.000    0.966 
#    0.000    0.552    0.000    4.000    0.000    0.138 
#
# Total GULP energy -1438198.612573 kJ/mol
# GULP energy per Si atom -12398.263901 kJ/mol
# Density = 1.745652 g / cm^3
# Si number density = 17.496339 Si / 1000 Ang^3
#
#
#
# Elastic Constant Matrix: (Units=GPa)
#
#
# Indices 1 2 3 4 5 6 
#
# 1 71.7001 47.4558 31.2507 0.0000 0.0000 0.0000
# 2 47.4558 71.7001 31.2507 0.0000 0.0000 0.0000
# 3 31.2507 31.2507 93.0825 0.0000 0.0000 0.0000
# 4 0.0000 0.0000 0.0000 27.4748 0.0000 0.0000
# 5 0.0000 0.0000 0.0000 0.0000 27.4748 0.0000
# 6 0.0000 0.0000 0.0000 0.0000 0.0000 21.2002
#
#
#
# Elastic Compliance Matrix: (Units=1/GPa)
#
#
# Indices 1 2 3 4 5 6 
#
# 1 0.025716 -0.015530 -0.003420 0.000000 0.000000 0.000000
# 2 -0.015530 0.025716 -0.003420 0.000000 0.000000 0.000000
# 3 -0.003420 -0.003420 0.013039 0.000000 0.000000 0.000000
# 4 0.000000 0.000000 0.000000 0.036397 0.000000 0.000000
# 5 0.000000 0.000000 0.000000 0.000000 0.036397 0.000000
# 6 0.000000 0.000000 0.000000 0.000000 0.000000 0.047169
#
#
# Mechanical properties :
#
#
# Convention : Reuss Voigt Hill
#
# Bulk Modulus (GPa) = 50.67778 50.71081 50.69429
# Shear Modulus (GPa) = 21.20864 23.66500 22.43682
#
# Velocity S-wave (km/s) = 3.48541 3.68172 3.58491
# Velocity P-wave (km/s) = 6.72496 6.86440 6.79504
#
# Compressibility (1/GPa) = 0.01973252
#
# Stress axis : x y z
#
# Youngs Moduli (GPa) = 38.88561 38.88561 76.69042
#
# Poissons Ratio (x) = 0.60390 0.26227
# Poissons Ratio (y) = 0.60390 0.26227
# Poissons Ratio (z) = 0.13298 0.13298
#
# Static dielectric constant tensor:
#      x y z
#    x 3.219290 0.000000 0.000000 
#    y 0.000000 3.219290 0.000000 
#    z 0.000000 0.000000 3.275860 
# 
# 
# High freq. dielectric constant tensor:
#      x y z
#    x 1.658310 0.000000 0.000000 
#    y 0.000000 1.658310 0.000000 
#    z 0.000000 0.000000 1.685950 
# 
# From -- ./inp_files/4956.got.cif
#   From: 2010.03.12/outbox.cif.g09.slc.cpg/sg128_3_cif.got.tgz:4956.got - 2010.04.06 17:11:05.
