data_PCOD8314338
_publ_section_title
;
Structure prediction by ZEFSAII (Michael W. Deem and Ramdas Pophale) SiO2 
 PCOD8314338
Probable space group: P 4/M B M
;
_chemical_formula_sum "Si O2"
_cell_formula_units_Z 88
_cell_length_a 13.218299
_cell_length_b 13.218299
_cell_length_c 25.546016
_cell_angle_alpha 90.000000
_cell_angle_beta 90.000000
_cell_angle_gamma 90.000000
_cell_volume 4463.487499
_symmetry_space_group_name_H-M "P 4/M B M"
_symmetry_group_IT_number 127
_symmetry_cell_setting 'tetragonal'
loop_
_space_group_symop_operation_xyz
x,y,z
-y,x,z
-x,-y,z
y,-x,z
1/2+x,1/2-y,-z
1/2-x,1/2+y,-z
1/2+y,1/2+x,-z
1/2-y,1/2-x,-z
-x,-y,-z
y,-x,-z
x,y,-z
-y,x,-z
1/2-x,1/2+y,z
1/2+x,1/2-y,z
1/2-y,1/2-x,z
1/2+y,1/2+x,z
loop_
_atom_site_type_symbol
_atom_site_label
_atom_site_fract_x
_atom_site_fract_y
_atom_site_fract_z
Si Si1 0.505370 0.331571 0.644261
Si Si2 0.999714 0.336300 0.561327
Si Si3 0.275449 0.380513 0.107499
Si Si4 0.832998 0.499644 0.265617
Si Si5 0.392269 0.626664 0.000000
Si Si6 0.920416 0.259415 0.841731
O O1 0.603238 0.403141 0.648349
O O2 0.503820 0.271865 0.589488
O O3 0.513508 0.247982 0.689088
O O4 0.003251 0.314157 0.500000
O O5 0.897180 0.397180 0.575946
O O6 0.095837 0.404164 0.578388
O O7 0.162905 0.337096 0.111236
O O8 0.341768 0.333541 0.155343
O O9 0.265990 0.499663 0.113221
O O10 0.321920 0.348081 0.051939
O O11 0.907073 0.407073 0.279957
O O12 0.768111 0.475117 0.213980
O O13 0.897728 0.602273 0.257598
O O14 0.359263 0.511746 0.000000
O O15 0.864507 0.364507 0.855218
#
# Coordination Sequence:
#
# PCOD8314338 Si02
#       6
#    16  16  16  16   8  16
#     4  11  25  40  55  86 126 163 201 244 296 354
#     4   9  19  38  64  91 118 154 204 256 303 354
#     4  11  22  39  63  88 119 157 196 242 295 354
#     4  10  22  41  64  88 116 152 196 247 299 353
#     4  11  21  38  60  85 118 156 194 243 300 346
#     4  10  23  40  61  91 119 151 198 246 296 356
#
# _framework density 19.715526000000001
#
# number of rings (size 3 to 8) (size 9 to 14) (size 15 to 20)
#    0.000    1.727    1.818    2.455    2.545    6.545 
#    0.000    3.182    0.000    1.091    0.000    0.000 
#    0.000    0.000    0.000    0.000    0.000    0.000 
#
# Total GULP energy -1091119.805608 kJ/mol
# GULP energy per Si atom -12399.088700 kJ/mol
# Density = 1.967065 g / cm^3
# Si number density = 19.715526 Si / 1000 Ang^3
#
#
#
# Elastic Constant Matrix: (Units=GPa)
#
#
# Indices 1 2 3 4 5 6 
#
# 1 103.7348 29.5725 40.0708 0.0000 0.0000 0.0000
# 2 29.5725 103.7348 40.0708 0.0000 0.0000 0.0000
# 3 40.0708 40.0708 93.6171 0.0000 0.0000 0.0000
# 4 0.0000 0.0000 0.0000 33.3325 0.0000 0.0000
# 5 0.0000 0.0000 0.0000 0.0000 33.3325 0.0000
# 6 0.0000 0.0000 0.0000 0.0000 0.0000 30.2138
#
#
#
# Elastic Compliance Matrix: (Units=1/GPa)
#
#
# Indices 1 2 3 4 5 6 
#
# 1 0.011792 -0.001692 -0.004323 0.000000 0.000000 0.000000
# 2 -0.001692 0.011792 -0.004323 0.000000 0.000000 0.000000
# 3 -0.004323 -0.004323 0.014383 0.000000 0.000000 0.000000
# 4 0.000000 0.000000 0.000000 0.030001 0.000000 0.000000
# 5 0.000000 0.000000 0.000000 0.000000 0.030001 0.000000
# 6 0.000000 0.000000 0.000000 0.000000 0.000000 0.033098
#
#
# Mechanical properties :
#
#
# Convention : Reuss Voigt Hill
#
# Bulk Modulus (GPa) = 57.83479 57.83499 57.83489
# Shear Modulus (GPa) = 31.74471 32.13393 31.93932
#
# Velocity S-wave (km/s) = 4.01701 4.04156 4.02930
# Velocity P-wave (km/s) = 7.13536 7.15383 7.14460
#
# Compressibility (1/GPa) = 0.01729063
#
# Stress axis : x y z
#
# Youngs Moduli (GPa) = 84.80146 84.80146 69.52734
#
# Poissons Ratio (x) = 0.14346 0.30059
# Poissons Ratio (y) = 0.14346 0.30059
# Poissons Ratio (z) = 0.36662 0.36662
#
# Static dielectric constant tensor:
#      x y z
#    x 3.615920 0.000000 0.000000 
#    y 0.000000 3.615920 0.000000 
#    z 0.000000 0.000000 3.598560 
# 
# 
# High freq. dielectric constant tensor:
#      x y z
#    x 1.771040 0.000000 0.000000 
#    y 0.000000 1.771040 0.000000 
#    z 0.000000 0.000000 1.771350 
# 
# From -- ./inp_files/6523.got.cif
#   From: 2010.03.12/outbox.cif.g09.slc.cpg/sg127_4_cif.got.tgz:6523.got - 2010.04.06 17:03:15.
