data_PCOD8314940
_publ_section_title
;
Structure prediction by ZEFSAII (Michael W. Deem and Ramdas Pophale) SiO2 
 PCOD8314940
Probable space group: P 4/N M M
;
_chemical_formula_sum "Si O2"
_cell_formula_units_Z 104
_cell_length_a 18.624534
_cell_length_b 18.624534
_cell_length_c 18.505579
_cell_angle_alpha 90.000000
_cell_angle_beta 90.000000
_cell_angle_gamma 90.000000
_cell_volume 6419.090640
_symmetry_space_group_name_H-M "P 4/N M M"
_symmetry_group_IT_number 129
_symmetry_cell_setting 'tetragonal'
loop_
_space_group_symop_operation_xyz
x,y,z
1/2-y,x,z
1/2-x,1/2-y,z
y,1/2-x,z
1/2+x,-y,-z
-x,1/2+y,-z
1/2+y,1/2+x,-z
-y,-x,-z
-x,-y,-z
1/2+y,-x,-z
1/2+x,1/2+y,-z
-y,1/2+x,-z
1/2-x,y,z
x,1/2-y,z
1/2-y,1/2-x,z
y,x,z
loop_
_atom_site_type_symbol
_atom_site_label
_atom_site_fract_x
_atom_site_fract_y
_atom_site_fract_z
Si Si1 0.449078 0.329694 0.352682
Si Si2 0.050039 0.332721 0.781997
Si Si3 0.667263 0.402288 0.148031
Si Si4 0.830139 0.456935 0.350486
Si Si5 0.167340 0.667340 0.000000
Si Si6 0.382902 0.003090 0.502508
Si Si7 0.906957 0.332069 0.281386
O O1 0.415202 0.250000 0.351805
O O2 0.386494 0.386494 0.340563
O O3 0.491445 0.339617 0.428109
O O4 0.506673 0.338005 0.288113
O O5 0.076347 0.250000 0.779330
O O6 0.117654 0.382347 0.802201
O O7 0.987687 0.342829 0.841930
O O8 0.017766 0.358436 0.704817
O O9 0.750000 0.379844 0.162093
O O10 0.643964 0.382029 0.067151
O O11 0.617112 0.358037 0.202604
O O12 0.750000 0.437526 0.326233
O O13 0.829788 0.487070 0.431470
O O14 0.874412 0.383334 0.343491
O O15 0.154310 0.750000 0.978552
O O16 0.421245 0.078755 0.517796
O O17 0.440817 0.940817 0.500000
O O18 0.881949 0.250000 0.294721
#
# Coordination Sequence:
#
# PCOD8314940 Si02
#       7
#    16  16  16  16   8  16  16
#     4  10  21  35  51  70  91 119 158 203 247 287
#     4   9  18  31  47  68  92 121 156 195 239 285
#     4   9  18  31  48  72 100 129 157 189 227 272
#     4  10  19  30  46  66  91 122 155 193 236 279
#     4   9  16  28  49  74 100 130 159 184 218 267
#     4  10  18  30  48  67  87 116 156 199 241 283
#     4  10  19  30  45  67  95 125 157 188 221 272
#
# _framework density 16.201671000000001
#
# number of rings (size 3 to 8) (size 9 to 14) (size 15 to 20)
#    0.000    2.385    1.538    2.769    0.000    4.615 
#    0.000    0.385    0.000    0.000    0.000    2.154 
#    0.000    0.000    0.000    8.000    0.000    0.000 
#
# Total GULP energy -1289338.561622 kJ/mol
# GULP energy per Si atom -12397.486169 kJ/mol
# Density = 1.616480 g / cm^3
# Si number density = 16.201671 Si / 1000 Ang^3
#
#
#
# Elastic Constant Matrix: (Units=GPa)
#
#
# Indices 1 2 3 4 5 6 
#
# 1 89.9901 54.3598 39.7427 0.0000 0.0000 0.0000
# 2 54.3598 89.9901 39.7427 0.0000 0.0000 0.0000
# 3 39.7427 39.7427 99.1927 0.0000 0.0000 0.0000
# 4 0.0000 0.0000 0.0000 20.5363 0.0000 0.0000
# 5 0.0000 0.0000 0.0000 0.0000 20.5363 0.0000
# 6 0.0000 0.0000 0.0000 0.0000 0.0000 27.0187
#
#
#
# Elastic Compliance Matrix: (Units=1/GPa)
#
#
# Indices 1 2 3 4 5 6 
#
# 1 0.018477 -0.009589 -0.003561 0.000000 0.000000 0.000000
# 2 -0.009589 0.018477 -0.003561 0.000000 0.000000 0.000000
# 3 -0.003561 -0.003561 0.012935 0.000000 0.000000 0.000000
# 4 0.000000 0.000000 0.000000 0.048694 0.000000 0.000000
# 5 0.000000 0.000000 0.000000 0.000000 0.048694 0.000000
# 6 0.000000 0.000000 0.000000 0.000000 0.000000 0.037011
#
#
# Mechanical properties :
#
#
# Convention : Reuss Voigt Hill
#
# Bulk Modulus (GPa) = 60.72715 60.76260 60.74487
# Shear Modulus (GPa) = 22.40127 23.30675 22.85401
#
# Velocity S-wave (km/s) = 3.72244 3.79692 3.75986
# Velocity P-wave (km/s) = 7.48590 7.53708 7.51153
#
# Compressibility (1/GPa) = 0.01646710
#
# Stress axis : x y z
#
# Youngs Moduli (GPa) = 54.12041 54.12041 77.30864
#
# Poissons Ratio (x) = 0.51894 0.27532
# Poissons Ratio (y) = 0.51894 0.27532
# Poissons Ratio (z) = 0.19274 0.19274
#
# Static dielectric constant tensor:
#      x y z
#    x 2.972350 0.000000 0.000000 
#    y 0.000000 2.972350 0.000000 
#    z 0.000000 0.000000 2.988960 
# 
# 
# High freq. dielectric constant tensor:
#      x y z
#    x 1.616250 0.000000 0.000000 
#    y 0.000000 1.616250 0.000000 
#    z 0.000000 0.000000 1.608100 
# 
# From -- ./inp_files/5834.got.cif
#   From: 2010.03.12/outbox.cif.g09.slc.cpg/sg129_3_cif.got.tgz:5834.got - 2010.04.06 17:19:44.
