data_PCOD8314641
_publ_section_title
;
Structure prediction by ZEFSAII (Michael W. Deem and Ramdas Pophale) SiO2 
 PCOD8314641
Probable space group: P 4/M N C
;
_chemical_formula_sum "Si O2"
_cell_formula_units_Z 96
_cell_length_a 23.694512
_cell_length_b 23.694512
_cell_length_c 8.830986
_cell_angle_alpha 90.000000
_cell_angle_beta 90.000000
_cell_angle_gamma 90.000000
_cell_volume 4957.979577
_symmetry_space_group_name_H-M "P 4/M N C"
_symmetry_group_IT_number 128
_symmetry_cell_setting 'tetragonal'
loop_
_space_group_symop_operation_xyz
x,y,z
-y,x,z
-x,-y,z
y,-x,z
1/2+x,1/2-y,1/2-z
1/2-x,1/2+y,1/2-z
1/2+y,1/2+x,1/2-z
1/2-y,1/2-x,1/2-z
-x,-y,-z
y,-x,-z
x,y,-z
-y,x,-z
1/2-x,1/2+y,1/2+z
1/2+x,1/2-y,1/2+z
1/2-y,1/2-x,1/2+z
1/2+y,1/2+x,1/2+z
loop_
_atom_site_type_symbol
_atom_site_label
_atom_site_fract_x
_atom_site_fract_y
_atom_site_fract_z
Si Si1 0.309689 0.272255 0.678645
Si Si2 0.468166 0.413498 0.675114
Si Si3 0.499881 0.916564 0.678049
Si Si4 0.781652 0.638289 0.676765
Si Si5 0.785844 0.510555 0.323431
Si Si6 0.300197 0.572274 0.823009
O O1 0.285441 0.214560 0.750000
O O2 0.309918 0.265049 0.500000
O O3 0.271490 0.324928 0.732456
O O4 0.371998 0.283983 0.733627
O O5 0.532990 0.428615 0.711286
O O6 0.461830 0.396032 0.500000
O O7 0.449249 0.362094 0.778937
O O8 0.555379 0.944622 0.750000
O O9 0.498631 0.928276 0.500000
O O10 0.502591 0.850598 0.714513
O O11 0.443604 0.943604 0.750000
O O12 0.839267 0.660734 0.750000
O O13 0.790716 0.643531 0.500000
O O14 0.771179 0.574229 0.723979
O O15 0.772522 0.499337 0.500000
O O16 0.746475 0.473555 0.217842
O O17 0.299020 0.584799 0.000000
#
# Coordination Sequence:
#
# PCOD8314641 Si02
#       6
#    16  16  16  16  16  16
#     4  10  21  40  63  86 114 153 196 242 293 356
#     4   9  20  41  67  90 115 154 200 246 301 363
#     4  10  20  35  58  84 115 152 193 240 289 346
#     4   9  19  36  61  88 113 146 189 238 293 346
#     4  10  22  39  57  83 116 154 198 240 287 347
#     4  12  26  39  57  89 124 160 198 245 298 352
#
# _framework density 19.362727
#
# number of rings (size 3 to 8) (size 9 to 14) (size 15 to 20)
#    0.000    2.000    0.000    4.000    2.333    4.000 
#    0.000    2.500    0.000    0.000    0.000    0.000 
#    0.000    0.000    0.000    0.000    0.000    0.000 
#
# Total GULP energy -1190701.476451 kJ/mol
# GULP energy per Si atom -12403.140380 kJ/mol
# Density = 1.931866 g / cm^3
# Si number density = 19.362727 Si / 1000 Ang^3
#
#
#
# Elastic Constant Matrix: (Units=GPa)
#
#
# Indices 1 2 3 4 5 6 
#
# 1 111.1588 55.4988 38.2062 0.0000 0.0000 0.0000
# 2 55.4988 111.1650 38.1992 0.0000 0.0000 0.0000
# 3 38.2062 38.1992 75.3216 0.0000 0.0000 0.0000
# 4 0.0000 0.0000 0.0000 28.6529 0.0000 0.0000
# 5 0.0000 0.0000 0.0000 0.0000 28.6525 0.0000
# 6 0.0000 0.0000 0.0000 0.0000 0.0000 25.7751
#
#
#
# Elastic Compliance Matrix: (Units=1/GPa)
#
#
# Indices 1 2 3 4 5 6 
#
# 1 0.012893 -0.005074 -0.003967 0.000000 0.000000 0.000000
# 2 -0.005074 0.012891 -0.003964 0.000000 0.000000 0.000000
# 3 -0.003967 -0.003964 0.017299 0.000000 0.000000 0.000000
# 4 0.000000 0.000000 0.000000 0.034900 0.000000 0.000000
# 5 0.000000 0.000000 0.000000 0.000000 0.034901 0.000000
# 6 0.000000 0.000000 0.000000 0.000000 0.000000 0.038797
#
#
# Mechanical properties :
#
#
# Convention : Reuss Voigt Hill
#
# Bulk Modulus (GPa) = 58.56940 62.38378 60.47659
# Shear Modulus (GPa) = 27.26573 27.66549 27.46561
#
# Velocity S-wave (km/s) = 3.75661 3.78405 3.77036
# Velocity P-wave (km/s) = 7.00931 7.16802 7.08911
#
# Compressibility (1/GPa) = 0.01707376
#
# Stress axis : x y z
#
# Youngs Moduli (GPa) = 77.56382 77.57508 57.80761
#
# Poissons Ratio (x) = 0.39358 0.22930
# Poissons Ratio (y) = 0.39353 0.22915
# Poissons Ratio (z) = 0.30767 0.30751
#
# Static dielectric constant tensor:
#      x y z
#    x 4.318990 0.000000 0.000000 
#    y 0.000000 4.318070 0.000000 
#    z 0.000000 0.000000 3.487310 
# 
# 
# High freq. dielectric constant tensor:
#      x y z
#    x 1.761260 0.000000 0.000000 
#    y 0.000000 1.761260 0.000000 
#    z 0.000000 0.000000 1.752580 
# 
# From -- ./inp_files/1423.got.cif
#   From: 2010.03.12/outbox.cif.g09.slc.cpg/sg128_1_cif.got.tgz:1423.got - 2010.04.06 17:11:05.
