data_PCOD8314314
_publ_section_title
;
Structure prediction by ZEFSAII (Michael W. Deem and Ramdas Pophale) SiO2 
 PCOD8314314
Probable space group: P 4/M B M
;
_chemical_formula_sum "Si O2"
_cell_formula_units_Z 112
_cell_length_a 13.758404
_cell_length_b 13.758404
_cell_length_c 33.649655
_cell_angle_alpha 90.000000
_cell_angle_beta 90.000000
_cell_angle_gamma 90.000000
_cell_volume 6369.667047
_symmetry_space_group_name_H-M "P 4/M B M"
_symmetry_group_IT_number 127
_symmetry_cell_setting 'tetragonal'
loop_
_space_group_symop_operation_xyz
x,y,z
-y,x,z
-x,-y,z
y,-x,z
1/2+x,1/2-y,-z
1/2-x,1/2+y,-z
1/2+y,1/2+x,-z
1/2-y,1/2-x,-z
-x,-y,-z
y,-x,-z
x,y,-z
-y,x,-z
1/2-x,1/2+y,z
1/2+x,1/2-y,z
1/2-y,1/2-x,z
1/2+y,1/2+x,z
loop_
_atom_site_type_symbol
_atom_site_label
_atom_site_fract_x
_atom_site_fract_y
_atom_site_fract_z
Si Si1 0.409348 0.251564 0.585574
Si Si2 0.391119 0.733504 0.545292
Si Si3 0.843271 0.971992 0.662320
Si Si4 0.984753 0.159195 0.248193
Si Si5 0.003714 0.341851 0.807525
Si Si6 0.499495 0.157894 0.898376
Si Si7 0.841572 0.000434 0.954461
O O1 0.343787 0.156214 0.581192
O O2 0.350309 0.348427 0.573694
O O3 0.498543 0.241916 0.555653
O O4 0.449710 0.258668 0.630683
O O5 0.384012 0.696757 0.500000
O O6 0.332187 0.832187 0.551616
O O7 0.800741 0.972413 0.706935
O O8 0.923049 0.889226 0.655461
O O9 0.980870 0.249443 0.219063
O O10 0.085956 0.104112 0.240529
O O11 0.916271 0.416271 0.802156
O O12 0.104579 0.395422 0.795217
O O13 0.010483 0.307090 0.853017
O O14 0.588265 0.088265 0.910172
O O15 0.500933 0.249664 0.926463
O O16 0.398194 0.101807 0.904238
O O17 0.904765 0.095758 0.945482
O O18 0.806548 0.000437 0.000000
#
# Coordination Sequence:
#
# PCOD8314314 Si02
#       7
#    16  16  16  16  16  16  16
#     4  11  21  35  57  81 106 140 179 217 260 310
#     4  10  22  38  55  80 110 138 176 220 260 310
#     4   9  17  34  56  77 103 135 170 212 260 304
#     4   9  19  34  54  81 108 134 171 214 258 313
#     4   9  19  36  54  74 105 142 177 215 261 311
#     4   9  19  35  53  74 102 137 177 220 264 311
#     4   9  19  35  52  73 104 139 174 216 267 320
#
# _framework density 17.583337
#
# number of rings (size 3 to 8) (size 9 to 14) (size 15 to 20)
#    0.000    2.571    1.429    2.571    0.000    4.857 
#    0.000   10.714    0.000    0.000    0.000    0.000 
#    0.000    0.000    0.000    0.000    0.000    0.000 
#
# Total GULP energy -1388636.847901 kJ/mol
# GULP energy per Si atom -12398.543285 kJ/mol
# Density = 1.754332 g / cm^3
# Si number density = 17.583337 Si / 1000 Ang^3
#
#
#
# Elastic Constant Matrix: (Units=GPa)
#
#
# Indices 1 2 3 4 5 6 
#
# 1 98.8628 28.5563 60.7465 0.0000 0.0000 0.0000
# 2 28.5563 98.8628 60.7465 0.0000 0.0000 0.0000
# 3 60.7465 60.7465 113.4602 0.0000 0.0000 0.0000
# 4 0.0000 0.0000 0.0000 34.0634 0.0000 0.0000
# 5 0.0000 0.0000 0.0000 0.0000 34.0634 0.0000
# 6 0.0000 0.0000 0.0000 0.0000 0.0000 11.8070
#
#
#
# Elastic Compliance Matrix: (Units=1/GPa)
#
#
# Indices 1 2 3 4 5 6 
#
# 1 0.015128 0.000905 -0.008584 0.000000 0.000000 0.000000
# 2 0.000905 0.015128 -0.008584 0.000000 0.000000 0.000000
# 3 -0.008584 -0.008584 0.018005 0.000000 0.000000 0.000000
# 4 0.000000 0.000000 0.000000 0.029357 0.000000 0.000000
# 5 0.000000 0.000000 0.000000 0.000000 0.029357 0.000000
# 6 0.000000 0.000000 0.000000 0.000000 0.000000 0.084695
#
#
# Mechanical properties :
#
#
# Convention : Reuss Voigt Hill
#
# Bulk Modulus (GPa) = 63.55188 67.92050 65.73619
# Shear Modulus (GPa) = 21.79196 26.72921 24.26058
#
# Velocity S-wave (km/s) = 3.52426 3.90313 3.71853
# Velocity P-wave (km/s) = 7.26514 7.68272 7.47685
#
# Compressibility (1/GPa) = 0.01573518
#
# Stress axis : x y z
#
# Youngs Moduli (GPa) = 66.10192 66.10192 55.53896
#
# Poissons Ratio (x) = -0.05980 0.47675
# Poissons Ratio (y) = -0.05980 0.47675
# Poissons Ratio (z) = 0.56742 0.56742
#
# Static dielectric constant tensor:
#      x y z
#    x 3.136320 0.000000 0.000000 
#    y 0.000000 3.136320 0.000000 
#    z 0.000000 0.000000 3.305510 
# 
# 
# High freq. dielectric constant tensor:
#      x y z
#    x 1.673080 0.000000 0.000000 
#    y 0.000000 1.673080 0.000000 
#    z 0.000000 0.000000 1.688300 
# 
# From -- ./inp_files/6397.got.cif
#   From: 2010.03.12/outbox.cif.g09.slc.cpg/sg127_4_cif.got.tgz:6397.got - 2010.04.06 17:03:15.
