data_PCOD8314839
_publ_section_title
;
Structure prediction by ZEFSAII (Michael W. Deem and Ramdas Pophale) SiO2 
 PCOD8314839
Probable space group: P 4/M N C
;
_chemical_formula_sum "Si O2"
_cell_formula_units_Z 64
_cell_length_a 12.402173
_cell_length_b 12.402173
_cell_length_c 18.157123
_cell_angle_alpha 90.000000
_cell_angle_beta 90.000000
_cell_angle_gamma 90.000000
_cell_volume 2792.817813
_symmetry_space_group_name_H-M "P 4/M N C"
_symmetry_group_IT_number 128
_symmetry_cell_setting 'tetragonal'
loop_
_space_group_symop_operation_xyz
x,y,z
-y,x,z
-x,-y,z
y,-x,z
1/2+x,1/2-y,1/2-z
1/2-x,1/2+y,1/2-z
1/2+y,1/2+x,1/2-z
1/2-y,1/2-x,1/2-z
-x,-y,-z
y,-x,-z
x,y,-z
-y,x,-z
1/2-x,1/2+y,1/2+z
1/2+x,1/2-y,1/2+z
1/2-y,1/2-x,1/2+z
1/2+y,1/2+x,1/2+z
loop_
_atom_site_type_symbol
_atom_site_label
_atom_site_fract_x
_atom_site_fract_y
_atom_site_fract_z
Si Si1 0.820683 0.510806 0.086853
Si Si2 0.285475 0.918764 0.854078
Si Si3 0.171458 0.964171 0.712933
Si Si4 0.639700 0.763400 0.584788
O O1 0.913144 0.590732 0.118202
O O2 0.709997 0.542816 0.128302
O O3 0.849488 0.388571 0.107241
O O4 0.805520 0.528976 0.000000
O O5 0.273642 0.941949 0.766578
O O6 0.225314 0.806856 0.870630
O O7 0.227722 0.017452 0.896973
O O8 0.082277 0.874634 0.728909
O O9 0.665468 0.744743 0.500000
#
# Coordination Sequence:
#
# PCOD8314839 Si02
#       4
#    16  16  16  16
#     4  11  25  44  68 100 139 187 238 287 344 414
#     4  12  23  44  69 100 143 180 230 293 352 414
#     4  11  24  44  69 101 141 183 230 289 348 415
#     4  11  24  42  70 104 141 185 233 287 348 416
#
# _framework density 22.915921999999998
#
# number of rings (size 3 to 8) (size 9 to 14) (size 15 to 20)
#    0.000    0.750    2.500    5.250    0.000    6.500 
#    0.000    5.000    0.000    0.000    0.000    0.000 
#    0.000    0.000    0.000    0.000    0.000    0.000 
#
# Total GULP energy -793704.563007 kJ/mol
# GULP energy per Si atom -12401.633797 kJ/mol
# Density = 2.286376 g / cm^3
# Si number density = 22.915922 Si / 1000 Ang^3
#
#
#
# Elastic Constant Matrix: (Units=GPa)
#
#
# Indices 1 2 3 4 5 6 
#
# 1 112.2448 33.1907 47.8542 0.0000 0.0000 0.0000
# 2 33.1907 112.2448 47.8542 0.0000 0.0000 0.0000
# 3 47.8542 47.8542 142.7352 0.0000 0.0000 0.0000
# 4 0.0000 0.0000 0.0000 38.5203 0.0000 0.0000
# 5 0.0000 0.0000 0.0000 0.0000 38.5203 0.0000
# 6 0.0000 0.0000 0.0000 0.0000 0.0000 23.6193
#
#
#
# Elastic Compliance Matrix: (Units=1/GPa)
#
#
# Indices 1 2 3 4 5 6 
#
# 1 0.010736 -0.001914 -0.002958 0.000000 0.000000 0.000000
# 2 -0.001914 0.010736 -0.002958 0.000000 0.000000 0.000000
# 3 -0.002958 -0.002958 0.008989 0.000000 0.000000 0.000000
# 4 0.000000 0.000000 0.000000 0.025960 0.000000 0.000000
# 5 0.000000 0.000000 0.000000 0.000000 0.025960 0.000000
# 6 0.000000 0.000000 0.000000 0.000000 0.000000 0.042338
#
#
# Mechanical properties :
#
#
# Convention : Reuss Voigt Hill
#
# Bulk Modulus (GPa) = 67.55510 69.44698 68.50104
# Shear Modulus (GPa) = 34.40849 36.02037 35.21443
#
# Velocity S-wave (km/s) = 3.87914 3.96896 3.92430
# Velocity P-wave (km/s) = 7.04323 7.16759 7.10569
#
# Compressibility (1/GPa) = 0.01480273
#
# Stress axis : x y z
#
# Youngs Moduli (GPa) = 93.14468 93.14468 111.24330
#
# Poissons Ratio (x) = 0.17824 0.32904
# Poissons Ratio (y) = 0.17824 0.32904
# Poissons Ratio (z) = 0.27551 0.27551
#
# Static dielectric constant tensor:
#      x y z
#    x 4.152120 0.000000 0.000000 
#    y 0.000000 4.152120 0.000000 
#    z 0.000000 0.000000 4.046230 
# 
# 
# High freq. dielectric constant tensor:
#      x y z
#    x 1.908950 0.000000 0.000000 
#    y 0.000000 1.908950 0.000000 
#    z 0.000000 0.000000 1.908710 
# 
# From -- ./inp_files/5401.got.cif
#   From: 2010.03.12/outbox.cif.g09.slc.cpg/sg128_3_cif.got.tgz:5401.got - 2010.04.06 17:11:05.
