data_PCOD8314865
_publ_section_title
;
Structure prediction by ZEFSAII (Michael W. Deem and Ramdas Pophale) SiO2 
 PCOD8314865
Probable space group: P 4/N M M
;
_chemical_formula_sum "Si O2"
_cell_formula_units_Z 112
_cell_length_a 18.591124
_cell_length_b 18.591124
_cell_length_c 20.261649
_cell_angle_alpha 90.000000
_cell_angle_beta 90.000000
_cell_angle_gamma 90.000000
_cell_volume 7003.031547
_symmetry_space_group_name_H-M "P 4/N M M"
_symmetry_group_IT_number 129
_symmetry_cell_setting 'tetragonal'
loop_
_space_group_symop_operation_xyz
x,y,z
1/2-y,x,z
1/2-x,1/2-y,z
y,1/2-x,z
1/2+x,-y,-z
-x,1/2+y,-z
1/2+y,1/2+x,-z
-y,-x,-z
-x,-y,-z
1/2+y,-x,-z
1/2+x,1/2+y,-z
-y,1/2+x,-z
1/2-x,y,z
x,1/2-y,z
1/2-y,1/2-x,z
y,x,z
loop_
_atom_site_type_symbol
_atom_site_label
_atom_site_fract_x
_atom_site_fract_y
_atom_site_fract_z
Si Si1 0.667378 0.167365 0.078082
Si Si2 0.941943 0.830081 0.782593
Si Si3 0.528962 0.171001 0.344917
Si Si4 0.116642 0.504088 0.486765
Si Si5 0.944326 0.671265 0.385590
Si Si6 0.467835 0.917043 0.289381
Si Si7 0.551146 0.434386 0.147972
O O1 0.750000 0.149893 0.101231
O O2 0.647644 0.250000 0.101098
O O3 0.610579 0.105427 0.102105
O O4 0.664101 0.164101 0.000000
O O5 0.939954 0.750000 0.810705
O O6 0.862959 0.862959 0.790569
O O7 0.962142 0.833505 0.705402
O O8 0.998149 0.873085 0.826797
O O9 0.565428 0.250000 0.339163
O O10 0.501524 0.160789 0.419142
O O11 0.585898 0.110431 0.323434
O O12 0.081649 0.581649 0.500000
O O13 0.169544 0.492100 0.548292
O O14 0.055290 0.444711 0.483432
O O15 0.917155 0.750000 0.370308
O O16 0.874257 0.625744 0.398370
O O17 0.987223 0.646729 0.320950
O O18 0.465284 0.905190 0.210851
O O19 0.505789 0.994212 0.305781
O O20 0.501148 0.501148 0.117363
#
# Coordination Sequence:
#
# PCOD8314865 Si02
#       7
#    16  16  16  16  16  16  16
#     4   9  18  32  49  70  98 130 158 183 218 270
#     4   9  17  27  41  62  90 122 153 186 223 263
#     4  10  17  26  42  63  84 107 141 184 223 262
#     4  10  17  27  45  63  80 108 146 185 222 265
#     4  10  20  32  47  66  86 111 143 182 226 270
#     4   9  17  31  47  65  88 115 148 181 217 262
#     4   9  17  29  48  71  94 119 151 193 229 258
#
# _framework density 15.993074
#
# number of rings (size 3 to 8) (size 9 to 14) (size 15 to 20)
#    0.000    2.571    1.429    3.429    0.000    1.714 
#    0.000    0.000    0.000    0.429    0.000    3.000 
#    0.000    0.286    0.000    3.143    0.000    5.143 
#
# Total GULP energy -1387463.756336 kJ/mol
# GULP energy per Si atom -12388.069253 kJ/mol
# Density = 1.595667 g / cm^3
# Si number density = 15.993074 Si / 1000 Ang^3
#
#
#
# Elastic Constant Matrix: (Units=GPa)
#
#
# Indices 1 2 3 4 5 6 
#
# 1 90.1767 36.6218 27.8363 0.0000 0.0000 0.0000
# 2 36.6218 90.1767 27.8363 0.0000 0.0000 0.0000
# 3 27.8363 27.8363 53.5174 0.0000 0.0000 0.0000
# 4 0.0000 0.0000 0.0000 17.6296 0.0000 0.0000
# 5 0.0000 0.0000 0.0000 0.0000 17.6296 0.0000
# 6 0.0000 0.0000 0.0000 0.0000 0.0000 14.5735
#
#
#
# Elastic Compliance Matrix: (Units=1/GPa)
#
#
# Indices 1 2 3 4 5 6 
#
# 1 0.014447 -0.004226 -0.005316 0.000000 0.000000 0.000000
# 2 -0.004226 0.014447 -0.005316 0.000000 0.000000 0.000000
# 3 -0.005316 -0.005316 0.024216 0.000000 0.000000 0.000000
# 4 0.000000 0.000000 0.000000 0.056723 0.000000 0.000000
# 5 0.000000 0.000000 0.000000 0.000000 0.056723 0.000000
# 6 0.000000 0.000000 0.000000 0.000000 0.000000 0.068618
#
#
# Mechanical properties :
#
#
# Convention : Reuss Voigt Hill
#
# Bulk Modulus (GPa) = 42.74872 46.49552 44.62212
# Shear Modulus (GPa) = 18.33609 19.40494 18.87051
#
# Velocity S-wave (km/s) = 3.38968 3.48707 3.43872
# Velocity P-wave (km/s) = 6.48902 6.73412 6.61270
#
# Compressibility (1/GPa) = 0.02339251
#
# Stress axis : x y z
#
# Youngs Moduli (GPa) = 69.22072 69.22072 41.29555
#
# Poissons Ratio (x) = 0.29252 0.21953
# Poissons Ratio (y) = 0.29252 0.21953
# Poissons Ratio (z) = 0.36799 0.36799
#
# Static dielectric constant tensor:
#      x y z
#    x 3.047500 0.000000 0.000000 
#    y 0.000000 3.047500 0.000000 
#    z 0.000000 0.000000 2.971640 
# 
# 
# High freq. dielectric constant tensor:
#      x y z
#    x 1.602260 0.000000 0.000000 
#    y 0.000000 1.602260 0.000000 
#    z 0.000000 0.000000 1.601970 
# 
# From -- ./inp_files/6705.got.cif
#   From: 2010.03.12/outbox.cif.g09.slc.cpg/sg129_4_cif.got.tgz:6705.got - 2010.04.06 17:19:44.
