data_PCOD8314272
_publ_section_title
;
Structure prediction by ZEFSAII (Michael W. Deem and Ramdas Pophale) SiO2 
 PCOD8314272
Probable space group: P 4/M B M
;
_chemical_formula_sum "Si O2"
_cell_formula_units_Z 80
_cell_length_a 15.016054
_cell_length_b 15.016054
_cell_length_c 18.956366
_cell_angle_alpha 90.000000
_cell_angle_beta 90.000000
_cell_angle_gamma 90.000000
_cell_volume 4274.317001
_symmetry_space_group_name_H-M "P 4/M B M"
_symmetry_group_IT_number 127
_symmetry_cell_setting 'tetragonal'
loop_
_space_group_symop_operation_xyz
x,y,z
-y,x,z
-x,-y,z
y,-x,z
1/2+x,1/2-y,-z
1/2-x,1/2+y,-z
1/2+y,1/2+x,-z
1/2-y,1/2-x,-z
-x,-y,-z
y,-x,-z
x,y,-z
-y,x,-z
1/2-x,1/2+y,z
1/2+x,1/2-y,z
1/2-y,1/2-x,z
1/2+y,1/2+x,z
loop_
_atom_site_type_symbol
_atom_site_label
_atom_site_fract_x
_atom_site_fract_y
_atom_site_fract_z
Si Si1 0.359262 0.538086 0.419769
Si Si2 0.102925 0.895388 0.809794
Si Si3 0.257808 0.389230 0.079657
Si Si4 0.250794 0.606033 0.704477
Si Si5 0.142755 0.500734 0.182123
O O1 0.393043 0.438755 0.404783
O O2 0.325643 0.547118 0.500000
O O3 0.277597 0.559341 0.368480
O O4 0.148191 0.864457 0.883107
O O5 0.144135 0.837946 0.745770
O O6 0.998883 0.875721 0.804036
O O7 0.199132 0.300869 0.080849
O O8 0.208179 0.470092 0.119556
O O9 0.277102 0.420535 0.000000
O O10 0.189460 0.689460 0.685963
O O11 0.199371 0.533140 0.751278
O O12 0.081330 0.581330 0.152860
O O13 0.081520 0.418481 0.207415
#
# Coordination Sequence:
#
# PCOD8314272 Si02
#       5
#    16  16  16  16  16
#     4   9  19  37  59  83 114 150 184 220 267 324
#     4  11  22  37  55  76 107 147 188 224 272 336
#     4  10  21  38  58  80 108 140 182 239 292 335
#     4  11  21  35  58  86 113 143 185 233 276 323
#     4   9  19  37  59  82 109 143 186 233 282 334
#
# _framework density 18.716442000000001
#
# number of rings (size 3 to 8) (size 9 to 14) (size 15 to 20)
#    0.000    2.000    2.000    2.400    0.000    3.200 
#    0.000    3.000    0.000    1.800    0.000    2.800 
#    0.000    0.000    0.000    0.000    0.000    0.000 
#
# Total GULP energy -991771.135681 kJ/mol
# GULP energy per Si atom -12397.139196 kJ/mol
# Density = 1.867384 g / cm^3
# Si number density = 18.716442 Si / 1000 Ang^3
#
#
#
# Elastic Constant Matrix: (Units=GPa)
#
#
# Indices 1 2 3 4 5 6 
#
# 1 82.4313 17.9491 40.0243 0.0000 0.0000 0.0000
# 2 17.9491 82.4313 40.0243 0.0000 0.0000 0.0000
# 3 40.0243 40.0243 119.4620 0.0000 0.0000 0.0000
# 4 0.0000 0.0000 0.0000 29.0066 0.0000 0.0000
# 5 0.0000 0.0000 0.0000 0.0000 29.0066 0.0000
# 6 0.0000 0.0000 0.0000 0.0000 0.0000 14.5977
#
#
#
# Elastic Compliance Matrix: (Units=1/GPa)
#
#
# Indices 1 2 3 4 5 6 
#
# 1 0.014551 -0.000957 -0.004555 0.000000 0.000000 0.000000
# 2 -0.000957 0.014551 -0.004555 0.000000 0.000000 0.000000
# 3 -0.004555 -0.004555 0.011423 0.000000 0.000000 0.000000
# 4 0.000000 0.000000 0.000000 0.034475 0.000000 0.000000
# 5 0.000000 0.000000 0.000000 0.000000 0.034475 0.000000
# 6 0.000000 0.000000 0.000000 0.000000 0.000000 0.068504
#
#
# Mechanical properties :
#
#
# Convention : Reuss Voigt Hill
#
# Bulk Modulus (GPa) = 49.03682 53.36886 51.20284
# Shear Modulus (GPa) = 24.40111 26.94398 25.67255
#
# Velocity S-wave (km/s) = 3.61463 3.79831 3.70761
# Velocity P-wave (km/s) = 6.60890 6.91466 6.76351
#
# Compressibility (1/GPa) = 0.02039284
#
# Stress axis : x y z
#
# Youngs Moduli (GPa) = 68.72306 68.72306 87.54456
#
# Poissons Ratio (x) = 0.06577 0.39873
# Poissons Ratio (y) = 0.06577 0.39873
# Poissons Ratio (z) = 0.31300 0.31300
#
# Static dielectric constant tensor:
#      x y z
#    x 3.484590 0.000000 0.000000 
#    y 0.000000 3.484590 0.000000 
#    z 0.000000 0.000000 3.419860 
# 
# 
# High freq. dielectric constant tensor:
#      x y z
#    x 1.727600 0.000000 0.000000 
#    y 0.000000 1.727600 0.000000 
#    z 0.000000 0.000000 1.716200 
# 
# From -- ./inp_files/5624.got.cif
#   From: 2010.03.12/outbox.cif.g09.slc.cpg/sg127_3_cif.got.tgz:5624.got - 2010.04.06 17:03:15.
