data_PCOD8314729
_publ_section_title
;
Structure prediction by ZEFSAII (Michael W. Deem and Ramdas Pophale) SiO2 
 PCOD8314729
Probable space group: P 4/M N C
;
_chemical_formula_sum "Si O2"
_cell_formula_units_Z 64
_cell_length_a 14.948185
_cell_length_b 14.948185
_cell_length_c 13.600865
_cell_angle_alpha 90.000000
_cell_angle_beta 90.000000
_cell_angle_gamma 90.000000
_cell_volume 3039.089276
_symmetry_space_group_name_H-M "P 4/M N C"
_symmetry_group_IT_number 128
_symmetry_cell_setting 'tetragonal'
loop_
_space_group_symop_operation_xyz
x,y,z
-y,x,z
-x,-y,z
y,-x,z
1/2+x,1/2-y,1/2-z
1/2-x,1/2+y,1/2-z
1/2+y,1/2+x,1/2-z
1/2-y,1/2-x,1/2-z
-x,-y,-z
y,-x,-z
x,y,-z
-y,x,-z
1/2-x,1/2+y,1/2+z
1/2+x,1/2-y,1/2+z
1/2-y,1/2-x,1/2+z
1/2+y,1/2+x,1/2+z
loop_
_atom_site_type_symbol
_atom_site_label
_atom_site_fract_x
_atom_site_fract_y
_atom_site_fract_z
Si Si1 0.078100 0.244908 0.115919
Si Si2 0.390094 0.274940 0.313184
Si Si3 0.555583 0.080342 0.887384
Si Si4 0.606877 0.798629 0.888498
O O1 0.162202 0.185407 0.143645
O O2 0.091256 0.345622 0.160926
O O3 0.990265 0.196018 0.159153
O O4 0.070553 0.248320 0.000000
O O5 0.378713 0.277282 0.194274
O O6 0.378228 0.176391 0.362221
O O7 0.495832 0.169402 0.878201
O O8 0.500000 0.000000 0.836244
O O9 0.572034 0.054368 0.000000
O O10 0.624389 0.763127 0.000000
#
# Coordination Sequence:
#
# PCOD8314729 Si02
#       4
#    16  16  16  16
#     4  11  22  40  64  93 129 165 209 263 315 378
#     4  11  24  38  60  92 124 170 216 253 315 384
#     4   9  17  34  64  92 118 158 202 255 327 379
#     4  10  21  40  60  88 126 161 207 269 322 377
#
# _framework density 21.058941999999998
#
# number of rings (size 3 to 8) (size 9 to 14) (size 15 to 20)
#    0.000    1.750    2.500    2.250    0.000    5.500 
#    0.000    5.000    0.000    0.000    0.000    1.750 
#    0.000    0.000    0.000    0.000    0.000    0.000 
#
# Total GULP energy -793252.780081 kJ/mol
# GULP energy per Si atom -12394.574689 kJ/mol
# Density = 2.101101 g / cm^3
# Si number density = 21.058942 Si / 1000 Ang^3
#
#
#
# Elastic Constant Matrix: (Units=GPa)
#
#
# Indices 1 2 3 4 5 6 
#
# 1 86.4478 60.3120 20.9833 0.0000 0.0000 0.0000
# 2 60.3120 86.4478 20.9833 0.0000 0.0000 0.0000
# 3 20.9833 20.9833 127.2706 0.0000 0.0000 0.0000
# 4 0.0000 0.0000 0.0000 22.6111 0.0000 0.0000
# 5 0.0000 0.0000 0.0000 0.0000 22.6111 0.0000
# 6 0.0000 0.0000 0.0000 0.0000 0.0000 28.8760
#
#
#
# Elastic Compliance Matrix: (Units=1/GPa)
#
#
# Indices 1 2 3 4 5 6 
#
# 1 0.022706 -0.015555 -0.001179 0.000000 0.000000 0.000000
# 2 -0.015555 0.022706 -0.001179 0.000000 0.000000 0.000000
# 3 -0.001179 -0.001179 0.008246 0.000000 0.000000 0.000000
# 4 0.000000 0.000000 0.000000 0.044226 0.000000 0.000000
# 5 0.000000 0.000000 0.000000 0.000000 0.044226 0.000000
# 6 0.000000 0.000000 0.000000 0.000000 0.000000 0.034631
#
#
# Mechanical properties :
#
#
# Convention : Reuss Voigt Hill
#
# Bulk Modulus (GPa) = 56.07880 56.08037 56.07958
# Shear Modulus (GPa) = 22.88200 28.01215 25.44707
#
# Velocity S-wave (km/s) = 3.29989 3.65112 3.47994
# Velocity P-wave (km/s) = 6.41921 6.66800 6.54479
#
# Compressibility (1/GPa) = 0.01783205
#
# Stress axis : x y z
#
# Youngs Moduli (GPa) = 44.04051 44.04051 121.27035
#
# Poissons Ratio (x) = 0.68507 0.14298
# Poissons Ratio (y) = 0.68507 0.14298
# Poissons Ratio (z) = 0.05192 0.05192
#
# Static dielectric constant tensor:
#      x y z
#    x 3.622760 0.000000 0.000000 
#    y 0.000000 3.622760 0.000000 
#    z 0.000000 0.000000 3.961380 
# 
# 
# High freq. dielectric constant tensor:
#      x y z
#    x 1.802310 0.000000 0.000000 
#    y 0.000000 1.802310 0.000000 
#    z 0.000000 0.000000 1.842870 
# 
# From -- ./inp_files/3521.got.cif
#   From: 2010.03.12/outbox.cif.g09.slc.cpg/sg128_2_cif.got.tgz:3521.got - 2010.04.06 17:11:05.
