data_PCOD8314877
_publ_section_title
;
Structure prediction by ZEFSAII (Michael W. Deem and Ramdas Pophale) SiO2 
 PCOD8314877
Probable space group: P 4/N M M
;
_chemical_formula_sum "Si O2"
_cell_formula_units_Z 112
_cell_length_a 18.091274
_cell_length_b 18.091274
_cell_length_c 18.976980
_cell_angle_alpha 90.000000
_cell_angle_beta 90.000000
_cell_angle_gamma 90.000000
_cell_volume 6211.055392
_symmetry_space_group_name_H-M "P 4/N M M"
_symmetry_group_IT_number 129
_symmetry_cell_setting 'tetragonal'
loop_
_space_group_symop_operation_xyz
x,y,z
1/2-y,x,z
1/2-x,1/2-y,z
y,1/2-x,z
1/2+x,-y,-z
-x,1/2+y,-z
1/2+y,1/2+x,-z
-y,-x,-z
-x,-y,-z
1/2+y,-x,-z
1/2+x,1/2+y,-z
-y,1/2+x,-z
1/2-x,y,z
x,1/2-y,z
1/2-y,1/2-x,z
y,x,z
loop_
_atom_site_type_symbol
_atom_site_label
_atom_site_fract_x
_atom_site_fract_y
_atom_site_fract_z
Si Si1 0.513049 0.393373 0.044607
Si Si2 0.333683 0.045277 0.652861
Si Si3 0.331268 0.543568 0.785537
Si Si4 0.561560 0.062362 0.420533
Si Si5 0.947586 0.669857 0.085505
Si Si6 0.517004 0.104755 0.201813
Si Si7 0.835363 0.543391 0.662316
O O1 0.470037 0.470037 0.055642
O O2 0.523808 0.360261 0.123109
O O3 0.587660 0.412341 0.000000
O O4 0.467079 0.336115 0.997266
O O5 0.250000 0.059553 0.625626
O O6 0.382441 0.117560 0.635297
O O7 0.333877 0.029287 0.736400
O O8 0.365380 0.970739 0.616393
O O9 0.250000 0.582186 0.776397
O O10 0.342607 0.519919 0.866820
O O11 0.399795 0.596603 0.767433
O O12 0.583869 0.083869 0.500000
O O13 0.527403 0.133518 0.380746
O O14 0.500527 0.999474 0.419008
O O15 0.913106 0.750000 0.098624
O O16 0.888632 0.611369 0.110718
O O17 0.474253 0.160135 0.253980
O O18 0.474541 0.025460 0.202858
O O19 0.750000 0.557494 0.641738
O O20 0.882815 0.617186 0.644464
#
# Coordination Sequence:
#
# PCOD8314877 Si02
#       7
#    16  16  16  16  16  16  16
#     4   9  16  26  44  66  88 119 164 220 266 296
#     4  10  19  31  50  77 108 141 174 209 251 299
#     4  10  18  28  47  73 101 131 168 214 259 300
#     4   9  18  34  56  79 103 136 179 218 248 292
#     4  10  19  29  42  65  96 129 164 202 249 303
#     4  10  17  30  52  72  98 134 178 223 261 306
#     4  10  21  36  57  84 111 141 176 217 267 320
#
# _framework density 18.032361000000002
#
# number of rings (size 3 to 8) (size 9 to 14) (size 15 to 20)
#    0.000    2.286    2.857    1.286    0.000    1.571 
#    0.000    0.000    0.000    4.286    0.000    9.000 
#    0.000    0.286    0.000    0.000    0.000    0.000 
#
# Total GULP energy -1387765.717811 kJ/mol
# GULP energy per Si atom -12390.765338 kJ/mol
# Density = 1.799132 g / cm^3
# Si number density = 18.032361 Si / 1000 Ang^3
#
#
#
# Elastic Constant Matrix: (Units=GPa)
#
#
# Indices 1 2 3 4 5 6 
#
# 1 83.5416 34.6721 20.2795 0.0000 0.0000 0.0000
# 2 34.6721 83.5421 20.2796 0.0000 0.0000 0.0000
# 3 20.2795 20.2796 97.5530 0.0000 0.0000 0.0000
# 4 0.0000 0.0000 0.0000 15.2394 0.0000 0.0000
# 5 0.0000 0.0000 0.0000 0.0000 15.2393 0.0000
# 6 0.0000 0.0000 0.0000 0.0000 0.0000 12.8825
#
#
#
# Elastic Compliance Matrix: (Units=1/GPa)
#
#
# Indices 1 2 3 4 5 6 
#
# 1 0.014786 -0.005677 -0.001894 0.000000 0.000000 0.000000
# 2 -0.005677 0.014786 -0.001894 0.000000 0.000000 0.000000
# 3 -0.001894 -0.001894 0.011038 0.000000 0.000000 0.000000
# 4 0.000000 0.000000 0.000000 0.065619 0.000000 0.000000
# 5 0.000000 0.000000 0.000000 0.000000 0.065620 0.000000
# 6 0.000000 0.000000 0.000000 0.000000 0.000000 0.077625
#
#
# Mechanical properties :
#
#
# Convention : Reuss Voigt Hill
#
# Bulk Modulus (GPa) = 46.12199 46.12213 46.12206
# Shear Modulus (GPa) = 18.14035 21.29928 19.71981
#
# Velocity S-wave (km/s) = 3.17517 3.44054 3.31052
# Velocity P-wave (km/s) = 6.25101 6.43553 6.34394
#
# Compressibility (1/GPa) = 0.02168163
#
# Stress axis : x y z
#
# Youngs Moduli (GPa) = 67.63254 67.63296 90.59510
#
# Poissons Ratio (x) = 0.38394 0.17155
# Poissons Ratio (y) = 0.38394 0.17155
# Poissons Ratio (z) = 0.12807 0.12807
#
# Static dielectric constant tensor:
#      x y z
#    x 3.062090 0.000000 0.000000 
#    y 0.000000 3.062090 0.000000 
#    z 0.000000 0.000000 3.565210 
# 
# 
# High freq. dielectric constant tensor:
#      x y z
#    x 1.665350 0.000000 0.000000 
#    y 0.000000 1.665350 0.000000 
#    z 0.000000 0.000000 1.710080 
# 
# From -- ./inp_files/6727.got.cif
#   From: 2010.03.12/outbox.cif.g09.slc.cpg/sg129_4_cif.got.tgz:6727.got - 2010.04.06 17:19:44.
