data_PCOD8314934
_publ_section_title
;
Structure prediction by ZEFSAII (Michael W. Deem and Ramdas Pophale) SiO2 
 PCOD8314934
Probable space group: P 4/N M M
;
_chemical_formula_sum "Si O2"
_cell_formula_units_Z 112
_cell_length_a 22.987759
_cell_length_b 22.987759
_cell_length_c 12.482987
_cell_angle_alpha 90.000000
_cell_angle_beta 90.000000
_cell_angle_gamma 90.000000
_cell_volume 6596.472998
_symmetry_space_group_name_H-M "P 4/N M M"
_symmetry_group_IT_number 129
_symmetry_cell_setting 'tetragonal'
loop_
_space_group_symop_operation_xyz
x,y,z
1/2-y,x,z
1/2-x,1/2-y,z
y,1/2-x,z
1/2+x,-y,-z
-x,1/2+y,-z
1/2+y,1/2+x,-z
-y,-x,-z
-x,-y,-z
1/2+y,-x,-z
1/2+x,1/2+y,-z
-y,1/2+x,-z
1/2-x,y,z
x,1/2-y,z
1/2-y,1/2-x,z
y,x,z
loop_
_atom_site_type_symbol
_atom_site_label
_atom_site_fract_x
_atom_site_fract_y
_atom_site_fract_z
Si Si1 0.685590 0.905922 0.230772
Si Si2 0.314551 0.027648 0.976538
Si Si3 0.495124 0.316220 0.382660
Si Si4 0.910173 0.815498 0.810987
Si Si5 0.440206 0.536751 0.323974
Si Si6 0.029835 0.123523 0.592328
Si Si7 0.427186 0.517813 0.897595
O O1 0.750000 0.901677 0.278761
O O2 0.655446 0.844555 0.253542
O O3 0.686750 0.917589 0.103883
O O4 0.651624 0.958157 0.291403
O O5 0.250000 0.999369 0.984867
O O6 0.358833 0.981290 0.925693
O O7 0.337229 0.047504 0.093403
O O8 0.522637 0.250000 0.372238
O O9 0.440822 0.320404 0.303300
O O10 0.535827 0.371842 0.355019
O O11 0.476025 0.325142 0.505482
O O12 0.891383 0.750000 0.837428
O O13 0.852252 0.852252 0.807711
O O14 0.473780 0.473780 0.333645
O O15 0.472066 0.583772 0.400126
O O16 0.440959 0.559420 0.202410
O O17 0.083316 0.083316 0.555425
O O18 0.452286 0.452286 0.871918
O O19 0.459917 0.540084 0.000000
#
# Coordination Sequence:
#
# PCOD8314934 Si02
#       7
#    16  16  16  16  16  16  16
#     4  10  19  31  48  70  99 133 167 203 243 289
#     4  10  19  32  49  70 100 131 164 204 251 304
#     4  11  22  34  48  70 100 130 163 202 252 309
#     4  10  20  32  47  66  93 133 174 211 248 287
#     4  10  19  32  52  77 101 129 165 208 257 308
#     4  10  19  33  53  73  97 128 167 212 255 297
#     4  10  18  29  49  75 102 130 163 203 251 305
#
# _framework density 16.978770000000001
#
# number of rings (size 3 to 8) (size 9 to 14) (size 15 to 20)
#    0.000    1.857    1.429    4.286    0.000    2.571 
#    0.000    0.000    0.000    2.571    0.000    2.000 
#    0.000   17.429    0.000    0.000    0.000    0.000 
#
# Total GULP energy -1387994.778223 kJ/mol
# GULP energy per Si atom -12392.810520 kJ/mol
# Density = 1.694013 g / cm^3
# Si number density = 16.978770 Si / 1000 Ang^3
#
#
#
# Elastic Constant Matrix: (Units=GPa)
#
#
# Indices 1 2 3 4 5 6 
#
# 1 65.5195 54.7879 19.3499 0.0000 0.0000 0.0000
# 2 54.7879 65.5358 19.3439 0.0000 0.0000 0.0000
# 3 19.3499 19.3439 90.8233 0.0000 0.0000 0.0000
# 4 0.0000 0.0000 0.0000 23.4781 0.0000 0.0000
# 5 0.0000 0.0000 0.0000 0.0000 23.4776 0.0000
# 6 0.0000 0.0000 0.0000 0.0000 0.0000 18.9554
#
#
#
# Elastic Compliance Matrix: (Units=1/GPa)
#
#
# Indices 1 2 3 4 5 6 
#
# 1 0.051025 -0.042094 -0.001905 0.000000 0.000000 0.000000
# 2 -0.042094 0.051009 -0.001896 0.000000 0.000000 0.000000
# 3 -0.001905 -0.001896 0.011820 0.000000 0.000000 0.000000
# 4 0.000000 0.000000 0.000000 0.042593 0.000000 0.000000
# 5 0.000000 0.000000 0.000000 0.000000 0.042594 0.000000
# 6 0.000000 0.000000 0.000000 0.000000 0.000000 0.052755
#
#
# Mechanical properties :
#
#
# Convention : Reuss Voigt Hill
#
# Bulk Modulus (GPa) = 45.32503 45.42688 45.37596
# Shear Modulus (GPa) = 14.24735 21.74203 17.99469
#
# Velocity S-wave (km/s) = 2.89991 3.58235 3.25904
# Velocity P-wave (km/s) = 6.16163 6.62753 6.39882
#
# Compressibility (1/GPa) = 0.02206286
#
# Stress axis : x y z
#
# Youngs Moduli (GPa) = 19.59824 19.60425 84.60127
#
# Poissons Ratio (x) = 0.82523 0.16120
# Poissons Ratio (y) = 0.82498 0.16040
# Poissons Ratio (z) = 0.03734 0.03717
#
# Static dielectric constant tensor:
#      x y z
#    x 3.099760 0.000000 0.000000 
#    y 0.000000 3.099770 0.000000 
#    z 0.000000 0.000000 3.405970 
# 
# 
# High freq. dielectric constant tensor:
#      x y z
#    x 1.628370 0.000000 0.000000 
#    y 0.000000 1.628370 0.000000 
#    z 0.000000 0.000000 1.681630 
# 
# From -- ./inp_files/4119.got.cif
#   From: 2010.03.12/outbox.cif.g09.slc.cpg/sg129_3_cif.got.tgz:4119.got - 2010.04.06 17:19:44.
