data_PCOD8314443
_publ_section_title
;
Structure prediction by ZEFSAII (Michael W. Deem and Ramdas Pophale) SiO2 
 PCOD8314443
Probable space group: P 4/M B M
;
_chemical_formula_sum "Si O2"
_cell_formula_units_Z 88
_cell_length_a 15.040872
_cell_length_b 15.040872
_cell_length_c 18.732168
_cell_angle_alpha 90.000000
_cell_angle_beta 90.000000
_cell_angle_gamma 90.000000
_cell_volume 4237.737728
_symmetry_space_group_name_H-M "P 4/M B M"
_symmetry_group_IT_number 127
_symmetry_cell_setting 'tetragonal'
loop_
_space_group_symop_operation_xyz
x,y,z
-y,x,z
-x,-y,z
y,-x,z
1/2+x,1/2-y,-z
1/2-x,1/2+y,-z
1/2+y,1/2+x,-z
1/2-y,1/2-x,-z
-x,-y,-z
y,-x,-z
x,y,-z
-y,x,-z
1/2-x,1/2+y,z
1/2+x,1/2-y,z
1/2-y,1/2-x,z
1/2+y,1/2+x,z
loop_
_atom_site_type_symbol
_atom_site_label
_atom_site_fract_x
_atom_site_fract_y
_atom_site_fract_z
Si Si1 0.430917 0.930917 0.584781
Si Si2 0.863437 0.503839 0.084627
Si Si3 0.990134 0.759507 0.584048
Si Si4 0.277797 0.627981 0.917976
Si Si5 0.397981 0.605858 0.207862
Si Si6 0.829315 0.179934 0.650602
O O1 0.433317 0.933317 0.500000
O O2 0.334625 0.956130 0.612772
O O3 0.500000 0.000000 0.618256
O O4 0.936925 0.436925 0.115832
O O5 0.767216 0.466402 0.108356
O O6 0.894935 0.605066 0.108109
O O7 0.864210 0.497754 0.000000
O O8 0.007923 0.763468 0.500000
O O9 0.911134 0.826334 0.604859
O O10 0.081469 0.773682 0.624659
O O11 0.208125 0.708125 0.908308
O O12 0.364501 0.641277 0.869198
O O13 0.309974 0.623426 0.000000
O O14 0.376360 0.501889 0.216599
O O15 0.343877 0.662189 0.266297
O O16 0.745124 0.245124 0.637615
#
# Coordination Sequence:
#
# PCOD8314443 Si02
#       6
#     8  16  16  16  16  16
#     4   9  18  36  60  94 138 173 208 264 334 396
#     4   7  10  20  43  76 111 143 175 220 284 352
#     4  11  23  39  66 101 133 172 221 272 328 391
#     4   9  18  35  61  91 120 153 200 258 318 383
#     4  11  24  43  63  84 118 166 216 263 319 382
#     4  12  24  43  68  95 133 177 221 273 330 392
#
# _framework density 20.765796999999999
#
# number of rings (size 3 to 8) (size 9 to 14) (size 15 to 20)
#    0.000    2.091    2.727    3.273    0.000    2.909 
#    0.000    3.636    2.000    2.182    0.000    0.000 
#    0.000    0.000    0.000    0.000    0.000    0.000 
#
# Total GULP energy -1090356.444275 kJ/mol
# GULP energy per Si atom -12390.414139 kJ/mol
# Density = 2.071853 g / cm^3
# Si number density = 20.765797 Si / 1000 Ang^3
#
#
#
# Elastic Constant Matrix: (Units=GPa)
#
#
# Indices 1 2 3 4 5 6 
#
# 1 68.2959 11.6304 18.7111 0.0000 0.0000 0.0000
# 2 11.6304 68.2959 18.7111 0.0000 0.0000 0.0000
# 3 18.7111 18.7111 70.6055 0.0000 0.0000 0.0000
# 4 0.0000 0.0000 0.0000 28.3430 0.0000 0.0000
# 5 0.0000 0.0000 0.0000 0.0000 28.3430 0.0000
# 6 0.0000 0.0000 0.0000 0.0000 0.0000 30.2961
#
#
#
# Elastic Compliance Matrix: (Units=1/GPa)
#
#
# Indices 1 2 3 4 5 6 
#
# 1 0.015966 -0.001682 -0.003785 0.000000 0.000000 0.000000
# 2 -0.001682 0.015966 -0.003785 0.000000 0.000000 0.000000
# 3 -0.003785 -0.003785 0.016170 0.000000 0.000000 0.000000
# 4 0.000000 0.000000 0.000000 0.035282 0.000000 0.000000
# 5 0.000000 0.000000 0.000000 0.000000 0.035282 0.000000
# 6 0.000000 0.000000 0.000000 0.000000 0.000000 0.033008
#
#
# Mechanical properties :
#
#
# Convention : Reuss Voigt Hill
#
# Bulk Modulus (GPa) = 33.78856 33.92250 33.85553
# Shear Modulus (GPa) = 27.77118 27.93939 27.85529
#
# Velocity S-wave (km/s) = 3.66095 3.67202 3.66649
# Velocity P-wave (km/s) = 5.84608 5.86085 5.85347
#
# Compressibility (1/GPa) = 0.02959582
#
# Stress axis : x y z
#
# Youngs Moduli (GPa) = 62.63456 62.63456 61.84482
#
# Poissons Ratio (x) = 0.10534 0.23410
# Poissons Ratio (y) = 0.10534 0.23410
# Poissons Ratio (z) = 0.23709 0.23709
#
# Static dielectric constant tensor:
#      x y z
#    x 3.943120 0.000000 0.000000 
#    y 0.000000 3.943120 0.000000 
#    z 0.000000 0.000000 3.432340 
# 
# 
# High freq. dielectric constant tensor:
#      x y z
#    x 1.815700 0.000000 0.000000 
#    y 0.000000 1.815700 0.000000 
#    z 0.000000 0.000000 1.784280 
# 
# From -- ./inp_files/5669.got.cif
#   From: 2010.03.12/outbox.cif.g09.slc.cpg/sg127_3_cif.got.tgz:5669.got - 2010.04.06 17:03:15.
