data_PCOD8314319
_publ_section_title
;
Structure prediction by ZEFSAII (Michael W. Deem and Ramdas Pophale) SiO2 
 PCOD8314319
Probable space group: P 4/M B M
;
_chemical_formula_sum "Si O2"
_cell_formula_units_Z 88
_cell_length_a 13.681264
_cell_length_b 13.681264
_cell_length_c 24.479831
_cell_angle_alpha 90.000000
_cell_angle_beta 90.000000
_cell_angle_gamma 90.000000
_cell_volume 4582.060951
_symmetry_space_group_name_H-M "P 4/M B M"
_symmetry_group_IT_number 127
_symmetry_cell_setting 'tetragonal'
loop_
_space_group_symop_operation_xyz
x,y,z
-y,x,z
-x,-y,z
y,-x,z
1/2+x,1/2-y,-z
1/2-x,1/2+y,-z
1/2+y,1/2+x,-z
1/2-y,1/2-x,-z
-x,-y,-z
y,-x,-z
x,y,-z
-y,x,-z
1/2-x,1/2+y,z
1/2+x,1/2-y,z
1/2-y,1/2-x,z
1/2+y,1/2+x,z
loop_
_atom_site_type_symbol
_atom_site_label
_atom_site_fract_x
_atom_site_fract_y
_atom_site_fract_z
Si Si1 0.239029 0.421501 0.609014
Si Si2 0.997849 0.340039 0.500000
Si Si3 0.388073 0.267913 0.883982
Si Si4 0.631305 0.405918 0.771818
Si Si5 0.090394 0.250663 0.937755
Si Si6 0.620632 0.723713 0.658492
O O1 0.141230 0.358771 0.622318
O O2 0.228834 0.478766 0.551635
O O3 0.257237 0.505811 0.652929
O O4 0.333610 0.350278 0.612670
O O5 0.886518 0.386518 0.500000
O O6 0.069511 0.430490 0.500000
O O7 0.336604 0.163397 0.888949
O O8 0.367712 0.310527 0.824104
O O9 0.501205 0.251529 0.895961
O O10 0.344669 0.343155 0.928269
O O11 0.634341 0.522300 0.772629
O O12 0.680782 0.360580 0.718268
O O13 0.152189 0.347812 0.924867
O O14 0.053036 0.250133 0.000000
O O15 0.672165 0.827836 0.652643
#
# Coordination Sequence:
#
# PCOD8314319 Si02
#       6
#    16   8  16  16  16  16
#     4  10  22  38  59  89 121 157 203 247 299 361
#     4   9  18  36  60  85 119 159 196 239 289 347
#     4  11  22  39  61  86 119 155 196 245 296 351
#     4  11  21  38  62  85 115 156 197 246 302 355
#     4  10  22  39  60  88 119 153 195 241 294 358
#     4  11  22  38  61  86 119 159 197 250 305 353
#
# _framework density 19.205331000000001
#
# number of rings (size 3 to 8) (size 9 to 14) (size 15 to 20)
#    0.000    1.545    3.636    1.636    0.000    4.000 
#    0.000    4.545    0.000    3.273    0.000    0.000 
#    0.000    0.000    0.000    0.000    0.000    0.000 
#
# Total GULP energy -1091132.450434 kJ/mol
# GULP energy per Si atom -12399.232391 kJ/mol
# Density = 1.916162 g / cm^3
# Si number density = 19.205331 Si / 1000 Ang^3
#
#
#
# Elastic Constant Matrix: (Units=GPa)
#
#
# Indices 1 2 3 4 5 6 
#
# 1 93.7824 38.0779 20.4248 0.0000 0.0000 0.0000
# 2 38.0779 93.7825 20.4249 0.0000 0.0000 0.0000
# 3 20.4248 20.4249 80.6245 0.0000 0.0000 0.0000
# 4 0.0000 0.0000 0.0000 29.5684 0.0000 0.0000
# 5 0.0000 0.0000 0.0000 0.0000 29.5686 0.0000
# 6 0.0000 0.0000 0.0000 0.0000 0.0000 10.2535
#
#
#
# Elastic Compliance Matrix: (Units=1/GPa)
#
#
# Indices 1 2 3 4 5 6 
#
# 1 0.013091 -0.004861 -0.002085 0.000000 0.000000 0.000000
# 2 -0.004861 0.013091 -0.002085 0.000000 0.000000 0.000000
# 3 -0.002085 -0.002085 0.013460 0.000000 0.000000 0.000000
# 4 0.000000 0.000000 0.000000 0.033820 0.000000 0.000000
# 5 0.000000 0.000000 0.000000 0.000000 0.033820 0.000000
# 6 0.000000 0.000000 0.000000 0.000000 0.000000 0.097528
#
#
# Mechanical properties :
#
#
# Convention : Reuss Voigt Hill
#
# Bulk Modulus (GPa) = 46.34042 47.33829 46.83936
# Shear Modulus (GPa) = 21.73314 26.49554 24.11434
#
# Velocity S-wave (km/s) = 3.36761 3.71832 3.54730
# Velocity P-wave (km/s) = 6.26916 6.56784 6.42024
#
# Compressibility (1/GPa) = 0.02157943
#
# Stress axis : x y z
#
# Youngs Moduli (GPa) = 76.38975 76.38982 74.29693
#
# Poissons Ratio (x) = 0.37134 0.15490
# Poissons Ratio (y) = 0.37134 0.15490
# Poissons Ratio (z) = 0.15926 0.15926
#
# Static dielectric constant tensor:
#      x y z
#    x 3.412460 0.000000 0.000000 
#    y 0.000000 3.412460 0.000000 
#    z 0.000000 0.000000 3.529210 
# 
# 
# High freq. dielectric constant tensor:
#      x y z
#    x 1.746170 0.000000 0.000000 
#    y 0.000000 1.746170 0.000000 
#    z 0.000000 0.000000 1.749290 
# 
# From -- ./inp_files/5673.got.cif
#   From: 2010.03.12/outbox.cif.g09.slc.cpg/sg127_3_cif.got.tgz:5673.got - 2010.04.06 17:03:15.
