data_PCOD8314494
_publ_section_title
;
Structure prediction by ZEFSAII (Michael W. Deem and Ramdas Pophale) SiO2 
 PCOD8314494
Probable space group: P 4/M N C
;
_chemical_formula_sum "Si O2"
_cell_formula_units_Z 128
_cell_length_a 17.995540
_cell_length_b 17.995540
_cell_length_c 21.467341
_cell_angle_alpha 90.000000
_cell_angle_beta 90.000000
_cell_angle_gamma 90.000000
_cell_volume 6951.972115
_symmetry_space_group_name_H-M "P 4/M N C"
_symmetry_group_IT_number 128
_symmetry_cell_setting 'tetragonal'
loop_
_space_group_symop_operation_xyz
x,y,z
-y,x,z
-x,-y,z
y,-x,z
1/2+x,1/2-y,1/2-z
1/2-x,1/2+y,1/2-z
1/2+y,1/2+x,1/2-z
1/2-y,1/2-x,1/2-z
-x,-y,-z
y,-x,-z
x,y,-z
-y,x,-z
1/2-x,1/2+y,1/2+z
1/2+x,1/2-y,1/2+z
1/2-y,1/2-x,1/2+z
1/2+y,1/2+x,1/2+z
loop_
_atom_site_type_symbol
_atom_site_label
_atom_site_fract_x
_atom_site_fract_y
_atom_site_fract_z
Si Si1 0.040258 0.666487 0.747626
Si Si2 0.798757 0.862147 0.743856
Si Si3 0.916946 0.521776 0.861363
Si Si4 0.172334 0.475755 0.615827
Si Si5 0.705888 0.635388 0.426361
Si Si6 0.879456 0.373384 0.569764
Si Si7 0.727963 0.775339 0.646762
Si Si8 0.086318 0.087196 0.166020
O O1 0.110157 0.610157 0.750000
O O2 0.066787 0.748219 0.725694
O O3 0.979564 0.636023 0.698888
O O4 0.998330 0.675779 0.812395
O O5 0.801094 0.806576 0.683754
O O6 0.756365 0.827467 0.802294
O O7 0.881361 0.883138 0.767506
O O8 0.919178 0.603050 0.892752
O O9 0.886459 0.464918 0.912630
O O10 0.000000 0.500000 0.839269
O O11 0.245990 0.435275 0.593162
O O12 0.164891 0.549117 0.574086
O O13 0.693426 0.639731 0.500000
O O14 0.746996 0.710854 0.403004
O O15 0.625975 0.626909 0.392762
O O16 0.874837 0.343198 0.500000
O O17 0.844705 0.311539 0.614063
O O18 0.999589 0.104256 0.162461
#
# Coordination Sequence:
#
# PCOD8314494 Si02
#       8
#    16  16  16  16  16  16  16  16
#     4  12  16  32  57  82 113 149 188 237 285 345
#     4  10  17  35  61  78 108 137 184 239 304 344
#     4  10  20  31  51  80 117 153 189 236 286 341
#     4  11  22  34  51  81 117 152 193 239 287 340
#     4  11  25  41  57  81 119 164 201 237 285 343
#     4  11  20  32  54  78 108 157 202 233 277 344
#     4  10  19  37  55  80 106 146 193 244 286 350
#     4  10  23  42  62  87 114 146 197 257 305 346
#
# _framework density 18.412042
#
# number of rings (size 3 to 8) (size 9 to 14) (size 15 to 20)
#    0.000    1.375    6.250    1.875    1.750    3.250 
#   11.250    0.625    0.000    0.000    0.000    0.000 
#    0.000    0.000    0.000    5.500    0.250    0.000 
#
# Total GULP energy -1586772.355512 kJ/mol
# GULP energy per Si atom -12396.659027 kJ/mol
# Density = 1.837014 g / cm^3
# Si number density = 18.412042 Si / 1000 Ang^3
#
#
#
# Elastic Constant Matrix: (Units=GPa)
#
#
# Indices 1 2 3 4 5 6 
#
# 1 70.7395 27.1100 44.8114 0.0000 0.0000 0.0000
# 2 27.1100 70.7395 44.8114 0.0000 0.0000 0.0000
# 3 44.8114 44.8114 117.6448 0.0000 0.0000 0.0000
# 4 0.0000 0.0000 0.0000 20.3959 0.0000 0.0000
# 5 0.0000 0.0000 0.0000 0.0000 20.3959 0.0000
# 6 0.0000 0.0000 0.0000 0.0000 0.0000 19.4624
#
#
#
# Elastic Compliance Matrix: (Units=1/GPa)
#
#
# Indices 1 2 3 4 5 6 
#
# 1 0.019308 -0.003612 -0.005979 0.000000 0.000000 0.000000
# 2 -0.003612 0.019308 -0.005979 0.000000 0.000000 0.000000
# 3 -0.005979 -0.005979 0.013055 0.000000 0.000000 0.000000
# 4 0.000000 0.000000 0.000000 0.049029 0.000000 0.000000
# 5 0.000000 0.000000 0.000000 0.000000 0.049029 0.000000
# 6 0.000000 0.000000 0.000000 0.000000 0.000000 0.051381
#
#
# Mechanical properties :
#
#
# Convention : Reuss Voigt Hill
#
# Bulk Modulus (GPa) = 48.70488 54.73218 51.71853
# Shear Modulus (GPa) = 20.91232 21.54357 21.22795
#
# Velocity S-wave (km/s) = 3.37381 3.42435 3.39918
# Velocity P-wave (km/s) = 6.45655 6.73986 6.59973
#
# Compressibility (1/GPa) = 0.02053182
#
# Stress axis : x y z
#
# Youngs Moduli (GPa) = 51.79209 51.79209 76.60093
#
# Poissons Ratio (x) = 0.18709 0.45796
# Poissons Ratio (y) = 0.18709 0.45796
# Poissons Ratio (z) = 0.30964 0.30964
#
# Static dielectric constant tensor:
#      x y z
#    x 3.519490 0.000000 0.000000 
#    y 0.000000 3.519490 0.000000 
#    z 0.000000 0.000000 3.429480 
# 
# 
# High freq. dielectric constant tensor:
#      x y z
#    x 1.698200 0.000000 0.000000 
#    y 0.000000 1.698200 0.000000 
#    z 0.000000 0.000000 1.705780 
# 
# From -- ./inp_files/6601.got.cif
#   From: 2010.03.12/outbox.cif.g09.slc.cpg/sg128_4_cif.got.tgz:6601.got - 2010.04.06 17:11:05.
