data_PCOD8314293
_publ_section_title
;
Structure prediction by ZEFSAII (Michael W. Deem and Ramdas Pophale) SiO2 
 PCOD8314293
Probable space group: P 4/M B M
;
_chemical_formula_sum "Si O2"
_cell_formula_units_Z 56
_cell_length_a 18.952050
_cell_length_b 18.952050
_cell_length_c 7.409740
_cell_angle_alpha 90.000000
_cell_angle_beta 90.000000
_cell_angle_gamma 90.000000
_cell_volume 2661.431889
_symmetry_space_group_name_H-M "P 4/M B M"
_symmetry_group_IT_number 127
_symmetry_cell_setting 'tetragonal'
loop_
_space_group_symop_operation_xyz
x,y,z
-y,x,z
-x,-y,z
y,-x,z
1/2+x,1/2-y,-z
1/2-x,1/2+y,-z
1/2+y,1/2+x,-z
1/2-y,1/2-x,-z
-x,-y,-z
y,-x,-z
x,y,-z
-y,x,-z
1/2-x,1/2+y,z
1/2+x,1/2-y,z
1/2-y,1/2-x,z
1/2+y,1/2+x,z
loop_
_atom_site_type_symbol
_atom_site_label
_atom_site_fract_x
_atom_site_fract_y
_atom_site_fract_z
Si Si1 0.379891 0.879891 0.784630
Si Si2 0.396905 0.553232 0.500000
Si Si3 0.891183 0.207380 0.786269
Si Si4 0.852173 0.463605 0.786133
Si Si5 0.767613 0.732388 0.213393
O O1 0.457178 0.859481 0.710118
O O2 0.323629 0.823629 0.706936
O O3 0.379055 0.879055 0.000000
O O4 0.405802 0.469955 0.500000
O O5 0.357130 0.573541 0.316668
O O6 0.931215 0.278060 0.724678
O O7 0.810424 0.212614 0.720597
O O8 0.897573 0.194264 0.000000
O O9 0.915487 0.415487 0.707677
O O10 0.856939 0.463942 0.000000
O O11 0.768924 0.731077 0.000000
#
# Coordination Sequence:
#
# PCOD8314293 Si02
#       5
#     8   8  16  16   8
#     4   9  17  26  50  89 126 158 201 253 299 358
#     4  11  28  47  62  90 123 156 213 274 314 366
#     4  10  21  40  67  91 123 167 204 251 313 373
#     4   9  16  30  53  87 126 164 200 243 304 371
#     4   9  18  34  57  93 125 156 211 256 290 362
#
# _framework density 21.041302999999999
#
# number of rings (size 3 to 8) (size 9 to 14) (size 15 to 20)
#    0.000    2.429    1.429    0.429    4.000    3.429 
#    0.000    1.429    0.000    0.857    0.000    2.000 
#    0.000    0.000    0.000    0.000    0.000    0.000 
#
# Total GULP energy -694409.427514 kJ/mol
# GULP energy per Si atom -12400.168348 kJ/mol
# Density = 2.099341 g / cm^3
# Si number density = 21.041303 Si / 1000 Ang^3
#
#
#
# Elastic Constant Matrix: (Units=GPa)
#
#
# Indices 1 2 3 4 5 6 
#
# 1 171.6960 159.1556 34.5892 0.0000 0.0000 0.0000
# 2 159.1556 171.6961 34.5893 0.0000 0.0000 0.0000
# 3 34.5892 34.5893 59.6955 0.0000 0.0000 0.0000
# 4 0.0000 0.0000 0.0000 9.9725 0.0000 0.0000
# 5 0.0000 0.0000 0.0000 0.0000 9.9725 0.0000
# 6 0.0000 0.0000 0.0000 0.0000 0.0000 42.5815
#
#
#
# Elastic Compliance Matrix: (Units=1/GPa)
#
#
# Indices 1 2 3 4 5 6 
#
# 1 0.041591 -0.038151 -0.001993 0.000000 0.000000 0.000000
# 2 -0.038151 0.041591 -0.001993 0.000000 0.000000 0.000000
# 3 -0.001993 -0.001993 0.019061 0.000000 0.000000 0.000000
# 4 0.000000 0.000000 0.000000 0.100276 0.000000 0.000000
# 5 0.000000 0.000000 0.000000 0.000000 0.100275 0.000000
# 6 0.000000 0.000000 0.000000 0.000000 0.000000 0.023484
#
#
# Mechanical properties :
#
#
# Convention : Reuss Voigt Hill
#
# Bulk Modulus (GPa) = 55.65351 95.52842 75.59096
# Shear Modulus (GPa) = 12.00362 24.15554 18.07958
#
# Velocity S-wave (km/s) = 2.39106 3.39190 2.93446
# Velocity P-wave (km/s) = 5.84209 7.79993 6.89090
#
# Compressibility (1/GPa) = 0.01796832
#
# Stress axis : x y z
#
# Youngs Moduli (GPa) = 24.04389 24.04389 52.46321
#
# Poissons Ratio (x) = 0.91731 0.10454
# Poissons Ratio (y) = 0.91731 0.10455
# Poissons Ratio (z) = 0.04791 0.04791
#
# Static dielectric constant tensor:
#      x y z
#    x 4.034460 0.000000 0.000000 
#    y 0.000000 4.034470 0.000000 
#    z 0.000000 0.000000 3.308300 
# 
# 
# High freq. dielectric constant tensor:
#      x y z
#    x 1.832860 0.000000 0.000000 
#    y 0.000000 1.832860 0.000000 
#    z 0.000000 0.000000 1.803690 
# 
# From -- ./inp_files/1145.got.cif
#   From: 2010.03.12/outbox.cif.g09.slc.cpg/sg127_1_cif.got.tgz:1145.got - 2010.04.06 17:03:15.
