data_PCOD8314915
_publ_section_title
;
Structure prediction by ZEFSAII (Michael W. Deem and Ramdas Pophale) SiO2 
 PCOD8314915
Probable space group: P 4/N M M
;
_chemical_formula_sum "Si O2"
_cell_formula_units_Z 128
_cell_length_a 19.636962
_cell_length_b 19.636962
_cell_length_c 19.648824
_cell_angle_alpha 90.000000
_cell_angle_beta 90.000000
_cell_angle_gamma 90.000000
_cell_volume 7576.788457
_symmetry_space_group_name_H-M "P 4/N M M"
_symmetry_group_IT_number 129
_symmetry_cell_setting 'tetragonal'
loop_
_space_group_symop_operation_xyz
x,y,z
1/2-y,x,z
1/2-x,1/2-y,z
y,1/2-x,z
1/2+x,-y,-z
-x,1/2+y,-z
1/2+y,1/2+x,-z
-y,-x,-z
-x,-y,-z
1/2+y,-x,-z
1/2+x,1/2+y,-z
-y,1/2+x,-z
1/2-x,y,z
x,1/2-y,z
1/2-y,1/2-x,z
y,x,z
loop_
_atom_site_type_symbol
_atom_site_label
_atom_site_fract_x
_atom_site_fract_y
_atom_site_fract_z
Si Si1 0.585672 0.025586 0.193971
Si Si2 0.824751 0.038969 0.823909
Si Si3 0.079654 0.969954 0.654184
Si Si4 0.864299 0.527507 0.693259
Si Si5 0.670208 0.067066 0.469548
Si Si6 0.828474 0.562056 0.097303
Si Si7 0.175473 0.066328 0.448732
Si Si8 0.674120 0.935246 0.942344
O O1 0.584556 0.107656 0.183873
O O2 0.608462 0.009535 0.271350
O O3 0.512528 0.987473 0.179788
O O4 0.643196 0.998602 0.143596
O O5 0.750000 0.077115 0.827603
O O6 0.818083 0.989739 0.758172
O O7 0.835806 0.999034 0.893685
O O8 0.141935 0.956899 0.603403
O O9 0.039293 0.899308 0.661583
O O10 0.029661 0.029661 0.626075
O O11 0.923342 0.576659 0.720892
O O12 0.821347 0.562539 0.633327
O O13 0.633606 0.133606 0.500000
O O14 0.750000 0.083484 0.462100
O O15 0.655019 0.006650 0.522058
O O16 0.750000 0.574540 0.114817
O O17 0.867776 0.632225 0.113320
O O18 0.840218 0.539890 0.019218
O O19 0.250000 0.088522 0.475039
O O20 0.121560 0.121560 0.474818
O O21 0.750000 0.905015 0.936818
O O22 0.624105 0.875896 0.919067
#
# Coordination Sequence:
#
# PCOD8314915 Si02
#       8
#    16  16  16  16  16  16  16  16
#     4   9  18  32  50  74  99 125 161 202 249 292
#     4  10  18  28  44  67  98 131 165 203 237 279
#     4   9  17  31  52  75  96 122 158 202 242 283
#     4   9  16  28  48  70  93 123 161 202 240 274
#     4  11  22  35  51  72  97 125 159 197 241 292
#     4   9  18  32  50  72  98 127 159 200 248 298
#     4  10  20  32  49  72  96 126 160 194 237 285
#     4   9  17  28  43  66  95 128 164 200 243 291
#
# _framework density 16.893701
#
# number of rings (size 3 to 8) (size 9 to 14) (size 15 to 20)
#    0.000    2.500    1.250    2.625    0.000    2.000 
#    0.000    3.125    0.000    0.375    0.000    1.750 
#    0.000    6.000    0.000    0.000    0.000    0.000 
#
# Total GULP energy -1586332.545851 kJ/mol
# GULP energy per Si atom -12393.223014 kJ/mol
# Density = 1.685525 g / cm^3
# Si number density = 16.893701 Si / 1000 Ang^3
#
#
#
# Elastic Constant Matrix: (Units=GPa)
#
#
# Indices 1 2 3 4 5 6 
#
# 1 93.3269 48.9706 40.8263 0.0000 0.0000 0.0000
# 2 48.9706 93.3269 40.8263 0.0000 0.0000 0.0000
# 3 40.8263 40.8263 82.8646 0.0000 0.0000 0.0000
# 4 0.0000 0.0000 0.0000 21.3229 0.0000 0.0000
# 5 0.0000 0.0000 0.0000 0.0000 21.3229 0.0000
# 6 0.0000 0.0000 0.0000 0.0000 0.0000 19.6641
#
#
#
# Elastic Compliance Matrix: (Units=1/GPa)
#
#
# Indices 1 2 3 4 5 6 
#
# 1 0.016171 -0.006374 -0.004827 0.000000 0.000000 0.000000
# 2 -0.006374 0.016171 -0.004827 0.000000 0.000000 0.000000
# 3 -0.004827 -0.004827 0.016824 0.000000 0.000000 0.000000
# 4 0.000000 0.000000 0.000000 0.046898 0.000000 0.000000
# 5 0.000000 0.000000 0.000000 0.000000 0.046898 0.000000
# 6 0.000000 0.000000 0.000000 0.000000 0.000000 0.050854
#
#
# Mechanical properties :
#
#
# Convention : Reuss Voigt Hill
#
# Bulk Modulus (GPa) = 58.44224 58.97384 58.70804
# Shear Modulus (GPa) = 21.59123 21.72166 21.65645
#
# Velocity S-wave (km/s) = 3.57888 3.58967 3.58428
# Velocity P-wave (km/s) = 7.19354 7.22257 7.20807
#
# Compressibility (1/GPa) = 0.01711091
#
# Stress axis : x y z
#
# Youngs Moduli (GPa) = 61.83895 61.83895 59.43777
#
# Poissons Ratio (x) = 0.39414 0.28691
# Poissons Ratio (y) = 0.39414 0.28691
# Poissons Ratio (z) = 0.29850 0.29850
#
# Static dielectric constant tensor:
#      x y z
#    x 3.016190 0.000000 0.000000 
#    y 0.000000 3.016190 0.000000 
#    z 0.000000 0.000000 3.301880 
# 
# 
# High freq. dielectric constant tensor:
#      x y z
#    x 1.632620 0.000000 0.000000 
#    y 0.000000 1.632620 0.000000 
#    z 0.000000 0.000000 1.662060 
# 
# From -- ./inp_files/6131.got.cif
#   From: 2010.03.12/outbox.cif.g09.slc.cpg/sg129_4_cif.got.tgz:6131.got - 2010.04.06 17:19:44.
