data_PCOD8314122
_publ_section_title
;
Structure prediction by ZEFSAII (Michael W. Deem and Ramdas Pophale) SiO2 
 PCOD8314122
Probable space group: P 4/M B M
;
_chemical_formula_sum "Si O2"
_cell_formula_units_Z 72
_cell_length_a 14.779503
_cell_length_b 14.779503
_cell_length_c 16.701694
_cell_angle_alpha 90.000000
_cell_angle_beta 90.000000
_cell_angle_gamma 90.000000
_cell_volume 3648.212966
_symmetry_space_group_name_H-M "P 4/M B M"
_symmetry_group_IT_number 127
_symmetry_cell_setting 'tetragonal'
loop_
_space_group_symop_operation_xyz
x,y,z
-y,x,z
-x,-y,z
y,-x,z
1/2+x,1/2-y,-z
1/2-x,1/2+y,-z
1/2+y,1/2+x,-z
1/2-y,1/2-x,-z
-x,-y,-z
y,-x,-z
x,y,-z
-y,x,-z
1/2-x,1/2+y,z
1/2+x,1/2-y,z
1/2-y,1/2-x,z
1/2+y,1/2+x,z
loop_
_atom_site_type_symbol
_atom_site_label
_atom_site_fract_x
_atom_site_fract_y
_atom_site_fract_z
Si Si1 0.568975 0.931026 0.092379
Si Si2 0.423634 0.076367 0.407434
Si Si3 0.712729 0.058768 0.863832
Si Si4 0.549763 0.357270 0.000000
Si Si5 0.551461 0.200310 0.683289
Si Si6 0.561060 0.370919 0.405868
O O1 0.539512 0.830161 0.115202
O O2 0.500000 0.000000 0.137997
O O3 0.556106 0.943895 0.000000
O O4 0.398119 0.101882 0.500000
O O5 0.458771 0.165370 0.359209
O O6 0.500000 0.000000 0.409684
O O7 0.641766 0.141766 0.877155
O O8 0.741930 0.043768 0.772121
O O9 0.799340 0.073528 0.920476
O O10 0.614078 0.444773 0.000000
O O11 0.615149 0.115149 0.686777
O O12 0.598504 0.278871 0.631458
O O13 0.618453 0.456940 0.376691
O O14 0.566395 0.363906 0.500000
#
# Coordination Sequence:
#
# PCOD8314122 Si02
#       6
#     8   8  16   8  16  16
#     4   9  15  29  59  85 105 137 179 220 263 317
#     4   9  17  31  53  84 123 159 185 220 280 345
#     4  10  20  38  60  86 116 145 187 238 284 341
#     4  11  25  43  60  81 112 153 196 237 291 350
#     4  10  20  34  57  87 118 148 183 232 290 342
#     4   9  19  37  58  77 104 150 199 233 271 331
#
# _framework density 19.735689000000001
#
# number of rings (size 3 to 8) (size 9 to 14) (size 15 to 20)
#    0.000    2.333    1.111    2.333    0.000    5.778 
#    6.000    2.222    0.000    0.000    0.000    0.000 
#    0.000    0.000    0.000    0.000    0.000    0.000 
#
# Total GULP energy -892128.781522 kJ/mol
# GULP energy per Si atom -12390.677521 kJ/mol
# Density = 1.969077 g / cm^3
# Si number density = 19.735689 Si / 1000 Ang^3
#
#
#
# Elastic Constant Matrix: (Units=GPa)
#
#
# Indices 1 2 3 4 5 6 
#
# 1 63.9567 0.4605 36.4726 0.0000 0.0000 0.0000
# 2 0.4605 63.9566 36.4725 0.0000 0.0000 0.0000
# 3 36.4726 36.4725 114.9999 0.0000 0.0000 0.0000
# 4 0.0000 0.0000 0.0000 18.5622 0.0000 0.0000
# 5 0.0000 0.0000 0.0000 0.0000 18.5623 0.0000
# 6 0.0000 0.0000 0.0000 0.0000 0.0000 16.0021
#
#
#
# Elastic Compliance Matrix: (Units=1/GPa)
#
#
# Indices 1 2 3 4 5 6 
#
# 1 0.019986 0.004237 -0.007683 0.000000 0.000000 0.000000
# 2 0.004237 0.019986 -0.007683 0.000000 0.000000 0.000000
# 3 -0.007683 -0.007683 0.013569 0.000000 0.000000 0.000000
# 4 0.000000 0.000000 0.000000 0.053873 0.000000 0.000000
# 5 0.000000 0.000000 0.000000 0.000000 0.053873 0.000000
# 6 0.000000 0.000000 0.000000 0.000000 0.000000 0.062492
#
#
# Mechanical properties :
#
#
# Convention : Reuss Voigt Hill
#
# Bulk Modulus (GPa) = 31.96373 43.30272 37.63323
# Shear Modulus (GPa) = 19.49602 21.92583 20.71092
#
# Velocity S-wave (km/s) = 3.14643 3.33674 3.24298
# Velocity P-wave (km/s) = 5.42504 6.06911 5.75609
#
# Compressibility (1/GPa) = 0.03128546
#
# Stress axis : x y z
#
# Youngs Moduli (GPa) = 50.03452 50.03447 73.69877
#
# Poissons Ratio (x) = -0.21201 0.56619
# Poissons Ratio (y) = -0.21201 0.56619
# Poissons Ratio (z) = 0.38439 0.38439
#
# Static dielectric constant tensor:
#      x y z
#    x 3.509730 0.000000 0.000000 
#    y 0.000000 3.509730 0.000000 
#    z 0.000000 0.000000 3.791200 
# 
# 
# High freq. dielectric constant tensor:
#      x y z
#    x 1.751180 0.000000 0.000000 
#    y 0.000000 1.751180 0.000000 
#    z 0.000000 0.000000 1.778110 
# 
# From -- ./inp_files/5000.got.cif
#   From: 2010.03.12/outbox.cif.g09.slc.cpg/sg127_3_cif.got.tgz:5000.got - 2010.04.06 17:03:15.
