data_PCOD8314754
_publ_section_title
;
Structure prediction by ZEFSAII (Michael W. Deem and Ramdas Pophale) SiO2 
 PCOD8314754
Probable space group: P 4/M N C
;
_chemical_formula_sum "Si O2"
_cell_formula_units_Z 112
_cell_length_a 14.818390
_cell_length_b 14.818390
_cell_length_c 27.915784
_cell_angle_alpha 90.000000
_cell_angle_beta 90.000000
_cell_angle_gamma 90.000000
_cell_volume 6129.878558
_symmetry_space_group_name_H-M "P 4/M N C"
_symmetry_group_IT_number 128
_symmetry_cell_setting 'tetragonal'
loop_
_space_group_symop_operation_xyz
x,y,z
-y,x,z
-x,-y,z
y,-x,z
1/2+x,1/2-y,1/2-z
1/2-x,1/2+y,1/2-z
1/2+y,1/2+x,1/2-z
1/2-y,1/2-x,1/2-z
-x,-y,-z
y,-x,-z
x,y,-z
-y,x,-z
1/2-x,1/2+y,1/2+z
1/2+x,1/2-y,1/2+z
1/2-y,1/2-x,1/2+z
1/2+y,1/2+x,1/2+z
loop_
_atom_site_type_symbol
_atom_site_label
_atom_site_fract_x
_atom_site_fract_y
_atom_site_fract_z
Si Si1 0.917196 0.876888 0.447439
Si Si2 0.822466 0.826717 0.359590
Si Si3 0.937129 0.416617 0.694812
Si Si4 0.639002 0.448975 0.277149
Si Si5 0.759512 0.377124 0.639997
Si Si6 0.999701 0.229918 0.315630
Si Si7 0.362460 0.557134 0.443935
O O1 0.892741 0.840530 0.500000
O O2 0.869134 0.808042 0.410784
O O3 0.023602 0.877645 0.439984
O O4 0.732078 0.766481 0.354744
O O5 0.803352 0.934134 0.358254
O O6 0.897872 0.805293 0.318958
O O7 0.905506 0.405506 0.750000
O O8 0.855268 0.419159 0.656396
O O9 0.005793 0.336751 0.683060
O O10 0.000000 0.500000 0.685726
O O11 0.614103 0.553181 0.275750
O O12 0.686980 0.418816 0.324942
O O13 0.702316 0.440808 0.231044
O O14 0.723818 0.407116 0.587200
O O15 0.383657 0.451969 0.432182
O O16 0.337135 0.567435 0.500000
#
# Coordination Sequence:
#
# PCOD8314754 Si02
#       7
#    16  16  16  16  16  16  16
#     4   9  17  31  54  81 110 148 190 234 289 346
#     4  11  22  34  56  80 117 152 196 236 285 342
#     4  10  22  40  56  75 114 164 199 226 276 345
#     4  11  22  36  56  82 112 143 182 241 301 339
#     4  11  23  37  56  87 118 149 195 245 277 351
#     4  11  21  36  54  80 109 152 194 237 288 338
#     4   9  19  39  66  91 114 144 184 241 315 367
#
# _framework density 18.271160999999999
#
# number of rings (size 3 to 8) (size 9 to 14) (size 15 to 20)
#    0.000    1.714    4.286    1.714    0.000    4.286 
#    0.000    0.000    0.000    0.429    0.000    0.000 
#    0.000    0.000    0.000    0.000    0.000    0.000 
#
# Total GULP energy -1387566.543940 kJ/mol
# GULP energy per Si atom -12388.986999 kJ/mol
# Density = 1.822957 g / cm^3
# Si number density = 18.271161 Si / 1000 Ang^3
#
#
#
# Elastic Constant Matrix: (Units=GPa)
#
#
# Indices 1 2 3 4 5 6 
#
# 1 91.4158 42.1885 32.0002 0.0000 0.0000 0.0000
# 2 42.1885 91.4158 32.0002 0.0000 0.0000 0.0000
# 3 32.0002 32.0002 95.3464 0.0000 0.0000 0.0000
# 4 0.0000 0.0000 0.0000 30.3759 0.0000 0.0000
# 5 0.0000 0.0000 0.0000 0.0000 30.3759 0.0000
# 6 0.0000 0.0000 0.0000 0.0000 0.0000 31.6095
#
#
#
# Elastic Compliance Matrix: (Units=1/GPa)
#
#
# Indices 1 2 3 4 5 6 
#
# 1 0.014616 -0.005698 -0.002993 0.000000 0.000000 0.000000
# 2 -0.005698 0.014616 -0.002993 0.000000 0.000000 0.000000
# 3 -0.002993 -0.002993 0.012497 0.000000 0.000000 0.000000
# 4 0.000000 0.000000 0.000000 0.032921 0.000000 0.000000
# 5 0.000000 0.000000 0.000000 0.000000 0.032921 0.000000
# 6 0.000000 0.000000 0.000000 0.000000 0.000000 0.031636
#
#
# Mechanical properties :
#
#
# Convention : Reuss Voigt Hill
#
# Bulk Modulus (GPa) = 54.46190 54.50623 54.48406
# Shear Modulus (GPa) = 29.63904 29.93822 29.78863
#
# Velocity S-wave (km/s) = 4.03199 4.05229 4.04216
# Velocity P-wave (km/s) = 7.17971 7.19662 7.18817
#
# Compressibility (1/GPa) = 0.01836146
#
# Stress axis : x y z
#
# Youngs Moduli (GPa) = 68.41681 68.41681 80.01733
#
# Poissons Ratio (x) = 0.38981 0.23951
# Poissons Ratio (y) = 0.38981 0.23951
# Poissons Ratio (z) = 0.20479 0.20479
#
# Static dielectric constant tensor:
#      x y z
#    x 3.191420 0.000000 0.000000 
#    y 0.000000 3.191420 0.000000 
#    z 0.000000 0.000000 3.449590 
# 
# 
# High freq. dielectric constant tensor:
#      x y z
#    x 1.698330 0.000000 0.000000 
#    y 0.000000 1.698330 0.000000 
#    z 0.000000 0.000000 1.710950 
# 
# From -- ./inp_files/6875.got.cif
#   From: 2010.03.12/outbox.cif.g09.slc.cpg/sg128_4_cif.got.tgz:6875.got - 2010.04.06 17:11:05.
