data_PCOD8314861
_publ_section_title
;
Structure prediction by ZEFSAII (Michael W. Deem and Ramdas Pophale) SiO2 
 PCOD8314861
Probable space group: P 4/N M M
;
_chemical_formula_sum "Si O2"
_cell_formula_units_Z 112
_cell_length_a 20.292925
_cell_length_b 20.292925
_cell_length_c 17.606012
_cell_angle_alpha 90.000000
_cell_angle_beta 90.000000
_cell_angle_gamma 90.000000
_cell_volume 7250.205127
_symmetry_space_group_name_H-M "P 4/N M M"
_symmetry_group_IT_number 129
_symmetry_cell_setting 'tetragonal'
loop_
_space_group_symop_operation_xyz
x,y,z
1/2-y,x,z
1/2-x,1/2-y,z
y,1/2-x,z
1/2+x,-y,-z
-x,1/2+y,-z
1/2+y,1/2+x,-z
-y,-x,-z
-x,-y,-z
1/2+y,-x,-z
1/2+x,1/2+y,-z
-y,1/2+x,-z
1/2-x,y,z
x,1/2-y,z
1/2-y,1/2-x,z
y,x,z
loop_
_atom_site_type_symbol
_atom_site_label
_atom_site_fract_x
_atom_site_fract_y
_atom_site_fract_z
Si Si1 0.090775 0.983857 0.135399
Si Si2 0.176103 0.514249 0.717165
Si Si3 0.512099 0.879083 0.125237
Si Si4 0.537268 0.429380 0.302323
Si Si5 0.936064 0.826381 0.970078
Si Si6 0.991902 0.398535 0.464204
Si Si7 0.177639 0.071008 0.573312
O O1 0.106525 0.986583 0.225515
O O2 0.060668 0.912078 0.113101
O O3 0.155986 0.004956 0.089197
O O4 0.037093 0.037093 0.110197
O O5 0.250000 0.545770 0.708035
O O6 0.169562 0.487872 0.802969
O O7 0.116638 0.564599 0.699171
O O8 0.168119 0.454333 0.658804
O O9 0.562117 0.937884 0.144064
O O10 0.533909 0.837225 0.053233
O O11 0.501714 0.501714 0.308349
O O12 0.516772 0.384578 0.374199
O O13 0.916765 0.750000 0.959540
O O14 0.870180 0.870180 0.957581
O O15 0.923314 0.423314 0.500000
O O16 0.046720 0.453281 0.479348
O O17 0.013128 0.334107 0.511012
O O18 0.250000 0.098298 0.560517
O O19 0.131583 0.131583 0.556590
#
# Coordination Sequence:
#
# PCOD8314861 Si02
#       7
#    16  16  16  16  16  16  16
#     4   8  15  27  44  64  83 105 137 181 231 269
#     4  10  17  24  38  63  92 115 138 166 205 260
#     4   9  16  27  44  62  84 113 145 182 224 257
#     4   9  15  26  44  63  83 108 138 178 228 266
#     4  10  19  30  43  61  87 118 150 182 216 259
#     4   9  15  25  43  62  82 107 139 179 223 256
#     4  10  19  29  41  60  88 121 152 179 209 251
#
# _framework density 15.447839
#
# number of rings (size 3 to 8) (size 9 to 14) (size 15 to 20)
#    0.000    2.714    1.429    3.000    0.000    2.000 
#    0.000    0.714    0.000    0.000    0.000    2.000 
#    0.000   44.286    0.000    0.000    0.000    0.000 
#
# Total GULP energy -1387755.080597 kJ/mol
# GULP energy per Si atom -12390.670362 kJ/mol
# Density = 1.541268 g / cm^3
# Si number density = 15.447839 Si / 1000 Ang^3
#
#
#
# Elastic Constant Matrix: (Units=GPa)
#
#
# Indices 1 2 3 4 5 6 
#
# 1 64.0380 35.6613 41.4880 0.0000 0.0000 0.0000
# 2 35.6613 64.0380 41.4880 0.0000 0.0000 0.0000
# 3 41.4880 41.4880 97.4056 0.0000 0.0000 0.0000
# 4 0.0000 0.0000 0.0000 14.8801 0.0000 0.0000
# 5 0.0000 0.0000 0.0000 0.0000 14.8801 0.0000
# 6 0.0000 0.0000 0.0000 0.0000 0.0000 11.3963
#
#
#
# Elastic Compliance Matrix: (Units=1/GPa)
#
#
# Indices 1 2 3 4 5 6 
#
# 1 0.025389 -0.009851 -0.006618 0.000000 0.000000 0.000000
# 2 -0.009851 0.025389 -0.006618 0.000000 0.000000 0.000000
# 3 -0.006618 -0.006618 0.015904 0.000000 0.000000 0.000000
# 4 0.000000 0.000000 0.000000 0.067204 0.000000 0.000000
# 5 0.000000 0.000000 0.000000 0.000000 0.067204 0.000000
# 6 0.000000 0.000000 0.000000 0.000000 0.000000 0.087748
#
#
# Mechanical properties :
#
#
# Convention : Reuss Voigt Hill
#
# Bulk Modulus (GPa) = 48.76193 51.41735 50.08964
# Shear Modulus (GPa) = 14.62633 15.35424 14.99029
#
# Velocity S-wave (km/s) = 3.08038 3.15610 3.11847
# Velocity P-wave (km/s) = 6.65475 6.82921 6.74254
#
# Compressibility (1/GPa) = 0.02050780
#
# Stress axis : x y z
#
# Youngs Moduli (GPa) = 39.38687 39.38687 62.87666
#
# Poissons Ratio (x) = 0.38800 0.41613
# Poissons Ratio (y) = 0.38800 0.41613
# Poissons Ratio (z) = 0.26067 0.26067
#
# Static dielectric constant tensor:
#      x y z
#    x 2.760720 0.000000 0.000000 
#    y 0.000000 2.760720 0.000000 
#    z 0.000000 0.000000 3.183060 
# 
# 
# High freq. dielectric constant tensor:
#      x y z
#    x 1.557560 0.000000 0.000000 
#    y 0.000000 1.557560 0.000000 
#    z 0.000000 0.000000 1.612270 
# 
# From -- ./inp_files/5968.got.cif
#   From: 2010.03.12/outbox.cif.g09.slc.cpg/sg129_3_cif.got.tgz:5968.got - 2010.04.06 17:19:44.
