data_PCOD8314470
_publ_section_title
;
Structure prediction by ZEFSAII (Michael W. Deem and Ramdas Pophale) SiO2 
 PCOD8314470
Probable space group: P 4/M B M
;
_chemical_formula_sum "Si O2"
_cell_formula_units_Z 96
_cell_length_a 28.739920
_cell_length_b 28.739920
_cell_length_c 9.414086
_cell_angle_alpha 90.000000
_cell_angle_beta 90.000000
_cell_angle_gamma 90.000000
_cell_volume 7775.875012
_symmetry_space_group_name_H-M "P 4/M B M"
_symmetry_group_IT_number 127
_symmetry_cell_setting 'tetragonal'
loop_
_space_group_symop_operation_xyz
x,y,z
-y,x,z
-x,-y,z
y,-x,z
1/2+x,1/2-y,-z
1/2-x,1/2+y,-z
1/2+y,1/2+x,-z
1/2-y,1/2-x,-z
-x,-y,-z
y,-x,-z
x,y,-z
-y,x,-z
1/2-x,1/2+y,z
1/2+x,1/2-y,z
1/2-y,1/2-x,z
1/2+y,1/2+x,z
loop_
_atom_site_type_symbol
_atom_site_label
_atom_site_fract_x
_atom_site_fract_y
_atom_site_fract_z
Si Si1 0.877064 0.452493 0.833243
Si Si2 0.380414 0.197791 0.157827
Si Si3 0.377068 0.952497 0.666758
Si Si4 0.258278 0.320208 0.839799
Si Si5 0.241718 0.179797 0.339799
Si Si6 0.880419 0.697787 0.657826
O O1 0.920017 0.420017 0.787111
O O2 0.828272 0.427468 0.793008
O O3 0.881158 0.499997 0.749997
O O4 0.878864 0.462565 0.000000
O O5 0.339604 0.160397 0.151287
O O6 0.367326 0.238603 0.267833
O O7 0.386631 0.219329 0.000000
O O8 0.378868 0.962566 0.500000
O O9 0.420024 0.920024 0.712893
O O10 0.328278 0.927472 0.706996
O O11 0.218979 0.281022 0.841079
O O12 0.302472 0.302476 0.750000
O O13 0.238599 0.367330 0.767831
O O14 0.274225 0.331784 0.000000
O O15 0.225770 0.168221 0.500000
O O16 0.281017 0.218984 0.341079
O O17 0.886638 0.719325 0.500000
O O18 0.839607 0.660394 0.651281
#
# Coordination Sequence:
#
# PCOD8314470 Si02
#       6
#    16  16  16  16  16  16
#     4   9  18  30  41  52  65  82 105 136 175 214
#     4   8  14  25  37  47  62  82 102 126 157 192
#     4   9  18  30  41  52  65  82 105 136 175 214
#     4   9  15  21  31  48  67  85 103 121 144 178
#     4   9  15  21  31  48  67  85 103 121 144 178
#     4   8  14  25  37  47  62  82 102 126 157 192
#
# _framework density 12.345877
#
# number of rings (size 3 to 8) (size 9 to 14) (size 15 to 20)
#    0.000    3.333    0.000    3.000    0.000    6.333 
#    0.000    5.000    0.000    0.000    0.000    0.000 
#    0.000    0.000    0.000    0.000    0.000    0.000 
#
# Total GULP energy -1189804.929890 kJ/mol
# GULP energy per Si atom -12393.801353 kJ/mol
# Density = 1.231778 g / cm^3
# Si number density = 12.345877 Si / 1000 Ang^3
#
#
#
# Elastic Constant Matrix: (Units=GPa)
#
#
# Indices 1 2 3 4 5 6 
#
# 1 47.1128 47.9554 45.3775 0.0000 0.0000 0.0000
# 2 47.9554 47.1128 45.3775 0.0000 0.0000 0.0000
# 3 45.3775 45.3775 91.8474 0.0000 0.0000 0.0000
# 4 0.0000 0.0000 0.0000 19.7368 0.0000 0.0000
# 5 0.0000 0.0000 0.0000 0.0000 19.7368 0.0000
# 6 0.0000 0.0000 0.0000 0.0000 0.0000 14.6537
#
#
#
# Elastic Compliance Matrix: (Units=1/GPa)
#
#
# Indices 1 2 3 4 5 6 
#
# 1 -0.583442 0.603351 -0.009836 0.000000 0.000000 0.000000
# 2 0.603351 -0.583442 -0.009836 0.000000 0.000000 0.000000
# 3 -0.009836 -0.009836 0.020606 0.000000 0.000000 0.000000
# 4 0.000000 0.000000 0.000000 0.050667 0.000000 0.000000
# 5 0.000000 0.000000 0.000000 0.000000 0.050667 0.000000
# 6 0.000000 0.000000 0.000000 0.000000 0.000000 0.068242
#
#
# Mechanical properties :
#
#
# Convention : Reuss Voigt Hill
#
# Bulk Modulus (GPa) = 47.43843 51.49929 49.46886
# Shear Modulus (GPa) = -2.33969 13.98295 5.82163
#
# Velocity S-wave (km/s) = -1.37813 3.36906 2.17386
# Velocity P-wave (km/s) = 5.99797 7.54576 6.81594
#
# Compressibility (1/GPa) = 0.02107995
#
# Stress axis : x y z
#
# Youngs Moduli (GPa) = -1.71397 -1.71397 48.52862
#
# Poissons Ratio (x) = 1.03412 0.47732
# Poissons Ratio (y) = 1.03412 0.47732
# Poissons Ratio (z) = -0.01686 -0.01686
#
# Static dielectric constant tensor:
#      x y z
#    x 2.368640 0.000000 0.000000 
#    y 0.000000 2.368640 0.000000 
#    z 0.000000 0.000000 2.704840 
# 
# 
# High freq. dielectric constant tensor:
#      x y z
#    x 1.430710 0.000000 0.000000 
#    y 0.000000 1.430710 0.000000 
#    z 0.000000 0.000000 1.480750 
# 
# From -- ./inp_files/2193.got.cif
#   From: 2010.03.12/outbox.cif.g09.slc.cpg/sg127_2_cif.got.tgz:2193.got - 2010.04.06 17:03:15.
