data_PCOD8314281
_publ_section_title
;
Structure prediction by ZEFSAII (Michael W. Deem and Ramdas Pophale) SiO2 
 PCOD8314281
Probable space group: P 4/M B M
;
_chemical_formula_sum "Si O2"
_cell_formula_units_Z 104
_cell_length_a 26.130482
_cell_length_b 26.130482
_cell_length_c 7.662977
_cell_angle_alpha 90.000000
_cell_angle_beta 90.000000
_cell_angle_gamma 90.000000
_cell_volume 5232.296708
_symmetry_space_group_name_H-M "P 4/M B M"
_symmetry_group_IT_number 127
_symmetry_cell_setting 'tetragonal'
loop_
_space_group_symop_operation_xyz
x,y,z
-y,x,z
-x,-y,z
y,-x,z
1/2+x,1/2-y,-z
1/2-x,1/2+y,-z
1/2+y,1/2+x,-z
1/2-y,1/2-x,-z
-x,-y,-z
y,-x,-z
x,y,-z
-y,x,-z
1/2-x,1/2+y,z
1/2+x,1/2-y,z
1/2-y,1/2-x,z
1/2+y,1/2+x,z
loop_
_atom_site_type_symbol
_atom_site_label
_atom_site_fract_x
_atom_site_fract_y
_atom_site_fract_z
Si Si1 0.778756 0.504707 0.795959
Si Si2 0.633203 0.305039 0.707480
Si Si3 0.807500 0.612601 0.705000
Si Si4 0.085591 0.997216 0.500000
Si Si5 0.026427 0.163853 0.200790
Si Si6 0.326126 0.254569 0.298806
Si Si7 0.096192 0.674439 0.803547
O O1 0.814404 0.553237 0.753822
O O2 0.720356 0.510311 0.726146
O O3 0.808333 0.456325 0.708057
O O4 0.774071 0.495605 0.000000
O O5 0.627391 0.305991 0.500000
O O6 0.630591 0.247106 0.780021
O O7 0.588243 0.339038 0.791093
O O8 0.687337 0.327504 0.769017
O O9 0.808343 0.619761 0.500000
O O10 0.853122 0.646879 0.788437
O O11 0.120748 0.997685 0.326154
O O12 0.049008 0.947580 0.500000
O O13 0.008938 0.154198 0.000000
O O14 0.342686 0.251599 0.500000
O O15 0.269293 0.230708 0.274551
O O16 0.366944 0.223453 0.187445
O O17 0.126688 0.626688 0.710736
O O18 0.083569 0.657585 0.000000
#
# Coordination Sequence:
#
# PCOD8314281 Si02
#       7
#    16  16  16   8  16  16  16
#     4   9  19  34  53  79 107 140 182 225 273 327
#     4   9  16  30  51  77 111 145 174 215 271 333
#     4   9  17  29  49  76 104 139 178 217 271 329
#     4  11  26  46  64  84 110 144 190 235 284 340
#     4  10  21  39  61  86 113 142 184 235 281 330
#     4   9  17  28  44  71 106 140 174 212 262 327
#     4   9  18  33  50  70 102 141 181 224 269 322
#
# _framework density 19.876549000000001
#
# number of rings (size 3 to 8) (size 9 to 14) (size 15 to 20)
#    0.000    2.692    0.769    0.462    1.077    5.231 
#    0.000    2.308    0.000    3.231    0.000    3.231 
#    0.000    0.000    0.000    0.000    0.000    0.000 
#
# Total GULP energy -1288815.744820 kJ/mol
# GULP energy per Si atom -12392.459085 kJ/mol
# Density = 1.983131 g / cm^3
# Si number density = 19.876549 Si / 1000 Ang^3
#
#
#
# Elastic Constant Matrix: (Units=GPa)
#
#
# Indices 1 2 3 4 5 6 
#
# 1 104.8873 36.7905 16.3605 0.0000 0.0000 0.0000
# 2 36.7905 104.8873 16.3605 0.0000 0.0000 0.0000
# 3 16.3605 16.3605 48.9638 0.0000 0.0000 0.0000
# 4 0.0000 0.0000 0.0000 17.2393 0.0000 0.0000
# 5 0.0000 0.0000 0.0000 0.0000 17.2393 0.0000
# 6 0.0000 0.0000 0.0000 0.0000 0.0000 24.3125
#
#
#
# Elastic Compliance Matrix: (Units=1/GPa)
#
#
# Indices 1 2 3 4 5 6 
#
# 1 0.011167 -0.003518 -0.002556 0.000000 0.000000 0.000000
# 2 -0.003518 0.011167 -0.002556 0.000000 0.000000 0.000000
# 3 -0.002556 -0.002556 0.022131 0.000000 0.000000 0.000000
# 4 0.000000 0.000000 0.000000 0.058007 0.000000 0.000000
# 5 0.000000 0.000000 0.000000 0.000000 0.058007 0.000000
# 6 0.000000 0.000000 0.000000 0.000000 0.000000 0.041131
#
#
# Mechanical properties :
#
#
# Convention : Reuss Voigt Hill
#
# Bulk Modulus (GPa) = 36.75715 44.19569 40.47642
# Shear Modulus (GPa) = 21.93585 24.37334 23.15460
#
# Velocity S-wave (km/s) = 3.32566 3.50556 3.41680
# Velocity P-wave (km/s) = 5.76884 6.21841 5.99784
#
# Compressibility (1/GPa) = 0.02720559
#
# Stress axis : x y z
#
# Youngs Moduli (GPa) = 89.55170 89.55170 45.18533
#
# Poissons Ratio (x) = 0.31506 0.11548
# Poissons Ratio (y) = 0.31506 0.11548
# Poissons Ratio (z) = 0.22886 0.22886
#
# Static dielectric constant tensor:
#      x y z
#    x 3.676570 0.000000 0.000000 
#    y 0.000000 3.676570 0.000000 
#    z 0.000000 0.000000 3.356270 
# 
# 
# High freq. dielectric constant tensor:
#      x y z
#    x 1.762810 0.000000 0.000000 
#    y 0.000000 1.762810 0.000000 
#    z 0.000000 0.000000 1.760500 
# 
# From -- ./inp_files/2322.got.cif
#   From: 2010.03.12/outbox.cif.g09.slc.cpg/sg127_2_cif.got.tgz:2322.got - 2010.04.06 17:03:15.
