data_PCOD8314089
_publ_section_title
;
Structure prediction by ZEFSAII (Michael W. Deem and Ramdas Pophale) SiO2 
 PCOD8314089
Probable space group: P 4/M B M
;
_chemical_formula_sum "Si O2"
_cell_formula_units_Z 96
_cell_length_a 20.707665
_cell_length_b 20.707665
_cell_length_c 12.665590
_cell_angle_alpha 90.000000
_cell_angle_beta 90.000000
_cell_angle_gamma 90.000000
_cell_volume 5431.098588
_symmetry_space_group_name_H-M "P 4/M B M"
_symmetry_group_IT_number 127
_symmetry_cell_setting 'tetragonal'
loop_
_space_group_symop_operation_xyz
x,y,z
-y,x,z
-x,-y,z
y,-x,z
1/2+x,1/2-y,-z
1/2-x,1/2+y,-z
1/2+y,1/2+x,-z
1/2-y,1/2-x,-z
-x,-y,-z
y,-x,-z
x,y,-z
-y,x,-z
1/2-x,1/2+y,z
1/2+x,1/2-y,z
1/2-y,1/2-x,z
1/2+y,1/2+x,z
loop_
_atom_site_type_symbol
_atom_site_label
_atom_site_fract_x
_atom_site_fract_y
_atom_site_fract_z
Si Si1 0.563561 0.831726 0.123036
Si Si2 0.878068 0.802012 0.285495
Si Si3 0.463949 0.598613 0.378494
Si Si4 0.832344 0.227089 0.877636
Si Si5 0.329542 0.936797 0.500000
Si Si6 0.441766 0.835169 0.271677
Si Si7 0.272854 0.334461 0.500000
O O1 0.605359 0.894641 0.152873
O O2 0.603513 0.767422 0.151432
O O3 0.497331 0.832490 0.186163
O O4 0.546172 0.832618 0.000000
O O5 0.943202 0.843687 0.300581
O O6 0.838863 0.830179 0.187189
O O7 0.895879 0.727505 0.264713
O O8 0.832975 0.812726 0.390323
O O9 0.418324 0.537610 0.354453
O O10 0.455395 0.619908 0.500000
O O11 0.769612 0.269612 0.850656
O O12 0.833152 0.208239 0.000000
O O13 0.376875 0.876875 0.500000
O O14 0.339474 0.975177 0.610495
O O15 0.258804 0.905793 0.500000
O O16 0.397671 0.897671 0.249689
O O17 0.224964 0.275037 0.500000
#
# Coordination Sequence:
#
# PCOD8314089 Si02
#       7
#    16  16  16  16   8  16   8
#     4   9  20  39  58  76 104 142 181 223 270 319
#     4  11  19  31  56  82 105 140 175 221 268 316
#     4   9  19  35  52  77 113 146 177 213 259 318
#     4   9  19  36  54  73 103 141 176 217 273 325
#     4   7  14  30  46  67 107 142 159 199 263 318
#     4  10  20  33  53  82 110 138 177 223 266 317
#     4   9  16  28  45  77 112 135 164 205 266 315
#
# _framework density 17.675981
#
# number of rings (size 3 to 8) (size 9 to 14) (size 15 to 20)
#    0.000    2.667    0.833    4.000    2.333    1.333 
#    0.000    2.083    0.000    3.500    0.000    1.167 
#    0.000    0.000    0.000    0.000    0.000    0.000 
#
# Total GULP energy -1189829.139944 kJ/mol
# GULP energy per Si atom -12394.053541 kJ/mol
# Density = 1.763575 g / cm^3
# Si number density = 17.675981 Si / 1000 Ang^3
#
#
#
# Elastic Constant Matrix: (Units=GPa)
#
#
# Indices 1 2 3 4 5 6 
#
# 1 65.5733 16.3956 39.2312 0.0000 0.0000 0.0000
# 2 16.3956 65.5735 39.2313 0.0000 0.0000 0.0000
# 3 39.2312 39.2313 87.0016 0.0000 0.0000 0.0000
# 4 0.0000 0.0000 0.0000 30.5519 0.0000 0.0000
# 5 0.0000 0.0000 0.0000 0.0000 30.5527 0.0000
# 6 0.0000 0.0000 0.0000 0.0000 0.0000 21.2395
#
#
#
# Elastic Compliance Matrix: (Units=1/GPa)
#
#
# Indices 1 2 3 4 5 6 
#
# 1 0.020900 0.000565 -0.009679 0.000000 0.000000 0.000000
# 2 0.000565 0.020899 -0.009679 0.000000 0.000000 0.000000
# 3 -0.009679 -0.009679 0.020223 0.000000 0.000000 0.000000
# 4 0.000000 0.000000 0.000000 0.032731 0.000000 0.000000
# 5 0.000000 0.000000 0.000000 0.000000 0.032730 0.000000
# 6 0.000000 0.000000 0.000000 0.000000 0.000000 0.047082
#
#
# Mechanical properties :
#
#
# Convention : Reuss Voigt Hill
#
# Bulk Modulus (GPa) = 40.92242 45.31830 43.12036
# Shear Modulus (GPa) = 22.69665 24.68817 23.69241
#
# Velocity S-wave (km/s) = 3.58724 3.74131 3.66508
# Velocity P-wave (km/s) = 6.35290 6.66012 6.50832
#
# Compressibility (1/GPa) = 0.02443648
#
# Stress axis : x y z
#
# Youngs Moduli (GPa) = 47.84790 47.84805 49.44856
#
# Poissons Ratio (x) = -0.02704 0.47861
# Poissons Ratio (y) = -0.02704 0.47861
# Poissons Ratio (z) = 0.46312 0.46312
#
# Static dielectric constant tensor:
#      x y z
#    x 3.071350 0.000000 0.000000 
#    y 0.000000 3.071350 0.000000 
#    z 0.000000 0.000000 3.376060 
# 
# 
# High freq. dielectric constant tensor:
#      x y z
#    x 1.668840 0.000000 0.000000 
#    y 0.000000 1.668840 0.000000 
#    z 0.000000 0.000000 1.683380 
# 
# From -- ./inp_files/3571.got.cif
#   From: 2010.03.12/outbox.cif.g09.slc.cpg/sg127_2_cif.got.tgz:3571.got - 2010.04.06 17:03:15.
