data_PCOD8314485
_publ_section_title
;
Structure prediction by ZEFSAII (Michael W. Deem and Ramdas Pophale) SiO2 
 PCOD8314485
Probable space group: P 4/M N C
;
_chemical_formula_sum "Si O2"
_cell_formula_units_Z 112
_cell_length_a 18.631659
_cell_length_b 18.631659
_cell_length_c 18.710089
_cell_angle_alpha 90.000000
_cell_angle_beta 90.000000
_cell_angle_gamma 90.000000
_cell_volume 6494.996292
_symmetry_space_group_name_H-M "P 4/M N C"
_symmetry_group_IT_number 128
_symmetry_cell_setting 'tetragonal'
loop_
_space_group_symop_operation_xyz
x,y,z
-y,x,z
-x,-y,z
y,-x,z
1/2+x,1/2-y,1/2-z
1/2-x,1/2+y,1/2-z
1/2+y,1/2+x,1/2-z
1/2-y,1/2-x,1/2-z
-x,-y,-z
y,-x,-z
x,y,-z
-y,x,-z
1/2-x,1/2+y,1/2+z
1/2+x,1/2-y,1/2+z
1/2-y,1/2-x,1/2+z
1/2+y,1/2+x,1/2+z
loop_
_atom_site_type_symbol
_atom_site_label
_atom_site_fract_x
_atom_site_fract_y
_atom_site_fract_z
Si Si1 0.791209 0.316035 0.080378
Si Si2 0.279591 0.615148 0.331522
Si Si3 0.387849 0.531079 0.582752
Si Si4 0.911593 0.198635 0.673967
Si Si5 0.148315 0.256891 0.797676
Si Si6 0.703756 0.574290 0.830456
Si Si7 0.699637 0.166017 0.579458
O O1 0.861114 0.292134 0.125975
O O2 0.755572 0.386250 0.114972
O O3 0.733649 0.252470 0.080192
O O4 0.815553 0.334855 0.000000
O O5 0.317570 0.548321 0.370989
O O6 0.261641 0.593732 0.250389
O O7 0.335641 0.680406 0.332232
O O8 0.413131 0.451132 0.601564
O O9 0.367366 0.537927 0.500000
O O10 0.865631 0.125677 0.672402
O O11 0.993577 0.177368 0.657602
O O12 0.217222 0.282779 0.750000
O O13 0.080772 0.248954 0.744150
O O14 0.136556 0.314270 0.862838
O O15 0.756033 0.596077 0.895844
O O16 0.667832 0.152926 0.500000
#
# Coordination Sequence:
#
# PCOD8314485 Si02
#       7
#    16  16  16  16  16  16  16
#     4   9  17  31  48  66  84 117 158 206 252 287
#     4  10  17  27  48  64  88 119 163 196 243 273
#     4   9  19  32  42  60  95 135 167 190 219 274
#     4  10  20  30  45  67  98 128 166 198 232 276
#     4   8  15  28  43  62  87 114 150 197 241 270
#     4   9  18  30  42  65  97 133 161 197 230 277
#     4   8  14  27  48  66  84 114 158 202 247 282
#
# _framework density 17.244043999999999
#
# number of rings (size 3 to 8) (size 9 to 14) (size 15 to 20)
#    0.000    3.000    0.000    3.857    4.000    1.429 
#    0.000    0.000    0.000    0.000    0.000    4.000 
#    0.000   20.571    0.000   16.714    4.000    1.286 
#
# Total GULP energy -1387902.435490 kJ/mol
# GULP energy per Si atom -12391.986031 kJ/mol
# Density = 1.720480 g / cm^3
# Si number density = 17.244044 Si / 1000 Ang^3
#
#
#
# Elastic Constant Matrix: (Units=GPa)
#
#
# Indices 1 2 3 4 5 6 
#
# 1 33.1727 20.9920 17.5979 0.0000 0.0000 0.0000
# 2 20.9920 33.1726 17.5976 0.0000 0.0000 0.0000
# 3 17.5979 17.5976 105.6062 0.0000 0.0000 0.0000
# 4 0.0000 0.0000 0.0000 16.6317 0.0000 0.0000
# 5 0.0000 0.0000 0.0000 0.0000 16.6317 0.0000
# 6 0.0000 0.0000 0.0000 0.0000 0.0000 16.7719
#
#
#
# Elastic Compliance Matrix: (Units=1/GPa)
#
#
# Indices 1 2 3 4 5 6 
#
# 1 0.051401 -0.030697 -0.003450 0.000000 0.000000 0.000000
# 2 -0.030697 0.051401 -0.003450 0.000000 0.000000 0.000000
# 3 -0.003450 -0.003450 0.010619 0.000000 0.000000 0.000000
# 4 0.000000 0.000000 0.000000 0.060126 0.000000 0.000000
# 5 0.000000 0.000000 0.000000 0.000000 0.060126 0.000000
# 6 0.000000 0.000000 0.000000 0.000000 0.000000 0.059623
#
#
# Mechanical properties :
#
#
# Convention : Reuss Voigt Hill
#
# Bulk Modulus (GPa) = 26.15961 31.59183 28.87572
# Shear Modulus (GPa) = 13.11541 17.72469 15.42005
#
# Velocity S-wave (km/s) = 2.76085 3.20952 2.99360
# Velocity P-wave (km/s) = 5.03649 5.66524 5.36009
#
# Compressibility (1/GPa) = 0.03822686
#
# Stress axis : x y z
#
# Youngs Moduli (GPa) = 19.45503 19.45502 94.17144
#
# Poissons Ratio (x) = 0.59720 0.32491
# Poissons Ratio (y) = 0.59720 0.32488
# Poissons Ratio (z) = 0.06712 0.06712
#
# Static dielectric constant tensor:
#      x y z
#    x 2.895630 0.000000 0.000000 
#    y 0.000000 2.895630 0.000000 
#    z 0.000000 0.000000 3.590350 
# 
# 
# High freq. dielectric constant tensor:
#      x y z
#    x 1.624410 0.000000 0.000000 
#    y 0.000000 1.624410 0.000000 
#    z 0.000000 0.000000 1.683340 
# 
# From -- ./inp_files/5947.got.cif
#   From: 2010.03.12/outbox.cif.g09.slc.cpg/sg128_3_cif.got.tgz:5947.got - 2010.04.06 17:11:05.
