data_PCOD8314023
_publ_section_title
;
Structure prediction by ZEFSAII (Michael W. Deem and Ramdas Pophale) SiO2 
 PCOD8314023
Probable space group: P 4/M B M
;
_chemical_formula_sum "Si O2"
_cell_formula_units_Z 120
_cell_length_a 26.281782
_cell_length_b 26.281782
_cell_length_c 8.930996
_cell_angle_alpha 90.000000
_cell_angle_beta 90.000000
_cell_angle_gamma 90.000000
_cell_volume 6168.925310
_symmetry_space_group_name_H-M "P 4/M B M"
_symmetry_group_IT_number 127
_symmetry_cell_setting 'tetragonal'
loop_
_space_group_symop_operation_xyz
x,y,z
-y,x,z
-x,-y,z
y,-x,z
1/2+x,1/2-y,-z
1/2-x,1/2+y,-z
1/2+y,1/2+x,-z
1/2-y,1/2-x,-z
-x,-y,-z
y,-x,-z
x,y,-z
-y,x,-z
1/2-x,1/2+y,z
1/2+x,1/2-y,z
1/2-y,1/2-x,z
1/2+y,1/2+x,z
loop_
_atom_site_type_symbol
_atom_site_label
_atom_site_fract_x
_atom_site_fract_y
_atom_site_fract_z
Si Si1 0.650418 0.029667 0.823298
Si Si2 0.689331 0.661019 0.328205
Si Si3 0.903886 0.891579 0.176492
Si Si4 0.650400 0.768794 0.328997
Si Si5 0.150841 0.009149 0.178740
Si Si6 0.457746 0.957746 0.323545
Si Si7 0.739528 0.956237 0.176889
Si Si8 0.879451 0.702844 0.332542
O O1 0.596021 0.023756 0.743308
O O2 0.676062 0.083161 0.783609
O O3 0.689368 0.986126 0.765939
O O4 0.641045 0.027128 0.000000
O O5 0.678479 0.646122 0.500000
O O6 0.645435 0.641129 0.221663
O O7 0.689343 0.721831 0.308320
O O8 0.741464 0.635301 0.273384
O O9 0.956935 0.871755 0.246622
O O10 0.887968 0.947275 0.235607
O O11 0.909068 0.892528 0.000000
O O12 0.631466 0.771780 0.500000
O O13 0.680396 0.819605 0.282712
O O14 0.601856 0.763863 0.224479
O O15 0.208304 0.018431 0.240716
O O16 0.152578 0.008052 0.000000
O O17 0.450625 0.950625 0.500000
O O18 0.500000 0.000000 0.284846
O O19 0.741309 0.958803 0.000000
O O20 0.903650 0.704493 0.500000
O O21 0.827054 0.672947 0.338586
#
# Coordination Sequence:
#
# PCOD8314023 Si02
#       8
#    16  16  16  16  16   8  16  16
#     4  11  23  39  62  90 122 155 195 249 303 355
#     4  10  20  35  55  83 115 151 191 233 287 347
#     4  10  19  34  56  79 111 151 193 240 288 339
#     4  10  21  37  57  82 113 149 192 239 285 342
#     4   9  18  33  55  83 113 150 193 239 285 334
#     4  11  25  45  67  89 119 159 205 253 301 359
#     4  10  21  38  57  83 119 155 193 240 294 346
#     4  10  20  35  57  84 117 152 188 235 292 354
#
# _framework density 19.452335000000001
#
# number of rings (size 3 to 8) (size 9 to 14) (size 15 to 20)
#    0.000    1.933    2.000    1.800    0.000    5.867 
#    0.000    5.333    0.000    2.400    0.000    0.933 
#    0.000    0.000    0.000    0.000    0.000    0.000 
#
# Total GULP energy -1487859.123999 kJ/mol
# GULP energy per Si atom -12398.826033 kJ/mol
# Density = 1.940806 g / cm^3
# Si number density = 19.452335 Si / 1000 Ang^3
#
#
#
# Elastic Constant Matrix: (Units=GPa)
#
#
# Indices 1 2 3 4 5 6 
#
# 1 131.9353 55.1843 27.6690 0.0000 0.0000 0.0000
# 2 55.1843 131.9353 27.6690 0.0000 0.0000 0.0000
# 3 27.6690 27.6690 26.5938 0.0000 0.0000 0.0000
# 4 0.0000 0.0000 0.0000 20.4869 0.0000 0.0000
# 5 0.0000 0.0000 0.0000 0.0000 20.4869 0.0000
# 6 0.0000 0.0000 0.0000 0.0000 0.0000 38.8511
#
#
#
# Elastic Compliance Matrix: (Units=1/GPa)
#
#
# Indices 1 2 3 4 5 6 
#
# 1 0.010374 -0.002655 -0.008031 0.000000 0.000000 0.000000
# 2 -0.002655 0.010374 -0.008031 0.000000 0.000000 0.000000
# 3 -0.008031 -0.008031 0.054315 0.000000 0.000000 0.000000
# 4 0.000000 0.000000 0.000000 0.048812 0.000000 0.000000
# 5 0.000000 0.000000 0.000000 0.000000 0.048812 0.000000
# 6 0.000000 0.000000 0.000000 0.000000 0.000000 0.025739
#
#
# Mechanical properties :
#
#
# Convention : Reuss Voigt Hill
#
# Bulk Modulus (GPa) = 26.57596 56.83433 41.70515
# Shear Modulus (GPa) = 20.12845 27.96113 24.04479
#
# Velocity S-wave (km/s) = 3.22025 3.79544 3.51962
# Velocity P-wave (km/s) = 5.24581 6.96332 6.16467
#
# Compressibility (1/GPa) = 0.03762799
#
# Stress axis : x y z
#
# Youngs Moduli (GPa) = 96.39239 96.39239 18.41107
#
# Poissons Ratio (x) = 0.25591 0.14787
# Poissons Ratio (y) = 0.25591 0.14787
# Poissons Ratio (z) = 0.77417 0.77417
#
# Static dielectric constant tensor:
#      x y z
#    x 3.746770 0.000000 0.000000 
#    y 0.000000 3.746770 0.000000 
#    z 0.000000 0.000000 3.313130 
# 
# 
# High freq. dielectric constant tensor:
#      x y z
#    x 1.765950 0.000000 0.000000 
#    y 0.000000 1.765950 0.000000 
#    z 0.000000 0.000000 1.732720 
# 
# From -- ./inp_files/2361.got.cif
#   From: 2010.03.12/outbox.cif.g09.slc.cpg/sg127_2_cif.got.tgz:2361.got - 2010.04.06 17:03:15.
