data_PCOD8314671
_publ_section_title
;
Structure prediction by ZEFSAII (Michael W. Deem and Ramdas Pophale) SiO2 
 PCOD8314671
Probable space group: P 4/M N C
;
_chemical_formula_sum "Si O2"
_cell_formula_units_Z 60
_cell_length_a 13.639456
_cell_length_b 13.639456
_cell_length_c 14.195614
_cell_angle_alpha 90.000000
_cell_angle_beta 90.000000
_cell_angle_gamma 90.000000
_cell_volume 2640.877643
_symmetry_space_group_name_H-M "P 4/M N C"
_symmetry_group_IT_number 128
_symmetry_cell_setting 'tetragonal'
loop_
_space_group_symop_operation_xyz
x,y,z
-y,x,z
-x,-y,z
y,-x,z
1/2+x,1/2-y,1/2-z
1/2-x,1/2+y,1/2-z
1/2+y,1/2+x,1/2-z
1/2-y,1/2-x,1/2-z
-x,-y,-z
y,-x,-z
x,y,-z
-y,x,-z
1/2-x,1/2+y,1/2+z
1/2+x,1/2-y,1/2+z
1/2-y,1/2-x,1/2+z
1/2+y,1/2+x,1/2+z
loop_
_atom_site_type_symbol
_atom_site_label
_atom_site_fract_x
_atom_site_fract_y
_atom_site_fract_z
Si Si1 0.394179 0.373978 0.000000
Si Si2 0.651758 0.544159 0.655011
Si Si3 0.568361 0.136346 0.397930
Si Si4 0.226105 0.848433 0.677480
Si Si5 0.000000 0.500000 0.250000
O O1 0.511339 0.362707 0.000000
O O2 0.348604 0.319567 0.907058
O O3 0.565568 0.619777 0.630579
O O4 0.746440 0.565234 0.592635
O O5 0.676928 0.562190 0.764809
O O6 0.542235 0.091858 0.500000
O O7 0.677451 0.104725 0.369062
O O8 0.494916 0.094977 0.318217
O O9 0.258596 0.758596 0.750000
#
# Coordination Sequence:
#
# PCOD8314671 Si02
#       5
#     8  16  16  16   4
#     4  11  22  38  70 107 138 181 240 305 376 431
#     4  10  21  41  69  98 135 179 221 278 346 405
#     4  11  23  43  69  94 133 179 227 278 336 405
#     4  10  20  40  65  94 140 183 221 286 345 418
#     4  12  22  48  68  90 128 184 216 282 328 398
#
# _framework density 22.719719999999999
#
# number of rings (size 3 to 8) (size 9 to 14) (size 15 to 20)
#    0.000    1.467    5.333    2.000    0.000    3.200 
#    7.200    1.333    0.000    0.000    0.000    0.000 
#    0.000    0.000    0.000    0.000    0.000    0.000 
#
# Total GULP energy -743370.205661 kJ/mol
# GULP energy per Si atom -12389.503428 kJ/mol
# Density = 2.266801 g / cm^3
# Si number density = 22.719720 Si / 1000 Ang^3
#
#
#
# Elastic Constant Matrix: (Units=GPa)
#
#
# Indices 1 2 3 4 5 6 
#
# 1 77.4437 32.8162 26.5944 0.0000 0.0000 0.0000
# 2 32.8162 77.4437 26.5944 0.0000 0.0000 0.0000
# 3 26.5944 26.5944 157.1025 0.0000 0.0000 0.0000
# 4 0.0000 0.0000 0.0000 14.8484 0.0000 0.0000
# 5 0.0000 0.0000 0.0000 0.0000 14.8484 0.0000
# 6 0.0000 0.0000 0.0000 0.0000 0.0000 21.8931
#
#
#
# Elastic Compliance Matrix: (Units=1/GPa)
#
#
# Indices 1 2 3 4 5 6 
#
# 1 0.016142 -0.006266 -0.001672 0.000000 0.000000 0.000000
# 2 -0.006266 0.016142 -0.001672 0.000000 0.000000 0.000000
# 3 -0.001672 -0.001672 0.006931 0.000000 0.000000 0.000000
# 4 0.000000 0.000000 0.000000 0.067347 0.000000 0.000000
# 5 0.000000 0.000000 0.000000 0.000000 0.067347 0.000000
# 6 0.000000 0.000000 0.000000 0.000000 0.000000 0.045676
#
#
# Mechanical properties :
#
#
# Convention : Reuss Voigt Hill
#
# Bulk Modulus (GPa) = 50.01010 53.77775 51.89393
# Shear Modulus (GPa) = 20.36904 25.38364 22.87634
#
# Velocity S-wave (km/s) = 2.99747 3.34616 3.17660
# Velocity P-wave (km/s) = 5.83432 6.21695 6.02867
#
# Compressibility (1/GPa) = 0.01999596
#
# Stress axis : x y z
#
# Youngs Moduli (GPa) = 61.95078 61.95078 144.27359
#
# Poissons Ratio (x) = 0.38818 0.24120
# Poissons Ratio (y) = 0.38818 0.24120
# Poissons Ratio (z) = 0.10357 0.10357
#
# Static dielectric constant tensor:
#      x y z
#    x 3.967800 0.000000 0.000000 
#    y 0.000000 3.967800 0.000000 
#    z 0.000000 0.000000 4.355630 
# 
# 
# High freq. dielectric constant tensor:
#      x y z
#    x 1.876430 0.000000 0.000000 
#    y 0.000000 1.876430 0.000000 
#    z 0.000000 0.000000 1.914720 
# 
# From -- ./inp_files/3566.got.cif
#   From: 2010.03.12/outbox.cif.g09.slc.cpg/sg128_2_cif.got.tgz:3566.got - 2010.04.06 17:11:05.
