data_PCOD8314406
_publ_section_title
;
Structure prediction by ZEFSAII (Michael W. Deem and Ramdas Pophale) SiO2 
 PCOD8314406
Probable space group: P 4/M B M
;
_chemical_formula_sum "Si O2"
_cell_formula_units_Z 72
_cell_length_a 18.683789
_cell_length_b 18.683789
_cell_length_c 10.797017
_cell_angle_alpha 90.000000
_cell_angle_beta 90.000000
_cell_angle_gamma 90.000000
_cell_volume 3769.065574
_symmetry_space_group_name_H-M "P 4/M B M"
_symmetry_group_IT_number 127
_symmetry_cell_setting 'tetragonal'
loop_
_space_group_symop_operation_xyz
x,y,z
-y,x,z
-x,-y,z
y,-x,z
1/2+x,1/2-y,-z
1/2-x,1/2+y,-z
1/2+y,1/2+x,-z
1/2-y,1/2-x,-z
-x,-y,-z
y,-x,-z
x,y,-z
-y,x,-z
1/2-x,1/2+y,z
1/2+x,1/2-y,z
1/2-y,1/2-x,z
1/2+y,1/2+x,z
loop_
_atom_site_type_symbol
_atom_site_label
_atom_site_fract_x
_atom_site_fract_y
_atom_site_fract_z
Si Si1 0.108599 0.608599 0.146763
Si Si2 0.274845 0.225156 0.149453
Si Si3 0.690472 0.516060 0.140897
Si Si4 0.154008 0.456645 0.853715
Si Si5 0.351594 0.630193 0.246734
Si Si6 0.587440 0.583777 0.500000
O O1 0.166661 0.666661 0.185831
O O2 0.129274 0.532085 0.203750
O O3 0.105073 0.605073 0.000000
O O4 0.303074 0.299330 0.211379
O O5 0.265052 0.234949 0.000000
O O6 0.763608 0.556278 0.179155
O O7 0.685694 0.445247 0.222175
O O8 0.630385 0.575844 0.163809
O O9 0.690779 0.489693 0.000000
O O10 0.107403 0.392598 0.794545
O O11 0.142476 0.458554 0.000000
O O12 0.378670 0.629411 0.387380
O O13 0.502149 0.599883 0.500000
#
# Coordination Sequence:
#
# PCOD8314406 Si02
#       6
#     8   8  16  16  16   8
#     4   9  15  28  50  77 116 158 192 233 290 362
#     4  11  22  38  61  96 136 162 195 262 339 398
#     4  11  22  36  56  90 126 161 202 254 325 392
#     4   9  17  29  48  78 118 160 196 232 289 371
#     4  12  24  41  64  88 123 168 209 263 318 387
#     4  11  24  47  68  88 118 166 229 282 315 358
#
# _framework density 19.102878
#
# number of rings (size 3 to 8) (size 9 to 14) (size 15 to 20)
#    0.000    1.444    4.444    2.333    1.556    2.222 
#    0.000    1.111    0.000    0.000    0.000    0.000 
#    0.000    1.778    0.000    0.000    0.000    0.000 
#
# Total GULP energy -892327.658430 kJ/mol
# GULP energy per Si atom -12393.439700 kJ/mol
# Density = 1.905940 g / cm^3
# Si number density = 19.102878 Si / 1000 Ang^3
#
#
#
# Elastic Constant Matrix: (Units=GPa)
#
#
# Indices 1 2 3 4 5 6 
#
# 1 87.6235 28.9634 32.3330 0.0000 0.0000 0.0000
# 2 28.9634 87.6236 32.3332 0.0000 0.0000 0.0000
# 3 32.3330 32.3332 62.3411 0.0000 0.0000 0.0000
# 4 0.0000 0.0000 0.0000 22.9935 0.0000 0.0000
# 5 0.0000 0.0000 0.0000 0.0000 22.9935 0.0000
# 6 0.0000 0.0000 0.0000 0.0000 0.0000 38.5439
#
#
#
# Elastic Compliance Matrix: (Units=1/GPa)
#
#
# Indices 1 2 3 4 5 6 
#
# 1 0.014544 -0.002503 -0.006245 0.000000 0.000000 0.000000
# 2 -0.002503 0.014544 -0.006245 0.000000 0.000000 0.000000
# 3 -0.006245 -0.006245 0.022519 0.000000 0.000000 0.000000
# 4 0.000000 0.000000 0.000000 0.043491 0.000000 0.000000
# 5 0.000000 0.000000 0.000000 0.000000 0.043491 0.000000
# 6 0.000000 0.000000 0.000000 0.000000 0.000000 0.025944
#
#
# Mechanical properties :
#
#
# Convention : Reuss Voigt Hill
#
# Bulk Modulus (GPa) = 46.25202 47.20528 46.72865
# Shear Modulus (GPa) = 24.78602 26.50343 25.64473
#
# Velocity S-wave (km/s) = 3.60599 3.72883 3.66793
# Velocity P-wave (km/s) = 6.44998 6.58055 6.51559
#
# Compressibility (1/GPa) = 0.02162068
#
# Stress axis : x y z
#
# Youngs Moduli (GPa) = 68.75547 68.75550 44.40721
#
# Poissons Ratio (x) = 0.17210 0.27733
# Poissons Ratio (y) = 0.17210 0.27733
# Poissons Ratio (z) = 0.42939 0.42939
#
# Static dielectric constant tensor:
#      x y z
#    x 3.688800 0.000000 0.000000 
#    y 0.000000 3.688800 0.000000 
#    z 0.000000 0.000000 3.048190 
# 
# 
# High freq. dielectric constant tensor:
#      x y z
#    x 1.756410 0.000000 0.000000 
#    y 0.000000 1.756410 0.000000 
#    z 0.000000 0.000000 1.683810 
# 
# From -- ./inp_files/1620.got.cif
#   From: 2010.03.12/outbox.cif.g09.slc.cpg/sg127_1_cif.got.tgz:1620.got - 2010.04.06 17:03:15.
