data_PCOD8314996
_publ_section_title
;
Structure prediction by ZEFSAII (Michael W. Deem and Ramdas Pophale) SiO2 
 PCOD8314996
Probable space group: P 4/N M M
;
_chemical_formula_sum "Si O2"
_cell_formula_units_Z 96
_cell_length_a 18.172458
_cell_length_b 18.172458
_cell_length_c 17.932042
_cell_angle_alpha 90.000000
_cell_angle_beta 90.000000
_cell_angle_gamma 90.000000
_cell_volume 5921.845806
_symmetry_space_group_name_H-M "P 4/N M M"
_symmetry_group_IT_number 129
_symmetry_cell_setting 'tetragonal'
loop_
_space_group_symop_operation_xyz
x,y,z
1/2-y,x,z
1/2-x,1/2-y,z
y,1/2-x,z
1/2+x,-y,-z
-x,1/2+y,-z
1/2+y,1/2+x,-z
-y,-x,-z
-x,-y,-z
1/2+y,-x,-z
1/2+x,1/2+y,-z
-y,1/2+x,-z
1/2-x,y,z
x,1/2-y,z
1/2-y,1/2-x,z
y,x,z
loop_
_atom_site_type_symbol
_atom_site_label
_atom_site_fract_x
_atom_site_fract_y
_atom_site_fract_z
Si Si1 0.167385 0.049537 0.459022
Si Si2 0.526634 0.091180 0.333295
Si Si3 0.331132 0.538444 0.602649
Si Si4 0.168460 0.446278 0.743889
Si Si5 0.665839 0.166080 0.911825
Si Si6 0.561118 0.442849 0.175791
O O1 0.250000 0.077246 0.464526
O O2 0.118596 0.118596 0.479810
O O3 0.152700 0.021123 0.374988
O O4 0.150589 0.985419 0.518453
O O5 0.607810 0.095578 0.369263
O O6 0.529120 0.106172 0.244510
O O7 0.489759 0.010242 0.346971
O O8 0.250000 0.575998 0.606056
O O9 0.332030 0.467834 0.656934
O O10 0.250000 0.443912 0.777470
O O11 0.134509 0.365492 0.751905
O O12 0.122979 0.504319 0.791619
O O13 0.750000 0.150458 0.885824
O O14 0.643692 0.250000 0.886648
O O15 0.611906 0.101744 0.881384
O O16 0.660748 0.160748 0.000000
O O17 0.493720 0.493720 0.141551
#
# Coordination Sequence:
#
# PCOD8314996 Si02
#       6
#    16  16  16  16  16  16
#     4  10  19  29  42  59  79 106 140 178 217 253
#     4   9  17  29  44  61  82 110 142 173 207 248
#     4   9  16  26  41  60  81 106 139 177 214 250
#     4   9  16  25  38  58  85 116 147 177 209 246
#     4   9  18  32  49  69  93 119 142 165 202 254
#     4   9  17  29  46  67  88 111 141 177 212 245
#
# _framework density 16.211162000000002
#
# number of rings (size 3 to 8) (size 9 to 14) (size 15 to 20)
#    0.000    2.833    0.000    4.000    0.000    3.333 
#    0.000    0.000    0.000    3.500    0.000    2.333 
#    0.000    0.333    0.000    3.667    0.000    6.000 
#
# Total GULP energy -1189428.300601 kJ/mol
# GULP energy per Si atom -12389.878131 kJ/mol
# Density = 1.617426 g / cm^3
# Si number density = 16.211162 Si / 1000 Ang^3
#
#
#
# Elastic Constant Matrix: (Units=GPa)
#
#
# Indices 1 2 3 4 5 6 
#
# 1 59.2341 18.1622 21.9302 0.0000 0.0000 0.0000
# 2 18.1622 59.2341 21.9302 0.0000 0.0000 0.0000
# 3 21.9302 21.9302 49.9118 0.0000 0.0000 0.0000
# 4 0.0000 0.0000 0.0000 21.4605 0.0000 0.0000
# 5 0.0000 0.0000 0.0000 0.0000 21.4605 0.0000
# 6 0.0000 0.0000 0.0000 0.0000 0.0000 22.0714
#
#
#
# Elastic Compliance Matrix: (Units=1/GPa)
#
#
# Indices 1 2 3 4 5 6 
#
# 1 0.020776 -0.003572 -0.007559 0.000000 0.000000 0.000000
# 2 -0.003572 0.020776 -0.007559 0.000000 0.000000 0.000000
# 3 -0.007559 -0.007559 0.026678 0.000000 0.000000 0.000000
# 4 0.000000 0.000000 0.000000 0.046597 0.000000 0.000000
# 5 0.000000 0.000000 0.000000 0.000000 0.046597 0.000000
# 6 0.000000 0.000000 0.000000 0.000000 0.000000 0.045307
#
#
# Mechanical properties :
#
#
# Convention : Reuss Voigt Hill
#
# Bulk Modulus (GPa) = 32.41511 32.49171 32.45341
# Shear Modulus (GPa) = 19.65444 20.08896 19.87170
#
# Velocity S-wave (km/s) = 3.48573 3.52405 3.50495
# Velocity P-wave (km/s) = 6.01992 6.05350 6.03673
#
# Compressibility (1/GPa) = 0.03084981
#
# Stress axis : x y z
#
# Youngs Moduli (GPa) = 48.13259 48.13259 37.48400
#
# Poissons Ratio (x) = 0.17191 0.28335
# Poissons Ratio (y) = 0.17191 0.28335
# Poissons Ratio (z) = 0.36384 0.36384
#
# Static dielectric constant tensor:
#      x y z
#    x 3.017010 0.000000 0.000000 
#    y 0.000000 3.017010 0.000000 
#    z 0.000000 0.000000 2.949710 
# 
# 
# High freq. dielectric constant tensor:
#      x y z
#    x 1.610520 0.000000 0.000000 
#    y 0.000000 1.610520 0.000000 
#    z 0.000000 0.000000 1.605390 
# 
# From -- ./inp_files/5669.got.cif
#   From: 2010.03.12/outbox.cif.g09.slc.cpg/sg129_3_cif.got.tgz:5669.got - 2010.04.06 17:19:44.
