data_PCOD8314300
_publ_section_title
;
Structure prediction by ZEFSAII (Michael W. Deem and Ramdas Pophale) SiO2 
 PCOD8314300
Probable space group: P 4/M B M
;
_chemical_formula_sum "Si O2"
_cell_formula_units_Z 96
_cell_length_a 23.665756
_cell_length_b 23.665756
_cell_length_c 9.362404
_cell_angle_alpha 90.000000
_cell_angle_beta 90.000000
_cell_angle_gamma 90.000000
_cell_volume 5243.582949
_symmetry_space_group_name_H-M "P 4/M B M"
_symmetry_group_IT_number 127
_symmetry_cell_setting 'tetragonal'
loop_
_space_group_symop_operation_xyz
x,y,z
-y,x,z
-x,-y,z
y,-x,z
1/2+x,1/2-y,-z
1/2-x,1/2+y,-z
1/2+y,1/2+x,-z
1/2-y,1/2-x,-z
-x,-y,-z
y,-x,-z
x,y,-z
-y,x,-z
1/2-x,1/2+y,z
1/2+x,1/2-y,z
1/2-y,1/2-x,z
1/2+y,1/2+x,z
loop_
_atom_site_type_symbol
_atom_site_label
_atom_site_fract_x
_atom_site_fract_y
_atom_site_fract_z
Si Si1 0.131468 0.724304 0.663023
Si Si2 0.776182 0.184572 0.334923
Si Si3 0.203473 0.927159 0.832757
Si Si4 0.796318 0.479813 0.832789
Si Si5 0.500224 0.907922 0.335512
Si Si6 0.583386 0.531923 0.169837
O O1 0.109747 0.726489 0.500000
O O2 0.168358 0.668358 0.686146
O O3 0.167864 0.779559 0.699733
O O4 0.079629 0.722992 0.770008
O O5 0.775245 0.167136 0.500000
O O6 0.721111 0.221111 0.296407
O O7 0.774509 0.129188 0.240272
O O8 0.142535 0.945238 0.768284
O O9 0.247136 0.976392 0.797655
O O10 0.198980 0.915176 0.000000
O O11 0.853694 0.502467 0.763915
O O12 0.806454 0.472526 0.000000
O O13 0.502654 0.888686 0.500000
O O14 0.444376 0.944376 0.306018
O O15 0.555643 0.944358 0.298096
O O16 0.532316 0.572201 0.223319
O O17 0.585783 0.531261 0.000000
#
# Coordination Sequence:
#
# PCOD8314300 Si02
#       6
#    16  16  16  16  16  16
#     4   9  19  37  59  80 104 139 183 228 270 316
#     4   9  20  39  59  78 103 140 184 224 267 320
#     4  10  22  35  52  81 113 144 178 221 267 318
#     4  11  23  34  49  82 118 144 175 218 271 327
#     4   9  19  37  59  79 101 138 187 230 270 321
#     4   8  15  30  53  77 101 136 179 218 259 310
#
# _framework density 18.308091000000001
#
# number of rings (size 3 to 8) (size 9 to 14) (size 15 to 20)
#    0.000    2.667    0.000    3.000    2.333    6.000 
#    0.000    5.833    0.000    0.000    0.000    1.167 
#    0.000    0.000    0.000    0.000    0.000    0.000 
#
# Total GULP energy -1190444.452266 kJ/mol
# GULP energy per Si atom -12400.463044 kJ/mol
# Density = 1.826642 g / cm^3
# Si number density = 18.308091 Si / 1000 Ang^3
#
#
#
# Elastic Constant Matrix: (Units=GPa)
#
#
# Indices 1 2 3 4 5 6 
#
# 1 185.2959 -0.8414 60.2725 0.0000 0.0000 0.0000
# 2 -0.8414 185.2959 60.2725 0.0000 0.0000 0.0000
# 3 60.2725 60.2725 64.0341 0.0000 0.0000 0.0000
# 4 0.0000 0.0000 0.0000 26.0305 0.0000 0.0000
# 5 0.0000 0.0000 0.0000 0.0000 26.0305 0.0000
# 6 0.0000 0.0000 0.0000 0.0000 0.0000 19.0204
#
#
#
# Elastic Compliance Matrix: (Units=1/GPa)
#
#
# Indices 1 2 3 4 5 6 
#
# 1 0.009729 0.004357 -0.013259 0.000000 0.000000 0.000000
# 2 0.004357 0.009729 -0.013259 0.000000 0.000000 0.000000
# 3 -0.013259 -0.013259 0.040577 0.000000 0.000000 0.000000
# 4 0.000000 0.000000 0.000000 0.038416 0.000000 0.000000
# 5 0.000000 0.000000 0.000000 0.000000 0.038416 0.000000
# 6 0.000000 0.000000 0.000000 0.000000 0.000000 0.052575
#
#
# Mechanical properties :
#
#
# Convention : Reuss Voigt Hill
#
# Bulk Modulus (GPa) = 63.63792 74.89255 69.26523
# Shear Modulus (GPa) = 20.92024 35.21110 28.06567
#
# Velocity S-wave (km/s) = 3.38402 4.39025 3.91956
# Velocity P-wave (km/s) = 7.07840 8.16668 7.64194
#
# Compressibility (1/GPa) = 0.01571390
#
# Stress axis : x y z
#
# Youngs Moduli (GPa) = 102.78165 102.78165 24.64470
#
# Poissons Ratio (x) = -0.44782 0.32676
# Poissons Ratio (y) = -0.44782 0.32676
# Poissons Ratio (z) = 1.36277 1.36277
#
# Static dielectric constant tensor:
#      x y z
#    x 3.450810 0.000000 0.000000 
#    y 0.000000 3.450810 0.000000 
#    z 0.000000 0.000000 3.130220 
# 
# 
# High freq. dielectric constant tensor:
#      x y z
#    x 1.717480 0.000000 0.000000 
#    y 0.000000 1.717480 0.000000 
#    z 0.000000 0.000000 1.687850 
# 
# From -- ./inp_files/2007.got.cif
#   From: 2010.03.12/outbox.cif.g09.slc.cpg/sg127_2_cif.got.tgz:2007.got - 2010.04.06 17:03:15.
