data_PCOD8314749
_publ_section_title
;
Structure prediction by ZEFSAII (Michael W. Deem and Ramdas Pophale) SiO2 
 PCOD8314749
Probable space group: P 4/M N C
;
_chemical_formula_sum "Si O2"
_cell_formula_units_Z 80
_cell_length_a 15.238158
_cell_length_b 15.238158
_cell_length_c 18.228264
_cell_angle_alpha 90.000000
_cell_angle_beta 90.000000
_cell_angle_gamma 90.000000
_cell_volume 4232.629500
_symmetry_space_group_name_H-M "P 4/M N C"
_symmetry_group_IT_number 128
_symmetry_cell_setting 'tetragonal'
loop_
_space_group_symop_operation_xyz
x,y,z
-y,x,z
-x,-y,z
y,-x,z
1/2+x,1/2-y,1/2-z
1/2-x,1/2+y,1/2-z
1/2+y,1/2+x,1/2-z
1/2-y,1/2-x,1/2-z
-x,-y,-z
y,-x,-z
x,y,-z
-y,x,-z
1/2-x,1/2+y,1/2+z
1/2+x,1/2-y,1/2+z
1/2-y,1/2-x,1/2+z
1/2+y,1/2+x,1/2+z
loop_
_atom_site_type_symbol
_atom_site_label
_atom_site_fract_x
_atom_site_fract_y
_atom_site_fract_z
Si Si1 0.540863 0.091631 0.912570
Si Si2 0.726483 0.500571 0.127487
Si Si3 0.862651 0.047060 0.224682
Si Si4 0.205899 0.351957 0.330291
Si Si5 0.187351 0.821608 0.580169
O O1 0.484475 0.168371 0.871853
O O2 0.639549 0.095547 0.882454
O O3 0.500000 0.000000 0.887652
O O4 0.539003 0.102595 0.000000
O O5 0.686480 0.550822 0.197662
O O6 0.711326 0.575866 0.066452
O O7 0.678968 0.409675 0.114250
O O8 0.792086 0.086619 0.168107
O O9 0.946295 0.110074 0.214106
O O10 0.164921 0.335080 0.250000
O O11 0.227320 0.256996 0.366942
O O12 0.187231 0.775723 0.500000
#
# Coordination Sequence:
#
# PCOD8314749 Si02
#       5
#    16  16  16  16  16
#     4  10  22  39  59  85 121 159 198 249 305 363
#     4  11  19  37  57  85 124 155 198 249 303 370
#     4  11  22  39  59  85 120 156 197 249 306 358
#     4  11  20  38  57  84 119 159 204 247 294 357
#     4  11  22  35  59  90 125 164 202 248 307 373
#
# _framework density 18.900780999999998
#
# number of rings (size 3 to 8) (size 9 to 14) (size 15 to 20)
#    0.000    1.200    6.000    3.600    0.000    2.400 
#    0.000    3.000    0.000    3.600    0.000    5.600 
#    0.000    0.000    0.000    0.000    0.000    0.000 
#
# Total GULP energy -991172.524189 kJ/mol
# GULP energy per Si atom -12389.656552 kJ/mol
# Density = 1.885776 g / cm^3
# Si number density = 18.900781 Si / 1000 Ang^3
#
#
#
# Elastic Constant Matrix: (Units=GPa)
#
#
# Indices 1 2 3 4 5 6 
#
# 1 125.3183 53.5992 30.7858 0.0000 0.0000 0.0000
# 2 53.5992 125.3182 30.7856 0.0000 0.0000 0.0000
# 3 30.7858 30.7856 52.3065 0.0000 0.0000 0.0000
# 4 0.0000 0.0000 0.0000 24.9389 0.0000 0.0000
# 5 0.0000 0.0000 0.0000 0.0000 24.9388 0.0000
# 6 0.0000 0.0000 0.0000 0.0000 0.0000 34.0987
#
#
#
# Elastic Compliance Matrix: (Units=1/GPa)
#
#
# Indices 1 2 3 4 5 6 
#
# 1 0.010476 -0.003467 -0.004125 0.000000 0.000000 0.000000
# 2 -0.003467 0.010476 -0.004125 0.000000 0.000000 0.000000
# 3 -0.004125 -0.004125 0.023974 0.000000 0.000000 0.000000
# 4 0.000000 0.000000 0.000000 0.040098 0.000000 0.000000
# 5 0.000000 0.000000 0.000000 0.000000 0.040098 0.000000
# 6 0.000000 0.000000 0.000000 0.000000 0.000000 0.029327
#
#
# Mechanical properties :
#
#
# Convention : Reuss Voigt Hill
#
# Bulk Modulus (GPa) = 46.53116 59.25378 52.89247
# Shear Modulus (GPa) = 27.02012 29.31344 28.16678
#
# Velocity S-wave (km/s) = 3.78508 3.94243 3.86456
# Velocity P-wave (km/s) = 6.61623 7.22092 6.92518
#
# Compressibility (1/GPa) = 0.02149098
#
# Stress axis : x y z
#
# Youngs Moduli (GPa) = 95.45601 95.45613 41.71212
#
# Poissons Ratio (x) = 0.33097 0.17207
# Poissons Ratio (y) = 0.33097 0.17206
# Poissons Ratio (z) = 0.39377 0.39376
#
# Static dielectric constant tensor:
#      x y z
#    x 3.557850 0.000000 0.000000 
#    y 0.000000 3.557840 0.000000 
#    z 0.000000 0.000000 3.353200 
# 
# 
# High freq. dielectric constant tensor:
#      x y z
#    x 1.734830 0.000000 0.000000 
#    y 0.000000 1.734830 0.000000 
#    z 0.000000 0.000000 1.722210 
# 
# From -- ./inp_files/5540.got.cif
#   From: 2010.03.12/outbox.cif.g09.slc.cpg/sg128_3_cif.got.tgz:5540.got - 2010.04.06 17:11:05.
