data_PCOD8314403
_publ_section_title
;
Structure prediction by ZEFSAII (Michael W. Deem and Ramdas Pophale) SiO2 
 PCOD8314403
Probable space group: P 4/M B M
;
_chemical_formula_sum "Si O2"
_cell_formula_units_Z 72
_cell_length_a 14.772702
_cell_length_b 14.772702
_cell_length_c 19.187372
_cell_angle_alpha 90.000000
_cell_angle_beta 90.000000
_cell_angle_gamma 90.000000
_cell_volume 4187.312465
_symmetry_space_group_name_H-M "P 4/M B M"
_symmetry_group_IT_number 127
_symmetry_cell_setting 'tetragonal'
loop_
_space_group_symop_operation_xyz
x,y,z
-y,x,z
-x,-y,z
y,-x,z
1/2+x,1/2-y,-z
1/2-x,1/2+y,-z
1/2+y,1/2+x,-z
1/2-y,1/2-x,-z
-x,-y,-z
y,-x,-z
x,y,-z
-y,x,-z
1/2-x,1/2+y,z
1/2+x,1/2-y,z
1/2-y,1/2-x,z
1/2+y,1/2+x,z
loop_
_atom_site_type_symbol
_atom_site_label
_atom_site_fract_x
_atom_site_fract_y
_atom_site_fract_z
Si Si1 0.049405 0.860792 0.000000
Si Si2 0.575028 0.924973 0.920452
Si Si3 0.036473 0.762313 0.860295
Si Si4 0.921709 0.873422 0.500000
Si Si5 0.799518 0.150523 0.788175
Si Si6 0.579349 0.371786 0.349564
O O1 0.071447 0.805366 0.931538
O O2 0.945170 0.885287 0.000000
O O3 0.655947 0.966023 0.874556
O O4 0.500000 0.000000 0.926194
O O5 0.603281 0.896720 0.000000
O O6 0.111141 0.790352 0.803380
O O7 0.937701 0.796446 0.837404
O O8 0.893745 0.828308 0.574205
O O9 0.028655 0.878406 0.500000
O O10 0.709831 0.209831 0.800009
O O11 0.804344 0.119340 0.707962
O O12 0.621973 0.471327 0.340973
#
# Coordination Sequence:
#
# PCOD8314403 Si02
#       6
#     8   8  16   8  16  16
#     4  11  22  35  56  83 107 132 172 225 289 336
#     4  11  24  42  60  76 106 148 188 224 278 343
#     4  12  23  39  57  81 109 139 180 234 278 324
#     4   7  12  24  47  80 108 134 169 211 262 324
#     4  12  24  36  55  81 111 142 184 230 276 328
#     4   9  16  30  54  80 108 139 173 216 271 326
#
# _framework density 17.194799
#
# number of rings (size 3 to 8) (size 9 to 14) (size 15 to 20)
#    0.000    1.444    6.667    2.000    0.000    0.444 
#    0.000    1.667    0.000    0.000    0.000    0.000 
#    0.000    0.000    0.000   12.222    0.000    0.000 
#
# Total GULP energy -892273.095172 kJ/mol
# GULP energy per Si atom -12392.681877 kJ/mol
# Density = 1.715566 g / cm^3
# Si number density = 17.194799 Si / 1000 Ang^3
#
#
#
# Elastic Constant Matrix: (Units=GPa)
#
#
# Indices 1 2 3 4 5 6 
#
# 1 58.3209 9.8520 14.4418 0.0000 0.0000 0.0000
# 2 9.8520 58.3211 14.4418 0.0000 0.0000 0.0000
# 3 14.4418 14.4418 103.9421 0.0000 0.0000 0.0000
# 4 0.0000 0.0000 0.0000 20.4385 0.0000 0.0000
# 5 0.0000 0.0000 0.0000 0.0000 20.4386 0.0000
# 6 0.0000 0.0000 0.0000 0.0000 0.0000 27.2970
#
#
#
# Elastic Compliance Matrix: (Units=1/GPa)
#
#
# Indices 1 2 3 4 5 6 
#
# 1 0.018109 -0.002523 -0.002166 0.000000 0.000000 0.000000
# 2 -0.002523 0.018109 -0.002166 0.000000 0.000000 0.000000
# 3 -0.002166 -0.002166 0.010223 0.000000 0.000000 0.000000
# 4 0.000000 0.000000 0.000000 0.048927 0.000000 0.000000
# 5 0.000000 0.000000 0.000000 0.000000 0.048927 0.000000
# 6 0.000000 0.000000 0.000000 0.000000 0.000000 0.036634
#
#
# Mechanical properties :
#
#
# Convention : Reuss Voigt Hill
#
# Bulk Modulus (GPa) = 30.55070 33.11725 31.83397
# Shear Modulus (GPa) = 24.32533 25.75808 25.04170
#
# Velocity S-wave (km/s) = 3.76532 3.87462 3.82036
# Velocity P-wave (km/s) = 6.05883 6.27047 6.16556
#
# Compressibility (1/GPa) = 0.03273248
#
# Stress axis : x y z
#
# Youngs Moduli (GPa) = 55.22141 55.22156 97.82336
#
# Poissons Ratio (x) = 0.13931 0.21184
# Poissons Ratio (y) = 0.13931 0.21184
# Poissons Ratio (z) = 0.11958 0.11958
#
# Static dielectric constant tensor:
#      x y z
#    x 2.960760 0.000000 0.000000 
#    y 0.000000 2.960760 0.000000 
#    z 0.000000 0.000000 3.568660 
# 
# 
# High freq. dielectric constant tensor:
#      x y z
#    x 1.641730 0.000000 0.000000 
#    y 0.000000 1.641730 0.000000 
#    z 0.000000 0.000000 1.680100 
# 
# From -- ./inp_files/4974.got.cif
#   From: 2010.03.12/outbox.cif.g09.slc.cpg/sg127_3_cif.got.tgz:4974.got - 2010.04.06 17:03:15.
