data_PCOD8314364
_publ_section_title
;
Structure prediction by ZEFSAII (Michael W. Deem and Ramdas Pophale) SiO2 
 PCOD8314364
Probable space group: P 4/M B M
;
_chemical_formula_sum "Si O2"
_cell_formula_units_Z 56
_cell_length_a 17.229995
_cell_length_b 17.229995
_cell_length_c 9.957559
_cell_angle_alpha 90.000000
_cell_angle_beta 90.000000
_cell_angle_gamma 90.000000
_cell_volume 2956.127702
_symmetry_space_group_name_H-M "P 4/M B M"
_symmetry_group_IT_number 127
_symmetry_cell_setting 'tetragonal'
loop_
_space_group_symop_operation_xyz
x,y,z
-y,x,z
-x,-y,z
y,-x,z
1/2+x,1/2-y,-z
1/2-x,1/2+y,-z
1/2+y,1/2+x,-z
1/2-y,1/2-x,-z
-x,-y,-z
y,-x,-z
x,y,-z
-y,x,-z
1/2-x,1/2+y,z
1/2+x,1/2-y,z
1/2-y,1/2-x,z
1/2+y,1/2+x,z
loop_
_atom_site_type_symbol
_atom_site_label
_atom_site_fract_x
_atom_site_fract_y
_atom_site_fract_z
Si Si1 0.973030 0.124016 0.000000
Si Si2 0.212818 0.903361 0.351952
Si Si3 0.690078 0.190078 0.848062
Si Si4 0.180161 0.680161 0.847370
Si Si5 0.570976 0.700828 0.267349
O O1 0.963685 0.177467 0.126094
O O2 0.058909 0.091799 0.000000
O O3 0.239915 0.874470 0.500000
O O4 0.274940 0.881602 0.236599
O O5 0.129611 0.863837 0.323442
O O6 0.206622 0.996623 0.363560
O O7 0.754827 0.254827 0.862842
O O8 0.664358 0.164358 0.000000
O O9 0.110707 0.715278 0.757369
O O10 0.155098 0.655098 0.000000
#
# Coordination Sequence:
#
# PCOD8314364 Si02
#       5
#     8  16   8   8  16
#     4  11  20  31  50  84 118 152 187 240 284 331
#     4  11  23  38  55  82 118 152 183 226 281 341
#     4   9  21  37  59  82 105 146 191 233 271 331
#     4   9  18  31  53  82 109 138 187 239 279 315
#     4  11  21  34  56  82 114 149 192 230 282 338
#
# _framework density 18.943701000000001
#
# number of rings (size 3 to 8) (size 9 to 14) (size 15 to 20)
#    0.000    1.571    4.286    1.286    4.000    0.571 
#    0.000    3.571    0.000    0.857    0.000    4.000 
#    0.000    0.000    0.000    0.000    0.000    0.000 
#
# Total GULP energy -694104.068639 kJ/mol
# GULP energy per Si atom -12394.715511 kJ/mol
# Density = 1.890058 g / cm^3
# Si number density = 18.943701 Si / 1000 Ang^3
#
#
#
# Elastic Constant Matrix: (Units=GPa)
#
#
# Indices 1 2 3 4 5 6 
#
# 1 70.9886 46.7902 20.5022 0.0000 0.0000 0.0000
# 2 46.7902 70.9886 20.5022 0.0000 0.0000 0.0000
# 3 20.5022 20.5022 116.4343 0.0000 0.0000 0.0000
# 4 0.0000 0.0000 0.0000 19.5035 0.0000 0.0000
# 5 0.0000 0.0000 0.0000 0.0000 19.5035 0.0000
# 6 0.0000 0.0000 0.0000 0.0000 0.0000 32.0347
#
#
#
# Elastic Compliance Matrix: (Units=1/GPa)
#
#
# Indices 1 2 3 4 5 6 
#
# 1 0.025185 -0.016140 -0.001593 0.000000 0.000000 0.000000
# 2 -0.016140 0.025185 -0.001593 0.000000 0.000000 0.000000
# 3 -0.001593 -0.001593 0.009149 0.000000 0.000000 0.000000
# 4 0.000000 0.000000 0.000000 0.051273 0.000000 0.000000
# 5 0.000000 0.000000 0.000000 0.000000 0.051273 0.000000
# 6 0.000000 0.000000 0.000000 0.000000 0.000000 0.031216
#
#
# Mechanical properties :
#
#
# Convention : Reuss Voigt Hill
#
# Bulk Modulus (GPa) = 47.91867 48.22227 48.07047
# Shear Modulus (GPa) = 20.93029 25.58279 23.25654
#
# Velocity S-wave (km/s) = 3.32756 3.67885 3.50761
# Velocity P-wave (km/s) = 6.33354 6.59971 6.46799
#
# Compressibility (1/GPa) = 0.02086869
#
# Stress axis : x y z
#
# Youngs Moduli (GPa) = 39.70618 39.70618 109.29647
#
# Poissons Ratio (x) = 0.64086 0.17407
# Poissons Ratio (y) = 0.64086 0.17407
# Poissons Ratio (z) = 0.06324 0.06324
#
# Static dielectric constant tensor:
#      x y z
#    x 3.437710 0.000000 0.000000 
#    y 0.000000 3.437710 0.000000 
#    z 0.000000 0.000000 3.645890 
# 
# 
# High freq. dielectric constant tensor:
#      x y z
#    x 1.712430 0.000000 0.000000 
#    y 0.000000 1.712430 0.000000 
#    z 0.000000 0.000000 1.753920 
# 
# From -- ./inp_files/1117.got.cif
#   From: 2010.03.12/outbox.cif.g09.slc.cpg/sg127_1_cif.got.tgz:1117.got - 2010.04.06 17:03:15.
