data_PCOD8314967
_publ_section_title
;
Structure prediction by ZEFSAII (Michael W. Deem and Ramdas Pophale) SiO2 
 PCOD8314967
Probable space group: P 4/N M M
;
_chemical_formula_sum "Si O2"
_cell_formula_units_Z 112
_cell_length_a 17.679116
_cell_length_b 17.679116
_cell_length_c 21.073117
_cell_angle_alpha 90.000000
_cell_angle_beta 90.000000
_cell_angle_gamma 90.000000
_cell_volume 6586.426795
_symmetry_space_group_name_H-M "P 4/N M M"
_symmetry_group_IT_number 129
_symmetry_cell_setting 'tetragonal'
loop_
_space_group_symop_operation_xyz
x,y,z
1/2-y,x,z
1/2-x,1/2-y,z
y,1/2-x,z
1/2+x,-y,-z
-x,1/2+y,-z
1/2+y,1/2+x,-z
-y,-x,-z
-x,-y,-z
1/2+y,-x,-z
1/2+x,1/2+y,-z
-y,1/2+x,-z
1/2-x,y,z
x,1/2-y,z
1/2-y,1/2-x,z
y,x,z
loop_
_atom_site_type_symbol
_atom_site_label
_atom_site_fract_x
_atom_site_fract_y
_atom_site_fract_z
Si Si1 0.336306 0.836355 0.925163
Si Si2 0.045074 0.164977 0.241196
Si Si3 0.163947 0.457583 0.501466
Si Si4 0.108646 0.515667 0.628568
Si Si5 0.438590 0.561549 0.839158
Si Si6 0.335750 0.456407 0.755778
Si Si7 0.466909 0.665122 0.629309
O O1 0.250000 0.855857 0.904465
O O2 0.355212 0.750000 0.904387
O O3 0.395941 0.895179 0.895602
O O4 0.344471 0.844471 0.000000
O O5 0.050868 0.250000 0.214998
O O6 0.124491 0.124491 0.227302
O O7 0.977302 0.123289 0.205547
O O8 0.030485 0.163805 0.316465
O O9 0.250000 0.433163 0.496117
O O10 0.118915 0.381086 0.513020
O O11 0.150029 0.512609 0.560891
O O12 0.137878 0.497871 0.437125
O O13 0.162026 0.479591 0.681950
O O14 0.097425 0.604034 0.645535
O O15 0.027719 0.472282 0.627916
O O16 0.501417 0.501417 0.865294
O O17 0.376541 0.519545 0.797351
O O18 0.250000 0.448278 0.778680
O O19 0.375688 0.375688 0.765743
O O20 0.431990 0.750000 0.624047
#
# Coordination Sequence:
#
# PCOD8314967 Si02
#       7
#    16  16  16  16  16  16  16
#     4   9  18  33  53  77 105 134 163 200 244 286
#     4  10  19  31  48  70  98 130 164 204 246 289
#     4  10  20  31  47  69  90 120 157 197 248 297
#     4  10  18  32  50  67  91 121 160 203 241 290
#     4  10  19  32  51  74 102 134 167 202 237 280
#     4  10  20  33  51  73  98 128 161 201 247 291
#     4  10  19  31  48  69  93 119 156 202 247 293
#
# _framework density 17.004667999999999
#
# number of rings (size 3 to 8) (size 9 to 14) (size 15 to 20)
#    0.000    2.143    1.429    3.429    0.000    1.857 
#    0.000    0.000    0.000    7.714    0.000    4.000 
#    0.000    0.000    0.000   26.571    0.000    0.000 
#
# Total GULP energy -1388679.146102 kJ/mol
# GULP energy per Si atom -12398.920947 kJ/mol
# Density = 1.696596 g / cm^3
# Si number density = 17.004668 Si / 1000 Ang^3
#
#
#
# Elastic Constant Matrix: (Units=GPa)
#
#
# Indices 1 2 3 4 5 6 
#
# 1 108.9677 51.8182 33.9982 0.0000 0.0000 0.0000
# 2 51.8182 108.9677 33.9982 0.0000 0.0000 0.0000
# 3 33.9982 33.9982 64.4046 0.0000 0.0000 0.0000
# 4 0.0000 0.0000 0.0000 24.8057 0.0000 0.0000
# 5 0.0000 0.0000 0.0000 0.0000 24.8057 0.0000
# 6 0.0000 0.0000 0.0000 0.0000 0.0000 21.1641
#
#
#
# Elastic Compliance Matrix: (Units=1/GPa)
#
#
# Indices 1 2 3 4 5 6 
#
# 1 0.012752 -0.004746 -0.004227 0.000000 0.000000 0.000000
# 2 -0.004746 0.012752 -0.004227 0.000000 0.000000 0.000000
# 3 -0.004227 -0.004227 0.019989 0.000000 0.000000 0.000000
# 4 0.000000 0.000000 0.000000 0.040313 0.000000 0.000000
# 5 0.000000 0.000000 0.000000 0.000000 0.040313 0.000000
# 6 0.000000 0.000000 0.000000 0.000000 0.000000 0.047250
#
#
# Mechanical properties :
#
#
# Convention : Reuss Voigt Hill
#
# Bulk Modulus (GPa) = 52.36639 57.99657 55.18148
# Shear Modulus (GPa) = 24.25604 24.99011 24.62308
#
# Velocity S-wave (km/s) = 3.78091 3.83770 3.80941
# Velocity P-wave (km/s) = 7.06559 7.33604 7.20209
#
# Compressibility (1/GPa) = 0.01909622
#
# Stress axis : x y z
#
# Youngs Moduli (GPa) = 78.41628 78.41628 50.02683
#
# Poissons Ratio (x) = 0.37213 0.21145
# Poissons Ratio (y) = 0.37213 0.21145
# Poissons Ratio (z) = 0.33144 0.33144
#
# Static dielectric constant tensor:
#      x y z
#    x 3.149630 0.000000 0.000000 
#    y 0.000000 3.149630 0.000000 
#    z 0.000000 0.000000 3.076950 
# 
# 
# High freq. dielectric constant tensor:
#      x y z
#    x 1.651200 0.000000 0.000000 
#    y 0.000000 1.651200 0.000000 
#    z 0.000000 0.000000 1.646060 
# 
# From -- ./inp_files/6684.got.cif
#   From: 2010.03.12/outbox.cif.g09.slc.cpg/sg129_4_cif.got.tgz:6684.got - 2010.04.06 17:19:44.
