data_PCOD8314025
_publ_section_title
;
Structure prediction by ZEFSAII (Michael W. Deem and Ramdas Pophale) SiO2 
 PCOD8314025
Probable space group: P 4/M B M
;
_chemical_formula_sum "Si O2"
_cell_formula_units_Z 96
_cell_length_a 15.160234
_cell_length_b 15.160234
_cell_length_c 22.474248
_cell_angle_alpha 90.000000
_cell_angle_beta 90.000000
_cell_angle_gamma 90.000000
_cell_volume 5165.316984
_symmetry_space_group_name_H-M "P 4/M B M"
_symmetry_group_IT_number 127
_symmetry_cell_setting 'tetragonal'
loop_
_space_group_symop_operation_xyz
x,y,z
-y,x,z
-x,-y,z
y,-x,z
1/2+x,1/2-y,-z
1/2-x,1/2+y,-z
1/2+y,1/2+x,-z
1/2-y,1/2-x,-z
-x,-y,-z
y,-x,-z
x,y,-z
-y,x,-z
1/2-x,1/2+y,z
1/2+x,1/2-y,z
1/2-y,1/2-x,z
1/2+y,1/2+x,z
loop_
_atom_site_type_symbol
_atom_site_label
_atom_site_fract_x
_atom_site_fract_y
_atom_site_fract_z
Si Si1 0.826883 0.180622 0.430108
Si Si2 0.074235 0.574235 0.066775
Si Si3 0.249422 0.489334 0.616096
Si Si4 0.454883 0.637087 0.932371
Si Si5 0.953418 0.692018 0.862682
Si Si6 0.566483 0.066483 0.432051
Si Si7 0.354755 0.999445 0.731871
O O1 0.821328 0.158597 0.500000
O O2 0.752465 0.252465 0.412404
O O3 0.818298 0.091067 0.391176
O O4 0.922533 0.217386 0.414725
O O5 0.160418 0.538354 0.099962
O O6 0.000000 0.500000 0.068760
O O7 0.100499 0.600499 0.000000
O O8 0.165662 0.455881 0.580922
O O9 0.224105 0.508269 0.684541
O O10 0.390643 0.555397 0.921004
O O11 0.427208 0.711298 0.885122
O O12 0.443823 0.671836 0.000000
O O13 0.870563 0.629438 0.874591
O O14 0.979113 0.692878 0.793757
O O15 0.550110 0.050110 0.500000
O O16 0.500000 0.000000 0.396407
O O17 0.410173 0.089828 0.736875
O O18 0.419196 0.919196 0.713073
#
# Coordination Sequence:
#
# PCOD8314025 Si02
#       7
#    16   8  16  16  16   8  16
#     4  11  23  40  62  91 125 156 197 250 306 366
#     4   9  16  28  50  81 116 148 176 222 297 357
#     4  12  23  39  61  87 119 164 198 244 308 362
#     4   9  19  38  60  81 113 160 203 241 292 349
#     4  10  19  34  56  86 117 152 188 243 301 345
#     4  11  20  34  60  91 112 141 201 256 301 350
#     4  10  19  36  60  84 117 154 201 248 298 359
#
# _framework density 18.585498999999999
#
# number of rings (size 3 to 8) (size 9 to 14) (size 15 to 20)
#    0.000    1.667    2.500    4.000    0.000    2.667 
#    4.500    0.833    0.000    0.000    0.000    0.000 
#    0.000    0.000    0.000    0.000    0.000    0.000 
#
# Total GULP energy -1190448.252917 kJ/mol
# GULP energy per Si atom -12400.502635 kJ/mol
# Density = 1.854320 g / cm^3
# Si number density = 18.585499 Si / 1000 Ang^3
#
#
#
# Elastic Constant Matrix: (Units=GPa)
#
#
# Indices 1 2 3 4 5 6 
#
# 1 340.5862 -217.0587 39.6438 0.0000 0.0000 0.0000
# 2 -217.0587 340.5862 39.6438 0.0000 0.0000 0.0000
# 3 39.6438 39.6438 94.0464 0.0000 0.0000 0.0000
# 4 0.0000 0.0000 0.0000 31.3511 0.0000 0.0000
# 5 0.0000 0.0000 0.0000 0.0000 31.3511 0.0000
# 6 0.0000 0.0000 0.0000 0.0000 0.0000 24.4494
#
#
#
# Elastic Compliance Matrix: (Units=1/GPa)
#
#
# Indices 1 2 3 4 5 6 
#
# 1 0.006446 0.004652 -0.004678 0.000000 0.000000 0.000000
# 2 0.004652 0.006446 -0.004678 0.000000 0.000000 0.000000
# 3 -0.004678 -0.004678 0.014577 0.000000 0.000000 0.000000
# 4 0.000000 0.000000 0.000000 0.031897 0.000000 0.000000
# 5 0.000000 0.000000 0.000000 0.000000 0.031897 0.000000
# 6 0.000000 0.000000 0.000000 0.000000 0.000000 0.040901
#
#
# Mechanical properties :
#
#
# Convention : Reuss Voigt Hill
#
# Bulk Modulus (GPa) = 55.36966 55.51963 55.44465
# Shear Modulus (GPa) = 33.87735 78.29631 56.08683
#
# Velocity S-wave (km/s) = 4.27404 6.49762 5.49939
# Velocity P-wave (km/s) = 7.36295 9.28599 8.37982
#
# Compressibility (1/GPa) = 0.01806043
#
# Stress axis : x y z
#
# Youngs Moduli (GPa) = 155.14224 155.14224 68.60065
#
# Poissons Ratio (x) = -0.72179 0.32093
# Poissons Ratio (y) = -0.72179 0.32093
# Poissons Ratio (z) = 0.72579 0.72579
#
# Static dielectric constant tensor:
#      x y z
#    x 3.335480 0.000000 0.000000 
#    y 0.000000 3.335480 0.000000 
#    z 0.000000 0.000000 3.453150 
# 
# 
# High freq. dielectric constant tensor:
#      x y z
#    x 1.712230 0.000000 0.000000 
#    y 0.000000 1.712230 0.000000 
#    z 0.000000 0.000000 1.725660 
# 
# From -- ./inp_files/6127.got.cif
#   From: 2010.03.12/outbox.cif.g09.slc.cpg/sg127_4_cif.got.tgz:6127.got - 2010.04.06 17:03:15.
