data_PCOD8314277
_publ_section_title
;
Structure prediction by ZEFSAII (Michael W. Deem and Ramdas Pophale) SiO2 
 PCOD8314277
Probable space group: P 4/M B M
;
_chemical_formula_sum "Si O2"
_cell_formula_units_Z 112
_cell_length_a 13.756821
_cell_length_b 13.756821
_cell_length_c 27.050753
_cell_angle_alpha 90.000000
_cell_angle_beta 90.000000
_cell_angle_gamma 90.000000
_cell_volume 5119.358360
_symmetry_space_group_name_H-M "P 4/M B M"
_symmetry_group_IT_number 127
_symmetry_cell_setting 'tetragonal'
loop_
_space_group_symop_operation_xyz
x,y,z
-y,x,z
-x,-y,z
y,-x,z
1/2+x,1/2-y,-z
1/2-x,1/2+y,-z
1/2+y,1/2+x,-z
1/2-y,1/2-x,-z
-x,-y,-z
y,-x,-z
x,y,-z
-y,x,-z
1/2-x,1/2+y,z
1/2+x,1/2-y,z
1/2-y,1/2-x,z
1/2+y,1/2+x,z
loop_
_atom_site_type_symbol
_atom_site_label
_atom_site_fract_x
_atom_site_fract_y
_atom_site_fract_z
Si Si1 0.005270 0.653309 0.895073
Si Si2 0.242865 0.100703 0.443335
Si Si3 0.096416 0.239925 0.606856
Si Si4 0.870858 0.792163 0.055023
Si Si5 0.339110 0.480463 0.292740
Si Si6 0.214384 0.561056 0.789626
Si Si7 0.623194 0.401443 0.850173
O O1 0.930796 0.569205 0.907023
O O2 0.973959 0.745211 0.928289
O O3 0.113801 0.613801 0.909213
O O4 0.999547 0.677229 0.836840
O O5 0.210986 0.114517 0.500000
O O6 0.342849 0.157152 0.432210
O O7 0.156946 0.145054 0.409545
O O8 0.261256 0.987070 0.433265
O O9 0.166767 0.333234 0.612139
O O10 0.037229 0.218129 0.656705
O O11 0.787000 0.713001 0.056899
O O12 0.844418 0.877723 0.093649
O O13 0.882494 0.836001 0.000000
O O14 0.415891 0.393258 0.287874
O O15 0.255525 0.485201 0.250808
O O16 0.127425 0.627425 0.767064
O O17 0.298233 0.636579 0.810385
O O18 0.633838 0.516364 0.839604
#
# Coordination Sequence:
#
# PCOD8314277 Si02
#       7
#    16  16  16  16  16  16  16
#     4   9  19  38  62  87 116 149 192 250 313 379
#     4  10  22  41  67 102 142 185 239 294 343 404
#     4  11  23  42  69 100 139 189 238 287 347 408
#     4  10  21  38  60  86 116 152 196 249 312 379
#     4  11  24  43  65  92 131 172 215 271 334 401
#     4  11  23  40  64  92 120 156 207 262 321 391
#     4  11  22  39  60  83 116 156 201 249 304 376
#
# _framework density 21.877742999999999
#
# number of rings (size 3 to 8) (size 9 to 14) (size 15 to 20)
#    0.000    1.571    2.857    1.714    0.000    5.143 
#    0.000    3.571    0.000    0.000    0.000    0.000 
#    0.000    0.000    0.000    0.000    0.000    0.000 
#
# Total GULP energy -1387738.661253 kJ/mol
# GULP energy per Si atom -12390.523761 kJ/mol
# Density = 2.182795 g / cm^3
# Si number density = 21.877743 Si / 1000 Ang^3
#
#
#
# Elastic Constant Matrix: (Units=GPa)
#
#
# Indices 1 2 3 4 5 6 
#
# 1 74.6718 17.6975 17.5828 0.0000 0.0000 0.0000
# 2 17.6975 74.6718 17.5828 0.0000 0.0000 0.0000
# 3 17.5828 17.5828 100.8662 0.0000 0.0000 0.0000
# 4 0.0000 0.0000 0.0000 36.1383 0.0000 0.0000
# 5 0.0000 0.0000 0.0000 0.0000 36.1383 0.0000
# 6 0.0000 0.0000 0.0000 0.0000 0.0000 22.5907
#
#
#
# Elastic Compliance Matrix: (Units=1/GPa)
#
#
# Indices 1 2 3 4 5 6 
#
# 1 0.014574 -0.002978 -0.002021 0.000000 0.000000 0.000000
# 2 -0.002978 0.014574 -0.002021 0.000000 0.000000 0.000000
# 3 -0.002021 -0.002021 0.010619 0.000000 0.000000 0.000000
# 4 0.000000 0.000000 0.000000 0.027671 0.000000 0.000000
# 5 0.000000 0.000000 0.000000 0.000000 0.027671 0.000000
# 6 0.000000 0.000000 0.000000 0.000000 0.000000 0.044266
#
#
# Mechanical properties :
#
#
# Convention : Reuss Voigt Hill
#
# Bulk Modulus (GPa) = 38.87301 39.54846 39.21074
# Shear Modulus (GPa) = 30.86581 32.12992 31.49786
#
# Velocity S-wave (km/s) = 3.76018 3.83640 3.79848
# Velocity P-wave (km/s) = 6.05465 6.14331 6.09914
#
# Compressibility (1/GPa) = 0.02572479
#
# Stress axis : x y z
#
# Youngs Moduli (GPa) = 68.61672 68.61672 94.17232
#
# Poissons Ratio (x) = 0.20434 0.19035
# Poissons Ratio (y) = 0.20434 0.19035
# Poissons Ratio (z) = 0.13870 0.13870
#
# Static dielectric constant tensor:
#      x y z
#    x 4.034920 0.000000 0.000000 
#    y 0.000000 4.034920 0.000000 
#    z 0.000000 0.000000 3.952330 
# 
# 
# High freq. dielectric constant tensor:
#      x y z
#    x 1.859830 0.000000 0.000000 
#    y 0.000000 1.859830 0.000000 
#    z 0.000000 0.000000 1.854000 
# 
# From -- ./inp_files/6386.got.cif
#   From: 2010.03.12/outbox.cif.g09.slc.cpg/sg127_4_cif.got.tgz:6386.got - 2010.04.06 17:03:15.
