data_PCOD8314886
_publ_section_title
;
Structure prediction by ZEFSAII (Michael W. Deem and Ramdas Pophale) SiO2 
 PCOD8314886
Probable space group: P 4/N M M
;
_chemical_formula_sum "Si O2"
_cell_formula_units_Z 80
_cell_length_a 19.568778
_cell_length_b 19.568778
_cell_length_c 13.988352
_cell_angle_alpha 90.000000
_cell_angle_beta 90.000000
_cell_angle_gamma 90.000000
_cell_volume 5356.658563
_symmetry_space_group_name_H-M "P 4/N M M"
_symmetry_group_IT_number 129
_symmetry_cell_setting 'tetragonal'
loop_
_space_group_symop_operation_xyz
x,y,z
1/2-y,x,z
1/2-x,1/2-y,z
y,1/2-x,z
1/2+x,-y,-z
-x,1/2+y,-z
1/2+y,1/2+x,-z
-y,-x,-z
-x,-y,-z
1/2+y,-x,-z
1/2+x,1/2+y,-z
-y,1/2+x,-z
1/2-x,y,z
x,1/2-y,z
1/2-y,1/2-x,z
y,x,z
loop_
_atom_site_type_symbol
_atom_site_label
_atom_site_fract_x
_atom_site_fract_y
_atom_site_fract_z
Si Si1 0.441735 0.172631 0.081092
Si Si2 0.917030 0.468482 0.794925
Si Si3 0.374135 0.485853 0.886481
Si Si4 0.561530 0.672564 0.313472
Si Si5 0.541247 0.073283 0.601148
O O1 0.418699 0.250000 0.102279
O O2 0.373746 0.126255 0.078185
O O3 0.493208 0.149323 0.165208
O O4 0.484760 0.171126 0.982241
O O5 0.904347 0.442154 0.686331
O O6 0.981669 0.518332 0.793740
O O7 0.938599 0.403923 0.862057
O O8 0.437757 0.437757 0.908927
O O9 0.330124 0.457632 0.798215
O O10 0.574770 0.750000 0.345007
O O11 0.630546 0.630546 0.333374
O O12 0.499436 0.642852 0.376467
O O13 0.580610 0.080610 0.500000
O O14 0.488453 0.011548 0.596018
#
# Coordination Sequence:
#
# PCOD8314886 Si02
#       5
#    16  16  16  16  16
#     4  10  18  26  37  55  82 114 142 165 191 229
#     4   8  14  25  41  58  74  95 128 172 213 238
#     4   8  14  25  40  56  76 103 135 172 207 231
#     4   9  16  25  38  59  86 112 135 158 190 239
#     4   8  14  26  43  59  75  97 128 171 216 242
#
# _framework density 14.934683
#
# number of rings (size 3 to 8) (size 9 to 14) (size 15 to 20)
#    0.000    3.400    0.000    3.600    0.000    2.800 
#    0.000    1.000    0.000    3.600    0.000    0.000 
#    0.000   59.600    0.000    0.000    0.000    0.200 
#
# Total GULP energy -991258.120401 kJ/mol
# GULP energy per Si atom -12390.726505 kJ/mol
# Density = 1.490069 g / cm^3
# Si number density = 14.934683 Si / 1000 Ang^3
#
#
#
# Elastic Constant Matrix: (Units=GPa)
#
#
# Indices 1 2 3 4 5 6 
#
# 1 56.4376 48.7964 43.3447 0.0000 0.0000 0.0000
# 2 48.7964 56.4376 43.3447 0.0000 0.0000 0.0000
# 3 43.3447 43.3447 105.8396 0.0000 0.0000 0.0000
# 4 0.0000 0.0000 0.0000 11.6161 0.0000 0.0000
# 5 0.0000 0.0000 0.0000 0.0000 11.6161 0.0000
# 6 0.0000 0.0000 0.0000 0.0000 0.0000 9.9858
#
#
#
# Elastic Compliance Matrix: (Units=1/GPa)
#
#
# Indices 1 2 3 4 5 6 
#
# 1 0.072605 -0.058264 -0.005873 0.000000 0.000000 0.000000
# 2 -0.058264 0.072605 -0.005873 0.000000 0.000000 0.000000
# 3 -0.005873 -0.005873 0.014259 0.000000 0.000000 0.000000
# 4 0.000000 0.000000 0.000000 0.086088 0.000000 0.000000
# 5 0.000000 0.000000 0.000000 0.000000 0.086088 0.000000
# 6 0.000000 0.000000 0.000000 0.000000 0.000000 0.100142
#
#
# Mechanical properties :
#
#
# Convention : Reuss Voigt Hill
#
# Bulk Modulus (GPa) = 51.41902 54.40961 52.91432
# Shear Modulus (GPa) = 8.64621 12.19220 10.41920
#
# Velocity S-wave (km/s) = 2.40872 2.86032 2.64417
# Velocity P-wave (km/s) = 6.49922 6.88617 6.69549
#
# Compressibility (1/GPa) = 0.01944805
#
# Stress axis : x y z
#
# Youngs Moduli (GPa) = 13.77320 13.77320 70.13322
#
# Poissons Ratio (x) = 0.80248 0.41189
# Poissons Ratio (y) = 0.80248 0.41189
# Poissons Ratio (z) = 0.08089 0.08089
#
# Static dielectric constant tensor:
#      x y z
#    x 2.599340 0.000000 0.000000 
#    y 0.000000 2.599340 0.000000 
#    z 0.000000 0.000000 3.267490 
# 
# 
# High freq. dielectric constant tensor:
#      x y z
#    x 1.536700 0.000000 0.000000 
#    y 0.000000 1.536700 0.000000 
#    z 0.000000 0.000000 1.575010 
# 
# From -- ./inp_files/4554.got.cif
#   From: 2010.03.12/outbox.cif.g09.slc.cpg/sg129_3_cif.got.tgz:4554.got - 2010.04.06 17:19:44.
