data_PCOD8314995
_publ_section_title
;
Structure prediction by ZEFSAII (Michael W. Deem and Ramdas Pophale) SiO2 
 PCOD8314995
Probable space group: P 4/N M M
;
_chemical_formula_sum "Si O2"
_cell_formula_units_Z 96
_cell_length_a 32.256238
_cell_length_b 32.256238
_cell_length_c 5.078177
_cell_angle_alpha 90.000000
_cell_angle_beta 90.000000
_cell_angle_gamma 90.000000
_cell_volume 5283.664873
_symmetry_space_group_name_H-M "P 4/N M M"
_symmetry_group_IT_number 129
_symmetry_cell_setting 'tetragonal'
loop_
_space_group_symop_operation_xyz
x,y,z
1/2-y,x,z
1/2-x,1/2-y,z
y,1/2-x,z
1/2+x,-y,-z
-x,1/2+y,-z
1/2+y,1/2+x,-z
-y,-x,-z
-x,-y,-z
1/2+y,-x,-z
1/2+x,1/2+y,-z
-y,1/2+x,-z
1/2-x,y,z
x,1/2-y,z
1/2-y,1/2-x,z
y,x,z
loop_
_atom_site_type_symbol
_atom_site_label
_atom_site_fract_x
_atom_site_fract_y
_atom_site_fract_z
Si Si1 0.021603 0.671233 0.175664
Si Si2 0.750000 0.582066 0.770187
Si Si3 0.660651 0.596452 0.706334
Si Si4 0.556064 0.622971 0.214573
Si Si5 0.032933 0.250000 0.731864
Si Si6 0.067182 0.798881 0.671241
Si Si7 0.202840 0.836091 0.248494
O O1 0.052877 0.674999 0.418613
O O2 0.994096 0.628017 0.172312
O O3 0.990318 0.708974 0.185563
O O4 0.048235 0.675970 0.913508
O O5 0.709048 0.607139 0.693300
O O6 0.750000 0.541207 0.581562
O O7 0.750000 0.573295 0.081415
O O8 0.639977 0.639977 0.642009
O O9 0.646002 0.563191 0.491105
O O10 0.648312 0.579260 0.989690
O O11 0.575372 0.575372 0.220708
O O12 0.053593 0.750000 0.659476
O O13 0.116187 0.802473 0.679712
O O14 0.190971 0.809030 0.500000
O O15 0.250000 0.825984 0.170293
O O16 0.174251 0.825750 0.000000
#
# Coordination Sequence:
#
# PCOD8314995 Si02
#       7
#    16   8  16  16   8  16  16
#     4  12  19  31  49  74 107 138 173 209 266 327
#     4  12  18  30  42  63  86 122 170 202 253 320
#     4  10  19  29  41  59  85 119 160 210 260 306
#     4  10  20  31  44  67 100 134 168 209 257 316
#     4  12  20  26  48  72  96 131 165 214 246 334
#     4  11  22  34  53  81 111 141 175 218 266 312
#     4  11  24  42  62  87 119 153 190 228 258 293
#
# _framework density 18.169208000000001
#
# number of rings (size 3 to 8) (size 9 to 14) (size 15 to 20)
#    0.000    1.000    5.000    3.500    0.000    3.667 
#    0.000    0.000    0.000    0.250    0.000    0.000 
#    0.000   18.667    0.000    0.000    0.000    0.833 
#
# Total GULP energy -1189738.676130 kJ/mol
# GULP energy per Si atom -12393.111210 kJ/mol
# Density = 1.812785 g / cm^3
# Si number density = 18.169208 Si / 1000 Ang^3
#
#
#
# Elastic Constant Matrix: (Units=GPa)
#
#
# Indices 1 2 3 4 5 6 
#
# 1 58.8131 54.6842 26.7467 0.0000 0.0000 0.0000
# 2 54.6842 58.8117 26.7460 0.0000 0.0000 0.0000
# 3 26.7467 26.7460 116.0562 0.0000 0.0000 0.0000
# 4 0.0000 0.0000 0.0000 39.5945 0.0000 0.0000
# 5 0.0000 0.0000 0.0000 0.0000 39.5956 0.0000
# 6 0.0000 0.0000 0.0000 0.0000 0.0000 24.1845
#
#
#
# Elastic Compliance Matrix: (Units=1/GPa)
#
#
# Indices 1 2 3 4 5 6 
#
# 1 0.126057 -0.116174 -0.002278 0.000000 0.000000 0.000000
# 2 -0.116174 0.126060 -0.002278 0.000000 0.000000 0.000000
# 3 -0.002278 -0.002278 0.009666 0.000000 0.000000 0.000000
# 4 0.000000 0.000000 0.000000 0.025256 0.000000 0.000000
# 5 0.000000 0.000000 0.000000 0.000000 0.025255 0.000000
# 6 0.000000 0.000000 0.000000 0.000000 0.000000 0.041349
#
#
# Mechanical properties :
#
#
# Convention : Reuss Voigt Hill
#
# Bulk Modulus (GPa) = 49.20405 50.00386 49.60395
# Shear Modulus (GPa) = 8.30734 29.04186 18.67460
#
# Velocity S-wave (km/s) = 2.14059 4.00235 3.20943
# Velocity P-wave (km/s) = 5.76622 6.99567 6.41049
#
# Compressibility (1/GPa) = 0.02032353
#
# Stress axis : x y z
#
# Youngs Moduli (GPa) = 7.93291 7.93276 103.45021
#
# Poissons Ratio (x) = 0.92158 0.23571
# Poissons Ratio (y) = 0.92160 0.23561
# Poissons Ratio (z) = 0.01807 0.01807
#
# Static dielectric constant tensor:
#      x y z
#    x 3.334460 0.000000 0.000000 
#    y 0.000000 3.334460 0.000000 
#    z 0.000000 0.000000 3.621780 
# 
# 
# High freq. dielectric constant tensor:
#      x y z
#    x 1.679770 0.000000 0.000000 
#    y 0.000000 1.679770 0.000000 
#    z 0.000000 0.000000 1.731030 
# 
# From -- ./inp_files/1141.got.cif
#   From: 2010.03.12/outbox.cif.g09.slc.cpg/sg129_1_cif.got.tgz:1141.got - 2010.04.06 17:19:44.
