data_PCOD8314114
_publ_section_title
;
Structure prediction by ZEFSAII (Michael W. Deem and Ramdas Pophale) SiO2 
 PCOD8314114
Probable space group: P 4/M B M
;
_chemical_formula_sum "Si O2"
_cell_formula_units_Z 96
_cell_length_a 23.321969
_cell_length_b 23.321969
_cell_length_c 9.290607
_cell_angle_alpha 90.000000
_cell_angle_beta 90.000000
_cell_angle_gamma 90.000000
_cell_volume 5053.293427
_symmetry_space_group_name_H-M "P 4/M B M"
_symmetry_group_IT_number 127
_symmetry_cell_setting 'tetragonal'
loop_
_space_group_symop_operation_xyz
x,y,z
-y,x,z
-x,-y,z
y,-x,z
1/2+x,1/2-y,-z
1/2-x,1/2+y,-z
1/2+y,1/2+x,-z
1/2-y,1/2-x,-z
-x,-y,-z
y,-x,-z
x,y,-z
-y,x,-z
1/2-x,1/2+y,z
1/2+x,1/2-y,z
1/2-y,1/2-x,z
1/2+y,1/2+x,z
loop_
_atom_site_type_symbol
_atom_site_label
_atom_site_fract_x
_atom_site_fract_y
_atom_site_fract_z
Si Si1 0.164422 0.210569 0.339101
Si Si2 0.103503 0.306871 0.834011
Si Si3 0.728248 0.981602 0.838136
Si Si4 0.364338 0.229240 0.334303
Si Si5 0.640815 0.484149 0.837852
Si Si6 0.107261 0.912811 0.661162
O O1 0.181441 0.231193 0.500000
O O2 0.148516 0.265115 0.244367
O O3 0.218161 0.174464 0.272750
O O4 0.107409 0.172443 0.346712
O O5 0.128685 0.371315 0.816453
O O6 0.037543 0.305872 0.775576
O O7 0.102055 0.287389 0.000000
O O8 0.719903 0.924752 0.744728
O O9 0.793599 0.002884 0.839673
O O10 0.707660 0.966774 0.000000
O O11 0.378615 0.243218 0.500000
O O12 0.329646 0.170355 0.316569
O O13 0.601410 0.530332 0.756550
O O14 0.637144 0.426701 0.743723
O O15 0.617597 0.475138 0.000000
O O16 0.082981 0.923230 0.500000
#
# Coordination Sequence:
#
# PCOD8314114 Si02
#       6
#    16  16  16  16  16  16
#     4  10  20  34  55  82 114 145 178 222 272 326
#     4  10  21  37  57  83 114 146 182 224 272 327
#     4  10  21  36  56  81 110 144 181 223 271 327
#     4  10  21  37  57  83 114 146 182 224 272 327
#     4  11  22  37  56  78 108 146 189 234 277 321
#     4  11  22  36  56  80 107 145 190 232 273 326
#
# _framework density 18.997509999999998
#
# number of rings (size 3 to 8) (size 9 to 14) (size 15 to 20)
#    0.000    1.667    3.333    1.500    0.000    4.333 
#    0.000    1.667    0.000    0.500    0.000    3.500 
#    0.000    0.000    0.000    0.000    0.000    0.000 
#
# Total GULP energy -1190040.392740 kJ/mol
# GULP energy per Si atom -12396.254091 kJ/mol
# Density = 1.895427 g / cm^3
# Si number density = 18.997510 Si / 1000 Ang^3
#
#
#
# Elastic Constant Matrix: (Units=GPa)
#
#
# Indices 1 2 3 4 5 6 
#
# 1 76.8969 33.9615 36.3727 0.0000 0.0000 0.0000
# 2 33.9615 76.8969 36.3727 0.0000 0.0000 0.0000
# 3 36.3727 36.3727 99.2173 0.0000 0.0000 0.0000
# 4 0.0000 0.0000 0.0000 24.7623 0.0000 0.0000
# 5 0.0000 0.0000 0.0000 0.0000 24.7623 0.0000
# 6 0.0000 0.0000 0.0000 0.0000 0.0000 28.9817
#
#
#
# Elastic Compliance Matrix: (Units=1/GPa)
#
#
# Indices 1 2 3 4 5 6 
#
# 1 0.017584 -0.005706 -0.004354 0.000000 0.000000 0.000000
# 2 -0.005706 0.017584 -0.004354 0.000000 0.000000 0.000000
# 3 -0.004354 -0.004354 0.013271 0.000000 0.000000 0.000000
# 4 0.000000 0.000000 0.000000 0.040384 0.000000 0.000000
# 5 0.000000 0.000000 0.000000 0.000000 0.040384 0.000000
# 6 0.000000 0.000000 0.000000 0.000000 0.000000 0.034505
#
#
# Mechanical properties :
#
#
# Convention : Reuss Voigt Hill
#
# Bulk Modulus (GPa) = 50.99519 51.82498 51.41008
# Shear Modulus (GPa) = 25.11560 25.45490 25.28525
#
# Velocity S-wave (km/s) = 3.63994 3.66445 3.65221
# Velocity P-wave (km/s) = 6.67585 6.72631 6.70113
#
# Compressibility (1/GPa) = 0.01960969
#
# Stress axis : x y z
#
# Youngs Moduli (GPa) = 56.86887 56.86887 75.34956
#
# Poissons Ratio (x) = 0.32452 0.32810
# Poissons Ratio (y) = 0.32452 0.32810
# Poissons Ratio (z) = 0.24763 0.24763
#
# Static dielectric constant tensor:
#      x y z
#    x 3.328140 0.000000 0.000000 
#    y 0.000000 3.328140 0.000000 
#    z 0.000000 0.000000 3.530140 
# 
# 
# High freq. dielectric constant tensor:
#      x y z
#    x 1.725520 0.000000 0.000000 
#    y 0.000000 1.725520 0.000000 
#    z 0.000000 0.000000 1.737290 
# 
# From -- ./inp_files/2011.got.cif
#   From: 2010.03.12/outbox.cif.g09.slc.cpg/sg127_2_cif.got.tgz:2011.got - 2010.04.06 17:03:15.
