data_PCOD8314620
_publ_section_title
;
Structure prediction by ZEFSAII (Michael W. Deem and Ramdas Pophale) SiO2 
 PCOD8314620
Probable space group: P 4/M N C
;
_chemical_formula_sum "Si O2"
_cell_formula_units_Z 104
_cell_length_a 26.525118
_cell_length_b 26.525118
_cell_length_c 8.789841
_cell_angle_alpha 90.000000
_cell_angle_beta 90.000000
_cell_angle_gamma 90.000000
_cell_volume 6184.372899
_symmetry_space_group_name_H-M "P 4/M N C"
_symmetry_group_IT_number 128
_symmetry_cell_setting 'tetragonal'
loop_
_space_group_symop_operation_xyz
x,y,z
-y,x,z
-x,-y,z
y,-x,z
1/2+x,1/2-y,1/2-z
1/2-x,1/2+y,1/2-z
1/2+y,1/2+x,1/2-z
1/2-y,1/2-x,1/2-z
-x,-y,-z
y,-x,-z
x,y,-z
-y,x,-z
1/2-x,1/2+y,1/2+z
1/2+x,1/2-y,1/2+z
1/2-y,1/2-x,1/2+z
1/2+y,1/2+x,1/2+z
loop_
_atom_site_type_symbol
_atom_site_label
_atom_site_fract_x
_atom_site_fract_y
_atom_site_fract_z
Si Si1 0.850948 0.094463 0.830718
Si Si2 0.499589 0.924749 0.179648
Si Si3 0.047638 0.066668 0.000000
Si Si4 0.999818 0.789424 0.179963
Si Si5 0.365387 0.209856 0.676521
Si Si6 0.176710 0.523987 0.674515
Si Si7 0.312368 0.603620 0.178573
O O1 0.811690 0.053555 0.760892
O O2 0.859277 0.141353 0.719533
O O3 0.832432 0.112513 0.000000
O O4 0.904772 0.066394 0.848416
O O5 0.549073 0.950928 0.250000
O O6 0.499698 0.865677 0.218675
O O7 0.449480 0.949480 0.250000
O O8 0.499748 0.932770 0.000000
O O9 0.988177 0.069844 0.000000
O O10 0.000672 0.730433 0.222950
O O11 0.047488 0.818315 0.252749
O O12 0.005005 0.797740 0.000000
O O13 0.319181 0.180820 0.750000
O O14 0.354953 0.219529 0.500000
O O15 0.416073 0.177614 0.700072
O O16 0.369274 0.263196 0.757819
O O17 0.164249 0.510918 0.500000
O O18 0.308179 0.598312 0.000000
#
# Coordination Sequence:
#
# PCOD8314620 Si02
#       7
#    16  16   8  16  16  16  16
#     4   9  18  31  52  70  98 130 171 209 249 302
#     4  11  21  33  50  72 101 135 170 205 248 300
#     4   9  16  26  48  76  98 126 168 211 248 298
#     4   9  18  34  54  75  97 131 171 214 253 302
#     4  10  20  34  53  76 103 133 168 210 257 309
#     4   9  18  32  51  75 103 129 162 204 252 300
#     4  11  21  32  49  74 105 136 167 208 258 309
#
# _framework density 16.816579000000001
#
# number of rings (size 3 to 8) (size 9 to 14) (size 15 to 20)
#    0.462    1.769    0.000    6.000    0.000    4.923 
#    0.000    0.000    0.000    0.923    0.000    7.538 
#    0.000    0.000    0.000    0.000    0.000    0.000 
#
# Total GULP energy -1289331.247130 kJ/mol
# GULP energy per Si atom -12397.415838 kJ/mol
# Density = 1.677830 g / cm^3
# Si number density = 16.816579 Si / 1000 Ang^3
#
#
#
# Elastic Constant Matrix: (Units=GPa)
#
#
# Indices 1 2 3 4 5 6 
#
# 1 103.8044 47.8152 45.4571 0.0000 0.0000 0.0000
# 2 47.8152 103.8030 45.4578 0.0000 0.0000 0.0000
# 3 45.4571 45.4578 98.2744 0.0000 0.0000 0.0000
# 4 0.0000 0.0000 0.0000 22.4367 0.0000 0.0000
# 5 0.0000 0.0000 0.0000 0.0000 22.4372 0.0000
# 6 0.0000 0.0000 0.0000 0.0000 0.0000 30.3017
#
#
#
# Elastic Compliance Matrix: (Units=1/GPa)
#
#
# Indices 1 2 3 4 5 6 
#
# 1 0.013494 -0.004367 -0.004222 0.000000 0.000000 0.000000
# 2 -0.004367 0.013494 -0.004222 0.000000 0.000000 0.000000
# 3 -0.004222 -0.004222 0.014081 0.000000 0.000000 0.000000
# 4 0.000000 0.000000 0.000000 0.044570 0.000000 0.000000
# 5 0.000000 0.000000 0.000000 0.000000 0.044569 0.000000
# 6 0.000000 0.000000 0.000000 0.000000 0.000000 0.033001
#
#
# Mechanical properties :
#
#
# Convention : Reuss Voigt Hill
#
# Bulk Modulus (GPa) = 64.73266 64.81576 64.77421
# Shear Modulus (GPa) = 25.77598 26.17858 25.97728
#
# Velocity S-wave (km/s) = 3.91931 3.94980 3.93458
# Velocity P-wave (km/s) = 7.68494 7.70893 7.69695
#
# Compressibility (1/GPa) = 0.01544815
#
# Stress axis : x y z
#
# Youngs Moduli (GPa) = 74.10856 74.10681 71.01684
#
# Poissons Ratio (x) = 0.32362 0.29980
# Poissons Ratio (y) = 0.32363 0.29982
# Poissons Ratio (z) = 0.31286 0.31287
#
# Static dielectric constant tensor:
#      x y z
#    x 3.111220 0.000000 0.000000 
#    y 0.000000 3.111220 0.000000 
#    z 0.000000 0.000000 3.017590 
# 
# 
# High freq. dielectric constant tensor:
#      x y z
#    x 1.641170 0.000000 0.000000 
#    y 0.000000 1.641170 0.000000 
#    z 0.000000 0.000000 1.638850 
# 
# From -- ./inp_files/1714.got.cif
#   From: 2010.03.12/outbox.cif.g09.slc.cpg/sg128_1_cif.got.tgz:1714.got - 2010.04.06 17:11:05.
