data_PCOD8314169
_publ_section_title
;
Structure prediction by ZEFSAII (Michael W. Deem and Ramdas Pophale) SiO2 
 PCOD8314169
Probable space group: P 4/M B M
;
_chemical_formula_sum "Si O2"
_cell_formula_units_Z 96
_cell_length_a 21.539492
_cell_length_b 21.539492
_cell_length_c 11.099835
_cell_angle_alpha 90.000000
_cell_angle_beta 90.000000
_cell_angle_gamma 90.000000
_cell_volume 5149.765292
_symmetry_space_group_name_H-M "P 4/M B M"
_symmetry_group_IT_number 127
_symmetry_cell_setting 'tetragonal'
loop_
_space_group_symop_operation_xyz
x,y,z
-y,x,z
-x,-y,z
y,-x,z
1/2+x,1/2-y,-z
1/2-x,1/2+y,-z
1/2+y,1/2+x,-z
1/2-y,1/2-x,-z
-x,-y,-z
y,-x,-z
x,y,-z
-y,x,-z
1/2-x,1/2+y,z
1/2+x,1/2-y,z
1/2-y,1/2-x,z
1/2+y,1/2+x,z
loop_
_atom_site_type_symbol
_atom_site_label
_atom_site_fract_x
_atom_site_fract_y
_atom_site_fract_z
Si Si1 0.688841 0.481122 0.000000
Si Si2 0.119550 0.147541 0.000000
Si Si3 0.888233 0.709655 0.362631
Si Si4 0.002503 0.100151 0.358043
Si Si5 0.806064 0.791204 0.211230
Si Si6 0.276947 0.124474 0.636243
Si Si7 0.737676 0.495610 0.253352
O O1 0.640835 0.423869 0.000000
O O2 0.649174 0.544863 0.000000
O O3 0.735120 0.477121 0.886443
O O4 0.144124 0.184412 0.116083
O O5 0.909150 0.721762 0.500000
O O6 0.859542 0.640459 0.347825
O O7 0.836975 0.760198 0.327722
O O8 0.943716 0.720193 0.269404
O O9 0.002543 0.110291 0.500000
O O10 0.062942 0.059892 0.319252
O O11 0.005045 0.166584 0.295245
O O12 0.758030 0.741971 0.150348
O O13 0.769902 0.849050 0.265366
O O14 0.253083 0.135244 0.500000
O O15 0.345199 0.154802 0.651963
O O16 0.277128 0.052138 0.666150
#
# Coordination Sequence:
#
# PCOD8314169 Si02
#       7
#     8   8  16  16  16  16  16
#     4  12  28  39  58  78 114 157 214 246 280 338
#     4  12  23  45  54  80 114 164 210 249 281 340
#     4  10  21  37  60  90 119 148 189 245 307 364
#     4   9  20  36  54  78 107 145 194 239 284 344
#     4  10  20  36  60  86 117 149 188 243 302 359
#     4  10  21  37  60  90 119 148 189 245 307 364
#     4  12  23  40  57  84 115 159 196 242 293 353
#
# _framework density 18.641625000000001
#
# number of rings (size 3 to 8) (size 9 to 14) (size 15 to 20)
#    0.000    1.500    3.333    2.750    4.667    2.167 
#    0.000    0.833    0.000    0.500    0.000    2.333 
#    0.000    1.333    0.000    0.000    0.000    0.000 
#
# Total GULP energy -1190079.927635 kJ/mol
# GULP energy per Si atom -12396.665913 kJ/mol
# Density = 1.859920 g / cm^3
# Si number density = 18.641625 Si / 1000 Ang^3
#
#
#
# Elastic Constant Matrix: (Units=GPa)
#
#
# Indices 1 2 3 4 5 6 
#
# 1 74.4561 36.9373 24.5137 0.0000 0.0000 0.0000
# 2 36.9373 74.4561 24.5137 0.0000 0.0000 0.0000
# 3 24.5137 24.5137 86.5396 0.0000 0.0000 0.0000
# 4 0.0000 0.0000 0.0000 24.4283 0.0000 0.0000
# 5 0.0000 0.0000 0.0000 0.0000 24.4283 0.0000
# 6 0.0000 0.0000 0.0000 0.0000 0.0000 29.7467
#
#
#
# Elastic Compliance Matrix: (Units=1/GPa)
#
#
# Indices 1 2 3 4 5 6 
#
# 1 0.018455 -0.008199 -0.002905 0.000000 0.000000 0.000000
# 2 -0.008199 0.018455 -0.002905 0.000000 0.000000 0.000000
# 3 -0.002905 -0.002905 0.013201 0.000000 0.000000 0.000000
# 4 0.000000 0.000000 0.000000 0.040936 0.000000 0.000000
# 5 0.000000 0.000000 0.000000 0.000000 0.040936 0.000000
# 6 0.000000 0.000000 0.000000 0.000000 0.000000 0.033617
#
#
# Mechanical properties :
#
#
# Convention : Reuss Voigt Hill
#
# Bulk Modulus (GPa) = 45.26444 45.26458 45.26451
# Shear Modulus (GPa) = 24.87783 25.68643 25.28213
#
# Velocity S-wave (km/s) = 3.65709 3.71604 3.68668
# Velocity P-wave (km/s) = 6.49357 6.53805 6.51585
#
# Compressibility (1/GPa) = 0.02209240
#
# Stress axis : x y z
#
# Youngs Moduli (GPa) = 54.18709 54.18709 75.75034
#
# Poissons Ratio (x) = 0.44427 0.22006
# Poissons Ratio (y) = 0.44427 0.22006
# Poissons Ratio (z) = 0.15742 0.15742
#
# Static dielectric constant tensor:
#      x y z
#    x 3.401190 0.000000 0.000000 
#    y 0.000000 3.401190 0.000000 
#    z 0.000000 0.000000 3.501540 
# 
# 
# High freq. dielectric constant tensor:
#      x y z
#    x 1.711750 0.000000 0.000000 
#    y 0.000000 1.711750 0.000000 
#    z 0.000000 0.000000 1.730960 
# 
# From -- ./inp_files/3578.got.cif
#   From: 2010.03.12/outbox.cif.g09.slc.cpg/sg127_2_cif.got.tgz:3578.got - 2010.04.06 17:03:15.
