data_PCOD8314736
_publ_section_title
;
Structure prediction by ZEFSAII (Michael W. Deem and Ramdas Pophale) SiO2 
 PCOD8314736
Probable space group: P 4/M N C
;
_chemical_formula_sum "Si O2"
_cell_formula_units_Z 120
_cell_length_a 15.313909
_cell_length_b 15.313909
_cell_length_c 30.060607
_cell_angle_alpha 90.000000
_cell_angle_beta 90.000000
_cell_angle_gamma 90.000000
_cell_volume 7049.687565
_symmetry_space_group_name_H-M "P 4/M N C"
_symmetry_group_IT_number 128
_symmetry_cell_setting 'tetragonal'
loop_
_space_group_symop_operation_xyz
x,y,z
-y,x,z
-x,-y,z
y,-x,z
1/2+x,1/2-y,1/2-z
1/2-x,1/2+y,1/2-z
1/2+y,1/2+x,1/2-z
1/2-y,1/2-x,1/2-z
-x,-y,-z
y,-x,-z
x,y,-z
-y,x,-z
1/2-x,1/2+y,1/2+z
1/2+x,1/2-y,1/2+z
1/2-y,1/2-x,1/2+z
1/2+y,1/2+x,1/2+z
loop_
_atom_site_type_symbol
_atom_site_label
_atom_site_fract_x
_atom_site_fract_y
_atom_site_fract_z
Si Si1 0.739945 0.464737 0.180455
Si Si2 0.691495 0.056381 0.234016
Si Si3 0.428239 0.625739 0.595325
Si Si4 0.186510 0.861575 0.360940
Si Si5 0.277450 0.322264 0.333654
Si Si6 0.122898 0.664004 0.200133
Si Si7 0.875546 0.071574 0.000000
Si Si8 0.399152 0.602990 0.049487
O O1 0.746946 0.511653 0.228511
O O2 0.715702 0.538240 0.144805
O O3 0.665766 0.388962 0.174967
O O4 0.833531 0.416142 0.172185
O O5 0.603357 0.103357 0.250000
O O6 0.751700 0.127842 0.211013
O O7 0.656182 0.981708 0.200472
O O8 0.383009 0.531855 0.600758
O O9 0.394286 0.691730 0.631801
O O10 0.402842 0.669094 0.547017
O O11 0.272631 0.805147 0.353840
O O12 0.154043 0.847659 0.411657
O O13 0.354666 0.255741 0.322499
O O14 0.162191 0.662191 0.250000
O O15 0.968677 0.116079 0.000000
O O16 0.379090 0.501349 0.055079
O O17 0.368624 0.634058 0.000000
#
# Coordination Sequence:
#
# PCOD8314736 Si02
#       8
#    16  16  16  16  16  16   8  16
#     4  10  22  34  54  74 101 137 172 214 258 299
#     4  11  21  36  54  72  99 140 181 210 253 305
#     4   9  17  32  53  74  98 130 164 205 257 312
#     4  11  20  36  53  77 107 137 172 215 262 308
#     4  11  21  33  51  76 107 133 164 218 266 298
#     4   9  21  36  51  71 100 134 172 213 252 298
#     4   7  12  26  50  74  94 122 162 201 246 306
#     4   9  17  31  54  79 104 134 169 212 258 311
#
# _framework density 17.022031999999999
#
# number of rings (size 3 to 8) (size 9 to 14) (size 15 to 20)
#    0.000    2.200    2.667    2.400    3.733    2.667 
#    1.200    0.000    0.000    0.000    0.000    0.000 
#    0.000    1.067    0.000    0.000    0.000    0.000 
#
# Total GULP energy -1486821.050463 kJ/mol
# GULP energy per Si atom -12390.175421 kJ/mol
# Density = 1.698329 g / cm^3
# Si number density = 17.022032 Si / 1000 Ang^3
#
#
#
# Elastic Constant Matrix: (Units=GPa)
#
#
# Indices 1 2 3 4 5 6 
#
# 1 73.2160 35.3662 34.0121 0.0000 0.0000 0.0000
# 2 35.3662 73.2160 34.0121 0.0000 0.0000 0.0000
# 3 34.0121 34.0121 77.2999 0.0000 0.0000 0.0000
# 4 0.0000 0.0000 0.0000 8.8685 0.0000 0.0000
# 5 0.0000 0.0000 0.0000 0.0000 8.8685 0.0000
# 6 0.0000 0.0000 0.0000 0.0000 0.0000 19.0635
#
#
#
# Elastic Compliance Matrix: (Units=1/GPa)
#
#
# Indices 1 2 3 4 5 6 
#
# 1 0.019567 -0.006853 -0.005594 0.000000 0.000000 0.000000
# 2 -0.006853 0.019567 -0.005594 0.000000 0.000000 0.000000
# 3 -0.005594 -0.005594 0.017860 0.000000 0.000000 0.000000
# 4 0.000000 0.000000 0.000000 0.112759 0.000000 0.000000
# 5 0.000000 0.000000 0.000000 0.000000 0.112759 0.000000
# 6 0.000000 0.000000 0.000000 0.000000 0.000000 0.052456
#
#
# Mechanical properties :
#
#
# Convention : Reuss Voigt Hill
#
# Bulk Modulus (GPa) = 47.82174 47.83477 47.82826
# Shear Modulus (GPa) = 13.22676 15.38286 14.30481
#
# Velocity S-wave (km/s) = 2.79056 3.00943 2.90206
# Velocity P-wave (km/s) = 6.20790 6.34336 6.27600
#
# Compressibility (1/GPa) = 0.02091099
#
# Stress axis : x y z
#
# Youngs Moduli (GPa) = 51.10573 51.10573 55.99207
#
# Poissons Ratio (x) = 0.35022 0.31324
# Poissons Ratio (y) = 0.35022 0.31324
# Poissons Ratio (z) = 0.28590 0.28590
#
# Static dielectric constant tensor:
#      x y z
#    x 3.124410 0.000000 0.000000 
#    y 0.000000 3.124410 0.000000 
#    z 0.000000 0.000000 3.312400 
# 
# 
# High freq. dielectric constant tensor:
#      x y z
#    x 1.645040 0.000000 0.000000 
#    y 0.000000 1.645040 0.000000 
#    z 0.000000 0.000000 1.650190 
# 
# From -- ./inp_files/7446.got.cif
#   From: 2010.03.12/outbox.cif.g09.slc.cpg/sg128_4_cif.got.tgz:7446.got - 2010.04.06 17:11:05.
