data_PCOD8314895
_publ_section_title
;
Structure prediction by ZEFSAII (Michael W. Deem and Ramdas Pophale) SiO2 
 PCOD8314895
Probable space group: P 4/N M M
;
_chemical_formula_sum "Si O2"
_cell_formula_units_Z 128
_cell_length_a 18.592974
_cell_length_b 18.592974
_cell_length_c 23.997425
_cell_angle_alpha 90.000000
_cell_angle_beta 90.000000
_cell_angle_gamma 90.000000
_cell_volume 8295.878198
_symmetry_space_group_name_H-M "P 4/N M M"
_symmetry_group_IT_number 129
_symmetry_cell_setting 'tetragonal'
loop_
_space_group_symop_operation_xyz
x,y,z
1/2-y,x,z
1/2-x,1/2-y,z
y,1/2-x,z
1/2+x,-y,-z
-x,1/2+y,-z
1/2+y,1/2+x,-z
-y,-x,-z
-x,-y,-z
1/2+y,-x,-z
1/2+x,1/2+y,-z
-y,1/2+x,-z
1/2-x,y,z
x,1/2-y,z
1/2-y,1/2-x,z
y,x,z
loop_
_atom_site_type_symbol
_atom_site_label
_atom_site_fract_x
_atom_site_fract_y
_atom_site_fract_z
Si Si1 0.333299 0.602512 0.268278
Si Si2 0.170722 0.058703 0.274794
Si Si3 0.556283 0.436125 0.437216
Si Si4 0.829297 0.941356 0.595086
Si Si5 0.664528 0.330630 0.061335
Si Si6 0.049764 0.667036 0.342763
Si Si7 0.090096 0.834867 0.168640
Si Si8 0.453110 0.334309 0.762716
O O1 0.250000 0.604448 0.284368
O O2 0.361291 0.520492 0.265045
O O3 0.374236 0.646631 0.315702
O O4 0.346813 0.637370 0.208515
O O5 0.250000 0.067137 0.247342
O O6 0.116377 0.116377 0.247141
O O7 0.176857 0.073608 0.339947
O O8 0.581144 0.418857 0.500000
O O9 0.501188 0.501188 0.435653
O O10 0.519720 0.363869 0.413680
O O11 0.623179 0.460778 0.399587
O O12 0.750000 0.938904 0.567498
O O13 0.879372 0.879372 0.567219
O O14 0.750000 0.325890 0.063097
O O15 0.633570 0.250000 0.073103
O O16 0.636512 0.388936 0.106857
O O17 0.641163 0.358838 0.000000
O O18 0.050199 0.750000 0.359487
O O19 0.986565 0.650726 0.298275
O O20 0.092483 0.750000 0.171091
O O21 0.011131 0.859348 0.190101
O O22 0.433463 0.250000 0.769538
O O23 0.381053 0.381053 0.770427
#
# Coordination Sequence:
#
# PCOD8314895 Si02
#       8
#    16  16  16  16  16  16  16  16
#     4  10  18  27  41  62  88 117 145 173 206 245
#     4   9  17  28  43  63  85 110 138 170 210 253
#     4  10  20  33  49  66  84 111 143 174 213 259
#     4   9  17  30  47  66  87 109 136 171 211 255
#     4   8  13  22  38  60  87 121 156 184 210 243
#     4  10  20  32  46  65  86 111 142 176 213 254
#     4   9  17  27  40  62  90 118 149 181 214 254
#     4   9  18  31  47  66  86 109 139 178 225 273
#
# _framework density 15.429349999999999
#
# number of rings (size 3 to 8) (size 9 to 14) (size 15 to 20)
#    0.000    2.750    1.250    2.250    0.000    4.375 
#    0.000    1.250    0.000    0.375    0.000    0.875 
#    0.000    3.000    0.000    0.000    0.000   15.750 
#
# Total GULP energy -1586430.141695 kJ/mol
# GULP energy per Si atom -12393.985482 kJ/mol
# Density = 1.539423 g / cm^3
# Si number density = 15.429350 Si / 1000 Ang^3
#
#
#
# Elastic Constant Matrix: (Units=GPa)
#
#
# Indices 1 2 3 4 5 6 
#
# 1 55.8665 34.0717 25.8972 0.0000 0.0000 0.0000
# 2 34.0717 55.8669 25.8973 0.0000 0.0000 0.0000
# 3 25.8972 25.8973 89.2556 0.0000 0.0000 0.0000
# 4 0.0000 0.0000 0.0000 -61.6550 0.0000 0.0000
# 5 0.0000 0.0000 0.0000 0.0000 -61.6891 0.0000
# 6 0.0000 0.0000 0.0000 0.0000 0.0000 21.4700
#
#
#
# Elastic Compliance Matrix: (Units=1/GPa)
#
#
# Indices 1 2 3 4 5 6 
#
# 1 0.029616 -0.016266 -0.003873 0.000000 0.000000 0.000000
# 2 -0.016266 0.029616 -0.003873 0.000000 0.000000 0.000000
# 3 -0.003873 -0.003873 0.013451 0.000000 0.000000 0.000000
# 4 0.000000 0.000000 0.000000 -0.016219 0.000000 0.000000
# 5 0.000000 0.000000 0.000000 0.000000 -0.016210 0.000000
# 6 0.000000 0.000000 0.000000 0.000000 0.000000 0.046577
#
#
# Mechanical properties :
#
#
# Convention : Reuss Voigt Hill
#
# Bulk Modulus (GPa) = 40.55652 41.41350 40.98501
# Shear Modulus (GPa) = 34.94680 -12.69996 11.12342
#
# Velocity S-wave (km/s) = 4.76432 -2.87209 2.68792
# Velocity P-wave (km/s) = 7.52379 3.98754 6.02112
#
# Compressibility (1/GPa) = 0.02465695
#
# Stress axis : x y z
#
# Youngs Moduli (GPa) = 33.76579 33.76599 74.34175
#
# Poissons Ratio (x) = 0.54925 0.28794
# Poissons Ratio (y) = 0.54925 0.28794
# Poissons Ratio (z) = 0.13078 0.13078
#
# Static dielectric constant tensor:
#      x y z
#    x 2.975160 0.000000 0.000000 
#    y 0.000000 2.975160 0.000000 
#    z 0.000000 0.000000 3.136550 
# 
# 
# High freq. dielectric constant tensor:
#      x y z
#    x 1.582260 0.000000 0.000000 
#    y 0.000000 1.582260 0.000000 
#    z 0.000000 0.000000 1.566060 
# 
# From -- ./inp_files/7255.got.cif
#   From: 2010.03.12/outbox.cif.g09.slc.cpg/sg129_4_cif.got.tgz:7255.got - 2010.04.06 17:19:44.
