data_PCOD8314230
_publ_section_title
;
Structure prediction by ZEFSAII (Michael W. Deem and Ramdas Pophale) SiO2 
 PCOD8314230
Probable space group: P 4/M B M
;
_chemical_formula_sum "Si O2"
_cell_formula_units_Z 96
_cell_length_a 23.909797
_cell_length_b 23.909797
_cell_length_c 8.953880
_cell_angle_alpha 90.000000
_cell_angle_beta 90.000000
_cell_angle_gamma 90.000000
_cell_volume 5118.739726
_symmetry_space_group_name_H-M "P 4/M B M"
_symmetry_group_IT_number 127
_symmetry_cell_setting 'tetragonal'
loop_
_space_group_symop_operation_xyz
x,y,z
-y,x,z
-x,-y,z
y,-x,z
1/2+x,1/2-y,-z
1/2-x,1/2+y,-z
1/2+y,1/2+x,-z
1/2-y,1/2-x,-z
-x,-y,-z
y,-x,-z
x,y,-z
-y,x,-z
1/2-x,1/2+y,z
1/2+x,1/2-y,z
1/2-y,1/2-x,z
1/2+y,1/2+x,z
loop_
_atom_site_type_symbol
_atom_site_label
_atom_site_fract_x
_atom_site_fract_y
_atom_site_fract_z
Si Si1 0.935431 0.064012 0.825435
Si Si2 0.863273 0.273145 0.327910
Si Si3 0.055382 0.647567 0.168974
Si Si4 0.145440 0.152983 0.675538
Si Si5 0.557974 0.148130 0.669463
Si Si6 0.228887 0.360708 0.824389
O O1 0.895068 0.104732 0.734915
O O2 0.999655 0.077967 0.783414
O O3 0.925333 0.073789 0.000000
O O4 0.881233 0.280133 0.500000
O O5 0.803605 0.303605 0.299624
O O6 0.910513 0.298609 0.222810
O O7 0.860184 0.208944 0.280369
O O8 0.092793 0.592793 0.179849
O O9 0.004447 0.637140 0.278699
O O10 0.035101 0.658233 0.000000
O O11 0.137311 0.157406 0.500000
O O12 0.131332 0.212365 0.745273
O O13 0.559049 0.170982 0.500000
O O14 0.589255 0.089255 0.681297
O O15 0.585689 0.193092 0.778404
O O16 0.196009 0.303992 0.774116
O O17 0.238289 0.360875 0.000000
#
# Coordination Sequence:
#
# PCOD8314230 Si02
#       6
#    16  16  16  16  16  16
#     4   9  20  40  61  79 105 143 184 227 274 320
#     4   9  19  36  55  76 108 148 185 223 268 320
#     4  10  21  36  55  80 110 145 185 230 278 326
#     4  11  22  35  57  87 114 143 179 219 268 327
#     4  10  21  37  57  80 108 144 185 229 276 326
#     4  10  21  37  57  81 111 146 182 223 270 319
#
# _framework density 18.754615999999999
#
# number of rings (size 3 to 8) (size 9 to 14) (size 15 to 20)
#    0.000    2.167    0.000    3.000    0.000    7.333 
#    0.000    7.500    0.000    0.000    0.000    0.000 
#    0.000    0.000    0.000    0.000    0.000    0.000 
#
# Total GULP energy -1190571.281193 kJ/mol
# GULP energy per Si atom -12401.784179 kJ/mol
# Density = 1.871193 g / cm^3
# Si number density = 18.754616 Si / 1000 Ang^3
#
#
#
# Elastic Constant Matrix: (Units=GPa)
#
#
# Indices 1 2 3 4 5 6 
#
# 1 163.6790 12.3853 51.3728 0.0000 0.0000 0.0000
# 2 12.3853 163.6790 51.3728 0.0000 0.0000 0.0000
# 3 51.3728 51.3728 71.8829 0.0000 0.0000 0.0000
# 4 0.0000 0.0000 0.0000 34.3333 0.0000 0.0000
# 5 0.0000 0.0000 0.0000 0.0000 34.3333 0.0000
# 6 0.0000 0.0000 0.0000 0.0000 0.0000 19.6743
#
#
#
# Elastic Compliance Matrix: (Units=1/GPa)
#
#
# Indices 1 2 3 4 5 6 
#
# 1 0.008176 0.001567 -0.006963 0.000000 0.000000 0.000000
# 2 0.001567 0.008176 -0.006963 0.000000 0.000000 0.000000
# 3 -0.006963 -0.006963 0.023864 0.000000 0.000000 0.000000
# 4 0.000000 0.000000 0.000000 0.029126 0.000000 0.000000
# 5 0.000000 0.000000 0.000000 0.000000 0.029126 0.000000
# 6 0.000000 0.000000 0.000000 0.000000 0.000000 0.050828
#
#
# Mechanical properties :
#
#
# Convention : Reuss Voigt Hill
#
# Bulk Modulus (GPa) = 64.52472 69.94475 67.23473
# Shear Modulus (GPa) = 27.90445 36.60886 32.25665
#
# Velocity S-wave (km/s) = 3.86148 4.42293 4.15170
# Velocity P-wave (km/s) = 7.37297 7.96610 7.67527
#
# Compressibility (1/GPa) = 0.01549794
#
# Stress axis : x y z
#
# Youngs Moduli (GPa) = 122.30209 122.30209 41.90339
#
# Poissons Ratio (x) = -0.19162 0.29178
# Poissons Ratio (y) = -0.19162 0.29178
# Poissons Ratio (z) = 0.85162 0.85162
#
# Static dielectric constant tensor:
#      x y z
#    x 3.414500 0.000000 0.000000 
#    y 0.000000 3.414500 0.000000 
#    z 0.000000 0.000000 3.500800 
# 
# 
# High freq. dielectric constant tensor:
#      x y z
#    x 1.729660 0.000000 0.000000 
#    y 0.000000 1.729660 0.000000 
#    z 0.000000 0.000000 1.737750 
# 
# From -- ./inp_files/1934.got.cif
#   From: 2010.03.12/outbox.cif.g09.slc.cpg/sg127_1_cif.got.tgz:1934.got - 2010.04.06 17:03:15.
