data_PCOD8314887
_publ_section_title
;
Structure prediction by ZEFSAII (Michael W. Deem and Ramdas Pophale) SiO2 
 PCOD8314887
Probable space group: P 4/N M M
;
_chemical_formula_sum "Si O2"
_cell_formula_units_Z 96
_cell_length_a 19.055163
_cell_length_b 19.055163
_cell_length_c 21.133801
_cell_angle_alpha 90.000000
_cell_angle_beta 90.000000
_cell_angle_gamma 90.000000
_cell_volume 7673.667017
_symmetry_space_group_name_H-M "P 4/N M M"
_symmetry_group_IT_number 129
_symmetry_cell_setting 'tetragonal'
loop_
_space_group_symop_operation_xyz
x,y,z
1/2-y,x,z
1/2-x,1/2-y,z
y,1/2-x,z
1/2+x,-y,-z
-x,1/2+y,-z
1/2+y,1/2+x,-z
-y,-x,-z
-x,-y,-z
1/2+y,-x,-z
1/2+x,1/2+y,-z
-y,1/2+x,-z
1/2-x,y,z
x,1/2-y,z
1/2-y,1/2-x,z
y,x,z
loop_
_atom_site_type_symbol
_atom_site_label
_atom_site_fract_x
_atom_site_fract_y
_atom_site_fract_z
Si Si1 0.668305 0.404660 0.058598
Si Si2 0.329242 0.057967 0.980965
Si Si3 0.328582 0.666383 0.702205
Si Si4 0.333896 0.827758 0.566614
Si Si5 0.170260 0.442540 0.128331
Si Si6 0.167695 0.594239 0.173547
O O1 0.750000 0.387470 0.051962
O O2 0.654464 0.488031 0.058442
O O3 0.639961 0.374985 0.123897
O O4 0.629755 0.370246 0.000000
O O5 0.250000 0.084283 0.969015
O O6 0.381022 0.118979 0.957497
O O7 0.340491 0.040367 0.054648
O O8 0.250000 0.639421 0.718659
O O9 0.326883 0.750000 0.696460
O O10 0.353909 0.634525 0.633575
O O11 0.381983 0.642551 0.756837
O O12 0.362528 0.862528 0.500000
O O13 0.250000 0.824243 0.562343
O O14 0.366003 0.750000 0.569628
O O15 0.250000 0.419266 0.142256
O O16 0.120301 0.379700 0.151216
O O17 0.150220 0.512200 0.167012
O O18 0.250000 0.608504 0.162146
#
# Coordination Sequence:
#
# PCOD8314887 Si02
#       6
#    16  16  16  16  16  16
#     4  11  20  28  37  51  70  94 123 149 170 198
#     4   9  18  31  44  57  69  82 107 143 183 224
#     4   8  13  20  30  45  66  93 120 142 166 193
#     4   7   9  14  25  41  61  85 113 143 170 192
#     4   9  17  29  42  54  67  82 105 140 181 221
#     4  10  18  27  36  49  70  95 121 147 172 200
#
# _framework density 12.510316
#
# number of rings (size 3 to 8) (size 9 to 14) (size 15 to 20)
#    0.000    3.000    1.667    2.500    0.000    3.167 
#    0.000    1.667    0.000    0.000    0.000    0.000 
#    0.000    0.667    0.000    0.000    0.000    0.000 
#
# Total GULP energy -1189376.291537 kJ/mol
# GULP energy per Si atom -12389.336370 kJ/mol
# Density = 1.248184 g / cm^3
# Si number density = 12.510316 Si / 1000 Ang^3
#
#
#
# Elastic Constant Matrix: (Units=GPa)
#
#
# Indices 1 2 3 4 5 6 
#
# 1 51.6320 33.3331 23.5216 0.0000 0.0000 0.0000
# 2 33.3331 51.6269 23.5168 0.0000 0.0000 0.0000
# 3 23.5216 23.5168 77.2045 0.0000 0.0000 0.0000
# 4 0.0000 0.0000 0.0000 4.1045 0.0000 0.0000
# 5 0.0000 0.0000 0.0000 0.0000 4.1052 0.0000
# 6 0.0000 0.0000 0.0000 0.0000 0.0000 17.3499
#
#
#
# Elastic Compliance Matrix: (Units=1/GPa)
#
#
# Indices 1 2 3 4 5 6 
#
# 1 0.034406 -0.020249 -0.004314 0.000000 0.000000 0.000000
# 2 -0.020249 0.034408 -0.004311 0.000000 0.000000 0.000000
# 3 -0.004314 -0.004311 0.015580 0.000000 0.000000 0.000000
# 4 0.000000 0.000000 0.000000 0.243635 0.000000 0.000000
# 5 0.000000 0.000000 0.000000 0.000000 0.243595 0.000000
# 6 0.000000 0.000000 0.000000 0.000000 0.000000 0.057637
#
#
# Mechanical properties :
#
#
# Convention : Reuss Voigt Hill
#
# Bulk Modulus (GPa) = 37.53189 37.91182 37.72186
# Shear Modulus (GPa) = 7.18501 11.78470 9.48486
#
# Velocity S-wave (km/s) = 2.39911 3.07253 2.75646
# Velocity P-wave (km/s) = 6.14331 6.55420 6.35207
#
# Compressibility (1/GPa) = 0.02664401
#
# Stress axis : x y z
#
# Youngs Moduli (GPa) = 29.06483 29.06339 64.18342
#
# Poissons Ratio (x) = 0.58851 0.27691
# Poissons Ratio (y) = 0.58853 0.27673
# Poissons Ratio (z) = 0.12540 0.12531
#
# Static dielectric constant tensor:
#      x y z
#    x 2.396570 0.000000 0.000000 
#    y 0.000000 2.396570 0.000000 
#    z 0.000000 0.000000 2.838270 
# 
# 
# High freq. dielectric constant tensor:
#      x y z
#    x 1.448800 0.000000 0.000000 
#    y 0.000000 1.448800 0.000000 
#    z 0.000000 0.000000 1.466380 
# 
# From -- ./inp_files/6582.got.cif
#   From: 2010.03.12/outbox.cif.g09.slc.cpg/sg129_4_cif.got.tgz:6582.got - 2010.04.06 17:19:44.
