data_PCOD8314473
_publ_section_title
;
Structure prediction by ZEFSAII (Michael W. Deem and Ramdas Pophale) SiO2 
 PCOD8314473
Probable space group: P 4/M B M
;
_chemical_formula_sum "Si O2"
_cell_formula_units_Z 112
_cell_length_a 26.436153
_cell_length_b 26.436153
_cell_length_c 9.625044
_cell_angle_alpha 90.000000
_cell_angle_beta 90.000000
_cell_angle_gamma 90.000000
_cell_volume 6726.656285
_symmetry_space_group_name_H-M "P 4/M B M"
_symmetry_group_IT_number 127
_symmetry_cell_setting 'tetragonal'
loop_
_space_group_symop_operation_xyz
x,y,z
-y,x,z
-x,-y,z
y,-x,z
1/2+x,1/2-y,-z
1/2-x,1/2+y,-z
1/2+y,1/2+x,-z
1/2-y,1/2-x,-z
-x,-y,-z
y,-x,-z
x,y,-z
-y,x,-z
1/2-x,1/2+y,z
1/2+x,1/2-y,z
1/2-y,1/2-x,z
1/2+y,1/2+x,z
loop_
_atom_site_type_symbol
_atom_site_label
_atom_site_fract_x
_atom_site_fract_y
_atom_site_fract_z
Si Si1 0.998561 0.703706 0.339360
Si Si2 0.627235 0.285794 0.838990
Si Si3 0.314174 0.464548 0.337890
Si Si4 0.112739 0.694707 0.660992
Si Si5 0.820787 0.237836 0.840377
Si Si6 0.079128 0.998780 0.335358
Si Si7 0.674642 0.092931 0.839021
O O1 0.985809 0.693729 0.500000
O O2 0.995836 0.763472 0.304514
O O3 0.958615 0.672257 0.248886
O O4 0.054463 0.684357 0.300430
O O5 0.587426 0.315849 0.746387
O O6 0.681855 0.305739 0.793401
O O7 0.623764 0.225950 0.808663
O O8 0.616247 0.297007 0.000000
O O9 0.318041 0.450912 0.500000
O O10 0.362429 0.497413 0.286828
O O11 0.118098 0.709396 0.500000
O O12 0.144066 0.644066 0.697647
O O13 0.132812 0.742368 0.748087
O O14 0.771754 0.271754 0.814366
O O15 0.838109 0.239616 0.000000
O O16 0.076773 0.998628 0.500000
O O17 0.049202 0.948853 0.279199
O O18 0.628031 0.128031 0.792976
O O19 0.670768 0.078034 0.000000
#
# Coordination Sequence:
#
# PCOD8314473 Si02
#       7
#    16  16  16  16  16  16  16
#     4   9  18  31  46  67  93 117 145 183 224 266
#     4   9  17  29  44  64  92 121 146 176 218 267
#     4   9  17  28  43  64  87 111 143 183 222 258
#     4   9  18  32  48  66  91 123 154 183 219 263
#     4   9  17  29  45  65  89 117 149 181 213 256
#     4   8  14  25  41  60  81 108 145 186 224 260
#     4   9  17  30  49  70  91 118 150 182 221 270
#
# _framework density 16.650174
#
# number of rings (size 3 to 8) (size 9 to 14) (size 15 to 20)
#    0.000    3.143    0.000    0.857    0.000    4.286 
#    0.000    2.857    0.000    3.857    0.000    4.000 
#    0.000    0.000    0.000    0.000    0.000    0.000 
#
# Total GULP energy -1388555.806463 kJ/mol
# GULP energy per Si atom -12397.819701 kJ/mol
# Density = 1.661228 g / cm^3
# Si number density = 16.650174 Si / 1000 Ang^3
#
#
#
# Elastic Constant Matrix: (Units=GPa)
#
#
# Indices 1 2 3 4 5 6 
#
# 1 98.5620 46.9498 36.6988 0.0000 0.0000 0.0000
# 2 46.9498 98.5620 36.6988 0.0000 0.0000 0.0000
# 3 36.6988 36.6988 43.1996 0.0000 0.0000 0.0000
# 4 0.0000 0.0000 0.0000 24.1679 0.0000 0.0000
# 5 0.0000 0.0000 0.0000 0.0000 24.1679 0.0000
# 6 0.0000 0.0000 0.0000 0.0000 0.0000 21.9108
#
#
#
# Elastic Compliance Matrix: (Units=1/GPa)
#
#
# Indices 1 2 3 4 5 6 
#
# 1 0.015700 -0.003675 -0.010216 0.000000 0.000000 0.000000
# 2 -0.003675 0.015700 -0.010216 0.000000 0.000000 0.000000
# 3 -0.010216 -0.010216 0.040505 0.000000 0.000000 0.000000
# 4 0.000000 0.000000 0.000000 0.041377 0.000000 0.000000
# 5 0.000000 0.000000 0.000000 0.000000 0.041377 0.000000
# 6 0.000000 0.000000 0.000000 0.000000 0.000000 0.045640
#
#
# Mechanical properties :
#
#
# Convention : Reuss Voigt Hill
#
# Bulk Modulus (GPa) = 42.20657 53.44649 47.82653
# Shear Modulus (GPa) = 19.50009 22.04776 20.77393
#
# Velocity S-wave (km/s) = 3.42594 3.64287 3.53607
# Velocity P-wave (km/s) = 6.40730 7.06140 6.74229
#
# Compressibility (1/GPa) = 0.02369299
#
# Stress axis : x y z
#
# Youngs Moduli (GPa) = 63.69352 63.69352 24.68834
#
# Poissons Ratio (x) = 0.23408 0.25220
# Poissons Ratio (y) = 0.23408 0.25220
# Poissons Ratio (z) = 0.65066 0.65066
#
# Static dielectric constant tensor:
#      x y z
#    x 3.163560 0.000000 0.000000 
#    y 0.000000 3.163560 0.000000 
#    z 0.000000 0.000000 3.004460 
# 
# 
# High freq. dielectric constant tensor:
#      x y z
#    x 1.634140 0.000000 0.000000 
#    y 0.000000 1.634140 0.000000 
#    z 0.000000 0.000000 1.625040 
# 
# From -- ./inp_files/3743.got.cif
#   From: 2010.03.12/outbox.cif.g09.slc.cpg/sg127_2_cif.got.tgz:3743.got - 2010.04.06 17:03:15.
