data_PCOD8314187
_publ_section_title
;
Structure prediction by ZEFSAII (Michael W. Deem and Ramdas Pophale) SiO2 
 PCOD8314187
Probable space group: P 4/M B M
;
_chemical_formula_sum "Si O2"
_cell_formula_units_Z 88
_cell_length_a 18.361509
_cell_length_b 18.361509
_cell_length_c 13.834320
_cell_angle_alpha 90.000000
_cell_angle_beta 90.000000
_cell_angle_gamma 90.000000
_cell_volume 4664.171993
_symmetry_space_group_name_H-M "P 4/M B M"
_symmetry_group_IT_number 127
_symmetry_cell_setting 'tetragonal'
loop_
_space_group_symop_operation_xyz
x,y,z
-y,x,z
-x,-y,z
y,-x,z
1/2+x,1/2-y,-z
1/2-x,1/2+y,-z
1/2+y,1/2+x,-z
1/2-y,1/2-x,-z
-x,-y,-z
y,-x,-z
x,y,-z
-y,x,-z
1/2-x,1/2+y,z
1/2+x,1/2-y,z
1/2-y,1/2-x,z
1/2+y,1/2+x,z
loop_
_atom_site_type_symbol
_atom_site_label
_atom_site_fract_x
_atom_site_fract_y
_atom_site_fract_z
Si Si1 0.438787 0.061214 0.604431
Si Si2 0.996984 0.877763 0.500000
Si Si3 0.524992 0.144768 0.252908
Si Si4 0.907697 0.407697 0.891401
Si Si5 0.714149 0.785852 0.113436
Si Si6 0.374688 0.345914 0.806711
Si Si7 0.807368 0.022606 0.704713
Si Si8 0.418345 0.586830 0.000000
O O1 0.412726 0.087275 0.500000
O O2 0.470265 0.130742 0.658531
O O3 0.500000 0.000000 0.600169
O O4 0.997361 0.824776 0.593493
O O5 0.069945 0.926499 0.500000
O O6 0.597883 0.097883 0.257016
O O7 0.481337 0.123988 0.155960
O O8 0.549458 0.226756 0.269141
O O9 0.846792 0.346792 0.888895
O O10 0.928747 0.428747 0.000000
O O11 0.781079 0.816573 0.177716
O O12 0.733912 0.766089 0.000000
O O13 0.355157 0.406698 0.727831
O O14 0.453926 0.318799 0.774888
O O15 0.374970 0.385029 0.908467
O O16 0.398231 0.503041 0.000000
#
# Coordination Sequence:
#
# PCOD8314187 Si02
#       8
#     8   8  16   8   8  16  16   8
#     4   8  16  34  59  84 109 146 198 249 297 355
#     4  11  24  44  69  93 122 167 226 276 332 395
#     4  10  22  39  60  91 125 163 209 258 314 373
#     4  10  20  39  67  92 128 175 217 262 310 382
#     4  11  23  40  63  94 135 174 213 261 328 393
#     4  12  24  41  65  92 129 172 210 261 321 389
#     4  12  25  42  65  93 128 167 217 269 325 387
#     4  11  22  37  64  98 124 158 213 264 313 378
#
# _framework density 18.867228999999998
#
# number of rings (size 3 to 8) (size 9 to 14) (size 15 to 20)
#    0.000    1.182    6.364    0.818    2.545    1.091 
#    1.636    0.000    0.000    1.091    0.000    0.000 
#    0.000    0.000    0.000    0.000    0.000    0.000 
#
# Total GULP energy -1090727.436306 kJ/mol
# GULP energy per Si atom -12394.629958 kJ/mol
# Density = 1.882429 g / cm^3
# Si number density = 18.867229 Si / 1000 Ang^3
#
#
#
# Elastic Constant Matrix: (Units=GPa)
#
#
# Indices 1 2 3 4 5 6 
#
# 1 93.3650 28.8670 18.6295 0.0000 0.0000 0.0000
# 2 28.8670 93.3651 18.6295 0.0000 0.0000 0.0000
# 3 18.6295 18.6295 92.6610 0.0000 0.0000 0.0000
# 4 0.0000 0.0000 0.0000 25.0138 0.0000 0.0000
# 5 0.0000 0.0000 0.0000 0.0000 25.0136 0.0000
# 6 0.0000 0.0000 0.0000 0.0000 0.0000 30.6916
#
#
#
# Elastic Compliance Matrix: (Units=1/GPa)
#
#
# Indices 1 2 3 4 5 6 
#
# 1 0.012110 -0.003395 -0.001752 0.000000 0.000000 0.000000
# 2 -0.003395 0.012110 -0.001752 0.000000 0.000000 0.000000
# 3 -0.001752 -0.001752 0.011497 0.000000 0.000000 0.000000
# 4 0.000000 0.000000 0.000000 0.039978 0.000000 0.000000
# 5 0.000000 0.000000 0.000000 0.000000 0.039978 0.000000
# 6 0.000000 0.000000 0.000000 0.000000 0.000000 0.032582
#
#
# Mechanical properties :
#
#
# Convention : Reuss Voigt Hill
#
# Bulk Modulus (GPa) = 45.62395 45.73811 45.68103
# Shear Modulus (GPa) = 29.52314 30.36147 29.94231
#
# Velocity S-wave (km/s) = 3.96003 4.01586 3.98804
# Velocity P-wave (km/s) = 6.71887 6.76739 6.74317
#
# Compressibility (1/GPa) = 0.02191831
#
# Stress axis : x y z
#
# Youngs Moduli (GPa) = 82.57764 82.57771 86.98233
#
# Poissons Ratio (x) = 0.28031 0.15241
# Poissons Ratio (y) = 0.28031 0.15241
# Poissons Ratio (z) = 0.14469 0.14469
#
# Static dielectric constant tensor:
#      x y z
#    x 3.431450 0.000000 0.000000 
#    y 0.000000 3.431450 0.000000 
#    z 0.000000 0.000000 3.675180 
# 
# 
# High freq. dielectric constant tensor:
#      x y z
#    x 1.732440 0.000000 0.000000 
#    y 0.000000 1.732440 0.000000 
#    z 0.000000 0.000000 1.740370 
# 
# From -- ./inp_files/4489.got.cif
#   From: 2010.03.12/outbox.cif.g09.slc.cpg/sg127_3_cif.got.tgz:4489.got - 2010.04.06 17:03:15.
