data_PCOD8314474
_publ_section_title
;
Structure prediction by ZEFSAII (Michael W. Deem and Ramdas Pophale) SiO2 
 PCOD8314474
Probable space group: P 4/M B M
;
_chemical_formula_sum "Si O2"
_cell_formula_units_Z 104
_cell_length_a 25.705522
_cell_length_b 25.705522
_cell_length_c 9.981381
_cell_angle_alpha 90.000000
_cell_angle_beta 90.000000
_cell_angle_gamma 90.000000
_cell_volume 6595.435664
_symmetry_space_group_name_H-M "P 4/M B M"
_symmetry_group_IT_number 127
_symmetry_cell_setting 'tetragonal'
loop_
_space_group_symop_operation_xyz
x,y,z
-y,x,z
-x,-y,z
y,-x,z
1/2+x,1/2-y,-z
1/2-x,1/2+y,-z
1/2+y,1/2+x,-z
1/2-y,1/2-x,-z
-x,-y,-z
y,-x,-z
x,y,-z
-y,x,-z
1/2-x,1/2+y,z
1/2+x,1/2-y,z
1/2-y,1/2-x,z
1/2+y,1/2+x,z
loop_
_atom_site_type_symbol
_atom_site_label
_atom_site_fract_x
_atom_site_fract_y
_atom_site_fract_z
Si Si1 0.892986 0.690598 0.152794
Si Si2 0.495560 0.413318 0.000000
Si Si3 0.708703 0.990362 0.846908
Si Si4 0.300013 0.627677 0.653102
Si Si5 0.756376 0.172014 0.653108
Si Si6 0.178028 0.042409 0.853566
Si Si7 0.183503 0.598395 0.653984
O O1 0.864079 0.635922 0.181599
O O2 0.953700 0.683584 0.182010
O O3 0.872380 0.735112 0.250404
O O4 0.883600 0.708884 0.000000
O O5 0.548571 0.445481 0.000000
O O6 0.492380 0.375047 0.868468
O O7 0.770976 0.991803 0.815546
O O8 0.678267 0.951342 0.749484
O O9 0.698536 0.973474 0.000000
O O10 0.313172 0.614276 0.500000
O O11 0.319076 0.684401 0.693440
O O12 0.331165 0.586604 0.743461
O O13 0.238562 0.625903 0.679940
O O14 0.750873 0.152986 0.500000
O O15 0.725808 0.225808 0.675172
O O16 0.188195 0.068773 0.000000
O O17 0.178306 0.580325 0.500000
O O18 0.138881 0.638881 0.693191
#
# Coordination Sequence:
#
# PCOD8314474 Si02
#       7
#    16   8  16  16  16  16  16
#     4   9  18  31  46  65  90 124 157 187 227 275
#     4   9  18  32  50  68  86 116 158 195 228 268
#     4   9  17  31  47  66  93 117 150 192 231 268
#     4   9  16  28  45  67  96 123 146 180 228 279
#     4   9  17  28  42  63  92 122 151 180 218 275
#     4   8  17  30  45  68  88 114 150 188 228 263
#     4   9  17  29  47  69  92 121 154 186 228 281
#
# _framework density 15.768481
#
# number of rings (size 3 to 8) (size 9 to 14) (size 15 to 20)
#    0.462    2.692    0.000    0.462    0.000    4.615 
#    0.000    0.000    0.000    4.154    0.000    4.308 
#    0.000    0.000    0.000    0.000    0.000    0.000 
#
# Total GULP energy -1288976.118326 kJ/mol
# GULP energy per Si atom -12394.001138 kJ/mol
# Density = 1.573259 g / cm^3
# Si number density = 15.768481 Si / 1000 Ang^3
#
#
#
# Elastic Constant Matrix: (Units=GPa)
#
#
# Indices 1 2 3 4 5 6 
#
# 1 82.2003 36.9462 40.7863 0.0000 0.0000 0.0000
# 2 36.9462 82.2003 40.7863 0.0000 0.0000 0.0000
# 3 40.7863 40.7863 65.0899 0.0000 0.0000 0.0000
# 4 0.0000 0.0000 0.0000 25.1528 0.0000 0.0000
# 5 0.0000 0.0000 0.0000 0.0000 25.1528 0.0000
# 6 0.0000 0.0000 0.0000 0.0000 0.0000 19.8690
#
#
#
# Elastic Compliance Matrix: (Units=1/GPa)
#
#
# Indices 1 2 3 4 5 6 
#
# 1 0.018398 -0.003699 -0.009211 0.000000 0.000000 0.000000
# 2 -0.003699 0.018398 -0.009211 0.000000 0.000000 0.000000
# 3 -0.009211 -0.009211 0.026906 0.000000 0.000000 0.000000
# 4 0.000000 0.000000 0.000000 0.039757 0.000000 0.000000
# 5 0.000000 0.000000 0.000000 0.000000 0.039757 0.000000
# 6 0.000000 0.000000 0.000000 0.000000 0.000000 0.050330
#
#
# Mechanical properties :
#
#
# Convention : Reuss Voigt Hill
#
# Bulk Modulus (GPa) = 51.38239 51.83647 51.60943
# Shear Modulus (GPa) = 20.46874 21.43302 20.95088
#
# Velocity S-wave (km/s) = 3.60680 3.69078 3.64903
# Velocity P-wave (km/s) = 7.07118 7.14893 7.11016
#
# Compressibility (1/GPa) = 0.01946192
#
# Stress axis : x y z
#
# Youngs Moduli (GPa) = 54.35304 54.35304 37.16585
#
# Poissons Ratio (x) = 0.20106 0.34232
# Poissons Ratio (y) = 0.20106 0.34232
# Poissons Ratio (z) = 0.50063 0.50063
#
# Static dielectric constant tensor:
#      x y z
#    x 2.891450 0.000000 0.000000 
#    y 0.000000 2.891450 0.000000 
#    z 0.000000 0.000000 3.053140 
# 
# 
# High freq. dielectric constant tensor:
#      x y z
#    x 1.591480 0.000000 0.000000 
#    y 0.000000 1.591480 0.000000 
#    z 0.000000 0.000000 1.604530 
# 
# From -- ./inp_files/2273.got.cif
#   From: 2010.03.12/outbox.cif.g09.slc.cpg/sg127_2_cif.got.tgz:2273.got - 2010.04.06 17:03:15.
