data_PCOD8314850
_publ_section_title
;
Structure prediction by ZEFSAII (Michael W. Deem and Ramdas Pophale) SiO2 
 PCOD8314850
Probable space group: P 4/M N C
;
_chemical_formula_sum "Si O2"
_cell_formula_units_Z 112
_cell_length_a 26.900195
_cell_length_b 26.900195
_cell_length_c 9.352219
_cell_angle_alpha 90.000000
_cell_angle_beta 90.000000
_cell_angle_gamma 90.000000
_cell_volume 6767.457305
_symmetry_space_group_name_H-M "P 4/M N C"
_symmetry_group_IT_number 128
_symmetry_cell_setting 'tetragonal'
loop_
_space_group_symop_operation_xyz
x,y,z
-y,x,z
-x,-y,z
y,-x,z
1/2+x,1/2-y,1/2-z
1/2-x,1/2+y,1/2-z
1/2+y,1/2+x,1/2-z
1/2-y,1/2-x,1/2-z
-x,-y,-z
y,-x,-z
x,y,-z
-y,x,-z
1/2-x,1/2+y,1/2+z
1/2+x,1/2-y,1/2+z
1/2-y,1/2-x,1/2+z
1/2+y,1/2+x,1/2+z
loop_
_atom_site_type_symbol
_atom_site_label
_atom_site_fract_x
_atom_site_fract_y
_atom_site_fract_z
Si Si1 0.002650 0.078157 0.829762
Si Si2 0.315987 0.469376 0.670823
Si Si3 0.323232 0.893436 0.168630
Si Si4 0.687448 0.742668 0.333436
Si Si5 0.215099 0.864227 0.830999
Si Si6 0.322032 0.107057 0.832463
Si Si7 0.001034 0.710392 0.169082
O O1 0.005003 0.134123 0.767341
O O2 0.952674 0.050996 0.775859
O O3 0.003407 0.079478 0.000000
O O4 0.316522 0.470243 0.500000
O O5 0.314346 0.412338 0.727078
O O6 0.267027 0.497896 0.728467
O O7 0.369835 0.869835 0.250000
O O8 0.272633 0.866015 0.219988
O O9 0.320385 0.951834 0.212114
O O10 0.331604 0.887604 0.000000
O O11 0.731792 0.768209 0.250000
O O12 0.700531 0.745480 0.500000
O O13 0.686398 0.685442 0.279874
O O14 0.635408 0.770011 0.300746
O O15 0.215961 0.867456 0.000000
O O16 0.367473 0.132528 0.750000
O O17 0.316095 0.050927 0.772559
O O18 0.334714 0.108456 0.000000
O O19 0.005121 0.713845 0.000000
#
# Coordination Sequence:
#
# PCOD8314850 Si02
#       7
#    16  16  16  16  16  16  16
#     4   8  13  19  26  40  66 100 136 172 205 232
#     4   8  13  21  33  49  70  99 134 166 196 231
#     4   9  16  27  43  61  82 106 131 161 198 237
#     4   9  16  25  38  57  80 104 131 161 192 231
#     4   8  14  23  35  54  78 102 129 162 196 230
#     4   9  17  29  44  61  81 106 135 164 196 233
#     4   8  15  27  41  57  77 101 129 162 197 234
#
# _framework density 16.549790000000002
#
# number of rings (size 3 to 8) (size 9 to 14) (size 15 to 20)
#    0.000    3.571    0.000    2.571    0.000    1.143 
#    0.000    6.429    0.000    0.429    0.000    3.000 
#    0.000    0.000    0.000    0.000    0.000    1.143 
#
# Total GULP energy -1387679.110636 kJ/mol
# GULP energy per Si atom -12389.992059 kJ/mol
# Density = 1.651212 g / cm^3
# Si number density = 16.549790 Si / 1000 Ang^3
#
#
#
# Elastic Constant Matrix: (Units=GPa)
#
#
# Indices 1 2 3 4 5 6 
#
# 1 119.0966 67.5130 19.5088 0.0000 0.0000 0.0000
# 2 67.5130 119.0998 19.5090 0.0000 0.0000 0.0000
# 3 19.5088 19.5090 14.4904 0.0000 0.0000 0.0000
# 4 0.0000 0.0000 0.0000 14.1986 0.0000 0.0000
# 5 0.0000 0.0000 0.0000 0.0000 14.1988 0.0000
# 6 0.0000 0.0000 0.0000 0.0000 0.0000 21.1370
#
#
#
# Elastic Compliance Matrix: (Units=1/GPa)
#
#
# Indices 1 2 3 4 5 6 
#
# 1 0.013422 -0.005964 -0.010041 0.000000 0.000000 0.000000
# 2 -0.005964 0.013422 -0.010041 0.000000 0.000000 0.000000
# 3 -0.010041 -0.010041 0.096049 0.000000 0.000000 0.000000
# 4 0.000000 0.000000 0.000000 0.070429 0.000000 0.000000
# 5 0.000000 0.000000 0.000000 0.000000 0.070428 0.000000
# 6 0.000000 0.000000 0.000000 0.000000 0.000000 0.047310
#
#
# Mechanical properties :
#
#
# Convention : Reuss Voigt Hill
#
# Bulk Modulus (GPa) = 14.12421 51.74981 32.93701
# Shear Modulus (GPa) = 12.92814 19.65061 16.28937
#
# Velocity S-wave (km/s) = 2.79797 3.44955 3.14070
# Velocity P-wave (km/s) = 4.35787 6.87044 5.75300
#
# Compressibility (1/GPa) = 0.07080042
#
# Stress axis : x y z
#
# Youngs Moduli (GPa) = 74.50456 74.50660 10.41135
#
# Poissons Ratio (x) = 0.44433 0.10454
# Poissons Ratio (y) = 0.44431 0.10454
# Poissons Ratio (z) = 0.74813 0.74813
#
# Static dielectric constant tensor:
#      x y z
#    x 3.353490 0.000000 0.000000 
#    y 0.000000 3.353480 0.000000 
#    z 0.000000 0.000000 2.539850 
# 
# 
# High freq. dielectric constant tensor:
#      x y z
#    x 1.636180 0.000000 0.000000 
#    y 0.000000 1.636180 0.000000 
#    z 0.000000 0.000000 1.571890 
# 
# From -- ./inp_files/2969.got.cif
#   From: 2010.03.12/outbox.cif.g09.slc.cpg/sg128_2_cif.got.tgz:2969.got - 2010.04.06 17:11:05.
