data_PCOD8314639
_publ_section_title
;
Structure prediction by ZEFSAII (Michael W. Deem and Ramdas Pophale) SiO2 
 PCOD8314639
Probable space group: P 4/M N C
;
_chemical_formula_sum "Si O2"
_cell_formula_units_Z 96
_cell_length_a 23.865494
_cell_length_b 23.865494
_cell_length_c 8.817897
_cell_angle_alpha 90.000000
_cell_angle_beta 90.000000
_cell_angle_gamma 90.000000
_cell_volume 5022.337322
_symmetry_space_group_name_H-M "P 4/M N C"
_symmetry_group_IT_number 128
_symmetry_cell_setting 'tetragonal'
loop_
_space_group_symop_operation_xyz
x,y,z
-y,x,z
-x,-y,z
y,-x,z
1/2+x,1/2-y,1/2-z
1/2-x,1/2+y,1/2-z
1/2+y,1/2+x,1/2-z
1/2-y,1/2-x,1/2-z
-x,-y,-z
y,-x,-z
x,y,-z
-y,x,-z
1/2-x,1/2+y,1/2+z
1/2+x,1/2-y,1/2+z
1/2-y,1/2-x,1/2+z
1/2+y,1/2+x,1/2+z
loop_
_atom_site_type_symbol
_atom_site_label
_atom_site_fract_x
_atom_site_fract_y
_atom_site_fract_z
Si Si1 0.309292 0.272862 0.679076
Si Si2 0.470254 0.416608 0.819853
Si Si3 0.500092 0.917194 0.678089
Si Si4 0.781378 0.638074 0.677269
Si Si5 0.787444 0.511340 0.322998
Si Si6 0.297320 0.572157 0.821038
O O1 0.283531 0.216470 0.750000
O O2 0.310767 0.265743 0.500000
O O3 0.272392 0.326267 0.730697
O O4 0.370941 0.281359 0.739758
O O5 0.533645 0.429110 0.762291
O O6 0.449065 0.357194 0.755932
O O7 0.470492 0.415166 0.000000
O O8 0.555609 0.944392 0.750000
O O9 0.499151 0.929019 0.500000
O O10 0.501484 0.851744 0.714646
O O11 0.444552 0.944552 0.750000
O O12 0.837929 0.662072 0.750000
O O13 0.790640 0.642269 0.500000
O O14 0.772521 0.574346 0.727196
O O15 0.774333 0.500900 0.500000
O O16 0.749735 0.472724 0.218106
O O17 0.299719 0.581810 0.000000
#
# Coordination Sequence:
#
# PCOD8314639 Si02
#       6
#    16  16  16  16  16  16
#     4  10  21  39  60  81 110 147 185 231 281 339
#     4   8  16  33  55  80 112 147 185 233 285 335
#     4  10  20  35  57  81 109 145 182 225 273 325
#     4   9  19  36  59  84 109 144 185 231 287 336
#     4  10  22  38  54  79 115 150 184 227 280 331
#     4  11  23  35  56  87 114 150 192 233 283 335
#
# _framework density 19.114605999999998
#
# number of rings (size 3 to 8) (size 9 to 14) (size 15 to 20)
#    0.000    2.333    0.000    3.000    2.333    3.333 
#    0.000    1.667    0.000    0.000    0.000    4.667 
#    0.000    0.000    0.000    0.000    0.000    0.000 
#
# Total GULP energy -1190526.623453 kJ/mol
# GULP energy per Si atom -12401.318994 kJ/mol
# Density = 1.907110 g / cm^3
# Si number density = 19.114606 Si / 1000 Ang^3
#
#
#
# Elastic Constant Matrix: (Units=GPa)
#
#
# Indices 1 2 3 4 5 6 
#
# 1 151.9416 67.9051 39.3164 0.0000 0.0000 0.0000
# 2 67.9051 151.9488 39.3340 0.0000 0.0000 0.0000
# 3 39.3164 39.3340 57.3121 0.0000 0.0000 0.0000
# 4 0.0000 0.0000 0.0000 25.7554 0.0000 0.0000
# 5 0.0000 0.0000 0.0000 0.0000 25.7548 0.0000
# 6 0.0000 0.0000 0.0000 0.0000 0.0000 26.6827
#
#
#
# Elastic Compliance Matrix: (Units=1/GPa)
#
#
# Indices 1 2 3 4 5 6 
#
# 1 0.008963 -0.002935 -0.004134 0.000000 0.000000 0.000000
# 2 -0.002935 0.008964 -0.004139 0.000000 0.000000 0.000000
# 3 -0.004134 -0.004139 0.023125 0.000000 0.000000 0.000000
# 4 0.000000 0.000000 0.000000 0.038827 0.000000 0.000000
# 5 0.000000 0.000000 0.000000 0.000000 0.038828 0.000000
# 6 0.000000 0.000000 0.000000 0.000000 0.000000 0.037477
#
#
# Mechanical properties :
#
#
# Convention : Reuss Voigt Hill
#
# Bulk Modulus (GPa) = 53.65999 72.70150 63.18074
# Shear Modulus (GPa) = 27.05448 29.94840 28.50144
#
# Velocity S-wave (km/s) = 3.76624 3.96255 3.86564
# Velocity P-wave (km/s) = 6.85904 7.68459 7.28352
#
# Compressibility (1/GPa) = 0.01863586
#
# Stress axis : x y z
#
# Youngs Moduli (GPa) = 111.56861 111.55343 43.24369
#
# Poissons Ratio (x) = 0.32745 0.17878
# Poissons Ratio (y) = 0.32750 0.17897
# Poissons Ratio (z) = 0.46124 0.46168
#
# Static dielectric constant tensor:
#      x y z
#    x 3.689450 0.000000 0.000000 
#    y 0.000000 3.689430 0.000000 
#    z 0.000000 0.000000 3.336770 
# 
# 
# High freq. dielectric constant tensor:
#      x y z
#    x 1.750670 0.000000 0.000000 
#    y 0.000000 1.750670 0.000000 
#    z 0.000000 0.000000 1.730600 
# 
# From -- ./inp_files/1422.got.cif
#   From: 2010.03.12/outbox.cif.g09.slc.cpg/sg128_1_cif.got.tgz:1422.got - 2010.04.06 17:11:05.
