data_PCOD8314899
_publ_section_title
;
Structure prediction by ZEFSAII (Michael W. Deem and Ramdas Pophale) SiO2 
 PCOD8314899
Probable space group: P 4/N M M
;
_chemical_formula_sum "Si O2"
_cell_formula_units_Z 112
_cell_length_a 20.050656
_cell_length_b 20.050656
_cell_length_c 17.219957
_cell_angle_alpha 90.000000
_cell_angle_beta 90.000000
_cell_angle_gamma 90.000000
_cell_volume 6922.918753
_symmetry_space_group_name_H-M "P 4/N M M"
_symmetry_group_IT_number 129
_symmetry_cell_setting 'tetragonal'
loop_
_space_group_symop_operation_xyz
x,y,z
1/2-y,x,z
1/2-x,1/2-y,z
y,1/2-x,z
1/2+x,-y,-z
-x,1/2+y,-z
1/2+y,1/2+x,-z
-y,-x,-z
-x,-y,-z
1/2+y,-x,-z
1/2+x,1/2+y,-z
-y,1/2+x,-z
1/2-x,y,z
x,1/2-y,z
1/2-y,1/2-x,z
y,x,z
loop_
_atom_site_type_symbol
_atom_site_label
_atom_site_fract_x
_atom_site_fract_y
_atom_site_fract_z
Si Si1 0.411093 0.519675 0.835821
Si Si2 0.376288 0.481840 0.113150
Si Si3 0.569591 0.824631 0.733523
Si Si4 0.894657 0.003433 0.601422
Si Si5 0.827099 0.937913 0.465987
Si Si6 0.326774 0.934212 0.976525
Si Si7 0.399759 0.509916 0.662799
O O1 0.448527 0.448527 0.848300
O O2 0.463271 0.579277 0.843884
O O3 0.353262 0.529763 0.899091
O O4 0.376553 0.525483 0.750787
O O5 0.424707 0.424707 0.078351
O O6 0.326625 0.451258 0.176611
O O7 0.332191 0.511679 0.044666
O O8 0.578180 0.750000 0.704322
O O9 0.640360 0.859640 0.720112
O O10 0.513589 0.860695 0.682983
O O11 0.954713 0.954713 0.579009
O O12 0.842244 0.994673 0.531002
O O13 0.923995 0.078384 0.613265
O O14 0.750000 0.916881 0.469842
O O15 0.871337 0.871337 0.478958
O O16 0.841663 0.970750 0.382082
O O17 0.250000 0.913167 0.964971
O O18 0.368713 0.868713 0.000000
O O19 0.466373 0.466373 0.670905
#
# Coordination Sequence:
#
# PCOD8314899 Si02
#       7
#    16  16  16  16  16  16  16
#     4   9  16  29  49  71  91 112 142 190 244 276
#     4   9  16  29  47  67  89 113 148 190 232 270
#     4  10  18  27  42  63  91 124 153 182 218 267
#     4   9  16  29  46  65  88 116 149 190 234 268
#     4  10  20  31  45  67  95 127 157 184 220 269
#     4  10  20  31  45  66  91 121 154 185 224 274
#     4   9  16  29  49  70  91 114 146 192 240 274
#
# _framework density 16.178148
#
# number of rings (size 3 to 8) (size 9 to 14) (size 15 to 20)
#    0.000    2.571    1.429    1.714    0.000    4.429 
#    0.000    0.000    0.000    2.571    0.000    0.000 
#    0.000   12.286    0.000    0.571    0.000    0.000 
#
# Total GULP energy -1388224.315736 kJ/mol
# GULP energy per Si atom -12394.859962 kJ/mol
# Density = 1.614133 g / cm^3
# Si number density = 16.178148 Si / 1000 Ang^3
#
#
#
# Elastic Constant Matrix: (Units=GPa)
#
#
# Indices 1 2 3 4 5 6 
#
# 1 66.2804 21.6939 26.2310 0.0000 0.0000 0.0000
# 2 21.6939 66.2804 26.2310 0.0000 0.0000 0.0000
# 3 26.2310 26.2310 92.6190 0.0000 0.0000 0.0000
# 4 0.0000 0.0000 0.0000 10.1046 0.0000 0.0000
# 5 0.0000 0.0000 0.0000 0.0000 10.1046 0.0000
# 6 0.0000 0.0000 0.0000 0.0000 0.0000 10.8090
#
#
#
# Elastic Compliance Matrix: (Units=1/GPa)
#
#
# Indices 1 2 3 4 5 6 
#
# 1 0.018053 -0.004376 -0.003873 0.000000 0.000000 0.000000
# 2 -0.004376 0.018053 -0.003873 0.000000 0.000000 0.000000
# 3 -0.003873 -0.003873 0.012991 0.000000 0.000000 0.000000
# 4 0.000000 0.000000 0.000000 0.098965 0.000000 0.000000
# 5 0.000000 0.000000 0.000000 0.000000 0.098965 0.000000
# 6 0.000000 0.000000 0.000000 0.000000 0.000000 0.092515
#
#
# Mechanical properties :
#
#
# Convention : Reuss Voigt Hill
#
# Bulk Modulus (GPa) = 40.24022 41.49905 40.86964
# Shear Modulus (GPa) = 13.43834 16.27191 14.85513
#
# Velocity S-wave (km/s) = 2.88522 3.17487 3.03350
# Velocity P-wave (km/s) = 6.00221 6.25673 6.13079
#
# Compressibility (1/GPa) = 0.02485076
#
# Stress axis : x y z
#
# Youngs Moduli (GPa) = 55.39380 55.39380 76.97659
#
# Poissons Ratio (x) = 0.24239 0.29817
# Poissons Ratio (y) = 0.24239 0.29817
# Poissons Ratio (z) = 0.21457 0.21457
#
# Static dielectric constant tensor:
#      x y z
#    x 2.818380 0.000000 0.000000 
#    y 0.000000 2.818380 0.000000 
#    z 0.000000 0.000000 3.280090 
# 
# 
# High freq. dielectric constant tensor:
#      x y z
#    x 1.593040 0.000000 0.000000 
#    y 0.000000 1.593040 0.000000 
#    z 0.000000 0.000000 1.638090 
# 
# From -- ./inp_files/6010.got.cif
#   From: 2010.03.12/outbox.cif.g09.slc.cpg/sg129_4_cif.got.tgz:6010.got - 2010.04.06 17:19:44.
