data_PCOD8314128
_publ_section_title
;
Structure prediction by ZEFSAII (Michael W. Deem and Ramdas Pophale) SiO2 
 PCOD8314128
Probable space group: P 4/M B M
;
_chemical_formula_sum "Si O2"
_cell_formula_units_Z 64
_cell_length_a 19.917819
_cell_length_b 19.917819
_cell_length_c 8.893569
_cell_angle_alpha 90.000000
_cell_angle_beta 90.000000
_cell_angle_gamma 90.000000
_cell_volume 3528.252369
_symmetry_space_group_name_H-M "P 4/M B M"
_symmetry_group_IT_number 127
_symmetry_cell_setting 'tetragonal'
loop_
_space_group_symop_operation_xyz
x,y,z
-y,x,z
-x,-y,z
y,-x,z
1/2+x,1/2-y,-z
1/2-x,1/2+y,-z
1/2+y,1/2+x,-z
1/2-y,1/2-x,-z
-x,-y,-z
y,-x,-z
x,y,-z
-y,x,-z
1/2-x,1/2+y,z
1/2+x,1/2-y,z
1/2-y,1/2-x,z
1/2+y,1/2+x,z
loop_
_atom_site_type_symbol
_atom_site_label
_atom_site_fract_x
_atom_site_fract_y
_atom_site_fract_z
Si Si1 0.070686 0.829607 0.322398
Si Si2 0.175553 0.568585 0.676162
Si Si3 0.931383 0.828914 0.822266
Si Si4 0.175253 0.431437 0.176423
O O1 0.072220 0.842349 0.500000
O O2 0.083644 0.752234 0.279237
O O3 0.129112 0.869978 0.241485
O O4 0.999427 0.853836 0.257260
O O5 0.168302 0.558714 0.500000
O O6 0.130292 0.630292 0.734515
O O7 0.149484 0.500419 0.751431
O O8 0.916499 0.751928 0.778137
O O9 0.938413 0.839217 0.000000
O O10 0.129650 0.370351 0.237215
O O11 0.167837 0.439509 0.000000
#
# Coordination Sequence:
#
# PCOD8314128 Si02
#       4
#    16  16  16  16
#     4  10  20  35  54  76 103 134 169 209 253 301
#     4   9  19  35  53  75 104 136 170 209 252 299
#     4  10  20  35  54  76 103 134 169 209 253 301
#     4   9  19  35  53  75 104 136 170 209 252 299
#
# _framework density 18.139292999999999
#
# number of rings (size 3 to 8) (size 9 to 14) (size 15 to 20)
#    0.000    2.500    0.000    1.500    0.000    5.000 
#    0.000    5.000    0.000    0.000    0.000    0.000 
#    0.000    0.000    0.000    0.000    0.000    0.000 
#
# Total GULP energy -793771.813923 kJ/mol
# GULP energy per Si atom -12402.684593 kJ/mol
# Density = 1.809801 g / cm^3
# Si number density = 18.139293 Si / 1000 Ang^3
#
#
#
# Elastic Constant Matrix: (Units=GPa)
#
#
# Indices 1 2 3 4 5 6 
#
# 1 103.3769 73.0184 23.7534 0.0000 0.0000 0.0000
# 2 73.0184 103.3769 23.7534 0.0000 0.0000 0.0000
# 3 23.7534 23.7534 25.8814 0.0000 0.0000 0.0000
# 4 0.0000 0.0000 0.0000 30.3918 0.0000 0.0000
# 5 0.0000 0.0000 0.0000 0.0000 30.3918 0.0000
# 6 0.0000 0.0000 0.0000 0.0000 0.0000 35.6261
#
#
#
# Elastic Compliance Matrix: (Units=1/GPa)
#
#
# Indices 1 2 3 4 5 6 
#
# 1 0.020235 -0.012705 -0.006911 0.000000 0.000000 0.000000
# 2 -0.012705 0.020235 -0.006911 0.000000 0.000000 0.000000
# 3 -0.006911 -0.006911 0.051324 0.000000 0.000000 0.000000
# 4 0.000000 0.000000 0.000000 0.032904 0.000000 0.000000
# 5 0.000000 0.000000 0.000000 0.000000 0.032904 0.000000
# 6 0.000000 0.000000 0.000000 0.000000 0.000000 0.028069
#
#
# Mechanical properties :
#
#
# Convention : Reuss Voigt Hill
#
# Bulk Modulus (GPa) = 25.81335 52.63171 39.22253
# Shear Modulus (GPa) = 19.86981 26.75594 23.31288
#
# Velocity S-wave (km/s) = 3.31328 3.84477 3.58888
# Velocity P-wave (km/s) = 5.37574 6.98484 6.23244
#
# Compressibility (1/GPa) = 0.03873964
#
# Stress axis : x y z
#
# Youngs Moduli (GPa) = 49.41919 49.41919 19.48412
#
# Poissons Ratio (x) = 0.62785 0.13466
# Poissons Ratio (y) = 0.62785 0.13466
# Poissons Ratio (z) = 0.34155 0.34155
#
# Static dielectric constant tensor:
#      x y z
#    x 3.488760 0.000000 0.000000 
#    y 0.000000 3.488760 0.000000 
#    z 0.000000 0.000000 3.346320 
# 
# 
# High freq. dielectric constant tensor:
#      x y z
#    x 1.704850 0.000000 0.000000 
#    y 0.000000 1.704850 0.000000 
#    z 0.000000 0.000000 1.706840 
# 
# From -- ./inp_files/1382.got.cif
#   From: 2010.03.12/outbox.cif.g09.slc.cpg/sg127_1_cif.got.tgz:1382.got - 2010.04.06 17:03:15.
