data_PCOD8314001
_publ_section_title
;
Structure prediction by ZEFSAII (Michael W. Deem and Ramdas Pophale) SiO2 
 PCOD8314001
Probable space group: P 4/M B M
;
_chemical_formula_sum "Si O2"
_cell_formula_units_Z 104
_cell_length_a 17.885167
_cell_length_b 17.885167
_cell_length_c 18.675812
_cell_angle_alpha 90.000000
_cell_angle_beta 90.000000
_cell_angle_gamma 90.000000
_cell_volume 5974.003776
_symmetry_space_group_name_H-M "P 4/M B M"
_symmetry_group_IT_number 127
_symmetry_cell_setting 'tetragonal'
loop_
_space_group_symop_operation_xyz
x,y,z
-y,x,z
-x,-y,z
y,-x,z
1/2+x,1/2-y,-z
1/2-x,1/2+y,-z
1/2+y,1/2+x,-z
1/2-y,1/2-x,-z
-x,-y,-z
y,-x,-z
x,y,-z
-y,x,-z
1/2-x,1/2+y,z
1/2+x,1/2-y,z
1/2-y,1/2-x,z
1/2+y,1/2+x,z
loop_
_atom_site_type_symbol
_atom_site_label
_atom_site_fract_x
_atom_site_fract_y
_atom_site_fract_z
Si Si1 0.091275 0.714815 0.837369
Si Si2 0.018317 0.724751 0.584717
Si Si3 0.239180 0.380859 0.679210
Si Si4 0.441436 0.058565 0.415255
Si Si5 0.200557 0.421313 0.835870
Si Si6 0.140180 0.762724 0.315323
Si Si7 0.181033 0.193532 0.919252
O O1 0.142961 0.642961 0.851436
O O2 0.094389 0.740415 0.755161
O O3 0.117973 0.785498 0.884914
O O4 0.007324 0.691578 0.859683
O O5 0.018572 0.734355 0.500000
O O6 0.938967 0.750899 0.615054
O O7 0.035188 0.640373 0.611080
O O8 0.083415 0.775319 0.618842
O O9 0.178938 0.321063 0.651636
O O10 0.210848 0.420590 0.750776
O O11 0.317302 0.340567 0.697060
O O12 0.444515 0.055486 0.500000
O O13 0.500000 0.000000 0.381387
O O14 0.126802 0.373199 0.857706
O O15 0.274545 0.388472 0.874029
O O16 0.198497 0.698497 0.336221
O O17 0.245490 0.254511 0.916830
O O18 0.154522 0.176742 0.000000
#
# Coordination Sequence:
#
# PCOD8314001 Si02
#       7
#    16  16  16   8  16  16  16
#     4  10  19  33  55  82 113 145 178 217 267 324
#     4  11  21  33  50  76 105 138 178 222 274 323
#     4  10  20  34  53  76 105 139 180 225 268 316
#     4   9  18  32  48  70 108 144 167 204 268 338
#     4  10  19  33  54  83 114 144 178 218 266 322
#     4  10  19  34  54  75 102 141 182 224 268 316
#     4   9  18  34  56  81 109 144 183 218 255 310
#
# _framework density 17.408760999999998
#
# number of rings (size 3 to 8) (size 9 to 14) (size 15 to 20)
#    0.000    2.077    3.846    0.462    0.000    2.462 
#    0.000    1.538    0.000    0.923    0.000    6.462 
#    0.000    0.000    0.000    0.000    0.000    0.000 
#
# Total GULP energy -1289587.955842 kJ/mol
# GULP energy per Si atom -12399.884191 kJ/mol
# Density = 1.736914 g / cm^3
# Si number density = 17.408761 Si / 1000 Ang^3
#
#
#
# Elastic Constant Matrix: (Units=GPa)
#
#
# Indices 1 2 3 4 5 6 
#
# 1 87.6769 48.0741 27.4522 0.0000 0.0000 0.0000
# 2 48.0741 87.6770 27.4522 0.0000 0.0000 0.0000
# 3 27.4522 27.4522 86.4928 0.0000 0.0000 0.0000
# 4 0.0000 0.0000 0.0000 22.3944 0.0000 0.0000
# 5 0.0000 0.0000 0.0000 0.0000 22.3944 0.0000
# 6 0.0000 0.0000 0.0000 0.0000 0.0000 16.3863
#
#
#
# Elastic Compliance Matrix: (Units=1/GPa)
#
#
# Indices 1 2 3 4 5 6 
#
# 1 0.016851 -0.008400 -0.002682 0.000000 0.000000 0.000000
# 2 -0.008400 0.016851 -0.002682 0.000000 0.000000 0.000000
# 3 -0.002682 -0.002682 0.013264 0.000000 0.000000 0.000000
# 4 0.000000 0.000000 0.000000 0.044654 0.000000 0.000000
# 5 0.000000 0.000000 0.000000 0.000000 0.044654 0.000000
# 6 0.000000 0.000000 0.000000 0.000000 0.000000 0.061027
#
#
# Mechanical properties :
#
#
# Convention : Reuss Voigt Hill
#
# Bulk Modulus (GPa) = 51.44699 51.97817 51.71258
# Shear Modulus (GPa) = 21.61609 22.82624 22.22116
#
# Velocity S-wave (km/s) = 3.52757 3.62497 3.57660
# Velocity P-wave (km/s) = 6.79766 6.88787 6.84292
#
# Compressibility (1/GPa) = 0.01943748
#
# Stress axis : x y z
#
# Youngs Moduli (GPa) = 59.34358 59.34367 75.38976
#
# Poissons Ratio (x) = 0.49847 0.20223
# Poissons Ratio (y) = 0.49847 0.20222
# Poissons Ratio (z) = 0.15918 0.15918
#
# Static dielectric constant tensor:
#      x y z
#    x 3.143440 0.000000 0.000000 
#    y 0.000000 3.143450 0.000000 
#    z 0.000000 0.000000 3.169250 
# 
# 
# High freq. dielectric constant tensor:
#      x y z
#    x 1.657140 0.000000 0.000000 
#    y 0.000000 1.657140 0.000000 
#    z 0.000000 0.000000 1.669450 
# 
# From -- ./inp_files/5231.got.cif
#   From: 2010.03.12/outbox.cif.g09.slc.cpg/sg127_3_cif.got.tgz:5231.got - 2010.04.06 17:03:15.
