data_PCOD8314197
_publ_section_title
;
Structure prediction by ZEFSAII (Michael W. Deem and Ramdas Pophale) SiO2 
 PCOD8314197
Probable space group: P 4/M B M
;
_chemical_formula_sum "Si O2"
_cell_formula_units_Z 120
_cell_length_a 26.782818
_cell_length_b 26.782818
_cell_length_c 10.021330
_cell_angle_alpha 90.000000
_cell_angle_beta 90.000000
_cell_angle_gamma 90.000000
_cell_volume 7188.493822
_symmetry_space_group_name_H-M "P 4/M B M"
_symmetry_group_IT_number 127
_symmetry_cell_setting 'tetragonal'
loop_
_space_group_symop_operation_xyz
x,y,z
-y,x,z
-x,-y,z
y,-x,z
1/2+x,1/2-y,-z
1/2-x,1/2+y,-z
1/2+y,1/2+x,-z
1/2-y,1/2-x,-z
-x,-y,-z
y,-x,-z
x,y,-z
-y,x,-z
1/2-x,1/2+y,z
1/2+x,1/2-y,z
1/2-y,1/2-x,z
1/2+y,1/2+x,z
loop_
_atom_site_type_symbol
_atom_site_label
_atom_site_fract_x
_atom_site_fract_y
_atom_site_fract_z
Si Si1 0.122284 0.939052 0.739184
Si Si2 0.283143 0.700091 0.356408
Si Si3 0.934530 0.767602 0.843367
Si Si4 0.360323 0.548808 0.648603
Si Si5 0.219280 0.362846 0.346685
Si Si6 0.855392 0.277022 0.151664
Si Si7 0.727848 0.452202 0.149955
Si Si8 0.048746 0.065648 0.000000
O O1 0.180191 0.926027 0.765521
O O2 0.094412 0.900271 0.641308
O O3 0.093241 0.929357 0.874471
O O4 0.114808 0.995678 0.688093
O O5 0.287606 0.671771 0.500000
O O6 0.240090 0.740090 0.369508
O O7 0.333865 0.728894 0.325160
O O8 0.270324 0.662807 0.237446
O O9 0.906613 0.723130 0.763222
O O10 0.992206 0.752262 0.829912
O O11 0.918356 0.770441 0.000000
O O12 0.338114 0.543076 0.500000
O O13 0.315785 0.562377 0.748530
O O14 0.215589 0.382473 0.500000
O O15 0.171453 0.328548 0.313777
O O16 0.829774 0.329774 0.197424
O O17 0.915410 0.276029 0.168930
O O18 0.839802 0.266024 0.000000
O O19 0.705780 0.446276 0.000000
O O20 0.989609 0.069450 0.000000
#
# Coordination Sequence:
#
# PCOD8314197 Si02
#       8
#    16  16  16  16  16  16  16   8
#     4  11  22  36  52  69  95 120 165 206 257 306
#     4   8  15  28  44  65  93 122 152 188 232 277
#     4  10  21  34  52  72  97 130 161 199 241 291
#     4  11  24  37  50  68  93 123 161 212 257 294
#     4   9  19  35  52  71  98 129 160 198 244 293
#     4   9  17  31  51  73  96 123 156 195 236 281
#     4   9  21  37  51  71 100 130 161 197 242 296
#     4  11  20  34  56  74  85 124 168 214 259 311
#
# _framework density 16.693345000000001
#
# number of rings (size 3 to 8) (size 9 to 14) (size 15 to 20)
#    0.000    2.333    2.000    1.200    3.733    4.267 
#    0.000    2.000    0.000    0.000    0.000    0.000 
#    0.000    0.533    0.000    6.667    0.000    1.067 
#
# Total GULP energy -1486906.966066 kJ/mol
# GULP energy per Si atom -12390.891384 kJ/mol
# Density = 1.665535 g / cm^3
# Si number density = 16.693345 Si / 1000 Ang^3
#
#
#
# Elastic Constant Matrix: (Units=GPa)
#
#
# Indices 1 2 3 4 5 6 
#
# 1 69.4824 42.8791 39.1678 0.0000 0.0000 0.0000
# 2 42.8791 69.4824 39.1678 0.0000 0.0000 0.0000
# 3 39.1678 39.1678 93.3584 0.0000 0.0000 0.0000
# 4 0.0000 0.0000 0.0000 20.9558 0.0000 0.0000
# 5 0.0000 0.0000 0.0000 0.0000 20.9558 0.0000
# 6 0.0000 0.0000 0.0000 0.0000 0.0000 27.7423
#
#
#
# Elastic Compliance Matrix: (Units=1/GPa)
#
#
# Indices 1 2 3 4 5 6 
#
# 1 0.025084 -0.012505 -0.005277 0.000000 0.000000 0.000000
# 2 -0.012505 0.025084 -0.005277 0.000000 0.000000 0.000000
# 3 -0.005277 -0.005277 0.015140 0.000000 0.000000 0.000000
# 4 0.000000 0.000000 0.000000 0.047719 0.000000 0.000000
# 5 0.000000 0.000000 0.000000 0.000000 0.047719 0.000000
# 6 0.000000 0.000000 0.000000 0.000000 0.000000 0.036046
#
#
# Mechanical properties :
#
#
# Convention : Reuss Voigt Hill
#
# Bulk Modulus (GPa) = 52.11576 52.75027 52.43302
# Shear Modulus (GPa) = 20.05541 21.33802 20.69671
#
# Velocity S-wave (km/s) = 3.46988 3.57912 3.52493
# Velocity P-wave (km/s) = 6.88046 6.98200 6.93142
#
# Compressibility (1/GPa) = 0.01918805
#
# Stress axis : x y z
#
# Youngs Moduli (GPa) = 39.86561 39.86561 66.05162
#
# Poissons Ratio (x) = 0.49852 0.34859
# Poissons Ratio (y) = 0.49852 0.34859
# Poissons Ratio (z) = 0.21039 0.21039
#
# Static dielectric constant tensor:
#      x y z
#    x 3.030690 0.000000 0.000000 
#    y 0.000000 3.030690 0.000000 
#    z 0.000000 0.000000 2.539470 
# 
# 
# High freq. dielectric constant tensor:
#      x y z
#    x 1.617390 0.000000 0.000000 
#    y 0.000000 1.617390 0.000000 
#    z 0.000000 0.000000 1.659320 
# 
# From -- ./inp_files/2384.got.cif
#   From: 2010.03.12/outbox.cif.g09.slc.cpg/sg127_2_cif.got.tgz:2384.got - 2010.04.06 17:03:15.
