data_PCOD8314269
_publ_section_title
;
Structure prediction by ZEFSAII (Michael W. Deem and Ramdas Pophale) SiO2 
 PCOD8314269
Probable space group: P 4/M B M
;
_chemical_formula_sum "Si O2"
_cell_formula_units_Z 112
_cell_length_a 14.470832
_cell_length_b 14.470832
_cell_length_c 27.866197
_cell_angle_alpha 90.000000
_cell_angle_beta 90.000000
_cell_angle_gamma 90.000000
_cell_volume 5835.320391
_symmetry_space_group_name_H-M "P 4/M B M"
_symmetry_group_IT_number 127
_symmetry_cell_setting 'tetragonal'
loop_
_space_group_symop_operation_xyz
x,y,z
-y,x,z
-x,-y,z
y,-x,z
1/2+x,1/2-y,-z
1/2-x,1/2+y,-z
1/2+y,1/2+x,-z
1/2-y,1/2-x,-z
-x,-y,-z
y,-x,-z
x,y,-z
-y,x,-z
1/2-x,1/2+y,z
1/2+x,1/2-y,z
1/2-y,1/2-x,z
1/2+y,1/2+x,z
loop_
_atom_site_type_symbol
_atom_site_label
_atom_site_fract_x
_atom_site_fract_y
_atom_site_fract_z
Si Si1 0.615320 0.732455 0.792119
Si Si2 0.393549 0.261330 0.098457
Si Si3 0.255429 0.902659 0.639616
Si Si4 0.649593 0.525481 0.553704
Si Si5 0.352659 0.998014 0.726121
Si Si6 0.390666 0.396293 0.710015
Si Si7 0.749163 0.099348 0.056706
O O1 0.705256 0.794745 0.790220
O O2 0.590871 0.708657 0.846583
O O3 0.527060 0.781858 0.767818
O O4 0.641033 0.639712 0.762414
O O5 0.332807 0.167194 0.093425
O O6 0.341918 0.346991 0.073101
O O7 0.495255 0.243843 0.076898
O O8 0.323961 0.823961 0.621650
O O9 0.229128 0.960808 0.592680
O O10 0.168933 0.852166 0.666711
O O11 0.301842 0.971577 0.677451
O O12 0.573909 0.604655 0.561633
O O13 0.691186 0.532530 0.500000
O O14 0.416581 0.083420 0.712027
O O15 0.412190 0.912190 0.746540
O O16 0.496202 0.371114 0.703791
O O17 0.658671 0.158671 0.073180
O O18 0.752495 0.091780 0.000000
#
# Coordination Sequence:
#
# PCOD8314269 Si02
#       7
#    16  16  16  16  16  16  16
#     4  10  21  38  57  82 113 148 189 236 286 334
#     4  10  23  40  61  91 124 157 202 256 306 363
#     4  11  21  34  55  82 110 144 187 235 282 330
#     4   9  19  37  58  78 105 142 183 229 283 340
#     4   9  19  36  56  78 109 150 192 231 278 341
#     4  11  22  35  51  76 112 150 186 225 272 330
#     4  10  22  41  65  90 120 160 201 250 307 362
#
# _framework density 19.193462
#
# number of rings (size 3 to 8) (size 9 to 14) (size 15 to 20)
#    0.000    2.000    1.429    2.143    2.000    3.429 
#    0.000    2.857    0.000    1.286    0.000    2.000 
#    0.000    0.000    0.000    0.000    0.000    0.000 
#
# Total GULP energy -1388268.990590 kJ/mol
# GULP energy per Si atom -12395.258845 kJ/mol
# Density = 1.914978 g / cm^3
# Si number density = 19.193462 Si / 1000 Ang^3
#
#
#
# Elastic Constant Matrix: (Units=GPa)
#
#
# Indices 1 2 3 4 5 6 
#
# 1 82.4717 15.9615 19.8880 0.0000 0.0000 0.0000
# 2 15.9615 82.4717 19.8880 0.0000 0.0000 0.0000
# 3 19.8880 19.8880 91.6173 0.0000 0.0000 0.0000
# 4 0.0000 0.0000 0.0000 27.7843 0.0000 0.0000
# 5 0.0000 0.0000 0.0000 0.0000 27.7843 0.0000
# 6 0.0000 0.0000 0.0000 0.0000 0.0000 14.6165
#
#
#
# Elastic Compliance Matrix: (Units=1/GPa)
#
#
# Indices 1 2 3 4 5 6 
#
# 1 0.013086 -0.001950 -0.002417 0.000000 0.000000 0.000000
# 2 -0.001950 0.013086 -0.002417 0.000000 0.000000 0.000000
# 3 -0.002417 -0.002417 0.011964 0.000000 0.000000 0.000000
# 4 0.000000 0.000000 0.000000 0.035992 0.000000 0.000000
# 5 0.000000 0.000000 0.000000 0.000000 0.035992 0.000000
# 6 0.000000 0.000000 0.000000 0.000000 0.000000 0.068416
#
#
# Mechanical properties :
#
#
# Convention : Reuss Voigt Hill
#
# Bulk Modulus (GPa) = 40.70498 40.89285 40.79891
# Shear Modulus (GPa) = 24.96351 27.42524 26.19438
#
# Velocity S-wave (km/s) = 3.61033 3.78416 3.69827
# Velocity P-wave (km/s) = 6.21555 6.35964 6.28801
#
# Compressibility (1/GPa) = 0.02456702
#
# Stress axis : x y z
#
# Youngs Moduli (GPa) = 76.41964 76.41964 83.58077
#
# Poissons Ratio (x) = 0.14899 0.20205
# Poissons Ratio (y) = 0.14899 0.20205
# Poissons Ratio (z) = 0.18473 0.18473
#
# Static dielectric constant tensor:
#      x y z
#    x 3.587070 0.000000 0.000000 
#    y 0.000000 3.587070 0.000000 
#    z 0.000000 0.000000 3.670280 
# 
# 
# High freq. dielectric constant tensor:
#      x y z
#    x 1.746090 0.000000 0.000000 
#    y 0.000000 1.746090 0.000000 
#    z 0.000000 0.000000 1.747660 
# 
# From -- ./inp_files/6403.got.cif
#   From: 2010.03.12/outbox.cif.g09.slc.cpg/sg127_4_cif.got.tgz:6403.got - 2010.04.06 17:03:15.
