data_PCOD8314809
_publ_section_title
;
Structure prediction by ZEFSAII (Michael W. Deem and Ramdas Pophale) SiO2 
 PCOD8314809
Probable space group: P 4/M N C
;
_chemical_formula_sum "Si O2"
_cell_formula_units_Z 88
_cell_length_a 12.362091
_cell_length_b 12.362091
_cell_length_c 26.789948
_cell_angle_alpha 90.000000
_cell_angle_beta 90.000000
_cell_angle_gamma 90.000000
_cell_volume 4094.074517
_symmetry_space_group_name_H-M "P 4/M N C"
_symmetry_group_IT_number 128
_symmetry_cell_setting 'tetragonal'
loop_
_space_group_symop_operation_xyz
x,y,z
-y,x,z
-x,-y,z
y,-x,z
1/2+x,1/2-y,1/2-z
1/2-x,1/2+y,1/2-z
1/2+y,1/2+x,1/2-z
1/2-y,1/2-x,1/2-z
-x,-y,-z
y,-x,-z
x,y,-z
-y,x,-z
1/2-x,1/2+y,1/2+z
1/2+x,1/2-y,1/2+z
1/2-y,1/2-x,1/2+z
1/2+y,1/2+x,1/2+z
loop_
_atom_site_type_symbol
_atom_site_label
_atom_site_fract_x
_atom_site_fract_y
_atom_site_fract_z
Si Si1 0.460629 0.328014 0.000000
Si Si2 0.502141 0.323427 0.172154
Si Si3 0.175957 0.500207 0.261705
Si Si4 0.829419 0.514600 0.441900
Si Si5 0.668098 0.991854 0.415991
Si Si6 0.993726 0.822536 0.854177
O O1 0.580856 0.371910 0.000000
O O2 0.441789 0.260287 0.049563
O O3 0.607583 0.394945 0.160925
O O4 0.501638 0.285202 0.229231
O O5 0.505575 0.215062 0.139279
O O6 0.104398 0.395603 0.250000
O O7 0.216803 0.494479 0.318763
O O8 0.109121 0.609121 0.250000
O O9 0.806877 0.488127 0.500000
O O10 0.905992 0.427607 0.415405
O O11 0.717339 0.514876 0.411633
O O12 0.892063 0.629008 0.437278
O O13 0.103094 0.889334 0.844556
#
# Coordination Sequence:
#
# PCOD8314809 Si02
#       6
#     8  16  16  16  16  16
#     4  11  22  35  56  88 126 163 200 247 310 374
#     4  11  24  40  62  95 133 169 207 254 311 384
#     4  11  24  43  67  98 127 162 208 259 314 379
#     4  11  23  43  66  91 122 168 221 268 316 372
#     4  11  21  41  62  91 128 163 207 265 314 370
#     4  11  26  45  64  92 130 166 209 267 318 370
#
# _framework density 21.494479999999999
#
# number of rings (size 3 to 8) (size 9 to 14) (size 15 to 20)
#    0.000    1.000    1.818    4.909    0.000   15.273 
#    0.000    0.909    0.000    0.000    0.000    0.000 
#    0.000    0.000    0.000    0.000    0.000    0.000 
#
# Total GULP energy -1091675.246387 kJ/mol
# GULP energy per Si atom -12405.400527 kJ/mol
# Density = 2.144556 g / cm^3
# Si number density = 21.494480 Si / 1000 Ang^3
#
#
#
# Elastic Constant Matrix: (Units=GPa)
#
#
# Indices 1 2 3 4 5 6 
#
# 1 105.3184 37.1347 38.6740 0.0000 0.0000 0.0000
# 2 37.1347 105.3188 38.6740 0.0000 0.0000 0.0000
# 3 38.6740 38.6740 121.9677 0.0000 0.0000 0.0000
# 4 0.0000 0.0000 0.0000 44.7971 0.0000 0.0000
# 5 0.0000 0.0000 0.0000 0.0000 44.7972 0.0000
# 6 0.0000 0.0000 0.0000 0.0000 0.0000 33.0295
#
#
#
# Elastic Compliance Matrix: (Units=1/GPa)
#
#
# Indices 1 2 3 4 5 6 
#
# 1 0.011573 -0.003093 -0.002689 0.000000 0.000000 0.000000
# 2 -0.003093 0.011573 -0.002689 0.000000 0.000000 0.000000
# 3 -0.002689 -0.002689 0.009904 0.000000 0.000000 0.000000
# 4 0.000000 0.000000 0.000000 0.022323 0.000000 0.000000
# 5 0.000000 0.000000 0.000000 0.000000 0.022323 0.000000
# 6 0.000000 0.000000 0.000000 0.000000 0.000000 0.030276
#
#
# Mechanical properties :
#
#
# Convention : Reuss Voigt Hill
#
# Bulk Modulus (GPa) = 62.07939 62.39668 62.23804
# Shear Modulus (GPa) = 38.37804 39.06623 38.72213
#
# Velocity S-wave (km/s) = 4.23008 4.26784 4.24900
# Velocity P-wave (km/s) = 7.26652 7.30603 7.28631
#
# Compressibility (1/GPa) = 0.01610841
#
# Stress axis : x y z
#
# Youngs Moduli (GPa) = 86.40782 86.40824 100.96882
#
# Poissons Ratio (x) = 0.26728 0.27149
# Poissons Ratio (y) = 0.26728 0.27148
# Poissons Ratio (z) = 0.23233 0.23233
#
# Static dielectric constant tensor:
#      x y z
#    x 3.857930 0.000000 0.000000 
#    y 0.000000 3.857930 0.000000 
#    z 0.000000 0.000000 3.869030 
# 
# 
# High freq. dielectric constant tensor:
#      x y z
#    x 1.845320 0.000000 0.000000 
#    y 0.000000 1.845320 0.000000 
#    z 0.000000 0.000000 1.853510 
# 
# From -- ./inp_files/7240.got.cif
#   From: 2010.03.12/outbox.cif.g09.slc.cpg/sg128_4_cif.got.tgz:7240.got - 2010.04.06 17:11:05.
