data_PCOD8314454
_publ_section_title
;
Structure prediction by ZEFSAII (Michael W. Deem and Ramdas Pophale) SiO2 
 PCOD8314454
Probable space group: P 4/M B M
;
_chemical_formula_sum "Si O2"
_cell_formula_units_Z 88
_cell_length_a 12.517082
_cell_length_b 12.517082
_cell_length_c 27.810331
_cell_angle_alpha 90.000000
_cell_angle_beta 90.000000
_cell_angle_gamma 90.000000
_cell_volume 4357.248736
_symmetry_space_group_name_H-M "P 4/M B M"
_symmetry_group_IT_number 127
_symmetry_cell_setting 'tetragonal'
loop_
_space_group_symop_operation_xyz
x,y,z
-y,x,z
-x,-y,z
y,-x,z
1/2+x,1/2-y,-z
1/2-x,1/2+y,-z
1/2+y,1/2+x,-z
1/2-y,1/2-x,-z
-x,-y,-z
y,-x,-z
x,y,-z
-y,x,-z
1/2-x,1/2+y,z
1/2+x,1/2-y,z
1/2-y,1/2-x,z
1/2+y,1/2+x,z
loop_
_atom_site_type_symbol
_atom_site_label
_atom_site_fract_x
_atom_site_fract_y
_atom_site_fract_z
Si Si1 0.673726 0.004526 0.000000
Si Si2 0.002275 0.825593 0.555176
Si Si3 0.000266 0.675263 0.358723
Si Si4 0.824227 0.500570 0.180617
Si Si5 0.324488 0.504165 0.090370
Si Si6 0.324121 0.497489 0.729854
O O1 0.741099 0.990783 0.952258
O O2 0.621773 0.121773 0.000000
O O3 0.584160 0.915841 0.000000
O O4 0.002782 0.788191 0.500000
O O5 0.106322 0.896402 0.566442
O O6 0.003785 0.719616 0.587204
O O7 0.105001 0.605001 0.348585
O O8 0.894307 0.605694 0.351313
O O9 0.997583 0.775976 0.323337
O O10 0.894105 0.605896 0.171691
O O11 0.731661 0.494850 0.141624
O O12 0.773164 0.505275 0.233088
O O13 0.895351 0.395351 0.176419
O O14 0.392005 0.397053 0.085810
O O15 0.396132 0.393125 0.737550
#
# Coordination Sequence:
#
# PCOD8314454 Si02
#       6
#     8  16  16  16  16  16
#     4  11  24  41  62  90 122 157 200 247 296 350
#     4   9  19  37  60  85 113 147 190 238 286 340
#     4  11  24  39  56  83 118 153 191 236 286 342
#     4  11  24  41  62  90 122 155 194 239 288 345
#     4  11  24  41  62  90 122 157 200 245 290 346
#     4  11  24  41  62  88 116 149 193 241 288 343
#
# _framework density 20.19623
#
# number of rings (size 3 to 8) (size 9 to 14) (size 15 to 20)
#    0.000    1.364    0.000    5.455    0.000   17.455 
#    0.000    2.727    0.000    0.000    0.000    0.000 
#    0.000    0.000    0.000    0.000    0.000    0.000 
#
# Total GULP energy -1091835.969809 kJ/mol
# GULP energy per Si atom -12407.226930 kJ/mol
# Density = 2.015026 g / cm^3
# Si number density = 20.196230 Si / 1000 Ang^3
#
#
#
# Elastic Constant Matrix: (Units=GPa)
#
#
# Indices 1 2 3 4 5 6 
#
# 1 101.7269 33.4716 27.7963 0.0000 0.0000 0.0000
# 2 33.4716 101.7231 27.7949 0.0000 0.0000 0.0000
# 3 27.7963 27.7949 99.5715 0.0000 0.0000 0.0000
# 4 0.0000 0.0000 0.0000 43.3509 0.0000 0.0000
# 5 0.0000 0.0000 0.0000 0.0000 43.3509 0.0000
# 6 0.0000 0.0000 0.0000 0.0000 0.0000 179.4471
#
#
#
# Elastic Compliance Matrix: (Units=1/GPa)
#
#
# Indices 1 2 3 4 5 6 
#
# 1 0.011503 -0.003148 -0.002333 0.000000 0.000000 0.000000
# 2 -0.003148 0.011504 -0.002332 0.000000 0.000000 0.000000
# 3 -0.002333 -0.002332 0.011345 0.000000 0.000000 0.000000
# 4 0.000000 0.000000 0.000000 0.023068 0.000000 0.000000
# 5 0.000000 0.000000 0.000000 0.000000 0.023068 0.000000
# 6 0.000000 0.000000 0.000000 0.000000 0.000000 0.005573
#
#
# Mechanical properties :
#
#
# Convention : Reuss Voigt Hill
#
# Bulk Modulus (GPa) = 53.39974 53.46079 53.43027
# Shear Modulus (GPa) = 46.32720 67.49370 56.91045
#
# Velocity S-wave (km/s) = 4.79462 5.78718 5.31412
# Velocity P-wave (km/s) = 7.55969 8.43703 8.01038
#
# Compressibility (1/GPa) = 0.01872668
#
# Stress axis : x y z
#
# Youngs Moduli (GPa) = 86.93142 86.92864 88.14233
#
# Poissons Ratio (x) = 0.27363 0.20560
# Poissons Ratio (y) = 0.27364 0.20559
# Poissons Ratio (z) = 0.20277 0.20276
#
# Static dielectric constant tensor:
#      x y z
#    x 3.735680 0.000000 0.000000 
#    y 0.000000 3.735680 0.000000 
#    z 0.000000 0.000000 3.717050 
# 
# 
# High freq. dielectric constant tensor:
#      x y z
#    x 1.797910 0.000000 0.000000 
#    y 0.000000 1.797910 0.000000 
#    z 0.000000 0.000000 1.804530 
# 
# From -- ./inp_files/6546.got.cif
#   From: 2010.03.12/outbox.cif.g09.slc.cpg/sg127_4_cif.got.tgz:6546.got - 2010.04.06 17:03:15.
