data_PCOD8314185
_publ_section_title
;
Structure prediction by ZEFSAII (Michael W. Deem and Ramdas Pophale) SiO2 
 PCOD8314185
Probable space group: P 4/M B M
;
_chemical_formula_sum "Si O2"
_cell_formula_units_Z 96
_cell_length_a 14.151112
_cell_length_b 14.151112
_cell_length_c 22.895091
_cell_angle_alpha 90.000000
_cell_angle_beta 90.000000
_cell_angle_gamma 90.000000
_cell_volume 4584.832885
_symmetry_space_group_name_H-M "P 4/M B M"
_symmetry_group_IT_number 127
_symmetry_cell_setting 'tetragonal'
loop_
_space_group_symop_operation_xyz
x,y,z
-y,x,z
-x,-y,z
y,-x,z
1/2+x,1/2-y,-z
1/2-x,1/2+y,-z
1/2+y,1/2+x,-z
1/2-y,1/2-x,-z
-x,-y,-z
y,-x,-z
x,y,-z
-y,x,-z
1/2-x,1/2+y,z
1/2+x,1/2-y,z
1/2-y,1/2-x,z
1/2+y,1/2+x,z
loop_
_atom_site_type_symbol
_atom_site_label
_atom_site_fract_x
_atom_site_fract_y
_atom_site_fract_z
Si Si1 0.233601 0.482720 0.153645
Si Si2 0.665673 0.683947 0.116863
Si Si3 0.879632 0.228533 0.566194
Si Si4 0.496829 0.151482 0.723932
Si Si5 0.239590 0.417437 0.613554
Si Si6 0.423488 0.923488 0.064800
Si Si7 0.626566 0.591879 0.000000
O O1 0.311428 0.555698 0.130511
O O2 0.282637 0.381469 0.165235
O O3 0.198509 0.526306 0.214414
O O4 0.156455 0.472724 0.103355
O O5 0.712319 0.787682 0.116100
O O6 0.682547 0.631341 0.055665
O O7 0.860279 0.194783 0.500000
O O8 0.827751 0.327751 0.578929
O O9 0.833733 0.147773 0.608480
O O10 0.991577 0.245872 0.572484
O O11 0.401308 0.098693 0.700520
O O12 0.537460 0.227634 0.677993
O O13 0.575408 0.075408 0.738014
O O14 0.146330 0.353671 0.596932
O O15 0.500000 0.000000 0.050547
O O16 0.387745 0.887745 0.000000
O O17 0.520457 0.631079 0.000000
#
# Coordination Sequence:
#
# PCOD8314185 Si02
#       7
#    16  16  16  16  16   8   8
#     4  12  25  42  63  93 125 165 212 267 333 396
#     4  12  25  41  63  89 121 161 209 261 328 405
#     4  10  21  38  62  94 134 176 217 270 327 383
#     4  10  20  39  66  92 125 167 216 272 326 385
#     4  10  22  39  62  94 130 174 225 272 326 387
#     4  11  24  42  62  88 122 157 208 274 336 386
#     4  11  23  42  64  82 117 165 202 254 330 404
#
# _framework density 20.938603000000001
#
# number of rings (size 3 to 8) (size 9 to 14) (size 15 to 20)
#    0.000    1.167    3.333    2.750    2.333    4.000 
#    0.000    5.000    0.000    2.000    0.000    0.000 
#    0.000    0.000    0.000    0.000    0.000    0.000 
#
# Total GULP energy -1189959.312669 kJ/mol
# GULP energy per Si atom -12395.409507 kJ/mol
# Density = 2.089095 g / cm^3
# Si number density = 20.938603 Si / 1000 Ang^3
#
#
#
# Elastic Constant Matrix: (Units=GPa)
#
#
# Indices 1 2 3 4 5 6 
#
# 1 102.7953 41.3679 31.0686 0.0000 0.0000 0.0000
# 2 41.3679 102.7953 31.0686 0.0000 0.0000 0.0000
# 3 31.0686 31.0686 101.3359 0.0000 0.0000 0.0000
# 4 0.0000 0.0000 0.0000 32.3066 0.0000 0.0000
# 5 0.0000 0.0000 0.0000 0.0000 32.3066 0.0000
# 6 0.0000 0.0000 0.0000 0.0000 0.0000 40.4653
#
#
#
# Elastic Compliance Matrix: (Units=1/GPa)
#
#
# Indices 1 2 3 4 5 6 
#
# 1 0.012136 -0.004143 -0.002451 0.000000 0.000000 0.000000
# 2 -0.004143 0.012136 -0.002451 0.000000 0.000000 0.000000
# 3 -0.002451 -0.002451 0.011371 0.000000 0.000000 0.000000
# 4 0.000000 0.000000 0.000000 0.030953 0.000000 0.000000
# 5 0.000000 0.000000 0.000000 0.000000 0.030953 0.000000
# 6 0.000000 0.000000 0.000000 0.000000 0.000000 0.024713
#
#
# Mechanical properties :
#
#
# Convention : Reuss Voigt Hill
#
# Bulk Modulus (GPa) = 56.96601 57.10406 57.03504
# Shear Modulus (GPa) = 34.19916 34.57713 34.38815
#
# Velocity S-wave (km/s) = 4.04580 4.06810 4.05697
# Velocity P-wave (km/s) = 7.00642 7.02832 7.01738
#
# Compressibility (1/GPa) = 0.01755433
#
# Stress axis : x y z
#
# Youngs Moduli (GPa) = 82.39884 82.39884 87.94477
#
# Poissons Ratio (x) = 0.34140 0.21551
# Poissons Ratio (y) = 0.34140 0.21551
# Poissons Ratio (z) = 0.20192 0.20192
#
# Static dielectric constant tensor:
#      x y z
#    x 3.776760 0.000000 0.000000 
#    y 0.000000 3.776760 0.000000 
#    z 0.000000 0.000000 3.692260 
# 
# 
# High freq. dielectric constant tensor:
#      x y z
#    x 1.821420 0.000000 0.000000 
#    y 0.000000 1.821420 0.000000 
#    z 0.000000 0.000000 1.810970 
# 
# From -- ./inp_files/5812.got.cif
#   From: 2010.03.12/outbox.cif.g09.slc.cpg/sg127_3_cif.got.tgz:5812.got - 2010.04.06 17:03:15.
