data_PCOD8314198
_publ_section_title
;
Structure prediction by ZEFSAII (Michael W. Deem and Ramdas Pophale) SiO2 
 PCOD8314198
Probable space group: P 4/M B M
;
_chemical_formula_sum "Si O2"
_cell_formula_units_Z 72
_cell_length_a 20.382008
_cell_length_b 20.382008
_cell_length_c 9.255320
_cell_angle_alpha 90.000000
_cell_angle_beta 90.000000
_cell_angle_gamma 90.000000
_cell_volume 3844.902881
_symmetry_space_group_name_H-M "P 4/M B M"
_symmetry_group_IT_number 127
_symmetry_cell_setting 'tetragonal'
loop_
_space_group_symop_operation_xyz
x,y,z
-y,x,z
-x,-y,z
y,-x,z
1/2+x,1/2-y,-z
1/2-x,1/2+y,-z
1/2+y,1/2+x,-z
1/2-y,1/2-x,-z
-x,-y,-z
y,-x,-z
x,y,-z
-y,x,-z
1/2-x,1/2+y,z
1/2+x,1/2-y,z
1/2-y,1/2-x,z
1/2+y,1/2+x,z
loop_
_atom_site_type_symbol
_atom_site_label
_atom_site_fract_x
_atom_site_fract_y
_atom_site_fract_z
Si Si1 0.302280 0.197721 0.667236
Si Si2 0.591538 0.546156 0.828780
Si Si3 0.953603 0.302628 0.669049
Si Si4 0.430556 0.734804 0.170741
Si Si5 0.794071 0.705930 0.171177
Si Si6 0.051092 0.551092 0.328306
O O1 0.287963 0.212038 0.500000
O O2 0.285626 0.122028 0.703332
O O3 0.256883 0.243118 0.763557
O O4 0.529181 0.587277 0.769920
O O5 0.659275 0.580075 0.779142
O O6 0.589005 0.543604 0.000000
O O7 0.968143 0.294547 0.500000
O O8 0.968175 0.376393 0.722973
O O9 0.001988 0.256923 0.757566
O O10 0.367808 0.776844 0.223624
O O11 0.439352 0.740817 0.000000
O O12 0.787913 0.712088 0.000000
O O13 0.049455 0.549455 0.500000
O O14 0.000000 0.500000 0.258803
#
# Coordination Sequence:
#
# PCOD8314198 Si02
#       6
#     8  16  16  16   8   8
#     4   9  20  39  58  79 107 141 185 232 271 322
#     4   8  15  29  50  74  97 129 176 217 251 306
#     4   9  19  35  55  79 103 133 179 224 264 316
#     4  10  21  34  52  78 111 143 174 219 273 325
#     4  10  23  37  51  81 117 146 182 227 273 334
#     4   8  15  30  53  75  95 127 172 215 250 304
#
# _framework density 18.726092000000001
#
# number of rings (size 3 to 8) (size 9 to 14) (size 15 to 20)
#    0.000    3.000    0.000    2.000    4.667    1.778 
#    0.000    1.667    0.000    0.667    0.000    1.556 
#    0.000    0.000    0.000    0.000    0.000    0.000 
#
# Total GULP energy -892389.216190 kJ/mol
# GULP energy per Si atom -12394.294669 kJ/mol
# Density = 1.868347 g / cm^3
# Si number density = 18.726092 Si / 1000 Ang^3
#
#
#
# Elastic Constant Matrix: (Units=GPa)
#
#
# Indices 1 2 3 4 5 6 
#
# 1 97.5911 55.9779 24.6877 0.0000 0.0000 0.0000
# 2 55.9779 97.5913 24.6878 0.0000 0.0000 0.0000
# 3 24.6877 24.6878 23.6811 0.0000 0.0000 0.0000
# 4 0.0000 0.0000 0.0000 25.8721 0.0000 0.0000
# 5 0.0000 0.0000 0.0000 0.0000 25.8722 0.0000
# 6 0.0000 0.0000 0.0000 0.0000 0.0000 37.1840
#
#
#
# Elastic Compliance Matrix: (Units=1/GPa)
#
#
# Indices 1 2 3 4 5 6 
#
# 1 0.016913 -0.007118 -0.010211 0.000000 0.000000 0.000000
# 2 -0.007118 0.016913 -0.010211 0.000000 0.000000 0.000000
# 3 -0.010211 -0.010211 0.063518 0.000000 0.000000 0.000000
# 4 0.000000 0.000000 0.000000 0.038652 0.000000 0.000000
# 5 0.000000 0.000000 0.000000 0.000000 0.038652 0.000000
# 6 0.000000 0.000000 0.000000 0.000000 0.000000 0.026893
#
#
# Mechanical properties :
#
#
# Convention : Reuss Voigt Hill
#
# Bulk Modulus (GPa) = 23.66123 47.73003 35.69563
# Shear Modulus (GPa) = 18.47002 25.35300 21.91151
#
# Velocity S-wave (km/s) = 3.14399 3.68351 3.42439
# Velocity P-wave (km/s) = 5.08354 6.60567 5.89395
#
# Compressibility (1/GPa) = 0.04226322
#
# Stress axis : x y z
#
# Youngs Moduli (GPa) = 59.12684 59.12674 15.74347
#
# Poissons Ratio (x) = 0.42086 0.16076
# Poissons Ratio (y) = 0.42086 0.16076
# Poissons Ratio (z) = 0.60375 0.60376
#
# Static dielectric constant tensor:
#      x y z
#    x 3.658900 0.000000 0.000000 
#    y 0.000000 3.658900 0.000000 
#    z 0.000000 0.000000 2.955710 
# 
# 
# High freq. dielectric constant tensor:
#      x y z
#    x 1.735200 0.000000 0.000000 
#    y 0.000000 1.735200 0.000000 
#    z 0.000000 0.000000 1.681300 
# 
# From -- ./inp_files/1606.got.cif
#   From: 2010.03.12/outbox.cif.g09.slc.cpg/sg127_1_cif.got.tgz:1606.got - 2010.04.06 17:03:15.
