data_PCOD8314939
_publ_section_title
;
Structure prediction by ZEFSAII (Michael W. Deem and Ramdas Pophale) SiO2 
 PCOD8314939
Probable space group: P 4/N M M
;
_chemical_formula_sum "Si O2"
_cell_formula_units_Z 112
_cell_length_a 18.636722
_cell_length_b 18.636722
_cell_length_c 21.255909
_cell_angle_alpha 90.000000
_cell_angle_beta 90.000000
_cell_angle_gamma 90.000000
_cell_volume 7382.759754
_symmetry_space_group_name_H-M "P 4/N M M"
_symmetry_group_IT_number 129
_symmetry_cell_setting 'tetragonal'
loop_
_space_group_symop_operation_xyz
x,y,z
1/2-y,x,z
1/2-x,1/2-y,z
y,1/2-x,z
1/2+x,-y,-z
-x,1/2+y,-z
1/2+y,1/2+x,-z
-y,-x,-z
-x,-y,-z
1/2+y,-x,-z
1/2+x,1/2+y,-z
-y,1/2+x,-z
1/2-x,y,z
x,1/2-y,z
1/2-y,1/2-x,z
y,x,z
loop_
_atom_site_type_symbol
_atom_site_label
_atom_site_fract_x
_atom_site_fract_y
_atom_site_fract_z
Si Si1 0.164830 0.670067 0.431734
Si Si2 0.617023 0.503138 0.998152
Si Si3 0.667875 0.406477 0.189950
Si Si4 0.903524 0.333242 0.306603
Si Si5 0.330088 0.543403 0.129531
Si Si6 0.329784 0.050848 0.871216
Si Si7 0.550217 0.832725 0.755433
O O1 0.139424 0.639424 0.500000
O O2 0.250000 0.674628 0.434216
O O3 0.133609 0.750000 0.418805
O O4 0.139443 0.616757 0.376398
O O5 0.578737 0.578737 0.984627
O O6 0.660038 0.508766 0.063027
O O7 0.559083 0.440918 0.000000
O O8 0.670398 0.486979 0.940895
O O9 0.750000 0.381714 0.178558
O O10 0.641469 0.381181 0.257985
O O11 0.616983 0.374386 0.135371
O O12 0.661834 0.492878 0.184711
O O13 0.881757 0.250000 0.296628
O O14 0.988708 0.343391 0.297406
O O15 0.250000 0.562722 0.150772
O O16 0.358582 0.482744 0.177723
O O17 0.250000 0.084436 0.870424
O O18 0.386426 0.113575 0.860441
O O19 0.576056 0.750000 0.757974
O O20 0.618259 0.881742 0.738365
#
# Coordination Sequence:
#
# PCOD8314939 Si02
#       7
#    16  16  16  16  16  16  16
#     4   8  13  22  39  64  92 121 151 177 201 236
#     4  10  18  30  48  65  81 106 140 178 220 264
#     4  10  19  29  42  62  88 117 147 175 204 246
#     4   9  17  28  43  64  90 121 150 177 209 249
#     4  10  19  30  45  63  85 111 140 175 213 258
#     4  10  21  35  50  67  85 108 142 184 227 269
#     4   9  18  30  44  63  83 107 141 179 222 267
#
# _framework density 15.170479
#
# number of rings (size 3 to 8) (size 9 to 14) (size 15 to 20)
#    0.000    2.571    1.429    3.000    0.000    4.286 
#    0.000    0.000    0.000    0.429    0.000    2.000 
#    0.000    0.000    0.000    0.000    0.000   18.000 
#
# Total GULP energy -1388236.921400 kJ/mol
# GULP energy per Si atom -12394.972513 kJ/mol
# Density = 1.513595 g / cm^3
# Si number density = 15.170479 Si / 1000 Ang^3
#
#
#
# Elastic Constant Matrix: (Units=GPa)
#
#
# Indices 1 2 3 4 5 6 
#
# 1 78.1414 46.7994 35.1556 0.0000 0.0000 0.0000
# 2 46.7994 78.1414 35.1557 0.0000 0.0000 0.0000
# 3 35.1556 35.1557 100.1861 0.0000 0.0000 0.0000
# 4 0.0000 0.0000 0.0000 16.9098 0.0000 0.0000
# 5 0.0000 0.0000 0.0000 0.0000 16.9099 0.0000
# 6 0.0000 0.0000 0.0000 0.0000 0.0000 23.2112
#
#
#
# Elastic Compliance Matrix: (Units=1/GPa)
#
#
# Indices 1 2 3 4 5 6 
#
# 1 0.020940 -0.010966 -0.003500 0.000000 0.000000 0.000000
# 2 -0.010966 0.020940 -0.003500 0.000000 0.000000 0.000000
# 3 -0.003500 -0.003500 0.012438 0.000000 0.000000 0.000000
# 4 0.000000 0.000000 0.000000 0.059137 0.000000 0.000000
# 5 0.000000 0.000000 0.000000 0.000000 0.059137 0.000000
# 6 0.000000 0.000000 0.000000 0.000000 0.000000 0.043083
#
#
# Mechanical properties :
#
#
# Convention : Reuss Voigt Hill
#
# Bulk Modulus (GPa) = 54.39098 54.52114 54.45606
# Shear Modulus (GPa) = 19.39987 20.69672 20.04830
#
# Velocity S-wave (km/s) = 3.57990 3.69762 3.63923
# Velocity P-wave (km/s) = 7.28139 7.36524 7.32344
#
# Compressibility (1/GPa) = 0.01838540
#
# Stress axis : x y z
#
# Youngs Moduli (GPa) = 47.75625 47.75622 80.40199
#
# Poissons Ratio (x) = 0.52372 0.28138
# Poissons Ratio (y) = 0.52372 0.28138
# Poissons Ratio (z) = 0.16713 0.16713
#
# Static dielectric constant tensor:
#      x y z
#    x 2.784880 0.000000 0.000000 
#    y 0.000000 2.784880 0.000000 
#    z 0.000000 0.000000 3.026250 
# 
# 
# High freq. dielectric constant tensor:
#      x y z
#    x 1.566840 0.000000 0.000000 
#    y 0.000000 1.566840 0.000000 
#    z 0.000000 0.000000 1.568370 
# 
# From -- ./inp_files/6633.got.cif
#   From: 2010.03.12/outbox.cif.g09.slc.cpg/sg129_4_cif.got.tgz:6633.got - 2010.04.06 17:19:44.
