data_PCOD8314292
_publ_section_title
;
Structure prediction by ZEFSAII (Michael W. Deem and Ramdas Pophale) SiO2 
 PCOD8314292
Probable space group: P 4/M B M
;
_chemical_formula_sum "Si O2"
_cell_formula_units_Z 96
_cell_length_a 14.645652
_cell_length_b 14.645652
_cell_length_c 22.915491
_cell_angle_alpha 90.000000
_cell_angle_beta 90.000000
_cell_angle_gamma 90.000000
_cell_volume 4915.261049
_symmetry_space_group_name_H-M "P 4/M B M"
_symmetry_group_IT_number 127
_symmetry_cell_setting 'tetragonal'
loop_
_space_group_symop_operation_xyz
x,y,z
-y,x,z
-x,-y,z
y,-x,z
1/2+x,1/2-y,-z
1/2-x,1/2+y,-z
1/2+y,1/2+x,-z
1/2-y,1/2-x,-z
-x,-y,-z
y,-x,-z
x,y,-z
-y,x,-z
1/2-x,1/2+y,z
1/2+x,1/2-y,z
1/2-y,1/2-x,z
1/2+y,1/2+x,z
loop_
_atom_site_type_symbol
_atom_site_label
_atom_site_fract_x
_atom_site_fract_y
_atom_site_fract_z
Si Si1 0.074368 0.574368 0.733553
Si Si2 0.242534 0.023807 0.680087
Si Si3 0.797937 0.549820 0.066810
Si Si4 0.137746 0.937053 0.147427
Si Si5 0.423154 0.076847 0.136102
Si Si6 0.965495 0.146613 0.564796
Si Si7 0.691602 0.653626 0.737218
O O1 0.030150 0.651757 0.694203
O O2 0.107038 0.607038 0.798267
O O3 0.000000 0.500000 0.747313
O O4 0.224084 0.053187 0.613158
O O5 0.189136 0.089907 0.724764
O O6 0.213905 0.918833 0.686844
O O7 0.865960 0.634041 0.073283
O O8 0.699445 0.582135 0.090624
O O9 0.834153 0.462202 0.103074
O O10 0.787617 0.519383 0.000000
O O11 0.196456 0.902776 0.202638
O O12 0.044786 0.880636 0.147507
O O13 0.500000 0.000000 0.135537
O O14 0.955302 0.189593 0.500000
O O15 0.066504 0.107212 0.573346
O O16 0.762842 0.737159 0.737194
#
# Coordination Sequence:
#
# PCOD8314292 Si02
#       7
#     8  16  16  16   8  16  16
#     4  11  24  41  61  93 135 177 210 255 327 398
#     4  12  22  38  64  93 130 165 212 269 325 388
#     4  10  21  40  65  91 120 158 209 262 311 374
#     4  11  24  41  61  86 123 164 202 255 317 379
#     4   9  19  38  65  91 120 159 204 256 307 363
#     4   9  18  34  60  93 126 163 211 270 323 372
#     4  12  24  39  62  93 128 168 211 266 326 386
#
# _framework density 19.531008
#
# number of rings (size 3 to 8) (size 9 to 14) (size 15 to 20)
#    0.000    1.333    4.167    2.750    0.000    3.333 
#    1.500    1.250    0.000    3.500    0.000    0.000 
#    0.000    0.000    0.000    0.000    0.000    0.000 
#
# Total GULP energy -1190346.220275 kJ/mol
# GULP energy per Si atom -12399.439795 kJ/mol
# Density = 1.948655 g / cm^3
# Si number density = 19.531008 Si / 1000 Ang^3
#
#
#
# Elastic Constant Matrix: (Units=GPa)
#
#
# Indices 1 2 3 4 5 6 
#
# 1 83.3518 10.6865 44.6502 0.0000 0.0000 0.0000
# 2 10.6865 83.3518 44.6502 0.0000 0.0000 0.0000
# 3 44.6502 44.6502 150.4737 0.0000 0.0000 0.0000
# 4 0.0000 0.0000 0.0000 41.2059 0.0000 0.0000
# 5 0.0000 0.0000 0.0000 0.0000 41.2059 0.0000
# 6 0.0000 0.0000 0.0000 0.0000 0.0000 33.0095
#
#
#
# Elastic Compliance Matrix: (Units=1/GPa)
#
#
# Indices 1 2 3 4 5 6 
#
# 1 0.014284 0.000522 -0.004393 0.000000 0.000000 0.000000
# 2 0.000522 0.014284 -0.004393 0.000000 0.000000 0.000000
# 3 -0.004393 -0.004393 0.009253 0.000000 0.000000 0.000000
# 4 0.000000 0.000000 0.000000 0.024268 0.000000 0.000000
# 5 0.000000 0.000000 0.000000 0.000000 0.024268 0.000000
# 6 0.000000 0.000000 0.000000 0.000000 0.000000 0.030294
#
#
# Mechanical properties :
#
#
# Convention : Reuss Voigt Hill
#
# Bulk Modulus (GPa) = 46.96730 57.46126 52.21428
# Shear Modulus (GPa) = 35.64344 37.56362 36.60353
#
# Velocity S-wave (km/s) = 4.27660 4.39028 4.33381
# Velocity P-wave (km/s) = 6.96315 7.42858 7.19963
#
# Compressibility (1/GPa) = 0.02129141
#
# Stress axis : x y z
#
# Youngs Moduli (GPa) = 70.00902 70.00902 108.07304
#
# Poissons Ratio (x) = -0.03655 0.47481
# Poissons Ratio (y) = -0.03655 0.47481
# Poissons Ratio (z) = 0.30758 0.30758
#
# Static dielectric constant tensor:
#      x y z
#    x 3.412920 0.000000 0.000000 
#    y 0.000000 3.412920 0.000000 
#    z 0.000000 0.000000 3.614680 
# 
# 
# High freq. dielectric constant tensor:
#      x y z
#    x 1.752980 0.000000 0.000000 
#    y 0.000000 1.752980 0.000000 
#    z 0.000000 0.000000 1.761940 
# 
# From -- ./inp_files/5818.got.cif
#   From: 2010.03.12/outbox.cif.g09.slc.cpg/sg127_3_cif.got.tgz:5818.got - 2010.04.06 17:03:15.
