data_PCOD8314677
_publ_section_title
;
Structure prediction by ZEFSAII (Michael W. Deem and Ramdas Pophale) SiO2 
 PCOD8314677
Probable space group: P 4/M N C
;
_chemical_formula_sum "Si O2"
_cell_formula_units_Z 56
_cell_length_a 12.194060
_cell_length_b 12.194060
_cell_length_c 19.043409
_cell_angle_alpha 90.000000
_cell_angle_beta 90.000000
_cell_angle_gamma 90.000000
_cell_volume 2831.661592
_symmetry_space_group_name_H-M "P 4/M N C"
_symmetry_group_IT_number 128
_symmetry_cell_setting 'tetragonal'
loop_
_space_group_symop_operation_xyz
x,y,z
-y,x,z
-x,-y,z
y,-x,z
1/2+x,1/2-y,1/2-z
1/2-x,1/2+y,1/2-z
1/2+y,1/2+x,1/2-z
1/2-y,1/2-x,1/2-z
-x,-y,-z
y,-x,-z
x,y,-z
-y,x,-z
1/2-x,1/2+y,1/2+z
1/2+x,1/2-y,1/2+z
1/2-y,1/2-x,1/2+z
1/2+y,1/2+x,1/2+z
loop_
_atom_site_type_symbol
_atom_site_label
_atom_site_fract_x
_atom_site_fract_y
_atom_site_fract_z
Si Si1 0.124134 0.466051 0.314379
Si Si2 0.727552 0.221555 0.111987
Si Si3 0.814980 0.314980 0.750000
Si Si4 0.854847 0.888655 0.000000
Si Si5 0.402563 0.652151 0.000000
O O1 0.118343 0.381658 0.250000
O O2 0.185545 0.403282 0.376656
O O3 0.198147 0.565300 0.284906
O O4 0.000000 0.500000 0.337147
O O5 0.736450 0.290048 0.184185
O O6 0.841049 0.208878 0.068472
O O7 0.635054 0.284434 0.069011
O O8 0.980657 0.847606 0.000000
O O9 0.349399 0.532791 0.000000
#
# Coordination Sequence:
#
# PCOD8314677 Si02
#       5
#    16  16   8   8   8
#     4   9  20  36  56  91 120 144 194 256 288 355
#     4  11  21  39  64  87 119 163 199 241 312 354
#     4  10  21  34  65  92 122 146 202 248 303 348
#     4  10  22  40  57  85 127 159 200 246 290 360
#     4  10  26  42  57  85 125 163 204 250 298 366
#
# _framework density 19.776375999999999
#
# number of rings (size 3 to 8) (size 9 to 14) (size 15 to 20)
#    0.000    2.286    1.429    1.714    8.000    0.000 
#    0.000    1.429    0.000    3.429    0.000    0.000 
#    0.000    0.000    0.000    0.000    0.000    0.000 
#
# Total GULP energy -693875.343049 kJ/mol
# GULP energy per Si atom -12390.631126 kJ/mol
# Density = 1.973136 g / cm^3
# Si number density = 19.776376 Si / 1000 Ang^3
#
#
#
# Elastic Constant Matrix: (Units=GPa)
#
#
# Indices 1 2 3 4 5 6 
#
# 1 76.5538 45.7638 50.6057 0.0000 0.0000 0.0000
# 2 45.7638 76.5537 50.6055 0.0000 0.0000 0.0000
# 3 50.6057 50.6055 133.0621 0.0000 0.0000 0.0000
# 4 0.0000 0.0000 0.0000 25.9976 0.0000 0.0000
# 5 0.0000 0.0000 0.0000 0.0000 25.9975 0.0000
# 6 0.0000 0.0000 0.0000 0.0000 0.0000 34.1787
#
#
#
# Elastic Compliance Matrix: (Units=1/GPa)
#
#
# Indices 1 2 3 4 5 6 
#
# 1 0.022204 -0.010274 -0.004537 0.000000 0.000000 0.000000
# 2 -0.010274 0.022204 -0.004537 0.000000 0.000000 0.000000
# 3 -0.004537 -0.004537 0.010966 0.000000 0.000000 0.000000
# 4 0.000000 0.000000 0.000000 0.038465 0.000000 0.000000
# 5 0.000000 0.000000 0.000000 0.000000 0.038465 0.000000
# 6 0.000000 0.000000 0.000000 0.000000 0.000000 0.029258
#
#
# Mechanical properties :
#
#
# Convention : Reuss Voigt Hill
#
# Bulk Modulus (GPa) = 59.96140 64.45775 62.20958
# Shear Modulus (GPa) = 24.29329 26.51438 25.40383
#
# Velocity S-wave (km/s) = 3.50866 3.66554 3.58796
# Velocity P-wave (km/s) = 6.84103 7.11189 6.97778
#
# Compressibility (1/GPa) = 0.01667740
#
# Stress axis : x y z
#
# Youngs Moduli (GPa) = 45.03717 45.03723 91.18869
#
# Poissons Ratio (x) = 0.46273 0.41373
# Poissons Ratio (y) = 0.46273 0.41372
# Poissons Ratio (z) = 0.20433 0.20433
#
# Static dielectric constant tensor:
#      x y z
#    x 3.516220 0.000000 0.000000 
#    y 0.000000 3.516230 0.000000 
#    z 0.000000 0.000000 3.649200 
# 
# 
# High freq. dielectric constant tensor:
#      x y z
#    x 1.766290 0.000000 0.000000 
#    y 0.000000 1.766290 0.000000 
#    z 0.000000 0.000000 1.776880 
# 
# From -- ./inp_files/5366.got.cif
#   From: 2010.03.12/outbox.cif.g09.slc.cpg/sg128_3_cif.got.tgz:5366.got - 2010.04.06 17:11:05.
