data_PCOD8314902
_publ_section_title
;
Structure prediction by ZEFSAII (Michael W. Deem and Ramdas Pophale) SiO2 
 PCOD8314902
Probable space group: P 4/N M M
;
_chemical_formula_sum "Si O2"
_cell_formula_units_Z 128
_cell_length_a 22.256539
_cell_length_b 22.256539
_cell_length_c 16.793829
_cell_angle_alpha 90.000000
_cell_angle_beta 90.000000
_cell_angle_gamma 90.000000
_cell_volume 8318.882448
_symmetry_space_group_name_H-M "P 4/N M M"
_symmetry_group_IT_number 129
_symmetry_cell_setting 'tetragonal'
loop_
_space_group_symop_operation_xyz
x,y,z
1/2-y,x,z
1/2-x,1/2-y,z
y,1/2-x,z
1/2+x,-y,-z
-x,1/2+y,-z
1/2+y,1/2+x,-z
-y,-x,-z
-x,-y,-z
1/2+y,-x,-z
1/2+x,1/2+y,-z
-y,1/2+x,-z
1/2-x,y,z
x,1/2-y,z
1/2-y,1/2-x,z
y,x,z
loop_
_atom_site_type_symbol
_atom_site_label
_atom_site_fract_x
_atom_site_fract_y
_atom_site_fract_z
Si Si1 0.816644 0.990222 0.053877
Si Si2 0.584677 0.681648 0.742667
Si Si3 0.129100 0.030171 0.108422
Si Si4 0.184478 0.087911 0.800208
Si Si5 0.079151 0.178862 0.439466
Si Si6 0.433674 0.967229 0.870080
Si Si7 0.993723 0.894584 0.290429
Si Si8 0.493824 0.594913 0.465279
O O1 0.750000 0.019857 0.065710
O O2 0.820557 0.930137 0.107209
O O3 0.871096 0.033562 0.081238
O O4 0.822206 0.971719 0.961693
O O5 0.601655 0.750000 0.758527
O O6 0.645595 0.645595 0.757676
O O7 0.533763 0.660727 0.805261
O O8 0.560922 0.671596 0.653068
O O9 0.087126 0.087126 0.094326
O O10 0.090787 0.969492 0.102572
O O11 0.250000 0.109131 0.775910
O O12 0.143185 0.143185 0.780160
O O13 0.167709 0.030440 0.746096
O O14 0.089084 0.250000 0.460736
O O15 0.140700 0.140700 0.457490
O O16 0.022170 0.151741 0.487533
O O17 0.471043 0.028958 0.888068
O O18 0.423189 0.961218 0.774789
O O19 0.937713 0.937713 0.304518
O O20 0.024027 0.883826 0.375987
O O21 0.431113 0.568888 0.500000
O O22 0.542247 0.542247 0.466216
#
# Coordination Sequence:
#
# PCOD8314902 Si02
#       8
#    16  16  16  16  16  16  16  16
#     4  10  18  28  41  58  84 114 142 175 218 270
#     4   9  18  30  43  62  89 121 156 189 220 255
#     4  10  18  27  44  64  85 112 146 190 230 267
#     4   9  17  28  41  56  79 111 146 183 217 251
#     4   9  18  31  45  64  92 125 160 194 225 264
#     4   9  17  28  44  64  86 110 142 182 225 272
#     4   8  15  27  40  58  80 104 133 171 219 269
#     4   9  17  27  44  65  87 113 145 184 230 279
#
# _framework density 15.386680999999999
#
# number of rings (size 3 to 8) (size 9 to 14) (size 15 to 20)
#    0.000    2.875    0.000    2.625    1.750    1.875 
#    0.000    1.250    0.000    0.000    0.000    5.250 
#    0.000    8.750    0.000    2.750    0.000    0.125 
#
# Total GULP energy -1586030.666931 kJ/mol
# GULP energy per Si atom -12390.864585 kJ/mol
# Density = 1.535166 g / cm^3
# Si number density = 15.386681 Si / 1000 Ang^3
#
#
#
# Elastic Constant Matrix: (Units=GPa)
#
#
# Indices 1 2 3 4 5 6 
#
# 1 60.4006 34.2803 32.9907 0.0000 0.0000 0.0000
# 2 34.2803 60.4002 32.9905 0.0000 0.0000 0.0000
# 3 32.9907 32.9905 101.6240 0.0000 0.0000 0.0000
# 4 0.0000 0.0000 0.0000 15.8236 0.0000 0.0000
# 5 0.0000 0.0000 0.0000 0.0000 15.8237 0.0000
# 6 0.0000 0.0000 0.0000 0.0000 0.0000 12.4152
#
#
#
# Elastic Compliance Matrix: (Units=1/GPa)
#
#
# Indices 1 2 3 4 5 6 
#
# 1 0.025967 -0.012317 -0.004431 0.000000 0.000000 0.000000
# 2 -0.012317 0.025967 -0.004431 0.000000 0.000000 0.000000
# 3 -0.004431 -0.004431 0.012717 0.000000 0.000000 0.000000
# 4 0.000000 0.000000 0.000000 0.063197 0.000000 0.000000
# 5 0.000000 0.000000 0.000000 0.000000 0.063196 0.000000
# 6 0.000000 0.000000 0.000000 0.000000 0.000000 0.080547
#
#
# Mechanical properties :
#
#
# Convention : Reuss Voigt Hill
#
# Bulk Modulus (GPa) = 44.85896 46.99421 45.92658
# Shear Modulus (GPa) = 15.55781 16.95670 16.25726
#
# Velocity S-wave (km/s) = 3.18326 3.32330 3.25403
# Velocity P-wave (km/s) = 6.53671 6.73307 6.63561
#
# Compressibility (1/GPa) = 0.02229209
#
# Stress axis : x y z
#
# Youngs Moduli (GPa) = 38.51012 38.50993 78.63346
#
# Poissons Ratio (x) = 0.47434 0.34844
# Poissons Ratio (y) = 0.47435 0.34844
# Poissons Ratio (z) = 0.17065 0.17064
#
# Static dielectric constant tensor:
#      x y z
#    x 2.797190 0.000000 0.000000 
#    y 0.000000 2.797190 0.000000 
#    z 0.000000 0.000000 3.221110 
# 
# 
# High freq. dielectric constant tensor:
#      x y z
#    x 1.559940 0.000000 0.000000 
#    y 0.000000 1.559940 0.000000 
#    z 0.000000 0.000000 1.606480 
# 
# From -- ./inp_files/6101.got.cif
#   From: 2010.03.12/outbox.cif.g09.slc.cpg/sg129_4_cif.got.tgz:6101.got - 2010.04.06 17:19:44.
