data_PCOD8314262
_publ_section_title
;
Structure prediction by ZEFSAII (Michael W. Deem and Ramdas Pophale) SiO2 
 PCOD8314262
Probable space group: P 4/M B M
;
_chemical_formula_sum "Si O2"
_cell_formula_units_Z 72
_cell_length_a 13.089652
_cell_length_b 13.089652
_cell_length_c 21.747320
_cell_angle_alpha 90.000000
_cell_angle_beta 90.000000
_cell_angle_gamma 90.000000
_cell_volume 3726.163833
_symmetry_space_group_name_H-M "P 4/M B M"
_symmetry_group_IT_number 127
_symmetry_cell_setting 'tetragonal'
loop_
_space_group_symop_operation_xyz
x,y,z
-y,x,z
-x,-y,z
y,-x,z
1/2+x,1/2-y,-z
1/2-x,1/2+y,-z
1/2+y,1/2+x,-z
1/2-y,1/2-x,-z
-x,-y,-z
y,-x,-z
x,y,-z
-y,x,-z
1/2-x,1/2+y,z
1/2+x,1/2-y,z
1/2-y,1/2-x,z
1/2+y,1/2+x,z
loop_
_atom_site_type_symbol
_atom_site_label
_atom_site_fract_x
_atom_site_fract_y
_atom_site_fract_z
Si Si1 0.482826 0.330695 0.133184
Si Si2 0.166037 0.499364 0.236255
Si Si3 0.125718 0.792912 0.567493
Si Si4 0.483148 0.333240 0.000000
Si Si5 0.566254 0.234113 0.365200
O O1 0.589899 0.389792 0.141372
O O2 0.470206 0.241222 0.181841
O O3 0.477157 0.274428 0.065558
O O4 0.093660 0.406341 0.214977
O O5 0.235026 0.465214 0.293881
O O6 0.097612 0.597612 0.254380
O O7 0.098348 0.839431 0.500000
O O8 0.221735 0.721735 0.558843
O O9 0.158134 0.880291 0.616663
O O10 0.033411 0.725102 0.592860
O O11 0.589191 0.390750 0.000000
O O12 0.636367 0.136367 0.379871
#
# Coordination Sequence:
#
# PCOD8314262 Si02
#       5
#    16  16  16   8  16
#     4   9  18  33  57  86 114 145 187 232 278 330
#     4  10  22  38  55  78 110 151 193 228 272 331
#     4  10  21  37  59  85 109 140 184 228 275 330
#     4   7  12  28  52  79 112 148 182 225 274 325
#     4  10  22  39  57  79 113 149 182 224 277 333
#
# _framework density 19.322821000000001
#
# number of rings (size 3 to 8) (size 9 to 14) (size 15 to 20)
#    0.000    2.556    0.000    2.667    3.111    4.000 
#    0.000    3.333    0.000    5.333    0.000    0.000 
#    0.000    0.000    0.000    0.000    0.000    0.000 
#
# Total GULP energy -892137.258123 kJ/mol
# GULP energy per Si atom -12390.795252 kJ/mol
# Density = 1.927884 g / cm^3
# Si number density = 19.322821 Si / 1000 Ang^3
#
#
#
# Elastic Constant Matrix: (Units=GPa)
#
#
# Indices 1 2 3 4 5 6 
#
# 1 69.6901 12.4834 50.8881 0.0000 0.0000 0.0000
# 2 12.4834 69.6901 50.8881 0.0000 0.0000 0.0000
# 3 50.8881 50.8881 151.9298 0.0000 0.0000 0.0000
# 4 0.0000 0.0000 0.0000 28.0037 0.0000 0.0000
# 5 0.0000 0.0000 0.0000 0.0000 28.0037 0.0000
# 6 0.0000 0.0000 0.0000 0.0000 0.0000 19.0359
#
#
#
# Elastic Compliance Matrix: (Units=1/GPa)
#
#
# Indices 1 2 3 4 5 6 
#
# 1 0.019139 0.001658 -0.006966 0.000000 0.000000 0.000000
# 2 0.001658 0.019139 -0.006966 0.000000 0.000000 0.000000
# 3 -0.006966 -0.006966 0.011248 0.000000 0.000000 0.000000
# 4 0.000000 0.000000 0.000000 0.035710 0.000000 0.000000
# 5 0.000000 0.000000 0.000000 0.000000 0.035710 0.000000
# 6 0.000000 0.000000 0.000000 0.000000 0.000000 0.052532
#
#
# Mechanical properties :
#
#
# Convention : Reuss Voigt Hill
#
# Bulk Modulus (GPa) = 40.03382 57.75878 48.89630
# Shear Modulus (GPa) = 24.23064 26.81201 25.52132
#
# Velocity S-wave (km/s) = 3.54501 3.72907 3.63821
# Velocity P-wave (km/s) = 6.12532 6.96402 6.55809
#
# Compressibility (1/GPa) = 0.02497888
#
# Stress axis : x y z
#
# Youngs Moduli (GPa) = 52.25017 52.25017 88.90218
#
# Poissons Ratio (x) = -0.08664 0.61928
# Poissons Ratio (y) = -0.08664 0.61928
# Poissons Ratio (z) = 0.36397 0.36397
#
# Static dielectric constant tensor:
#      x y z
#    x 3.356060 0.000000 0.000000 
#    y 0.000000 3.356060 0.000000 
#    z 0.000000 0.000000 3.939750 
# 
# 
# High freq. dielectric constant tensor:
#      x y z
#    x 1.733090 0.000000 0.000000 
#    y 0.000000 1.733090 0.000000 
#    z 0.000000 0.000000 1.767810 
# 
# From -- ./inp_files/4971.got.cif
#   From: 2010.03.12/outbox.cif.g09.slc.cpg/sg127_3_cif.got.tgz:4971.got - 2010.04.06 17:03:15.
