data_PCOD8314866
_publ_section_title
;
Structure prediction by ZEFSAII (Michael W. Deem and Ramdas Pophale) SiO2 
 PCOD8314866
Probable space group: P 4/N M M
;
_chemical_formula_sum "Si O2"
_cell_formula_units_Z 96
_cell_length_a 19.267936
_cell_length_b 19.267936
_cell_length_c 16.602744
_cell_angle_alpha 90.000000
_cell_angle_beta 90.000000
_cell_angle_gamma 90.000000
_cell_volume 6163.824457
_symmetry_space_group_name_H-M "P 4/N M M"
_symmetry_group_IT_number 129
_symmetry_cell_setting 'tetragonal'
loop_
_space_group_symop_operation_xyz
x,y,z
1/2-y,x,z
1/2-x,1/2-y,z
y,1/2-x,z
1/2+x,-y,-z
-x,1/2+y,-z
1/2+y,1/2+x,-z
-y,-x,-z
-x,-y,-z
1/2+y,-x,-z
1/2+x,1/2+y,-z
-y,1/2+x,-z
1/2-x,y,z
x,1/2-y,z
1/2-y,1/2-x,z
y,x,z
loop_
_atom_site_type_symbol
_atom_site_label
_atom_site_fract_x
_atom_site_fract_y
_atom_site_fract_z
Si Si1 0.460827 0.924814 0.583379
Si Si2 0.578919 0.465126 0.249722
Si Si3 0.887379 0.002427 0.984868
Si Si4 0.026753 0.672428 0.817067
Si Si5 0.442867 0.170003 0.855060
Si Si6 0.672485 0.559604 0.664407
O O1 0.417390 0.917390 0.500000
O O2 0.411875 0.955185 0.654271
O O3 0.492915 0.851543 0.611779
O O4 0.525114 0.974887 0.567758
O O5 0.506553 0.506553 0.230567
O O6 0.578980 0.390131 0.205894
O O7 0.643692 0.508917 0.218014
O O8 0.836015 0.003591 0.909155
O O9 0.922794 0.077207 0.000000
O O10 0.946686 0.946686 0.967413
O O11 0.841619 0.983102 0.061797
O O12 0.060319 0.750000 0.807137
O O13 0.959966 0.667153 0.758706
O O14 0.426346 0.250000 0.841225
O O15 0.369952 0.130049 0.855251
O O16 0.750000 0.578361 0.638161
O O17 0.626621 0.626621 0.646795
#
# Coordination Sequence:
#
# PCOD8314866 Si02
#       6
#    16  16  16  16  16  16
#     4   8  14  26  45  66  86 109 141 186 232 266
#     4   9  16  29  47  66  88 115 151 190 229 274
#     4  10  17  27  45  66  88 118 158 198 232 270
#     4  10  17  26  43  67  91 116 148 188 230 267
#     4  10  20  32  47  67  91 122 158 195 232 270
#     4   9  17  27  41  63  93 124 151 180 217 267
#
# _framework density 15.574747
#
# number of rings (size 3 to 8) (size 9 to 14) (size 15 to 20)
#    0.000    2.667    1.667    3.000    0.000    0.333 
#    0.000    0.833    0.000    0.500    0.000    3.500 
#    0.000    8.333    0.000    0.167    0.000    0.000 
#
# Total GULP energy -1189875.314294 kJ/mol
# GULP energy per Si atom -12394.534524 kJ/mol
# Density = 1.553930 g / cm^3
# Si number density = 15.574747 Si / 1000 Ang^3
#
#
#
# Elastic Constant Matrix: (Units=GPa)
#
#
# Indices 1 2 3 4 5 6 
#
# 1 88.0218 41.4284 42.9436 0.0000 0.0000 0.0000
# 2 41.4284 88.0215 42.9438 0.0000 0.0000 0.0000
# 3 42.9436 42.9438 115.2881 0.0000 0.0000 0.0000
# 4 0.0000 0.0000 0.0000 12.4544 0.0000 0.0000
# 5 0.0000 0.0000 0.0000 0.0000 12.4541 0.0000
# 6 0.0000 0.0000 0.0000 0.0000 0.0000 11.7021
#
#
#
# Elastic Compliance Matrix: (Units=1/GPa)
#
#
# Indices 1 2 3 4 5 6 
#
# 1 0.015862 -0.005601 -0.003822 0.000000 0.000000 0.000000
# 2 -0.005601 0.015862 -0.003822 0.000000 0.000000 0.000000
# 3 -0.003822 -0.003822 0.011521 0.000000 0.000000 0.000000
# 4 0.000000 0.000000 0.000000 0.080293 0.000000 0.000000
# 5 0.000000 0.000000 0.000000 0.000000 0.080295 0.000000
# 6 0.000000 0.000000 0.000000 0.000000 0.000000 0.085455
#
#
# Mechanical properties :
#
#
# Convention : Reuss Voigt Hill
#
# Bulk Modulus (GPa) = 59.68467 60.66255 60.17361
# Shear Modulus (GPa) = 15.55879 18.25649 16.90764
#
# Velocity S-wave (km/s) = 3.16409 3.42743 3.29839
# Velocity P-wave (km/s) = 7.19397 7.39574 7.29555
#
# Compressibility (1/GPa) = 0.01675472
#
# Stress axis : x y z
#
# Youngs Moduli (GPa) = 63.04556 63.04518 86.79588
#
# Poissons Ratio (x) = 0.35310 0.33174
# Poissons Ratio (y) = 0.35310 0.33174
# Poissons Ratio (z) = 0.24096 0.24097
#
# Static dielectric constant tensor:
#      x y z
#    x 2.811900 0.000000 0.000000 
#    y 0.000000 2.811910 0.000000 
#    z 0.000000 0.000000 3.209550 
# 
# 
# High freq. dielectric constant tensor:
#      x y z
#    x 1.571680 0.000000 0.000000 
#    y 0.000000 1.571680 0.000000 
#    z 0.000000 0.000000 1.604180 
# 
# From -- ./inp_files/5672.got.cif
#   From: 2010.03.12/outbox.cif.g09.slc.cpg/sg129_3_cif.got.tgz:5672.got - 2010.04.06 17:19:44.
