data_PCOD8314149
_publ_section_title
;
Structure prediction by ZEFSAII (Michael W. Deem and Ramdas Pophale) SiO2 
 PCOD8314149
Probable space group: P 4/M B M
;
_chemical_formula_sum "Si O2"
_cell_formula_units_Z 104
_cell_length_a 16.609187
_cell_length_b 16.609187
_cell_length_c 18.351369
_cell_angle_alpha 90.000000
_cell_angle_beta 90.000000
_cell_angle_gamma 90.000000
_cell_volume 5062.502112
_symmetry_space_group_name_H-M "P 4/M B M"
_symmetry_group_IT_number 127
_symmetry_cell_setting 'tetragonal'
loop_
_space_group_symop_operation_xyz
x,y,z
-y,x,z
-x,-y,z
y,-x,z
1/2+x,1/2-y,-z
1/2-x,1/2+y,-z
1/2+y,1/2+x,-z
1/2-y,1/2-x,-z
-x,-y,-z
y,-x,-z
x,y,-z
-y,x,-z
1/2-x,1/2+y,z
1/2+x,1/2-y,z
1/2-y,1/2-x,z
1/2+y,1/2+x,z
loop_
_atom_site_type_symbol
_atom_site_label
_atom_site_fract_x
_atom_site_fract_y
_atom_site_fract_z
Si Si1 0.949519 0.881642 0.341552
Si Si2 0.000198 0.631948 0.783780
Si Si3 0.070644 0.701012 0.079894
Si Si4 0.206151 0.831554 0.083601
Si Si5 0.883924 0.051191 0.169753
Si Si6 0.004372 0.629596 0.500000
Si Si7 0.931296 0.702293 0.361653
O O1 0.945449 0.876452 0.255357
O O2 0.913611 0.797678 0.371223
O O3 0.042317 0.895502 0.367578
O O4 0.082517 0.582517 0.767641
O O5 0.008625 0.692727 0.852580
O O6 0.928779 0.571222 0.802454
O O7 0.978950 0.684863 0.712962
O O8 0.116612 0.616612 0.074466
O O9 0.132918 0.771250 0.097988
O O10 0.028883 0.715939 0.000000
O O11 0.288976 0.788976 0.108699
O O12 0.194804 0.912108 0.131094
O O13 0.211068 0.856621 0.000000
O O14 0.960158 0.104397 0.143198
O O15 0.095546 0.595546 0.500000
O O16 0.944370 0.555631 0.500000
O O17 0.990613 0.681012 0.427530
O O18 0.847477 0.652524 0.365544
#
# Coordination Sequence:
#
# PCOD8314149 Si02
#       7
#    16  16  16  16  16   8  16
#     4   9  20  39  59  81 114 154 195 236 288 355
#     4   9  17  28  46  76 110 145 188 235 284 346
#     4   8  15  27  43  67 101 143 186 228 282 347
#     4   9  18  32  50  73 103 139 180 233 299 361
#     4   9  19  34  54  78 103 138 186 238 287 341
#     4   9  18  36  62  91 128 168 195 230 294 352
#     4  10  20  35  59  89 120 153 195 247 298 351
#
# _framework density 20.543202000000001
#
# number of rings (size 3 to 8) (size 9 to 14) (size 15 to 20)
#    0.000    3.000    0.000    2.308    4.308    3.385 
#    0.000    4.615    0.000    1.846    0.000    0.000 
#    0.000    0.000    0.000    0.000    0.000    0.000 
#
# Total GULP energy -1288947.579324 kJ/mol
# GULP energy per Si atom -12393.726724 kJ/mol
# Density = 2.049644 g / cm^3
# Si number density = 20.543202 Si / 1000 Ang^3
#
#
#
# Elastic Constant Matrix: (Units=GPa)
#
#
# Indices 1 2 3 4 5 6 
#
# 1 90.5313 42.3984 29.5756 0.0000 0.0000 0.0000
# 2 42.3984 90.5311 29.5757 0.0000 0.0000 0.0000
# 3 29.5756 29.5757 88.0377 0.0000 0.0000 0.0000
# 4 0.0000 0.0000 0.0000 38.4414 0.0000 0.0000
# 5 0.0000 0.0000 0.0000 0.0000 38.4439 0.0000
# 6 0.0000 0.0000 0.0000 0.0000 0.0000 27.0538
#
#
#
# Elastic Compliance Matrix: (Units=1/GPa)
#
#
# Indices 1 2 3 4 5 6 
#
# 1 0.014810 -0.005965 -0.002971 0.000000 0.000000 0.000000
# 2 -0.005965 0.014810 -0.002971 0.000000 0.000000 0.000000
# 3 -0.002971 -0.002971 0.013355 0.000000 0.000000 0.000000
# 4 0.000000 0.000000 0.000000 0.026014 0.000000 0.000000
# 5 0.000000 0.000000 0.000000 0.000000 0.026012 0.000000
# 6 0.000000 0.000000 0.000000 0.000000 0.000000 0.036963
#
#
# Mechanical properties :
#
#
# Convention : Reuss Voigt Hill
#
# Bulk Modulus (GPa) = 52.19326 52.46662 52.32994
# Shear Modulus (GPa) = 30.83221 31.95784 31.39503
#
# Velocity S-wave (km/s) = 3.87828 3.94844 3.91352
# Velocity P-wave (km/s) = 6.74659 6.81043 6.77859
#
# Compressibility (1/GPa) = 0.01915956
#
# Stress axis : x y z
#
# Youngs Moduli (GPa) = 67.52006 67.51985 74.87704
#
# Poissons Ratio (x) = 0.40278 0.22249
# Poissons Ratio (y) = 0.40279 0.22249
# Poissons Ratio (z) = 0.20063 0.20063
#
# Static dielectric constant tensor:
#      x y z
#    x 3.725890 0.000000 0.000000 
#    y 0.000000 3.725890 0.000000 
#    z 0.000000 0.000000 3.633270 
# 
# 
# High freq. dielectric constant tensor:
#      x y z
#    x 1.797070 0.000000 0.000000 
#    y 0.000000 1.797070 0.000000 
#    z 0.000000 0.000000 1.786490 
# 
# From -- ./inp_files/5185.got.cif
#   From: 2010.03.12/outbox.cif.g09.slc.cpg/sg127_3_cif.got.tgz:5185.got - 2010.04.06 17:03:15.
