data_PCOD8314742
_publ_section_title
;
Structure prediction by ZEFSAII (Michael W. Deem and Ramdas Pophale) SiO2 
 PCOD8314742
Probable space group: P 4/M N C
;
_chemical_formula_sum "Si O2"
_cell_formula_units_Z 56
_cell_length_a 11.054601
_cell_length_b 11.054601
_cell_length_c 22.850667
_cell_angle_alpha 90.000000
_cell_angle_beta 90.000000
_cell_angle_gamma 90.000000
_cell_volume 2792.447555
_symmetry_space_group_name_H-M "P 4/M N C"
_symmetry_group_IT_number 128
_symmetry_cell_setting 'tetragonal'
loop_
_space_group_symop_operation_xyz
x,y,z
-y,x,z
-x,-y,z
y,-x,z
1/2+x,1/2-y,1/2-z
1/2-x,1/2+y,1/2-z
1/2+y,1/2+x,1/2-z
1/2-y,1/2-x,1/2-z
-x,-y,-z
y,-x,-z
x,y,-z
-y,x,-z
1/2-x,1/2+y,1/2+z
1/2+x,1/2-y,1/2+z
1/2-y,1/2-x,1/2+z
1/2+y,1/2+x,1/2+z
loop_
_atom_site_type_symbol
_atom_site_label
_atom_site_fract_x
_atom_site_fract_y
_atom_site_fract_z
Si Si1 0.966669 0.801131 0.000000
Si Si2 0.816125 0.056179 0.657569
Si Si3 0.870564 0.561639 0.389803
Si Si4 0.007496 0.685751 0.233177
O O1 0.862153 0.901704 0.000000
O O2 0.952460 0.715287 0.944623
O O3 0.701084 0.101705 0.622473
O O4 0.920470 0.148541 0.639009
O O5 0.797195 0.044102 0.728366
O O6 0.793583 0.502452 0.336369
O O7 0.000000 0.500000 0.400017
O O8 0.146626 0.646626 0.250000
O O9 0.928346 0.571655 0.250000
#
# Coordination Sequence:
#
# PCOD8314742 Si02
#       4
#     8  16  16  16
#     4  11  29  48  66  97 126 164 228 285 327 384
#     4  10  22  37  60 100 136 165 211 268 325 395
#     4  11  22  43  69  91 125 177 221 261 329 395
#     4   9  16  34  59  92 125 161 209 249 307 386
#
# _framework density 20.054092000000001
#
# number of rings (size 3 to 8) (size 9 to 14) (size 15 to 20)
#    0.000    1.857    5.714    0.429    4.000    5.714 
#    0.000    2.857    0.000    1.714    0.000    0.000 
#    0.000    0.000    0.000    0.000    0.000    0.000 
#
# Total GULP energy -693823.130272 kJ/mol
# GULP energy per Si atom -12389.698755 kJ/mol
# Density = 2.000845 g / cm^3
# Si number density = 20.054092 Si / 1000 Ang^3
#
#
#
# Elastic Constant Matrix: (Units=GPa)
#
#
# Indices 1 2 3 4 5 6 
#
# 1 78.9036 29.1939 49.2159 0.0000 0.0000 0.0000
# 2 29.1939 78.9038 49.2160 0.0000 0.0000 0.0000
# 3 49.2159 49.2160 157.6401 0.0000 0.0000 0.0000
# 4 0.0000 0.0000 0.0000 11.8522 0.0000 0.0000
# 5 0.0000 0.0000 0.0000 0.0000 11.8504 0.0000
# 6 0.0000 0.0000 0.0000 0.0000 0.0000 23.4714
#
#
#
# Elastic Compliance Matrix: (Units=1/GPa)
#
#
# Indices 1 2 3 4 5 6 
#
# 1 0.016521 -0.003596 -0.004035 0.000000 0.000000 0.000000
# 2 -0.003596 0.016521 -0.004035 0.000000 0.000000 0.000000
# 3 -0.004035 -0.004035 0.008863 0.000000 0.000000 0.000000
# 4 0.000000 0.000000 0.000000 0.084373 0.000000 0.000000
# 5 0.000000 0.000000 0.000000 0.000000 0.084385 0.000000
# 6 0.000000 0.000000 0.000000 0.000000 0.000000 0.042605
#
#
# Mechanical properties :
#
#
# Convention : Reuss Voigt Hill
#
# Bulk Modulus (GPa) = 53.84255 63.41101 58.62678
# Shear Modulus (GPa) = 17.68082 21.95624 19.81853
#
# Velocity S-wave (km/s) = 2.97249 3.31244 3.14706
# Velocity P-wave (km/s) = 6.21996 6.80576 6.51944
#
# Compressibility (1/GPa) = 0.01857267
#
# Stress axis : x y z
#
# Youngs Moduli (GPa) = 60.52855 60.52874 112.82489
#
# Poissons Ratio (x) = 0.21764 0.45529
# Poissons Ratio (y) = 0.21764 0.45529
# Poissons Ratio (z) = 0.24426 0.24426
#
# Static dielectric constant tensor:
#      x y z
#    x 2.443290 0.000000 0.000000 
#    y 0.000000 2.443070 0.000000 
#    z 0.000000 0.000000 3.870870 
# 
# 
# High freq. dielectric constant tensor:
#      x y z
#    x 1.784940 0.000000 0.000000 
#    y 0.000000 1.784940 0.000000 
#    z 0.000000 0.000000 1.765180 
# 
# From -- ./inp_files/6185.got.cif
#   From: 2010.03.12/outbox.cif.g09.slc.cpg/sg128_4_cif.got.tgz:6185.got - 2010.04.06 17:11:05.
