data_PCOD8314120
_publ_section_title
;
Structure prediction by ZEFSAII (Michael W. Deem and Ramdas Pophale) SiO2 
 PCOD8314120
Probable space group: P 4/M B M
;
_chemical_formula_sum "Si O2"
_cell_formula_units_Z 96
_cell_length_a 16.146375
_cell_length_b 16.146375
_cell_length_c 19.138455
_cell_angle_alpha 90.000000
_cell_angle_beta 90.000000
_cell_angle_gamma 90.000000
_cell_volume 4989.499057
_symmetry_space_group_name_H-M "P 4/M B M"
_symmetry_group_IT_number 127
_symmetry_cell_setting 'tetragonal'
loop_
_space_group_symop_operation_xyz
x,y,z
-y,x,z
-x,-y,z
y,-x,z
1/2+x,1/2-y,-z
1/2-x,1/2+y,-z
1/2+y,1/2+x,-z
1/2-y,1/2-x,-z
-x,-y,-z
y,-x,-z
x,y,-z
-y,x,-z
1/2-x,1/2+y,z
1/2+x,1/2-y,z
1/2-y,1/2-x,z
1/2+y,1/2+x,z
loop_
_atom_site_type_symbol
_atom_site_label
_atom_site_fract_x
_atom_site_fract_y
_atom_site_fract_z
Si Si1 0.381704 0.428119 0.320013
Si Si2 0.696342 0.671044 0.801435
Si Si3 0.693510 0.940062 0.819156
Si Si4 0.238638 0.396504 0.581459
Si Si5 0.497763 0.133577 0.320301
Si Si6 0.717316 0.082608 0.921324
O O1 0.472435 0.387366 0.320919
O O2 0.329044 0.400328 0.252628
O O3 0.331177 0.393388 0.386857
O O4 0.776311 0.723690 0.774011
O O5 0.619719 0.729585 0.814092
O O6 0.714205 0.630385 0.876184
O O7 0.607266 0.892734 0.825638
O O8 0.691372 0.994578 0.748393
O O9 0.702076 0.993210 0.888703
O O10 0.246303 0.414424 0.500000
O O11 0.189545 0.310456 0.595928
O O12 0.189109 0.474065 0.614494
O O13 0.563337 0.063337 0.303295
O O14 0.408377 0.091624 0.337579
O O15 0.630761 0.130761 0.920726
O O16 0.751524 0.073041 0.000000
#
# Coordination Sequence:
#
# PCOD8314120 Si02
#       6
#    16  16  16  16  16  16
#     4  11  23  38  58  82 108 141 182 226 271 322
#     4  10  20  36  58  80 105 138 179 226 270 316
#     4  10  20  34  56  83 106 134 175 221 269 321
#     4  10  21  37  57  81 111 146 181 220 270 325
#     4   9  17  31  54  83 112 141 177 223 274 328
#     4  10  21  35  51  75 109 146 180 217 265 318
#
# _framework density 19.240407999999999
#
# number of rings (size 3 to 8) (size 9 to 14) (size 15 to 20)
#    0.000    2.000    0.000    4.000    0.000    5.667 
#    0.000    5.833    0.000    0.000    0.000    3.500 
#    0.000    0.000    0.000    0.000    0.000    0.000 
#
# Total GULP energy -1190477.812703 kJ/mol
# GULP energy per Si atom -12400.810549 kJ/mol
# Density = 1.919662 g / cm^3
# Si number density = 19.240408 Si / 1000 Ang^3
#
#
#
# Elastic Constant Matrix: (Units=GPa)
#
#
# Indices 1 2 3 4 5 6 
#
# 1 108.3484 46.6107 69.0189 0.0000 0.0000 0.0000
# 2 46.6107 108.3484 69.0189 0.0000 0.0000 0.0000
# 3 69.0189 69.0189 165.7181 0.0000 0.0000 0.0000
# 4 0.0000 0.0000 0.0000 18.1262 0.0000 0.0000
# 5 0.0000 0.0000 0.0000 0.0000 18.1262 0.0000
# 6 0.0000 0.0000 0.0000 0.0000 0.0000 17.8031
#
#
#
# Elastic Compliance Matrix: (Units=1/GPa)
#
#
# Indices 1 2 3 4 5 6 
#
# 1 0.013229 -0.002969 -0.004273 0.000000 0.000000 0.000000
# 2 -0.002969 0.013229 -0.004273 0.000000 0.000000 0.000000
# 3 -0.004273 -0.004273 0.009594 0.000000 0.000000 0.000000
# 4 0.000000 0.000000 0.000000 0.055169 0.000000 0.000000
# 5 0.000000 0.000000 0.000000 0.000000 0.055169 0.000000
# 6 0.000000 0.000000 0.000000 0.000000 0.000000 0.056170
#
#
# Mechanical properties :
#
#
# Convention : Reuss Voigt Hill
#
# Bulk Modulus (GPa) = 76.79885 83.52357 80.16121
# Shear Modulus (GPa) = 21.74588 23.99553 22.87070
#
# Velocity S-wave (km/s) = 3.36552 3.53532 3.45147
# Velocity P-wave (km/s) = 7.42323 7.75689 7.59190
#
# Compressibility (1/GPa) = 0.01302103
#
# Stress axis : x y z
#
# Youngs Moduli (GPa) = 75.59360 75.59360 104.23591
#
# Poissons Ratio (x) = 0.22443 0.44540
# Poissons Ratio (y) = 0.22443 0.44540
# Poissons Ratio (z) = 0.32301 0.32301
#
# Static dielectric constant tensor:
#      x y z
#    x 3.718370 0.000000 0.000000 
#    y 0.000000 3.718370 0.000000 
#    z 0.000000 0.000000 3.494160 
# 
# 
# High freq. dielectric constant tensor:
#      x y z
#    x 1.752930 0.000000 0.000000 
#    y 0.000000 1.752930 0.000000 
#    z 0.000000 0.000000 1.741040 
# 
# From -- ./inp_files/5112.got.cif
#   From: 2010.03.12/outbox.cif.g09.slc.cpg/sg127_3_cif.got.tgz:5112.got - 2010.04.06 17:03:15.
