data_PCOD8314073
_publ_section_title
;
Structure prediction by ZEFSAII (Michael W. Deem and Ramdas Pophale) SiO2 
 PCOD8314073
Probable space group: P 4/M B M
;
_chemical_formula_sum "Si O2"
_cell_formula_units_Z 72
_cell_length_a 20.107699
_cell_length_b 20.107699
_cell_length_c 9.725998
_cell_angle_alpha 90.000000
_cell_angle_beta 90.000000
_cell_angle_gamma 90.000000
_cell_volume 3932.411223
_symmetry_space_group_name_H-M "P 4/M B M"
_symmetry_group_IT_number 127
_symmetry_cell_setting 'tetragonal'
loop_
_space_group_symop_operation_xyz
x,y,z
-y,x,z
-x,-y,z
y,-x,z
1/2+x,1/2-y,-z
1/2-x,1/2+y,-z
1/2+y,1/2+x,-z
1/2-y,1/2-x,-z
-x,-y,-z
y,-x,-z
x,y,-z
-y,x,-z
1/2-x,1/2+y,z
1/2+x,1/2-y,z
1/2-y,1/2-x,z
1/2+y,1/2+x,z
loop_
_atom_site_type_symbol
_atom_site_label
_atom_site_fract_x
_atom_site_fract_y
_atom_site_fract_z
Si Si1 0.337253 0.162748 0.664236
Si Si2 0.590547 0.559670 0.843388
Si Si3 0.986207 0.315431 0.662933
Si Si4 0.407533 0.709856 0.338151
Si Si5 0.768713 0.731288 0.337847
Si Si6 0.054217 0.445784 0.338411
O O1 0.337224 0.162777 0.500000
O O2 0.316803 0.089316 0.720078
O O3 0.284266 0.215735 0.724062
O O4 0.518696 0.590389 0.814097
O O5 0.640355 0.595642 0.740139
O O6 0.612309 0.573399 0.000000
O O7 0.983414 0.323805 0.500000
O O8 0.024634 0.248033 0.703793
O O9 0.029271 0.376260 0.726013
O O10 0.404973 0.695276 0.500000
O O11 0.343492 0.752242 0.290180
O O12 0.763862 0.736139 0.500000
O O13 0.063728 0.436273 0.500000
O O14 0.000000 0.500000 0.302075
#
# Coordination Sequence:
#
# PCOD8314073 Si02
#       6
#     8  16  16  16   8   8
#     4   9  16  26  40  61  97 137 163 195 253 307
#     4   9  20  39  58  75  99 133 173 219 269 314
#     4   9  16  25  40  66  96 130 168 204 244 296
#     4  10  20  32  52  79 107 138 172 211 258 313
#     4   9  19  32  43  67 113 145 157 200 271 318
#     4   9  13  21  37  58  93 134 170 203 238 288
#
# _framework density 18.309377000000001
#
# number of rings (size 3 to 8) (size 9 to 14) (size 15 to 20)
#    0.000    2.778    1.111    1.333    3.111    3.556 
#    0.000    1.667    0.000    0.000    0.000    0.778 
#    0.000    0.889    0.000    0.000    0.000    0.000 
#
# Total GULP energy -892506.235125 kJ/mol
# GULP energy per Si atom -12395.919932 kJ/mol
# Density = 1.826770 g / cm^3
# Si number density = 18.309377 Si / 1000 Ang^3
#
#
#
# Elastic Constant Matrix: (Units=GPa)
#
#
# Indices 1 2 3 4 5 6 
#
# 1 103.1491 41.9707 27.9858 0.0000 0.0000 0.0000
# 2 41.9707 103.1489 27.9860 0.0000 0.0000 0.0000
# 3 27.9858 27.9860 31.7480 0.0000 0.0000 0.0000
# 4 0.0000 0.0000 0.0000 11.8540 0.0000 0.0000
# 5 0.0000 0.0000 0.0000 0.0000 11.8540 0.0000
# 6 0.0000 0.0000 0.0000 0.0000 0.0000 41.7995
#
#
#
# Elastic Compliance Matrix: (Units=1/GPa)
#
#
# Indices 1 2 3 4 5 6 
#
# 1 0.013393 -0.002953 -0.009203 0.000000 0.000000 0.000000
# 2 -0.002953 0.013393 -0.009203 0.000000 0.000000 0.000000
# 3 -0.009203 -0.009203 0.047724 0.000000 0.000000 0.000000
# 4 0.000000 0.000000 0.000000 0.084360 0.000000 0.000000
# 5 0.000000 0.000000 0.000000 0.000000 0.084360 0.000000
# 6 0.000000 0.000000 0.000000 0.000000 0.000000 0.023924
#
#
# Mechanical properties :
#
#
# Convention : Reuss Voigt Hill
#
# Bulk Modulus (GPa) = 31.45517 48.21454 39.83486
# Shear Modulus (GPa) = 15.60212 22.44171 19.02192
#
# Velocity S-wave (km/s) = 2.92231 3.50479 3.22672
# Velocity P-wave (km/s) = 5.34824 6.53976 5.97378
#
# Compressibility (1/GPa) = 0.03179127
#
# Stress axis : x y z
#
# Youngs Moduli (GPa) = 74.66552 74.66509 20.95399
#
# Poissons Ratio (x) = 0.22045 0.19285
# Poissons Ratio (y) = 0.22045 0.19285
# Poissons Ratio (z) = 0.68717 0.68717
#
# Static dielectric constant tensor:
#      x y z
#    x 3.513790 0.000000 0.000000 
#    y 0.000000 3.513770 0.000000 
#    z 0.000000 0.000000 2.680060 
# 
# 
# High freq. dielectric constant tensor:
#      x y z
#    x 1.721930 0.000000 0.000000 
#    y 0.000000 1.721920 0.000000 
#    z 0.000000 0.000000 1.629730 
# 
# From -- ./inp_files/1610.got.cif
#   From: 2010.03.12/outbox.cif.g09.slc.cpg/sg127_1_cif.got.tgz:1610.got - 2010.04.06 17:03:15.
