data_PCOD8314716
_publ_section_title
;
Structure prediction by ZEFSAII (Michael W. Deem and Ramdas Pophale) SiO2 
 PCOD8314716
Probable space group: P 4/M N C
;
_chemical_formula_sum "Si O2"
_cell_formula_units_Z 72
_cell_length_a 20.937583
_cell_length_b 20.937583
_cell_length_c 7.845140
_cell_angle_alpha 90.000000
_cell_angle_beta 90.000000
_cell_angle_gamma 90.000000
_cell_volume 3439.171159
_symmetry_space_group_name_H-M "P 4/M N C"
_symmetry_group_IT_number 128
_symmetry_cell_setting 'tetragonal'
loop_
_space_group_symop_operation_xyz
x,y,z
-y,x,z
-x,-y,z
y,-x,z
1/2+x,1/2-y,1/2-z
1/2-x,1/2+y,1/2-z
1/2+y,1/2+x,1/2-z
1/2-y,1/2-x,1/2-z
-x,-y,-z
y,-x,-z
x,y,-z
-y,x,-z
1/2-x,1/2+y,1/2+z
1/2+x,1/2-y,1/2+z
1/2-y,1/2-x,1/2+z
1/2+y,1/2+x,1/2+z
loop_
_atom_site_type_symbol
_atom_site_label
_atom_site_fract_x
_atom_site_fract_y
_atom_site_fract_z
Si Si1 0.560221 0.841089 0.700869
Si Si2 0.580011 0.183070 0.699179
Si Si3 0.544646 0.404608 0.000000
Si Si4 0.173337 0.898114 0.805177
Si Si5 0.239227 0.160279 0.305882
O O1 0.590898 0.909103 0.750000
O O2 0.563929 0.830692 0.500000
O O3 0.488260 0.839587 0.774658
O O4 0.598515 0.783519 0.787525
O O5 0.635438 0.135438 0.750000
O O6 0.572912 0.183062 0.500000
O O7 0.597146 0.253897 0.761640
O O8 0.584481 0.469473 0.000000
O O9 0.560320 0.367909 0.825251
O O10 0.152000 0.824251 0.805571
O O11 0.165133 0.923879 0.000000
O O12 0.276340 0.223661 0.250000
O O13 0.217232 0.167520 0.500000
#
# Coordination Sequence:
#
# PCOD8314716 Si02
#       5
#    16  16   8  16  16
#     4  10  21  39  59  90 125 169 220 266 322 390
#     4  10  24  40  61  91 128 168 217 268 325 389
#     4  11  28  50  70 102 134 167 219 267 327 409
#     4  11  24  43  69  99 130 173 217 272 330 392
#     4  11  21  36  60  94 130 170 221 278 329 390
#
# _framework density 20.935278
#
# number of rings (size 3 to 8) (size 9 to 14) (size 15 to 20)
#    0.000    1.444    1.111    4.667    4.667    4.889 
#    0.000    3.333    0.000    0.000    0.000    0.000 
#    0.000    0.000    0.000    0.000    0.000    0.000 
#
# Total GULP energy -892972.136817 kJ/mol
# GULP energy per Si atom -12402.390789 kJ/mol
# Density = 2.088763 g / cm^3
# Si number density = 20.935278 Si / 1000 Ang^3
#
#
#
# Elastic Constant Matrix: (Units=GPa)
#
#
# Indices 1 2 3 4 5 6 
#
# 1 131.5717 76.5057 37.7342 0.0000 0.0000 0.0000
# 2 76.5057 131.5700 37.7279 0.0000 0.0000 0.0000
# 3 37.7342 37.7279 102.3607 0.0000 0.0000 0.0000
# 4 0.0000 0.0000 0.0000 23.8611 0.0000 0.0000
# 5 0.0000 0.0000 0.0000 0.0000 23.8624 0.0000
# 6 0.0000 0.0000 0.0000 0.0000 0.0000 23.3429
#
#
#
# Elastic Compliance Matrix: (Units=1/GPa)
#
#
# Indices 1 2 3 4 5 6 
#
# 1 0.011854 -0.006306 -0.002045 0.000000 0.000000 0.000000
# 2 -0.006306 0.011854 -0.002044 0.000000 0.000000 0.000000
# 3 -0.002045 -0.002044 0.011277 0.000000 0.000000 0.000000
# 4 0.000000 0.000000 0.000000 0.041909 0.000000 0.000000
# 5 0.000000 0.000000 0.000000 0.000000 0.041907 0.000000
# 6 0.000000 0.000000 0.000000 0.000000 0.000000 0.042840
#
#
# Mechanical properties :
#
#
# Convention : Reuss Voigt Hill
#
# Bulk Modulus (GPa) = 70.45991 74.38201 72.42096
# Shear Modulus (GPa) = 26.71460 28.44891 27.58175
#
# Velocity S-wave (km/s) = 3.57607 3.69032 3.63364
# Velocity P-wave (km/s) = 7.12602 7.33244 7.22996
#
# Compressibility (1/GPa) = 0.01419247
#
# Stress axis : x y z
#
# Youngs Moduli (GPa) = 84.35922 84.36131 88.67695
#
# Poissons Ratio (x) = 0.53202 0.18139
# Poissons Ratio (y) = 0.53200 0.18128
# Poissons Ratio (z) = 0.17256 0.17246
#
# Static dielectric constant tensor:
#      x y z
#    x 8.786660 0.000000 0.000000 
#    y 0.000000 8.771070 0.000000 
#    z 0.000000 0.000000 3.818900 
# 
# 
# High freq. dielectric constant tensor:
#      x y z
#    x 1.822700 0.000000 0.000000 
#    y 0.000000 1.822700 0.000000 
#    z 0.000000 0.000000 1.827750 
# 
# From -- ./inp_files/1203.got.cif
#   From: 2010.03.12/outbox.cif.g09.slc.cpg/sg128_1_cif.got.tgz:1203.got - 2010.04.06 17:11:05.
