data_PCOD8314130
_publ_section_title
;
Structure prediction by ZEFSAII (Michael W. Deem and Ramdas Pophale) SiO2 
 PCOD8314130
Probable space group: P 4/M B M
;
_chemical_formula_sum "Si O2"
_cell_formula_units_Z 120
_cell_length_a 26.296424
_cell_length_b 26.296424
_cell_length_c 8.902867
_cell_angle_alpha 90.000000
_cell_angle_beta 90.000000
_cell_angle_gamma 90.000000
_cell_volume 6156.349581
_symmetry_space_group_name_H-M "P 4/M B M"
_symmetry_group_IT_number 127
_symmetry_cell_setting 'tetragonal'
loop_
_space_group_symop_operation_xyz
x,y,z
-y,x,z
-x,-y,z
y,-x,z
1/2+x,1/2-y,-z
1/2-x,1/2+y,-z
1/2+y,1/2+x,-z
1/2-y,1/2-x,-z
-x,-y,-z
y,-x,-z
x,y,-z
-y,x,-z
1/2-x,1/2+y,z
1/2+x,1/2-y,z
1/2-y,1/2-x,z
1/2+y,1/2+x,z
loop_
_atom_site_type_symbol
_atom_site_label
_atom_site_fract_x
_atom_site_fract_y
_atom_site_fract_z
Si Si1 0.598425 0.609857 0.676081
Si Si2 0.196573 0.849598 0.825042
Si Si3 0.838621 0.255828 0.835200
Si Si4 0.350642 0.491849 0.326376
Si Si5 0.540953 0.040953 0.178323
Si Si6 0.937598 0.749447 0.678341
Si Si7 0.989022 0.653420 0.177264
Si Si8 0.822907 0.408370 0.332378
O O1 0.606573 0.623165 0.500000
O O2 0.639736 0.636302 0.778981
O O3 0.604765 0.549320 0.699701
O O4 0.544679 0.629300 0.742383
O O5 0.198624 0.789761 0.783055
O O6 0.238940 0.879940 0.730734
O O7 0.206416 0.860413 0.000000
O O8 0.806516 0.306516 0.847654
O O9 0.884501 0.268793 0.720675
O O10 0.861402 0.242216 0.000000
O O11 0.341230 0.501159 0.500000
O O12 0.296069 0.473022 0.259932
O O13 0.597604 0.027493 0.235548
O O14 0.500000 0.000000 0.243259
O O15 0.538905 0.038905 0.000000
O O16 0.938698 0.746428 0.500000
O O17 0.954241 0.695843 0.745427
O O18 0.047400 0.661553 0.219471
O O19 0.982304 0.658009 0.000000
O O20 0.814325 0.430284 0.500000
O O21 0.867265 0.367265 0.332543
#
# Coordination Sequence:
#
# PCOD8314130 Si02
#       8
#    16  16  16  16   8  16  16  16
#     4   9  17  31  50  73 103 141 183 228 282 335
#     4  10  20  35  54  78 105 141 187 235 284 336
#     4   9  19  36  56  80 109 142 183 231 280 334
#     4   8  16  30  50  75 102 139 183 229 276 327
#     4   9  20  40  65  91 119 153 195 235 281 345
#     4  10  21  38  56  80 114 149 189 236 285 341
#     4  11  22  38  62  89 115 151 192 237 285 337
#     4  10  21  36  56  86 121 151 183 227 281 342
#
# _framework density 19.492069999999998
#
# number of rings (size 3 to 8) (size 9 to 14) (size 15 to 20)
#    0.000    2.467    0.000    2.800    1.867    2.667 
#    1.200    5.333    0.000    2.400    0.000    3.733 
#    0.000    0.000    0.000    0.000    0.000    0.000 
#
# Total GULP energy -1487317.850409 kJ/mol
# GULP energy per Si atom -12394.315420 kJ/mol
# Density = 1.944771 g / cm^3
# Si number density = 19.492070 Si / 1000 Ang^3
#
#
#
# Elastic Constant Matrix: (Units=GPa)
#
#
# Indices 1 2 3 4 5 6 
#
# 1 113.9199 49.6608 36.9428 0.0000 0.0000 0.0000
# 2 49.6608 113.9199 36.9428 0.0000 0.0000 0.0000
# 3 36.9428 36.9428 65.8063 0.0000 0.0000 0.0000
# 4 0.0000 0.0000 0.0000 26.5036 0.0000 0.0000
# 5 0.0000 0.0000 0.0000 0.0000 26.5036 0.0000
# 6 0.0000 0.0000 0.0000 0.0000 0.0000 21.2465
#
#
#
# Elastic Compliance Matrix: (Units=1/GPa)
#
#
# Indices 1 2 3 4 5 6 
#
# 1 0.011876 -0.003686 -0.004598 0.000000 0.000000 0.000000
# 2 -0.003686 0.011876 -0.004598 0.000000 0.000000 0.000000
# 3 -0.004598 -0.004598 0.020358 0.000000 0.000000 0.000000
# 4 0.000000 0.000000 0.000000 0.037731 0.000000 0.000000
# 5 0.000000 0.000000 0.000000 0.000000 0.037731 0.000000
# 6 0.000000 0.000000 0.000000 0.000000 0.000000 0.047066
#
#
# Mechanical properties :
#
#
# Convention : Reuss Voigt Hill
#
# Bulk Modulus (GPa) = 54.50403 60.08209 57.29306
# Shear Modulus (GPa) = 25.18682 26.19074 25.68878
#
# Velocity S-wave (km/s) = 3.59856 3.66958 3.63424
# Velocity P-wave (km/s) = 6.72971 6.98893 6.86055
#
# Compressibility (1/GPa) = 0.01834727
#
# Stress axis : x y z
#
# Youngs Moduli (GPa) = 84.20394 84.20394 49.12018
#
# Poissons Ratio (x) = 0.31038 0.22584
# Poissons Ratio (y) = 0.31038 0.22584
# Poissons Ratio (z) = 0.38714 0.38714
#
# Static dielectric constant tensor:
#      x y z
#    x 3.722020 0.000000 0.000000 
#    y 0.000000 3.722020 0.000000 
#    z 0.000000 0.000000 3.495980 
# 
# 
# High freq. dielectric constant tensor:
#      x y z
#    x 1.758180 0.000000 0.000000 
#    y 0.000000 1.758180 0.000000 
#    z 0.000000 0.000000 1.742880 
# 
# From -- ./inp_files/2413.got.cif
#   From: 2010.03.12/outbox.cif.g09.slc.cpg/sg127_2_cif.got.tgz:2413.got - 2010.04.06 17:03:15.
