data_PCOD8314232
_publ_section_title
;
Structure prediction by ZEFSAII (Michael W. Deem and Ramdas Pophale) SiO2 
 PCOD8314232
Probable space group: P 4/M B M
;
_chemical_formula_sum "Si O2"
_cell_formula_units_Z 120
_cell_length_a 26.324056
_cell_length_b 26.324056
_cell_length_c 8.934632
_cell_angle_alpha 90.000000
_cell_angle_beta 90.000000
_cell_angle_gamma 90.000000
_cell_volume 6191.306176
_symmetry_space_group_name_H-M "P 4/M B M"
_symmetry_group_IT_number 127
_symmetry_cell_setting 'tetragonal'
loop_
_space_group_symop_operation_xyz
x,y,z
-y,x,z
-x,-y,z
y,-x,z
1/2+x,1/2-y,-z
1/2-x,1/2+y,-z
1/2+y,1/2+x,-z
1/2-y,1/2-x,-z
-x,-y,-z
y,-x,-z
x,y,-z
-y,x,-z
1/2-x,1/2+y,z
1/2+x,1/2-y,z
1/2-y,1/2-x,z
1/2+y,1/2+x,z
loop_
_atom_site_type_symbol
_atom_site_label
_atom_site_fract_x
_atom_site_fract_y
_atom_site_fract_z
Si Si1 0.149519 0.524732 0.176183
Si Si2 0.252056 0.836840 0.665473
Si Si3 0.065823 0.276980 0.830527
Si Si4 0.414009 0.236457 0.323789
Si Si5 0.957877 0.457877 0.676300
Si Si6 0.999449 0.082842 0.673129
Si Si7 0.189224 0.011043 0.827190
Si Si8 0.183829 0.768258 0.165566
O O1 0.176619 0.471328 0.210230
O O2 0.184684 0.568935 0.243184
O O3 0.094928 0.524111 0.252928
O O4 0.143632 0.534728 0.000000
O O5 0.230679 0.848028 0.500000
O O6 0.291631 0.791631 0.659742
O O7 0.281122 0.886219 0.723867
O O8 0.204627 0.821962 0.771182
O O9 0.039213 0.222749 0.804617
O O10 0.084667 0.282369 0.000000
O O11 0.420412 0.229575 0.500000
O O12 0.444259 0.286124 0.269930
O O13 0.355856 0.245040 0.281582
O O14 0.950747 0.450747 0.500000
O O15 0.000000 0.500000 0.714357
O O16 0.999283 0.099108 0.500000
O O17 0.000097 0.132315 0.775652
O O18 0.049645 0.050322 0.710072
O O19 0.189485 0.027957 0.000000
O O20 0.230072 0.730072 0.152750
O O21 0.160118 0.777464 0.000000
#
# Coordination Sequence:
#
# PCOD8314232 Si02
#       8
#    16  16  16  16   8  16  16  16
#     4  10  22  41  63  87 117 153 196 241 291 353
#     4  10  21  36  55  82 114 147 186 232 280 332
#     4   9  20  38  58  81 111 150 191 233 284 343
#     4  11  22  37  59  85 116 150 188 234 287 347
#     4  11  25  43  63  91 125 157 197 249 299 351
#     4   9  19  36  56  79 110 149 193 240 292 349
#     4  10  21  37  56  81 112 144 186 235 281 336
#     4  10  21  37  57  81 112 149 188 229 276 332
#
# _framework density 19.382016
#
# number of rings (size 3 to 8) (size 9 to 14) (size 15 to 20)
#    0.000    2.067    0.000    4.200    0.933    7.467 
#    0.000    6.000    0.000    0.000    0.000    0.000 
#    0.000    0.000    0.000    0.000    0.000    0.000 
#
# Total GULP energy -1488246.381390 kJ/mol
# GULP energy per Si atom -12402.053178 kJ/mol
# Density = 1.933790 g / cm^3
# Si number density = 19.382016 Si / 1000 Ang^3
#
#
#
# Elastic Constant Matrix: (Units=GPa)
#
#
# Indices 1 2 3 4 5 6 
#
# 1 105.9093 30.5790 53.7619 0.0000 0.0000 0.0000
# 2 30.5790 105.9093 53.7619 0.0000 0.0000 0.0000
# 3 53.7619 53.7619 128.1404 0.0000 0.0000 0.0000
# 4 0.0000 0.0000 0.0000 33.6792 0.0000 0.0000
# 5 0.0000 0.0000 0.0000 0.0000 33.6792 0.0000
# 6 0.0000 0.0000 0.0000 0.0000 0.0000 12.4140
#
#
#
# Elastic Compliance Matrix: (Units=1/GPa)
#
#
# Indices 1 2 3 4 5 6 
#
# 1 0.012109 -0.001166 -0.004592 0.000000 0.000000 0.000000
# 2 -0.001166 0.012109 -0.004592 0.000000 0.000000 0.000000
# 3 -0.004592 -0.004592 0.011657 0.000000 0.000000 0.000000
# 4 0.000000 0.000000 0.000000 0.029692 0.000000 0.000000
# 5 0.000000 0.000000 0.000000 0.000000 0.029692 0.000000
# 6 0.000000 0.000000 0.000000 0.000000 0.000000 0.080554
#
#
# Mechanical properties :
#
#
# Convention : Reuss Voigt Hill
#
# Bulk Modulus (GPa) = 65.88388 68.46274 67.17331
# Shear Modulus (GPa) = 24.80531 29.41157 27.10844
#
# Velocity S-wave (km/s) = 3.58133 3.89969 3.74390
# Velocity P-wave (km/s) = 7.15313 7.46166 7.30902
#
# Compressibility (1/GPa) = 0.01517822
#
# Stress axis : x y z
#
# Youngs Moduli (GPa) = 82.58105 82.58105 85.78742
#
# Poissons Ratio (x) = 0.09625 0.39389
# Poissons Ratio (y) = 0.09625 0.39389
# Poissons Ratio (z) = 0.37917 0.37917
#
# Static dielectric constant tensor:
#      x y z
#    x 3.455240 0.000000 0.000000 
#    y 0.000000 3.455240 0.000000 
#    z 0.000000 0.000000 3.745180 
# 
# 
# High freq. dielectric constant tensor:
#      x y z
#    x 1.751730 0.000000 0.000000 
#    y 0.000000 1.751730 0.000000 
#    z 0.000000 0.000000 1.767310 
# 
# From -- ./inp_files/2405.got.cif
#   From: 2010.03.12/outbox.cif.g09.slc.cpg/sg127_2_cif.got.tgz:2405.got - 2010.04.06 17:03:15.
