data_PCOD8314630
_publ_section_title
;
Structure prediction by ZEFSAII (Michael W. Deem and Ramdas Pophale) SiO2 
 PCOD8314630
Probable space group: P 4/M N C
;
_chemical_formula_sum "Si O2"
_cell_formula_units_Z 96
_cell_length_a 24.002551
_cell_length_b 24.002551
_cell_length_c 8.883464
_cell_angle_alpha 90.000000
_cell_angle_beta 90.000000
_cell_angle_gamma 90.000000
_cell_volume 5117.963084
_symmetry_space_group_name_H-M "P 4/M N C"
_symmetry_group_IT_number 128
_symmetry_cell_setting 'tetragonal'
loop_
_space_group_symop_operation_xyz
x,y,z
-y,x,z
-x,-y,z
y,-x,z
1/2+x,1/2-y,1/2-z
1/2-x,1/2+y,1/2-z
1/2+y,1/2+x,1/2-z
1/2-y,1/2-x,1/2-z
-x,-y,-z
y,-x,-z
x,y,-z
-y,x,-z
1/2-x,1/2+y,1/2+z
1/2+x,1/2-y,1/2+z
1/2-y,1/2-x,1/2+z
1/2+y,1/2+x,1/2+z
loop_
_atom_site_type_symbol
_atom_site_label
_atom_site_fract_x
_atom_site_fract_y
_atom_site_fract_z
Si Si1 0.729166 0.850977 0.324261
Si Si2 0.851645 0.728640 0.177018
Si Si3 0.440686 0.862493 0.324135
Si Si4 0.146947 0.565910 0.678817
Si Si5 0.563044 0.434772 0.675661
Si Si6 0.641980 0.344748 0.174777
O O1 0.706376 0.793625 0.250000
O O2 0.714221 0.849557 0.500000
O O3 0.700442 0.903282 0.245272
O O4 0.794063 0.859869 0.294795
O O5 0.793998 0.706003 0.250000
O O6 0.901678 0.688352 0.225818
O O7 0.870772 0.788359 0.236580
O O8 0.842153 0.731524 0.000000
O O9 0.419631 0.919631 0.250000
O O10 0.439067 0.872030 0.500000
O O11 0.502390 0.848779 0.268313
O O12 0.090972 0.590972 0.750000
O O13 0.145839 0.572686 0.500000
O O14 0.577640 0.498675 0.716761
O O15 0.573310 0.424032 0.500000
O O16 0.602855 0.394516 0.769476
O O17 0.630199 0.334520 0.000000
#
# Coordination Sequence:
#
# PCOD8314630 Si02
#       6
#    16  16  16  16  16  16
#     4  10  21  36  53  76 107 141 176 216 264 314
#     4  10  20  36  56  79 109 144 181 223 271 320
#     4   9  20  36  54  77 105 139 178 220 265 313
#     4  10  20  35  54  77 105 138 178 221 265 312
#     4   9  20  40  62  82 107 141 180 222 269 320
#     4  11  23  36  55  85 113 141 179 219 265 324
#
# _framework density 18.757463000000001
#
# number of rings (size 3 to 8) (size 9 to 14) (size 15 to 20)
#    0.000    2.167    0.000    4.000    0.000    8.333 
#    0.000    7.500    0.000    0.000    0.000    0.000 
#    0.000    0.000    0.000    0.000    0.000    0.000 
#
# Total GULP energy -1190526.992575 kJ/mol
# GULP energy per Si atom -12401.322839 kJ/mol
# Density = 1.871477 g / cm^3
# Si number density = 18.757463 Si / 1000 Ang^3
#
#
#
# Elastic Constant Matrix: (Units=GPa)
#
#
# Indices 1 2 3 4 5 6 
#
# 1 123.6205 61.7765 55.5252 0.0000 0.0000 0.0000
# 2 61.7765 123.6196 55.5287 0.0000 0.0000 0.0000
# 3 55.5252 55.5287 90.5666 0.0000 0.0000 0.0000
# 4 0.0000 0.0000 0.0000 32.8231 0.0000 0.0000
# 5 0.0000 0.0000 0.0000 0.0000 32.8230 0.0000
# 6 0.0000 0.0000 0.0000 0.0000 0.0000 26.5382
#
#
#
# Elastic Compliance Matrix: (Units=1/GPa)
#
#
# Indices 1 2 3 4 5 6 
#
# 1 0.012347 -0.003823 -0.005226 0.000000 0.000000 0.000000
# 2 -0.003823 0.012348 -0.005227 0.000000 0.000000 0.000000
# 3 -0.005226 -0.005227 0.017450 0.000000 0.000000 0.000000
# 4 0.000000 0.000000 0.000000 0.030466 0.000000 0.000000
# 5 0.000000 0.000000 0.000000 0.000000 0.030466 0.000000
# 6 0.000000 0.000000 0.000000 0.000000 0.000000 0.037682
#
#
# Mechanical properties :
#
#
# Convention : Reuss Voigt Hill
#
# Bulk Modulus (GPa) = 73.56397 75.94083 74.75240
# Shear Modulus (GPa) = 28.76186 29.43526 29.09856
#
# Velocity S-wave (km/s) = 3.92006 3.96568 3.94293
# Velocity P-wave (km/s) = 7.73258 7.84490 7.78894
#
# Compressibility (1/GPa) = 0.01359361
#
# Stress axis : x y z
#
# Youngs Moduli (GPa) = 80.99252 80.98780 57.30553
#
# Poissons Ratio (x) = 0.30959 0.29947
# Poissons Ratio (y) = 0.30961 0.29953
# Poissons Ratio (z) = 0.42326 0.42332
#
# Static dielectric constant tensor:
#      x y z
#    x 3.550020 0.000000 0.000000 
#    y 0.000000 3.550030 0.000000 
#    z 0.000000 0.000000 3.475250 
# 
# 
# High freq. dielectric constant tensor:
#      x y z
#    x 1.731700 0.000000 0.000000 
#    y 0.000000 1.731700 0.000000 
#    z 0.000000 0.000000 1.736730 
# 
# From -- ./inp_files/1432.got.cif
#   From: 2010.03.12/outbox.cif.g09.slc.cpg/sg128_1_cif.got.tgz:1432.got - 2010.04.06 17:11:05.
