data_PCOD8314874
_publ_section_title
;
Structure prediction by ZEFSAII (Michael W. Deem and Ramdas Pophale) SiO2 
 PCOD8314874
Probable space group: P 4/N M M
;
_chemical_formula_sum "Si O2"
_cell_formula_units_Z 112
_cell_length_a 23.919310
_cell_length_b 23.919310
_cell_length_c 11.438772
_cell_angle_alpha 90.000000
_cell_angle_beta 90.000000
_cell_angle_gamma 90.000000
_cell_volume 6544.503412
_symmetry_space_group_name_H-M "P 4/N M M"
_symmetry_group_IT_number 129
_symmetry_cell_setting 'tetragonal'
loop_
_space_group_symop_operation_xyz
x,y,z
1/2-y,x,z
1/2-x,1/2-y,z
y,1/2-x,z
1/2+x,-y,-z
-x,1/2+y,-z
1/2+y,1/2+x,-z
-y,-x,-z
-x,-y,-z
1/2+y,-x,-z
1/2+x,1/2+y,-z
-y,1/2+x,-z
1/2-x,y,z
x,1/2-y,z
1/2-y,1/2-x,z
y,x,z
loop_
_atom_site_type_symbol
_atom_site_label
_atom_site_fract_x
_atom_site_fract_y
_atom_site_fract_z
Si Si1 0.859212 0.429272 0.418780
Si Si2 0.683586 0.426761 0.841271
Si Si3 0.874429 0.535116 0.272974
Si Si4 0.519471 0.188048 0.923043
Si Si5 0.687360 0.491821 0.620713
Si Si6 0.687910 0.132318 0.216958
Si Si7 0.183942 0.405268 0.520097
O O1 0.910090 0.410090 0.500000
O O2 0.885250 0.474718 0.330331
O O3 0.812145 0.454798 0.503446
O O4 0.830513 0.377421 0.351459
O O5 0.750000 0.427135 0.840907
O O6 0.657096 0.459293 0.728455
O O7 0.667249 0.361104 0.846162
O O8 0.660697 0.460029 0.954638
O O9 0.933331 0.566670 0.261470
O O10 0.849238 0.527312 0.142147
O O11 0.831469 0.570450 0.352435
O O12 0.494278 0.250000 0.945048
O O13 0.572153 0.193605 0.839439
O O14 0.750000 0.501606 0.663043
O O15 0.662455 0.552318 0.582920
O O16 0.750000 0.161611 0.211134
O O17 0.250000 0.395817 0.514432
O O18 0.153610 0.346391 0.498367
#
# Coordination Sequence:
#
# PCOD8314874 Si02
#       7
#    16  16  16  16  16  16  16
#     4  10  17  29  48  68  92 126 161 196 242 296
#     4  10  19  31  48  68  92 125 164 207 251 295
#     4   9  18  31  49  72  96 122 156 201 246 291
#     4   9  18  32  50  68  89 123 164 200 239 297
#     4   9  17  30  47  67  94 128 166 201 237 289
#     4  10  19  31  48  69  93 123 162 207 252 297
#     4   9  17  30  50  76 104 131 161 200 245 297
#
# _framework density 17.113598
#
# number of rings (size 3 to 8) (size 9 to 14) (size 15 to 20)
#    0.000    2.571    1.429    1.286    0.000    4.143 
#    0.000    0.714    0.000    9.429    0.000    0.000 
#    0.000    0.000    0.000    9.000    0.000    0.000 
#
# Total GULP energy -1387644.117909 kJ/mol
# GULP energy per Si atom -12389.679624 kJ/mol
# Density = 1.707465 g / cm^3
# Si number density = 17.113598 Si / 1000 Ang^3
#
#
#
# Elastic Constant Matrix: (Units=GPa)
#
#
# Indices 1 2 3 4 5 6 
#
# 1 75.0357 37.1742 36.3580 0.0000 0.0000 0.0000
# 2 37.1742 75.0357 36.3580 0.0000 0.0000 0.0000
# 3 36.3580 36.3580 99.0952 0.0000 0.0000 0.0000
# 4 0.0000 0.0000 0.0000 20.8826 0.0000 0.0000
# 5 0.0000 0.0000 0.0000 0.0000 20.8826 0.0000
# 6 0.0000 0.0000 0.0000 0.0000 0.0000 24.8944
#
#
#
# Elastic Compliance Matrix: (Units=1/GPa)
#
#
# Indices 1 2 3 4 5 6 
#
# 1 0.019052 -0.007360 -0.004290 0.000000 0.000000 0.000000
# 2 -0.007360 0.019052 -0.004290 0.000000 0.000000 0.000000
# 3 -0.004290 -0.004290 0.013239 0.000000 0.000000 0.000000
# 4 0.000000 0.000000 0.000000 0.047887 0.000000 0.000000
# 5 0.000000 0.000000 0.000000 0.000000 0.047887 0.000000
# 6 0.000000 0.000000 0.000000 0.000000 0.000000 0.040170
#
#
# Mechanical properties :
#
#
# Convention : Reuss Voigt Hill
#
# Bulk Modulus (GPa) = 51.37747 52.10522 51.74134
# Shear Modulus (GPa) = 22.15789 22.61700 22.38745
#
# Velocity S-wave (km/s) = 3.60217 3.63930 3.62078
# Velocity P-wave (km/s) = 6.88386 6.94061 6.91229
#
# Compressibility (1/GPa) = 0.01946378
#
# Stress axis : x y z
#
# Youngs Moduli (GPa) = 52.48813 52.48813 75.53386
#
# Poissons Ratio (x) = 0.38632 0.32402
# Poissons Ratio (y) = 0.38632 0.32402
# Poissons Ratio (z) = 0.22516 0.22516
#
# Static dielectric constant tensor:
#      x y z
#    x 3.087830 0.000000 0.000000 
#    y 0.000000 3.087830 0.000000 
#    z 0.000000 0.000000 3.493130 
# 
# 
# High freq. dielectric constant tensor:
#      x y z
#    x 1.637980 0.000000 0.000000 
#    y 0.000000 1.637980 0.000000 
#    z 0.000000 0.000000 1.663620 
# 
# From -- ./inp_files/4063.got.cif
#   From: 2010.03.12/outbox.cif.g09.slc.cpg/sg129_3_cif.got.tgz:4063.got - 2010.04.06 17:19:44.
