data_PCOD8314935
_publ_section_title
;
Structure prediction by ZEFSAII (Michael W. Deem and Ramdas Pophale) SiO2 
 PCOD8314935
Probable space group: P 4/N M M
;
_chemical_formula_sum "Si O2"
_cell_formula_units_Z 96
_cell_length_a 26.240183
_cell_length_b 26.240183
_cell_length_c 9.859364
_cell_angle_alpha 90.000000
_cell_angle_beta 90.000000
_cell_angle_gamma 90.000000
_cell_volume 6788.637514
_symmetry_space_group_name_H-M "P 4/N M M"
_symmetry_group_IT_number 129
_symmetry_cell_setting 'tetragonal'
loop_
_space_group_symop_operation_xyz
x,y,z
1/2-y,x,z
1/2-x,1/2-y,z
y,1/2-x,z
1/2+x,-y,-z
-x,1/2+y,-z
1/2+y,1/2+x,-z
-y,-x,-z
-x,-y,-z
1/2+y,-x,-z
1/2+x,1/2+y,-z
-y,1/2+x,-z
1/2-x,y,z
x,1/2-y,z
1/2-y,1/2-x,z
y,x,z
loop_
_atom_site_type_symbol
_atom_site_label
_atom_site_fract_x
_atom_site_fract_y
_atom_site_fract_z
Si Si1 0.903190 0.982422 0.950288
Si Si2 0.613204 0.191826 0.954089
Si Si3 0.478565 0.693989 0.843764
Si Si4 0.943888 0.475108 0.214947
Si Si5 0.091794 0.640212 0.322632
Si Si6 0.585421 0.191618 0.406053
O O1 0.927073 0.927073 0.923855
O O2 0.845379 0.979445 0.897682
O O3 0.932598 0.024871 0.864925
O O4 0.906855 0.996066 0.109073
O O5 0.626576 0.250000 0.922070
O O6 0.587746 0.166774 0.822346
O O7 0.664989 0.164989 0.000000
O O8 0.574109 0.185446 0.076800
O O9 0.501044 0.750000 0.871791
O O10 0.465750 0.686742 0.684656
O O11 0.909527 0.445490 0.325781
O O12 0.983088 0.516913 0.280503
O O13 0.071416 0.678527 0.438448
O O14 0.150839 0.626790 0.352660
O O15 0.606662 0.250000 0.395550
#
# Coordination Sequence:
#
# PCOD8314935 Si02
#       6
#    16  16  16  16  16  16
#     4   9  15  26  44  67  92 110 131 169 217 259
#     4  11  20  30  45  61  79 103 143 188 223 259
#     4  10  18  30  46  64  86 111 144 177 208 256
#     4   9  16  26  44  67  88 109 134 170 215 261
#     4  11  19  32  48  58  82 108 143 179 214 268
#     4  10  21  32  43  59  80 111 141 178 221 251
#
# _framework density 14.141276
#
# number of rings (size 3 to 8) (size 9 to 14) (size 15 to 20)
#    0.000    2.000    5.000    1.500    0.000    0.167 
#    0.000    2.500    0.000    8.000    0.000    0.000 
#    0.000    0.333    0.000    0.000    0.000    0.000 
#
# Total GULP energy -1189891.860160 kJ/mol
# GULP energy per Si atom -12394.706877 kJ/mol
# Density = 1.410909 g / cm^3
# Si number density = 14.141276 Si / 1000 Ang^3
#
#
#
# Elastic Constant Matrix: (Units=GPa)
#
#
# Indices 1 2 3 4 5 6 
#
# 1 75.3769 50.2221 24.0987 0.0000 0.0000 0.0000
# 2 50.2221 75.3769 24.0987 0.0000 0.0000 0.0000
# 3 24.0987 24.0987 57.5430 0.0000 0.0000 0.0000
# 4 0.0000 0.0000 0.0000 16.6576 0.0000 0.0000
# 5 0.0000 0.0000 0.0000 0.0000 16.6576 0.0000
# 6 0.0000 0.0000 0.0000 0.0000 0.0000 19.0958
#
#
#
# Elastic Compliance Matrix: (Units=1/GPa)
#
#
# Indices 1 2 3 4 5 6 
#
# 1 0.024620 -0.015134 -0.003973 0.000000 0.000000 0.000000
# 2 -0.015134 0.024620 -0.003973 0.000000 0.000000 0.000000
# 3 -0.003973 -0.003973 0.020706 0.000000 0.000000 0.000000
# 4 0.000000 0.000000 0.000000 0.060033 0.000000 0.000000
# 5 0.000000 0.000000 0.000000 0.000000 0.060033 0.000000
# 6 0.000000 0.000000 0.000000 0.000000 0.000000 0.052368
#
#
# Mechanical properties :
#
#
# Convention : Reuss Voigt Hill
#
# Bulk Modulus (GPa) = 42.03921 45.01507 43.52714
# Shear Modulus (GPa) = 16.86530 17.80737 17.33633
#
# Velocity S-wave (km/s) = 3.45719 3.55244 3.50514
# Velocity P-wave (km/s) = 6.76231 6.98054 6.87229
#
# Compressibility (1/GPa) = 0.02378732
#
# Stress axis : x y z
#
# Youngs Moduli (GPa) = 40.61722 40.61722 48.29537
#
# Poissons Ratio (x) = 0.61469 0.19187
# Poissons Ratio (y) = 0.61469 0.19187
# Poissons Ratio (z) = 0.16137 0.16137
#
# Static dielectric constant tensor:
#      x y z
#    x 2.721920 0.000000 0.000000 
#    y 0.000000 2.721920 0.000000 
#    z 0.000000 0.000000 2.886780 
# 
# 
# High freq. dielectric constant tensor:
#      x y z
#    x 1.514270 0.000000 0.000000 
#    y 0.000000 1.514270 0.000000 
#    z 0.000000 0.000000 1.543730 
# 
# From -- ./inp_files/2772.got.cif
#   From: 2010.03.12/outbox.cif.g09.slc.cpg/sg129_2_cif.got.tgz:2772.got - 2010.04.06 17:19:44.
