data_PCOD8314074
_publ_section_title
;
Structure prediction by ZEFSAII (Michael W. Deem and Ramdas Pophale) SiO2 
 PCOD8314074
Probable space group: P 4/M B M
;
_chemical_formula_sum "Si O2"
_cell_formula_units_Z 96
_cell_length_a 25.069064
_cell_length_b 25.069064
_cell_length_c 9.004549
_cell_angle_alpha 90.000000
_cell_angle_beta 90.000000
_cell_angle_gamma 90.000000
_cell_volume 5658.980584
_symmetry_space_group_name_H-M "P 4/M B M"
_symmetry_group_IT_number 127
_symmetry_cell_setting 'tetragonal'
loop_
_space_group_symop_operation_xyz
x,y,z
-y,x,z
-x,-y,z
y,-x,z
1/2+x,1/2-y,-z
1/2-x,1/2+y,-z
1/2+y,1/2+x,-z
1/2-y,1/2-x,-z
-x,-y,-z
y,-x,-z
x,y,-z
-y,x,-z
1/2-x,1/2+y,z
1/2+x,1/2-y,z
1/2-y,1/2-x,z
1/2+y,1/2+x,z
loop_
_atom_site_type_symbol
_atom_site_label
_atom_site_fract_x
_atom_site_fract_y
_atom_site_fract_z
Si Si1 0.741368 0.547668 0.675360
Si Si2 0.237810 0.177639 0.175506
Si Si3 0.760226 0.650881 0.170902
Si Si4 0.241417 0.067538 0.662193
Si Si5 0.448476 0.382181 0.664349
Si Si6 0.449184 0.629497 0.825310
O O1 0.728531 0.551576 0.500000
O O2 0.775255 0.599282 0.727786
O O3 0.769277 0.489407 0.710422
O O4 0.690100 0.554758 0.778221
O O5 0.287132 0.212869 0.235946
O O6 0.182081 0.205947 0.225776
O O7 0.247385 0.117069 0.228267
O O8 0.238563 0.176590 0.000000
O O9 0.809420 0.690581 0.187516
O O10 0.753034 0.633142 0.000000
O O11 0.262657 0.085570 0.500000
O O12 0.180857 0.049092 0.649864
O O13 0.443356 0.407987 0.500000
O O14 0.398824 0.395596 0.769436
O O15 0.502377 0.401611 0.744714
O O16 0.455851 0.624614 0.000000
#
# Coordination Sequence:
#
# PCOD8314074 Si02
#       6
#    16  16  16  16  16  16
#     4  10  20  33  47  66  93 123 155 190 229 274
#     4   9  18  31  47  69  96 123 152 190 234 278
#     4   9  18  32  49  71  98 125 156 197 241 283
#     4   9  19  32  46  65  89 118 152 188 224 268
#     4  10  20  34  47  61  83 111 145 188 234 274
#     4  11  21  32  46  64  83 109 148 189 231 277
#
# _framework density 16.964186000000002
#
# number of rings (size 3 to 8) (size 9 to 14) (size 15 to 20)
#    0.000    2.333    0.000    5.500    0.000    8.333 
#    0.000    3.333    0.000    0.000    0.000    0.000 
#    0.000    0.667    0.000    7.333    0.000    5.333 
#
# Total GULP energy -1189318.699363 kJ/mol
# GULP energy per Si atom -12388.736452 kJ/mol
# Density = 1.692557 g / cm^3
# Si number density = 16.964186 Si / 1000 Ang^3
#
#
#
# Elastic Constant Matrix: (Units=GPa)
#
#
# Indices 1 2 3 4 5 6 
#
# 1 67.4670 15.8896 27.2678 0.0000 0.0000 0.0000
# 2 15.8896 67.4670 27.2678 0.0000 0.0000 0.0000
# 3 27.2678 27.2678 85.5828 0.0000 0.0000 0.0000
# 4 0.0000 0.0000 0.0000 24.9157 0.0000 0.0000
# 5 0.0000 0.0000 0.0000 0.0000 24.9157 0.0000
# 6 0.0000 0.0000 0.0000 0.0000 0.0000 17.3995
#
#
#
# Elastic Compliance Matrix: (Units=1/GPa)
#
#
# Indices 1 2 3 4 5 6 
#
# 1 0.017272 -0.002116 -0.004829 0.000000 0.000000 0.000000
# 2 -0.002116 0.017272 -0.004829 0.000000 0.000000 0.000000
# 3 -0.004829 -0.004829 0.014762 0.000000 0.000000 0.000000
# 4 0.000000 0.000000 0.000000 0.040135 0.000000 0.000000
# 5 0.000000 0.000000 0.000000 0.000000 0.040135 0.000000
# 6 0.000000 0.000000 0.000000 0.000000 0.000000 0.057473
#
#
# Mechanical properties :
#
#
# Convention : Reuss Voigt Hill
#
# Bulk Modulus (GPa) = 38.82287 40.15192 39.48739
# Shear Modulus (GPa) = 22.81193 23.45227 23.13210
#
# Velocity S-wave (km/s) = 3.67101 3.72218 3.69668
# Velocity P-wave (km/s) = 6.39557 6.49560 6.44578
#
# Compressibility (1/GPa) = 0.02575801
#
# Stress axis : x y z
#
# Youngs Moduli (GPa) = 57.89670 57.89670 67.74297
#
# Poissons Ratio (x) = 0.12252 0.32712
# Poissons Ratio (y) = 0.12252 0.32712
# Poissons Ratio (z) = 0.27958 0.27958
#
# Static dielectric constant tensor:
#      x y z
#    x 3.154390 0.000000 0.000000 
#    y 0.000000 3.154390 0.000000 
#    z 0.000000 0.000000 3.210010 
# 
# 
# High freq. dielectric constant tensor:
#      x y z
#    x 1.629530 0.000000 0.000000 
#    y 0.000000 1.629530 0.000000 
#    z 0.000000 0.000000 1.660950 
# 
# From -- ./inp_files/1926.got.cif
#   From: 2010.03.12/outbox.cif.g09.slc.cpg/sg127_1_cif.got.tgz:1926.got - 2010.04.06 17:03:15.
