data_PCOD8314431
_publ_section_title
;
Structure prediction by ZEFSAII (Michael W. Deem and Ramdas Pophale) SiO2 
 PCOD8314431
Probable space group: P 4/M B M
;
_chemical_formula_sum "Si O2"
_cell_formula_units_Z 72
_cell_length_a 11.813628
_cell_length_b 11.813628
_cell_length_c 25.083308
_cell_angle_alpha 90.000000
_cell_angle_beta 90.000000
_cell_angle_gamma 90.000000
_cell_volume 3500.671778
_symmetry_space_group_name_H-M "P 4/M B M"
_symmetry_group_IT_number 127
_symmetry_cell_setting 'tetragonal'
loop_
_space_group_symop_operation_xyz
x,y,z
-y,x,z
-x,-y,z
y,-x,z
1/2+x,1/2-y,-z
1/2-x,1/2+y,-z
1/2+y,1/2+x,-z
1/2-y,1/2-x,-z
-x,-y,-z
y,-x,-z
x,y,-z
-y,x,-z
1/2-x,1/2+y,z
1/2+x,1/2-y,z
1/2-y,1/2-x,z
1/2+y,1/2+x,z
loop_
_atom_site_type_symbol
_atom_site_label
_atom_site_fract_x
_atom_site_fract_y
_atom_site_fract_z
Si Si1 0.405797 0.905797 0.561182
Si Si2 0.681691 0.524771 0.378255
Si Si3 0.312306 0.495749 0.828690
Si Si4 0.187107 0.995804 0.943772
Si Si5 0.317696 0.003139 0.277283
O O1 0.378956 0.878956 0.500000
O O2 0.293229 0.954659 0.587697
O O3 0.500000 0.000000 0.568198
O O4 0.595613 0.625612 0.392271
O O5 0.710435 0.518038 0.315370
O O6 0.391213 0.386190 0.822599
O O7 0.247657 0.494263 0.886819
O O8 0.216957 0.493188 0.784085
O O9 0.113034 0.108068 0.944166
O O10 0.259742 0.994139 0.000000
O O11 0.373467 0.126534 0.287693
O O12 0.408286 0.908286 0.291332
#
# Coordination Sequence:
#
# PCOD8314431 Si02
#       5
#     8  16  16  16  16
#     4  11  26  46  72 103 139 179 216 259 311 364
#     4  11  25  44  70 101 132 170 217 266 316 373
#     4   9  17  29  48  77 108 138 181 238 299 366
#     4   7  10  19  38  65  97 132 172 225 290 356
#     4  11  23  37  56  81 115 156 202 250 308 373
#
# _framework density 20.567481000000001
#
# number of rings (size 3 to 8) (size 9 to 14) (size 15 to 20)
#    0.000    2.333    1.111    4.000    3.111    5.333 
#    0.000    1.111    0.000    1.333    0.000    7.778 
#    0.000    0.000    0.000    0.000    0.000    0.000 
#
# Total GULP energy -891987.636011 kJ/mol
# GULP energy per Si atom -12388.717167 kJ/mol
# Density = 2.052067 g / cm^3
# Si number density = 20.567481 Si / 1000 Ang^3
#
#
#
# Elastic Constant Matrix: (Units=GPa)
#
#
# Indices 1 2 3 4 5 6 
#
# 1 71.4484 19.5181 40.0352 0.0000 0.0000 0.0000
# 2 19.5181 71.4484 40.0352 0.0000 0.0000 0.0000
# 3 40.0352 40.0352 156.0119 0.0000 0.0000 0.0000
# 4 0.0000 0.0000 0.0000 20.0022 0.0000 0.0000
# 5 0.0000 0.0000 0.0000 0.0000 20.0022 0.0000
# 6 0.0000 0.0000 0.0000 0.0000 0.0000 16.9130
#
#
#
# Elastic Compliance Matrix: (Units=1/GPa)
#
#
# Indices 1 2 3 4 5 6 
#
# 1 0.016729 -0.002528 -0.003644 0.000000 0.000000 0.000000
# 2 -0.002528 0.016729 -0.003644 0.000000 0.000000 0.000000
# 3 -0.003644 -0.003644 0.008280 0.000000 0.000000 0.000000
# 4 0.000000 0.000000 0.000000 0.049994 0.000000 0.000000
# 5 0.000000 0.000000 0.000000 0.000000 0.049994 0.000000
# 6 0.000000 0.000000 0.000000 0.000000 0.000000 0.059126
#
#
# Mechanical properties :
#
#
# Convention : Reuss Voigt Hill
#
# Bulk Modulus (GPa) = 45.23881 55.34286 50.29083
# Shear Modulus (GPa) = 21.94398 24.67152 23.30775
#
# Velocity S-wave (km/s) = 3.26993 3.46720 3.37000
# Velocity P-wave (km/s) = 6.02492 6.55705 6.29661
#
# Compressibility (1/GPa) = 0.02210492
#
# Stress axis : x y z
#
# Youngs Moduli (GPa) = 59.77780 59.77780 120.77217
#
# Poissons Ratio (x) = 0.15111 0.44011
# Poissons Ratio (y) = 0.15111 0.44011
# Poissons Ratio (z) = 0.21784 0.21784
#
# Static dielectric constant tensor:
#      x y z
#    x 3.464140 0.000000 0.000000 
#    y 0.000000 3.464140 0.000000 
#    z 0.000000 0.000000 4.235690 
# 
# 
# High freq. dielectric constant tensor:
#      x y z
#    x 1.776800 0.000000 0.000000 
#    y 0.000000 1.776800 0.000000 
#    z 0.000000 0.000000 1.827750 
# 
# From -- ./inp_files/6306.got.cif
#   From: 2010.03.12/outbox.cif.g09.slc.cpg/sg127_4_cif.got.tgz:6306.got - 2010.04.06 17:03:15.
