data_PCOD8314752
_publ_section_title
;
Structure prediction by ZEFSAII (Michael W. Deem and Ramdas Pophale) SiO2 
 PCOD8314752
Probable space group: P 4/M N C
;
_chemical_formula_sum "Si O2"
_cell_formula_units_Z 80
_cell_length_a 14.873953
_cell_length_b 14.873953
_cell_length_c 16.842055
_cell_angle_alpha 90.000000
_cell_angle_beta 90.000000
_cell_angle_gamma 90.000000
_cell_volume 3726.043244
_symmetry_space_group_name_H-M "P 4/M N C"
_symmetry_group_IT_number 128
_symmetry_cell_setting 'tetragonal'
loop_
_space_group_symop_operation_xyz
x,y,z
-y,x,z
-x,-y,z
y,-x,z
1/2+x,1/2-y,1/2-z
1/2-x,1/2+y,1/2-z
1/2+y,1/2+x,1/2-z
1/2-y,1/2-x,1/2-z
-x,-y,-z
y,-x,-z
x,y,-z
-y,x,-z
1/2-x,1/2+y,1/2+z
1/2+x,1/2-y,1/2+z
1/2-y,1/2-x,1/2+z
1/2+y,1/2+x,1/2+z
loop_
_atom_site_type_symbol
_atom_site_label
_atom_site_fract_x
_atom_site_fract_y
_atom_site_fract_z
Si Si1 0.950406 0.412995 0.159548
Si Si2 0.776451 0.113648 0.590559
Si Si3 0.699333 0.120700 0.832367
Si Si4 0.375679 0.421912 0.591280
Si Si5 0.582361 0.754978 0.905527
O O1 0.931722 0.431722 0.250000
O O2 0.856622 0.390505 0.116945
O O3 0.000000 0.500000 0.120934
O O4 0.017246 0.328611 0.156035
O O5 0.804147 0.101914 0.500000
O O6 0.676858 0.153336 0.597381
O O7 0.847110 0.182892 0.630960
O O8 0.774792 0.014501 0.630532
O O9 0.666870 0.166870 0.750000
O O10 0.806473 0.123753 0.846437
O O11 0.471821 0.378155 0.607438
O O12 0.345997 0.404246 0.500000
O O13 0.581725 0.751251 0.000000
#
# Coordination Sequence:
#
# PCOD8314752 Si02
#       5
#    16  16  16  16  16
#     4  11  21  41  61  82 122 160 200 249 311 381
#     4  10  22  40  59  86 121 159 216 263 310 379
#     4  12  23  39  61  93 129 167 206 263 327 387
#     4   9  21  44  70  96 129 171 221 276 335 396
#     4  10  22  39  62  89 117 157 207 262 314 373
#
# _framework density 21.470499
#
# number of rings (size 3 to 8) (size 9 to 14) (size 15 to 20)
#    0.000    1.600    4.000    1.200    2.800    3.200 
#    3.600    2.000    0.000    0.000    0.000    0.000 
#    0.000    0.000    0.000    0.000    0.000    0.000 
#
# Total GULP energy -991541.655434 kJ/mol
# GULP energy per Si atom -12394.270693 kJ/mol
# Density = 2.142163 g / cm^3
# Si number density = 21.470499 Si / 1000 Ang^3
#
#
#
# Elastic Constant Matrix: (Units=GPa)
#
#
# Indices 1 2 3 4 5 6 
#
# 1 123.9200 61.9590 38.0736 0.0000 0.0000 0.0000
# 2 61.9590 123.9200 38.0736 0.0000 0.0000 0.0000
# 3 38.0736 38.0736 40.8347 0.0000 0.0000 0.0000
# 4 0.0000 0.0000 0.0000 22.9566 0.0000 0.0000
# 5 0.0000 0.0000 0.0000 0.0000 22.9566 0.0000
# 6 0.0000 0.0000 0.0000 0.0000 0.0000 37.3370
#
#
#
# Elastic Compliance Matrix: (Units=1/GPa)
#
#
# Indices 1 2 3 4 5 6 
#
# 1 0.012422 -0.003717 -0.008116 0.000000 0.000000 0.000000
# 2 -0.003717 0.012422 -0.008116 0.000000 0.000000 0.000000
# 3 -0.008116 -0.008116 0.039624 0.000000 0.000000 0.000000
# 4 0.000000 0.000000 0.000000 0.043561 0.000000 0.000000
# 5 0.000000 0.000000 0.000000 0.000000 0.043561 0.000000
# 6 0.000000 0.000000 0.000000 0.000000 0.000000 0.026783
#
#
# Mechanical properties :
#
#
# Convention : Reuss Voigt Hill
#
# Bulk Modulus (GPa) = 40.70244 62.76525 51.73385
# Shear Modulus (GPa) = 22.07894 26.68792 24.38343
#
# Velocity S-wave (km/s) = 3.21025 3.52945 3.37363
# Velocity P-wave (km/s) = 5.72184 6.77540 6.27079
#
# Compressibility (1/GPa) = 0.02456855
#
# Stress axis : x y z
#
# Youngs Moduli (GPa) = 80.50270 80.50270 25.23748
#
# Poissons Ratio (x) = 0.29925 0.20483
# Poissons Ratio (y) = 0.29925 0.20483
# Poissons Ratio (z) = 0.65337 0.65337
#
# Static dielectric constant tensor:
#      x y z
#    x 4.256800 0.000000 0.000000 
#    y 0.000000 4.256800 0.000000 
#    z 0.000000 0.000000 3.568910 
# 
# 
# High freq. dielectric constant tensor:
#      x y z
#    x 1.850310 0.000000 0.000000 
#    y 0.000000 1.850310 0.000000 
#    z 0.000000 0.000000 1.814840 
# 
# From -- ./inp_files/5522.got.cif
#   From: 2010.03.12/outbox.cif.g09.slc.cpg/sg128_3_cif.got.tgz:5522.got - 2010.04.06 17:11:05.
