data_PCOD8314382
_publ_section_title
;
Structure prediction by ZEFSAII (Michael W. Deem and Ramdas Pophale) SiO2 
 PCOD8314382
Probable space group: P 4/M B M
;
_chemical_formula_sum "Si O2"
_cell_formula_units_Z 96
_cell_length_a 24.607511
_cell_length_b 24.607511
_cell_length_c 7.503365
_cell_angle_alpha 90.000000
_cell_angle_beta 90.000000
_cell_angle_gamma 90.000000
_cell_volume 4543.509589
_symmetry_space_group_name_H-M "P 4/M B M"
_symmetry_group_IT_number 127
_symmetry_cell_setting 'tetragonal'
loop_
_space_group_symop_operation_xyz
x,y,z
-y,x,z
-x,-y,z
y,-x,z
1/2+x,1/2-y,-z
1/2-x,1/2+y,-z
1/2+y,1/2+x,-z
1/2-y,1/2-x,-z
-x,-y,-z
y,-x,-z
x,y,-z
-y,x,-z
1/2-x,1/2+y,z
1/2+x,1/2-y,z
1/2-y,1/2-x,z
1/2+y,1/2+x,z
loop_
_atom_site_type_symbol
_atom_site_label
_atom_site_fract_x
_atom_site_fract_y
_atom_site_fract_z
Si Si1 0.266604 0.402723 0.297320
Si Si2 0.654160 0.448770 0.000000
Si Si3 0.440800 0.145260 0.711493
Si Si4 0.851583 0.068904 0.000000
Si Si5 0.562373 0.148549 0.288392
Si Si6 0.700860 0.710516 0.202509
Si Si7 0.265789 0.583438 0.699565
O O1 0.275908 0.422645 0.500000
O O2 0.316062 0.423161 0.177352
O O3 0.209423 0.424741 0.220385
O O4 0.264383 0.337313 0.291597
O O5 0.691479 0.446573 0.824584
O O6 0.625469 0.507531 0.000000
O O7 0.608791 0.402635 0.000000
O O8 0.437223 0.143568 0.500000
O O9 0.399445 0.100556 0.793611
O O10 0.502022 0.131836 0.776076
O O11 0.424464 0.205267 0.778725
O O12 0.566517 0.147985 0.500000
O O13 0.605458 0.105458 0.207158
O O14 0.734850 0.765151 0.206061
O O15 0.646888 0.720822 0.313585
O O16 0.684736 0.693937 0.000000
O O17 0.270068 0.558600 0.500000
#
# Coordination Sequence:
#
# PCOD8314382 Si02
#       7
#    16   8  16   8  16  16  16
#     4  11  21  39  63  91 125 161 204 252 308 370
#     4  12  26  45  66  94 123 155 201 249 309 380
#     4   9  18  32  52  81 117 160 207 251 298 350
#     4  12  26  45  66  94 123 155 201 249 309 380
#     4   9  18  32  52  81 117 160 207 251 298 350
#     4  11  21  35  59  94 133 166 200 248 310 377
#     4  11  21  39  63  91 125 161 204 252 308 370
#
# _framework density 21.129041000000001
#
# number of rings (size 3 to 8) (size 9 to 14) (size 15 to 20)
#    0.000    1.500    3.333    2.500    0.000    5.167 
#    0.000    1.667    0.000    0.000    0.000    2.333 
#    0.000    4.000    0.000    0.333    0.000    0.000 
#
# Total GULP energy -1190488.368961 kJ/mol
# GULP energy per Si atom -12400.920510 kJ/mol
# Density = 2.108095 g / cm^3
# Si number density = 21.129041 Si / 1000 Ang^3
#
#
#
# Elastic Constant Matrix: (Units=GPa)
#
#
# Indices 1 2 3 4 5 6 
#
# 1 137.3043 61.5715 25.7465 0.0000 0.0000 0.0000
# 2 61.5715 137.3043 25.7465 0.0000 0.0000 0.0000
# 3 25.7465 25.7465 84.1244 0.0000 0.0000 0.0000
# 4 0.0000 0.0000 0.0000 3.2402 0.0000 0.0000
# 5 0.0000 0.0000 0.0000 0.0000 3.2402 0.0000
# 6 0.0000 0.0000 0.0000 0.0000 0.0000 19.0479
#
#
#
# Elastic Compliance Matrix: (Units=1/GPa)
#
#
# Indices 1 2 3 4 5 6 
#
# 1 0.009333 -0.003872 -0.001671 0.000000 0.000000 0.000000
# 2 -0.003872 0.009333 -0.001671 0.000000 0.000000 0.000000
# 3 -0.001671 -0.001671 0.012910 0.000000 0.000000 0.000000
# 4 0.000000 0.000000 0.000000 0.308620 0.000000 0.000000
# 5 0.000000 0.000000 0.000000 0.000000 0.308620 0.000000
# 6 0.000000 0.000000 0.000000 0.000000 0.000000 0.052499
#
#
# Mechanical properties :
#
#
# Convention : Reuss Voigt Hill
#
# Bulk Modulus (GPa) = 58.31989 64.98463 61.65226
# Shear Modulus (GPa) = 6.93040 21.48358 14.20699
#
# Velocity S-wave (km/s) = 1.81305 3.19216 2.59586
# Velocity P-wave (km/s) = 5.66079 6.66403 6.18279
#
# Compressibility (1/GPa) = 0.01714681
#
# Stress axis : x y z
#
# Youngs Moduli (GPa) = 107.15052 107.15052 77.45810
#
# Poissons Ratio (x) = 0.41485 0.12946
# Poissons Ratio (y) = 0.41485 0.12946
# Poissons Ratio (z) = 0.17909 0.17909
#
# Static dielectric constant tensor:
#      x y z
#    x 3.891370 0.000000 0.000000 
#    y 0.000000 3.891370 0.000000 
#    z 0.000000 0.000000 3.672200 
# 
# 
# High freq. dielectric constant tensor:
#      x y z
#    x 1.826230 0.000000 0.000000 
#    y 0.000000 1.826230 0.000000 
#    z 0.000000 0.000000 1.818130 
# 
# From -- ./inp_files/2053.got.cif
#   From: 2010.03.12/outbox.cif.g09.slc.cpg/sg127_2_cif.got.tgz:2053.got - 2010.04.06 17:03:15.
