data_PCOD8314424
_publ_section_title
;
Structure prediction by ZEFSAII (Michael W. Deem and Ramdas Pophale) SiO2 
 PCOD8314424
Probable space group: P 4/M B M
;
_chemical_formula_sum "Si O2"
_cell_formula_units_Z 64
_cell_length_a 15.065814
_cell_length_b 15.065814
_cell_length_c 16.378097
_cell_angle_alpha 90.000000
_cell_angle_beta 90.000000
_cell_angle_gamma 90.000000
_cell_volume 3717.480009
_symmetry_space_group_name_H-M "P 4/M B M"
_symmetry_group_IT_number 127
_symmetry_cell_setting 'tetragonal'
loop_
_space_group_symop_operation_xyz
x,y,z
-y,x,z
-x,-y,z
y,-x,z
1/2+x,1/2-y,-z
1/2-x,1/2+y,-z
1/2+y,1/2+x,-z
1/2-y,1/2-x,-z
-x,-y,-z
y,-x,-z
x,y,-z
-y,x,-z
1/2-x,1/2+y,z
1/2+x,1/2-y,z
1/2-y,1/2-x,z
1/2+y,1/2+x,z
loop_
_atom_site_type_symbol
_atom_site_label
_atom_site_fract_x
_atom_site_fract_y
_atom_site_fract_z
Si Si1 0.757667 0.975172 0.337867
Si Si2 0.073771 0.573771 0.592530
Si Si3 0.854868 0.970915 0.176290
Si Si4 0.305331 0.338506 0.406360
Si Si5 0.643065 0.471302 0.000000
O O1 0.654213 0.966312 0.356096
O O2 0.778958 0.953990 0.243357
O O3 0.811041 0.907374 0.395353
O O4 0.787357 0.074845 0.354038
O O5 0.102832 0.602832 0.500000
O O6 0.000000 0.500000 0.584872
O O7 0.931766 0.897646 0.186456
O O8 0.805920 0.961090 0.086939
O O9 0.286364 0.361460 0.500000
O O10 0.241853 0.258148 0.376489
O O11 0.601948 0.567884 0.000000
#
# Coordination Sequence:
#
# PCOD8314424 Si02
#       5
#    16   8  16  16   8
#     4  12  21  35  56  80 107 141 176 230 279 317
#     4  11  24  42  58  73 101 150 204 229 248 310
#     4   9  16  29  48  80 113 139 168 209 267 331
#     4  11  23  37  52  75 107 143 184 225 273 325
#     4   7  12  24  46  71 108 145 167 198 254 325
#
# _framework density 17.215964
#
# number of rings (size 3 to 8) (size 9 to 14) (size 15 to 20)
#    0.000    1.750    3.750    4.500    0.000    2.500 
#    0.000    1.250    0.000    0.750    0.000    6.125 
#    0.000    0.000    0.000    0.000    0.000    0.000 
#
# Total GULP energy -793195.278989 kJ/mol
# GULP energy per Si atom -12393.676234 kJ/mol
# Density = 1.717678 g / cm^3
# Si number density = 17.215964 Si / 1000 Ang^3
#
#
#
# Elastic Constant Matrix: (Units=GPa)
#
#
# Indices 1 2 3 4 5 6 
#
# 1 74.0975 5.5183 36.3261 0.0000 0.0000 0.0000
# 2 5.5183 74.0975 36.3261 0.0000 0.0000 0.0000
# 3 36.3261 36.3261 109.6607 0.0000 0.0000 0.0000
# 4 0.0000 0.0000 0.0000 37.7497 0.0000 0.0000
# 5 0.0000 0.0000 0.0000 0.0000 37.7497 0.0000
# 6 0.0000 0.0000 0.0000 0.0000 0.0000 20.4067
#
#
#
# Elastic Compliance Matrix: (Units=1/GPa)
#
#
# Indices 1 2 3 4 5 6 
#
# 1 0.016292 0.001710 -0.005963 0.000000 0.000000 0.000000
# 2 0.001710 0.016292 -0.005963 0.000000 0.000000 0.000000
# 3 -0.005963 -0.005963 0.013070 0.000000 0.000000 0.000000
# 4 0.000000 0.000000 0.000000 0.026490 0.000000 0.000000
# 5 0.000000 0.000000 0.000000 0.000000 0.026490 0.000000
# 6 0.000000 0.000000 0.000000 0.000000 0.000000 0.049004
#
#
# Mechanical properties :
#
#
# Convention : Reuss Voigt Hill
#
# Bulk Modulus (GPa) = 39.65007 46.02185 42.83596
# Shear Modulus (GPa) = 28.33220 31.16023 29.74621
#
# Velocity S-wave (km/s) = 4.06112 4.25898 4.16122
# Velocity P-wave (km/s) = 6.71351 7.13970 6.92988
#
# Compressibility (1/GPa) = 0.02522063
#
# Stress axis : x y z
#
# Youngs Moduli (GPa) = 61.38021 61.38021 76.51180
#
# Poissons Ratio (x) = -0.10497 0.45627
# Poissons Ratio (y) = -0.10497 0.45627
# Poissons Ratio (z) = 0.36603 0.36603
#
# Static dielectric constant tensor:
#      x y z
#    x 2.713230 0.000000 0.000000 
#    y 0.000000 2.713230 0.000000 
#    z 0.000000 0.000000 3.587980 
# 
# 
# High freq. dielectric constant tensor:
#      x y z
#    x 1.644330 0.000000 0.000000 
#    y 0.000000 1.644330 0.000000 
#    z 0.000000 0.000000 1.673210 
# 
# From -- ./inp_files/4891.got.cif
#   From: 2010.03.12/outbox.cif.g09.slc.cpg/sg127_3_cif.got.tgz:4891.got - 2010.04.06 17:03:15.
