data_PCOD8314930
_publ_section_title
;
Structure prediction by ZEFSAII (Michael W. Deem and Ramdas Pophale) SiO2 
 PCOD8314930
Probable space group: P 4/N M M
;
_chemical_formula_sum "Si O2"
_cell_formula_units_Z 112
_cell_length_a 18.053959
_cell_length_b 18.053959
_cell_length_c 20.581240
_cell_angle_alpha 90.000000
_cell_angle_beta 90.000000
_cell_angle_gamma 90.000000
_cell_volume 6708.361236
_symmetry_space_group_name_H-M "P 4/N M M"
_symmetry_group_IT_number 129
_symmetry_cell_setting 'tetragonal'
loop_
_space_group_symop_operation_xyz
x,y,z
1/2-y,x,z
1/2-x,1/2-y,z
y,1/2-x,z
1/2+x,-y,-z
-x,1/2+y,-z
1/2+y,1/2+x,-z
-y,-x,-z
-x,-y,-z
1/2+y,-x,-z
1/2+x,1/2+y,-z
-y,1/2+x,-z
1/2-x,y,z
x,1/2-y,z
1/2-y,1/2-x,z
y,x,z
loop_
_atom_site_type_symbol
_atom_site_label
_atom_site_fract_x
_atom_site_fract_y
_atom_site_fract_z
Si Si1 0.665119 0.165470 0.076790
Si Si2 0.835437 0.952817 0.769496
Si Si3 0.563485 0.167363 0.341446
Si Si4 0.113428 0.500614 0.473961
Si Si5 0.949606 0.668929 0.398333
Si Si6 0.449719 0.838245 0.280506
Si Si7 0.561821 0.440796 0.158169
O O1 0.750000 0.150784 0.099497
O O2 0.642410 0.250000 0.098504
O O3 0.612267 0.100279 0.104355
O O4 0.659522 0.159522 0.000000
O O5 0.750000 0.945784 0.790477
O O6 0.871138 0.871138 0.768792
O O7 0.845607 0.988013 0.698434
O O8 0.877891 0.004906 0.819914
O O9 0.591282 0.250000 0.337044
O O10 0.545063 0.149344 0.415371
O O11 0.633852 0.127324 0.309798
O O12 0.044386 0.544386 0.500000
O O13 0.170693 0.495839 0.534344
O O14 0.080349 0.419652 0.452817
O O15 0.922626 0.750000 0.380418
O O16 0.878206 0.621795 0.411671
O O17 0.992753 0.637446 0.336104
O O18 0.447306 0.750000 0.267663
O O19 0.468992 0.883031 0.215012
O O20 0.513055 0.513055 0.134033
#
# Coordination Sequence:
#
# PCOD8314930 Si02
#       7
#    16  16  16  16  16  16  16
#     4   9  18  33  53  77 106 139 170 198 234 285
#     4   9  18  30  45  66  91 121 155 193 238 285
#     4  10  19  31  46  65  90 116 150 197 244 290
#     4  10  18  29  48  67  84 113 153 192 237 293
#     4  10  20  33  49  68  89 116 152 194 239 287
#     4  10  20  33  48  67  93 125 161 196 235 287
#     4  10  19  31  50  74 101 130 163 203 243 279
#
# _framework density 16.695584
#
# number of rings (size 3 to 8) (size 9 to 14) (size 15 to 20)
#    0.000    2.286    1.429    2.571    0.000    2.571 
#    0.000    0.000    0.000    0.000    0.000    2.000 
#    0.000    2.571    0.000   10.571    0.000    0.286 
#
# Total GULP energy -1387511.882746 kJ/mol
# GULP energy per Si atom -12388.498953 kJ/mol
# Density = 1.665758 g / cm^3
# Si number density = 16.695584 Si / 1000 Ang^3
#
#
#
# Elastic Constant Matrix: (Units=GPa)
#
#
# Indices 1 2 3 4 5 6 
#
# 1 82.1883 47.8684 25.0221 0.0000 0.0000 0.0000
# 2 47.8684 82.1883 25.0221 0.0000 0.0000 0.0000
# 3 25.0221 25.0221 57.2840 0.0000 0.0000 0.0000
# 4 0.0000 0.0000 0.0000 22.7932 0.0000 0.0000
# 5 0.0000 0.0000 0.0000 0.0000 22.7932 0.0000
# 6 0.0000 0.0000 0.0000 0.0000 0.0000 56.7988
#
#
#
# Elastic Compliance Matrix: (Units=1/GPa)
#
#
# Indices 1 2 3 4 5 6 
#
# 1 0.019190 -0.009948 -0.004037 0.000000 0.000000 0.000000
# 2 -0.009948 0.019190 -0.004037 0.000000 0.000000 0.000000
# 3 -0.004037 -0.004037 0.020984 0.000000 0.000000 0.000000
# 4 0.000000 0.000000 0.000000 0.043873 0.000000 0.000000
# 5 0.000000 0.000000 0.000000 0.000000 0.043873 0.000000
# 6 0.000000 0.000000 0.000000 0.000000 0.000000 0.017606
#
#
# Mechanical properties :
#
#
# Convention : Reuss Voigt Hill
#
# Bulk Modulus (GPa) = 42.88166 46.38730 44.63448
# Shear Modulus (GPa) = 23.97710 28.72691 26.35200
#
# Velocity S-wave (km/s) = 3.79375 4.15255 3.97720
# Velocity P-wave (km/s) = 6.70300 7.12994 6.91976
#
# Compressibility (1/GPa) = 0.02331999
#
# Stress axis : x y z
#
# Youngs Moduli (GPa) = 52.11047 52.11047 47.65584
#
# Poissons Ratio (x) = 0.51837 0.19239
# Poissons Ratio (y) = 0.51837 0.19239
# Poissons Ratio (z) = 0.21038 0.21038
#
# Static dielectric constant tensor:
#      x y z
#    x 3.799730 0.000000 0.000000 
#    y 0.000000 3.799730 0.000000 
#    z 0.000000 0.000000 3.078360 
# 
# 
# High freq. dielectric constant tensor:
#      x y z
#    x 1.639030 0.000000 0.000000 
#    y 0.000000 1.639030 0.000000 
#    z 0.000000 0.000000 1.632140 
# 
# From -- ./inp_files/6703.got.cif
#   From: 2010.03.12/outbox.cif.g09.slc.cpg/sg129_4_cif.got.tgz:6703.got - 2010.04.06 17:19:44.
