data_PCOD8314604
_publ_section_title
;
Structure prediction by ZEFSAII (Michael W. Deem and Ramdas Pophale) SiO2 
 PCOD8314604
Probable space group: P 4/M N C
;
_chemical_formula_sum "Si O2"
_cell_formula_units_Z 112
_cell_length_a 17.365336
_cell_length_b 17.365336
_cell_length_c 20.040459
_cell_angle_alpha 90.000000
_cell_angle_beta 90.000000
_cell_angle_gamma 90.000000
_cell_volume 6043.298497
_symmetry_space_group_name_H-M "P 4/M N C"
_symmetry_group_IT_number 128
_symmetry_cell_setting 'tetragonal'
loop_
_space_group_symop_operation_xyz
x,y,z
-y,x,z
-x,-y,z
y,-x,z
1/2+x,1/2-y,1/2-z
1/2-x,1/2+y,1/2-z
1/2+y,1/2+x,1/2-z
1/2-y,1/2-x,1/2-z
-x,-y,-z
y,-x,-z
x,y,-z
-y,x,-z
1/2-x,1/2+y,1/2+z
1/2+x,1/2-y,1/2+z
1/2-y,1/2-x,1/2+z
1/2+y,1/2+x,1/2+z
loop_
_atom_site_type_symbol
_atom_site_label
_atom_site_fract_x
_atom_site_fract_y
_atom_site_fract_z
Si Si1 0.665273 0.101361 0.684105
Si Si2 0.296013 0.698531 0.424958
Si Si3 0.427917 0.205752 0.809708
Si Si4 0.812492 0.572064 0.578303
Si Si5 0.818432 0.803784 0.360703
Si Si6 0.605349 0.557378 0.921471
Si Si7 0.698503 0.913726 0.844722
O O1 0.611178 0.111178 0.750000
O O2 0.616165 0.120926 0.618310
O O3 0.737288 0.160880 0.693464
O O4 0.696233 0.015804 0.668202
O O5 0.291240 0.665125 0.500000
O O6 0.381933 0.731594 0.410910
O O7 0.232351 0.765674 0.418533
O O8 0.272562 0.633794 0.371387
O O9 0.381600 0.282483 0.830567
O O10 0.380704 0.134953 0.842257
O O11 0.436153 0.213182 0.730680
O O12 0.833832 0.569257 0.500000
O O13 0.807852 0.486483 0.607074
O O14 0.901027 0.820612 0.392803
O O15 0.529842 0.603118 0.895720
O O16 0.607806 0.558562 0.000000
#
# Coordination Sequence:
#
# PCOD8314604 Si02
#       7
#    16  16  16  16  16  16  16
#     4  11  22  38  57  81 114 151 189 234 286 340
#     4   9  19  34  55  81 107 140 184 235 286 334
#     4  10  22  35  54  84 111 151 188 233 281 339
#     4  10  21  38  60  85 114 150 191 239 290 341
#     4  10  20  32  55  76 108 139 189 231 276 329
#     4   9  17  30  48  72 105 144 178 216 275 338
#     4  10  20  36  56  80 113 145 191 230 284 344
#
# _framework density 18.532924999999999
#
# number of rings (size 3 to 8) (size 9 to 14) (size 15 to 20)
#    0.000    2.143    1.429    2.143    6.000    1.143 
#    0.000    5.000    0.000    0.429    0.000    4.000 
#    0.000    0.000    0.000    0.000    0.000    0.000 
#
# Total GULP energy -1387499.010099 kJ/mol
# GULP energy per Si atom -12388.384019 kJ/mol
# Density = 1.849074 g / cm^3
# Si number density = 18.532925 Si / 1000 Ang^3
#
#
#
# Elastic Constant Matrix: (Units=GPa)
#
#
# Indices 1 2 3 4 5 6 
#
# 1 78.5962 35.3676 48.6409 0.0000 0.0000 0.0000
# 2 35.3676 78.5962 48.6409 0.0000 0.0000 0.0000
# 3 48.6409 48.6409 97.7545 0.0000 0.0000 0.0000
# 4 0.0000 0.0000 0.0000 26.3916 0.0000 0.0000
# 5 0.0000 0.0000 0.0000 0.0000 26.3916 0.0000
# 6 0.0000 0.0000 0.0000 0.0000 0.0000 -5.7490
#
#
#
# Elastic Compliance Matrix: (Units=1/GPa)
#
#
# Indices 1 2 3 4 5 6 
#
# 1 0.019193 -0.003940 -0.007590 0.000000 0.000000 0.000000
# 2 -0.003940 0.019193 -0.007590 0.000000 0.000000 0.000000
# 3 -0.007590 -0.007590 0.017783 0.000000 0.000000 0.000000
# 4 0.000000 0.000000 0.000000 0.037891 0.000000 0.000000
# 5 0.000000 0.000000 0.000000 0.000000 0.037891 0.000000
# 6 0.000000 0.000000 0.000000 0.000000 0.000000 -0.173944
#
#
# Mechanical properties :
#
#
# Convention : Reuss Voigt Hill
#
# Bulk Modulus (GPa) = 55.77095 57.80504 56.78800
# Shear Modulus (GPa) = 2249.31329 17.56000 1133.43664
#
# Velocity S-wave (km/s) = 34.87578 3.08149 24.75697
# Velocity P-wave (km/s) = 40.64379 6.62714 29.11904
#
# Compressibility (1/GPa) = 0.01793048
#
# Stress axis : x y z
#
# Youngs Moduli (GPa) = 52.10166 52.10166 56.23362
#
# Poissons Ratio (x) = 0.20526 0.42681
# Poissons Ratio (y) = 0.20526 0.42681
# Poissons Ratio (z) = 0.39545 0.39545
#
# Static dielectric constant tensor:
#      x y z
#    x 3.677840 0.000000 0.000000 
#    y 0.000000 3.677840 0.000000 
#    z 0.000000 0.000000 3.348880 
# 
# 
# High freq. dielectric constant tensor:
#      x y z
#    x 1.716440 0.000000 0.000000 
#    y 0.000000 1.716440 0.000000 
#    z 0.000000 0.000000 1.714370 
# 
# From -- ./inp_files/5970.got.cif
#   From: 2010.03.12/outbox.cif.g09.slc.cpg/sg128_3_cif.got.tgz:5970.got - 2010.04.06 17:11:05.
