data_PCOD8314831
_publ_section_title
;
Structure prediction by ZEFSAII (Michael W. Deem and Ramdas Pophale) SiO2 
 PCOD8314831
Probable space group: P 4/M N C
;
_chemical_formula_sum "Si O2"
_cell_formula_units_Z 56
_cell_length_a 13.532397
_cell_length_b 13.532397
_cell_length_c 13.132861
_cell_angle_alpha 90.000000
_cell_angle_beta 90.000000
_cell_angle_gamma 90.000000
_cell_volume 2404.965264
_symmetry_space_group_name_H-M "P 4/M N C"
_symmetry_group_IT_number 128
_symmetry_cell_setting 'tetragonal'
loop_
_space_group_symop_operation_xyz
x,y,z
-y,x,z
-x,-y,z
y,-x,z
1/2+x,1/2-y,1/2-z
1/2-x,1/2+y,1/2-z
1/2+y,1/2+x,1/2-z
1/2-y,1/2-x,1/2-z
-x,-y,-z
y,-x,-z
x,y,-z
-y,x,-z
1/2-x,1/2+y,1/2+z
1/2+x,1/2-y,1/2+z
1/2-y,1/2-x,1/2+z
1/2+y,1/2+x,1/2+z
loop_
_atom_site_type_symbol
_atom_site_label
_atom_site_fract_x
_atom_site_fract_y
_atom_site_fract_z
Si Si1 0.772284 0.298886 0.500000
Si Si2 0.516771 0.717178 0.000000
Si Si3 0.453210 0.165114 0.333576
Si Si4 0.513330 0.346120 0.781170
Si Si5 0.892241 0.627414 0.000000
O O1 0.779916 0.367544 0.399138
O O2 0.673037 0.230052 0.500000
O O3 0.864695 0.224819 0.500000
O O4 0.478945 0.658274 0.902823
O O5 0.471074 0.827177 0.000000
O O6 0.409080 0.090920 0.250000
O O7 0.519314 0.241060 0.270038
O O8 0.535822 0.115308 0.403517
O O9 0.604968 0.411002 0.744276
#
# Coordination Sequence:
#
# PCOD8314831 Si02
#       5
#     8   8  16  16   8
#     4  11  23  48  68  99 149 185 234 289 354 421
#     4  12  24  42  67  97 136 178 232 288 354 421
#     4  11  24  45  71 104 144 182 242 289 354 431
#     4  11  23  42  68 101 137 183 240 297 350 415
#     4  11  27  46  71 102 146 193 225 291 366 415
#
# _framework density 23.285157999999999
#
# number of rings (size 3 to 8) (size 9 to 14) (size 15 to 20)
#    0.000    0.857    2.857    4.286    0.000    4.571 
#    5.143    0.000    0.000    6.857    0.000    0.000 
#    0.000    0.000    0.000    0.000    0.000    0.000 
#
# Total GULP energy -694302.474351 kJ/mol
# GULP energy per Si atom -12398.258471 kJ/mol
# Density = 2.323216 g / cm^3
# Si number density = 23.285158 Si / 1000 Ang^3
#
#
#
# Elastic Constant Matrix: (Units=GPa)
#
#
# Indices 1 2 3 4 5 6 
#
# 1 2383.1773-2260.9685 37.8276 0.0000 0.0000 0.0000
# 2 -2260.9685 2382.5842 38.1830 0.0000 0.0000 0.0000
# 3 37.8276 38.1830 98.2203 0.0000 0.0000 0.0000
# 4 0.0000 0.0000 0.0000 27.0344 0.0000 0.0000
# 5 0.0000 0.0000 0.0000 0.0000 27.0384 0.0000
# 6 0.0000 0.0000 0.0000 0.0000 0.0000 10.4583
#
#
#
# Elastic Compliance Matrix: (Units=1/GPa)
#
#
# Indices 1 2 3 4 5 6 
#
# 1 0.005512 0.005298 -0.004182 0.000000 0.000000 0.000000
# 2 0.005298 0.005514 -0.004184 0.000000 0.000000 0.000000
# 3 -0.004182 -0.004184 0.013418 0.000000 0.000000 0.000000
# 4 0.000000 0.000000 0.000000 0.036990 0.000000 0.000000
# 5 0.000000 0.000000 0.000000 0.000000 0.036984 0.000000
# 6 0.000000 0.000000 0.000000 0.000000 0.000000 0.095618
#
#
# Mechanical properties :
#
#
# Convention : Reuss Voigt Hill
#
# Bulk Modulus (GPa) = 54.62249 54.89621 54.75935
# Shear Modulus (GPa) = 24.23937 482.83556 253.53747
#
# Velocity S-wave (km/s) = 3.22992 14.41554 10.44606
# Velocity P-wave (km/s) = 6.11710 17.34082 13.00236
#
# Compressibility (1/GPa) = 0.01830748
#
# Stress axis : x y z
#
# Youngs Moduli (GPa) = 181.42176 181.35527 74.52457
#
# Poissons Ratio (x) = -0.96076 0.31168
# Poissons Ratio (y) = -0.96112 0.31180
# Poissons Ratio (z) = 0.75876 0.75877
#
# Static dielectric constant tensor:
#      x y z
#    x 4.126470 0.000000 0.000000 
#    y 0.000000 4.126470 0.000000 
#    z 0.000000 0.000000 4.386520 
# 
# 
# High freq. dielectric constant tensor:
#      x y z
#    x 1.926660 0.000000 0.000000 
#    y 0.000000 1.926660 0.000000 
#    z 0.000000 0.000000 1.927620 
# 
# From -- ./inp_files/2345.got.cif
#   From: 2010.03.12/outbox.cif.g09.slc.cpg/sg128_2_cif.got.tgz:2345.got - 2010.04.06 17:11:05.
