data_PCOD8314147
_publ_section_title
;
Structure prediction by ZEFSAII (Michael W. Deem and Ramdas Pophale) SiO2 
 PCOD8314147
Probable space group: P 4/M B M
;
_chemical_formula_sum "Si O2"
_cell_formula_units_Z 72
_cell_length_a 20.402634
_cell_length_b 20.402634
_cell_length_c 8.741327
_cell_angle_alpha 90.000000
_cell_angle_beta 90.000000
_cell_angle_gamma 90.000000
_cell_volume 3638.730111
_symmetry_space_group_name_H-M "P 4/M B M"
_symmetry_group_IT_number 127
_symmetry_cell_setting 'tetragonal'
loop_
_space_group_symop_operation_xyz
x,y,z
-y,x,z
-x,-y,z
y,-x,z
1/2+x,1/2-y,-z
1/2-x,1/2+y,-z
1/2+y,1/2+x,-z
1/2-y,1/2-x,-z
-x,-y,-z
y,-x,-z
x,y,-z
-y,x,-z
1/2-x,1/2+y,z
1/2+x,1/2-y,z
1/2-y,1/2-x,z
1/2+y,1/2+x,z
loop_
_atom_site_type_symbol
_atom_site_label
_atom_site_fract_x
_atom_site_fract_y
_atom_site_fract_z
Si Si1 0.337670 0.162331 0.681882
Si Si2 0.586014 0.553964 0.818496
Si Si3 0.987167 0.316429 0.681535
Si Si4 0.408418 0.724721 0.180755
Si Si5 0.765533 0.734468 0.181862
Si Si6 0.051426 0.448575 0.682019
O O1 0.334515 0.165486 0.500000
O O2 0.319702 0.088468 0.739134
O O3 0.285879 0.214122 0.748387
O O4 0.520843 0.589257 0.755487
O O5 0.649378 0.593549 0.764113
O O6 0.584115 0.551158 0.000000
O O7 0.987148 0.315118 0.500000
O O8 0.026042 0.254422 0.745510
O O9 0.029356 0.377954 0.744128
O O10 0.339493 0.753014 0.240132
O O11 0.414871 0.732991 0.000000
O O12 0.759484 0.740517 0.000000
O O13 0.050677 0.449324 0.500000
O O14 0.000000 0.500000 0.748423
#
# Coordination Sequence:
#
# PCOD8314147 Si02
#       6
#     8  16  16  16   8   8
#     4  10  22  38  57  84 116 149 190 235 278 336
#     4   8  15  29  50  74  97 129 178 224 259 310
#     4  10  20  35  57  84 109 142 187 230 275 330
#     4  10  21  35  55  80 110 144 181 225 279 337
#     4  10  23  39  54  81 119 153 187 232 284 343
#     4   9  15  30  55  76 101 138 181 222 258 309
#
# _framework density 19.787123000000001
#
# number of rings (size 3 to 8) (size 9 to 14) (size 15 to 20)
#    0.000    2.556    1.111    1.333    3.111    1.778 
#    0.000    0.000    0.000    0.667    0.000    1.556 
#    0.000    0.000    0.000    0.000    0.000    0.000 
#
# Total GULP energy -892270.802526 kJ/mol
# GULP energy per Si atom -12392.650035 kJ/mol
# Density = 1.974209 g / cm^3
# Si number density = 19.787123 Si / 1000 Ang^3
#
#
#
# Elastic Constant Matrix: (Units=GPa)
#
#
# Indices 1 2 3 4 5 6 
#
# 1 127.7182 71.2761 16.2364 0.0000 0.0000 0.0000
# 2 71.2761 127.7182 16.2365 0.0000 0.0000 0.0000
# 3 16.2364 16.2365 14.7311 0.0000 0.0000 0.0000
# 4 0.0000 0.0000 0.0000 23.6684 0.0000 0.0000
# 5 0.0000 0.0000 0.0000 0.0000 23.6684 0.0000
# 6 0.0000 0.0000 0.0000 0.0000 0.0000 43.0986
#
#
#
# Elastic Compliance Matrix: (Units=1/GPa)
#
#
# Indices 1 2 3 4 5 6 
#
# 1 0.011922 -0.005795 -0.006753 0.000000 0.000000 0.000000
# 2 -0.005795 0.011922 -0.006754 0.000000 0.000000 0.000000
# 3 -0.006753 -0.006754 0.082771 0.000000 0.000000 0.000000
# 4 0.000000 0.000000 0.000000 0.042250 0.000000 0.000000
# 5 0.000000 0.000000 0.000000 0.000000 0.042250 0.000000
# 6 0.000000 0.000000 0.000000 0.000000 0.000000 0.023203
#
#
# Mechanical properties :
#
#
# Convention : Reuss Voigt Hill
#
# Bulk Modulus (GPa) = 14.70342 53.07394 33.88868
# Shear Modulus (GPa) = 18.14270 29.18165 23.66217
#
# Velocity S-wave (km/s) = 3.03131 3.84445 3.46184
# Velocity P-wave (km/s) = 4.43833 6.82548 5.75699
#
# Compressibility (1/GPa) = 0.06801140
#
# Stress axis : x y z
#
# Youngs Moduli (GPa) = 83.87649 83.87639 12.08159
#
# Poissons Ratio (x) = 0.48606 0.08159
# Poissons Ratio (y) = 0.48606 0.08159
# Poissons Ratio (z) = 0.56645 0.56646
#
# Static dielectric constant tensor:
#      x y z
#    x 3.883900 0.000000 0.000000 
#    y 0.000000 3.883890 0.000000 
#    z 0.000000 0.000000 3.043020 
# 
# 
# High freq. dielectric constant tensor:
#      x y z
#    x 1.784790 0.000000 0.000000 
#    y 0.000000 1.784790 0.000000 
#    z 0.000000 0.000000 1.718610 
# 
# From -- ./inp_files/1609.got.cif
#   From: 2010.03.12/outbox.cif.g09.slc.cpg/sg127_1_cif.got.tgz:1609.got - 2010.04.06 17:03:15.
