data_PCOD8314282
_publ_section_title
;
Structure prediction by ZEFSAII (Michael W. Deem and Ramdas Pophale) SiO2 
 PCOD8314282
Probable space group: P 4/M B M
;
_chemical_formula_sum "Si O2"
_cell_formula_units_Z 112
_cell_length_a 14.686107
_cell_length_b 14.686107
_cell_length_c 29.537176
_cell_angle_alpha 90.000000
_cell_angle_beta 90.000000
_cell_angle_gamma 90.000000
_cell_volume 6370.629479
_symmetry_space_group_name_H-M "P 4/M B M"
_symmetry_group_IT_number 127
_symmetry_cell_setting 'tetragonal'
loop_
_space_group_symop_operation_xyz
x,y,z
-y,x,z
-x,-y,z
y,-x,z
1/2+x,1/2-y,-z
1/2-x,1/2+y,-z
1/2+y,1/2+x,-z
1/2-y,1/2-x,-z
-x,-y,-z
y,-x,-z
x,y,-z
-y,x,-z
1/2-x,1/2+y,z
1/2+x,1/2-y,z
1/2-y,1/2-x,z
1/2+y,1/2+x,z
loop_
_atom_site_type_symbol
_atom_site_label
_atom_site_fract_x
_atom_site_fract_y
_atom_site_fract_z
Si Si1 0.674474 0.324315 0.735890
Si Si2 0.097648 0.884174 0.354417
Si Si3 0.500308 0.262598 0.218336
Si Si4 0.384901 0.596974 0.547769
Si Si5 0.424012 0.075989 0.910189
Si Si6 0.575477 0.924523 0.190815
Si Si7 0.790465 0.559465 0.052103
Si Si8 0.145642 0.963371 0.126550
O O1 0.761209 0.261209 0.746651
O O2 0.676387 0.352620 0.683290
O O3 0.581140 0.270543 0.745356
O O4 0.674767 0.414810 0.767247
O O5 0.130848 0.844754 0.403862
O O6 0.989351 0.874343 0.348900
O O7 0.465983 0.159387 0.218171
O O8 0.544249 0.290259 0.170320
O O9 0.374723 0.489295 0.547435
O O10 0.340208 0.634648 0.500000
O O11 0.393360 0.106641 0.859719
O O12 0.463108 0.161111 0.937887
O O13 0.500000 0.000000 0.906272
O O14 0.500000 0.000000 0.186200
O O15 0.856799 0.643202 0.064604
O O16 0.700573 0.564106 0.081942
O O17 0.761089 0.563239 0.000000
O O18 0.065471 0.890795 0.126796
#
# Coordination Sequence:
#
# PCOD8314282 Si02
#       8
#    16  16  16  16   8   8  16  16
#     4  12  24  36  55  81 111 147 187 233 280 331
#     4   9  16  28  49  73 102 141 179 222 276 332
#     4  12  23  39  59  83 112 146 184 226 278 328
#     4   7  10  18  36  66  99 130 170 218 269 326
#     4   9  17  32  61  86 106 136 167 209 260 304
#     4  11  22  39  60  87 114 145 182 224 273 328
#     4  10  21  39  61  87 114 139 173 214 260 316
#     4  11  24  41  61  83 110 144 178 216 265 319
#
# _framework density 17.580679
#
# number of rings (size 3 to 8) (size 9 to 14) (size 15 to 20)
#    0.000    1.857    5.000    1.929    0.000    2.286 
#    2.571    0.714    0.000    0.429    0.000    0.000 
#    0.000    0.000    0.000    0.000    0.000   16.429 
#
# Total GULP energy -1388028.971048 kJ/mol
# GULP energy per Si atom -12393.115813 kJ/mol
# Density = 1.754066 g / cm^3
# Si number density = 17.580679 Si / 1000 Ang^3
#
#
#
# Elastic Constant Matrix: (Units=GPa)
#
#
# Indices 1 2 3 4 5 6 
#
# 1 49.1254 19.2596 26.4297 0.0000 0.0000 0.0000
# 2 19.2596 49.1254 26.4297 0.0000 0.0000 0.0000
# 3 26.4297 26.4297 116.4009 0.0000 0.0000 0.0000
# 4 0.0000 0.0000 0.0000 -18.1105 0.0000 0.0000
# 5 0.0000 0.0000 0.0000 0.0000 -18.1105 0.0000
# 6 0.0000 0.0000 0.0000 0.0000 0.0000 15.4651
#
#
#
# Elastic Compliance Matrix: (Units=1/GPa)
#
#
# Indices 1 2 3 4 5 6 
#
# 1 0.025610 -0.007874 -0.004027 0.000000 0.000000 0.000000
# 2 -0.007874 0.025610 -0.004027 0.000000 0.000000 0.000000
# 3 -0.004027 -0.004027 0.010420 0.000000 0.000000 0.000000
# 4 0.000000 0.000000 0.000000 -0.055217 0.000000 0.000000
# 5 0.000000 0.000000 0.000000 0.000000 -0.055217 0.000000
# 6 0.000000 0.000000 0.000000 0.000000 0.000000 0.064662
#
#
# Mechanical properties :
#
#
# Convention : Reuss Voigt Hill
#
# Bulk Modulus (GPa) = 33.57591 39.87661 36.72626
# Shear Modulus (GPa) = 86.72984 5.35102 46.04043
#
# Velocity S-wave (km/s) = 7.03133 1.74651 5.12298
# Velocity P-wave (km/s) = 9.22275 5.17671 7.47855
#
# Compressibility (1/GPa) = 0.02978326
#
# Stress axis : x y z
#
# Youngs Moduli (GPa) = 39.04799 39.04799 95.97167
#
# Poissons Ratio (x) = 0.30745 0.38648
# Poissons Ratio (y) = 0.30745 0.38648
# Poissons Ratio (z) = 0.15725 0.15725
#
# Static dielectric constant tensor:
#      x y z
#    x 3.073790 0.000000 0.000000 
#    y 0.000000 3.073790 0.000000 
#    z 0.000000 0.000000 3.650970 
# 
# 
# High freq. dielectric constant tensor:
#      x y z
#    x 1.653590 0.000000 0.000000 
#    y 0.000000 1.653590 0.000000 
#    z 0.000000 0.000000 1.694690 
# 
# From -- ./inp_files/6414.got.cif
#   From: 2010.03.12/outbox.cif.g09.slc.cpg/sg127_4_cif.got.tgz:6414.got - 2010.04.06 17:03:15.
