data_PCOD8314106
_publ_section_title
;
Structure prediction by ZEFSAII (Michael W. Deem and Ramdas Pophale) SiO2 
 PCOD8314106
Probable space group: P 4/M B M
;
_chemical_formula_sum "Si O2"
_cell_formula_units_Z 112
_cell_length_a 15.785743
_cell_length_b 15.785743
_cell_length_c 23.602311
_cell_angle_alpha 90.000000
_cell_angle_beta 90.000000
_cell_angle_gamma 90.000000
_cell_volume 5881.452374
_symmetry_space_group_name_H-M "P 4/M B M"
_symmetry_group_IT_number 127
_symmetry_cell_setting 'tetragonal'
loop_
_space_group_symop_operation_xyz
x,y,z
-y,x,z
-x,-y,z
y,-x,z
1/2+x,1/2-y,-z
1/2-x,1/2+y,-z
1/2+y,1/2+x,-z
1/2-y,1/2-x,-z
-x,-y,-z
y,-x,-z
x,y,-z
-y,x,-z
1/2-x,1/2+y,z
1/2+x,1/2-y,z
1/2-y,1/2-x,z
1/2+y,1/2+x,z
loop_
_atom_site_type_symbol
_atom_site_label
_atom_site_fract_x
_atom_site_fract_y
_atom_site_fract_z
Si Si1 0.179424 0.540516 0.763112
Si Si2 0.315814 0.679022 0.247632
Si Si3 0.863965 0.495933 0.640790
Si Si4 0.405764 0.770548 0.850314
Si Si5 0.605013 0.245637 0.565682
Si Si6 0.081873 0.114069 0.649446
Si Si7 0.968140 0.866456 0.933841
O O1 0.095032 0.595032 0.770101
O O2 0.263790 0.595429 0.766729
O O3 0.179365 0.494356 0.702166
O O4 0.177573 0.473757 0.813765
O O5 0.254416 0.754416 0.269391
O O6 0.361278 0.702117 0.189585
O O7 0.386900 0.661485 0.294338
O O8 0.941798 0.558203 0.636631
O O9 0.796214 0.520538 0.592849
O O10 0.899810 0.399810 0.631355
O O11 0.337190 0.837190 0.874796
O O12 0.449520 0.720910 0.901663
O O13 0.586923 0.260334 0.500000
O O14 0.687006 0.187006 0.575798
O O15 0.619861 0.336440 0.595175
O O16 0.980591 0.117050 0.647998
O O17 0.061715 0.899518 0.917625
O O18 0.963248 0.846155 0.000000
#
# Coordination Sequence:
#
# PCOD8314106 Si02
#       7
#    16  16  16  16  16  16  16
#     4  10  20  34  53  79 111 143 174 211 261 323
#     4  10  20  34  54  79 107 138 175 221 266 309
#     4   9  17  31  53  78 103 134 172 215 265 317
#     4  11  21  32  52  82 114 146 179 218 266 321
#     4  10  21  37  56  76 100 132 172 220 270 320
#     4  11  23  37  54  76 104 138 173 211 261 323
#     4   9  19  37  59  80 105 143 191 239 282 320
#
# _framework density 19.042916000000002
#
# number of rings (size 3 to 8) (size 9 to 14) (size 15 to 20)
#    0.000    2.000    0.000    4.714    0.000    4.286 
#    0.000    4.286    0.000    1.286    0.000    1.000 
#    0.000    0.000    0.000    0.000    0.000    0.000 
#
# Total GULP energy -1388978.573145 kJ/mol
# GULP energy per Si atom -12401.594403 kJ/mol
# Density = 1.899957 g / cm^3
# Si number density = 19.042916 Si / 1000 Ang^3
#
#
#
# Elastic Constant Matrix: (Units=GPa)
#
#
# Indices 1 2 3 4 5 6 
#
# 1 72.8370 15.1436 26.4224 0.0000 0.0000 0.0000
# 2 15.1436 72.8370 26.4224 0.0000 0.0000 0.0000
# 3 26.4224 26.4224 64.6138 0.0000 0.0000 0.0000
# 4 0.0000 0.0000 0.0000 32.5333 0.0000 0.0000
# 5 0.0000 0.0000 0.0000 0.0000 32.5333 0.0000
# 6 0.0000 0.0000 0.0000 0.0000 0.0000 14.9685
#
#
#
# Elastic Compliance Matrix: (Units=1/GPa)
#
#
# Indices 1 2 3 4 5 6 
#
# 1 0.016200 -0.001133 -0.006161 0.000000 0.000000 0.000000
# 2 -0.001133 0.016200 -0.006161 0.000000 0.000000 0.000000
# 3 -0.006161 -0.006161 0.020516 0.000000 0.000000 0.000000
# 4 0.000000 0.000000 0.000000 0.030738 0.000000 0.000000
# 5 0.000000 0.000000 0.000000 0.000000 0.030738 0.000000
# 6 0.000000 0.000000 0.000000 0.000000 0.000000 0.066807
#
#
# Mechanical properties :
#
#
# Convention : Reuss Voigt Hill
#
# Bulk Modulus (GPa) = 38.45523 38.47383 38.46453
# Shear Modulus (GPa) = 23.06513 25.49362 24.27937
#
# Velocity S-wave (km/s) = 3.48403 3.66286 3.57456
# Velocity P-wave (km/s) = 6.03510 6.17546 6.10568
#
# Compressibility (1/GPa) = 0.02600427
#
# Stress axis : x y z
#
# Youngs Moduli (GPa) = 61.72863 61.72863 48.74337
#
# Poissons Ratio (x) = 0.06994 0.30032
# Poissons Ratio (y) = 0.06994 0.30032
# Poissons Ratio (z) = 0.38033 0.38033
#
# Static dielectric constant tensor:
#      x y z
#    x 3.550830 0.000000 0.000000 
#    y 0.000000 3.550830 0.000000 
#    z 0.000000 0.000000 3.267660 
# 
# 
# High freq. dielectric constant tensor:
#      x y z
#    x 1.745460 0.000000 0.000000 
#    y 0.000000 1.745460 0.000000 
#    z 0.000000 0.000000 1.722460 
# 
# From -- ./inp_files/6177.got.cif
#   From: 2010.03.12/outbox.cif.g09.slc.cpg/sg127_4_cif.got.tgz:6177.got - 2010.04.06 17:03:15.
