data_PCOD8314261
_publ_section_title
;
Structure prediction by ZEFSAII (Michael W. Deem and Ramdas Pophale) SiO2 
 PCOD8314261
Probable space group: P 4/M B M
;
_chemical_formula_sum "Si O2"
_cell_formula_units_Z 88
_cell_length_a 12.228811
_cell_length_b 12.228811
_cell_length_c 28.320644
_cell_angle_alpha 90.000000
_cell_angle_beta 90.000000
_cell_angle_gamma 90.000000
_cell_volume 4235.177245
_symmetry_space_group_name_H-M "P 4/M B M"
_symmetry_group_IT_number 127
_symmetry_cell_setting 'tetragonal'
loop_
_space_group_symop_operation_xyz
x,y,z
-y,x,z
-x,-y,z
y,-x,z
1/2+x,1/2-y,-z
1/2-x,1/2+y,-z
1/2+y,1/2+x,-z
1/2-y,1/2-x,-z
-x,-y,-z
y,-x,-z
x,y,-z
-y,x,-z
1/2-x,1/2+y,z
1/2+x,1/2-y,z
1/2-y,1/2-x,z
1/2+y,1/2+x,z
loop_
_atom_site_type_symbol
_atom_site_label
_atom_site_fract_x
_atom_site_fract_y
_atom_site_fract_z
Si Si1 0.324321 0.478903 0.708805
Si Si2 0.468961 0.677825 0.400102
Si Si3 0.709811 0.385950 0.948120
Si Si4 0.674526 0.996197 0.793584
Si Si5 0.589070 0.089070 0.444185
Si Si6 0.749304 0.568701 0.887274
O O1 0.405884 0.380468 0.719928
O O2 0.288103 0.468852 0.654631
O O3 0.220580 0.471161 0.742523
O O4 0.375104 0.587754 0.412105
O O5 0.445486 0.788942 0.428274
O O6 0.774914 0.274914 0.955214
O O7 0.788401 0.477368 0.924959
O O8 0.612935 0.364716 0.909709
O O9 0.666486 0.423268 0.000000
O O10 0.573768 0.073768 0.804671
O O11 0.764514 0.013738 0.835137
O O12 0.628993 0.871008 0.793726
O O13 0.589810 0.089810 0.500000
O O14 0.500000 0.000000 0.425573
O O15 0.837074 0.662927 0.884076
#
# Coordination Sequence:
#
# PCOD8314261 Si02
#       6
#    16  16  16  16   8  16
#     4   9  20  39  62  90 124 160 206 253 301 371
#     4   9  21  44  69  94 131 182 231 278 341 406
#     4  10  21  37  59  83 105 139 186 232 287 350
#     4  10  22  37  55  85 119 155 199 237 291 362
#     4  11  26  42  64 103 143 177 227 290 343 395
#     4  10  22  39  56  78 114 148 182 234 289 350
#
# _framework density 20.778352999999999
#
# number of rings (size 3 to 8) (size 9 to 14) (size 15 to 20)
#    0.000    2.273    0.000    2.182    5.091    4.727 
#    3.273    2.727    0.000    0.000    0.000    0.000 
#    0.000    0.000    0.000    0.000    0.000    0.000 
#
# Total GULP energy -1090318.491373 kJ/mol
# GULP energy per Si atom -12389.982857 kJ/mol
# Density = 2.073106 g / cm^3
# Si number density = 20.778353 Si / 1000 Ang^3
#
#
#
# Elastic Constant Matrix: (Units=GPa)
#
#
# Indices 1 2 3 4 5 6 
#
# 1 65.4921 2.7769 32.7753 0.0000 0.0000 0.0000
# 2 2.7769 65.4921 32.7753 0.0000 0.0000 0.0000
# 3 32.7753 32.7753 105.2226 0.0000 0.0000 0.0000
# 4 0.0000 0.0000 0.0000 30.7936 0.0000 0.0000
# 5 0.0000 0.0000 0.0000 0.0000 30.7936 0.0000
# 6 0.0000 0.0000 0.0000 0.0000 0.0000 9.2116
#
#
#
# Elastic Compliance Matrix: (Units=1/GPa)
#
#
# Indices 1 2 3 4 5 6 
#
# 1 0.018422 0.002477 -0.006509 0.000000 0.000000 0.000000
# 2 0.002477 0.018422 -0.006509 0.000000 0.000000 0.000000
# 3 -0.006509 -0.006509 0.013559 0.000000 0.000000 0.000000
# 4 0.000000 0.000000 0.000000 0.032474 0.000000 0.000000
# 5 0.000000 0.000000 0.000000 0.000000 0.032474 0.000000
# 6 0.000000 0.000000 0.000000 0.000000 0.000000 0.108559
#
#
# Mechanical properties :
#
#
# Convention : Reuss Voigt Hill
#
# Bulk Modulus (GPa) = 34.10946 41.42908 37.76927
# Shear Modulus (GPa) = 19.62576 25.35169 22.48872
#
# Velocity S-wave (km/s) = 3.07665 3.49678 3.29342
# Velocity P-wave (km/s) = 5.39190 6.02372 5.71654
#
# Compressibility (1/GPa) = 0.02931738
#
# Stress axis : x y z
#
# Youngs Moduli (GPa) = 54.28387 54.28387 73.75234
#
# Poissons Ratio (x) = -0.13444 0.48009
# Poissons Ratio (y) = -0.13444 0.48009
# Poissons Ratio (z) = 0.35336 0.35336
#
# Static dielectric constant tensor:
#      x y z
#    x 3.710440 0.000000 0.000000 
#    y 0.000000 3.710440 0.000000 
#    z 0.000000 0.000000 3.896450 
# 
# 
# High freq. dielectric constant tensor:
#      x y z
#    x 1.805020 0.000000 0.000000 
#    y 0.000000 1.805020 0.000000 
#    z 0.000000 0.000000 1.819750 
# 
# From -- ./inp_files/6488.got.cif
#   From: 2010.03.12/outbox.cif.g09.slc.cpg/sg127_4_cif.got.tgz:6488.got - 2010.04.06 17:03:15.
