data_PCOD8314435
_publ_section_title
;
Structure prediction by ZEFSAII (Michael W. Deem and Ramdas Pophale) SiO2 
 PCOD8314435
Probable space group: P 4/M B M
;
_chemical_formula_sum "Si O2"
_cell_formula_units_Z 88
_cell_length_a 12.065022
_cell_length_b 12.065022
_cell_length_c 29.799772
_cell_angle_alpha 90.000000
_cell_angle_beta 90.000000
_cell_angle_gamma 90.000000
_cell_volume 4337.796536
_symmetry_space_group_name_H-M "P 4/M B M"
_symmetry_group_IT_number 127
_symmetry_cell_setting 'tetragonal'
loop_
_space_group_symop_operation_xyz
x,y,z
-y,x,z
-x,-y,z
y,-x,z
1/2+x,1/2-y,-z
1/2-x,1/2+y,-z
1/2+y,1/2+x,-z
1/2-y,1/2-x,-z
-x,-y,-z
y,-x,-z
x,y,-z
-y,x,-z
1/2-x,1/2+y,z
1/2+x,1/2-y,z
1/2-y,1/2-x,z
1/2+y,1/2+x,z
loop_
_atom_site_type_symbol
_atom_site_label
_atom_site_fract_x
_atom_site_fract_y
_atom_site_fract_z
Si Si1 0.817163 0.013237 0.268158
Si Si2 0.998543 0.320545 0.182349
Si Si3 0.524955 0.319855 0.098436
Si Si4 0.505505 0.823589 0.548141
Si Si5 0.909985 0.590016 0.946996
Si Si6 0.820257 0.019094 0.632762
O O1 0.716806 0.017084 0.233353
O O2 0.763037 0.021419 0.318013
O O3 0.883601 0.899225 0.261217
O O4 0.877116 0.377116 0.176745
O O5 0.014984 0.213784 0.150673
O O6 0.090969 0.409032 0.168575
O O7 0.623295 0.406531 0.087458
O O8 0.549576 0.210054 0.069831
O O9 0.503524 0.756667 0.500000
O O10 0.629989 0.870012 0.556098
O O11 0.464485 0.759093 0.591238
O O12 0.425575 0.925575 0.542582
O O13 0.000000 0.500000 0.930461
O O14 0.903893 0.596108 0.000000
O O15 0.879963 0.903005 0.628595
#
# Coordination Sequence:
#
# PCOD8314435 Si02
#       6
#    16  16  16  16   8  16
#     4   9  19  36  55  77 109 149 191 235 289 354
#     4  11  23  37  58  89 126 162 205 255 309 367
#     4  11  25  44  70 101 134 177 225 272 327 389
#     4   9  19  35  52  71  98 133 173 221 277 340
#     4  11  26  46  72 103 139 179 221 276 331 381
#     4   9  19  35  53  75 105 139 178 229 285 343
#
# _framework density 20.286797
#
# number of rings (size 3 to 8) (size 9 to 14) (size 15 to 20)
#    0.000    2.091    0.909    3.273    2.545    7.273 
#    0.000    9.091    0.000    0.000    0.000    0.000 
#    0.000    0.000    0.000    0.000    0.000    0.000 
#
# Total GULP energy -1090513.551747 kJ/mol
# GULP energy per Si atom -12392.199452 kJ/mol
# Density = 2.024062 g / cm^3
# Si number density = 20.286797 Si / 1000 Ang^3
#
#
#
# Elastic Constant Matrix: (Units=GPa)
#
#
# Indices 1 2 3 4 5 6 
#
# 1 71.7954 65.1960 43.8142 0.0000 0.0000 0.0000
# 2 65.1960 71.7955 43.8145 0.0000 0.0000 0.0000
# 3 43.8142 43.8145 116.1419 0.0000 0.0000 0.0000
# 4 0.0000 0.0000 0.0000 38.4931 0.0000 0.0000
# 5 0.0000 0.0000 0.0000 0.0000 38.4930 0.0000
# 6 0.0000 0.0000 0.0000 0.0000 0.0000 20.1682
#
#
#
# Elastic Compliance Matrix: (Units=1/GPa)
#
#
# Indices 1 2 3 4 5 6 
#
# 1 0.080575 -0.070953 -0.003629 0.000000 0.000000 0.000000
# 2 -0.070953 0.080575 -0.003630 0.000000 0.000000 0.000000
# 3 -0.003629 -0.003630 0.011349 0.000000 0.000000 0.000000
# 4 0.000000 0.000000 0.000000 0.025979 0.000000 0.000000
# 5 0.000000 0.000000 0.000000 0.000000 0.025979 0.000000
# 6 0.000000 0.000000 0.000000 0.000000 0.000000 0.049583
#
#
# Mechanical properties :
#
#
# Convention : Reuss Voigt Hill
#
# Bulk Modulus (GPa) = 62.21619 62.82023 62.51821
# Shear Modulus (GPa) = 11.47257 26.55806 19.01532
#
# Velocity S-wave (km/s) = 2.38064 3.62212 3.06490
# Velocity P-wave (km/s) = 6.18801 6.96608 6.58854
#
# Compressibility (1/GPa) = 0.01607299
#
# Stress axis : x y z
#
# Youngs Moduli (GPa) = 12.41083 12.41081 88.11542
#
# Poissons Ratio (x) = 0.88059 0.31981
# Poissons Ratio (y) = 0.88059 0.31985
# Poissons Ratio (z) = 0.04504 0.04505
#
# Static dielectric constant tensor:
#      x y z
#    x 3.604840 0.000000 0.000000 
#    y 0.000000 3.604840 0.000000 
#    z 0.000000 0.000000 3.924550 
# 
# 
# High freq. dielectric constant tensor:
#      x y z
#    x 1.783780 0.000000 0.000000 
#    y 0.000000 1.783780 0.000000 
#    z 0.000000 0.000000 1.808240 
# 
# From -- ./inp_files/6556.got.cif
#   From: 2010.03.12/outbox.cif.g09.slc.cpg/sg127_4_cif.got.tgz:6556.got - 2010.04.06 17:03:15.
