data_PCOD8314353
_publ_section_title
;
Structure prediction by ZEFSAII (Michael W. Deem and Ramdas Pophale) SiO2 
 PCOD8314353
Probable space group: P 4/M B M
;
_chemical_formula_sum "Si O2"
_cell_formula_units_Z 96
_cell_length_a 14.660180
_cell_length_b 14.660180
_cell_length_c 22.704333
_cell_angle_alpha 90.000000
_cell_angle_beta 90.000000
_cell_angle_gamma 90.000000
_cell_volume 4879.635174
_symmetry_space_group_name_H-M "P 4/M B M"
_symmetry_group_IT_number 127
_symmetry_cell_setting 'tetragonal'
loop_
_space_group_symop_operation_xyz
x,y,z
-y,x,z
-x,-y,z
y,-x,z
1/2+x,1/2-y,-z
1/2-x,1/2+y,-z
1/2+y,1/2+x,-z
1/2-y,1/2-x,-z
-x,-y,-z
y,-x,-z
x,y,-z
-y,x,-z
1/2-x,1/2+y,z
1/2+x,1/2-y,z
1/2-y,1/2-x,z
1/2+y,1/2+x,z
loop_
_atom_site_type_symbol
_atom_site_label
_atom_site_fract_x
_atom_site_fract_y
_atom_site_fract_z
Si Si1 0.575574 0.075574 0.859462
Si Si2 0.770817 0.503047 0.352339
Si Si3 0.925619 0.425619 0.430807
Si Si4 0.323939 0.675464 0.680409
Si Si5 0.735496 0.499822 0.878978
Si Si6 0.353134 0.526739 0.000000
Si Si7 0.925137 0.574864 0.730450
Si Si8 0.676042 0.324986 0.182720
O O1 0.533665 0.162394 0.891673
O O2 0.608554 0.108554 0.794299
O O3 0.500000 0.000000 0.855564
O O4 0.828427 0.462348 0.407032
O O5 0.696489 0.428926 0.334065
O O6 0.713193 0.595994 0.363038
O O7 0.840070 0.528605 0.300814
O O8 0.915184 0.415184 0.500000
O O9 0.000000 0.500000 0.411648
O O10 0.232954 0.732954 0.667971
O O11 0.351909 0.681596 0.748725
O O12 0.704972 0.460040 0.941330
O O13 0.730037 0.418921 0.830678
O O14 0.674555 0.584075 0.855959
O O15 0.394689 0.426984 0.000000
O O16 0.000000 0.500000 0.739421
O O17 0.740650 0.240650 0.164800
#
# Coordination Sequence:
#
# PCOD8314353 Si02
#       8
#     8  16   8  16  16   8   8  16
#     4  11  24  39  61  94 128 155 193 251 325 394
#     4  12  21  39  60  96 131 172 217 259 316 376
#     4  11  22  41  68  94 125 172 235 279 296 347
#     4  11  22  36  63  93 136 171 203 261 327 391
#     4  12  23  42  64  88 120 163 210 261 311 382
#     4  11  24  45  64  83 107 158 212 261 313 370
#     4  11  18  35  64  89 124 172 210 248 312 379
#     4  11  23  39  60  96 130 160 205 258 321 386
#
# _framework density 19.673601999999999
#
# number of rings (size 3 to 8) (size 9 to 14) (size 15 to 20)
#    0.000    0.667    5.833    3.500    0.000    3.667 
#    0.000    5.417    0.000    0.000    0.000    1.167 
#    0.000    0.000    0.000    0.000    0.000    0.000 
#
# Total GULP energy -1190436.543471 kJ/mol
# GULP energy per Si atom -12400.380661 kJ/mol
# Density = 1.962882 g / cm^3
# Si number density = 19.673602 Si / 1000 Ang^3
#
#
#
# Elastic Constant Matrix: (Units=GPa)
#
#
# Indices 1 2 3 4 5 6 
#
# 1 95.9039 20.4844 21.9858 0.0000 0.0000 0.0000
# 2 20.4844 95.9039 21.9858 0.0000 0.0000 0.0000
# 3 21.9858 21.9858 63.5059 0.0000 0.0000 0.0000
# 4 0.0000 0.0000 0.0000 8.6230 0.0000 0.0000
# 5 0.0000 0.0000 0.0000 0.0000 8.6230 0.0000
# 6 0.0000 0.0000 0.0000 0.0000 0.0000 52.1714
#
#
#
# Elastic Compliance Matrix: (Units=1/GPa)
#
#
# Indices 1 2 3 4 5 6 
#
# 1 0.011572 -0.001687 -0.003422 0.000000 0.000000 0.000000
# 2 -0.001687 0.011572 -0.003422 0.000000 0.000000 0.000000
# 3 -0.003422 -0.003422 0.018116 0.000000 0.000000 0.000000
# 4 0.000000 0.000000 0.000000 0.115969 0.000000 0.000000
# 5 0.000000 0.000000 0.000000 0.000000 0.115969 0.000000
# 6 0.000000 0.000000 0.000000 0.000000 0.000000 0.019168
#
#
# Mechanical properties :
#
#
# Convention : Reuss Voigt Hill
#
# Bulk Modulus (GPa) = 41.32717 42.69175 42.00946
# Shear Modulus (GPa) = 15.74835 26.60733 21.17784
#
# Velocity S-wave (km/s) = 2.83235 3.68154 3.28450
# Velocity P-wave (km/s) = 5.63456 6.31021 5.98193
#
# Compressibility (1/GPa) = 0.02419716
#
# Stress axis : x y z
#
# Youngs Moduli (GPa) = 86.41548 86.41548 55.19958
#
# Poissons Ratio (x) = 0.14580 0.18890
# Poissons Ratio (y) = 0.14580 0.18890
# Poissons Ratio (z) = 0.29573 0.29573
#
# Static dielectric constant tensor:
#      x y z
#    x 3.738800 0.000000 0.000000 
#    y 0.000000 3.738800 0.000000 
#    z 0.000000 0.000000 3.353920 
# 
# 
# High freq. dielectric constant tensor:
#      x y z
#    x 1.776990 0.000000 0.000000 
#    y 0.000000 1.776990 0.000000 
#    z 0.000000 0.000000 1.736400 
# 
# From -- ./inp_files/5853.got.cif
#   From: 2010.03.12/outbox.cif.g09.slc.cpg/sg127_3_cif.got.tgz:5853.got - 2010.04.06 17:03:15.
