data_PCOD8314905
_publ_section_title
;
Structure prediction by ZEFSAII (Michael W. Deem and Ramdas Pophale) SiO2 
 PCOD8314905
Probable space group: P 4/N M M
;
_chemical_formula_sum "Si O2"
_cell_formula_units_Z 112
_cell_length_a 18.395964
_cell_length_b 18.395964
_cell_length_c 21.507798
_cell_angle_alpha 90.000000
_cell_angle_beta 90.000000
_cell_angle_gamma 90.000000
_cell_volume 7278.486000
_symmetry_space_group_name_H-M "P 4/N M M"
_symmetry_group_IT_number 129
_symmetry_cell_setting 'tetragonal'
loop_
_space_group_symop_operation_xyz
x,y,z
1/2-y,x,z
1/2-x,1/2-y,z
y,1/2-x,z
1/2+x,-y,-z
-x,1/2+y,-z
1/2+y,1/2+x,-z
-y,-x,-z
-x,-y,-z
1/2+y,-x,-z
1/2+x,1/2+y,-z
-y,1/2+x,-z
1/2-x,y,z
x,1/2-y,z
1/2-y,1/2-x,z
y,x,z
loop_
_atom_site_type_symbol
_atom_site_label
_atom_site_fract_x
_atom_site_fract_y
_atom_site_fract_z
Si Si1 0.333065 0.547849 0.994517
Si Si2 0.666103 0.401221 0.692564
Si Si3 0.669101 0.336313 0.432800
Si Si4 0.832739 0.092552 0.191118
Si Si5 0.461600 0.832529 0.868220
Si Si6 0.048100 0.167210 0.879008
Si Si7 0.332953 0.050778 0.247023
O O1 0.250000 0.570547 0.980179
O O2 0.339433 0.508007 0.061780
O O3 0.379353 0.620648 0.000000
O O4 0.360734 0.493001 0.941442
O O5 0.750000 0.376389 0.702563
O O6 0.638320 0.383134 0.623167
O O7 0.614563 0.358055 0.740169
O O8 0.658662 0.487400 0.701875
O O9 0.637401 0.362600 0.500000
O O10 0.750000 0.367892 0.420476
O O11 0.673292 0.250000 0.436086
O O12 0.750000 0.118628 0.180053
O O13 0.883990 0.127856 0.138597
O O14 0.838282 0.005570 0.180463
O O15 0.446071 0.750000 0.848344
O O16 0.521097 0.862422 0.819558
O O17 0.074867 0.250000 0.888444
O O18 0.117674 0.117674 0.866254
O O19 0.250000 0.077957 0.242463
O O20 0.381489 0.118512 0.268054
#
# Coordination Sequence:
#
# PCOD8314905 Si02
#       7
#    16  16  16  16  16  16  16
#     4  10  19  33  47  66  92 115 143 175 213 263
#     4   9  17  28  42  64  94 125 149 173 209 252
#     4   8  13  22  39  64  92 123 157 181 195 225
#     4  10  18  28  42  64  90 115 146 177 205 248
#     4   9  18  30  44  63  89 116 140 169 209 261
#     4  10  22  37  50  65  83 106 143 188 229 269
#     4   9  18  31  45  62  82 107 143 183 223 267
#
# _framework density 15.387815
#
# number of rings (size 3 to 8) (size 9 to 14) (size 15 to 20)
#    0.000    2.714    1.429    2.143    0.000    5.286 
#    0.000    1.429    0.000    0.429    0.000    4.000 
#    0.000    0.000    0.000    0.000    0.000   18.000 
#
# Total GULP energy -1388109.003044 kJ/mol
# GULP energy per Si atom -12393.830384 kJ/mol
# Density = 1.535279 g / cm^3
# Si number density = 15.387815 Si / 1000 Ang^3
#
#
#
# Elastic Constant Matrix: (Units=GPa)
#
#
# Indices 1 2 3 4 5 6 
#
# 1 67.4626 46.3348 31.9324 0.0000 0.0000 0.0000
# 2 46.3348 67.4613 31.9327 0.0000 0.0000 0.0000
# 3 31.9324 31.9327 111.3066 0.0000 0.0000 0.0000
# 4 0.0000 0.0000 0.0000 13.0021 0.0000 0.0000
# 5 0.0000 0.0000 0.0000 0.0000 13.0024 0.0000
# 6 0.0000 0.0000 0.0000 0.0000 0.0000 27.5888
#
#
#
# Elastic Compliance Matrix: (Units=1/GPa)
#
#
# Indices 1 2 3 4 5 6 
#
# 1 0.028903 -0.018429 -0.003005 0.000000 0.000000 0.000000
# 2 -0.018429 0.028904 -0.003005 0.000000 0.000000 0.000000
# 3 -0.003005 -0.003005 0.010708 0.000000 0.000000 0.000000
# 4 0.000000 0.000000 0.000000 0.076910 0.000000 0.000000
# 5 0.000000 0.000000 0.000000 0.000000 0.076909 0.000000
# 6 0.000000 0.000000 0.000000 0.000000 0.000000 0.036247
#
#
# Mechanical properties :
#
#
# Convention : Reuss Voigt Hill
#
# Bulk Modulus (GPa) = 50.92468 51.84779 51.38623
# Shear Modulus (GPa) = 15.92337 19.78738 17.85537
#
# Velocity S-wave (km/s) = 3.22033 3.58985 3.41010
# Velocity P-wave (km/s) = 6.85517 7.13792 6.99797
#
# Compressibility (1/GPa) = 0.01963684
#
# Stress axis : x y z
#
# Youngs Moduli (GPa) = 34.59873 34.59786 93.38540
#
# Poissons Ratio (x) = 0.63761 0.28059
# Poissons Ratio (y) = 0.63763 0.28063
# Poissons Ratio (z) = 0.10396 0.10397
#
# Static dielectric constant tensor:
#      x y z
#    x 2.728530 0.000000 0.000000 
#    y 0.000000 2.728530 0.000000 
#    z 0.000000 0.000000 3.160720 
# 
# 
# High freq. dielectric constant tensor:
#      x y z
#    x 1.566800 0.000000 0.000000 
#    y 0.000000 1.566800 0.000000 
#    z 0.000000 0.000000 1.584130 
# 
# From -- ./inp_files/7229.got.cif
#   From: 2010.03.12/outbox.cif.g09.slc.cpg/sg129_4_cif.got.tgz:7229.got - 2010.04.06 17:19:44.
