data_PCOD8314123
_publ_section_title
;
Structure prediction by ZEFSAII (Michael W. Deem and Ramdas Pophale) SiO2 
 PCOD8314123
Probable space group: P 4/M B M
;
_chemical_formula_sum "Si O2"
_cell_formula_units_Z 72
_cell_length_a 20.776064
_cell_length_b 20.776064
_cell_length_c 7.822701
_cell_angle_alpha 90.000000
_cell_angle_beta 90.000000
_cell_angle_gamma 90.000000
_cell_volume 3376.628485
_symmetry_space_group_name_H-M "P 4/M B M"
_symmetry_group_IT_number 127
_symmetry_cell_setting 'tetragonal'
loop_
_space_group_symop_operation_xyz
x,y,z
-y,x,z
-x,-y,z
y,-x,z
1/2+x,1/2-y,-z
1/2-x,1/2+y,-z
1/2+y,1/2+x,-z
1/2-y,1/2-x,-z
-x,-y,-z
y,-x,-z
x,y,-z
-y,x,-z
1/2-x,1/2+y,z
1/2+x,1/2-y,z
1/2-y,1/2-x,z
1/2+y,1/2+x,z
loop_
_atom_site_type_symbol
_atom_site_label
_atom_site_fract_x
_atom_site_fract_y
_atom_site_fract_z
Si Si1 0.499684 0.103458 0.199770
Si Si2 0.421514 0.568902 0.000000
Si Si3 0.404209 0.333297 0.301380
Si Si4 0.738893 0.660353 0.301885
Si Si5 0.481468 0.756049 0.306866
O O1 0.435077 0.064924 0.248598
O O2 0.500868 0.169126 0.303165
O O3 0.561503 0.061503 0.252471
O O4 0.501162 0.118959 0.000000
O O5 0.409520 0.493908 0.000000
O O6 0.394473 0.596020 0.177845
O O7 0.415978 0.353286 0.500000
O O8 0.331263 0.306375 0.280718
O O9 0.457760 0.283309 0.229051
O O10 0.756136 0.652105 0.500000
O O11 0.792121 0.707880 0.216626
O O12 0.742492 0.588157 0.217140
O O13 0.476206 0.732225 0.500000
#
# Coordination Sequence:
#
# PCOD8314123 Si02
#       5
#    16   8  16  16  16
#     4   9  19  35  53  77 113 154 193 239 299 363
#     4  11  24  40  61  88 116 151 195 246 300 356
#     4  10  22  40  61  87 120 158 199 247 305 364
#     4   9  18  35  58  84 118 155 193 245 304 361
#     4  10  20  34  58  86 111 150 200 248 300 358
#
# _framework density 21.323045
#
# number of rings (size 3 to 8) (size 9 to 14) (size 15 to 20)
#    0.000    2.333    0.000    2.667    1.556    5.333 
#    2.000    5.000    0.000    0.000    0.000    0.000 
#    0.000    0.000    0.000    0.000    0.000    0.000 
#
# Total GULP energy -892208.690978 kJ/mol
# GULP energy per Si atom -12391.787375 kJ/mol
# Density = 2.127451 g / cm^3
# Si number density = 21.323045 Si / 1000 Ang^3
#
#
#
# Elastic Constant Matrix: (Units=GPa)
#
#
# Indices 1 2 3 4 5 6 
#
# 1 144.8540 42.7838 13.6490 0.0000 0.0000 0.0000
# 2 42.7838 144.8540 13.6490 0.0000 0.0000 0.0000
# 3 13.6490 13.6490 52.9498 0.0000 0.0000 0.0000
# 4 0.0000 0.0000 0.0000 18.5764 0.0000 0.0000
# 5 0.0000 0.0000 0.0000 0.0000 18.5764 0.0000
# 6 0.0000 0.0000 0.0000 0.0000 0.0000 37.9262
#
#
#
# Elastic Compliance Matrix: (Units=1/GPa)
#
#
# Indices 1 2 3 4 5 6 
#
# 1 0.007667 -0.002130 -0.001427 0.000000 0.000000 0.000000
# 2 -0.002130 0.007667 -0.001427 0.000000 0.000000 0.000000
# 3 -0.001427 -0.001427 0.019622 0.000000 0.000000 0.000000
# 4 0.000000 0.000000 0.000000 0.053832 0.000000 0.000000
# 5 0.000000 0.000000 0.000000 0.000000 0.053832 0.000000
# 6 0.000000 0.000000 0.000000 0.000000 0.000000 0.026367
#
#
# Mechanical properties :
#
#
# Convention : Reuss Voigt Hill
#
# Bulk Modulus (GPa) = 40.02147 53.64680 46.83413
# Shear Modulus (GPa) = 26.69738 33.18755 29.94247
#
# Velocity S-wave (km/s) = 3.54226 3.94943 3.75137
# Velocity P-wave (km/s) = 5.96154 6.78314 6.38557
#
# Compressibility (1/GPa) = 0.02498659
#
# Stress axis : x y z
#
# Youngs Moduli (GPa) = 130.42709 130.42709 50.96408
#
# Poissons Ratio (x) = 0.27782 0.07274
# Poissons Ratio (y) = 0.27782 0.07274
# Poissons Ratio (z) = 0.18616 0.18616
#
# Static dielectric constant tensor:
#      x y z
#    x 3.965560 0.000000 0.000000 
#    y 0.000000 3.965560 0.000000 
#    z 0.000000 0.000000 3.586290 
# 
# 
# High freq. dielectric constant tensor:
#      x y z
#    x 1.839380 0.000000 0.000000 
#    y 0.000000 1.839380 0.000000 
#    z 0.000000 0.000000 1.810300 
# 
# From -- ./inp_files/1522.got.cif
#   From: 2010.03.12/outbox.cif.g09.slc.cpg/sg127_1_cif.got.tgz:1522.got - 2010.04.06 17:03:15.
