data_PCOD8314732
_publ_section_title
;
Structure prediction by ZEFSAII (Michael W. Deem and Ramdas Pophale) SiO2 
 PCOD8314732
Probable space group: P 4/M N C
;
_chemical_formula_sum "Si O2"
_cell_formula_units_Z 88
_cell_length_a 16.632197
_cell_length_b 16.632197
_cell_length_c 14.740367
_cell_angle_alpha 90.000000
_cell_angle_beta 90.000000
_cell_angle_gamma 90.000000
_cell_volume 4077.627385
_symmetry_space_group_name_H-M "P 4/M N C"
_symmetry_group_IT_number 128
_symmetry_cell_setting 'tetragonal'
loop_
_space_group_symop_operation_xyz
x,y,z
-y,x,z
-x,-y,z
y,-x,z
1/2+x,1/2-y,1/2-z
1/2-x,1/2+y,1/2-z
1/2+y,1/2+x,1/2-z
1/2-y,1/2-x,1/2-z
-x,-y,-z
y,-x,-z
x,y,-z
-y,x,-z
1/2-x,1/2+y,1/2+z
1/2+x,1/2-y,1/2+z
1/2-y,1/2-x,1/2+z
1/2+y,1/2+x,1/2+z
loop_
_atom_site_type_symbol
_atom_site_label
_atom_site_fract_x
_atom_site_fract_y
_atom_site_fract_z
Si Si1 0.132940 0.367061 0.750000
Si Si2 0.524689 0.911048 0.162321
Si Si3 0.540700 0.372937 0.500000
Si Si4 0.907443 0.803378 0.500000
Si Si5 0.135083 0.203522 0.849465
Si Si6 0.933185 0.304175 0.500000
Si Si7 0.740017 0.752960 0.500000
Si Si8 0.583875 0.397186 0.183912
O O1 0.138779 0.445789 0.811654
O O2 0.130514 0.294926 0.820129
O O3 0.582276 0.917725 0.250000
O O4 0.569539 0.861860 0.086268
O O5 0.500000 0.000000 0.128127
O O6 0.600545 0.448990 0.500000
O O7 0.557688 0.320204 0.589602
O O8 0.836721 0.735630 0.500000
O O9 0.895325 0.861423 0.413751
O O10 0.993454 0.758705 0.500000
O O11 0.215422 0.196008 0.911411
O O12 0.135808 0.148793 0.760016
O O13 0.849008 0.259309 0.500000
O O14 0.611713 0.488588 0.195678
#
# Coordination Sequence:
#
# PCOD8314732 Si02
#       8
#     8  16   8   8  16   8   8  16
#     4  10  21  40  64  92 124 174 213 268 320 394
#     4   9  21  43  65  95 125 169 232 271 325 394
#     4  10  22  43  64  92 133 170 220 267 310 401
#     4  12  25  43  66  95 132 173 222 261 332 390
#     4  11  22  41  62  93 131 170 212 262 331 387
#     4  12  22  43  67  94 133 178 209 283 336 377
#     4  11  26  42  59  98 131 166 216 269 324 394
#     4  11  23  41  67  97 129 169 216 265 318 390
#
# _framework density 21.581175999999999
#
# number of rings (size 3 to 8) (size 9 to 14) (size 15 to 20)
#    0.000    1.545    0.000    6.273    0.000    2.909 
#   27.818    0.909    0.000    0.000    0.000    0.000 
#    0.000    0.000    0.000    0.000    0.000    0.000 
#
# Total GULP energy -1091050.809481 kJ/mol
# GULP energy per Si atom -12398.304653 kJ/mol
# Density = 2.153206 g / cm^3
# Si number density = 21.581176 Si / 1000 Ang^3
#
#
#
# Elastic Constant Matrix: (Units=GPa)
#
#
# Indices 1 2 3 4 5 6 
#
# 1 87.1134 58.3591 69.0091 0.0000 0.0000 0.0000
# 2 58.3591 87.1163 69.0084 0.0000 0.0000 0.0000
# 3 69.0091 69.0084 161.4195 0.0000 0.0000 0.0000
# 4 0.0000 0.0000 0.0000 61.9688 0.0000 0.0000
# 5 0.0000 0.0000 0.0000 0.0000 61.5788 0.0000
# 6 0.0000 0.0000 0.0000 0.0000 0.0000 30.2047
#
#
#
# Elastic Compliance Matrix: (Units=1/GPa)
#
#
# Indices 1 2 3 4 5 6 
#
# 1 0.023171 -0.011605 -0.004944 0.000000 0.000000 0.000000
# 2 -0.011605 0.023169 -0.004944 0.000000 0.000000 0.000000
# 3 -0.004944 -0.004944 0.010422 0.000000 0.000000 0.000000
# 4 0.000000 0.000000 0.000000 0.016137 0.000000 0.000000
# 5 0.000000 0.000000 0.000000 0.000000 0.016239 0.000000
# 6 0.000000 0.000000 0.000000 0.000000 0.000000 0.033107
#
#
# Mechanical properties :
#
#
# Convention : Reuss Voigt Hill
#
# Bulk Modulus (GPa) = 72.59239 80.93359 76.76299
# Shear Modulus (GPa) = 29.44197 40.03532 34.73864
#
# Velocity S-wave (km/s) = 3.69757 4.31176 4.01643
# Velocity P-wave (km/s) = 7.20689 7.89758 7.56013
#
# Compressibility (1/GPa) = 0.01377555
#
# Stress axis : x y z
#
# Youngs Moduli (GPa) = 43.15761 43.16024 95.94797
#
# Poissons Ratio (x) = 0.50089 0.47441
# Poissons Ratio (y) = 0.50086 0.47434
# Poissons Ratio (z) = 0.21339 0.21337
#
# Static dielectric constant tensor:
#      x y z
#    x 3.883710 0.000000 0.000000 
#    y 0.000000 3.883720 0.000000 
#    z 0.000000 0.000000 3.812730 
# 
# 
# High freq. dielectric constant tensor:
#      x y z
#    x 1.846320 0.000000 0.000000 
#    y 0.000000 1.846320 0.000000 
#    z 0.000000 0.000000 1.863380 
# 
# From -- ./inp_files/3906.got.cif
#   From: 2010.03.12/outbox.cif.g09.slc.cpg/sg128_2_cif.got.tgz:3906.got - 2010.04.06 17:11:05.
