data_PCOD8314192
_publ_section_title
;
Structure prediction by ZEFSAII (Michael W. Deem and Ramdas Pophale) SiO2 
 PCOD8314192
Probable space group: P 4/M B M
;
_chemical_formula_sum "Si O2"
_cell_formula_units_Z 80
_cell_length_a 23.002801
_cell_length_b 23.002801
_cell_length_c 8.078567
_cell_angle_alpha 90.000000
_cell_angle_beta 90.000000
_cell_angle_gamma 90.000000
_cell_volume 4274.602897
_symmetry_space_group_name_H-M "P 4/M B M"
_symmetry_group_IT_number 127
_symmetry_cell_setting 'tetragonal'
loop_
_space_group_symop_operation_xyz
x,y,z
-y,x,z
-x,-y,z
y,-x,z
1/2+x,1/2-y,-z
1/2-x,1/2+y,-z
1/2+y,1/2+x,-z
1/2-y,1/2-x,-z
-x,-y,-z
y,-x,-z
x,y,-z
-y,x,-z
1/2-x,1/2+y,z
1/2+x,1/2-y,z
1/2-y,1/2-x,z
1/2+y,1/2+x,z
loop_
_atom_site_type_symbol
_atom_site_label
_atom_site_fract_x
_atom_site_fract_y
_atom_site_fract_z
Si Si1 0.448219 0.425244 0.305063
Si Si2 0.365797 0.231001 0.000000
Si Si3 0.842291 0.853365 0.819939
Si Si4 0.039478 0.636316 0.000000
Si Si5 0.142104 0.455229 0.690544
Si Si6 0.860232 0.728770 0.309208
O O1 0.514472 0.419819 0.237581
O O2 0.449789 0.427770 0.500000
O O3 0.411735 0.369373 0.252965
O O4 0.362701 0.272475 0.163569
O O5 0.310931 0.189070 0.000000
O O6 0.425960 0.196882 0.000000
O O7 0.857936 0.797551 0.712414
O O8 0.870100 0.841840 0.000000
O O9 0.004493 0.632420 0.172117
O O10 0.082282 0.582282 0.000000
O O11 0.148464 0.479816 0.500000
O O12 0.087309 0.412692 0.695766
O O13 0.200138 0.420715 0.751320
O O14 0.857622 0.714511 0.500000
O O15 0.804664 0.695336 0.225032
#
# Coordination Sequence:
#
# PCOD8314192 Si02
#       6
#    16   8  16   8  16  16
#     4   9  19  37  57  77 108 146 180 223 277 326
#     4   9  22  40  52  74 113 149 184 224 273 339
#     4  10  21  33  55  81 107 142 186 221 270 328
#     4  11  23  39  59  82 117 161 197 230 282 347
#     4   9  20  38  60  89 119 147 189 245 296 341
#     4   9  18  34  56  83 111 140 179 232 290 338
#
# _framework density 18.715188000000001
#
# number of rings (size 3 to 8) (size 9 to 14) (size 15 to 20)
#    0.600    2.000    0.000    3.300    1.400    3.600 
#    0.000    6.000    0.000    2.400    0.000    0.000 
#    0.000    0.000    0.000    0.000    0.000    0.000 
#
# Total GULP energy -991046.793790 kJ/mol
# GULP energy per Si atom -12388.084922 kJ/mol
# Density = 1.867259 g / cm^3
# Si number density = 18.715188 Si / 1000 Ang^3
#
#
#
# Elastic Constant Matrix: (Units=GPa)
#
#
# Indices 1 2 3 4 5 6 
#
# 1 114.4365 45.4195 34.0076 0.0000 0.0000 0.0000
# 2 45.4195 114.4330 34.0071 0.0000 0.0000 0.0000
# 3 34.0076 34.0071 63.9644 0.0000 0.0000 0.0000
# 4 0.0000 0.0000 0.0000 26.5767 0.0000 0.0000
# 5 0.0000 0.0000 0.0000 0.0000 26.5766 0.0000
# 6 0.0000 0.0000 0.0000 0.0000 0.0000 11.5336
#
#
#
# Elastic Compliance Matrix: (Units=1/GPa)
#
#
# Indices 1 2 3 4 5 6 
#
# 1 0.011287 -0.003203 -0.004298 0.000000 0.000000 0.000000
# 2 -0.003203 0.011287 -0.004298 0.000000 0.000000 0.000000
# 3 -0.004298 -0.004298 0.020204 0.000000 0.000000 0.000000
# 4 0.000000 0.000000 0.000000 0.037627 0.000000 0.000000
# 5 0.000000 0.000000 0.000000 0.000000 0.037627 0.000000
# 6 0.000000 0.000000 0.000000 0.000000 0.000000 0.086703
#
#
# Mechanical properties :
#
#
# Convention : Reuss Voigt Hill
#
# Bulk Modulus (GPa) = 52.13702 57.74472 54.94087
# Shear Modulus (GPa) = 21.30137 24.89735 23.09936
#
# Velocity S-wave (km/s) = 3.37736 3.65132 3.51701
# Velocity P-wave (km/s) = 6.56714 6.97837 6.77588
#
# Compressibility (1/GPa) = 0.01918023
#
# Stress axis : x y z
#
# Youngs Moduli (GPa) = 88.59866 88.59592 49.49496
#
# Poissons Ratio (x) = 0.28373 0.21274
# Poissons Ratio (y) = 0.28374 0.21274
# Poissons Ratio (z) = 0.38081 0.38081
#
# Static dielectric constant tensor:
#      x y z
#    x 3.775560 0.000000 0.000000 
#    y 0.000000 3.775570 0.000000 
#    z 0.000000 0.000000 3.375890 
# 
# 
# High freq. dielectric constant tensor:
#      x y z
#    x 1.723890 0.000000 0.000000 
#    y 0.000000 1.723890 0.000000 
#    z 0.000000 0.000000 1.716660 
# 
# From -- ./inp_files/1858.got.cif
#   From: 2010.03.12/outbox.cif.g09.slc.cpg/sg127_1_cif.got.tgz:1858.got - 2010.04.06 17:03:15.
