data_PCOD8314875
_publ_section_title
;
Structure prediction by ZEFSAII (Michael W. Deem and Ramdas Pophale) SiO2 
 PCOD8314875
Probable space group: P 4/N M M
;
_chemical_formula_sum "Si O2"
_cell_formula_units_Z 72
_cell_length_a 22.079379
_cell_length_b 22.079379
_cell_length_c 9.150041
_cell_angle_alpha 90.000000
_cell_angle_beta 90.000000
_cell_angle_gamma 90.000000
_cell_volume 4460.635627
_symmetry_space_group_name_H-M "P 4/N M M"
_symmetry_group_IT_number 129
_symmetry_cell_setting 'tetragonal'
loop_
_space_group_symop_operation_xyz
x,y,z
1/2-y,x,z
1/2-x,1/2-y,z
y,1/2-x,z
1/2+x,-y,-z
-x,1/2+y,-z
1/2+y,1/2+x,-z
-y,-x,-z
-x,-y,-z
1/2+y,-x,-z
1/2+x,1/2+y,-z
-y,1/2+x,-z
1/2-x,y,z
x,1/2-y,z
1/2-y,1/2-x,z
y,x,z
loop_
_atom_site_type_symbol
_atom_site_label
_atom_site_fract_x
_atom_site_fract_y
_atom_site_fract_z
Si Si1 0.595732 0.404269 0.500000
Si Si2 0.112802 0.015515 0.711707
Si Si3 0.818835 0.034405 0.708419
Si Si4 0.097513 0.498486 0.027594
Si Si5 0.084126 0.317719 0.480672
O O1 0.594476 0.457386 0.381955
O O2 0.656601 0.412875 0.597609
O O3 0.049470 0.049470 0.725915
O O4 0.136201 0.003281 0.876313
O O5 0.163992 0.056532 0.636890
O O6 0.750000 0.052303 0.747813
O O7 0.822177 0.968637 0.636965
O O8 0.858695 0.027634 0.852655
O O9 0.067537 0.432464 0.069477
O O10 0.043159 0.543159 0.000000
O O11 0.110186 0.250000 0.492035
O O12 0.138421 0.361579 0.432358
#
# Coordination Sequence:
#
# PCOD8314875 Si02
#       5
#     8  16  16  16  16
#     4  10  17  30  48  65  94 122 154 190 236 285
#     4   9  17  27  45  70  96 124 155 194 236 281
#     4  10  20  32  48  71  97 124 156 197 244 289
#     4  10  18  29  47  74 101 127 158 192 240 295
#     4   9  18  31  46  67  95 130 168 202 237 276
#
# _framework density 16.141199
#
# number of rings (size 3 to 8) (size 9 to 14) (size 15 to 20)
#    0.000    2.444    2.222    1.000    0.000    2.889 
#    0.000    0.000    0.000    0.333    0.000    0.000 
#    0.000    5.333    0.000    0.000    0.000    0.000 
#
# Total GULP energy -892020.481388 kJ/mol
# GULP energy per Si atom -12389.173353 kJ/mol
# Density = 1.610446 g / cm^3
# Si number density = 16.141199 Si / 1000 Ang^3
#
#
#
# Elastic Constant Matrix: (Units=GPa)
#
#
# Indices 1 2 3 4 5 6 
#
# 1 81.2266 27.3944 30.8950 0.0000 0.0000 0.0000
# 2 27.3944 81.2264 30.8966 0.0000 0.0000 0.0000
# 3 30.8950 30.8966 101.3999 0.0000 0.0000 0.0000
# 4 0.0000 0.0000 0.0000 26.4748 0.0000 0.0000
# 5 0.0000 0.0000 0.0000 0.0000 26.4751 0.0000
# 6 0.0000 0.0000 0.0000 0.0000 0.0000 18.1239
#
#
#
# Elastic Compliance Matrix: (Units=1/GPa)
#
#
# Indices 1 2 3 4 5 6 
#
# 1 0.014856 -0.003720 -0.003393 0.000000 0.000000 0.000000
# 2 -0.003720 0.014857 -0.003393 0.000000 0.000000 0.000000
# 3 -0.003393 -0.003393 0.011930 0.000000 0.000000 0.000000
# 4 0.000000 0.000000 0.000000 0.037772 0.000000 0.000000
# 5 0.000000 0.000000 0.000000 0.000000 0.037771 0.000000
# 6 0.000000 0.000000 0.000000 0.000000 0.000000 0.055176
#
#
# Mechanical properties :
#
#
# Convention : Reuss Voigt Hill
#
# Bulk Modulus (GPa) = 48.47301 49.13610 48.80455
# Shear Modulus (GPa) = 24.96869 25.85922 25.41395
#
# Velocity S-wave (km/s) = 3.93732 4.00692 3.97227
# Velocity P-wave (km/s) = 7.12501 7.20519 7.16521
#
# Compressibility (1/GPa) = 0.02063004
#
# Stress axis : x y z
#
# Youngs Moduli (GPa) = 67.31119 67.31020 83.82406
#
# Poissons Ratio (x) = 0.25038 0.28442
# Poissons Ratio (y) = 0.25038 0.28445
# Poissons Ratio (z) = 0.22839 0.22841
#
# Static dielectric constant tensor:
#      x y z
#    x 2.980470 0.000000 0.000000 
#    y 0.000000 2.980480 0.000000 
#    z 0.000000 0.000000 2.396900 
# 
# 
# High freq. dielectric constant tensor:
#      x y z
#    x 1.599430 0.000000 0.000000 
#    y 0.000000 1.599430 0.000000 
#    z 0.000000 0.000000 1.633650 
# 
# From -- ./inp_files/2254.got.cif
#   From: 2010.03.12/outbox.cif.g09.slc.cpg/sg129_2_cif.got.tgz:2254.got - 2010.04.06 17:19:44.
