data_PCOD8314978
_publ_section_title
;
Structure prediction by ZEFSAII (Michael W. Deem and Ramdas Pophale) SiO2 
 PCOD8314978
Probable space group: P 4/N M M
;
_chemical_formula_sum "Si O2"
_cell_formula_units_Z 112
_cell_length_a 19.821547
_cell_length_b 19.821547
_cell_length_c 20.642211
_cell_angle_alpha 90.000000
_cell_angle_beta 90.000000
_cell_angle_gamma 90.000000
_cell_volume 8110.195182
_symmetry_space_group_name_H-M "P 4/N M M"
_symmetry_group_IT_number 129
_symmetry_cell_setting 'tetragonal'
loop_
_space_group_symop_operation_xyz
x,y,z
1/2-y,x,z
1/2-x,1/2-y,z
y,1/2-x,z
1/2+x,-y,-z
-x,1/2+y,-z
1/2+y,1/2+x,-z
-y,-x,-z
-x,-y,-z
1/2+y,-x,-z
1/2+x,1/2+y,-z
-y,1/2+x,-z
1/2-x,y,z
x,1/2-y,z
1/2-y,1/2-x,z
y,x,z
loop_
_atom_site_type_symbol
_atom_site_label
_atom_site_fract_x
_atom_site_fract_y
_atom_site_fract_z
Si Si1 0.065050 0.173038 0.882833
Si Si2 0.105968 0.827000 0.937968
Si Si3 0.607496 0.505282 0.996953
Si Si4 0.915992 0.330016 0.687928
Si Si5 0.171977 0.060281 0.734348
Si Si6 0.674379 0.169902 0.572119
Si Si7 0.670887 0.328241 0.192653
O O1 0.076066 0.250000 0.902859
O O2 0.137448 0.137448 0.889125
O O3 0.038322 0.165764 0.809443
O O4 0.010833 0.140114 0.931487
O O5 0.126059 0.750000 0.939275
O O6 0.133264 0.857038 0.870853
O O7 0.024784 0.838873 0.945078
O O8 0.139423 0.860578 0.000000
O O9 0.578421 0.578421 0.974493
O O10 0.545871 0.454130 0.000000
O O11 0.911896 0.250000 0.688114
O O12 0.880756 0.359232 0.622807
O O13 0.872409 0.357366 0.748159
O O14 0.994676 0.351645 0.693005
O O15 0.250000 0.080401 0.718887
O O16 0.123591 0.123591 0.717004
O O17 0.649775 0.149775 0.500000
O O18 0.750000 0.141182 0.586507
O O19 0.678155 0.250000 0.577461
O O20 0.750000 0.338748 0.181552
O O21 0.653863 0.250000 0.206662
#
# Coordination Sequence:
#
# PCOD8314978 Si02
#       7
#    16  16  16  16  16  16  16
#     4   9  17  29  43  57  72  91 119 159 203 243
#     4  10  19  27  37  51  69  95 124 154 185 222
#     4   9  18  29  39  51  67  90 121 154 189 226
#     4   9  16  25  39  57  77 101 128 159 193 230
#     4   9  18  29  42  59  77 100 130 164 203 241
#     4   8  13  22  38  60  83 105 129 157 187 219
#     4   9  17  27  37  52  75 101 127 155 190 229
#
# _framework density 13.809779000000001
#
# number of rings (size 3 to 8) (size 9 to 14) (size 15 to 20)
#    0.000    3.000    0.000    1.714    4.000    2.714 
#    0.000    1.429    0.000    0.429    0.000    0.000 
#    0.000    0.000    0.000    0.000    0.000    0.000 
#
# Total GULP energy -1387659.409697 kJ/mol
# GULP energy per Si atom -12389.816158 kJ/mol
# Density = 1.377835 g / cm^3
# Si number density = 13.809779 Si / 1000 Ang^3
#
#
#
# Elastic Constant Matrix: (Units=GPa)
#
#
# Indices 1 2 3 4 5 6 
#
# 1 64.0180 25.8966 42.0357 0.0000 0.0000 0.0000
# 2 25.8966 64.0166 42.0361 0.0000 0.0000 0.0000
# 3 42.0357 42.0361 93.7657 0.0000 0.0000 0.0000
# 4 0.0000 0.0000 0.0000 11.4648 0.0000 0.0000
# 5 0.0000 0.0000 0.0000 0.0000 11.4649 0.0000
# 6 0.0000 0.0000 0.0000 0.0000 0.0000 17.6175
#
#
#
# Elastic Compliance Matrix: (Units=1/GPa)
#
#
# Indices 1 2 3 4 5 6 
#
# 1 0.022690 -0.003542 -0.008584 0.000000 0.000000 0.000000
# 2 -0.003542 0.022691 -0.008585 0.000000 0.000000 0.000000
# 3 -0.008584 -0.008585 0.018362 0.000000 0.000000 0.000000
# 4 0.000000 0.000000 0.000000 0.087223 0.000000 0.000000
# 5 0.000000 0.000000 0.000000 0.000000 0.087223 0.000000
# 6 0.000000 0.000000 0.000000 0.000000 0.000000 0.056762
#
#
# Mechanical properties :
#
#
# Convention : Reuss Voigt Hill
#
# Bulk Modulus (GPa) = 44.80083 49.08190 46.94136
# Shear Modulus (GPa) = 14.54282 15.56490 15.05386
#
# Velocity S-wave (km/s) = 3.24864 3.36086 3.30523
# Velocity P-wave (km/s) = 6.82520 7.11892 6.97361
#
# Compressibility (1/GPa) = 0.02232102
#
# Stress axis : x y z
#
# Youngs Moduli (GPa) = 44.07236 44.07071 54.46103
#
# Poissons Ratio (x) = 0.15610 0.46750
# Poissons Ratio (y) = 0.15611 0.46753
# Poissons Ratio (z) = 0.37832 0.37833
#
# Static dielectric constant tensor:
#      x y z
#    x 3.122390 0.000000 0.000000 
#    y 0.000000 3.122430 0.000000 
#    z 0.000000 0.000000 2.862640 
# 
# 
# High freq. dielectric constant tensor:
#      x y z
#    x 1.508740 0.000000 0.000000 
#    y 0.000000 1.508740 0.000000 
#    z 0.000000 0.000000 1.510710 
# 
# From -- ./inp_files/6005.got.cif
#   From: 2010.03.12/outbox.cif.g09.slc.cpg/sg129_4_cif.got.tgz:6005.got - 2010.04.06 17:19:44.
