data_PCOD8314076
_publ_section_title
;
Structure prediction by ZEFSAII (Michael W. Deem and Ramdas Pophale) SiO2 
 PCOD8314076
Probable space group: P 4/M B M
;
_chemical_formula_sum "Si O2"
_cell_formula_units_Z 88
_cell_length_a 15.158448
_cell_length_b 15.158448
_cell_length_c 22.320876
_cell_angle_alpha 90.000000
_cell_angle_beta 90.000000
_cell_angle_gamma 90.000000
_cell_volume 5128.858428
_symmetry_space_group_name_H-M "P 4/M B M"
_symmetry_group_IT_number 127
_symmetry_cell_setting 'tetragonal'
loop_
_space_group_symop_operation_xyz
x,y,z
-y,x,z
-x,-y,z
y,-x,z
1/2+x,1/2-y,-z
1/2-x,1/2+y,-z
1/2+y,1/2+x,-z
1/2-y,1/2-x,-z
-x,-y,-z
y,-x,-z
x,y,-z
-y,x,-z
1/2-x,1/2+y,z
1/2+x,1/2-y,z
1/2-y,1/2-x,z
1/2+y,1/2+x,z
loop_
_atom_site_type_symbol
_atom_site_label
_atom_site_fract_x
_atom_site_fract_y
_atom_site_fract_z
Si Si1 0.925983 0.574018 0.385947
Si Si2 0.073720 0.426281 0.252849
Si Si3 0.426049 0.926049 0.933331
Si Si4 0.862829 0.958019 0.344270
Si Si5 0.941699 0.295062 0.567818
Si Si6 0.028499 0.675617 0.159862
Si Si7 0.036568 0.860962 0.793753
O O1 0.896559 0.603442 0.319023
O O2 0.841816 0.536061 0.421007
O O3 0.000000 0.500000 0.381728
O O4 0.156564 0.467587 0.217855
O O5 0.000000 0.500000 0.255903
O O6 0.468184 0.842503 0.898686
O O7 0.500000 0.000000 0.935922
O O8 0.396718 0.896718 0.000000
O O9 0.784228 0.927685 0.386679
O O10 0.832951 0.951935 0.275361
O O11 0.942518 0.891776 0.358307
O O12 0.940009 0.259337 0.500000
O O13 0.863359 0.363359 0.579749
O O14 0.116042 0.616042 0.158869
O O15 0.057001 0.777751 0.163375
O O16 0.937936 0.894101 0.808025
#
# Coordination Sequence:
#
# PCOD8314076 Si02
#       7
#     8   8   8  16  16  16  16
#     4   9  16  28  46  66  92 124 147 180 244 304
#     4   8  14  24  43  69  96 118 146 195 246 294
#     4   8  15  29  51  77 107 141 170 201 240 274
#     4   9  19  36  54  69  90 125 166 202 245 301
#     4  10  20  33  49  69  93 121 157 200 248 302
#     4   9  16  28  48  77 103 129 167 204 243 289
#     4   9  18  33  50  70 100 134 163 199 251 305
#
# _framework density 17.157813999999998
#
# number of rings (size 3 to 8) (size 9 to 14) (size 15 to 20)
#    0.000    3.000    0.000    3.545    0.000    4.000 
#    4.909    0.909    0.000    1.091    0.000    1.273 
#    0.000    0.000    0.000    0.000    0.000    0.000 
#
# Total GULP energy -1090897.166412 kJ/mol
# GULP energy per Si atom -12396.558709 kJ/mol
# Density = 1.711876 g / cm^3
# Si number density = 17.157814 Si / 1000 Ang^3
#
#
#
# Elastic Constant Matrix: (Units=GPa)
#
#
# Indices 1 2 3 4 5 6 
#
# 1 80.4306 22.3274 43.0821 0.0000 0.0000 0.0000
# 2 22.3274 80.4306 43.0821 0.0000 0.0000 0.0000
# 3 43.0821 43.0821 97.0943 0.0000 0.0000 0.0000
# 4 0.0000 0.0000 0.0000 17.0181 0.0000 0.0000
# 5 0.0000 0.0000 0.0000 0.0000 17.0181 0.0000
# 6 0.0000 0.0000 0.0000 0.0000 0.0000 11.6901
#
#
#
# Elastic Compliance Matrix: (Units=1/GPa)
#
#
# Indices 1 2 3 4 5 6 
#
# 1 0.016354 -0.000857 -0.006877 0.000000 0.000000 0.000000
# 2 -0.000857 0.016354 -0.006877 0.000000 0.000000 0.000000
# 3 -0.006877 -0.006877 0.016402 0.000000 0.000000 0.000000
# 4 0.000000 0.000000 0.000000 0.058761 0.000000 0.000000
# 5 0.000000 0.000000 0.000000 0.000000 0.058761 0.000000
# 6 0.000000 0.000000 0.000000 0.000000 0.000000 0.085543
#
#
# Mechanical properties :
#
#
# Convention : Reuss Voigt Hill
#
# Bulk Modulus (GPa) = 50.27423 52.77097 51.52260
# Shear Modulus (GPa) = 17.35966 19.10953 18.23459
#
# Velocity S-wave (km/s) = 3.18427 3.34091 3.26353
# Velocity P-wave (km/s) = 6.54860 6.76057 6.65543
#
# Compressibility (1/GPa) = 0.01989091
#
# Stress axis : x y z
#
# Youngs Moduli (GPa) = 61.14632 61.14632 60.96931
#
# Poissons Ratio (x) = 0.05237 0.41926
# Poissons Ratio (y) = 0.05237 0.41926
# Poissons Ratio (z) = 0.42047 0.42047
#
# Static dielectric constant tensor:
#      x y z
#    x 3.007060 0.000000 0.000000 
#    y 0.000000 3.007060 0.000000 
#    z 0.000000 0.000000 3.360200 
# 
# 
# High freq. dielectric constant tensor:
#      x y z
#    x 1.646870 0.000000 0.000000 
#    y 0.000000 1.646870 0.000000 
#    z 0.000000 0.000000 1.649330 
# 
# From -- ./inp_files/5729.got.cif
#   From: 2010.03.12/outbox.cif.g09.slc.cpg/sg127_3_cif.got.tgz:5729.got - 2010.04.06 17:03:15.
