data_PCOD8314235
_publ_section_title
;
Structure prediction by ZEFSAII (Michael W. Deem and Ramdas Pophale) SiO2 
 PCOD8314235
Probable space group: P 4/M B M
;
_chemical_formula_sum "Si O2"
_cell_formula_units_Z 96
_cell_length_a 22.682536
_cell_length_b 22.682536
_cell_length_c 9.049587
_cell_angle_alpha 90.000000
_cell_angle_beta 90.000000
_cell_angle_gamma 90.000000
_cell_volume 4655.989339
_symmetry_space_group_name_H-M "P 4/M B M"
_symmetry_group_IT_number 127
_symmetry_cell_setting 'tetragonal'
loop_
_space_group_symop_operation_xyz
x,y,z
-y,x,z
-x,-y,z
y,-x,z
1/2+x,1/2-y,-z
1/2-x,1/2+y,-z
1/2+y,1/2+x,-z
1/2-y,1/2-x,-z
-x,-y,-z
y,-x,-z
x,y,-z
-y,x,-z
1/2-x,1/2+y,z
1/2+x,1/2-y,z
1/2-y,1/2-x,z
1/2+y,1/2+x,z
loop_
_atom_site_type_symbol
_atom_site_label
_atom_site_fract_x
_atom_site_fract_y
_atom_site_fract_z
Si Si1 0.225809 0.109684 0.825983
Si Si2 0.466704 0.589668 0.168815
Si Si3 0.808631 0.308631 0.664166
Si Si4 0.092937 0.592937 0.334607
Si Si5 0.319445 0.011799 0.825167
Si Si6 0.293044 0.890055 0.671376
Si Si7 0.841314 0.119870 0.328747
O O1 0.253358 0.167682 0.753157
O O2 0.262071 0.050973 0.780703
O O3 0.159952 0.111957 0.762554
O O4 0.225044 0.116905 0.000000
O O5 0.425692 0.533655 0.202221
O O6 0.446548 0.642676 0.276538
O O7 0.459860 0.610727 0.000000
O O8 0.788558 0.288558 0.500000
O O9 0.857861 0.357861 0.653485
O O10 0.073299 0.573299 0.500000
O O11 0.120679 0.537486 0.247633
O O12 0.310254 0.945881 0.769706
O O13 0.328763 0.012324 0.000000
O O14 0.297638 0.908596 0.500000
O O15 0.336547 0.836547 0.710448
O O16 0.227061 0.868484 0.709356
O O17 0.854163 0.128825 0.500000
#
# Coordination Sequence:
#
# PCOD8314235 Si02
#       7
#    16  16   8   8  16  16  16
#     4  10  21  36  56  86 119 155 197 246 303 363
#     4   9  20  40  63  86 118 158 197 244 304 366
#     4   9  17  31  53  82 116 151 189 240 295 350
#     4   9  17  33  60  92 123 157 195 242 307 369
#     4  10  21  38  63  93 125 159 203 260 312 367
#     4  10  24  45  63  84 122 168 209 253 310 372
#     4  11  24  38  59  88 118 158 208 259 308 366
#
# _framework density 20.618604000000001
#
# number of rings (size 3 to 8) (size 9 to 14) (size 15 to 20)
#    0.000    2.167    0.000    2.500    3.500    6.333 
#    0.000    1.250    0.000    2.500    0.000    0.000 
#    0.000    0.000    0.000    0.000    0.000    0.000 
#
# Total GULP energy -1190241.911176 kJ/mol
# GULP energy per Si atom -12398.353241 kJ/mol
# Density = 2.057168 g / cm^3
# Si number density = 20.618604 Si / 1000 Ang^3
#
#
#
# Elastic Constant Matrix: (Units=GPa)
#
#
# Indices 1 2 3 4 5 6 
#
# 1 80.6080 50.1404 49.6367 0.0000 0.0000 0.0000
# 2 50.1404 80.6080 49.6367 0.0000 0.0000 0.0000
# 3 49.6367 49.6367 103.9888 0.0000 0.0000 0.0000
# 4 0.0000 0.0000 0.0000 32.8591 0.0000 0.0000
# 5 0.0000 0.0000 0.0000 0.0000 32.8591 0.0000
# 6 0.0000 0.0000 0.0000 0.0000 0.0000 36.9053
#
#
#
# Elastic Compliance Matrix: (Units=1/GPa)
#
#
# Indices 1 2 3 4 5 6 
#
# 1 0.022409 -0.010413 -0.005726 0.000000 0.000000 0.000000
# 2 -0.010413 0.022409 -0.005726 0.000000 0.000000 0.000000
# 3 -0.005726 -0.005726 0.015083 0.000000 0.000000 0.000000
# 4 0.000000 0.000000 0.000000 0.030433 0.000000 0.000000
# 5 0.000000 0.000000 0.000000 0.000000 0.030433 0.000000
# 6 0.000000 0.000000 0.000000 0.000000 0.000000 0.027096
#
#
# Mechanical properties :
#
#
# Convention : Reuss Voigt Hill
#
# Bulk Modulus (GPa) = 61.84061 62.67028 62.25544
# Shear Modulus (GPa) = 25.38299 28.24410 26.81354
#
# Velocity S-wave (km/s) = 3.51247 3.70514 3.61009
# Velocity P-wave (km/s) = 6.81965 6.98320 6.90191
#
# Compressibility (1/GPa) = 0.01617060
#
# Stress axis : x y z
#
# Youngs Moduli (GPa) = 44.62542 44.62542 66.30116
#
# Poissons Ratio (x) = 0.46468 0.37964
# Poissons Ratio (y) = 0.46468 0.37964
# Poissons Ratio (z) = 0.25552 0.25552
#
# Static dielectric constant tensor:
#      x y z
#    x 3.535060 0.000000 0.000000 
#    y 0.000000 3.535060 0.000000 
#    z 0.000000 0.000000 3.739860 
# 
# 
# High freq. dielectric constant tensor:
#      x y z
#    x 1.802930 0.000000 0.000000 
#    y 0.000000 1.802930 0.000000 
#    z 0.000000 0.000000 1.808110 
# 
# From -- ./inp_files/2073.got.cif
#   From: 2010.03.12/outbox.cif.g09.slc.cpg/sg127_2_cif.got.tgz:2073.got - 2010.04.06 17:03:15.
