data_PCOD8314201
_publ_section_title
;
Structure prediction by ZEFSAII (Michael W. Deem and Ramdas Pophale) SiO2 
 PCOD8314201
Probable space group: P 4/M B M
;
_chemical_formula_sum "Si O2"
_cell_formula_units_Z 72
_cell_length_a 20.377438
_cell_length_b 20.377438
_cell_length_c 9.223656
_cell_angle_alpha 90.000000
_cell_angle_beta 90.000000
_cell_angle_gamma 90.000000
_cell_volume 3830.030728
_symmetry_space_group_name_H-M "P 4/M B M"
_symmetry_group_IT_number 127
_symmetry_cell_setting 'tetragonal'
loop_
_space_group_symop_operation_xyz
x,y,z
-y,x,z
-x,-y,z
y,-x,z
1/2+x,1/2-y,-z
1/2-x,1/2+y,-z
1/2+y,1/2+x,-z
1/2-y,1/2-x,-z
-x,-y,-z
y,-x,-z
x,y,-z
-y,x,-z
1/2-x,1/2+y,z
1/2+x,1/2-y,z
1/2-y,1/2-x,z
1/2+y,1/2+x,z
loop_
_atom_site_type_symbol
_atom_site_label
_atom_site_fract_x
_atom_site_fract_y
_atom_site_fract_z
Si Si1 0.683899 0.957792 0.329403
Si Si2 0.945399 0.445399 0.164148
Si Si3 0.225162 0.923888 0.670849
Si Si4 0.310799 0.189202 0.670097
Si Si5 0.405196 0.452431 0.169540
Si Si6 0.791672 0.708329 0.672341
O O1 0.668490 0.961952 0.500000
O O2 0.617583 0.975022 0.245351
O O3 0.707290 0.884985 0.283134
O O4 0.740049 0.008535 0.283140
O O5 0.000000 0.500000 0.166946
O O6 0.926265 0.426265 0.000000
O O7 0.213832 0.919469 0.500000
O O8 0.154315 0.919686 0.744253
O O9 0.271342 0.864199 0.725953
O O10 0.304027 0.195974 0.500000
O O11 0.260056 0.239945 0.741967
O O12 0.471185 0.413359 0.212178
O O13 0.391110 0.445893 0.000000
O O14 0.789715 0.710286 0.500000
#
# Coordination Sequence:
#
# PCOD8314201 Si02
#       6
#    16   8  16   8  16   8
#     4   9  19  34  54  79 104 140 183 221 270 329
#     4  10  21  35  53  77 103 137 180 229 276 316
#     4  10  21  34  56  86 112 142 183 229 276 330
#     4   8  15  31  51  71 103 140 171 213 269 321
#     4   9  20  39  59  80 111 150 186 222 273 332
#     4   9  19  33  50  78 116 144 167 217 284 333
#
# _framework density 18.798805000000002
#
# number of rings (size 3 to 8) (size 9 to 14) (size 15 to 20)
#    0.000    2.778    0.000    1.667    4.667    2.667 
#    0.000    1.667    0.000    0.000    0.000    0.000 
#    0.000    0.000    0.000    0.000    0.000    0.000 
#
# Total GULP energy -892706.372422 kJ/mol
# GULP energy per Si atom -12398.699617 kJ/mol
# Density = 1.875602 g / cm^3
# Si number density = 18.798805 Si / 1000 Ang^3
#
#
#
# Elastic Constant Matrix: (Units=GPa)
#
#
# Indices 1 2 3 4 5 6 
#
# 1 106.3912 64.4495 23.2049 0.0000 0.0000 0.0000
# 2 64.4495 106.3917 23.2045 0.0000 0.0000 0.0000
# 3 23.2049 23.2045 37.5131 0.0000 0.0000 0.0000
# 4 0.0000 0.0000 0.0000 23.3587 0.0000 0.0000
# 5 0.0000 0.0000 0.0000 0.0000 23.3587 0.0000
# 6 0.0000 0.0000 0.0000 0.0000 0.0000 34.6527
#
#
#
# Elastic Compliance Matrix: (Units=1/GPa)
#
#
# Indices 1 2 3 4 5 6 
#
# 1 0.015439 -0.008403 -0.004352 0.000000 0.000000 0.000000
# 2 -0.008403 0.015439 -0.004352 0.000000 0.000000 0.000000
# 3 -0.004352 -0.004352 0.032042 0.000000 0.000000 0.000000
# 4 0.000000 0.000000 0.000000 0.042811 0.000000 0.000000
# 5 0.000000 0.000000 0.000000 0.000000 0.042811 0.000000
# 6 0.000000 0.000000 0.000000 0.000000 0.000000 0.028858
#
#
# Mechanical properties :
#
#
# Convention : Reuss Voigt Hill
#
# Bulk Modulus (GPa) = 34.83774 52.44600 43.64187
# Shear Modulus (GPa) = 22.60582 25.56983 24.08782
#
# Velocity S-wave (km/s) = 3.47149 3.69207 3.58348
# Velocity P-wave (km/s) = 5.88561 6.79222 6.35511
#
# Compressibility (1/GPa) = 0.02870450
#
# Stress axis : x y z
#
# Youngs Moduli (GPa) = 64.77043 64.77114 31.20948
#
# Poissons Ratio (x) = 0.54430 0.13583
# Poissons Ratio (y) = 0.54429 0.13582
# Poissons Ratio (z) = 0.28190 0.28188
#
# Static dielectric constant tensor:
#      x y z
#    x 4.094260 0.000000 0.000000 
#    y 0.000000 4.094300 0.000000 
#    z 0.000000 0.000000 3.160110 
# 
# 
# High freq. dielectric constant tensor:
#      x y z
#    x 1.735770 0.000000 0.000000 
#    y 0.000000 1.735770 0.000000 
#    z 0.000000 0.000000 1.697410 
# 
# From -- ./inp_files/1659.got.cif
#   From: 2010.03.12/outbox.cif.g09.slc.cpg/sg127_1_cif.got.tgz:1659.got - 2010.04.06 17:03:15.
