data_PCOD8314116
_publ_section_title
;
Structure prediction by ZEFSAII (Michael W. Deem and Ramdas Pophale) SiO2 
 PCOD8314116
Probable space group: P 4/M B M
;
_chemical_formula_sum "Si O2"
_cell_formula_units_Z 112
_cell_length_a 15.523664
_cell_length_b 15.523664
_cell_length_c 23.750345
_cell_angle_alpha 90.000000
_cell_angle_beta 90.000000
_cell_angle_gamma 90.000000
_cell_volume 5723.456559
_symmetry_space_group_name_H-M "P 4/M B M"
_symmetry_group_IT_number 127
_symmetry_cell_setting 'tetragonal'
loop_
_space_group_symop_operation_xyz
x,y,z
-y,x,z
-x,-y,z
y,-x,z
1/2+x,1/2-y,-z
1/2-x,1/2+y,-z
1/2+y,1/2+x,-z
1/2-y,1/2-x,-z
-x,-y,-z
y,-x,-z
x,y,-z
-y,x,-z
1/2-x,1/2+y,z
1/2+x,1/2-y,z
1/2-y,1/2-x,z
1/2+y,1/2+x,z
loop_
_atom_site_type_symbol
_atom_site_label
_atom_site_fract_x
_atom_site_fract_y
_atom_site_fract_z
Si Si1 0.248000 0.478705 0.934306
Si Si2 0.718638 0.926088 0.269174
Si Si3 0.877185 0.926964 0.337160
Si Si4 0.862929 0.504606 0.626041
Si Si5 0.802637 0.833481 0.065547
Si Si6 0.246293 0.111667 0.435963
Si Si7 0.002191 0.363435 0.166460
O O1 0.287799 0.569331 0.913885
O O2 0.314104 0.401980 0.921129
O O3 0.167594 0.462480 0.893825
O O4 0.219668 0.478563 0.000000
O O5 0.658146 0.841855 0.269703
O O6 0.816961 0.898361 0.283934
O O7 0.692013 0.994684 0.317055
O O8 0.712671 0.976674 0.209812
O O9 0.835886 0.892161 0.395259
O O10 0.969752 0.883352 0.334114
O O11 0.945395 0.445395 0.631916
O O12 0.804518 0.474102 0.573472
O O13 0.896863 0.603138 0.617803
O O14 0.735630 0.764371 0.093957
O O15 0.785555 0.828806 0.000000
O O16 0.213518 0.112969 0.500000
O O17 0.303851 0.196150 0.421849
O O18 0.917197 0.417197 0.153507
O O19 0.076109 0.423892 0.193842
#
# Coordination Sequence:
#
# PCOD8314116 Si02
#       7
#    16  16  16  16  16  16  16
#     4  10  20  35  55  79 112 153 193 234 282 340
#     4   9  18  36  57  77 105 137 174 226 282 332
#     4  10  21  38  59  80 107 145 187 229 273 326
#     4   8  13  24  46  72  99 135 172 209 262 319
#     4   9  18  33  53  77 108 145 185 229 276 332
#     4   9  18  33  53  79 113 148 182 225 272 319
#     4  10  20  34  55  84 114 143 181 232 290 351
#
# _framework density 19.568595999999999
#
# number of rings (size 3 to 8) (size 9 to 14) (size 15 to 20)
#    0.000    2.714    0.000    2.571    0.000    4.571 
#    2.571   11.429    0.000    0.000    0.000    0.000 
#    0.000    0.000    0.000    0.000    0.000    0.000 
#
# Total GULP energy -1387768.228073 kJ/mol
# GULP energy per Si atom -12390.787751 kJ/mol
# Density = 1.952406 g / cm^3
# Si number density = 19.568596 Si / 1000 Ang^3
#
#
#
# Elastic Constant Matrix: (Units=GPa)
#
#
# Indices 1 2 3 4 5 6 
#
# 1 68.9995 59.9138 27.4882 0.0000 0.0000 0.0000
# 2 59.9138 68.9995 27.4882 0.0000 0.0000 0.0000
# 3 27.4882 27.4882 91.6872 0.0000 0.0000 0.0000
# 4 0.0000 0.0000 0.0000 18.8660 0.0000 0.0000
# 5 0.0000 0.0000 0.0000 0.0000 18.8660 0.0000
# 6 0.0000 0.0000 0.0000 0.0000 0.0000 20.9232
#
#
#
# Elastic Compliance Matrix: (Units=1/GPa)
#
#
# Indices 1 2 3 4 5 6 
#
# 1 0.059479 -0.050585 -0.002667 0.000000 0.000000 0.000000
# 2 -0.050585 0.059479 -0.002667 0.000000 0.000000 0.000000
# 3 -0.002667 -0.002667 0.012506 0.000000 0.000000 0.000000
# 4 0.000000 0.000000 0.000000 0.053005 0.000000 0.000000
# 5 0.000000 0.000000 0.000000 0.000000 0.053005 0.000000
# 6 0.000000 0.000000 0.000000 0.000000 0.000000 0.047794
#
#
# Mechanical properties :
#
#
# Convention : Reuss Voigt Hill
#
# Bulk Modulus (GPa) = 50.94770 51.05185 50.99978
# Shear Modulus (GPa) = 12.38705 19.38409 15.88557
#
# Velocity S-wave (km/s) = 2.51869 3.15075 2.85228
# Velocity P-wave (km/s) = 5.87796 6.27548 6.07997
#
# Compressibility (1/GPa) = 0.01962797
#
# Stress axis : x y z
#
# Youngs Moduli (GPa) = 16.81261 16.81261 79.96460
#
# Poissons Ratio (x) = 0.85046 0.21323
# Poissons Ratio (y) = 0.85046 0.21323
# Poissons Ratio (z) = 0.04483 0.04483
#
# Static dielectric constant tensor:
#      x y z
#    x 3.707870 0.000000 0.000000 
#    y 0.000000 3.707870 0.000000 
#    z 0.000000 0.000000 3.435750 
# 
# 
# High freq. dielectric constant tensor:
#      x y z
#    x 1.752760 0.000000 0.000000 
#    y 0.000000 1.752760 0.000000 
#    z 0.000000 0.000000 1.744810 
# 
# From -- ./inp_files/6206.got.cif
#   From: 2010.03.12/outbox.cif.g09.slc.cpg/sg127_4_cif.got.tgz:6206.got - 2010.04.06 17:03:15.
