data_PCOD8314706
_publ_section_title
;
Structure prediction by ZEFSAII (Michael W. Deem and Ramdas Pophale) SiO2 
 PCOD8314706
Probable space group: P 4/M N C
;
_chemical_formula_sum "Si O2"
_cell_formula_units_Z 96
_cell_length_a 23.796855
_cell_length_b 23.796855
_cell_length_c 8.645779
_cell_angle_alpha 90.000000
_cell_angle_beta 90.000000
_cell_angle_gamma 90.000000
_cell_volume 4896.020852
_symmetry_space_group_name_H-M "P 4/M N C"
_symmetry_group_IT_number 128
_symmetry_cell_setting 'tetragonal'
loop_
_space_group_symop_operation_xyz
x,y,z
-y,x,z
-x,-y,z
y,-x,z
1/2+x,1/2-y,1/2-z
1/2-x,1/2+y,1/2-z
1/2+y,1/2+x,1/2-z
1/2-y,1/2-x,1/2-z
-x,-y,-z
y,-x,-z
x,y,-z
-y,x,-z
1/2-x,1/2+y,1/2+z
1/2+x,1/2-y,1/2+z
1/2-y,1/2-x,1/2+z
1/2+y,1/2+x,1/2+z
loop_
_atom_site_type_symbol
_atom_site_label
_atom_site_fract_x
_atom_site_fract_y
_atom_site_fract_z
Si Si1 0.344020 0.354593 0.819270
Si Si2 0.647942 0.934521 0.681488
Si Si3 0.349942 0.233708 0.317916
Si Si4 0.431478 0.439286 0.320072
Si Si5 0.772315 0.645334 0.323829
Si Si6 0.448319 0.866436 0.323838
O O1 0.357854 0.298094 0.727158
O O2 0.389082 0.402500 0.780527
O O3 0.282113 0.375049 0.770110
O O4 0.345856 0.342105 0.000000
O O5 0.590246 0.909755 0.750000
O O6 0.648920 0.925019 0.500000
O O7 0.701150 0.903787 0.754724
O O8 0.652400 0.999489 0.721802
O O9 0.292369 0.207632 0.250000
O O10 0.347837 0.227221 0.500000
O O11 0.495277 0.421862 0.279466
O O12 0.419275 0.428565 0.500000
O O13 0.798237 0.701764 0.250000
O O14 0.755432 0.659296 0.500000
O O15 0.816219 0.595416 0.314675
O O16 0.422611 0.922611 0.250000
O O17 0.466194 0.878913 0.500000
#
# Coordination Sequence:
#
# PCOD8314706 Si02
#       6
#    16  16  16  16  16  16
#     4  12  24  37  58  88 118 150 190 230 274 335
#     4  11  22  38  59  84 115 150 191 237 287 340
#     4  11  22  39  60  83 115 151 189 234 285 337
#     4   9  20  41  65  86 112 147 186 231 284 337
#     4  10  21  38  59  83 115 151 188 233 284 336
#     4  10  21  38  59  84 114 151 193 238 288 338
#
# _framework density 19.607759999999999
#
# number of rings (size 3 to 8) (size 9 to 14) (size 15 to 20)
#    0.000    1.500    0.000    7.500    0.000    4.333 
#    0.000    4.167    0.000    0.000    0.000    0.000 
#    0.000    0.000    0.000    0.000    0.000    0.000 
#
# Total GULP energy -1190846.528667 kJ/mol
# GULP energy per Si atom -12404.651340 kJ/mol
# Density = 1.956313 g / cm^3
# Si number density = 19.607760 Si / 1000 Ang^3
#
#
#
# Elastic Constant Matrix: (Units=GPa)
#
#
# Indices 1 2 3 4 5 6 
#
# 1 104.1781 9.4670 39.0391 0.0000 0.0000 0.0000
# 2 9.4670 104.1757 39.0393 0.0000 0.0000 0.0000
# 3 39.0391 39.0393 156.0391 0.0000 0.0000 0.0000
# 4 0.0000 0.0000 0.0000 35.8912 0.0000 0.0000
# 5 0.0000 0.0000 0.0000 0.0000 35.8918 0.0000
# 6 0.0000 0.0000 0.0000 0.0000 0.0000 26.7814
#
#
#
# Elastic Compliance Matrix: (Units=1/GPa)
#
#
# Indices 1 2 3 4 5 6 
#
# 1 0.010592 0.000034 -0.002658 0.000000 0.000000 0.000000
# 2 0.000034 0.010592 -0.002659 0.000000 0.000000 0.000000
# 3 -0.002658 -0.002659 0.007739 0.000000 0.000000 0.000000
# 4 0.000000 0.000000 0.000000 0.027862 0.000000 0.000000
# 5 0.000000 0.000000 0.000000 0.000000 0.027862 0.000000
# 6 0.000000 0.000000 0.000000 0.000000 0.000000 0.037339
#
#
# Mechanical properties :
#
#
# Convention : Reuss Voigt Hill
#
# Bulk Modulus (GPa) = 54.47577 59.94263 57.20920
# Shear Modulus (GPa) = 36.05638 38.16938 37.11288
#
# Velocity S-wave (km/s) = 4.29287 4.41687 4.35531
# Velocity P-wave (km/s) = 7.23980 7.52654 7.38457
#
# Compressibility (1/GPa) = 0.01835679
#
# Stress axis : x y z
#
# Youngs Moduli (GPa) = 94.41007 94.40753 129.21751
#
# Poissons Ratio (x) = -0.00318 0.34352
# Poissons Ratio (y) = -0.00318 0.34353
# Poissons Ratio (z) = 0.25098 0.25098
#
# Static dielectric constant tensor:
#      x y z
#    x 3.549580 0.000000 0.000000 
#    y 0.000000 3.549590 0.000000 
#    z 0.000000 0.000000 3.761850 
# 
# 
# High freq. dielectric constant tensor:
#      x y z
#    x 1.766450 0.000000 0.000000 
#    y 0.000000 1.766450 0.000000 
#    z 0.000000 0.000000 1.779800 
# 
# From -- ./inp_files/1473.got.cif
#   From: 2010.03.12/outbox.cif.g09.slc.cpg/sg128_1_cif.got.tgz:1473.got - 2010.04.06 17:11:05.
