data_PCOD8314871
_publ_section_title
;
Structure prediction by ZEFSAII (Michael W. Deem and Ramdas Pophale) SiO2 
 PCOD8314871
Probable space group: P 4/N M M
;
_chemical_formula_sum "Si O2"
_cell_formula_units_Z 112
_cell_length_a 22.961613
_cell_length_b 22.961613
_cell_length_c 12.613929
_cell_angle_alpha 90.000000
_cell_angle_beta 90.000000
_cell_angle_gamma 90.000000
_cell_volume 6650.513327
_symmetry_space_group_name_H-M "P 4/N M M"
_symmetry_group_IT_number 129
_symmetry_cell_setting 'tetragonal'
loop_
_space_group_symop_operation_xyz
x,y,z
1/2-y,x,z
1/2-x,1/2-y,z
y,1/2-x,z
1/2+x,-y,-z
-x,1/2+y,-z
1/2+y,1/2+x,-z
-y,-x,-z
-x,-y,-z
1/2+y,-x,-z
1/2+x,1/2+y,-z
-y,1/2+x,-z
1/2-x,y,z
x,1/2-y,z
1/2-y,1/2-x,z
y,x,z
loop_
_atom_site_type_symbol
_atom_site_label
_atom_site_fract_x
_atom_site_fract_y
_atom_site_fract_z
Si Si1 0.584406 0.317622 0.213093
Si Si2 0.317880 0.411216 0.968075
Si Si3 0.317272 0.892764 0.838683
Si Si4 0.404750 0.185652 0.717632
Si Si5 0.818474 0.025605 0.347843
Si Si6 0.372954 0.965745 0.018581
Si Si7 0.404280 0.817580 0.546997
O O1 0.570336 0.250000 0.198771
O O2 0.649348 0.331196 0.169293
O O3 0.540529 0.356050 0.142343
O O4 0.577616 0.337444 0.335496
O O5 0.250000 0.414221 0.013256
O O6 0.352717 0.352717 0.008047
O O7 0.312675 0.409012 0.843159
O O8 0.359885 0.466495 0.994516
O O9 0.250000 0.878358 0.829087
O O10 0.342745 0.929846 0.739712
O O11 0.329665 0.926611 0.947548
O O12 0.396943 0.250000 0.670707
O O13 0.349895 0.150106 0.676336
O O14 0.462227 0.154277 0.671589
O O15 0.750000 0.021498 0.326398
O O16 0.833639 0.043172 0.467774
O O17 0.439719 0.939719 0.000000
O O18 0.346937 0.846937 0.500000
O O19 0.389210 0.750000 0.546311
#
# Coordination Sequence:
#
# PCOD8314871 Si02
#       7
#    16  16  16  16  16  16  16
#     4  10  20  30  43  66  92 125 169 214 256 292
#     4  10  19  32  52  77 106 136 165 204 252 302
#     4  10  17  28  46  65  90 127 164 202 248 298
#     4   9  17  29  49  76 101 126 155 189 236 293
#     4   9  16  28  46  65  87 121 160 190 225 285
#     4  10  20  33  50  71  99 134 170 205 242 294
#     4  10  19  30  44  64  90 123 163 207 249 289
#
# _framework density 16.840805
#
# number of rings (size 3 to 8) (size 9 to 14) (size 15 to 20)
#    0.000    2.286    2.857    1.286    0.000    1.000 
#    0.000    2.857    0.000    3.857    0.000    0.000 
#    0.000    0.000    0.000    7.286    0.000    0.286 
#
# Total GULP energy -1387506.493248 kJ/mol
# GULP energy per Si atom -12388.450833 kJ/mol
# Density = 1.680248 g / cm^3
# Si number density = 16.840805 Si / 1000 Ang^3
#
#
#
# Elastic Constant Matrix: (Units=GPa)
#
#
# Indices 1 2 3 4 5 6 
#
# 1 65.3771 37.5353 8.4950 0.0000 0.0000 0.0000
# 2 37.5353 65.3771 8.4950 0.0000 0.0000 0.0000
# 3 8.4950 8.4950 75.6315 0.0000 0.0000 0.0000
# 4 0.0000 0.0000 0.0000 15.3736 0.0000 0.0000
# 5 0.0000 0.0000 0.0000 0.0000 15.3736 0.0000
# 6 0.0000 0.0000 0.0000 0.0000 0.0000 17.9299
#
#
#
# Elastic Compliance Matrix: (Units=1/GPa)
#
#
# Indices 1 2 3 4 5 6 
#
# 1 0.022909 -0.013008 -0.001112 0.000000 0.000000 0.000000
# 2 -0.013008 0.022909 -0.001112 0.000000 0.000000 0.000000
# 3 -0.001112 -0.001112 0.013472 0.000000 0.000000 0.000000
# 4 0.000000 0.000000 0.000000 0.065046 0.000000 0.000000
# 5 0.000000 0.000000 0.000000 0.000000 0.065046 0.000000
# 6 0.000000 0.000000 0.000000 0.000000 0.000000 0.055773
#
#
# Mechanical properties :
#
#
# Convention : Reuss Voigt Hill
#
# Bulk Modulus (GPa) = 34.69236 35.04852 34.87044
# Shear Modulus (GPa) = 17.52982 19.85946 18.69464
#
# Velocity S-wave (km/s) = 3.22982 3.43774 3.33540
# Velocity P-wave (km/s) = 5.87825 6.05097 5.96524
#
# Compressibility (1/GPa) = 0.02882479
#
# Stress axis : x y z
#
# Youngs Moduli (GPa) = 43.65115 43.65115 74.22906
#
# Poissons Ratio (x) = 0.56783 0.08255
# Poissons Ratio (y) = 0.56783 0.08255
# Poissons Ratio (z) = 0.04854 0.04854
#
# Static dielectric constant tensor:
#      x y z
#    x 3.198180 0.000000 0.000000 
#    y 0.000000 3.198180 0.000000 
#    z 0.000000 0.000000 3.189510 
# 
# 
# High freq. dielectric constant tensor:
#      x y z
#    x 1.632900 0.000000 0.000000 
#    y 0.000000 1.632900 0.000000 
#    z 0.000000 0.000000 1.637710 
# 
# From -- ./inp_files/4080.got.cif
#   From: 2010.03.12/outbox.cif.g09.slc.cpg/sg129_3_cif.got.tgz:4080.got - 2010.04.06 17:19:44.
