data_PCOD8314840
_publ_section_title
;
Structure prediction by ZEFSAII (Michael W. Deem and Ramdas Pophale) SiO2 
 PCOD8314840
Probable space group: P 4/M N C
;
_chemical_formula_sum "Si O2"
_cell_formula_units_Z 48
_cell_length_a 7.985353
_cell_length_b 7.985353
_cell_length_c 34.043719
_cell_angle_alpha 90.000000
_cell_angle_beta 90.000000
_cell_angle_gamma 90.000000
_cell_volume 2170.827106
_symmetry_space_group_name_H-M "P 4/M N C"
_symmetry_group_IT_number 128
_symmetry_cell_setting 'tetragonal'
loop_
_space_group_symop_operation_xyz
x,y,z
-y,x,z
-x,-y,z
y,-x,z
1/2+x,1/2-y,1/2-z
1/2-x,1/2+y,1/2-z
1/2+y,1/2+x,1/2-z
1/2-y,1/2-x,1/2-z
-x,-y,-z
y,-x,-z
x,y,-z
-y,x,-z
1/2-x,1/2+y,1/2+z
1/2+x,1/2-y,1/2+z
1/2-y,1/2-x,1/2+z
1/2+y,1/2+x,1/2+z
loop_
_atom_site_type_symbol
_atom_site_label
_atom_site_fract_x
_atom_site_fract_y
_atom_site_fract_z
Si Si1 0.500000 0.000000 0.646716
Si Si2 0.416301 0.235147 0.712516
Si Si3 0.405223 0.761826 0.584575
Si Si4 0.097019 0.257661 0.000000
O O1 0.387819 0.122933 0.673765
O O2 0.628842 0.103930 0.618877
O O3 0.608745 0.292073 0.712435
O O4 0.380426 0.119575 0.750000
O O5 0.289877 0.600053 0.589259
O O6 0.370495 0.851289 0.541698
O O7 0.904644 0.209909 0.000000
#
# Coordination Sequence:
#
# PCOD8314840 Si02
#       4
#     8  16  16   8
#     4  12  21  31  54  86 118 148 188 235 295 358
#     4  11  24  43  65  88 118 155 196 244 299 365
#     4   9  18  33  53  78 111 152 198 250 304 359
#     4   7  12  27  50  74 104 146 196 248 302 355
#
# _framework density 22.111384999999999
#
# number of rings (size 3 to 8) (size 9 to 14) (size 15 to 20)
#    0.000    2.167    0.000    6.500    0.000    3.333 
#    0.000    0.000    0.000    9.000    0.000    0.000 
#    0.000   32.000    0.000    0.000    0.000    0.000 
#
# Total GULP energy -594631.818229 kJ/mol
# GULP energy per Si atom -12388.162880 kJ/mol
# Density = 2.206106 g / cm^3
# Si number density = 22.111385 Si / 1000 Ang^3
#
#
#
# Elastic Constant Matrix: (Units=GPa)
#
#
# Indices 1 2 3 4 5 6 
#
# 1 88.9808 20.3050 53.9472 0.0000 0.0000 0.0000
# 2 20.3050 88.9809 53.9474 0.0000 0.0000 0.0000
# 3 53.9472 53.9474 223.0984 0.0000 0.0000 0.0000
# 4 0.0000 0.0000 0.0000 21.6264 0.0000 0.0000
# 5 0.0000 0.0000 0.0000 0.0000 21.6267 0.0000
# 6 0.0000 0.0000 0.0000 0.0000 0.0000 20.4299
#
#
#
# Elastic Compliance Matrix: (Units=1/GPa)
#
#
# Indices 1 2 3 4 5 6 
#
# 1 0.013290 -0.001271 -0.002906 0.000000 0.000000 0.000000
# 2 -0.001271 0.013290 -0.002907 0.000000 0.000000 0.000000
# 3 -0.002906 -0.002907 0.005888 0.000000 0.000000 0.000000
# 4 0.000000 0.000000 0.000000 0.046240 0.000000 0.000000
# 5 0.000000 0.000000 0.000000 0.000000 0.046239 0.000000
# 6 0.000000 0.000000 0.000000 0.000000 0.000000 0.048948
#
#
# Mechanical properties :
#
#
# Convention : Reuss Voigt Hill
#
# Bulk Modulus (GPa) = 54.64004 73.05103 63.84554
# Shear Modulus (GPa) = 25.75146 30.92729 28.33938
#
# Velocity S-wave (km/s) = 3.41636 3.74398 3.58392
# Velocity P-wave (km/s) = 6.35035 7.19718 6.78698
#
# Compressibility (1/GPa) = 0.01830160
#
# Stress axis : x y z
#
# Youngs Moduli (GPa) = 75.24175 75.24173 169.83787
#
# Poissons Ratio (x) = 0.09561 0.49363
# Poissons Ratio (y) = 0.09561 0.49364
# Poissons Ratio (z) = 0.21869 0.21869
#
# Static dielectric constant tensor:
#      x y z
#    x 3.686100 0.000000 0.000000 
#    y 0.000000 3.686100 0.000000 
#    z 0.000000 0.000000 4.726650 
# 
# 
# High freq. dielectric constant tensor:
#      x y z
#    x 1.835500 0.000000 0.000000 
#    y 0.000000 1.835500 0.000000 
#    z 0.000000 0.000000 1.907730 
# 
# From -- ./inp_files/7033.got.cif
#   From: 2010.03.12/outbox.cif.g09.slc.cpg/sg128_4_cif.got.tgz:7033.got - 2010.04.06 17:11:05.
