data_PCOD8314583
_publ_section_title
;
Structure prediction by ZEFSAII (Michael W. Deem and Ramdas Pophale) SiO2 
 PCOD8314583
Probable space group: P 4/M N C
;
_chemical_formula_sum "Si O2"
_cell_formula_units_Z 88
_cell_length_a 12.344731
_cell_length_b 12.344731
_cell_length_c 29.685189
_cell_angle_alpha 90.000000
_cell_angle_beta 90.000000
_cell_angle_gamma 90.000000
_cell_volume 4523.796705
_symmetry_space_group_name_H-M "P 4/M N C"
_symmetry_group_IT_number 128
_symmetry_cell_setting 'tetragonal'
loop_
_space_group_symop_operation_xyz
x,y,z
-y,x,z
-x,-y,z
y,-x,z
1/2+x,1/2-y,1/2-z
1/2-x,1/2+y,1/2-z
1/2+y,1/2+x,1/2-z
1/2-y,1/2-x,1/2-z
-x,-y,-z
y,-x,-z
x,y,-z
-y,x,-z
1/2-x,1/2+y,1/2+z
1/2+x,1/2-y,1/2+z
1/2-y,1/2-x,1/2+z
1/2+y,1/2+x,1/2+z
loop_
_atom_site_type_symbol
_atom_site_label
_atom_site_fract_x
_atom_site_fract_y
_atom_site_fract_z
Si Si1 0.414280 0.341443 0.240712
Si Si2 0.000000 0.500000 0.659085
Si Si3 0.660014 0.767771 0.093271
Si Si4 0.677554 0.099638 0.000000
Si Si5 0.322601 0.147516 0.185710
Si Si6 0.320995 0.924719 0.591273
Si Si7 0.773425 0.353858 0.500000
O O1 0.543417 0.354653 0.236828
O O2 0.368112 0.264325 0.201563
O O3 0.386181 0.286580 0.288726
O O4 0.916716 0.441271 0.693032
O O5 0.931943 0.583120 0.627769
O O6 0.699154 0.850948 0.132095
O O7 0.731655 0.663784 0.102250
O O8 0.531871 0.747260 0.095498
O O9 0.665742 0.819470 0.044597
O O10 0.601425 0.125312 0.957190
O O11 0.792398 0.159877 0.000000
O O12 0.728671 0.981774 0.000000
#
# Coordination Sequence:
#
# PCOD8314583 Si02
#       7
#    16   8  16   8  16  16   8
#     4  10  24  42  61  90 121 156 200 253 318 367
#     4  10  22  36  58  92 112 158 204 235 298 359
#     4  10  22  37  60  92 119 165 197 249 298 359
#     4  10  19  36  60  78 124 161 195 267 280 370
#     4  10  23  39  64  88 119 160 200 252 298 366
#     4  10  21  36  57  87 120 155 206 240 301 351
#     4  10  21  38  58  90 124 160 209 238 310 344
#
# _framework density 19.452684999999999
#
# number of rings (size 3 to 8) (size 9 to 14) (size 15 to 20)
#    0.000    2.000    0.000    2.727    7.636    4.545 
#    0.000    0.000    0.000    3.273    0.000    0.000 
#    0.000    0.000    0.000    0.000    0.000    0.000 
#
# Total GULP energy -1090431.914292 kJ/mol
# GULP energy per Si atom -12391.271753 kJ/mol
# Density = 1.940841 g / cm^3
# Si number density = 19.452685 Si / 1000 Ang^3
#
#
#
# Elastic Constant Matrix: (Units=GPa)
#
#
# Indices 1 2 3 4 5 6 
#
# 1 106.4981 57.5751 22.8610 0.0000 0.0000 0.0000
# 2 57.5751 106.4981 22.8610 0.0000 0.0000 0.0000
# 3 22.8610 22.8610 87.3487 0.0000 0.0000 0.0000
# 4 0.0000 0.0000 0.0000 29.0917 0.0000 0.0000
# 5 0.0000 0.0000 0.0000 0.0000 29.0917 0.0000
# 6 0.0000 0.0000 0.0000 0.0000 0.0000 21.7941
#
#
#
# Elastic Compliance Matrix: (Units=1/GPa)
#
#
# Indices 1 2 3 4 5 6 
#
# 1 0.013507 -0.006933 -0.001721 0.000000 0.000000 0.000000
# 2 -0.006933 0.013507 -0.001721 0.000000 0.000000 0.000000
# 3 -0.001721 -0.001721 0.012349 0.000000 0.000000 0.000000
# 4 0.000000 0.000000 0.000000 0.034374 0.000000 0.000000
# 5 0.000000 0.000000 0.000000 0.000000 0.034374 0.000000
# 6 0.000000 0.000000 0.000000 0.000000 0.000000 0.045884
#
#
# Mechanical properties :
#
#
# Convention : Reuss Voigt Hill
#
# Bulk Modulus (GPa) = 53.71979 56.32658 55.02318
# Shear Modulus (GPa) = 27.63204 29.13201 28.38202
#
# Velocity S-wave (km/s) = 3.77301 3.87406 3.82387
# Velocity P-wave (km/s) = 6.83054 7.00212 6.91686
#
# Compressibility (1/GPa) = 0.01861511
#
# Stress axis : x y z
#
# Youngs Moduli (GPa) = 74.03401 74.03401 80.97807
#
# Poissons Ratio (x) = 0.51328 0.13933
# Poissons Ratio (y) = 0.51328 0.13933
# Poissons Ratio (z) = 0.12739 0.12739
#
# Static dielectric constant tensor:
#      x y z
#    x 3.616530 0.000000 0.000000 
#    y 0.000000 3.616530 0.000000 
#    z 0.000000 0.000000 3.694900 
# 
# 
# High freq. dielectric constant tensor:
#      x y z
#    x 1.759560 0.000000 0.000000 
#    y 0.000000 1.759560 0.000000 
#    z 0.000000 0.000000 1.770440 
# 
# From -- ./inp_files/7310.got.cif
#   From: 2010.03.12/outbox.cif.g09.slc.cpg/sg128_4_cif.got.tgz:7310.got - 2010.04.06 17:11:05.
