data_PCOD8314358
_publ_section_title
;
Structure prediction by ZEFSAII (Michael W. Deem and Ramdas Pophale) SiO2 
 PCOD8314358
Probable space group: P 4/M B M
;
_chemical_formula_sum "Si O2"
_cell_formula_units_Z 112
_cell_length_a 15.951781
_cell_length_b 15.951781
_cell_length_c 25.012105
_cell_angle_alpha 90.000000
_cell_angle_beta 90.000000
_cell_angle_gamma 90.000000
_cell_volume 6364.563157
_symmetry_space_group_name_H-M "P 4/M B M"
_symmetry_group_IT_number 127
_symmetry_cell_setting 'tetragonal'
loop_
_space_group_symop_operation_xyz
x,y,z
-y,x,z
-x,-y,z
y,-x,z
1/2+x,1/2-y,-z
1/2-x,1/2+y,-z
1/2+y,1/2+x,-z
1/2-y,1/2-x,-z
-x,-y,-z
y,-x,-z
x,y,-z
-y,x,-z
1/2-x,1/2+y,z
1/2+x,1/2-y,z
1/2-y,1/2-x,z
1/2+y,1/2+x,z
loop_
_atom_site_type_symbol
_atom_site_label
_atom_site_fract_x
_atom_site_fract_y
_atom_site_fract_z
Si Si1 0.251116 0.614076 0.851168
Si Si2 0.133762 0.505754 0.682302
Si Si3 0.387162 0.422622 0.438882
Si Si4 0.298663 0.336688 0.762606
Si Si5 0.533619 0.167849 0.199709
Si Si6 0.261301 0.380747 0.350682
Si Si7 0.379364 0.563305 0.061730
O O1 0.199610 0.699610 0.858683
O O2 0.311906 0.620386 0.798400
O O3 0.188499 0.535532 0.844890
O O4 0.305623 0.602959 0.903871
O O5 0.063093 0.436908 0.675040
O O6 0.155500 0.514526 0.744552
O O7 0.214713 0.472128 0.649908
O O8 0.096248 0.596248 0.662327
O O9 0.478602 0.385697 0.426925
O O10 0.361648 0.405225 0.500000
O O11 0.320824 0.375279 0.401710
O O12 0.246980 0.253021 0.752056
O O13 0.245025 0.402746 0.796444
O O14 0.318415 0.372790 0.703225
O O15 0.583513 0.083513 0.183183
O O16 0.193029 0.306972 0.353615
O O17 0.388901 0.465363 0.075279
O O18 0.355761 0.575721 0.000000
#
# Coordination Sequence:
#
# PCOD8314358 Si02
#       7
#    16  16  16  16  16  16  16
#     4  11  20  29  48  76 103 129 157 195 242 286
#     4   8  14  26  44  66  95 131 162 183 218 283
#     4   9  19  36  53  66  86 122 165 202 239 289
#     4   8  17  31  44  67 102 132 157 189 232 280
#     4   9  17  30  46  65  96 135 167 191 224 284
#     4   9  17  30  50  75 100 124 155 200 246 283
#     4   9  19  37  57  72  89 120 164 207 242 281
#
# _framework density 17.597438
#
# number of rings (size 3 to 8) (size 9 to 14) (size 15 to 20)
#    0.000    3.000    0.000    3.857    0.000    3.714 
#    0.000    2.143    0.000    4.286    0.000    3.000 
#    0.000    0.000    0.000    0.000    0.000    0.000 
#
# Total GULP energy -1387981.018453 kJ/mol
# GULP energy per Si atom -12392.687665 kJ/mol
# Density = 1.755739 g / cm^3
# Si number density = 17.597438 Si / 1000 Ang^3
#
#
#
# Elastic Constant Matrix: (Units=GPa)
#
#
# Indices 1 2 3 4 5 6 
#
# 1 64.1540 27.4261 47.5517 0.0000 0.0000 0.0000
# 2 27.4261 64.1540 47.5517 0.0000 0.0000 0.0000
# 3 47.5517 47.5517 93.4378 0.0000 0.0000 0.0000
# 4 0.0000 0.0000 0.0000 26.9743 0.0000 0.0000
# 5 0.0000 0.0000 0.0000 0.0000 26.9743 0.0000
# 6 0.0000 0.0000 0.0000 0.0000 0.0000 21.1089
#
#
#
# Elastic Compliance Matrix: (Units=1/GPa)
#
#
# Indices 1 2 3 4 5 6 
#
# 1 0.025193 -0.002034 -0.011786 0.000000 0.000000 0.000000
# 2 -0.002034 0.025193 -0.011786 0.000000 0.000000 0.000000
# 3 -0.011786 -0.011786 0.022698 0.000000 0.000000 0.000000
# 4 0.000000 0.000000 0.000000 0.037072 0.000000 0.000000
# 5 0.000000 0.000000 0.000000 0.000000 0.037072 0.000000
# 6 0.000000 0.000000 0.000000 0.000000 0.000000 0.047373
#
#
# Mechanical properties :
#
#
# Convention : Reuss Voigt Hill
#
# Bulk Modulus (GPa) = 45.71973 51.86722 48.79348
# Shear Modulus (GPa) = 19.75474 21.62594 20.69034
#
# Velocity S-wave (km/s) = 3.35414 3.50941 3.43265
# Velocity P-wave (km/s) = 6.40607 6.77935 6.59535
#
# Compressibility (1/GPa) = 0.02187239
#
# Stress axis : x y z
#
# Youngs Moduli (GPa) = 39.69378 39.69378 44.05662
#
# Poissons Ratio (x) = 0.08075 0.51924
# Poissons Ratio (y) = 0.08075 0.51924
# Poissons Ratio (z) = 0.46782 0.46782
#
# Static dielectric constant tensor:
#      x y z
#    x 3.368330 0.000000 0.000000 
#    y 0.000000 3.368330 0.000000 
#    z 0.000000 0.000000 3.075470 
# 
# 
# High freq. dielectric constant tensor:
#      x y z
#    x 1.672730 0.000000 0.000000 
#    y 0.000000 1.672730 0.000000 
#    z 0.000000 0.000000 1.653770 
# 
# From -- ./inp_files/6183.got.cif
#   From: 2010.03.12/outbox.cif.g09.slc.cpg/sg127_4_cif.got.tgz:6183.got - 2010.04.06 17:03:15.
