data_PCOD8314973
_publ_section_title
;
Structure prediction by ZEFSAII (Michael W. Deem and Ramdas Pophale) SiO2 
 PCOD8314973
Probable space group: P 4/N M M
;
_chemical_formula_sum "Si O2"
_cell_formula_units_Z 120
_cell_length_a 26.443259
_cell_length_b 26.443259
_cell_length_c 9.269496
_cell_angle_alpha 90.000000
_cell_angle_beta 90.000000
_cell_angle_gamma 90.000000
_cell_volume 6481.657504
_symmetry_space_group_name_H-M "P 4/N M M"
_symmetry_group_IT_number 129
_symmetry_cell_setting 'tetragonal'
loop_
_space_group_symop_operation_xyz
x,y,z
1/2-y,x,z
1/2-x,1/2-y,z
y,1/2-x,z
1/2+x,-y,-z
-x,1/2+y,-z
1/2+y,1/2+x,-z
-y,-x,-z
-x,-y,-z
1/2+y,-x,-z
1/2+x,1/2+y,-z
-y,1/2+x,-z
1/2-x,y,z
x,1/2-y,z
1/2-y,1/2-x,z
y,x,z
loop_
_atom_site_type_symbol
_atom_site_label
_atom_site_fract_x
_atom_site_fract_y
_atom_site_fract_z
Si Si1 0.579853 0.192753 0.501246
Si Si2 0.191656 0.808345 0.000000
Si Si3 0.568290 0.054081 0.840553
Si Si4 0.967677 0.807420 0.445703
Si Si5 0.376508 0.459146 0.112303
Si Si6 0.890306 0.973037 0.206549
Si Si7 0.190841 0.394170 0.297687
Si Si8 0.137077 0.861532 0.743639
O O1 0.591690 0.250000 0.539625
O O2 0.520510 0.183009 0.469926
O O3 0.596128 0.162130 0.642850
O O4 0.611307 0.179920 0.358575
O O5 0.176177 0.836715 0.853670
O O6 0.250000 0.819848 0.026785
O O7 0.520631 0.073867 0.745452
O O8 0.612445 0.095025 0.841690
O O9 0.593662 0.001048 0.789453
O O10 0.545802 0.045802 0.000000
O O11 0.965899 0.750000 0.388578
O O12 0.964924 0.843393 0.309596
O O13 0.919492 0.817983 0.546715
O O14 0.410780 0.410780 0.096370
O O15 0.325003 0.438148 0.183833
O O16 0.366625 0.482610 0.953362
O O17 0.922374 0.922374 0.212362
O O18 0.250000 0.380330 0.272457
O O19 0.156813 0.343188 0.286310
#
# Coordination Sequence:
#
# PCOD8314973 Si02
#       8
#    16   8  16  16  16  16  16  16
#     4  10  21  35  52  74 103 140 178 216 270 327
#     4  11  24  40  56  76 101 134 182 236 283 320
#     4  10  18  32  53  79 110 142 177 216 261 323
#     4  10  20  35  53  79 112 145 180 224 272 327
#     4   9  19  34  53  79 112 145 179 218 267 326
#     4  10  19  33  55  82 111 147 183 220 268 324
#     4  10  21  38  58  80 110 145 185 234 283 334
#     4  11  20  35  55  75 102 135 175 227 270 317
#
# _framework density 18.513784000000001
#
# number of rings (size 3 to 8) (size 9 to 14) (size 15 to 20)
#    0.000    1.933    2.000    2.400    0.000    2.267 
#    0.000    0.667    0.000    6.400    0.000    0.000 
#    0.000    3.200    0.000    0.000    0.000    0.000 
#
# Total GULP energy -1487334.355895 kJ/mol
# GULP energy per Si atom -12394.452966 kJ/mol
# Density = 1.847165 g / cm^3
# Si number density = 18.513784 Si / 1000 Ang^3
#
#
#
# Elastic Constant Matrix: (Units=GPa)
#
#
# Indices 1 2 3 4 5 6 
#
# 1 100.7916 46.4188 34.3086 0.0000 0.0000 0.0000
# 2 46.4188 100.7922 34.3099 0.0000 0.0000 0.0000
# 3 34.3086 34.3099 68.4394 0.0000 0.0000 0.0000
# 4 0.0000 0.0000 0.0000 26.4652 0.0000 0.0000
# 5 0.0000 0.0000 0.0000 0.0000 26.4647 0.0000
# 6 0.0000 0.0000 0.0000 0.0000 0.0000 30.3846
#
#
#
# Elastic Compliance Matrix: (Units=1/GPa)
#
#
# Indices 1 2 3 4 5 6 
#
# 1 0.013628 -0.004764 -0.004444 0.000000 0.000000 0.000000
# 2 -0.004764 0.013628 -0.004444 0.000000 0.000000 0.000000
# 3 -0.004444 -0.004444 0.019067 0.000000 0.000000 0.000000
# 4 0.000000 0.000000 0.000000 0.037785 0.000000 0.000000
# 5 0.000000 0.000000 0.000000 0.000000 0.037786 0.000000
# 6 0.000000 0.000000 0.000000 0.000000 0.000000 0.032911
#
#
# Mechanical properties :
#
#
# Convention : Reuss Voigt Hill
#
# Bulk Modulus (GPa) = 52.57494 55.56642 54.07068
# Shear Modulus (GPa) = 26.53253 26.99531 26.76392
#
# Velocity S-wave (km/s) = 3.78977 3.82268 3.80626
# Velocity P-wave (km/s) = 6.89994 7.04006 6.97035
#
# Compressibility (1/GPa) = 0.01902047
#
# Stress axis : x y z
#
# Youngs Moduli (GPa) = 73.37925 73.37867 52.44697
#
# Poissons Ratio (x) = 0.34954 0.23305
# Poissons Ratio (y) = 0.34955 0.23307
# Poissons Ratio (z) = 0.32607 0.32609
#
# Static dielectric constant tensor:
#      x y z
#    x 3.425480 0.000000 0.000000 
#    y 0.000000 3.425500 0.000000 
#    z 0.000000 0.000000 3.353220 
# 
# 
# High freq. dielectric constant tensor:
#      x y z
#    x 1.719870 0.000000 0.000000 
#    y 0.000000 1.719870 0.000000 
#    z 0.000000 0.000000 1.704090 
# 
# From -- ./inp_files/2901.got.cif
#   From: 2010.03.12/outbox.cif.g09.slc.cpg/sg129_2_cif.got.tgz:2901.got - 2010.04.06 17:19:44.
