data_PCOD8314591
_publ_section_title
;
Structure prediction by ZEFSAII (Michael W. Deem and Ramdas Pophale) SiO2 
 PCOD8314591
Probable space group: P 4/M N C
;
_chemical_formula_sum "Si O2"
_cell_formula_units_Z 88
_cell_length_a 17.265425
_cell_length_b 17.265425
_cell_length_c 14.995789
_cell_angle_alpha 90.000000
_cell_angle_beta 90.000000
_cell_angle_gamma 90.000000
_cell_volume 4470.168229
_symmetry_space_group_name_H-M "P 4/M N C"
_symmetry_group_IT_number 128
_symmetry_cell_setting 'tetragonal'
loop_
_space_group_symop_operation_xyz
x,y,z
-y,x,z
-x,-y,z
y,-x,z
1/2+x,1/2-y,1/2-z
1/2-x,1/2+y,1/2-z
1/2+y,1/2+x,1/2-z
1/2-y,1/2-x,1/2-z
-x,-y,-z
y,-x,-z
x,y,-z
-y,x,-z
1/2-x,1/2+y,1/2+z
1/2+x,1/2-y,1/2+z
1/2-y,1/2-x,1/2+z
1/2+y,1/2+x,1/2+z
loop_
_atom_site_type_symbol
_atom_site_label
_atom_site_fract_x
_atom_site_fract_y
_atom_site_fract_z
Si Si1 0.061141 0.216109 0.397120
Si Si2 0.649809 0.878898 0.600088
Si Si3 0.870882 0.996642 0.000000
Si Si4 0.106775 0.810087 0.671266
Si Si5 0.454818 0.256563 0.651928
Si Si6 0.526522 0.145631 0.787127
O O1 0.083265 0.214038 0.500000
O O2 0.115729 0.158110 0.344438
O O3 0.072006 0.304570 0.362307
O O4 0.974727 0.185120 0.380554
O O5 0.654475 0.913989 0.500000
O O6 0.733557 0.850589 0.634171
O O7 0.597228 0.803133 0.596410
O O8 0.617696 0.944785 0.668742
O O9 0.920979 0.074744 0.000000
O O10 0.816501 0.997228 0.913100
O O11 0.095953 0.805085 0.777622
O O12 0.516823 0.205258 0.705603
O O13 0.571875 0.071875 0.750000
#
# Coordination Sequence:
#
# PCOD8314591 Si02
#       6
#    16  16   8  16  16  16
#     4  10  20  38  57  86 119 158 207 258 318 383
#     4  10  19  39  62  87 117 160 204 252 311 380
#     4  11  26  46  68  89 130 168 218 270 311 367
#     4  10  21  35  59  84 121 159 201 263 321 380
#     4  10  22  41  62  90 117 165 213 257 313 384
#     4  10  22  39  60  90 128 162 202 256 322 388
#
# _framework density 19.686060999999999
#
# number of rings (size 3 to 8) (size 9 to 14) (size 15 to 20)
#    0.000    2.273    0.909    5.455    5.091    3.273 
#    3.273    1.818    0.000    0.000    0.000    0.000 
#    0.000    0.000    0.000    0.000    0.000    0.000 
#
# Total GULP energy -1090920.812246 kJ/mol
# GULP energy per Si atom -12396.827412 kJ/mol
# Density = 1.964125 g / cm^3
# Si number density = 19.686061 Si / 1000 Ang^3
#
#
#
# Elastic Constant Matrix: (Units=GPa)
#
#
# Indices 1 2 3 4 5 6 
#
# 1 51.8489 28.6001 18.0768 0.0000 0.0000 0.0000
# 2 28.6001 51.8489 18.0768 0.0000 0.0000 0.0000
# 3 18.0768 18.0768 126.9881 0.0000 0.0000 0.0000
# 4 0.0000 0.0000 0.0000 25.4738 0.0000 0.0000
# 5 0.0000 0.0000 0.0000 0.0000 25.4738 0.0000
# 6 0.0000 0.0000 0.0000 0.0000 0.0000 42.9493
#
#
#
# Elastic Compliance Matrix: (Units=1/GPa)
#
#
# Indices 1 2 3 4 5 6 
#
# 1 0.028146 -0.014867 -0.001890 0.000000 0.000000 0.000000
# 2 -0.014867 0.028146 -0.001890 0.000000 0.000000 0.000000
# 3 -0.001890 -0.001890 0.008413 0.000000 0.000000 0.000000
# 4 0.000000 0.000000 0.000000 0.039256 0.000000 0.000000
# 5 0.000000 0.000000 0.000000 0.000000 0.039256 0.000000
# 6 0.000000 0.000000 0.000000 0.000000 0.000000 0.023283
#
#
# Mechanical properties :
#
#
# Convention : Reuss Voigt Hill
#
# Bulk Modulus (GPa) = 36.48175 40.02146 38.25161
# Shear Modulus (GPa) = 23.48163 29.84154 26.66158
#
# Velocity S-wave (km/s) = 3.45745 3.89764 3.68413
# Velocity P-wave (km/s) = 5.87457 6.37413 6.12944
#
# Compressibility (1/GPa) = 0.02741097
#
# Stress axis : x y z
#
# Youngs Moduli (GPa) = 35.52865 35.52865 118.86441
#
# Poissons Ratio (x) = 0.52819 0.22470
# Poissons Ratio (y) = 0.52819 0.22470
# Poissons Ratio (z) = 0.06716 0.06716
#
# Static dielectric constant tensor:
#      x y z
#    x 3.429710 0.000000 0.000000 
#    y 0.000000 3.429710 0.000000 
#    z 0.000000 0.000000 3.728360 
# 
# 
# High freq. dielectric constant tensor:
#      x y z
#    x 1.754750 0.000000 0.000000 
#    y 0.000000 1.754750 0.000000 
#    z 0.000000 0.000000 1.786120 
# 
# From -- ./inp_files/3816.got.cif
#   From: 2010.03.12/outbox.cif.g09.slc.cpg/sg128_2_cif.got.tgz:3816.got - 2010.04.06 17:11:05.
