data_PCOD8314698
_publ_section_title
;
Structure prediction by ZEFSAII (Michael W. Deem and Ramdas Pophale) SiO2 
 PCOD8314698
Probable space group: P 4/M N C
;
_chemical_formula_sum "Si O2"
_cell_formula_units_Z 96
_cell_length_a 16.578153
_cell_length_b 16.578153
_cell_length_c 17.707052
_cell_angle_alpha 90.000000
_cell_angle_beta 90.000000
_cell_angle_gamma 90.000000
_cell_volume 4866.520415
_symmetry_space_group_name_H-M "P 4/M N C"
_symmetry_group_IT_number 128
_symmetry_cell_setting 'tetragonal'
loop_
_space_group_symop_operation_xyz
x,y,z
-y,x,z
-x,-y,z
y,-x,z
1/2+x,1/2-y,1/2-z
1/2-x,1/2+y,1/2-z
1/2+y,1/2+x,1/2-z
1/2-y,1/2-x,1/2-z
-x,-y,-z
y,-x,-z
x,y,-z
-y,x,-z
1/2-x,1/2+y,1/2+z
1/2+x,1/2-y,1/2+z
1/2-y,1/2-x,1/2+z
1/2+y,1/2+x,1/2+z
loop_
_atom_site_type_symbol
_atom_site_label
_atom_site_fract_x
_atom_site_fract_y
_atom_site_fract_z
Si Si1 0.526558 0.629154 0.297879
Si Si2 0.263530 0.821948 0.911746
Si Si3 0.242574 0.508244 0.588893
Si Si4 0.309858 0.161334 0.837973
Si Si5 0.397142 0.696990 0.914343
Si Si6 0.932456 0.207757 0.649644
O O1 0.438024 0.593683 0.286380
O O2 0.529697 0.667643 0.381386
O O3 0.542391 0.702015 0.238095
O O4 0.192988 0.779649 0.862102
O O5 0.346878 0.776812 0.892045
O O6 0.276489 0.915488 0.889220
O O7 0.239921 0.814883 0.000000
O O8 0.238211 0.523602 0.500000
O O9 0.180603 0.569387 0.631806
O O10 0.326508 0.173493 0.750000
O O11 0.378883 0.215907 0.875944
O O12 0.490229 0.715038 0.902583
O O13 0.373008 0.618707 0.866067
O O14 0.379824 0.674088 0.000000
#
# Coordination Sequence:
#
# PCOD8314698 Si02
#       6
#    16  16  16  16  16  16
#     4  11  22  36  57  87 125 163 201 253 314 375
#     4   9  21  40  62  89 123 164 210 254 308 375
#     4  11  23  40  63  89 122 164 215 264 311 373
#     4  11  22  38  63  91 121 160 209 255 315 370
#     4  10  21  37  60  91 122 162 207 254 315 376
#     4  11  21  37  59  87 126 162 204 259 309 378
#
# _framework density 19.726621999999999
#
# number of rings (size 3 to 8) (size 9 to 14) (size 15 to 20)
#    0.000    1.500    3.333    2.000    0.000    4.333 
#    0.000    2.500    0.000    4.000    0.000    0.000 
#    0.000    0.000    0.000    0.000    0.000    0.000 
#
# Total GULP energy -1190118.640861 kJ/mol
# GULP energy per Si atom -12397.069176 kJ/mol
# Density = 1.968172 g / cm^3
# Si number density = 19.726622 Si / 1000 Ang^3
#
#
#
# Elastic Constant Matrix: (Units=GPa)
#
#
# Indices 1 2 3 4 5 6 
#
# 1 120.4499 44.5866 41.0296 0.0000 0.0000 0.0000
# 2 44.5866 120.4500 41.0295 0.0000 0.0000 0.0000
# 3 41.0296 41.0295 93.2621 0.0000 0.0000 0.0000
# 4 0.0000 0.0000 0.0000 30.0881 0.0000 0.0000
# 5 0.0000 0.0000 0.0000 0.0000 30.0881 0.0000
# 6 0.0000 0.0000 0.0000 0.0000 0.0000 7.6129
#
#
#
# Elastic Compliance Matrix: (Units=1/GPa)
#
#
# Indices 1 2 3 4 5 6 
#
# 1 0.010469 -0.002713 -0.003412 0.000000 0.000000 0.000000
# 2 -0.002713 0.010469 -0.003412 0.000000 0.000000 0.000000
# 3 -0.003412 -0.003412 0.013725 0.000000 0.000000 0.000000
# 4 0.000000 0.000000 0.000000 0.033236 0.000000 0.000000
# 5 0.000000 0.000000 0.000000 0.000000 0.033236 0.000000
# 6 0.000000 0.000000 0.000000 0.000000 0.000000 0.131356
#
#
# Mechanical properties :
#
#
# Convention : Reuss Voigt Hill
#
# Bulk Modulus (GPa) = 64.15195 65.27259 64.71227
# Shear Modulus (GPa) = 19.47350 27.39224 23.43287
#
# Velocity S-wave (km/s) = 3.14533 3.73042 3.45030
# Velocity P-wave (km/s) = 6.76623 7.19133 6.98202
#
# Compressibility (1/GPa) = 0.01558799
#
# Stress axis : x y z
#
# Youngs Moduli (GPa) = 95.52273 95.52290 72.86142
#
# Poissons Ratio (x) = 0.25914 0.24861
# Poissons Ratio (y) = 0.25914 0.24861
# Poissons Ratio (z) = 0.32593 0.32593
#
# Static dielectric constant tensor:
#      x y z
#    x 3.684990 0.000000 0.000000 
#    y 0.000000 3.684990 0.000000 
#    z 0.000000 0.000000 3.547320 
# 
# 
# High freq. dielectric constant tensor:
#      x y z
#    x 1.763330 0.000000 0.000000 
#    y 0.000000 1.763330 0.000000 
#    z 0.000000 0.000000 1.774380 
# 
# From -- ./inp_files/4744.got.cif
#   From: 2010.03.12/outbox.cif.g09.slc.cpg/sg128_3_cif.got.tgz:4744.got - 2010.04.06 17:11:05.
