data_PCOD8314360
_publ_section_title
;
Structure prediction by ZEFSAII (Michael W. Deem and Ramdas Pophale) SiO2 
 PCOD8314360
Probable space group: P 4/M B M
;
_chemical_formula_sum "Si O2"
_cell_formula_units_Z 112
_cell_length_a 32.687492
_cell_length_b 32.687492
_cell_length_c 8.032351
_cell_angle_alpha 90.000000
_cell_angle_beta 90.000000
_cell_angle_gamma 90.000000
_cell_volume 8582.343208
_symmetry_space_group_name_H-M "P 4/M B M"
_symmetry_group_IT_number 127
_symmetry_cell_setting 'tetragonal'
loop_
_space_group_symop_operation_xyz
x,y,z
-y,x,z
-x,-y,z
y,-x,z
1/2+x,1/2-y,-z
1/2-x,1/2+y,-z
1/2+y,1/2+x,-z
1/2-y,1/2-x,-z
-x,-y,-z
y,-x,-z
x,y,-z
-y,x,-z
1/2-x,1/2+y,z
1/2+x,1/2-y,z
1/2-y,1/2-x,z
1/2+y,1/2+x,z
loop_
_atom_site_type_symbol
_atom_site_label
_atom_site_fract_x
_atom_site_fract_y
_atom_site_fract_z
Si Si1 0.509075 0.565588 0.311321
Si Si2 0.828384 0.262209 0.500000
Si Si3 0.806801 0.759330 0.500000
Si Si4 0.635203 0.597193 0.195115
Si Si5 0.352779 0.493901 0.814788
Si Si6 0.228522 0.139181 0.180494
Si Si7 0.077967 0.834421 0.312074
Si Si8 0.294683 0.339624 0.815717
O O1 0.465549 0.545109 0.279104
O O2 0.511395 0.582958 0.500000
O O3 0.512416 0.601595 0.178705
O O4 0.805383 0.305383 0.500000
O O5 0.796990 0.224598 0.500000
O O6 0.856850 0.260250 0.334128
O O7 0.783900 0.716101 0.500000
O O8 0.834796 0.761389 0.332452
O O9 0.644487 0.551468 0.268905
O O10 0.595482 0.619552 0.275665
O O11 0.675723 0.623142 0.233652
O O12 0.626444 0.593539 0.000000
O O13 0.328438 0.528946 0.713419
O O14 0.334347 0.490873 0.000000
O O15 0.198535 0.100435 0.197054
O O16 0.202055 0.180157 0.174792
O O17 0.251100 0.134727 0.000000
O O18 0.089051 0.823356 0.500000
O O19 0.274584 0.347281 0.000000
#
# Coordination Sequence:
#
# PCOD8314360 Si02
#       8
#    16   8   8  16  16  16  16  16
#     4   9  18  31  41  49  63  79  98 131 176 221
#     4   9  16  26  40  61  80  94 115 134 157 195
#     4   9  16  24  38  59  76  92 111 128 153 191
#     4   9  19  32  43  54  68  90 116 142 178 217
#     4  11  21  30  39  53  68  82 111 147 175 213
#     4   9  16  28  42  56  76  98 117 137 165 201
#     4  11  20  30  43  56  70  90 117 145 179 220
#     4   8  15  27  40  54  73  94 113 134 162 197
#
# _framework density 13.050050000000001
#
# number of rings (size 3 to 8) (size 9 to 14) (size 15 to 20)
#    0.000    2.571    0.714    3.857    3.000    4.571 
#    0.000    3.571    0.000    0.000    0.000    0.000 
#    0.000    0.000    0.000    0.000    0.000    0.000 
#
# Total GULP energy -1387543.253938 kJ/mol
# GULP energy per Si atom -12388.779053 kJ/mol
# Density = 1.302035 g / cm^3
# Si number density = 13.050050 Si / 1000 Ang^3
#
#
#
# Elastic Constant Matrix: (Units=GPa)
#
#
# Indices 1 2 3 4 5 6 
#
# 1 26.5376 19.2148 20.3743 0.0000 0.0000 0.0000
# 2 19.2148 26.5375 20.3747 0.0000 0.0000 0.0000
# 3 20.3743 20.3747 82.4855 0.0000 0.0000 0.0000
# 4 0.0000 0.0000 0.0000 14.7313 0.0000 0.0000
# 5 0.0000 0.0000 0.0000 0.0000 14.7312 0.0000
# 6 0.0000 0.0000 0.0000 0.0000 0.0000 5.7594
#
#
#
# Elastic Compliance Matrix: (Units=1/GPa)
#
#
# Indices 1 2 3 4 5 6 
#
# 1 0.082291 -0.054270 -0.006921 0.000000 0.000000 0.000000
# 2 -0.054270 0.082292 -0.006922 0.000000 0.000000 0.000000
# 3 -0.006921 -0.006922 0.015543 0.000000 0.000000 0.000000
# 4 0.000000 0.000000 0.000000 0.067883 0.000000 0.000000
# 5 0.000000 0.000000 0.000000 0.000000 0.067883 0.000000
# 6 0.000000 0.000000 0.000000 0.000000 0.000000 0.173630
#
#
# Mechanical properties :
#
#
# Convention : Reuss Voigt Hill
#
# Bulk Modulus (GPa) = 22.77932 28.38759 25.58346
# Shear Modulus (GPa) = 7.80785 12.08417 9.94601
#
# Velocity S-wave (km/s) = 2.44867 3.04630 2.76369
# Velocity P-wave (km/s) = 5.04855 5.84580 5.46174
#
# Compressibility (1/GPa) = 0.04389947
#
# Stress axis : x y z
#
# Youngs Moduli (GPa) = 12.15198 12.15183 64.33909
#
# Poissons Ratio (x) = 0.65948 0.44529
# Poissons Ratio (y) = 0.65949 0.44535
# Poissons Ratio (z) = 0.08410 0.08411
#
# Static dielectric constant tensor:
#      x y z
#    x 2.368100 0.000000 0.000000 
#    y 0.000000 2.368100 0.000000 
#    z 0.000000 0.000000 2.881580 
# 
# 
# High freq. dielectric constant tensor:
#      x y z
#    x 1.449060 0.000000 0.000000 
#    y 0.000000 1.449060 0.000000 
#    z 0.000000 0.000000 1.515540 
# 
# From -- ./inp_files/2471.got.cif
#   From: 2010.03.12/outbox.cif.g09.slc.cpg/sg127_2_cif.got.tgz:2471.got - 2010.04.06 17:03:15.
