data_PCOD8314121
_publ_section_title
;
Structure prediction by ZEFSAII (Michael W. Deem and Ramdas Pophale) SiO2 
 PCOD8314121
Probable space group: P 4/M B M
;
_chemical_formula_sum "Si O2"
_cell_formula_units_Z 80
_cell_length_a 16.799995
_cell_length_b 16.799995
_cell_length_c 14.523166
_cell_angle_alpha 90.000000
_cell_angle_beta 90.000000
_cell_angle_gamma 90.000000
_cell_volume 4099.015932
_symmetry_space_group_name_H-M "P 4/M B M"
_symmetry_group_IT_number 127
_symmetry_cell_setting 'tetragonal'
loop_
_space_group_symop_operation_xyz
x,y,z
-y,x,z
-x,-y,z
y,-x,z
1/2+x,1/2-y,-z
1/2-x,1/2+y,-z
1/2+y,1/2+x,-z
1/2-y,1/2-x,-z
-x,-y,-z
y,-x,-z
x,y,-z
-y,x,-z
1/2-x,1/2+y,z
1/2+x,1/2-y,z
1/2-y,1/2-x,z
1/2+y,1/2+x,z
loop_
_atom_site_type_symbol
_atom_site_label
_atom_site_fract_x
_atom_site_fract_y
_atom_site_fract_z
Si Si1 0.196016 0.824957 0.253055
Si Si2 0.197316 0.565885 0.774607
Si Si3 0.608087 0.571171 0.606543
Si Si4 0.711238 0.082225 0.105100
Si Si5 0.369918 0.996347 0.601367
O O1 0.265896 0.765896 0.287122
O O2 0.118288 0.776070 0.224650
O O3 0.176531 0.885209 0.335523
O O4 0.220612 0.873776 0.162991
O O5 0.118581 0.618581 0.784537
O O6 0.199292 0.507560 0.861238
O O7 0.195175 0.514774 0.679469
O O8 0.522126 0.608236 0.630796
O O9 0.627753 0.585002 0.500000
O O10 0.627396 0.127396 0.115690
O O11 0.740396 0.081029 0.000000
O O12 0.328683 0.993053 0.500000
O O13 0.412032 0.912032 0.623726
O O14 0.435363 0.064638 0.600070
#
# Coordination Sequence:
#
# PCOD8314121 Si02
#       5
#    16  16  16  16  16
#     4  10  21  36  54  78 110 145 177 215 268 328
#     4  10  20  34  56  83 107 139 185 228 266 321
#     4   9  18  34  57  82 107 139 180 223 262 303
#     4  10  22  39  56  76 106 140 174 222 282 333
#     4   8  14  26  46  74 108 141 170 205 251 302
#
# _framework density 19.516878999999999
#
# number of rings (size 3 to 8) (size 9 to 14) (size 15 to 20)
#    0.000    2.600    0.000    3.000    0.000    3.600 
#    0.000    6.000    0.000    1.200    0.000    4.200 
#    0.000    0.000    0.000    0.000    0.000    0.000 
#
# Total GULP energy -992092.769680 kJ/mol
# GULP energy per Si atom -12401.159621 kJ/mol
# Density = 1.947246 g / cm^3
# Si number density = 19.516879 Si / 1000 Ang^3
#
#
#
# Elastic Constant Matrix: (Units=GPa)
#
#
# Indices 1 2 3 4 5 6 
#
# 1 68.0115 30.1226 53.2700 0.0000 0.0000 0.0000
# 2 30.1226 68.0115 53.2700 0.0000 0.0000 0.0000
# 3 53.2700 53.2700 134.0614 0.0000 0.0000 0.0000
# 4 0.0000 0.0000 0.0000 29.4359 0.0000 0.0000
# 5 0.0000 0.0000 0.0000 0.0000 29.4359 0.0000
# 6 0.0000 0.0000 0.0000 0.0000 0.0000 27.0708
#
#
#
# Elastic Compliance Matrix: (Units=1/GPa)
#
#
# Indices 1 2 3 4 5 6 
#
# 1 0.022157 -0.004236 -0.007121 0.000000 0.000000 0.000000
# 2 -0.004236 0.022157 -0.007121 0.000000 0.000000 0.000000
# 3 -0.007121 -0.007121 0.013118 0.000000 0.000000 0.000000
# 4 0.000000 0.000000 0.000000 0.033972 0.000000 0.000000
# 5 0.000000 0.000000 0.000000 0.000000 0.033972 0.000000
# 6 0.000000 0.000000 0.000000 0.000000 0.000000 0.036940
#
#
# Mechanical properties :
#
#
# Convention : Reuss Voigt Hill
#
# Bulk Modulus (GPa) = 48.83642 60.37885 54.60763
# Shear Modulus (GPa) = 24.26024 26.08332 25.17178
#
# Velocity S-wave (km/s) = 3.52950 3.65971 3.59520
# Velocity P-wave (km/s) = 6.45653 6.99013 6.72862
#
# Compressibility (1/GPa) = 0.02047652
#
# Stress axis : x y z
#
# Youngs Moduli (GPa) = 45.13237 45.13237 76.22846
#
# Poissons Ratio (x) = 0.19117 0.54283
# Poissons Ratio (y) = 0.19117 0.54283
# Poissons Ratio (z) = 0.32139 0.32139
#
# Static dielectric constant tensor:
#      x y z
#    x 3.511170 0.000000 0.000000 
#    y 0.000000 3.511170 0.000000 
#    z 0.000000 0.000000 3.586590 
# 
# 
# High freq. dielectric constant tensor:
#      x y z
#    x 1.757570 0.000000 0.000000 
#    y 0.000000 1.757570 0.000000 
#    z 0.000000 0.000000 1.752140 
# 
# From -- ./inp_files/4208.got.cif
#   From: 2010.03.12/outbox.cif.g09.slc.cpg/sg127_3_cif.got.tgz:4208.got - 2010.04.06 17:03:15.
