data_PCOD8314518
_publ_section_title
;
Structure prediction by ZEFSAII (Michael W. Deem and Ramdas Pophale) SiO2 
 PCOD8314518
Probable space group: P 4/M N C
;
_chemical_formula_sum "Si O2"
_cell_formula_units_Z 128
_cell_length_a 17.883690
_cell_length_b 17.883690
_cell_length_c 22.826266
_cell_angle_alpha 90.000000
_cell_angle_beta 90.000000
_cell_angle_gamma 90.000000
_cell_volume 7300.441750
_symmetry_space_group_name_H-M "P 4/M N C"
_symmetry_group_IT_number 128
_symmetry_cell_setting 'tetragonal'
loop_
_space_group_symop_operation_xyz
x,y,z
-y,x,z
-x,-y,z
y,-x,z
1/2+x,1/2-y,1/2-z
1/2-x,1/2+y,1/2-z
1/2+y,1/2+x,1/2-z
1/2-y,1/2-x,1/2-z
-x,-y,-z
y,-x,-z
x,y,-z
-y,x,-z
1/2-x,1/2+y,1/2+z
1/2+x,1/2-y,1/2+z
1/2-y,1/2-x,1/2+z
1/2+y,1/2+x,1/2+z
loop_
_atom_site_type_symbol
_atom_site_label
_atom_site_fract_x
_atom_site_fract_y
_atom_site_fract_z
Si Si1 0.264135 0.058979 0.930197
Si Si2 0.323453 0.866813 0.567660
Si Si3 0.876339 0.998593 0.132726
Si Si4 0.493159 0.621683 0.765962
Si Si5 0.240253 0.723980 0.432421
Si Si6 0.110744 0.828643 0.432039
Si Si7 0.042839 0.194741 0.620129
Si Si8 0.987253 0.583317 0.068737
O O1 0.247403 0.142150 0.904503
O O2 0.199327 0.004319 0.905523
O O3 0.348863 0.039744 0.908126
O O4 0.259739 0.050918 0.000000
O O5 0.304921 0.886932 0.500000
O O6 0.312225 0.777556 0.577420
O O7 0.270267 0.911355 0.611483
O O8 0.405388 0.889752 0.585719
O O9 0.848433 0.003728 0.199797
O O10 0.925582 0.072517 0.119265
O O11 0.422473 0.569088 0.777293
O O12 0.485245 0.689046 0.812603
O O13 0.225102 0.707793 0.500000
O O14 0.167008 0.765443 0.406729
O O15 0.128628 0.842763 0.500000
O O16 0.123819 0.906306 0.397739
O O17 0.027109 0.801323 0.423376
O O18 0.000000 0.500000 0.096821
O O19 0.999511 0.575730 0.000000
#
# Coordination Sequence:
#
# PCOD8314518 Si02
#       8
#    16  16  16  16  16  16  16  16
#     4  10  20  33  56  82 103 135 173 216 270 324
#     4   9  18  31  46  70 106 139 166 211 264 306
#     4   9  20  36  55  79 108 137 167 214 272 331
#     4   9  17  33  50  70  99 136 180 211 249 306
#     4   8  17  31  45  68 104 136 163 200 255 315
#     4  10  19  28  41  71 108 137 168 207 256 300
#     4  11  18  28  47  70  98 139 176 207 245 302
#     4   9  19  33  50  76 105 138 178 209 249 317
#
# _framework density 17.533186000000001
#
# number of rings (size 3 to 8) (size 9 to 14) (size 15 to 20)
#    0.000    2.625    1.250    2.625    3.500    0.750 
#    0.000    1.250    0.000    1.500    0.000    0.875 
#    0.000    0.000    0.000    0.000    0.000    0.000 
#
# Total GULP energy -1586157.472154 kJ/mol
# GULP energy per Si atom -12391.855251 kJ/mol
# Density = 1.749328 g / cm^3
# Si number density = 17.533186 Si / 1000 Ang^3
#
#
#
# Elastic Constant Matrix: (Units=GPa)
#
#
# Indices 1 2 3 4 5 6 
#
# 1 107.6636 45.2881 29.5608 0.0000 0.0000 0.0000
# 2 45.2881 107.6636 29.5608 0.0000 0.0000 0.0000
# 3 29.5608 29.5608 51.1158 0.0000 0.0000 0.0000
# 4 0.0000 0.0000 0.0000 15.9625 0.0000 0.0000
# 5 0.0000 0.0000 0.0000 0.0000 15.9625 0.0000
# 6 0.0000 0.0000 0.0000 0.0000 0.0000 20.5755
#
#
#
# Elastic Compliance Matrix: (Units=1/GPa)
#
#
# Indices 1 2 3 4 5 6 
#
# 1 0.012226 -0.003806 -0.004870 0.000000 0.000000 0.000000
# 2 -0.003806 0.012226 -0.004870 0.000000 0.000000 0.000000
# 3 -0.004870 -0.004870 0.025196 0.000000 0.000000 0.000000
# 4 0.000000 0.000000 0.000000 0.062647 0.000000 0.000000
# 5 0.000000 0.000000 0.000000 0.000000 0.062647 0.000000
# 6 0.000000 0.000000 0.000000 0.000000 0.000000 0.048602
#
#
# Mechanical properties :
#
#
# Convention : Reuss Voigt Hill
#
# Bulk Modulus (GPa) = 44.33008 52.80691 48.56849
# Shear Modulus (GPa) = 19.36844 21.30233 20.33538
#
# Velocity S-wave (km/s) = 3.32727 3.48943 3.40931
# Velocity P-wave (km/s) = 6.33241 6.81311 6.57715
#
# Compressibility (1/GPa) = 0.02255805
#
# Stress axis : x y z
#
# Youngs Moduli (GPa) = 81.79223 81.79223 39.68947
#
# Poissons Ratio (x) = 0.31129 0.19327
# Poissons Ratio (y) = 0.31129 0.19327
# Poissons Ratio (z) = 0.39829 0.39829
#
# Static dielectric constant tensor:
#      x y z
#    x 3.306190 0.000000 0.000000 
#    y 0.000000 3.306190 0.000000 
#    z 0.000000 0.000000 2.860830 
# 
# 
# High freq. dielectric constant tensor:
#      x y z
#    x 1.677810 0.000000 0.000000 
#    y 0.000000 1.677810 0.000000 
#    z 0.000000 0.000000 1.629030 
# 
# From -- ./inp_files/6614.got.cif
#   From: 2010.03.12/outbox.cif.g09.slc.cpg/sg128_4_cif.got.tgz:6614.got - 2010.04.06 17:11:05.
