data_PCOD8314531
_publ_section_title
;
Structure prediction by ZEFSAII (Michael W. Deem and Ramdas Pophale) SiO2 
 PCOD8314531
Probable space group: P 4/M N C
;
_chemical_formula_sum "Si O2"
_cell_formula_units_Z 72
_cell_length_a 20.940999
_cell_length_b 20.940999
_cell_length_c 10.285257
_cell_angle_alpha 90.000000
_cell_angle_beta 90.000000
_cell_angle_gamma 90.000000
_cell_volume 4510.346842
_symmetry_space_group_name_H-M "P 4/M N C"
_symmetry_group_IT_number 128
_symmetry_cell_setting 'tetragonal'
loop_
_space_group_symop_operation_xyz
x,y,z
-y,x,z
-x,-y,z
y,-x,z
1/2+x,1/2-y,1/2-z
1/2-x,1/2+y,1/2-z
1/2+y,1/2+x,1/2-z
1/2-y,1/2-x,1/2-z
-x,-y,-z
y,-x,-z
x,y,-z
-y,x,-z
1/2-x,1/2+y,1/2+z
1/2+x,1/2-y,1/2+z
1/2-y,1/2-x,1/2+z
1/2+y,1/2+x,1/2+z
loop_
_atom_site_type_symbol
_atom_site_label
_atom_site_fract_x
_atom_site_fract_y
_atom_site_fract_z
Si Si1 0.913609 0.936829 0.000000
Si Si2 0.671136 0.557087 0.855599
Si Si3 0.078748 0.846032 0.259559
Si Si4 0.238735 0.666493 0.851873
Si Si5 0.725622 0.156443 0.645190
O O1 0.874715 0.905652 0.118659
O O2 0.986289 0.912194 0.000000
O O3 0.610071 0.604240 0.860635
O O4 0.657019 0.497365 0.765290
O O5 0.734038 0.595023 0.806950
O O6 0.683020 0.531168 0.000000
O O7 0.106987 0.776104 0.287689
O O8 0.181166 0.681166 0.750000
O O9 0.283300 0.727971 0.861544
O O10 0.214762 0.650029 0.000000
O O11 0.669402 0.169402 0.750000
O O12 0.696911 0.145179 0.500000
#
# Coordination Sequence:
#
# PCOD8314531 Si02
#       5
#     8  16  16  16  16
#     4  11  22  36  44  62  96 134 168 201 239 276
#     4  10  19  31  47  65  88 121 156 197 229 273
#     4  11  20  33  46  65  93 123 163 195 234 282
#     4   9  18  31  48  68  88 117 152 194 239 286
#     4   8  15  29  44  63  85 110 147 186 231 274
#
# _framework density 15.963295
#
# number of rings (size 3 to 8) (size 9 to 14) (size 15 to 20)
#    0.000    2.333    2.222    3.333    1.556    0.444 
#    8.000    1.111    0.000    0.000    0.000    0.000 
#    0.000    0.889    0.000    7.111    0.000    0.444 
#
# Total GULP energy -892232.348814 kJ/mol
# GULP energy per Si atom -12392.115956 kJ/mol
# Density = 1.592696 g / cm^3
# Si number density = 15.963295 Si / 1000 Ang^3
#
#
#
# Elastic Constant Matrix: (Units=GPa)
#
#
# Indices 1 2 3 4 5 6 
#
# 1 45.9791 45.1124 27.5005 0.0000 0.0000 0.0000
# 2 45.1124 45.9791 27.5005 0.0000 0.0000 0.0000
# 3 27.5005 27.5005 90.9805 0.0000 0.0000 0.0000
# 4 0.0000 0.0000 0.0000 21.2517 0.0000 0.0000
# 5 0.0000 0.0000 0.0000 0.0000 21.2517 0.0000
# 6 0.0000 0.0000 0.0000 0.0000 0.0000 20.8388
#
#
#
# Elastic Compliance Matrix: (Units=1/GPa)
#
#
# Indices 1 2 3 4 5 6 
#
# 1 0.583586 -0.570157 -0.004059 0.000000 0.000000 0.000000
# 2 -0.570157 0.583586 -0.004059 0.000000 0.000000 0.000000
# 3 -0.004059 -0.004059 0.013445 0.000000 0.000000 0.000000
# 4 0.000000 0.000000 0.000000 0.047055 0.000000 0.000000
# 5 0.000000 0.000000 0.000000 0.000000 0.047055 0.000000
# 6 0.000000 0.000000 0.000000 0.000000 0.000000 0.047987
#
#
# Mechanical properties :
#
#
# Convention : Reuss Voigt Hill
#
# Bulk Modulus (GPa) = 41.55154 42.57397 42.06276
# Shear Modulus (GPa) = 2.01022 18.19013 10.10018
#
# Velocity S-wave (km/s) = 1.12339 3.37931 2.51811
# Velocity P-wave (km/s) = 5.26959 6.47720 5.90435
#
# Compressibility (1/GPa) = 0.02406650
#
# Stress axis : x y z
#
# Youngs Moduli (GPa) = 1.71354 1.71354 74.37565
#
# Poissons Ratio (x) = 0.97699 0.30190
# Poissons Ratio (y) = 0.97699 0.30190
# Poissons Ratio (z) = 0.00696 0.00696
#
# Static dielectric constant tensor:
#      x y z
#    x 2.787130 0.000000 0.000000 
#    y 0.000000 2.787130 0.000000 
#    z 0.000000 0.000000 3.315090 
# 
# 
# High freq. dielectric constant tensor:
#      x y z
#    x 1.577000 0.000000 0.000000 
#    y 0.000000 1.577000 0.000000 
#    z 0.000000 0.000000 1.629100 
# 
# From -- ./inp_files/1195.got.cif
#   From: 2010.03.12/outbox.cif.g09.slc.cpg/sg128_1_cif.got.tgz:1195.got - 2010.04.06 17:11:05.
