data_PCOD8314049
_publ_section_title
;
Structure prediction by ZEFSAII (Michael W. Deem and Ramdas Pophale) SiO2 
 PCOD8314049
Probable space group: P 4/M B M
;
_chemical_formula_sum "Si O2"
_cell_formula_units_Z 96
_cell_length_a 28.506336
_cell_length_b 28.506336
_cell_length_c 9.465120
_cell_angle_alpha 90.000000
_cell_angle_beta 90.000000
_cell_angle_gamma 90.000000
_cell_volume 7691.462447
_symmetry_space_group_name_H-M "P 4/M B M"
_symmetry_group_IT_number 127
_symmetry_cell_setting 'tetragonal'
loop_
_space_group_symop_operation_xyz
x,y,z
-y,x,z
-x,-y,z
y,-x,z
1/2+x,1/2-y,-z
1/2-x,1/2+y,-z
1/2+y,1/2+x,-z
1/2-y,1/2-x,-z
-x,-y,-z
y,-x,-z
x,y,-z
-y,x,-z
1/2-x,1/2+y,z
1/2+x,1/2-y,z
1/2-y,1/2-x,z
1/2+y,1/2+x,z
loop_
_atom_site_type_symbol
_atom_site_label
_atom_site_fract_x
_atom_site_fract_y
_atom_site_fract_z
Si Si1 0.871082 0.449545 0.836998
Si Si2 0.386617 0.192395 0.340199
Si Si3 0.381052 0.958716 0.663975
Si Si4 0.252565 0.326311 0.842336
Si Si5 0.246920 0.174226 0.159202
Si Si6 0.885193 0.693631 0.656019
O O1 0.913945 0.413945 0.825374
O O2 0.826215 0.430274 0.751376
O O3 0.887830 0.497505 0.766188
O O4 0.856781 0.457529 0.000000
O O5 0.402980 0.203953 0.500000
O O6 0.346206 0.153795 0.342708
O O7 0.367612 0.239997 0.266488
O O8 0.377935 0.974361 0.500000
O O9 0.425761 0.925761 0.686687
O O10 0.333421 0.931561 0.710087
O O11 0.210641 0.289360 0.839840
O O12 0.299973 0.300684 0.786967
O O13 0.238615 0.371857 0.750931
O O14 0.261176 0.344629 0.000000
O O15 0.288681 0.211320 0.155642
O O16 0.240013 0.154426 0.000000
O O17 0.894340 0.713462 0.500000
O O18 0.842963 0.657038 0.652653
#
# Coordination Sequence:
#
# PCOD8314049 Si02
#       6
#    16  16  16  16  16  16
#     4  10  20  31  41  52  65  81 103 135 175 215
#     4   9  16  25  37  51  65  82 104 128 156 193
#     4   9  18  31  43  53  65  82 105 135 173 213
#     4   8  13  20  31  48  68  88 106 122 144 178
#     4   8  13  21  32  47  68  89 105 122 146 178
#     4   8  14  24  36  49  65  83 102 126 156 190
#
# _framework density 12.481370999999999
#
# number of rings (size 3 to 8) (size 9 to 14) (size 15 to 20)
#    0.000    3.333    0.000    3.000    0.000    5.000 
#    0.000    6.667    0.000    0.000    0.000    0.000 
#    0.000    0.000    0.000    0.000    0.000    0.000 
#
# Total GULP energy -1189603.697597 kJ/mol
# GULP energy per Si atom -12391.705183 kJ/mol
# Density = 1.245296 g / cm^3
# Si number density = 12.481371 Si / 1000 Ang^3
#
#
#
# Elastic Constant Matrix: (Units=GPa)
#
#
# Indices 1 2 3 4 5 6 
#
# 1 30.2957 29.8862 34.9431 0.0000 0.0000 0.0000
# 2 29.8862 30.2957 34.9431 0.0000 0.0000 0.0000
# 3 34.9431 34.9431 88.4225 0.0000 0.0000 0.0000
# 4 0.0000 0.0000 0.0000 19.8933 0.0000 0.0000
# 5 0.0000 0.0000 0.0000 0.0000 19.8933 0.0000
# 6 0.0000 0.0000 0.0000 0.0000 0.0000 9.8593
#
#
#
# Elastic Compliance Matrix: (Units=1/GPa)
#
#
# Indices 1 2 3 4 5 6 
#
# 1 1.236395 -1.205686 -0.012136 0.000000 0.000000 0.000000
# 2 -1.205686 1.236395 -0.012136 0.000000 0.000000 0.000000
# 3 -0.012136 -0.012136 0.020901 0.000000 0.000000 0.000000
# 4 0.000000 0.000000 0.000000 0.050268 0.000000 0.000000
# 5 0.000000 0.000000 0.000000 0.000000 0.050268 0.000000
# 6 0.000000 0.000000 0.000000 0.000000 0.000000 0.101427
#
#
# Mechanical properties :
#
#
# Convention : Reuss Voigt Hill
#
# Bulk Modulus (GPa) = 29.60684 38.72876 34.16780
# Shear Modulus (GPa) = 0.96771 13.21198 7.08985
#
# Velocity S-wave (km/s) = 0.88148 3.25704 2.38593
# Velocity P-wave (km/s) = 4.98080 6.72615 5.91817
#
# Compressibility (1/GPa) = 0.03377598
#
# Stress axis : x y z
#
# Youngs Moduli (GPa) = 0.80880 0.80880 47.84500
#
# Poissons Ratio (x) = 0.97516 0.58062
# Poissons Ratio (y) = 0.97516 0.58062
# Poissons Ratio (z) = 0.00982 0.00982
#
# Static dielectric constant tensor:
#      x y z
#    x 2.384880 0.000000 0.000000 
#    y 0.000000 2.384880 0.000000 
#    z 0.000000 0.000000 2.791400 
# 
# 
# High freq. dielectric constant tensor:
#      x y z
#    x 1.435600 0.000000 0.000000 
#    y 0.000000 1.435600 0.000000 
#    z 0.000000 0.000000 1.485620 
# 
# From -- ./inp_files/2203.got.cif
#   From: 2010.03.12/outbox.cif.g09.slc.cpg/sg127_2_cif.got.tgz:2203.got - 2010.04.06 17:03:15.
