data_PCOD8314859
_publ_section_title
;
Structure prediction by ZEFSAII (Michael W. Deem and Ramdas Pophale) SiO2 
 PCOD8314859
Probable space group: P 4/N M M
;
_chemical_formula_sum "Si O2"
_cell_formula_units_Z 112
_cell_length_a 21.980206
_cell_length_b 21.980206
_cell_length_c 16.582713
_cell_angle_alpha 90.000000
_cell_angle_beta 90.000000
_cell_angle_gamma 90.000000
_cell_volume 8011.597107
_symmetry_space_group_name_H-M "P 4/N M M"
_symmetry_group_IT_number 129
_symmetry_cell_setting 'tetragonal'
loop_
_space_group_symop_operation_xyz
x,y,z
1/2-y,x,z
1/2-x,1/2-y,z
y,1/2-x,z
1/2+x,-y,-z
-x,1/2+y,-z
1/2+y,1/2+x,-z
-y,-x,-z
-x,-y,-z
1/2+y,-x,-z
1/2+x,1/2+y,-z
-y,1/2+x,-z
1/2-x,y,z
x,1/2-y,z
1/2-y,1/2-x,z
y,x,z
loop_
_atom_site_type_symbol
_atom_site_label
_atom_site_fract_x
_atom_site_fract_y
_atom_site_fract_z
Si Si1 0.681622 0.914766 0.036460
Si Si2 0.250000 0.820087 0.149974
Si Si3 0.447615 0.820874 0.273480
Si Si4 0.321545 0.632682 0.579194
Si Si5 0.180841 0.955869 0.027012
Si Si6 0.638708 0.119928 0.119041
Si Si7 0.918586 0.679997 0.224010
Si Si8 0.321881 0.750000 0.674992
O O1 0.750000 0.891780 0.023677
O O2 0.638654 0.861347 0.005575
O O3 0.670478 0.930650 0.129755
O O4 0.667280 0.973148 0.982649
O O5 0.250000 0.750000 0.167904
O O6 0.187887 0.835385 0.103732
O O7 0.250000 0.853289 0.237152
O O8 0.437193 0.750000 0.252629
O O9 0.426420 0.834786 0.365224
O O10 0.405897 0.858055 0.209798
O O11 0.518621 0.838414 0.268437
O O12 0.364734 0.635267 0.500000
O O13 0.250000 0.636559 0.555129
O O14 0.343589 0.690235 0.629757
O O15 0.250000 0.945432 0.058532
O O16 0.129866 0.931215 0.089853
O O17 0.174963 0.925109 0.939146
O O18 0.900542 0.750000 0.243482
O O19 0.864064 0.635937 0.254319
O O20 0.250000 0.750000 0.681600
#
# Coordination Sequence:
#
# PCOD8314859 Si02
#       8
#    16   8  16  16  16  16  16   8
#     4   9  17  30  48  64  82 103 128 166 213 260
#     4  11  18  26  36  52  75 105 152 190 218 233
#     4  10  18  29  43  58  83 114 141 173 215 253
#     4  10  17  24  37  57  82 110 141 176 209 239
#     4  10  19  30  38  53  80 109 139 175 210 239
#     4  11  19  27  38  53  75 112 149 176 205 238
#     4   9  17  30  48  66  83 104 130 163 208 259
#     4   9  16  22  34  52  75 105 135 180 218 233
#
# _framework density 13.979734000000001
#
# number of rings (size 3 to 8) (size 9 to 14) (size 15 to 20)
#    0.000    2.143    4.286    1.286    0.000    0.286 
#    0.000    3.571    0.000    0.429    0.000    0.000 
#    0.000    0.000    0.000    0.000    0.000    0.286 
#
# Total GULP energy -1388047.913278 kJ/mol
# GULP energy per Si atom -12393.284940 kJ/mol
# Density = 1.394792 g / cm^3
# Si number density = 13.979734 Si / 1000 Ang^3
#
#
#
# Elastic Constant Matrix: (Units=GPa)
#
#
# Indices 1 2 3 4 5 6 
#
# 1 71.4476 47.0825 26.1592 0.0000 0.0000 0.0000
# 2 47.0825 71.4477 26.1593 0.0000 0.0000 0.0000
# 3 26.1592 26.1593 56.7849 0.0000 0.0000 0.0000
# 4 0.0000 0.0000 0.0000 12.9140 0.0000 0.0000
# 5 0.0000 0.0000 0.0000 0.0000 12.9139 0.0000
# 6 0.0000 0.0000 0.0000 0.0000 0.0000 19.3140
#
#
#
# Elastic Compliance Matrix: (Units=1/GPa)
#
#
# Indices 1 2 3 4 5 6 
#
# 1 0.025816 -0.015226 -0.004879 0.000000 0.000000 0.000000
# 2 -0.015226 0.025816 -0.004879 0.000000 0.000000 0.000000
# 3 -0.004879 -0.004879 0.022105 0.000000 0.000000 0.000000
# 4 0.000000 0.000000 0.000000 0.077435 0.000000 0.000000
# 5 0.000000 0.000000 0.000000 0.000000 0.077436 0.000000
# 6 0.000000 0.000000 0.000000 0.000000 0.000000 0.051776
#
#
# Mechanical properties :
#
#
# Convention : Reuss Voigt Hill
#
# Bulk Modulus (GPa) = 42.06801 44.27582 43.17192
# Shear Modulus (GPa) = 14.78089 15.71365 15.24727
#
# Velocity S-wave (km/s) = 3.25516 3.35629 3.30611
# Velocity P-wave (km/s) = 6.65474 6.83811 6.74705
#
# Compressibility (1/GPa) = 0.02377103
#
# Stress axis : x y z
#
# Youngs Moduli (GPa) = 38.73547 38.73551 45.23838
#
# Poissons Ratio (x) = 0.58979 0.22070
# Poissons Ratio (y) = 0.58979 0.22070
# Poissons Ratio (z) = 0.18897 0.18897
#
# Static dielectric constant tensor:
#      x y z
#    x 2.658790 0.000000 0.000000 
#    y 0.000000 2.658790 0.000000 
#    z 0.000000 0.000000 2.674980 
# 
# 
# High freq. dielectric constant tensor:
#      x y z
#    x 1.516150 0.000000 0.000000 
#    y 0.000000 1.516150 0.000000 
#    z 0.000000 0.000000 1.508720 
# 
# From -- ./inp_files/6053.got.cif
#   From: 2010.03.12/outbox.cif.g09.slc.cpg/sg129_4_cif.got.tgz:6053.got - 2010.04.06 17:19:44.
