data_PCOD8314936
_publ_section_title
;
Structure prediction by ZEFSAII (Michael W. Deem and Ramdas Pophale) SiO2 
 PCOD8314936
Probable space group: P 4/N M M
;
_chemical_formula_sum "Si O2"
_cell_formula_units_Z 96
_cell_length_a 25.261117
_cell_length_b 25.261117
_cell_length_c 9.968510
_cell_angle_alpha 90.000000
_cell_angle_beta 90.000000
_cell_angle_gamma 90.000000
_cell_volume 6361.145795
_symmetry_space_group_name_H-M "P 4/N M M"
_symmetry_group_IT_number 129
_symmetry_cell_setting 'tetragonal'
loop_
_space_group_symop_operation_xyz
x,y,z
1/2-y,x,z
1/2-x,1/2-y,z
y,1/2-x,z
1/2+x,-y,-z
-x,1/2+y,-z
1/2+y,1/2+x,-z
-y,-x,-z
-x,-y,-z
1/2+y,-x,-z
1/2+x,1/2+y,-z
-y,1/2+x,-z
1/2-x,y,z
x,1/2-y,z
1/2-y,1/2-x,z
y,x,z
loop_
_atom_site_type_symbol
_atom_site_label
_atom_site_fract_x
_atom_site_fract_y
_atom_site_fract_z
Si Si1 0.193147 0.390116 0.792631
Si Si2 0.105275 0.189029 0.493650
Si Si3 0.052914 0.534758 0.353727
Si Si4 0.367195 0.454261 0.266294
Si Si5 0.018959 0.190737 0.005281
Si Si6 0.078450 0.507294 0.904600
O O1 0.250000 0.361505 0.779104
O O2 0.151865 0.348136 0.846169
O O3 0.178615 0.413683 0.646400
O O4 0.196373 0.434928 0.900494
O O5 0.110117 0.250000 0.454540
O O6 0.162852 0.162852 0.470551
O O7 0.061628 0.161144 0.403112
O O8 0.061875 0.561875 0.500000
O O9 0.107517 0.512073 0.292689
O O10 0.027845 0.576334 0.248748
O O11 0.015391 0.484610 0.373468
O O12 0.411562 0.411562 0.221225
O O13 0.322673 0.458780 0.152081
O O14 0.990653 0.250000 0.010136
O O15 0.986344 0.139360 0.953316
O O16 0.052740 0.447261 0.911861
O O17 0.043880 0.543880 0.000000
#
# Coordination Sequence:
#
# PCOD8314936 Si02
#       6
#    16  16  16  16  16  16
#     4   9  18  30  43  60  82 114 156 198 239 276
#     4   9  18  30  43  59  81 113 153 197 239 277
#     4   9  18  29  45  71  93 115 149 191 238 283
#     4  10  18  30  46  65  90 119 153 192 235 282
#     4  11  21  31  45  66  93 124 154 185 229 279
#     4  10  18  31  50  70  94 122 155 193 231 275
#
# _framework density 15.091621999999999
#
# number of rings (size 3 to 8) (size 9 to 14) (size 15 to 20)
#    0.000    2.333    1.667    2.000    2.333    0.333 
#    0.000    1.667    0.000    0.000    0.000    2.333 
#    0.000    0.333    0.000    0.000    0.000    1.667 
#
# Total GULP energy -1189300.499222 kJ/mol
# GULP energy per Si atom -12388.546867 kJ/mol
# Density = 1.505727 g / cm^3
# Si number density = 15.091622 Si / 1000 Ang^3
#
#
#
# Elastic Constant Matrix: (Units=GPa)
#
#
# Indices 1 2 3 4 5 6 
#
# 1 89.9552 3.8501 25.8377 0.0000 0.0000 0.0000
# 2 3.8501 89.9552 25.8377 0.0000 0.0000 0.0000
# 3 25.8377 25.8377 92.5774 0.0000 0.0000 0.0000
# 4 0.0000 0.0000 0.0000 9.8516 0.0000 0.0000
# 5 0.0000 0.0000 0.0000 0.0000 9.8516 0.0000
# 6 0.0000 0.0000 0.0000 0.0000 0.0000 17.7926
#
#
#
# Elastic Compliance Matrix: (Units=1/GPa)
#
#
# Indices 1 2 3 4 5 6 
#
# 1 0.012105 0.000492 -0.003516 0.000000 0.000000 0.000000
# 2 0.000492 0.012105 -0.003516 0.000000 0.000000 0.000000
# 3 -0.003516 -0.003516 0.012764 0.000000 0.000000 0.000000
# 4 0.000000 0.000000 0.000000 0.101507 0.000000 0.000000
# 5 0.000000 0.000000 0.000000 0.000000 0.101507 0.000000
# 6 0.000000 0.000000 0.000000 0.000000 0.000000 0.056203
#
#
# Mechanical properties :
#
#
# Convention : Reuss Voigt Hill
#
# Bulk Modulus (GPa) = 41.84902 42.61542 42.23222
# Shear Modulus (GPa) = 15.76112 21.96330 18.86221
#
# Velocity S-wave (km/s) = 3.23517 3.81902 3.53915
# Velocity P-wave (km/s) = 6.46105 6.90982 6.68920
#
# Compressibility (1/GPa) = 0.02389542
#
# Stress axis : x y z
#
# Youngs Moduli (GPa) = 82.60760 82.60760 78.34394
#
# Poissons Ratio (x) = -0.04062 0.27544
# Poissons Ratio (y) = -0.04062 0.27544
# Poissons Ratio (z) = 0.29043 0.29043
#
# Static dielectric constant tensor:
#      x y z
#    x 2.543740 0.000000 0.000000 
#    y 0.000000 2.543740 0.000000 
#    z 0.000000 0.000000 3.190620 
# 
# 
# High freq. dielectric constant tensor:
#      x y z
#    x 1.546810 0.000000 0.000000 
#    y 0.000000 1.546810 0.000000 
#    z 0.000000 0.000000 1.603930 
# 
# From -- ./inp_files/2807.got.cif
#   From: 2010.03.12/outbox.cif.g09.slc.cpg/sg129_2_cif.got.tgz:2807.got - 2010.04.06 17:19:44.
