data_PCOD8314597
_publ_section_title
;
Structure prediction by ZEFSAII (Michael W. Deem and Ramdas Pophale) SiO2 
 PCOD8314597
Probable space group: P 4/M N C
;
_chemical_formula_sum "Si O2"
_cell_formula_units_Z 96
_cell_length_a 25.924047
_cell_length_b 25.924047
_cell_length_c 7.708604
_cell_angle_alpha 90.000000
_cell_angle_beta 90.000000
_cell_angle_gamma 90.000000
_cell_volume 5180.615211
_symmetry_space_group_name_H-M "P 4/M N C"
_symmetry_group_IT_number 128
_symmetry_cell_setting 'tetragonal'
loop_
_space_group_symop_operation_xyz
x,y,z
-y,x,z
-x,-y,z
y,-x,z
1/2+x,1/2-y,1/2-z
1/2-x,1/2+y,1/2-z
1/2+y,1/2+x,1/2-z
1/2-y,1/2-x,1/2-z
-x,-y,-z
y,-x,-z
x,y,-z
-y,x,-z
1/2-x,1/2+y,1/2+z
1/2+x,1/2-y,1/2+z
1/2-y,1/2-x,1/2+z
1/2+y,1/2+x,1/2+z
loop_
_atom_site_type_symbol
_atom_site_label
_atom_site_fract_x
_atom_site_fract_y
_atom_site_fract_z
Si Si1 0.816425 0.607199 0.202294
Si Si2 0.567651 0.288680 0.196224
Si Si3 0.396560 0.974702 0.703909
Si Si4 0.363218 0.435736 0.500000
Si Si5 0.156164 0.576156 0.797039
Si Si6 0.849499 0.944350 0.000000
Si Si7 0.947917 0.229237 0.698692
O O1 0.835447 0.664554 0.250000
O O2 0.758504 0.601593 0.270832
O O3 0.855732 0.565765 0.287265
O O4 0.814868 0.596586 0.000000
O O5 0.580492 0.335131 0.323215
O O6 0.509380 0.268636 0.204452
O O7 0.582248 0.305419 0.000000
O O8 0.454719 0.954719 0.750000
O O9 0.391112 0.977184 0.500000
O O10 0.381230 0.030981 0.781916
O O11 0.369140 0.497054 0.500000
O O12 0.415846 0.404186 0.500000
O O13 0.131566 0.631566 0.750000
O O14 0.215344 0.572815 0.729941
O O15 0.159464 0.568413 0.000000
O O16 0.815976 0.929505 0.170845
O O17 0.929123 0.217911 0.500000
#
# Coordination Sequence:
#
# PCOD8314597 Si02
#       7
#    16  16  16   8  16   8  16
#     4   9  16  26  44  71 100 136 179 231 281 319
#     4   9  17  33  55  79 110 144 184 226 264 313
#     4   9  17  30  42  63 100 139 180 231 291 330
#     4  10  22  37  60  92 116 141 174 207 254 333
#     4  10  20  32  48  71 101 140 195 244 281 323
#     4  10  22  39  62  92 116 140 173 206 265 328
#     4   9  18  36  57  78 109 144 184 231 267 309
#
# _framework density 18.530618
#
# number of rings (size 3 to 8) (size 9 to 14) (size 15 to 20)
#    0.000    2.667    1.667    0.000    2.333    1.833 
#    0.000    1.667    0.000    1.000    0.000    4.667 
#    0.000    0.000    0.000    0.000    0.000    0.000 
#
# Total GULP energy -1189543.661718 kJ/mol
# GULP energy per Si atom -12391.079810 kJ/mol
# Density = 1.848844 g / cm^3
# Si number density = 18.530618 Si / 1000 Ang^3
#
#
#
# Elastic Constant Matrix: (Units=GPa)
#
#
# Indices 1 2 3 4 5 6 
#
# 1 50.4364 91.9770 31.1226 0.0000 0.0000 0.0000
# 2 91.9770 50.4365 31.1563 0.0000 0.0000 0.0000
# 3 31.1226 31.1563 68.4262 0.0000 0.0000 0.0000
# 4 0.0000 0.0000 0.0000 20.0589 0.0000 0.0000
# 5 0.0000 0.0000 0.0000 0.0000 20.0596 0.0000
# 6 0.0000 0.0000 0.0000 0.0000 0.0000 29.2884
#
#
#
# Elastic Compliance Matrix: (Units=1/GPa)
#
#
# Indices 1 2 3 4 5 6 
#
# 1 -0.007650 0.016420 -0.003997 0.000000 0.000000 0.000000
# 2 0.016420 -0.007656 -0.003982 0.000000 0.000000 0.000000
# 3 -0.003997 -0.003982 0.018245 0.000000 0.000000 0.000000
# 4 0.000000 0.000000 0.000000 0.049853 0.000000 0.000000
# 5 0.000000 0.000000 0.000000 0.000000 0.049851 0.000000
# 6 0.000000 0.000000 0.000000 0.000000 0.000000 0.034143
#
#
# Mechanical properties :
#
#
# Convention : Reuss Voigt Hill
#
# Bulk Modulus (GPa) = 50.45295 53.09008 51.77152
# Shear Modulus (GPa) = 39.52202 14.88428 27.20315
#
# Velocity S-wave (km/s) = 4.62323 2.83720 3.83562
# Velocity P-wave (km/s) = 7.46893 6.28053 6.90036
#
# Compressibility (1/GPa) = 0.01982044
#
# Stress axis : x y z
#
# Youngs Moduli (GPa) = -130.71908 -130.60894 54.80864
#
# Poissons Ratio (x) = 2.14455 0.21906
# Poissons Ratio (y) = 2.14636 0.21825
# Poissons Ratio (z) = -0.52246 -0.52009
#
# Static dielectric constant tensor:
#      x y z
#    x 3.256400 0.000000 0.000000 
#    y 0.000000 3.256410 0.000000 
#    z 0.000000 0.000000 3.533020 
# 
# 
# High freq. dielectric constant tensor:
#      x y z
#    x 1.690950 0.000000 0.000000 
#    y 0.000000 1.690950 0.000000 
#    z 0.000000 0.000000 1.719220 
# 
# From -- ./inp_files/1551.got.cif
#   From: 2010.03.12/outbox.cif.g09.slc.cpg/sg128_1_cif.got.tgz:1551.got - 2010.04.06 17:11:05.
