data_PCOD8314493
_publ_section_title
;
Structure prediction by ZEFSAII (Michael W. Deem and Ramdas Pophale) SiO2 
 PCOD8314493
Probable space group: P 4/M N C
;
_chemical_formula_sum "Si O2"
_cell_formula_units_Z 56
_cell_length_a 14.000068
_cell_length_b 14.000068
_cell_length_c 13.409164
_cell_angle_alpha 90.000000
_cell_angle_beta 90.000000
_cell_angle_gamma 90.000000
_cell_volume 2628.221675
_symmetry_space_group_name_H-M "P 4/M N C"
_symmetry_group_IT_number 128
_symmetry_cell_setting 'tetragonal'
loop_
_space_group_symop_operation_xyz
x,y,z
-y,x,z
-x,-y,z
y,-x,z
1/2+x,1/2-y,1/2-z
1/2-x,1/2+y,1/2-z
1/2+y,1/2+x,1/2-z
1/2-y,1/2-x,1/2-z
-x,-y,-z
y,-x,-z
x,y,-z
-y,x,-z
1/2-x,1/2+y,1/2+z
1/2+x,1/2-y,1/2+z
1/2-y,1/2-x,1/2+z
1/2+y,1/2+x,1/2+z
loop_
_atom_site_type_symbol
_atom_site_label
_atom_site_fract_x
_atom_site_fract_y
_atom_site_fract_z
Si Si1 0.092041 0.592041 0.750000
Si Si2 0.042142 0.147654 0.211869
Si Si3 0.847405 0.567626 0.388565
Si Si4 0.766799 0.504698 0.886174
O O1 0.088135 0.503046 0.675668
O O2 0.187038 0.582742 0.820102
O O3 0.075861 0.240225 0.151812
O O4 0.038118 0.169672 0.331122
O O5 0.116044 0.065097 0.182769
O O6 0.843170 0.526991 0.500000
O O7 0.831730 0.599382 0.115887
O O8 0.747423 0.471029 0.000000
#
# Coordination Sequence:
#
# PCOD8314493 Si02
#       4
#     8  16  16  16
#     4  10  17  32  58  86 116 148 180 223 284 345
#     4  10  22  40  59  78 111 158 198 234 279 336
#     4  10  20  36  59  87 117 147 186 237 288 339
#     4  10  20  36  59  87 117 147 186 237 288 339
#
# _framework density 21.307182999999998
#
# number of rings (size 3 to 8) (size 9 to 14) (size 15 to 20)
#    0.000    2.000    0.000    6.000    0.000    4.571 
#   20.571    2.857    0.000    0.000    0.000    0.000 
#    0.000    0.000    0.000    0.000    0.000    0.000 
#
# Total GULP energy -693964.265069 kJ/mol
# GULP energy per Si atom -12392.219019 kJ/mol
# Density = 2.125869 g / cm^3
# Si number density = 21.307183 Si / 1000 Ang^3
#
#
#
# Elastic Constant Matrix: (Units=GPa)
#
#
# Indices 1 2 3 4 5 6 
#
# 1 60.3150 9.6555 14.7845 0.0000 0.0000 0.0000
# 2 9.6555 60.3150 14.7845 0.0000 0.0000 0.0000
# 3 14.7845 14.7845 140.3088 0.0000 0.0000 0.0000
# 4 0.0000 0.0000 0.0000 15.4700 0.0000 0.0000
# 5 0.0000 0.0000 0.0000 0.0000 15.4700 0.0000
# 6 0.0000 0.0000 0.0000 0.0000 0.0000 9.9166
#
#
#
# Elastic Compliance Matrix: (Units=1/GPa)
#
#
# Indices 1 2 3 4 5 6 
#
# 1 0.017349 -0.002391 -0.001576 0.000000 0.000000 0.000000
# 2 -0.002391 0.017349 -0.001576 0.000000 0.000000 0.000000
# 3 -0.001576 -0.001576 0.007459 0.000000 0.000000 0.000000
# 4 0.000000 0.000000 0.000000 0.064641 0.000000 0.000000
# 5 0.000000 0.000000 0.000000 0.000000 0.064641 0.000000
# 6 0.000000 0.000000 0.000000 0.000000 0.000000 0.100841
#
#
# Mechanical properties :
#
#
# Convention : Reuss Voigt Hill
#
# Bulk Modulus (GPa) = 32.18496 37.70976 34.94736
# Shear Modulus (GPa) = 17.02278 22.95225 19.98751
#
# Velocity S-wave (km/s) = 2.82959 3.28564 3.06611
# Velocity P-wave (km/s) = 5.08069 5.66838 5.38256
#
# Compressibility (1/GPa) = 0.03107042
#
# Stress axis : x y z
#
# Youngs Moduli (GPa) = 57.64114 57.64114 134.06098
#
# Poissons Ratio (x) = 0.13781 0.21130
# Poissons Ratio (y) = 0.13781 0.21130
# Poissons Ratio (z) = 0.09085 0.09085
#
# Static dielectric constant tensor:
#      x y z
#    x 3.669240 0.000000 0.000000 
#    y 0.000000 3.669240 0.000000 
#    z 0.000000 0.000000 4.322800 
# 
# 
# High freq. dielectric constant tensor:
#      x y z
#    x 1.819520 0.000000 0.000000 
#    y 0.000000 1.819520 0.000000 
#    z 0.000000 0.000000 1.849040 
# 
# From -- ./inp_files/2427.got.cif
#   From: 2010.03.12/outbox.cif.g09.slc.cpg/sg128_2_cif.got.tgz:2427.got - 2010.04.06 17:11:05.
