data_PCOD8314725
_publ_section_title
;
Structure prediction by ZEFSAII (Michael W. Deem and Ramdas Pophale) SiO2 
 PCOD8314725
Probable space group: P 4/M N C
;
_chemical_formula_sum "Si O2"
_cell_formula_units_Z 48
_cell_length_a 10.534200
_cell_length_b 10.534200
_cell_length_c 18.227635
_cell_angle_alpha 90.000000
_cell_angle_beta 90.000000
_cell_angle_gamma 90.000000
_cell_volume 2022.709166
_symmetry_space_group_name_H-M "P 4/M N C"
_symmetry_group_IT_number 128
_symmetry_cell_setting 'tetragonal'
loop_
_space_group_symop_operation_xyz
x,y,z
-y,x,z
-x,-y,z
y,-x,z
1/2+x,1/2-y,1/2-z
1/2-x,1/2+y,1/2-z
1/2+y,1/2+x,1/2-z
1/2-y,1/2-x,1/2-z
-x,-y,-z
y,-x,-z
x,y,-z
-y,x,-z
1/2-x,1/2+y,1/2+z
1/2+x,1/2-y,1/2+z
1/2-y,1/2-x,1/2+z
1/2+y,1/2+x,1/2+z
loop_
_atom_site_type_symbol
_atom_site_label
_atom_site_fract_x
_atom_site_fract_y
_atom_site_fract_z
Si Si1 0.633264 0.655775 0.773568
Si Si2 0.774954 0.239231 0.584940
Si Si3 0.862382 0.512928 0.585219
O O1 0.486165 0.678625 0.748313
O O2 0.731035 0.768965 0.750000
O O3 0.627702 0.663780 0.863068
O O4 0.802786 0.204392 0.500000
O O5 0.779534 0.389343 0.598991
O O6 0.635115 0.209018 0.616039
O O7 0.883886 0.539904 0.500000
O O8 0.000000 0.500000 0.623695
#
# Coordination Sequence:
#
# PCOD8314725 Si02
#       3
#    16  16  16
#     4  11  27  48  71 102 137 180 233 281 338 414
#     4  10  21  39  67 100 134 173 221 280 339 396
#     4   9  18  33  57  93 131 166 210 265 330 400
#
# _framework density 23.730550999999998
#
# number of rings (size 3 to 8) (size 9 to 14) (size 15 to 20)
#    0.000    2.000    0.000    2.000    4.667    5.333 
#    0.000    5.000    0.000    0.000    0.000    0.000 
#    0.000    0.000    0.000    0.000    0.000    0.000 
#
# Total GULP energy -594641.652041 kJ/mol
# GULP energy per Si atom -12388.367751 kJ/mol
# Density = 2.367654 g / cm^3
# Si number density = 23.730551 Si / 1000 Ang^3
#
#
#
# Elastic Constant Matrix: (Units=GPa)
#
#
# Indices 1 2 3 4 5 6 
#
# 1 112.7304 53.9854 26.5283 0.0000 0.0000 0.0000
# 2 53.9854 112.7304 26.5283 0.0000 0.0000 0.0000
# 3 26.5283 26.5283 50.8988 0.0000 0.0000 0.0000
# 4 0.0000 0.0000 0.0000 16.1079 0.0000 0.0000
# 5 0.0000 0.0000 0.0000 0.0000 16.1079 0.0000
# 6 0.0000 0.0000 0.0000 0.0000 0.0000 44.5965
#
#
#
# Elastic Compliance Matrix: (Units=1/GPa)
#
#
# Indices 1 2 3 4 5 6 
#
# 1 0.012107 -0.004916 -0.003748 0.000000 0.000000 0.000000
# 2 -0.004916 0.012107 -0.003748 0.000000 0.000000 0.000000
# 3 -0.003748 -0.003748 0.023554 0.000000 0.000000 0.000000
# 4 0.000000 0.000000 0.000000 0.062081 0.000000 0.000000
# 5 0.000000 0.000000 0.000000 0.000000 0.062081 0.000000
# 6 0.000000 0.000000 0.000000 0.000000 0.000000 0.022423
#
#
# Mechanical properties :
#
#
# Convention : Reuss Voigt Hill
#
# Bulk Modulus (GPa) = 43.58452 54.49374 49.03913
# Shear Modulus (GPa) = 22.04343 26.65030 24.34686
#
# Velocity S-wave (km/s) = 3.05110 3.35481 3.20655
# Velocity P-wave (km/s) = 5.55145 6.16601 5.86678
#
# Compressibility (1/GPa) = 0.02294392
#
# Stress axis : x y z
#
# Youngs Moduli (GPa) = 82.59782 82.59782 42.45630
#
# Poissons Ratio (x) = 0.40604 0.15912
# Poissons Ratio (y) = 0.40604 0.15912
# Poissons Ratio (z) = 0.30957 0.30957
#
# Static dielectric constant tensor:
#      x y z
#    x 4.336420 0.000000 0.000000 
#    y 0.000000 4.336420 0.000000 
#    z 0.000000 0.000000 4.373330 
# 
# 
# High freq. dielectric constant tensor:
#      x y z
#    x 1.941160 0.000000 0.000000 
#    y 0.000000 1.941160 0.000000 
#    z 0.000000 0.000000 1.933440 
# 
# From -- ./inp_files/4319.got.cif
#   From: 2010.03.12/outbox.cif.g09.slc.cpg/sg128_3_cif.got.tgz:4319.got - 2010.04.06 17:11:05.
