data_PCOD8314926
_publ_section_title
;
Structure prediction by ZEFSAII (Michael W. Deem and Ramdas Pophale) SiO2 
 PCOD8314926
Probable space group: P 4/N M M
;
_chemical_formula_sum "Si O2"
_cell_formula_units_Z 72
_cell_length_a 17.752053
_cell_length_b 17.752053
_cell_length_c 13.397964
_cell_angle_alpha 90.000000
_cell_angle_beta 90.000000
_cell_angle_gamma 90.000000
_cell_volume 4222.172553
_symmetry_space_group_name_H-M "P 4/N M M"
_symmetry_group_IT_number 129
_symmetry_cell_setting 'tetragonal'
loop_
_space_group_symop_operation_xyz
x,y,z
1/2-y,x,z
1/2-x,1/2-y,z
y,1/2-x,z
1/2+x,-y,-z
-x,1/2+y,-z
1/2+y,1/2+x,-z
-y,-x,-z
-x,-y,-z
1/2+y,-x,-z
1/2+x,1/2+y,-z
-y,1/2+x,-z
1/2-x,y,z
x,1/2-y,z
1/2-y,1/2-x,z
y,x,z
loop_
_atom_site_type_symbol
_atom_site_label
_atom_site_fract_x
_atom_site_fract_y
_atom_site_fract_z
Si Si1 0.337900 0.044015 0.387683
Si Si2 0.481399 0.666147 0.395844
Si Si3 0.331836 0.831836 0.500000
Si Si4 0.835741 0.335674 0.882154
Si Si5 0.054867 0.936594 0.754776
O O1 0.250000 0.048829 0.364460
O O2 0.374500 0.125501 0.367044
O O3 0.355538 0.022811 0.502050
O O4 0.374605 0.981433 0.317710
O O5 0.505986 0.750000 0.362133
O O6 0.391445 0.660906 0.411736
O O7 0.495761 0.606821 0.307857
O O8 0.341150 0.750000 0.552188
O O9 0.750000 0.354357 0.849265
O O10 0.856295 0.250000 0.848861
O O11 0.894312 0.395389 0.836810
O O12 0.843005 0.343005 0.000000
O O13 0.988713 0.988713 0.803527
#
# Coordination Sequence:
#
# PCOD8314926 Si02
#       5
#    16  16   8  16  16
#     4  10  20  32  45  62  87 121 159 196 230 266
#     4  10  18  29  44  64  95 128 159 190 223 266
#     4   9  16  24  37  60  90 122 155 191 224 260
#     4   9  19  36  55  73  94 121 154 191 232 284
#     4  11  20  30  47  71  99 125 152 187 233 285
#
# _framework density 17.052831000000001
#
# number of rings (size 3 to 8) (size 9 to 14) (size 15 to 20)
#    0.000    2.111    2.222    2.667    0.000    3.333 
#    0.000    2.222    0.000    0.000    0.000    0.000 
#    0.000    4.000    0.000   16.444    0.000    0.444 
#
# Total GULP energy -892252.543046 kJ/mol
# GULP energy per Si atom -12392.396431 kJ/mol
# Density = 1.701402 g / cm^3
# Si number density = 17.052831 Si / 1000 Ang^3
#
#
#
# Elastic Constant Matrix: (Units=GPa)
#
#
# Indices 1 2 3 4 5 6 
#
# 1 86.2753 66.5961 32.5588 0.0000 0.0000 0.0000
# 2 66.5961 86.2753 32.5588 0.0000 0.0000 0.0000
# 3 32.5588 32.5588 45.7597 0.0000 0.0000 0.0000
# 4 0.0000 0.0000 0.0000 20.3080 0.0000 0.0000
# 5 0.0000 0.0000 0.0000 0.0000 20.3080 0.0000
# 6 0.0000 0.0000 0.0000 0.0000 0.0000 28.9312
#
#
#
# Elastic Compliance Matrix: (Units=1/GPa)
#
#
# Indices 1 2 3 4 5 6 
#
# 1 0.030101 -0.020714 -0.006678 0.000000 0.000000 0.000000
# 2 -0.020714 0.030101 -0.006678 0.000000 0.000000 0.000000
# 3 -0.006678 -0.006678 0.031357 0.000000 0.000000 0.000000
# 4 0.000000 0.000000 0.000000 0.049242 0.000000 0.000000
# 5 0.000000 0.000000 0.000000 0.000000 0.049242 0.000000
# 6 0.000000 0.000000 0.000000 0.000000 0.000000 0.034565
#
#
# Mechanical properties :
#
#
# Convention : Reuss Voigt Hill
#
# Bulk Modulus (GPa) = 42.70661 53.52643 48.11652
# Shear Modulus (GPa) = 16.63593 19.68255 18.15924
#
# Velocity S-wave (km/s) = 3.12677 3.40105 3.26679
# Velocity P-wave (km/s) = 6.17525 6.84687 6.51971
#
# Compressibility (1/GPa) = 0.02341558
#
# Stress axis : x y z
#
# Youngs Moduli (GPa) = 33.22183 33.22183 31.89082
#
# Poissons Ratio (x) = 0.68817 0.21298
# Poissons Ratio (y) = 0.68817 0.21298
# Poissons Ratio (z) = 0.22187 0.22187
#
# Static dielectric constant tensor:
#      x y z
#    x 3.256520 0.000000 0.000000 
#    y 0.000000 3.256520 0.000000 
#    z 0.000000 0.000000 2.832510 
# 
# 
# High freq. dielectric constant tensor:
#      x y z
#    x 1.658500 0.000000 0.000000 
#    y 0.000000 1.658500 0.000000 
#    z 0.000000 0.000000 1.621360 
# 
# From -- ./inp_files/3555.got.cif
#   From: 2010.03.12/outbox.cif.g09.slc.cpg/sg129_2_cif.got.tgz:3555.got - 2010.04.06 17:19:44.
