data_PCOD8314976
_publ_section_title
;
Structure prediction by ZEFSAII (Michael W. Deem and Ramdas Pophale) SiO2 
 PCOD8314976
Probable space group: P 4/N M M
;
_chemical_formula_sum "Si O2"
_cell_formula_units_Z 88
_cell_length_a 18.040508
_cell_length_b 18.040508
_cell_length_c 15.939114
_cell_angle_alpha 90.000000
_cell_angle_beta 90.000000
_cell_angle_gamma 90.000000
_cell_volume 5187.542909
_symmetry_space_group_name_H-M "P 4/N M M"
_symmetry_group_IT_number 129
_symmetry_cell_setting 'tetragonal'
loop_
_space_group_symop_operation_xyz
x,y,z
1/2-y,x,z
1/2-x,1/2-y,z
y,1/2-x,z
1/2+x,-y,-z
-x,1/2+y,-z
1/2+y,1/2+x,-z
-y,-x,-z
-x,-y,-z
1/2+y,-x,-z
1/2+x,1/2+y,-z
-y,1/2+x,-z
1/2-x,y,z
x,1/2-y,z
1/2-y,1/2-x,z
y,x,z
loop_
_atom_site_type_symbol
_atom_site_label
_atom_site_fract_x
_atom_site_fract_y
_atom_site_fract_z
Si Si1 0.932342 0.336696 0.935491
Si Si2 0.538293 0.961708 0.077436
Si Si3 0.976259 0.976259 0.750011
Si Si4 0.043009 0.664111 0.496572
Si Si5 0.460211 0.460211 0.577988
Si Si6 0.025260 0.668781 0.685603
Si Si7 0.668529 0.167358 0.223682
O O1 0.941156 0.250000 0.959739
O O2 0.894127 0.347368 0.845891
O O3 0.014953 0.374595 0.929834
O O4 0.878954 0.378954 0.000000
O O5 0.507928 0.992073 0.164935
O O6 0.500000 0.000000 0.000000
O O7 0.014286 0.014286 0.669484
O O8 0.888061 0.985201 0.747022
O O9 0.121902 0.621902 0.500000
O O10 0.054949 0.750000 0.471455
O O11 0.006361 0.656660 0.588565
O O12 0.983211 0.626449 0.432396
O O13 0.500000 0.500000 0.500000
O O14 0.999559 0.750000 0.715202
O O15 0.113670 0.657964 0.697935
O O16 0.750000 0.155565 0.261784
O O17 0.660942 0.250000 0.183555
#
# Coordination Sequence:
#
# PCOD8314976 Si02
#       7
#    16   8   8  16   8  16  16
#     4  10  19  32  51  74 104 138 175 219 269 320
#     4  10  22  36  50  79 106 136 180 227 267 308
#     4  12  18  36  56  69 103 142 178 225 261 323
#     4  10  19  32  49  74 107 136 173 220 263 321
#     4  10  18  34  52  73  95 139 184 210 254 321
#     4  10  19  30  48  73  99 135 174 213 265 316
#     4   9  17  28  42  67 102 134 168 205 250 317
#
# _framework density 16.963716000000002
#
# number of rings (size 3 to 8) (size 9 to 14) (size 15 to 20)
#    0.000    2.000    5.455    0.545    0.000    1.818 
#    0.000    2.727    0.000    0.818    0.000    2.545 
#    0.000    3.273    0.000    0.000    0.000    0.182 
#
# Total GULP energy -1090173.726406 kJ/mol
# GULP energy per Si atom -12388.337800 kJ/mol
# Density = 1.692511 g / cm^3
# Si number density = 16.963716 Si / 1000 Ang^3
#
#
#
# Elastic Constant Matrix: (Units=GPa)
#
#
# Indices 1 2 3 4 5 6 
#
# 1 98.8024 67.8696 22.4126 0.0000 0.0000 0.0000
# 2 67.8696 98.8024 22.4126 0.0000 0.0000 0.0000
# 3 22.4126 22.4126 71.6075 0.0000 0.0000 0.0000
# 4 0.0000 0.0000 0.0000 18.9113 0.0000 0.0000
# 5 0.0000 0.0000 0.0000 0.0000 18.9113 0.0000
# 6 0.0000 0.0000 0.0000 0.0000 0.0000 28.6944
#
#
#
# Elastic Compliance Matrix: (Units=1/GPa)
#
#
# Indices 1 2 3 4 5 6 
#
# 1 0.019440 -0.012888 -0.002050 0.000000 0.000000 0.000000
# 2 -0.012888 0.019440 -0.002050 0.000000 0.000000 0.000000
# 3 -0.002050 -0.002050 0.015249 0.000000 0.000000 0.000000
# 4 0.000000 0.000000 0.000000 0.052878 0.000000 0.000000
# 5 0.000000 0.000000 0.000000 0.000000 0.052878 0.000000
# 6 0.000000 0.000000 0.000000 0.000000 0.000000 0.034850
#
#
# Mechanical properties :
#
#
# Convention : Reuss Voigt Hill
#
# Bulk Modulus (GPa) = 49.62988 54.95575 52.29282
# Shear Modulus (GPa) = 21.23773 23.73791 22.48782
#
# Velocity S-wave (km/s) = 3.54213 3.74483 3.64489
# Velocity P-wave (km/s) = 6.78594 7.15295 6.97186
#
# Compressibility (1/GPa) = 0.02014915
#
# Stress axis : x y z
#
# Youngs Moduli (GPa) = 51.44106 51.44106 65.57985
#
# Poissons Ratio (x) = 0.66300 0.13447
# Poissons Ratio (y) = 0.66300 0.13447
# Poissons Ratio (z) = 0.10548 0.10548
#
# Static dielectric constant tensor:
#      x y z
#    x 3.410910 0.000000 0.000000 
#    y 0.000000 3.410910 0.000000 
#    z 0.000000 0.000000 3.097220 
# 
# 
# High freq. dielectric constant tensor:
#      x y z
#    x 1.640240 0.000000 0.000000 
#    y 0.000000 1.640240 0.000000 
#    z 0.000000 0.000000 1.651440 
# 
# From -- ./inp_files/4822.got.cif
#   From: 2010.03.12/outbox.cif.g09.slc.cpg/sg129_3_cif.got.tgz:4822.got - 2010.04.06 17:19:44.
