data_PCOD8314598
_publ_section_title
;
Structure prediction by ZEFSAII (Michael W. Deem and Ramdas Pophale) SiO2 
 PCOD8314598
Probable space group: P 4/M N C
;
_chemical_formula_sum "Si O2"
_cell_formula_units_Z 96
_cell_length_a 24.980216
_cell_length_b 24.980216
_cell_length_c 9.040730
_cell_angle_alpha 90.000000
_cell_angle_beta 90.000000
_cell_angle_gamma 90.000000
_cell_volume 5641.516698
_symmetry_space_group_name_H-M "P 4/M N C"
_symmetry_group_IT_number 128
_symmetry_cell_setting 'tetragonal'
loop_
_space_group_symop_operation_xyz
x,y,z
-y,x,z
-x,-y,z
y,-x,z
1/2+x,1/2-y,1/2-z
1/2-x,1/2+y,1/2-z
1/2+y,1/2+x,1/2-z
1/2-y,1/2-x,1/2-z
-x,-y,-z
y,-x,-z
x,y,-z
-y,x,-z
1/2-x,1/2+y,1/2+z
1/2+x,1/2-y,1/2+z
1/2-y,1/2-x,1/2+z
1/2+y,1/2+x,1/2+z
loop_
_atom_site_type_symbol
_atom_site_label
_atom_site_fract_x
_atom_site_fract_y
_atom_site_fract_z
Si Si1 0.612609 0.191561 0.828934
Si Si2 0.504340 0.303896 0.329391
Si Si3 0.185691 0.893781 0.326103
Si Si4 0.613273 0.686703 0.666354
Si Si5 0.109534 0.687126 0.171299
Si Si6 0.505310 0.806960 0.827939
O O1 0.657068 0.157068 0.750000
O O2 0.616793 0.253160 0.775921
O O3 0.553211 0.167012 0.797158
O O4 0.626032 0.189026 0.000000
O O5 0.514169 0.286523 0.500000
O O6 0.554790 0.337466 0.265503
O O7 0.447831 0.335301 0.318273
O O8 0.499920 0.253891 0.221232
O O9 0.181081 0.904936 0.500000
O O10 0.150742 0.842347 0.284150
O O11 0.634274 0.675912 0.500000
O O12 0.614598 0.749812 0.700406
O O13 0.159189 0.659189 0.250000
O O14 0.053225 0.664822 0.237342
O O15 0.110318 0.672609 0.000000
O O16 0.520041 0.809283 0.000000
#
# Coordination Sequence:
#
# PCOD8314598 Si02
#       6
#    16  16  16  16  16  16
#     4   9  19  32  47  70  97 126 159 194 235 282
#     4   9  17  31  50  70  93 124 163 201 238 284
#     4  10  20  32  48  72  99 128 161 197 240 285
#     4   9  19  33  49  71  97 127 161 195 237 287
#     4  10  20  33  50  73  99 130 164 198 242 290
#     4   9  17  31  49  70  95 123 161 203 239 282
#
# _framework density 17.0167
#
# number of rings (size 3 to 8) (size 9 to 14) (size 15 to 20)
#    0.000    2.667    0.000    4.000    0.000    8.667 
#    0.000    3.333    0.000    1.000    0.000    7.000 
#    0.000    0.000    0.000    0.000    0.000    0.000 
#
# Total GULP energy -1189765.937175 kJ/mol
# GULP energy per Si atom -12393.395179 kJ/mol
# Density = 1.697797 g / cm^3
# Si number density = 17.016700 Si / 1000 Ang^3
#
#
#
# Elastic Constant Matrix: (Units=GPa)
#
#
# Indices 1 2 3 4 5 6 
#
# 1 78.9014 47.7063 49.4932 0.0000 0.0000 0.0000
# 2 47.7063 78.9014 49.4932 0.0000 0.0000 0.0000
# 3 49.4932 49.4932 93.1059 0.0000 0.0000 0.0000
# 4 0.0000 0.0000 0.0000 31.1863 0.0000 0.0000
# 5 0.0000 0.0000 0.0000 0.0000 31.1863 0.0000
# 6 0.0000 0.0000 0.0000 0.0000 0.0000 1.8850
#
#
#
# Elastic Compliance Matrix: (Units=1/GPa)
#
#
# Indices 1 2 3 4 5 6 
#
# 1 0.022786 -0.009270 -0.007185 0.000000 0.000000 0.000000
# 2 -0.009270 0.022786 -0.007185 0.000000 0.000000 0.000000
# 3 -0.007185 -0.007185 0.018379 0.000000 0.000000 0.000000
# 4 0.000000 0.000000 0.000000 0.032065 0.000000 0.000000
# 5 0.000000 0.000000 0.000000 0.000000 0.032065 0.000000
# 6 0.000000 0.000000 0.000000 0.000000 0.000000 0.530507
#
#
# Mechanical properties :
#
#
# Convention : Reuss Voigt Hill
#
# Bulk Modulus (GPa) = 59.98230 60.47711 60.22970
# Shear Modulus (GPa) = 7.02815 19.79925 13.41370
#
# Velocity S-wave (km/s) = 2.03448 3.41474 2.81066
# Velocity P-wave (km/s) = 6.39096 7.15292 6.78265
#
# Compressibility (1/GPa) = 0.01667159
#
# Stress axis : x y z
#
# Youngs Moduli (GPa) = 43.88672 43.88672 54.41045
#
# Poissons Ratio (x) = 0.40685 0.39092
# Poissons Ratio (y) = 0.40685 0.39092
# Poissons Ratio (z) = 0.31531 0.31531
#
# Static dielectric constant tensor:
#      x y z
#    x 3.219920 0.000000 0.000000 
#    y 0.000000 3.219920 0.000000 
#    z 0.000000 0.000000 3.286820 
# 
# 
# High freq. dielectric constant tensor:
#      x y z
#    x 1.637270 0.000000 0.000000 
#    y 0.000000 1.637270 0.000000 
#    z 0.000000 0.000000 1.671480 
# 
# From -- ./inp_files/1465.got.cif
#   From: 2010.03.12/outbox.cif.g09.slc.cpg/sg128_1_cif.got.tgz:1465.got - 2010.04.06 17:11:05.
