data_PCOD8314966
_publ_section_title
;
Structure prediction by ZEFSAII (Michael W. Deem and Ramdas Pophale) SiO2 
 PCOD8314966
Probable space group: P 4/N M M
;
_chemical_formula_sum "Si O2"
_cell_formula_units_Z 128
_cell_length_a 17.639470
_cell_length_b 17.639470
_cell_length_c 26.997354
_cell_angle_alpha 90.000000
_cell_angle_beta 90.000000
_cell_angle_gamma 90.000000
_cell_volume 8400.251045
_symmetry_space_group_name_H-M "P 4/N M M"
_symmetry_group_IT_number 129
_symmetry_cell_setting 'tetragonal'
loop_
_space_group_symop_operation_xyz
x,y,z
1/2-y,x,z
1/2-x,1/2-y,z
y,1/2-x,z
1/2+x,-y,-z
-x,1/2+y,-z
1/2+y,1/2+x,-z
-y,-x,-z
-x,-y,-z
1/2+y,-x,-z
1/2+x,1/2+y,-z
-y,1/2+x,-z
1/2-x,y,z
x,1/2-y,z
1/2-y,1/2-x,z
y,x,z
loop_
_atom_site_type_symbol
_atom_site_label
_atom_site_fract_x
_atom_site_fract_y
_atom_site_fract_z
Si Si1 0.044873 0.335125 0.297201
Si Si2 0.956038 0.664365 0.300925
Si Si3 0.515319 0.390794 0.599864
Si Si4 0.339773 0.833329 0.051805
Si Si5 0.838604 0.340614 0.839556
Si Si6 0.336132 0.457870 0.500427
Si Si7 0.437677 0.938988 0.765179
Si Si8 0.466264 0.835074 0.601554
O O1 0.050749 0.250000 0.276867
O O2 0.124746 0.375255 0.286899
O O3 0.977776 0.376492 0.268430
O O4 0.029469 0.336660 0.355854
O O5 0.949104 0.750000 0.282366
O O6 0.874771 0.625230 0.293033
O O7 0.978493 0.662723 0.358715
O O8 0.019218 0.622309 0.269183
O O9 0.472000 0.472000 0.599192
O O10 0.513004 0.349585 0.546909
O O11 0.603708 0.401624 0.613811
O O12 0.250000 0.827687 0.044744
O O13 0.375610 0.750000 0.056405
O O14 0.356889 0.872276 0.104679
O O15 0.371814 0.871814 0.000000
O O16 0.750000 0.355937 0.826279
O O17 0.854344 0.250000 0.834083
O O18 0.895569 0.390769 0.807238
O O19 0.250000 0.433171 0.495902
O O20 0.381353 0.381353 0.509706
O O21 0.362449 0.498148 0.450220
O O22 0.500225 0.999776 0.786105
O O23 0.431364 0.750000 0.597366
#
# Coordination Sequence:
#
# PCOD8314966 Si02
#       8
#    16  16  16  16  16  16  16  16
#     4  10  19  31  47  65  87 114 144 179 216 256
#     4  10  20  33  50  68  87 112 141 176 217 259
#     4  10  18  32  50  66  86 110 140 172 206 255
#     4   7  10  18  34  58  87 115 141 173 217 261
#     4   9  16  26  43  67  91 113 144 188 224 252
#     4  10  20  31  47  69  88 110 137 169 210 254
#     4  10  19  31  45  61  87 121 151 178 213 257
#     4  10  19  31  48  68  88 108 137 172 209 254
#
# _framework density 15.237639
#
# number of rings (size 3 to 8) (size 9 to 14) (size 15 to 20)
#    0.000    2.500    1.250    3.750    0.000    1.375 
#    0.000    0.000    0.000    7.125    0.000    3.500 
#    0.000    0.000    0.000    0.000    0.000    0.000 
#
# Total GULP energy -1585971.302641 kJ/mol
# GULP energy per Si atom -12390.400802 kJ/mol
# Density = 1.520296 g / cm^3
# Si number density = 15.237639 Si / 1000 Ang^3
#
#
#
# Elastic Constant Matrix: (Units=GPa)
#
#
# Indices 1 2 3 4 5 6 
#
# 1 81.8914 38.8192 35.4755 0.0000 0.0000 0.0000
# 2 38.8192 81.8914 35.4755 0.0000 0.0000 0.0000
# 3 35.4755 35.4755 99.7689 0.0000 0.0000 0.0000
# 4 0.0000 0.0000 0.0000 13.9671 0.0000 0.0000
# 5 0.0000 0.0000 0.0000 0.0000 13.9671 0.0000
# 6 0.0000 0.0000 0.0000 0.0000 0.0000 16.9724
#
#
#
# Elastic Compliance Matrix: (Units=1/GPa)
#
#
# Indices 1 2 3 4 5 6 
#
# 1 0.016845 -0.006372 -0.003724 0.000000 0.000000 0.000000
# 2 -0.006372 0.016845 -0.003724 0.000000 0.000000 0.000000
# 3 -0.003724 -0.003724 0.012672 0.000000 0.000000 0.000000
# 4 0.000000 0.000000 0.000000 0.071597 0.000000 0.000000
# 5 0.000000 0.000000 0.000000 0.000000 0.071597 0.000000
# 6 0.000000 0.000000 0.000000 0.000000 0.000000 0.058919
#
#
# Mechanical properties :
#
#
# Convention : Reuss Voigt Hill
#
# Bulk Modulus (GPa) = 53.41369 53.67688 53.54528
# Shear Modulus (GPa) = 17.70824 19.23343 18.47084
#
# Velocity S-wave (km/s) = 3.41271 3.55664 3.48542
# Velocity P-wave (km/s) = 7.11749 7.22283 7.17035
#
# Compressibility (1/GPa) = 0.01872179
#
# Stress axis : x y z
#
# Youngs Moduli (GPa) = 59.36477 59.36477 78.91724
#
# Poissons Ratio (x) = 0.37826 0.29389
# Poissons Ratio (y) = 0.37826 0.29389
# Poissons Ratio (z) = 0.22108 0.22108
#
# Static dielectric constant tensor:
#      x y z
#    x 2.783870 0.000000 0.000000 
#    y 0.000000 2.783870 0.000000 
#    z 0.000000 0.000000 3.101750 
# 
# 
# High freq. dielectric constant tensor:
#      x y z
#    x 1.565310 0.000000 0.000000 
#    y 0.000000 1.565310 0.000000 
#    z 0.000000 0.000000 1.582280 
# 
# From -- ./inp_files/7321.got.cif
#   From: 2010.03.12/outbox.cif.g09.slc.cpg/sg129_4_cif.got.tgz:7321.got - 2010.04.06 17:19:44.
