data_PCOD8314153
_publ_section_title
;
Structure prediction by ZEFSAII (Michael W. Deem and Ramdas Pophale) SiO2 
 PCOD8314153
Probable space group: P 4/M B M
;
_chemical_formula_sum "Si O2"
_cell_formula_units_Z 96
_cell_length_a 15.489800
_cell_length_b 15.489800
_cell_length_c 23.524847
_cell_angle_alpha 90.000000
_cell_angle_beta 90.000000
_cell_angle_gamma 90.000000
_cell_volume 5644.408383
_symmetry_space_group_name_H-M "P 4/M B M"
_symmetry_group_IT_number 127
_symmetry_cell_setting 'tetragonal'
loop_
_space_group_symop_operation_xyz
x,y,z
-y,x,z
-x,-y,z
y,-x,z
1/2+x,1/2-y,-z
1/2-x,1/2+y,-z
1/2+y,1/2+x,-z
1/2-y,1/2-x,-z
-x,-y,-z
y,-x,-z
x,y,-z
-y,x,-z
1/2-x,1/2+y,z
1/2+x,1/2-y,z
1/2-y,1/2-x,z
1/2+y,1/2+x,z
loop_
_atom_site_type_symbol
_atom_site_label
_atom_site_fract_x
_atom_site_fract_y
_atom_site_fract_z
Si Si1 0.072417 0.427584 0.063097
Si Si2 0.439159 0.628876 0.440093
Si Si3 0.819776 0.461160 0.858335
Si Si4 0.561358 0.370143 0.316688
Si Si5 0.253275 0.897067 0.215284
Si Si6 0.885213 0.084321 0.000000
Si Si7 0.176171 0.816329 0.106681
O O1 0.155024 0.464675 0.096275
O O2 0.000000 0.500000 0.058878
O O3 0.101146 0.398855 0.000000
O O4 0.387768 0.540250 0.440799
O O5 0.415349 0.679319 0.500000
O O6 0.418392 0.672887 0.379160
O O7 0.900345 0.400345 0.842678
O O8 0.791883 0.509047 0.800514
O O9 0.743033 0.407718 0.886339
O O10 0.612815 0.459606 0.308842
O O11 0.595828 0.301598 0.272082
O O12 0.329331 0.829331 0.226027
O O13 0.189646 0.867502 0.165059
O O14 0.837125 0.116921 0.056098
O O15 0.981968 0.119451 0.000000
O O16 0.259347 0.759347 0.091315
#
# Coordination Sequence:
#
# PCOD8314153 Si02
#       7
#     8  16  16  16  16   8  16
#     4   9  18  32  52  74  86 108 151 196 238 280
#     4   7  10  19  38  66  95 119 150 194 234 266
#     4  10  20  36  54  72  95 122 156 197 242 289
#     4   9  17  29  48  71  95 127 162 192 229 284
#     4  11  21  34  48  70  98 127 159 197 240 280
#     4  11  23  38  54  70  92 122 153 183 228 297
#     4  10  22  37  53  71  93 120 151 198 246 284
#
# _framework density 17.007982999999999
#
# number of rings (size 3 to 8) (size 9 to 14) (size 15 to 20)
#    0.000    2.500    0.833    3.750    1.167    0.000 
#    1.500    1.667    0.000    0.500    0.000    0.000 
#    0.000    2.000    0.000    1.500    0.000    0.000 
#
# Total GULP energy -1189706.046919 kJ/mol
# GULP energy per Si atom -12392.771322 kJ/mol
# Density = 1.696927 g / cm^3
# Si number density = 17.007983 Si / 1000 Ang^3
#
#
#
# Elastic Constant Matrix: (Units=GPa)
#
#
# Indices 1 2 3 4 5 6 
#
# 1 44.4380 14.1573 31.9584 0.0000 0.0000 0.0000
# 2 14.1573 44.4380 31.9584 0.0000 0.0000 0.0000
# 3 31.9584 31.9584 139.8487 0.0000 0.0000 0.0000
# 4 0.0000 0.0000 0.0000 11.9786 0.0000 0.0000
# 5 0.0000 0.0000 0.0000 0.0000 11.9785 0.0000
# 6 0.0000 0.0000 0.0000 0.0000 0.0000 13.0005
#
#
#
# Elastic Compliance Matrix: (Units=1/GPa)
#
#
# Indices 1 2 3 4 5 6 
#
# 1 0.027879 -0.005146 -0.005195 0.000000 0.000000 0.000000
# 2 -0.005146 0.027879 -0.005195 0.000000 0.000000 0.000000
# 3 -0.005195 -0.005195 0.009525 0.000000 0.000000 0.000000
# 4 0.000000 0.000000 0.000000 0.083482 0.000000 0.000000
# 5 0.000000 0.000000 0.000000 0.000000 0.083483 0.000000
# 6 0.000000 0.000000 0.000000 0.000000 0.000000 0.076920
#
#
# Mechanical properties :
#
#
# Convention : Reuss Voigt Hill
#
# Bulk Modulus (GPa) = 29.23036 42.76363 35.99700
# Shear Modulus (GPa) = 14.21901 17.43492 15.82696
#
# Velocity S-wave (km/s) = 2.89454 3.20519 3.05382
# Velocity P-wave (km/s) = 5.32867 6.23663 5.80044
#
# Compressibility (1/GPa) = 0.03421100
#
# Stress axis : x y z
#
# Youngs Moduli (GPa) = 35.86975 35.86976 104.98799
#
# Poissons Ratio (x) = 0.18457 0.54541
# Poissons Ratio (y) = 0.18457 0.54541
# Poissons Ratio (z) = 0.18634 0.18634
#
# Static dielectric constant tensor:
#      x y z
#    x 3.042760 0.000000 0.000000 
#    y 0.000000 3.042760 0.000000 
#    z 0.000000 0.000000 3.511740 
# 
# 
# High freq. dielectric constant tensor:
#      x y z
#    x 1.639820 0.000000 0.000000 
#    y 0.000000 1.639820 0.000000 
#    z 0.000000 0.000000 1.659170 
# 
# From -- ./inp_files/6110.got.cif
#   From: 2010.03.12/outbox.cif.g09.slc.cpg/sg127_4_cif.got.tgz:6110.got - 2010.04.06 17:03:15.
