data_PCOD8314359
_publ_section_title
;
Structure prediction by ZEFSAII (Michael W. Deem and Ramdas Pophale) SiO2 
 PCOD8314359
Probable space group: P 4/M B M
;
_chemical_formula_sum "Si O2"
_cell_formula_units_Z 64
_cell_length_a 15.487188
_cell_length_b 15.487188
_cell_length_c 14.411118
_cell_angle_alpha 90.000000
_cell_angle_beta 90.000000
_cell_angle_gamma 90.000000
_cell_volume 3456.549772
_symmetry_space_group_name_H-M "P 4/M B M"
_symmetry_group_IT_number 127
_symmetry_cell_setting 'tetragonal'
loop_
_space_group_symop_operation_xyz
x,y,z
-y,x,z
-x,-y,z
y,-x,z
1/2+x,1/2-y,-z
1/2-x,1/2+y,-z
1/2+y,1/2+x,-z
1/2-y,1/2-x,-z
-x,-y,-z
y,-x,-z
x,y,-z
-y,x,-z
1/2-x,1/2+y,z
1/2+x,1/2-y,z
1/2-y,1/2-x,z
1/2+y,1/2+x,z
loop_
_atom_site_type_symbol
_atom_site_label
_atom_site_fract_x
_atom_site_fract_y
_atom_site_fract_z
Si Si1 0.956645 0.866128 0.607179
Si Si2 0.590934 0.392417 0.894402
Si Si3 0.860004 0.495498 0.897161
Si Si4 0.252262 0.896254 0.235749
O O1 0.948463 0.840257 0.500000
O O2 0.929668 0.782562 0.665887
O O3 0.054389 0.893363 0.630965
O O4 0.618985 0.489409 0.872922
O O5 0.641182 0.326534 0.826774
O O6 0.612172 0.367899 0.000000
O O7 0.932484 0.567517 0.902134
O O8 0.791413 0.521635 0.819214
O O9 0.903744 0.403744 0.870798
O O10 0.816192 0.488800 0.000000
O O11 0.321270 0.821270 0.253552
#
# Coordination Sequence:
#
# PCOD8314359 Si02
#       4
#    16  16  16  16
#     4   9  19  38  61  77  91 121 165 207 249 303
#     4   9  18  33  51  69  94 133 177 214 247 289
#     4   8  15  29  47  67  97 140 181 204 222 267
#     4  11  20  29  49  79 107 132 160 204 257 300
#
# _framework density 18.515571999999999
#
# number of rings (size 3 to 8) (size 9 to 14) (size 15 to 20)
#    0.000    2.750    0.000    4.500    0.000    4.000 
#    0.000    5.000    0.000    3.750    0.000    3.500 
#    0.000    0.000    0.000    0.000    0.000    0.000 
#
# Total GULP energy -793292.255594 kJ/mol
# GULP energy per Si atom -12395.191494 kJ/mol
# Density = 1.847343 g / cm^3
# Si number density = 18.515572 Si / 1000 Ang^3
#
#
#
# Elastic Constant Matrix: (Units=GPa)
#
#
# Indices 1 2 3 4 5 6 
#
# 1 79.8798 36.9515 56.6726 0.0000 0.0000 0.0000
# 2 36.9515 79.8798 56.6726 0.0000 0.0000 0.0000
# 3 56.6726 56.6726 121.3982 0.0000 0.0000 0.0000
# 4 0.0000 0.0000 0.0000 32.6714 0.0000 0.0000
# 5 0.0000 0.0000 0.0000 0.0000 32.6714 0.0000
# 6 0.0000 0.0000 0.0000 0.0000 0.0000 23.7242
#
#
#
# Elastic Compliance Matrix: (Units=1/GPa)
#
#
# Indices 1 2 3 4 5 6 
#
# 1 0.019470 -0.003825 -0.007304 0.000000 0.000000 0.000000
# 2 -0.003825 0.019470 -0.007304 0.000000 0.000000 0.000000
# 3 -0.007304 -0.007304 0.015056 0.000000 0.000000 0.000000
# 4 0.000000 0.000000 0.000000 0.030608 0.000000 0.000000
# 5 0.000000 0.000000 0.000000 0.000000 0.030608 0.000000
# 6 0.000000 0.000000 0.000000 0.000000 0.000000 0.042151
#
#
# Mechanical properties :
#
#
# Convention : Reuss Voigt Hill
#
# Bulk Modulus (GPa) = 58.36995 64.63901 61.50448
# Shear Modulus (GPa) = 25.00782 26.53749 25.77265
#
# Velocity S-wave (km/s) = 3.67909 3.78994 3.73493
# Velocity P-wave (km/s) = 7.04562 7.35785 7.20343
#
# Compressibility (1/GPa) = 0.01713210
#
# Stress axis : x y z
#
# Youngs Moduli (GPa) = 51.36150 51.36150 66.41677
#
# Poissons Ratio (x) = 0.19645 0.48508
# Poissons Ratio (y) = 0.19645 0.48508
# Poissons Ratio (z) = 0.37512 0.37512
#
# Static dielectric constant tensor:
#      x y z
#    x 3.341070 0.000000 0.000000 
#    y 0.000000 3.341070 0.000000 
#    z 0.000000 0.000000 3.376990 
# 
# 
# High freq. dielectric constant tensor:
#      x y z
#    x 1.703930 0.000000 0.000000 
#    y 0.000000 1.703930 0.000000 
#    z 0.000000 0.000000 1.714360 
# 
# From -- ./inp_files/4077.got.cif
#   From: 2010.03.12/outbox.cif.g09.slc.cpg/sg127_3_cif.got.tgz:4077.got - 2010.04.06 17:03:15.
