data_PCOD8314561
_publ_section_title
;
Structure prediction by ZEFSAII (Michael W. Deem and Ramdas Pophale) SiO2 
 PCOD8314561
Probable space group: P 4/M N C
;
_chemical_formula_sum "Si O2"
_cell_formula_units_Z 56
_cell_length_a 19.572781
_cell_length_b 19.572781
_cell_length_c 8.636595
_cell_angle_alpha 90.000000
_cell_angle_beta 90.000000
_cell_angle_gamma 90.000000
_cell_volume 3308.625618
_symmetry_space_group_name_H-M "P 4/M N C"
_symmetry_group_IT_number 128
_symmetry_cell_setting 'tetragonal'
loop_
_space_group_symop_operation_xyz
x,y,z
-y,x,z
-x,-y,z
y,-x,z
1/2+x,1/2-y,1/2-z
1/2-x,1/2+y,1/2-z
1/2+y,1/2+x,1/2-z
1/2-y,1/2-x,1/2-z
-x,-y,-z
y,-x,-z
x,y,-z
-y,x,-z
1/2-x,1/2+y,1/2+z
1/2+x,1/2-y,1/2+z
1/2-y,1/2-x,1/2+z
1/2+y,1/2+x,1/2+z
loop_
_atom_site_type_symbol
_atom_site_label
_atom_site_fract_x
_atom_site_fract_y
_atom_site_fract_z
Si Si1 0.500820 0.261351 0.328007
Si Si2 0.259617 0.345657 0.315239
Si Si3 0.889252 0.989945 0.000000
Si Si4 0.242401 0.638807 0.818534
O O1 0.496175 0.226681 0.500000
O O2 0.576333 0.250709 0.255780
O O3 0.488361 0.342766 0.346001
O O4 0.441640 0.232789 0.217136
O O5 0.195265 0.304736 0.250000
O O6 0.261610 0.343733 0.500000
O O7 0.329965 0.311710 0.254829
O O8 0.926402 0.061881 0.000000
O O9 0.176760 0.676760 0.750000
O O10 0.244983 0.651185 0.000000
#
# Coordination Sequence:
#
# PCOD8314561 Si02
#       4
#    16  16   8  16
#     4   9  19  32  51  72 102 134 175 211 257 314
#     4  10  19  33  53  77 104 137 173 218 264 317
#     4   9  16  28  50  74 100 135 172 210 248 311
#     4  11  21  33  52  75 104 137 174 221 266 315
#
# _framework density 16.925456000000001
#
# number of rings (size 3 to 8) (size 9 to 14) (size 15 to 20)
#    0.857    1.286    0.000    6.857    0.000    2.286 
#    0.000    0.000    0.000    0.857    0.000   12.000 
#    0.000    0.000    0.000    0.000    0.000    0.000 
#
# Total GULP energy -693972.172197 kJ/mol
# GULP energy per Si atom -12392.360218 kJ/mol
# Density = 1.688693 g / cm^3
# Si number density = 16.925456 Si / 1000 Ang^3
#
#
#
# Elastic Constant Matrix: (Units=GPa)
#
#
# Indices 1 2 3 4 5 6 
#
# 1 104.3164 27.7320 29.1122 0.0000 0.0000 0.0000
# 2 27.7320 104.3185 29.1122 0.0000 0.0000 0.0000
# 3 29.1122 29.1122 81.0682 0.0000 0.0000 0.0000
# 4 0.0000 0.0000 0.0000 23.9131 0.0000 0.0000
# 5 0.0000 0.0000 0.0000 0.0000 23.9122 0.0000
# 6 0.0000 0.0000 0.0000 0.0000 0.0000 41.4944
#
#
#
# Elastic Compliance Matrix: (Units=1/GPa)
#
#
# Indices 1 2 3 4 5 6 
#
# 1 0.011028 -0.002030 -0.003231 0.000000 0.000000 0.000000
# 2 -0.002030 0.011027 -0.003231 0.000000 0.000000 0.000000
# 3 -0.003231 -0.003231 0.014656 0.000000 0.000000 0.000000
# 4 0.000000 0.000000 0.000000 0.041818 0.000000 0.000000
# 5 0.000000 0.000000 0.000000 0.000000 0.041820 0.000000
# 6 0.000000 0.000000 0.000000 0.000000 0.000000 0.024100
#
#
# Mechanical properties :
#
#
# Convention : Reuss Voigt Hill
#
# Bulk Modulus (GPa) = 50.69269 51.29065 50.99167
# Shear Modulus (GPa) = 29.76051 31.44706 30.60378
#
# Velocity S-wave (km/s) = 4.19779 4.31510 4.25685
# Velocity P-wave (km/s) = 7.31511 7.42943 7.37249
#
# Compressibility (1/GPa) = 0.01972671
#
# Stress axis : x y z
#
# Youngs Moduli (GPa) = 90.68169 90.68379 68.23174
#
# Poissons Ratio (x) = 0.18407 0.22047
# Poissons Ratio (y) = 0.18407 0.22046
# Poissons Ratio (z) = 0.29301 0.29300
#
# Static dielectric constant tensor:
#      x y z
#    x 3.164000 0.000000 0.000000 
#    y 0.000000 3.164000 0.000000 
#    z 0.000000 0.000000 2.980780 
# 
# 
# High freq. dielectric constant tensor:
#      x y z
#    x 1.647110 0.000000 0.000000 
#    y 0.000000 1.647110 0.000000 
#    z 0.000000 0.000000 1.638520 
# 
# From -- ./inp_files/926.got.cif
#   From: 2010.03.12/outbox.cif.g09.slc.cpg/sg128_1_cif.got.tgz:926.got - 2010.04.06 17:11:05.
