data_PCOD8314534
_publ_section_title
;
Structure prediction by ZEFSAII (Michael W. Deem and Ramdas Pophale) SiO2 
 PCOD8314534
Probable space group: P 4/M N C
;
_chemical_formula_sum "Si O2"
_cell_formula_units_Z 64
_cell_length_a 20.762117
_cell_length_b 20.762117
_cell_length_c 8.955245
_cell_angle_alpha 90.000000
_cell_angle_beta 90.000000
_cell_angle_gamma 90.000000
_cell_volume 3860.297184
_symmetry_space_group_name_H-M "P 4/M N C"
_symmetry_group_IT_number 128
_symmetry_cell_setting 'tetragonal'
loop_
_space_group_symop_operation_xyz
x,y,z
-y,x,z
-x,-y,z
y,-x,z
1/2+x,1/2-y,1/2-z
1/2-x,1/2+y,1/2-z
1/2+y,1/2+x,1/2-z
1/2-y,1/2-x,1/2-z
-x,-y,-z
y,-x,-z
x,y,-z
-y,x,-z
1/2-x,1/2+y,1/2+z
1/2+x,1/2-y,1/2+z
1/2-y,1/2-x,1/2+z
1/2+y,1/2+x,1/2+z
loop_
_atom_site_type_symbol
_atom_site_label
_atom_site_fract_x
_atom_site_fract_y
_atom_site_fract_z
Si Si1 0.263445 0.506481 0.676144
Si Si2 0.104161 0.013539 0.328721
Si Si3 0.146994 0.553064 0.831581
Si Si4 0.414481 0.821986 0.831483
O O1 0.255778 0.504962 0.500000
O O2 0.335957 0.523394 0.719731
O O3 0.215344 0.561163 0.744374
O O4 0.243167 0.436358 0.744319
O O5 0.127449 0.015998 0.500000
O O6 0.054610 0.070814 0.294970
O O7 0.090316 0.590316 0.750000
O O8 0.129833 0.476508 0.832344
O O9 0.154660 0.579329 0.000000
O O10 0.354405 0.854405 0.750000
O O11 0.393960 0.804023 0.000000
#
# Coordination Sequence:
#
# PCOD8314534 Si02
#       4
#    16  16  16  16
#     4  10  19  31  48  71 102 133 162 200 243 290
#     4   9  18  34  56  79 101 125 156 197 245 294
#     4   9  18  30  46  68  97 131 169 207 243 286
#     4   9  18  30  46  68  97 131 169 207 243 286
#
# _framework density 16.579034
#
# number of rings (size 3 to 8) (size 9 to 14) (size 15 to 20)
#    1.500    1.250    0.000    3.750    0.000    1.500 
#    0.000    3.750    0.000    1.500    0.000    0.000 
#    0.000    0.000    0.000    0.000    0.000    0.000 
#
# Total GULP energy -792917.226367 kJ/mol
# GULP energy per Si atom -12389.331662 kJ/mol
# Density = 1.654130 g / cm^3
# Si number density = 16.579034 Si / 1000 Ang^3
#
#
#
# Elastic Constant Matrix: (Units=GPa)
#
#
# Indices 1 2 3 4 5 6 
#
# 1 34.0814 -11.3044 11.9532 0.0000 0.0000 0.0000
# 2 -11.3044 34.0814 11.9532 0.0000 0.0000 0.0000
# 3 11.9532 11.9532 128.8177 0.0000 0.0000 0.0000
# 4 0.0000 0.0000 0.0000 27.1088 0.0000 0.0000
# 5 0.0000 0.0000 0.0000 0.0000 27.1088 0.0000
# 6 0.0000 0.0000 0.0000 0.0000 0.0000 9.2946
#
#
#
# Elastic Compliance Matrix: (Units=1/GPa)
#
#
# Indices 1 2 3 4 5 6 
#
# 1 0.035337 0.013304 -0.004514 0.000000 0.000000 0.000000
# 2 0.013304 0.035337 -0.004514 0.000000 0.000000 0.000000
# 3 -0.004514 -0.004514 0.008601 0.000000 0.000000 0.000000
# 4 0.000000 0.000000 0.000000 0.036888 0.000000 0.000000
# 5 0.000000 0.000000 0.000000 0.000000 0.036888 0.000000
# 6 0.000000 0.000000 0.000000 0.000000 0.000000 0.107589
#
#
# Mechanical properties :
#
#
# Convention : Reuss Voigt Hill
#
# Bulk Modulus (GPa) = 11.38576 24.68717 18.03646
# Shear Modulus (GPa) = 17.77059 24.99434 21.38247
#
# Velocity S-wave (km/s) = 3.27750 3.88698 3.59518
# Velocity P-wave (km/s) = 4.60490 5.92180 5.30438
#
# Compressibility (1/GPa) = 0.08782903
#
# Stress axis : x y z
#
# Youngs Moduli (GPa) = 28.29870 28.29870 116.27171
#
# Poissons Ratio (x) = -0.37648 0.52479
# Poissons Ratio (y) = -0.37648 0.52479
# Poissons Ratio (z) = 0.12773 0.12773
#
# Static dielectric constant tensor:
#      x y z
#    x 2.803450 0.000000 0.000000 
#    y 0.000000 2.803450 0.000000 
#    z 0.000000 0.000000 3.124960 
# 
# 
# High freq. dielectric constant tensor:
#      x y z
#    x 1.609870 0.000000 0.000000 
#    y 0.000000 1.609870 0.000000 
#    z 0.000000 0.000000 1.654010 
# 
# From -- ./inp_files/1045.got.cif
#   From: 2010.03.12/outbox.cif.g09.slc.cpg/sg128_1_cif.got.tgz:1045.got - 2010.04.06 17:11:05.
