data_PCOD8314822
_publ_section_title
;
Structure prediction by ZEFSAII (Michael W. Deem and Ramdas Pophale) SiO2 
 PCOD8314822
Probable space group: P 4/M N C
;
_chemical_formula_sum "Si O2"
_cell_formula_units_Z 88
_cell_length_a 12.320976
_cell_length_b 12.320976
_cell_length_c 28.630773
_cell_angle_alpha 90.000000
_cell_angle_beta 90.000000
_cell_angle_gamma 90.000000
_cell_volume 4346.335998
_symmetry_space_group_name_H-M "P 4/M N C"
_symmetry_group_IT_number 128
_symmetry_cell_setting 'tetragonal'
loop_
_space_group_symop_operation_xyz
x,y,z
-y,x,z
-x,-y,z
y,-x,z
1/2+x,1/2-y,1/2-z
1/2-x,1/2+y,1/2-z
1/2+y,1/2+x,1/2-z
1/2-y,1/2-x,1/2-z
-x,-y,-z
y,-x,-z
x,y,-z
-y,x,-z
1/2-x,1/2+y,1/2+z
1/2+x,1/2-y,1/2+z
1/2-y,1/2-x,1/2+z
1/2+y,1/2+x,1/2+z
loop_
_atom_site_type_symbol
_atom_site_label
_atom_site_fract_x
_atom_site_fract_y
_atom_site_fract_z
Si Si1 0.723368 0.242736 0.872387
Si Si2 0.632833 0.090075 0.553343
Si Si3 0.902124 0.851446 0.709485
Si Si4 0.148729 0.601999 0.426433
Si Si5 0.589387 0.346650 0.313008
Si Si6 0.667466 0.426971 0.500000
O O1 0.651430 0.229621 0.919470
O O2 0.647164 0.279226 0.830682
O O3 0.823462 0.326326 0.881164
O O4 0.769824 0.128445 0.854591
O O5 0.623648 0.133736 0.500000
O O6 0.523856 0.119848 0.582372
O O7 0.652940 0.960407 0.550524
O O8 0.877126 0.804231 0.761288
O O9 0.030313 0.852284 0.703431
O O10 0.259789 0.608064 0.456051
O O11 0.646123 0.462082 0.319412
O O12 0.641297 0.555784 0.500000
#
# Coordination Sequence:
#
# PCOD8314822 Si02
#       6
#    16  16  16  16  16   8
#     4  12  22  33  59  90 110 141 198 246 276 328
#     4  11  23  39  57  77 114 160 195 226 288 355
#     4   9  19  38  59  80 112 149 187 231 287 346
#     4  11  22  39  57  77 117 153 190 233 290 342
#     4   9  19  37  58  82 116 151 178 227 297 353
#     4  11  22  37  60  86 108 143 192 240 284 333
#
# _framework density 20.246938
#
# number of rings (size 3 to 8) (size 9 to 14) (size 15 to 20)
#    0.000    1.545    1.818    5.455    1.273    0.000 
#    0.000    1.818    0.000    0.000    0.000   19.091 
#    0.000    0.000    0.000    0.000    0.000    0.000 
#
# Total GULP energy -1090483.271330 kJ/mol
# GULP energy per Si atom -12391.855356 kJ/mol
# Density = 2.020086 g / cm^3
# Si number density = 20.246938 Si / 1000 Ang^3
#
#
#
# Elastic Constant Matrix: (Units=GPa)
#
#
# Indices 1 2 3 4 5 6 
#
# 1 78.0974 29.3087 40.8306 0.0000 0.0000 0.0000
# 2 29.3087 78.0974 40.8306 0.0000 0.0000 0.0000
# 3 40.8306 40.8306 89.4224 0.0000 0.0000 0.0000
# 4 0.0000 0.0000 0.0000 34.5998 0.0000 0.0000
# 5 0.0000 0.0000 0.0000 0.0000 34.5998 0.0000
# 6 0.0000 0.0000 0.0000 0.0000 0.0000 25.8577
#
#
#
# Elastic Compliance Matrix: (Units=1/GPa)
#
#
# Indices 1 2 3 4 5 6 
#
# 1 0.017379 -0.003118 -0.006512 0.000000 0.000000 0.000000
# 2 -0.003118 0.017379 -0.006512 0.000000 0.000000 0.000000
# 3 -0.006512 -0.006512 0.017129 0.000000 0.000000 0.000000
# 4 0.000000 0.000000 0.000000 0.028902 0.000000 0.000000
# 5 0.000000 0.000000 0.000000 0.000000 0.028902 0.000000
# 6 0.000000 0.000000 0.000000 0.000000 0.000000 0.038673
#
#
# Mechanical properties :
#
#
# Convention : Reuss Voigt Hill
#
# Bulk Modulus (GPa) = 51.00717 51.95077 51.47897
# Shear Modulus (GPa) = 26.71198 27.98793 27.34996
#
# Velocity S-wave (km/s) = 3.63617 3.72200 3.67934
# Velocity P-wave (km/s) = 6.54799 6.64721 6.59779
#
# Compressibility (1/GPa) = 0.01960509
#
# Stress axis : x y z
#
# Youngs Moduli (GPa) = 57.54082 57.54082 58.37885
#
# Poissons Ratio (x) = 0.17939 0.38015
# Poissons Ratio (y) = 0.17939 0.38015
# Poissons Ratio (z) = 0.37469 0.37469
#
# Static dielectric constant tensor:
#      x y z
#    x 3.635910 0.000000 0.000000 
#    y 0.000000 3.635910 0.000000 
#    z 0.000000 0.000000 3.629310 
# 
# 
# High freq. dielectric constant tensor:
#      x y z
#    x 1.786270 0.000000 0.000000 
#    y 0.000000 1.786270 0.000000 
#    z 0.000000 0.000000 1.786860 
# 
# From -- ./inp_files/7245.got.cif
#   From: 2010.03.12/outbox.cif.g09.slc.cpg/sg128_4_cif.got.tgz:7245.got - 2010.04.06 17:11:05.
