data_PCOD8314618
_publ_section_title
;
Structure prediction by ZEFSAII (Michael W. Deem and Ramdas Pophale) SiO2 
 PCOD8314618
Probable space group: P 4/M N C
;
_chemical_formula_sum "Si O2"
_cell_formula_units_Z 96
_cell_length_a 25.215613
_cell_length_b 25.215613
_cell_length_c 8.778592
_cell_angle_alpha 90.000000
_cell_angle_beta 90.000000
_cell_angle_gamma 90.000000
_cell_volume 5581.667036
_symmetry_space_group_name_H-M "P 4/M N C"
_symmetry_group_IT_number 128
_symmetry_cell_setting 'tetragonal'
loop_
_space_group_symop_operation_xyz
x,y,z
-y,x,z
-x,-y,z
y,-x,z
1/2+x,1/2-y,1/2-z
1/2-x,1/2+y,1/2-z
1/2+y,1/2+x,1/2-z
1/2-y,1/2-x,1/2-z
-x,-y,-z
y,-x,-z
x,y,-z
-y,x,-z
1/2-x,1/2+y,1/2+z
1/2+x,1/2-y,1/2+z
1/2-y,1/2-x,1/2+z
1/2+y,1/2+x,1/2+z
loop_
_atom_site_type_symbol
_atom_site_label
_atom_site_fract_x
_atom_site_fract_y
_atom_site_fract_z
Si Si1 0.886917 0.694339 0.178820
Si Si2 0.687247 0.497296 0.167838
Si Si3 0.312608 0.992567 0.667628
Si Si4 0.108374 0.805841 0.820990
Si Si5 0.386605 0.690477 0.180662
Si Si6 0.891249 0.309539 0.319155
O O1 0.843799 0.656202 0.250000
O O2 0.945793 0.671711 0.216752
O O3 0.877659 0.752303 0.246235
O O4 0.879409 0.696408 0.000000
O O5 0.749948 0.502069 0.156221
O O6 0.671516 0.450468 0.283545
O O7 0.666816 0.555033 0.223645
O O8 0.664253 0.483397 0.000000
O O9 0.335485 0.978387 0.500000
O O10 0.333326 0.050386 0.722092
O O11 0.151281 0.843267 0.745040
O O12 0.117227 0.747668 0.754622
O O13 0.116753 0.804915 0.000000
O O14 0.381135 0.696452 0.000000
O O15 0.848311 0.348311 0.250000
O O16 0.884447 0.304160 0.500000
#
# Coordination Sequence:
#
# PCOD8314618 Si02
#       6
#    16  16  16  16  16  16
#     4  11  21  33  51  75 102 131 165 203 246 294
#     4   8  16  32  52  71  94 128 166 203 242 288
#     4   8  16  32  51  71  96 128 165 203 242 288
#     4  11  21  32  50  76 104 132 164 202 246 294
#     4  10  20  35  53  73 100 132 167 204 245 293
#     4  10  20  34  52  74 102 133 166 203 245 293
#
# _framework density 17.199162000000001
#
# number of rings (size 3 to 8) (size 9 to 14) (size 15 to 20)
#    0.000    2.333    0.000    6.000    0.000    8.000 
#    0.000    3.333    0.000    1.000    0.000    7.000 
#    0.000    0.000    0.000    0.000    0.000    0.000 
#
# Total GULP energy -1189896.291602 kJ/mol
# GULP energy per Si atom -12394.753038 kJ/mol
# Density = 1.716002 g / cm^3
# Si number density = 17.199162 Si / 1000 Ang^3
#
#
#
# Elastic Constant Matrix: (Units=GPa)
#
#
# Indices 1 2 3 4 5 6 
#
# 1 92.4230 59.4925 49.2698 0.0000 0.0000 0.0000
# 2 59.4925 92.4119 49.2701 0.0000 0.0000 0.0000
# 3 49.2698 49.2701 110.3694 0.0000 0.0000 0.0000
# 4 0.0000 0.0000 0.0000 66.2426 0.0000 0.0000
# 5 0.0000 0.0000 0.0000 0.0000 66.2378 0.0000
# 6 0.0000 0.0000 0.0000 0.0000 0.0000 -12.6233
#
#
#
# Elastic Compliance Matrix: (Units=1/GPa)
#
#
# Indices 1 2 3 4 5 6 
#
# 1 0.019817 -0.010553 -0.004136 0.000000 0.000000 0.000000
# 2 -0.010553 0.019821 -0.004137 0.000000 0.000000 0.000000
# 3 -0.004136 -0.004137 0.012754 0.000000 0.000000 0.000000
# 4 0.000000 0.000000 0.000000 0.015096 0.000000 0.000000
# 5 0.000000 0.000000 0.000000 0.000000 0.015097 0.000000
# 6 0.000000 0.000000 0.000000 0.000000 0.000000 -0.079219
#
#
# Mechanical properties :
#
#
# Convention : Reuss Voigt Hill
#
# Bulk Modulus (GPa) = 67.84316 67.91877 67.88096
# Shear Modulus (GPa) = 108.85786 33.11622 70.98704
#
# Velocity S-wave (km/s) = 7.96429 4.39276 6.43142
# Velocity P-wave (km/s) = 11.14022 8.08108 9.73161
#
# Compressibility (1/GPa) = 0.01473988
#
# Stress axis : x y z
#
# Youngs Moduli (GPa) = 50.46055 50.45236 78.40933
#
# Poissons Ratio (x) = 0.53242 0.32428
# Poissons Ratio (y) = 0.53251 0.32440
# Poissons Ratio (z) = 0.20869 0.20873
#
# Static dielectric constant tensor:
#      x y z
#    x 3.410640 0.000000 0.000000 
#    y 0.000000 3.410640 0.000000 
#    z 0.000000 0.000000 3.323990 
# 
# 
# High freq. dielectric constant tensor:
#      x y z
#    x 1.650920 0.000000 0.000000 
#    y 0.000000 1.650920 0.000000 
#    z 0.000000 0.000000 1.674170 
# 
# From -- ./inp_files/1516.got.cif
#   From: 2010.03.12/outbox.cif.g09.slc.cpg/sg128_1_cif.got.tgz:1516.got - 2010.04.06 17:11:05.
