data_PCOD8314052
_publ_section_title
;
Structure prediction by ZEFSAII (Michael W. Deem and Ramdas Pophale) SiO2 
 PCOD8314052
Probable space group: P 4/M B M
;
_chemical_formula_sum "Si O2"
_cell_formula_units_Z 104
_cell_length_a 26.946312
_cell_length_b 26.946312
_cell_length_c 7.909782
_cell_angle_alpha 90.000000
_cell_angle_beta 90.000000
_cell_angle_gamma 90.000000
_cell_volume 5743.322217
_symmetry_space_group_name_H-M "P 4/M B M"
_symmetry_group_IT_number 127
_symmetry_cell_setting 'tetragonal'
loop_
_space_group_symop_operation_xyz
x,y,z
-y,x,z
-x,-y,z
y,-x,z
1/2+x,1/2-y,-z
1/2-x,1/2+y,-z
1/2+y,1/2+x,-z
1/2-y,1/2-x,-z
-x,-y,-z
y,-x,-z
x,y,-z
-y,x,-z
1/2-x,1/2+y,z
1/2+x,1/2-y,z
1/2-y,1/2-x,z
1/2+y,1/2+x,z
loop_
_atom_site_type_symbol
_atom_site_label
_atom_site_fract_x
_atom_site_fract_y
_atom_site_fract_z
Si Si1 0.368995 0.420163 0.697753
Si Si2 0.628539 0.793110 0.192786
Si Si3 0.499405 0.290657 0.700034
Si Si4 0.815351 0.477735 0.307173
Si Si5 0.564453 0.548727 0.000000
Si Si6 0.578265 0.000573 0.298612
Si Si7 0.189236 0.109831 0.694549
O O1 0.383123 0.431282 0.500000
O O2 0.321702 0.452482 0.759180
O O3 0.359123 0.361388 0.722129
O O4 0.413212 0.432534 0.823713
O O5 0.677535 0.822466 0.254787
O O6 0.581772 0.811325 0.301149
O O7 0.637867 0.734021 0.211146
O O8 0.616599 0.805725 0.000000
O O9 0.499858 0.287522 0.500000
O O10 0.501775 0.234461 0.776370
O O11 0.447529 0.316190 0.759986
O O12 0.817616 0.494644 0.500000
O O13 0.866238 0.496971 0.219041
O O14 0.509641 0.569128 0.000000
O O15 0.580533 0.997052 0.500000
O O16 0.545414 0.954587 0.230051
O O17 0.552338 0.052338 0.242856
O O18 0.204284 0.108062 0.500000
#
# Coordination Sequence:
#
# PCOD8314052 Si02
#       7
#    16  16  16  16   8  16  16
#     4  10  20  36  55  74 103 137 169 212 257 302
#     4  10  20  31  45  69 100 128 157 204 259 302
#     4   8  15  29  47  69  93 120 160 201 246 297
#     4   9  16  28  47  69  95 127 164 204 244 297
#     4  11  24  36  50  78 105 132 174 207 245 310
#     4   8  13  21  37  65  97 127 160 199 245 293
#     4   9  18  32  52  73  94 128 165 199 246 298
#
# _framework density 18.107986
#
# number of rings (size 3 to 8) (size 9 to 14) (size 15 to 20)
#    0.000    2.846    0.000    3.231    1.077    3.692 
#    5.538    0.769    0.000    1.385    0.000    6.462 
#    0.000    0.000    0.000    0.000    0.000    0.000 
#
# Total GULP energy -1288505.460927 kJ/mol
# GULP energy per Si atom -12389.475586 kJ/mol
# Density = 1.806677 g / cm^3
# Si number density = 18.107986 Si / 1000 Ang^3
#
#
#
# Elastic Constant Matrix: (Units=GPa)
#
#
# Indices 1 2 3 4 5 6 
#
# 1 119.4723 44.0073 11.1694 0.0000 0.0000 0.0000
# 2 44.0073 119.4723 11.1694 0.0000 0.0000 0.0000
# 3 11.1694 11.1694 37.5386 0.0000 0.0000 0.0000
# 4 0.0000 0.0000 0.0000 12.7642 0.0000 0.0000
# 5 0.0000 0.0000 0.0000 0.0000 12.7642 0.0000
# 6 0.0000 0.0000 0.0000 0.0000 0.0000 36.9826
#
#
#
# Elastic Compliance Matrix: (Units=1/GPa)
#
#
# Indices 1 2 3 4 5 6 
#
# 1 0.009814 -0.003437 -0.001897 0.000000 0.000000 0.000000
# 2 -0.003437 0.009814 -0.001897 0.000000 0.000000 0.000000
# 3 -0.001897 -0.001897 0.027768 0.000000 0.000000 0.000000
# 4 0.000000 0.000000 0.000000 0.078344 0.000000 0.000000
# 5 0.000000 0.000000 0.000000 0.000000 0.078344 0.000000
# 6 0.000000 0.000000 0.000000 0.000000 0.000000 0.027040
#
#
# Mechanical properties :
#
#
# Convention : Reuss Voigt Hill
#
# Bulk Modulus (GPa) = 30.36574 45.46394 37.91484
# Shear Modulus (GPa) = 19.48824 26.51132 22.99978
#
# Velocity S-wave (km/s) = 3.28414 3.83046 3.56778
# Velocity P-wave (km/s) = 5.58448 6.68767 6.16082
#
# Compressibility (1/GPa) = 0.03293185
#
# Stress axis : x y z
#
# Youngs Moduli (GPa) = 101.89838 101.89838 36.01235
#
# Poissons Ratio (x) = 0.35027 0.06832
# Poissons Ratio (y) = 0.35027 0.06832
# Poissons Ratio (z) = 0.19332 0.19332
#
# Static dielectric constant tensor:
#      x y z
#    x 3.550760 0.000000 0.000000 
#    y 0.000000 3.550760 0.000000 
#    z 0.000000 0.000000 3.087830 
# 
# 
# High freq. dielectric constant tensor:
#      x y z
#    x 1.689360 0.000000 0.000000 
#    y 0.000000 1.689360 0.000000 
#    z 0.000000 0.000000 1.682620 
# 
# From -- ./inp_files/2327.got.cif
#   From: 2010.03.12/outbox.cif.g09.slc.cpg/sg127_2_cif.got.tgz:2327.got - 2010.04.06 17:03:15.
