data_PCOD8314705
_publ_section_title
;
Structure prediction by ZEFSAII (Michael W. Deem and Ramdas Pophale) SiO2 
 PCOD8314705
Probable space group: P 4/M N C
;
_chemical_formula_sum "Si O2"
_cell_formula_units_Z 96
_cell_length_a 23.632852
_cell_length_b 23.632852
_cell_length_c 8.828047
_cell_angle_alpha 90.000000
_cell_angle_beta 90.000000
_cell_angle_gamma 90.000000
_cell_volume 4930.567482
_symmetry_space_group_name_H-M "P 4/M N C"
_symmetry_group_IT_number 128
_symmetry_cell_setting 'tetragonal'
loop_
_space_group_symop_operation_xyz
x,y,z
-y,x,z
-x,-y,z
y,-x,z
1/2+x,1/2-y,1/2-z
1/2-x,1/2+y,1/2-z
1/2+y,1/2+x,1/2-z
1/2-y,1/2-x,1/2-z
-x,-y,-z
y,-x,-z
x,y,-z
-y,x,-z
1/2-x,1/2+y,1/2+z
1/2+x,1/2-y,1/2+z
1/2-y,1/2-x,1/2+z
1/2+y,1/2+x,1/2+z
loop_
_atom_site_type_symbol
_atom_site_label
_atom_site_fract_x
_atom_site_fract_y
_atom_site_fract_z
Si Si1 0.929301 0.656616 0.324730
Si Si2 0.578771 0.451972 0.666993
Si Si3 0.927942 0.238762 0.821924
Si Si4 0.365623 0.357391 0.825488
Si Si5 0.942646 0.776003 0.821713
Si Si6 0.142018 0.558523 0.825030
O O1 0.886626 0.613375 0.250000
O O2 0.914143 0.664934 0.500000
O O3 0.922723 0.716404 0.243207
O O4 0.991957 0.632051 0.302701
O O5 0.576712 0.518281 0.682104
O O6 0.604300 0.436364 0.500000
O O7 0.615786 0.427920 0.803338
O O8 0.874663 0.203603 0.753255
O O9 0.921577 0.300885 0.754890
O O10 0.990748 0.212902 0.781612
O O11 0.920109 0.242578 0.000000
O O12 0.321983 0.399791 0.746445
O O13 0.349639 0.349674 0.000000
O O14 0.934090 0.775940 0.000000
O O15 0.088703 0.588703 0.750000
O O16 0.146352 0.575155 0.000000
#
# Coordination Sequence:
#
# PCOD8314705 Si02
#       6
#    16  16  16  16  16  16
#     4  10  21  38  61  89 120 151 184 224 272 328
#     4   9  18  32  48  67  95 133 178 229 283 335
#     4  10  21  38  59  81 109 148 192 236 283 334
#     4  12  23  33  50  77 108 143 186 233 281 334
#     4  10  21  38  59  81 109 148 192 236 283 334
#     4  10  21  38  61  89 120 151 184 224 272 328
#
# _framework density 19.470375000000001
#
# number of rings (size 3 to 8) (size 9 to 14) (size 15 to 20)
#    0.000    1.833    0.000    5.000    0.000    9.000 
#    0.000    3.333    0.000    0.000    0.000    0.000 
#    0.000    0.000    0.000    0.000    0.000    0.000 
#
# Total GULP energy -1189965.533576 kJ/mol
# GULP energy per Si atom -12395.474308 kJ/mol
# Density = 1.942606 g / cm^3
# Si number density = 19.470375 Si / 1000 Ang^3
#
#
#
# Elastic Constant Matrix: (Units=GPa)
#
#
# Indices 1 2 3 4 5 6 
#
# 1 82.5980 38.5578 53.6080 0.0000 0.0000 0.0000
# 2 38.5578 82.5931 53.6120 0.0000 0.0000 0.0000
# 3 53.6080 53.6120 126.7149 0.0000 0.0000 0.0000
# 4 0.0000 0.0000 0.0000 31.9960 0.0000 0.0000
# 5 0.0000 0.0000 0.0000 0.0000 31.9955 0.0000
# 6 0.0000 0.0000 0.0000 0.0000 0.0000 38.8784
#
#
#
# Elastic Compliance Matrix: (Units=1/GPa)
#
#
# Indices 1 2 3 4 5 6 
#
# 1 0.017950 -0.004757 -0.005581 0.000000 0.000000 0.000000
# 2 -0.004757 0.017952 -0.005583 0.000000 0.000000 0.000000
# 3 -0.005581 -0.005583 0.012615 0.000000 0.000000 0.000000
# 4 0.000000 0.000000 0.000000 0.031254 0.000000 0.000000
# 5 0.000000 0.000000 0.000000 0.000000 0.031254 0.000000
# 6 0.000000 0.000000 0.000000 0.000000 0.000000 0.025721
#
#
# Mechanical properties :
#
#
# Convention : Reuss Voigt Hill
#
# Bulk Modulus (GPa) = 59.97054 64.82906 62.39980
# Shear Modulus (GPa) = 28.71139 30.31586 29.51363
#
# Velocity S-wave (km/s) = 3.84424 3.95020 3.89758
# Velocity P-wave (km/s) = 7.11140 7.36030 7.23692
#
# Compressibility (1/GPa) = 0.01667485
#
# Stress axis : x y z
#
# Youngs Moduli (GPa) = 55.71117 55.70349 79.27045
#
# Poissons Ratio (x) = 0.26497 0.44243
# Poissons Ratio (y) = 0.26501 0.44257
# Poissons Ratio (z) = 0.31094 0.31099
#
# Static dielectric constant tensor:
#      x y z
#    x 3.565580 0.000000 0.000000 
#    y 0.000000 3.565570 0.000000 
#    z 0.000000 0.000000 3.676220 
# 
# 
# High freq. dielectric constant tensor:
#      x y z
#    x 1.754890 0.000000 0.000000 
#    y 0.000000 1.754890 0.000000 
#    z 0.000000 0.000000 1.766150 
# 
# From -- ./inp_files/1482.got.cif
#   From: 2010.03.12/outbox.cif.g09.slc.cpg/sg128_1_cif.got.tgz:1482.got - 2010.04.06 17:11:05.
