data_PCOD8314495
_publ_section_title
;
Structure prediction by ZEFSAII (Michael W. Deem and Ramdas Pophale) SiO2 
 PCOD8314495
Probable space group: P 4/M N C
;
_chemical_formula_sum "Si O2"
_cell_formula_units_Z 104
_cell_length_a 15.185604
_cell_length_b 15.185604
_cell_length_c 23.075070
_cell_angle_alpha 90.000000
_cell_angle_beta 90.000000
_cell_angle_gamma 90.000000
_cell_volume 5321.170418
_symmetry_space_group_name_H-M "P 4/M N C"
_symmetry_group_IT_number 128
_symmetry_cell_setting 'tetragonal'
loop_
_space_group_symop_operation_xyz
x,y,z
-y,x,z
-x,-y,z
y,-x,z
1/2+x,1/2-y,1/2-z
1/2-x,1/2+y,1/2-z
1/2+y,1/2+x,1/2-z
1/2-y,1/2-x,1/2-z
-x,-y,-z
y,-x,-z
x,y,-z
-y,x,-z
1/2-x,1/2+y,1/2+z
1/2+x,1/2-y,1/2+z
1/2-y,1/2-x,1/2+z
1/2+y,1/2+x,1/2+z
loop_
_atom_site_type_symbol
_atom_site_label
_atom_site_fract_x
_atom_site_fract_y
_atom_site_fract_z
Si Si1 0.145939 0.645939 0.750000
Si Si2 0.065736 0.876755 0.931283
Si Si3 0.103273 0.517094 0.649822
Si Si4 0.282639 0.685090 0.157937
Si Si5 0.689906 0.855884 0.931658
Si Si6 0.871978 0.715038 0.803324
Si Si7 0.126802 0.929095 0.727816
O O1 0.141400 0.565663 0.706045
O O2 0.236388 0.638326 0.786409
O O3 0.118267 0.963850 0.908620
O O4 0.114028 0.787614 0.910655
O O5 0.063747 0.877485 0.000000
O O6 0.121570 0.570413 0.590714
O O7 0.161123 0.429226 0.650066
O O8 0.000000 0.500000 0.655060
O O9 0.237605 0.658555 0.096859
O O10 0.260530 0.787141 0.160196
O O11 0.387451 0.666020 0.166888
O O12 0.681512 0.845714 0.000000
O O13 0.849994 0.650007 0.750000
O O14 0.908941 0.808414 0.781125
O O15 0.032752 0.882037 0.730105
#
# Coordination Sequence:
#
# PCOD8314495 Si02
#       7
#     8  16  16  16  16  16  16
#     4  10  17  36  54  80 113 148 190 240 304 366
#     4   8  15  31  54  76 103 147 197 245 298 357
#     4  11  23  36  60  85 114 159 203 250 312 379
#     4  10  20  36  57  81 119 161 195 246 307 368
#     4  10  23  38  56  82 120 163 212 262 309 363
#     4  10  20  35  56  88 121 153 196 243 301 379
#     4  10  20  35  60  92 124 152 187 249 314 371
#
# _framework density 19.544571999999999
#
# number of rings (size 3 to 8) (size 9 to 14) (size 15 to 20)
#    0.000    2.154    2.308    2.538    4.308    4.000 
#    0.000    0.000    0.000    2.769    0.000    1.077 
#    0.000    0.000    0.000    0.000    0.000    0.000 
#
# Total GULP energy -1288386.482031 kJ/mol
# GULP energy per Si atom -12388.331558 kJ/mol
# Density = 1.950009 g / cm^3
# Si number density = 19.544572 Si / 1000 Ang^3
#
#
#
# Elastic Constant Matrix: (Units=GPa)
#
#
# Indices 1 2 3 4 5 6 
#
# 1 114.2971 34.7475 32.7442 0.0000 0.0000 0.0000
# 2 34.7475 114.2966 32.7445 0.0000 0.0000 0.0000
# 3 32.7442 32.7445 83.9933 0.0000 0.0000 0.0000
# 4 0.0000 0.0000 0.0000 8.8743 0.0000 0.0000
# 5 0.0000 0.0000 0.0000 0.0000 8.8747 0.0000
# 6 0.0000 0.0000 0.0000 0.0000 0.0000 31.9991
#
#
#
# Elastic Compliance Matrix: (Units=1/GPa)
#
#
# Indices 1 2 3 4 5 6 
#
# 1 0.010334 -0.002237 -0.003156 0.000000 0.000000 0.000000
# 2 -0.002237 0.010334 -0.003156 0.000000 0.000000 0.000000
# 3 -0.003156 -0.003156 0.014367 0.000000 0.000000 0.000000
# 4 0.000000 0.000000 0.000000 0.112685 0.000000 0.000000
# 5 0.000000 0.000000 0.000000 0.000000 0.112679 0.000000
# 6 0.000000 0.000000 0.000000 0.000000 0.000000 0.031251
#
#
# Mechanical properties :
#
#
# Convention : Reuss Voigt Hill
#
# Bulk Modulus (GPa) = 55.75998 57.00660 56.38329
# Shear Modulus (GPa) = 15.88682 24.10635 19.99658
#
# Velocity S-wave (km/s) = 2.85415 3.51579 3.20211
# Velocity P-wave (km/s) = 6.28117 6.76106 6.52553
#
# Compressibility (1/GPa) = 0.01793401
#
# Stress axis : x y z
#
# Youngs Moduli (GPa) = 96.77262 96.77197 69.60570
#
# Poissons Ratio (x) = 0.21651 0.21969
# Poissons Ratio (y) = 0.21651 0.21970
# Poissons Ratio (z) = 0.30544 0.30544
#
# Static dielectric constant tensor:
#      x y z
#    x 3.755800 0.000000 0.000000 
#    y 0.000000 3.755800 0.000000 
#    z 0.000000 0.000000 3.205980 
# 
# 
# High freq. dielectric constant tensor:
#      x y z
#    x 1.765900 0.000000 0.000000 
#    y 0.000000 1.765900 0.000000 
#    z 0.000000 0.000000 1.723330 
# 
# From -- ./inp_files/6459.got.cif
#   From: 2010.03.12/outbox.cif.g09.slc.cpg/sg128_4_cif.got.tgz:6459.got - 2010.04.06 17:11:05.
