data_PCOD8314608
_publ_section_title
;
Structure prediction by ZEFSAII (Michael W. Deem and Ramdas Pophale) SiO2 
 PCOD8314608
Probable space group: P 4/M N C
;
_chemical_formula_sum "Si O2"
_cell_formula_units_Z 120
_cell_length_a 15.609197
_cell_length_b 15.609197
_cell_length_c 28.963177
_cell_angle_alpha 90.000000
_cell_angle_beta 90.000000
_cell_angle_gamma 90.000000
_cell_volume 7056.792084
_symmetry_space_group_name_H-M "P 4/M N C"
_symmetry_group_IT_number 128
_symmetry_cell_setting 'tetragonal'
loop_
_space_group_symop_operation_xyz
x,y,z
-y,x,z
-x,-y,z
y,-x,z
1/2+x,1/2-y,1/2-z
1/2-x,1/2+y,1/2-z
1/2+y,1/2+x,1/2-z
1/2-y,1/2-x,1/2-z
-x,-y,-z
y,-x,-z
x,y,-z
-y,x,-z
1/2-x,1/2+y,1/2+z
1/2+x,1/2-y,1/2+z
1/2-y,1/2-x,1/2+z
1/2+y,1/2+x,1/2+z
loop_
_atom_site_type_symbol
_atom_site_label
_atom_site_fract_x
_atom_site_fract_y
_atom_site_fract_z
Si Si1 0.208090 0.903151 0.404119
Si Si2 0.663557 0.965790 0.189999
Si Si3 0.365780 0.448084 0.000000
Si Si4 0.732999 0.311451 0.706180
Si Si5 0.402871 0.405668 0.241036
Si Si6 0.659219 0.977814 0.295969
Si Si7 0.317655 0.575086 0.149361
Si Si8 0.154355 0.348973 0.656906
O O1 0.196166 0.925380 0.457487
O O2 0.146701 0.823238 0.390734
O O3 0.307717 0.877545 0.392191
O O4 0.173497 0.983279 0.374463
O O5 0.727211 0.888217 0.174779
O O6 0.686667 0.984243 0.242951
O O7 0.564868 0.932199 0.190971
O O8 0.676829 0.048786 0.156248
O O9 0.451817 0.391005 0.000000
O O10 0.796034 0.296034 0.750000
O O11 0.643006 0.335232 0.728106
O O12 0.713708 0.229415 0.674525
O O13 0.498364 0.379808 0.254891
O O14 0.398260 0.392046 0.185780
O O15 0.728479 0.919544 0.322965
O O16 0.659405 0.076646 0.308135
#
# Coordination Sequence:
#
# PCOD8314608 Si02
#       8
#    16  16   8  16  16  16  16  16
#     4  11  22  35  53  80 108 140 182 221 280 334
#     4  11  19  34  49  70 104 148 194 235 264 306
#     4  11  22  38  62  86 113 139 169 220 287 353
#     4  12  21  33  47  68 103 142 188 234 268 305
#     4  11  21  30  45  68 102 146 185 225 264 312
#     4  10  20  33  49  72 105 143 196 236 263 303
#     4  11  19  31  48  76 110 145 182 225 263 326
#     4  11  24  33  52  73 101 141 185 236 276 323
#
# _framework density 17.004892999999999
#
# number of rings (size 3 to 8) (size 9 to 14) (size 15 to 20)
#    0.000    1.000    5.333    4.000    1.867    1.333 
#    0.000    0.000    0.000    0.000    0.000   11.200 
#    0.000    0.000    0.000    0.000    0.000   12.133 
#
# Total GULP energy -1486789.937390 kJ/mol
# GULP energy per Si atom -12389.916145 kJ/mol
# Density = 1.696619 g / cm^3
# Si number density = 17.004893 Si / 1000 Ang^3
#
#
#
# Elastic Constant Matrix: (Units=GPa)
#
#
# Indices 1 2 3 4 5 6 
#
# 1 147.2729 -39.9345 33.1060 0.0000 0.0000 0.0000
# 2 -39.9345 147.2729 33.1060 0.0000 0.0000 0.0000
# 3 33.1060 33.1060 76.3729 0.0000 0.0000 0.0000
# 4 0.0000 0.0000 0.0000 18.5207 0.0000 0.0000
# 5 0.0000 0.0000 0.0000 0.0000 18.5207 0.0000
# 6 0.0000 0.0000 0.0000 0.0000 0.0000 33.9818
#
#
#
# Elastic Compliance Matrix: (Units=1/GPa)
#
#
# Indices 1 2 3 4 5 6 
#
# 1 0.009029 0.003687 -0.005512 0.000000 0.000000 0.000000
# 2 0.003687 0.009029 -0.005512 0.000000 0.000000 0.000000
# 3 -0.005512 -0.005512 0.017873 0.000000 0.000000 0.000000
# 4 0.000000 0.000000 0.000000 0.053994 0.000000 0.000000
# 5 0.000000 0.000000 0.000000 0.000000 0.053994 0.000000
# 6 0.000000 0.000000 0.000000 0.000000 0.000000 0.029428
#
#
# Mechanical properties :
#
#
# Convention : Reuss Voigt Hill
#
# Bulk Modulus (GPa) = 47.04464 47.05262 47.04863
# Shear Modulus (GPa) = 25.62711 37.18071 31.40391
#
# Velocity S-wave (km/s) = 3.88628 4.68104 4.30205
# Velocity P-wave (km/s) = 6.91831 7.54628 7.23911
#
# Compressibility (1/GPa) = 0.02125641
#
# Stress axis : x y z
#
# Youngs Moduli (GPa) = 110.75224 110.75224 55.95146
#
# Poissons Ratio (x) = -0.40840 0.30843
# Poissons Ratio (y) = -0.40840 0.30843
# Poissons Ratio (z) = 0.61051 0.61051
#
# Static dielectric constant tensor:
#      x y z
#    x 3.377970 0.000000 0.000000 
#    y 0.000000 3.377970 0.000000 
#    z 0.000000 0.000000 2.768620 
# 
# 
# High freq. dielectric constant tensor:
#      x y z
#    x 1.669010 0.000000 0.000000 
#    y 0.000000 1.669010 0.000000 
#    z 0.000000 0.000000 1.584430 
# 
# From -- ./inp_files/7437.got.cif
#   From: 2010.03.12/outbox.cif.g09.slc.cpg/sg128_4_cif.got.tgz:7437.got - 2010.04.06 17:11:05.
