data_PCOD8314337
_publ_section_title
;
Structure prediction by ZEFSAII (Michael W. Deem and Ramdas Pophale) SiO2 
 PCOD8314337
Probable space group: P 4/M B M
;
_chemical_formula_sum "Si O2"
_cell_formula_units_Z 96
_cell_length_a 14.932016
_cell_length_b 14.932016
_cell_length_c 20.762745
_cell_angle_alpha 90.000000
_cell_angle_beta 90.000000
_cell_angle_gamma 90.000000
_cell_volume 4629.367553
_symmetry_space_group_name_H-M "P 4/M B M"
_symmetry_group_IT_number 127
_symmetry_cell_setting 'tetragonal'
loop_
_space_group_symop_operation_xyz
x,y,z
-y,x,z
-x,-y,z
y,-x,z
1/2+x,1/2-y,-z
1/2-x,1/2+y,-z
1/2+y,1/2+x,-z
1/2-y,1/2-x,-z
-x,-y,-z
y,-x,-z
x,y,-z
-y,x,-z
1/2-x,1/2+y,z
1/2+x,1/2-y,z
1/2-y,1/2-x,z
1/2+y,1/2+x,z
loop_
_atom_site_type_symbol
_atom_site_label
_atom_site_fract_x
_atom_site_fract_y
_atom_site_fract_z
Si Si1 0.115275 0.906371 0.227449
Si Si2 0.000179 0.357533 0.203140
Si Si3 0.483990 0.234802 0.068691
Si Si4 0.815182 0.166208 0.099149
Si Si5 0.355295 0.475415 0.425967
Si Si6 0.410114 0.759863 0.682298
O O1 0.176091 0.862355 0.173018
O O2 0.163799 0.872078 0.292678
O O3 0.013775 0.875877 0.223363
O O4 0.923608 0.423608 0.228975
O O5 0.967413 0.318400 0.134859
O O6 0.091677 0.408324 0.186508
O O7 0.019268 0.290193 0.262121
O O8 0.412268 0.315190 0.069191
O O9 0.583531 0.272556 0.061995
O O10 0.469129 0.181528 0.000000
O O11 0.753528 0.253528 0.092606
O O12 0.428423 0.398654 0.410510
O O13 0.325513 0.470223 0.500000
O O14 0.264571 0.460530 0.384239
O O15 0.333162 0.833162 0.669396
#
# Coordination Sequence:
#
# PCOD8314337 Si02
#       6
#    16  16  16  16  16  16
#     4  11  21  37  62  89 117 155 204 255 312 376
#     4  10  22  41  62  84 116 161 213 262 306 365
#     4  12  26  42  62  88 119 158 204 260 329 393
#     4  12  24  42  63  87 119 153 199 259 320 382
#     4   9  19  38  64  93 125 162 202 245 298 360
#     4  11  21  36  60  92 127 162 202 249 306 362
#
# _framework density 20.737172999999999
#
# number of rings (size 3 to 8) (size 9 to 14) (size 15 to 20)
#    0.000    1.167    3.333    3.500    0.000    5.333 
#    0.000    6.667    0.000    1.500    0.000    2.333 
#    0.000    0.000    0.000    0.000    0.000    0.000 
#
# Total GULP energy -1189523.866413 kJ/mol
# GULP energy per Si atom -12390.873608 kJ/mol
# Density = 2.068997 g / cm^3
# Si number density = 20.737173 Si / 1000 Ang^3
#
#
#
# Elastic Constant Matrix: (Units=GPa)
#
#
# Indices 1 2 3 4 5 6 
#
# 1 83.3701 35.3255 43.7142 0.0000 0.0000 0.0000
# 2 35.3255 83.3701 43.7142 0.0000 0.0000 0.0000
# 3 43.7142 43.7142 154.3598 0.0000 0.0000 0.0000
# 4 0.0000 0.0000 0.0000 -82.5062 0.0000 0.0000
# 5 0.0000 0.0000 0.0000 0.0000 -82.5062 0.0000
# 6 0.0000 0.0000 0.0000 0.0000 0.0000 24.3296
#
#
#
# Elastic Compliance Matrix: (Units=1/GPa)
#
#
# Indices 1 2 3 4 5 6 
#
# 1 0.015730 -0.005084 -0.003015 0.000000 0.000000 0.000000
# 2 -0.005084 0.015730 -0.003015 0.000000 0.000000 0.000000
# 3 -0.003015 -0.003015 0.008186 0.000000 0.000000 0.000000
# 4 0.000000 0.000000 0.000000 -0.012120 0.000000 0.000000
# 5 0.000000 0.000000 0.000000 0.000000 -0.012120 0.000000
# 6 0.000000 0.000000 0.000000 0.000000 0.000000 0.041102
#
#
# Mechanical properties :
#
#
# Convention : Reuss Voigt Hill
#
# Bulk Modulus (GPa) = 57.41229 62.95638 60.18434
# Shear Modulus (GPa) = 59.14318 -14.91350 22.11484
#
# Velocity S-wave (km/s) = 5.34624 -2.68464 3.26917
# Velocity P-wave (km/s) = 8.11514 4.56239 6.58297
#
# Compressibility (1/GPa) = 0.01741787
#
# Stress axis : x y z
#
# Youngs Moduli (GPa) = 63.57376 63.57376 122.16093
#
# Poissons Ratio (x) = 0.32322 0.36829
# Poissons Ratio (y) = 0.32322 0.36829
# Poissons Ratio (z) = 0.19166 0.19166
#
# Static dielectric constant tensor:
#      x y z
#    x 3.780800 0.000000 0.000000 
#    y 0.000000 3.780800 0.000000 
#    z 0.000000 0.000000 3.883210 
# 
# 
# High freq. dielectric constant tensor:
#      x y z
#    x 1.805020 0.000000 0.000000 
#    y 0.000000 1.805020 0.000000 
#    z 0.000000 0.000000 1.816340 
# 
# From -- ./inp_files/5761.got.cif
#   From: 2010.03.12/outbox.cif.g09.slc.cpg/sg127_3_cif.got.tgz:5761.got - 2010.04.06 17:03:15.
