data_PCOD8314590
_publ_section_title
;
Structure prediction by ZEFSAII (Michael W. Deem and Ramdas Pophale) SiO2 
 PCOD8314590
Probable space group: P 4/M N C
;
_chemical_formula_sum "Si O2"
_cell_formula_units_Z 88
_cell_length_a 18.103918
_cell_length_b 18.103918
_cell_length_c 14.036612
_cell_angle_alpha 90.000000
_cell_angle_beta 90.000000
_cell_angle_gamma 90.000000
_cell_volume 4600.525508
_symmetry_space_group_name_H-M "P 4/M N C"
_symmetry_group_IT_number 128
_symmetry_cell_setting 'tetragonal'
loop_
_space_group_symop_operation_xyz
x,y,z
-y,x,z
-x,-y,z
y,-x,z
1/2+x,1/2-y,1/2-z
1/2-x,1/2+y,1/2-z
1/2+y,1/2+x,1/2-z
1/2-y,1/2-x,1/2-z
-x,-y,-z
y,-x,-z
x,y,-z
-y,x,-z
1/2-x,1/2+y,1/2+z
1/2+x,1/2-y,1/2+z
1/2-y,1/2-x,1/2+z
1/2+y,1/2+x,1/2+z
loop_
_atom_site_type_symbol
_atom_site_label
_atom_site_fract_x
_atom_site_fract_y
_atom_site_fract_z
Si Si1 0.326362 0.354355 0.752440
Si Si2 0.197430 0.018543 0.800622
Si Si3 0.878634 0.993340 0.000000
Si Si4 0.894598 0.583604 0.108697
Si Si5 0.478117 0.138703 0.732007
Si Si6 0.782078 0.714985 0.391016
O O1 0.312051 0.442144 0.756802
O O2 0.415018 0.344951 0.753071
O O3 0.292075 0.314724 0.659058
O O4 0.289016 0.315755 0.844171
O O5 0.282069 0.042002 0.808680
O O6 0.171264 0.007336 0.907594
O O7 0.931019 0.923163 0.000000
O O8 0.851476 0.521723 0.168422
O O9 0.851705 0.660325 0.118810
O O10 0.975587 0.592847 0.153928
O O11 0.901296 0.557436 0.000000
O O12 0.401340 0.098661 0.750000
O O13 0.763345 0.733611 0.500000
#
# Coordination Sequence:
#
# PCOD8314590 Si02
#       6
#    16  16   8  16  16  16
#     4  11  23  41  63  90 127 162 205 255 311 365
#     4  12  24  40  61  89 127 164 199 256 310 367
#     4  11  24  40  62  96 123 158 204 256 318 383
#     4  10  19  38  65  85 116 163 204 247 306 366
#     4  11  23  37  56  90 126 156 203 253 304 366
#     4  10  21  41  66  89 119 166 209 248 307 377
#
# _framework density 19.128249
#
# number of rings (size 3 to 8) (size 9 to 14) (size 15 to 20)
#    0.000    1.182    5.455    2.182    6.364    1.818 
#    0.000    1.818    0.000    0.000    0.000    1.273 
#    0.000    0.000    0.000    0.000    0.000    0.000 
#
# Total GULP energy -1091492.084419 kJ/mol
# GULP energy per Si atom -12403.319141 kJ/mol
# Density = 1.908471 g / cm^3
# Si number density = 19.128249 Si / 1000 Ang^3
#
#
#
# Elastic Constant Matrix: (Units=GPa)
#
#
# Indices 1 2 3 4 5 6 
#
# 1 100.9318 34.1283 30.3708 0.0000 0.0000 0.0000
# 2 34.1283 100.9317 30.3704 0.0000 0.0000 0.0000
# 3 30.3708 30.3704 126.8975 0.0000 0.0000 0.0000
# 4 0.0000 0.0000 0.0000 -30.5779 0.0000 0.0000
# 5 0.0000 0.0000 0.0000 0.0000 -30.5385 0.0000
# 6 0.0000 0.0000 0.0000 0.0000 0.0000 32.0134
#
#
#
# Elastic Compliance Matrix: (Units=1/GPa)
#
#
# Indices 1 2 3 4 5 6 
#
# 1 0.011633 -0.003336 -0.001986 0.000000 0.000000 0.000000
# 2 -0.003336 0.011633 -0.001986 0.000000 0.000000 0.000000
# 3 -0.001986 -0.001986 0.008831 0.000000 0.000000 0.000000
# 4 0.000000 0.000000 0.000000 -0.032703 0.000000 0.000000
# 5 0.000000 0.000000 0.000000 0.000000 -0.032746 0.000000
# 6 0.000000 0.000000 0.000000 0.000000 0.000000 0.031237
#
#
# Mechanical properties :
#
#
# Convention : Reuss Voigt Hill
#
# Bulk Modulus (GPa) = 57.20121 57.61112 57.40616
# Shear Modulus (GPa) = 272.80745 9.77217 141.28981
#
# Velocity S-wave (km/s) = 11.95533 2.26271 8.60377
# Velocity P-wave (km/s) = 14.85066 6.08360 11.34796
#
# Compressibility (1/GPa) = 0.01748215
#
# Stress axis : x y z
#
# Youngs Moduli (GPa) = 85.96052 85.96064 113.23877
#
# Poissons Ratio (x) = 0.28677 0.22487
# Poissons Ratio (y) = 0.28677 0.22486
# Poissons Ratio (z) = 0.17070 0.17070
#
# Static dielectric constant tensor:
#      x y z
#    x 3.531820 0.000000 0.000000 
#    y 0.000000 3.531820 0.000000 
#    z 0.000000 0.000000 3.504510 
# 
# 
# High freq. dielectric constant tensor:
#      x y z
#    x 1.745590 0.000000 0.000000 
#    y 0.000000 1.745590 0.000000 
#    z 0.000000 0.000000 1.733730 
# 
# From -- ./inp_files/3873.got.cif
#   From: 2010.03.12/outbox.cif.g09.slc.cpg/sg128_2_cif.got.tgz:3873.got - 2010.04.06 17:11:05.
