data_PCOD8314661
_publ_section_title
;
Structure prediction by ZEFSAII (Michael W. Deem and Ramdas Pophale) SiO2 
 PCOD8314661
Probable space group: P 4/M N C
;
_chemical_formula_sum "Si O2"
_cell_formula_units_Z 88
_cell_length_a 12.231859
_cell_length_b 12.231859
_cell_length_c 32.350174
_cell_angle_alpha 90.000000
_cell_angle_beta 90.000000
_cell_angle_gamma 90.000000
_cell_volume 4840.180452
_symmetry_space_group_name_H-M "P 4/M N C"
_symmetry_group_IT_number 128
_symmetry_cell_setting 'tetragonal'
loop_
_space_group_symop_operation_xyz
x,y,z
-y,x,z
-x,-y,z
y,-x,z
1/2+x,1/2-y,1/2-z
1/2-x,1/2+y,1/2-z
1/2+y,1/2+x,1/2-z
1/2-y,1/2-x,1/2-z
-x,-y,-z
y,-x,-z
x,y,-z
-y,x,-z
1/2-x,1/2+y,1/2+z
1/2+x,1/2-y,1/2+z
1/2-y,1/2-x,1/2+z
1/2+y,1/2+x,1/2+z
loop_
_atom_site_type_symbol
_atom_site_label
_atom_site_fract_x
_atom_site_fract_y
_atom_site_fract_z
Si Si1 0.888414 0.388414 0.750000
Si Si2 0.699363 0.720359 0.916358
Si Si3 0.509216 0.220948 0.869789
Si Si4 0.668274 0.450785 0.788180
Si Si5 0.000000 0.500000 0.322336
Si Si6 0.635845 0.617438 0.000000
Si Si7 0.119216 0.866289 0.952322
O O1 0.763682 0.410980 0.759066
O O2 0.905476 0.463568 0.709448
O O3 0.732956 0.626124 0.883973
O O4 0.583083 0.777803 0.905652
O O5 0.695203 0.663419 0.960296
O O6 0.791024 0.814513 0.920005
O O7 0.452638 0.298808 0.836079
O O8 0.533536 0.100397 0.851741
O O9 0.633901 0.573511 0.777679
O O10 0.511058 0.652002 0.000000
O O11 0.991240 0.847796 0.943656
O O12 0.145168 0.835604 0.000000
#
# Coordination Sequence:
#
# PCOD8314661 Si02
#       7
#     8  16  16  16   8   8  16
#     4   9  20  40  64  85 118 152 190 235 286 354
#     4  12  22  36  57  86 117 157 197 250 293 361
#     4  11  23  36  57  85 122 156 193 234 304 344
#     4  10  20  37  61  90 116 151 195 233 280 353
#     4   9  22  42  56  89 116 150 188 237 294 354
#     4  11  22  36  52  77 120 158 196 243 296 352
#     4   9  20  39  60  80 108 153 207 254 300 353
#
# _framework density 18.181139999999999
#
# number of rings (size 3 to 8) (size 9 to 14) (size 15 to 20)
#    0.000    1.727    4.545    0.545    2.545    3.273 
#    0.000    0.000    0.000    4.364    0.000    0.000 
#    0.000    0.000    0.000    0.000    0.000    0.000 
#
# Total GULP energy -1090748.213884 kJ/mol
# GULP energy per Si atom -12394.866067 kJ/mol
# Density = 1.813976 g / cm^3
# Si number density = 18.181140 Si / 1000 Ang^3
#
#
#
# Elastic Constant Matrix: (Units=GPa)
#
#
# Indices 1 2 3 4 5 6 
#
# 1 165.9946 -6.3058 29.4141 0.0000 0.0000 0.0000
# 2 -6.3058 165.9946 29.4141 0.0000 0.0000 0.0000
# 3 29.4141 29.4141 59.9559 0.0000 0.0000 0.0000
# 4 0.0000 0.0000 0.0000 45.3256 0.0000 0.0000
# 5 0.0000 0.0000 0.0000 0.0000 45.3256 0.0000
# 6 0.0000 0.0000 0.0000 0.0000 0.0000 8.6275
#
#
#
# Elastic Compliance Matrix: (Units=1/GPa)
#
#
# Indices 1 2 3 4 5 6 
#
# 1 0.006724 0.000920 -0.003750 0.000000 0.000000 0.000000
# 2 0.000920 0.006724 -0.003750 0.000000 0.000000 0.000000
# 3 -0.003750 -0.003750 0.020358 0.000000 0.000000 0.000000
# 4 0.000000 0.000000 0.000000 0.022063 0.000000 0.000000
# 5 0.000000 0.000000 0.000000 0.000000 0.022063 0.000000
# 6 0.000000 0.000000 0.000000 0.000000 0.000000 0.115908
#
#
# Mechanical properties :
#
#
# Convention : Reuss Voigt Hill
#
# Bulk Modulus (GPa) = 48.43587 55.22108 51.82848
# Shear Modulus (GPa) = 23.37749 42.48393 32.93071
#
# Velocity S-wave (km/s) = 3.58971 4.83919 4.26050
# Velocity P-wave (km/s) = 6.62419 7.85254 7.26437
#
# Compressibility (1/GPa) = 0.02064586
#
# Stress axis : x y z
#
# Youngs Moduli (GPa) = 148.72713 148.72713 49.12001
#
# Poissons Ratio (x) = -0.13681 0.18420
# Poissons Ratio (y) = -0.13681 0.18420
# Poissons Ratio (z) = 0.55772 0.55772
#
# Static dielectric constant tensor:
#      x y z
#    x 3.333080 0.000000 0.000000 
#    y 0.000000 3.333080 0.000000 
#    z 0.000000 0.000000 3.370720 
# 
# 
# High freq. dielectric constant tensor:
#      x y z
#    x 1.707130 0.000000 0.000000 
#    y 0.000000 1.707130 0.000000 
#    z 0.000000 0.000000 1.699430 
# 
# From -- ./inp_files/7323.got.cif
#   From: 2010.03.12/outbox.cif.g09.slc.cpg/sg128_4_cif.got.tgz:7323.got - 2010.04.06 17:11:05.
