data_PCOD8314188
_publ_section_title
;
Structure prediction by ZEFSAII (Michael W. Deem and Ramdas Pophale) SiO2 
 PCOD8314188
Probable space group: P 4/M B M
;
_chemical_formula_sum "Si O2"
_cell_formula_units_Z 88
_cell_length_a 18.214012
_cell_length_b 18.214012
_cell_length_c 13.581591
_cell_angle_alpha 90.000000
_cell_angle_beta 90.000000
_cell_angle_gamma 90.000000
_cell_volume 4505.695981
_symmetry_space_group_name_H-M "P 4/M B M"
_symmetry_group_IT_number 127
_symmetry_cell_setting 'tetragonal'
loop_
_space_group_symop_operation_xyz
x,y,z
-y,x,z
-x,-y,z
y,-x,z
1/2+x,1/2-y,-z
1/2-x,1/2+y,-z
1/2+y,1/2+x,-z
1/2-y,1/2-x,-z
-x,-y,-z
y,-x,-z
x,y,-z
-y,x,-z
1/2-x,1/2+y,z
1/2+x,1/2-y,z
1/2-y,1/2-x,z
1/2+y,1/2+x,z
loop_
_atom_site_type_symbol
_atom_site_label
_atom_site_fract_x
_atom_site_fract_y
_atom_site_fract_z
Si Si1 0.406719 0.906719 0.615527
Si Si2 0.029482 0.805320 0.203711
Si Si3 0.300283 0.800283 0.285232
Si Si4 0.122039 0.377962 0.113585
Si Si5 0.157678 0.883383 0.698462
Si Si6 0.030164 0.881027 0.000000
Si Si7 0.858930 0.479668 0.771594
Si Si8 0.943818 0.892209 0.500000
O O1 0.420744 0.920744 0.500000
O O2 0.344966 0.844966 0.631464
O O3 0.481766 0.879037 0.667407
O O4 0.076067 0.857909 0.274817
O O5 0.054018 0.722453 0.227939
O O6 0.943351 0.814523 0.223678
O O7 0.045334 0.828566 0.092244
O O8 0.325122 0.825122 0.176371
O O9 0.315035 0.713894 0.299369
O O10 0.137919 0.462496 0.139176
O O11 0.137804 0.362197 0.000000
O O12 0.156520 0.920626 0.592351
O O13 0.947727 0.912228 0.000000
O O14 0.914758 0.414758 0.793744
O O15 0.030692 0.902142 0.500000
#
# Coordination Sequence:
#
# PCOD8314188 Si02
#       8
#     8  16   8   8  16   8  16   8
#     4  10  20  40  71  94 122 170 213 260 318 382
#     4  12  24  42  65  91 130 167 210 265 318 373
#     4  10  24  42  63  96 128 167 206 260 322 378
#     4  10  20  40  67  90 122 166 209 256 312 372
#     4  12  24  43  66  91 128 169 208 260 316 378
#     4  11  24  40  65  93 122 169 222 262 314 379
#     4  10  23  41  62  94 127 163 211 266 314 372
#     4  11  24  39  66  98 124 164 215 262 313 372
#
# _framework density 19.530833999999999
#
# number of rings (size 3 to 8) (size 9 to 14) (size 15 to 20)
#    0.000    1.273    7.273    1.091    3.818    1.818 
#    3.273    0.000    0.000    0.000    0.000    0.000 
#    0.000    0.000    0.000    0.000    0.000    0.000 
#
# Total GULP energy -1091453.184578 kJ/mol
# GULP energy per Si atom -12402.877097 kJ/mol
# Density = 1.948638 g / cm^3
# Si number density = 19.530834 Si / 1000 Ang^3
#
#
#
# Elastic Constant Matrix: (Units=GPa)
#
#
# Indices 1 2 3 4 5 6 
#
# 1 78.3028 28.9689 22.5715 0.0000 0.0000 0.0000
# 2 28.9689 78.3028 22.5716 0.0000 0.0000 0.0000
# 3 22.5715 22.5716 120.7213 0.0000 0.0000 0.0000
# 4 0.0000 0.0000 0.0000 14.0470 0.0000 0.0000
# 5 0.0000 0.0000 0.0000 0.0000 14.0470 0.0000
# 6 0.0000 0.0000 0.0000 0.0000 0.0000 34.0524
#
#
#
# Elastic Compliance Matrix: (Units=1/GPa)
#
#
# Indices 1 2 3 4 5 6 
#
# 1 0.015194 -0.005076 -0.001892 0.000000 0.000000 0.000000
# 2 -0.005076 0.015194 -0.001892 0.000000 0.000000 0.000000
# 3 -0.001892 -0.001892 0.008991 0.000000 0.000000 0.000000
# 4 0.000000 0.000000 0.000000 0.071190 0.000000 0.000000
# 5 0.000000 0.000000 0.000000 0.000000 0.071190 0.000000
# 6 0.000000 0.000000 0.000000 0.000000 0.000000 0.029367
#
#
# Mechanical properties :
#
#
# Convention : Reuss Voigt Hill
#
# Bulk Modulus (GPa) = 46.16769 47.28343 46.72556
# Shear Modulus (GPa) = 21.18066 25.97692 23.57879
#
# Velocity S-wave (km/s) = 3.29671 3.65094 3.47833
# Velocity P-wave (km/s) = 6.17905 6.48341 6.33306
#
# Compressibility (1/GPa) = 0.02166017
#
# Stress axis : x y z
#
# Youngs Moduli (GPa) = 65.81477 65.81482 111.22246
#
# Poissons Ratio (x) = 0.33407 0.21041
# Poissons Ratio (y) = 0.33407 0.21042
# Poissons Ratio (z) = 0.12451 0.12451
#
# Static dielectric constant tensor:
#      x y z
#    x 3.503240 0.000000 0.000000 
#    y 0.000000 3.503240 0.000000 
#    z 0.000000 0.000000 3.422500 
# 
# 
# High freq. dielectric constant tensor:
#      x y z
#    x 1.758280 0.000000 0.000000 
#    y 0.000000 1.758280 0.000000 
#    z 0.000000 0.000000 1.756170 
# 
# From -- ./inp_files/4484.got.cif
#   From: 2010.03.12/outbox.cif.g09.slc.cpg/sg127_3_cif.got.tgz:4484.got - 2010.04.06 17:03:15.
