data_PCOD8314476
_publ_section_title
;
Structure prediction by ZEFSAII (Michael W. Deem and Ramdas Pophale) SiO2 
 PCOD8314476
Probable space group: P 4/M B M
;
_chemical_formula_sum "Si O2"
_cell_formula_units_Z 72
_cell_length_a 20.947273
_cell_length_b 20.947273
_cell_length_c 9.946278
_cell_angle_alpha 90.000000
_cell_angle_beta 90.000000
_cell_angle_gamma 90.000000
_cell_volume 4364.309879
_symmetry_space_group_name_H-M "P 4/M B M"
_symmetry_group_IT_number 127
_symmetry_cell_setting 'tetragonal'
loop_
_space_group_symop_operation_xyz
x,y,z
-y,x,z
-x,-y,z
y,-x,z
1/2+x,1/2-y,-z
1/2-x,1/2+y,-z
1/2+y,1/2+x,-z
1/2-y,1/2-x,-z
-x,-y,-z
y,-x,-z
x,y,-z
-y,x,-z
1/2-x,1/2+y,z
1/2+x,1/2-y,z
1/2-y,1/2-x,z
1/2+y,1/2+x,z
loop_
_atom_site_type_symbol
_atom_site_label
_atom_site_fract_x
_atom_site_fract_y
_atom_site_fract_z
Si Si1 0.133669 0.130996 0.847019
Si Si2 0.194510 0.997720 0.155057
Si Si3 0.303446 0.037786 0.657156
Si Si4 0.232194 0.165752 0.646306
Si Si5 0.448461 0.051540 0.340480
O O1 0.060806 0.147370 0.815279
O O2 0.177191 0.175368 0.754734
O O3 0.149543 0.057865 0.811097
O O4 0.151157 0.146625 0.000000
O O5 0.257078 0.993904 0.250694
O O6 0.217805 0.998624 0.000000
O O7 0.296684 0.018162 0.500000
O O8 0.282497 0.110465 0.682987
O O9 0.376996 0.031778 0.707168
O O10 0.201745 0.150953 0.500000
O O11 0.267575 0.232426 0.642638
O O12 0.448075 0.051926 0.500000
O O13 0.500000 0.000000 0.284662
#
# Coordination Sequence:
#
# PCOD8314476 Si02
#       5
#    16  16  16  16   8
#     4   9  18  31  47  68  94 124 159 195 235 282
#     4   9  18  32  48  68  94 124 158 196 237 280
#     4   9  16  29  49  70  93 120 151 191 234 274
#     4   9  16  28  47  69  91 116 152 196 237 276
#     4   9  16  28  49  75  97 121 157 193 229 280
#
# _framework density 16.497453
#
# number of rings (size 3 to 8) (size 9 to 14) (size 15 to 20)
#    0.000    3.000    1.111    0.000    0.000    1.778 
#    0.000    3.889    0.000    5.333    0.000    6.222 
#    0.000    0.000    0.000    0.000    0.000    0.000 
#
# Total GULP energy -892390.460059 kJ/mol
# GULP energy per Si atom -12394.311945 kJ/mol
# Density = 1.645990 g / cm^3
# Si number density = 16.497453 Si / 1000 Ang^3
#
#
#
# Elastic Constant Matrix: (Units=GPa)
#
#
# Indices 1 2 3 4 5 6 
#
# 1 91.8190 50.6058 49.8195 0.0000 0.0000 0.0000
# 2 50.6058 91.8189 49.8194 0.0000 0.0000 0.0000
# 3 49.8195 49.8194 71.5713 0.0000 0.0000 0.0000
# 4 0.0000 0.0000 0.0000 25.2249 0.0000 0.0000
# 5 0.0000 0.0000 0.0000 0.0000 25.2249 0.0000
# 6 0.0000 0.0000 0.0000 0.0000 0.0000 22.1554
#
#
#
# Elastic Compliance Matrix: (Units=1/GPa)
#
#
# Indices 1 2 3 4 5 6 
#
# 1 0.018975 -0.005289 -0.009527 0.000000 0.000000 0.000000
# 2 -0.005289 0.018975 -0.009526 0.000000 0.000000 0.000000
# 3 -0.009527 -0.009526 0.027235 0.000000 0.000000 0.000000
# 4 0.000000 0.000000 0.000000 0.039643 0.000000 0.000000
# 5 0.000000 0.000000 0.000000 0.000000 0.039643 0.000000
# 6 0.000000 0.000000 0.000000 0.000000 0.000000 0.045136
#
#
# Mechanical properties :
#
#
# Convention : Reuss Voigt Hill
#
# Bulk Modulus (GPa) = 60.60491 61.74430 61.17461
# Shear Modulus (GPa) = 20.50936 21.51869 21.01402
#
# Velocity S-wave (km/s) = 3.52971 3.61552 3.57287
# Velocity P-wave (km/s) = 7.30941 7.41196 7.36086
#
# Compressibility (1/GPa) = 0.01650031
#
# Stress axis : x y z
#
# Youngs Moduli (GPa) = 52.70093 52.70096 36.71808
#
# Poissons Ratio (x) = 0.27874 0.34980
# Poissons Ratio (y) = 0.27874 0.34979
# Poissons Ratio (z) = 0.50206 0.50206
#
# Static dielectric constant tensor:
#      x y z
#    x 3.077190 0.000000 0.000000 
#    y 0.000000 3.077200 0.000000 
#    z 0.000000 0.000000 3.165740 
# 
# 
# High freq. dielectric constant tensor:
#      x y z
#    x 1.622560 0.000000 0.000000 
#    y 0.000000 1.622560 0.000000 
#    z 0.000000 0.000000 1.628680 
# 
# From -- ./inp_files/1508.got.cif
#   From: 2010.03.12/outbox.cif.g09.slc.cpg/sg127_1_cif.got.tgz:1508.got - 2010.04.06 17:03:15.
