data_PCOD8314276
_publ_section_title
;
Structure prediction by ZEFSAII (Michael W. Deem and Ramdas Pophale) SiO2 
 PCOD8314276
Probable space group: P 4/M B M
;
_chemical_formula_sum "Si O2"
_cell_formula_units_Z 96
_cell_length_a 20.329309
_cell_length_b 20.329309
_cell_length_c 12.212002
_cell_angle_alpha 90.000000
_cell_angle_beta 90.000000
_cell_angle_gamma 90.000000
_cell_volume 5046.986010
_symmetry_space_group_name_H-M "P 4/M B M"
_symmetry_group_IT_number 127
_symmetry_cell_setting 'tetragonal'
loop_
_space_group_symop_operation_xyz
x,y,z
-y,x,z
-x,-y,z
y,-x,z
1/2+x,1/2-y,-z
1/2-x,1/2+y,-z
1/2+y,1/2+x,-z
1/2-y,1/2-x,-z
-x,-y,-z
y,-x,-z
x,y,-z
-y,x,-z
1/2-x,1/2+y,z
1/2+x,1/2-y,z
1/2-y,1/2-x,z
1/2+y,1/2+x,z
loop_
_atom_site_type_symbol
_atom_site_label
_atom_site_fract_x
_atom_site_fract_y
_atom_site_fract_z
Si Si1 0.222626 0.382995 0.623757
Si Si2 0.944610 0.444610 0.368965
Si Si3 0.862984 0.104492 0.302338
Si Si4 0.591839 0.443664 0.500000
Si Si5 0.472828 0.323689 0.788453
Si Si6 0.005863 0.109612 0.000000
Si Si7 0.175635 0.500397 0.234945
Si Si8 0.498280 0.108366 0.000000
O O1 0.228980 0.413651 0.500000
O O2 0.184874 0.315127 0.616057
O O3 0.292753 0.363608 0.674355
O O4 0.184735 0.430065 0.707737
O O5 0.936393 0.436393 0.500000
O O6 0.875840 0.462623 0.312728
O O7 0.000000 0.500000 0.342683
O O8 0.914619 0.128057 0.394895
O O9 0.901717 0.139741 0.202568
O O10 0.855362 0.025388 0.297510
O O11 0.590085 0.520696 0.500000
O O12 0.510024 0.339174 0.900806
O O13 0.462537 0.245970 0.767555
O O14 0.067532 0.060976 0.000000
O O15 0.151378 0.493998 0.109890
O O16 0.427054 0.072947 0.000000
O O17 0.554902 0.054902 0.000000
#
# Coordination Sequence:
#
# PCOD8314276 Si02
#       8
#    16   8  16   8  16   8  16   8
#     4  10  21  38  59  85 118 160 202 243 298 364
#     4  11  22  41  67  95 125 158 203 265 323 368
#     4  11  21  36  56  82 117 155 198 245 295 348
#     4  11  20  30  53  82 114 148 191 242 296 341
#     4  11  23  38  58  85 121 159 198 247 301 358
#     4  11  21  36  64  89 115 157 208 251 298 358
#     4  11  23  39  63  91 125 156 200 253 309 376
#     4  11  21  38  66  92 117 149 193 249 313 366
#
# _framework density 19.021253000000002
#
# number of rings (size 3 to 8) (size 9 to 14) (size 15 to 20)
#    0.000    1.167    5.000    2.500    0.000    1.667 
#    3.000    0.000    0.000    0.000    0.000    1.167 
#    0.000    0.000    0.000    0.000    0.000    0.000 
#
# Total GULP energy -1189447.035170 kJ/mol
# GULP energy per Si atom -12390.073283 kJ/mol
# Density = 1.897796 g / cm^3
# Si number density = 19.021253 Si / 1000 Ang^3
#
#
#
# Elastic Constant Matrix: (Units=GPa)
#
#
# Indices 1 2 3 4 5 6 
#
# 1 98.8563 51.4892 26.8988 0.0000 0.0000 0.0000
# 2 51.4892 98.8556 26.8988 0.0000 0.0000 0.0000
# 3 26.8988 26.8988 95.2757 0.0000 0.0000 0.0000
# 4 0.0000 0.0000 0.0000 24.9308 0.0000 0.0000
# 5 0.0000 0.0000 0.0000 0.0000 24.9307 0.0000
# 6 0.0000 0.0000 0.0000 0.0000 0.0000 23.3945
#
#
#
# Elastic Compliance Matrix: (Units=1/GPa)
#
#
# Indices 1 2 3 4 5 6 
#
# 1 0.014255 -0.006857 -0.002089 0.000000 0.000000 0.000000
# 2 -0.006857 0.014255 -0.002089 0.000000 0.000000 0.000000
# 3 -0.002089 -0.002089 0.011675 0.000000 0.000000 0.000000
# 4 0.000000 0.000000 0.000000 0.040111 0.000000 0.000000
# 5 0.000000 0.000000 0.000000 0.000000 0.040111 0.000000
# 6 0.000000 0.000000 0.000000 0.000000 0.000000 0.042745
#
#
# Mechanical properties :
#
#
# Convention : Reuss Voigt Hill
#
# Bulk Modulus (GPa) = 55.19533 55.95123 55.57328
# Shear Modulus (GPa) = 26.14228 27.16459 26.65343
#
# Velocity S-wave (km/s) = 3.71127 3.78314 3.74738
# Velocity P-wave (km/s) = 6.88807 6.96864 6.92847
#
# Compressibility (1/GPa) = 0.01811748
#
# Stress axis : x y z
#
# Youngs Moduli (GPa) = 70.14937 70.14888 85.65057
#
# Poissons Ratio (x) = 0.48098 0.17891
# Poissons Ratio (y) = 0.48098 0.17891
# Poissons Ratio (z) = 0.14653 0.14653
#
# Static dielectric constant tensor:
#      x y z
#    x 3.379090 0.000000 0.000000 
#    y 0.000000 3.379100 0.000000 
#    z 0.000000 0.000000 3.707320 
# 
# 
# High freq. dielectric constant tensor:
#      x y z
#    x 1.729050 0.000000 0.000000 
#    y 0.000000 1.729050 0.000000 
#    z 0.000000 0.000000 1.757030 
# 
# From -- ./inp_files/3639.got.cif
#   From: 2010.03.12/outbox.cif.g09.slc.cpg/sg127_2_cif.got.tgz:3639.got - 2010.04.06 17:03:15.
