data_PCOD8314092
_publ_section_title
;
Structure prediction by ZEFSAII (Michael W. Deem and Ramdas Pophale) SiO2 
 PCOD8314092
Probable space group: P 4/M B M
;
_chemical_formula_sum "Si O2"
_cell_formula_units_Z 112
_cell_length_a 15.385426
_cell_length_b 15.385426
_cell_length_c 23.646758
_cell_angle_alpha 90.000000
_cell_angle_beta 90.000000
_cell_angle_gamma 90.000000
_cell_volume 5597.455612
_symmetry_space_group_name_H-M "P 4/M B M"
_symmetry_group_IT_number 127
_symmetry_cell_setting 'tetragonal'
loop_
_space_group_symop_operation_xyz
x,y,z
-y,x,z
-x,-y,z
y,-x,z
1/2+x,1/2-y,-z
1/2-x,1/2+y,-z
1/2+y,1/2+x,-z
1/2-y,1/2-x,-z
-x,-y,-z
y,-x,-z
x,y,-z
-y,x,-z
1/2-x,1/2+y,z
1/2+x,1/2-y,z
1/2-y,1/2-x,z
1/2+y,1/2+x,z
loop_
_atom_site_type_symbol
_atom_site_label
_atom_site_fract_x
_atom_site_fract_y
_atom_site_fract_z
Si Si1 0.247495 0.109455 0.229758
Si Si2 0.752783 0.109897 0.063947
Si Si3 0.101448 0.898325 0.853169
Si Si4 0.859769 0.499875 0.146388
Si Si5 0.397713 0.247495 0.643152
Si Si6 0.141070 0.495124 0.437085
Si Si7 0.608172 0.407759 0.563213
O O1 0.302979 0.197022 0.230512
O O2 0.155313 0.135397 0.201100
O O3 0.228383 0.075444 0.292978
O O4 0.298997 0.032669 0.197431
O O5 0.697349 0.197349 0.065644
O O6 0.845958 0.134484 0.091777
O O7 0.702234 0.031973 0.095813
O O8 0.768990 0.078433 0.000000
O O9 0.999869 0.878517 0.852821
O O10 0.920761 0.579240 0.168158
O O11 0.920714 0.420714 0.124242
O O12 0.323623 0.176378 0.643756
O O13 0.482863 0.213091 0.609743
O O14 0.360893 0.331419 0.609729
O O15 0.183698 0.491095 0.500000
O O16 0.097669 0.402332 0.422104
O O17 0.067906 0.567906 0.437011
O O18 0.619916 0.510192 0.573009
O O19 0.638575 0.382174 0.500000
#
# Coordination Sequence:
#
# PCOD8314092 Si02
#       7
#    16  16  16  16  16  16  16
#     4  10  21  38  57  81 116 152 192 240 290 343
#     4  10  21  39  64  92 120 151 188 233 291 351
#     4  11  23  40  61  83 110 150 196 238 286 343
#     4   9  18  36  62  88 117 154 192 234 285 340
#     4  10  20  33  55  85 113 144 185 236 289 341
#     4   8  14  26  46  75 113 152 183 216 270 339
#     4   9  19  37  58  77 103 144 190 233 277 328
#
# _framework density 20.00909
#
# number of rings (size 3 to 8) (size 9 to 14) (size 15 to 20)
#    0.000    2.429    1.429    1.714    0.000    3.429 
#    0.000    7.143    0.000    0.857    0.000    0.000 
#    0.000    0.000    0.000    0.000    0.000    0.000 
#
# Total GULP energy -1388064.709528 kJ/mol
# GULP energy per Si atom -12393.434906 kJ/mol
# Density = 1.996355 g / cm^3
# Si number density = 20.009090 Si / 1000 Ang^3
#
#
#
# Elastic Constant Matrix: (Units=GPa)
#
#
# Indices 1 2 3 4 5 6 
#
# 1 87.3732 12.4517 54.0936 0.0000 0.0000 0.0000
# 2 12.4517 87.3732 54.0936 0.0000 0.0000 0.0000
# 3 54.0936 54.0936 171.9503 0.0000 0.0000 0.0000
# 4 0.0000 0.0000 0.0000 24.1285 0.0000 0.0000
# 5 0.0000 0.0000 0.0000 0.0000 24.1285 0.0000
# 6 0.0000 0.0000 0.0000 0.0000 0.0000 8.1724
#
#
#
# Elastic Compliance Matrix: (Units=1/GPa)
#
#
# Indices 1 2 3 4 5 6 
#
# 1 0.014274 0.000926 -0.004782 0.000000 0.000000 0.000000
# 2 0.000926 0.014274 -0.004782 0.000000 0.000000 0.000000
# 3 -0.004782 -0.004782 0.008824 0.000000 0.000000 0.000000
# 4 0.000000 0.000000 0.000000 0.041445 0.000000 0.000000
# 5 0.000000 0.000000 0.000000 0.000000 0.041445 0.000000
# 6 0.000000 0.000000 0.000000 0.000000 0.000000 0.122363
#
#
# Mechanical properties :
#
#
# Convention : Reuss Voigt Hill
#
# Bulk Modulus (GPa) = 49.75861 65.33048 57.54455
# Shear Modulus (GPa) = 18.75486 26.35638 22.55562
#
# Velocity S-wave (km/s) = 3.06489 3.63329 3.36112
# Velocity P-wave (km/s) = 6.11937 7.09382 6.62454
#
# Compressibility (1/GPa) = 0.02009702
#
# Stress axis : x y z
#
# Youngs Moduli (GPa) = 70.05966 70.05966 113.32525
#
# Poissons Ratio (x) = -0.06489 0.54189
# Poissons Ratio (y) = -0.06489 0.54189
# Poissons Ratio (z) = 0.33500 0.33500
#
# Static dielectric constant tensor:
#      x y z
#    x 3.660530 0.000000 0.000000 
#    y 0.000000 3.660530 0.000000 
#    z 0.000000 0.000000 3.772070 
# 
# 
# High freq. dielectric constant tensor:
#      x y z
#    x 1.778220 0.000000 0.000000 
#    y 0.000000 1.778220 0.000000 
#    z 0.000000 0.000000 1.769900 
# 
# From -- ./inp_files/6189.got.cif
#   From: 2010.03.12/outbox.cif.g09.slc.cpg/sg127_4_cif.got.tgz:6189.got - 2010.04.06 17:03:15.
