data_PCOD8314349
_publ_section_title
;
Structure prediction by ZEFSAII (Michael W. Deem and Ramdas Pophale) SiO2 
 PCOD8314349
Probable space group: P 4/M B M
;
_chemical_formula_sum "Si O2"
_cell_formula_units_Z 96
_cell_length_a 14.824196
_cell_length_b 14.824196
_cell_length_c 21.296895
_cell_angle_alpha 90.000000
_cell_angle_beta 90.000000
_cell_angle_gamma 90.000000
_cell_volume 4680.137219
_symmetry_space_group_name_H-M "P 4/M B M"
_symmetry_group_IT_number 127
_symmetry_cell_setting 'tetragonal'
loop_
_space_group_symop_operation_xyz
x,y,z
-y,x,z
-x,-y,z
y,-x,z
1/2+x,1/2-y,-z
1/2-x,1/2+y,-z
1/2+y,1/2+x,-z
1/2-y,1/2-x,-z
-x,-y,-z
y,-x,-z
x,y,-z
-y,x,-z
1/2-x,1/2+y,z
1/2+x,1/2-y,z
1/2-y,1/2-x,z
1/2+y,1/2+x,z
loop_
_atom_site_type_symbol
_atom_site_label
_atom_site_fract_x
_atom_site_fract_y
_atom_site_fract_z
Si Si1 0.229070 0.270931 0.073049
Si Si2 0.482995 0.356428 0.814628
Si Si3 0.746630 0.019321 0.072486
Si Si4 0.128393 0.628393 0.875938
Si Si5 0.881797 0.092632 0.500000
Si Si6 0.748402 0.489665 0.305447
Si Si7 0.818321 0.167417 0.370704
Si Si8 0.427409 0.072592 0.739909
O O1 0.124479 0.255960 0.089652
O O2 0.294286 0.205715 0.113026
O O3 0.248404 0.251597 0.000000
O O4 0.577704 0.402000 0.800023
O O5 0.474382 0.326171 0.886927
O O6 0.476976 0.272798 0.768162
O O7 0.655227 0.966707 0.091674
O O8 0.768519 0.002503 0.000000
O O9 0.117574 0.617574 0.801319
O O10 0.828469 0.131366 0.440847
O O11 0.984813 0.125014 0.500000
O O12 0.724707 0.589236 0.328482
O O13 0.693297 0.417107 0.345942
O O14 0.855223 0.474092 0.306716
O O15 0.754349 0.254349 0.368673
O O16 0.500000 0.000000 0.762998
#
# Coordination Sequence:
#
# PCOD8314349 Si02
#       8
#     8  16  16   8   8  16  16   8
#     4  10  24  43  64  91 126 169 223 284 355 434
#     4  11  23  38  61  93 126 165 221 279 345 420
#     4  11  24  41  63  90 125 172 227 287 353 421
#     4  12  24  42  70  94 129 177 227 291 353 422
#     4  11  23  42  74 110 147 185 230 294 348 400
#     4  12  24  44  70 100 139 186 231 287 347 410
#     4  12  25  44  74 105 145 194 236 282 344 415
#     4  12  28  48  66 103 141 184 238 288 352 422
#
# _framework density 20.512218000000001
#
# number of rings (size 3 to 8) (size 9 to 14) (size 15 to 20)
#    0.000    0.583    5.833    2.500    1.167    2.333 
#    1.500    2.083    0.000    0.000    0.000    3.500 
#    0.000    0.000    0.000    0.000    0.000    0.000 
#
# Total GULP energy -1190477.753111 kJ/mol
# GULP energy per Si atom -12400.809928 kJ/mol
# Density = 2.046553 g / cm^3
# Si number density = 20.512218 Si / 1000 Ang^3
#
#
#
# Elastic Constant Matrix: (Units=GPa)
#
#
# Indices 1 2 3 4 5 6 
#
# 1 92.2097 26.2492 19.2180 0.0000 0.0000 0.0000
# 2 26.2492 92.2098 19.2179 0.0000 0.0000 0.0000
# 3 19.2180 19.2179 95.8386 0.0000 0.0000 0.0000
# 4 0.0000 0.0000 0.0000 31.8022 0.0000 0.0000
# 5 0.0000 0.0000 0.0000 0.0000 31.8022 0.0000
# 6 0.0000 0.0000 0.0000 0.0000 0.0000 59.9003
#
#
#
# Elastic Compliance Matrix: (Units=1/GPa)
#
#
# Indices 1 2 3 4 5 6 
#
# 1 0.012095 -0.003066 -0.001811 0.000000 0.000000 0.000000
# 2 -0.003066 0.012095 -0.001811 0.000000 0.000000 0.000000
# 3 -0.001811 -0.001811 0.011160 0.000000 0.000000 0.000000
# 4 0.000000 0.000000 0.000000 0.031444 0.000000 0.000000
# 5 0.000000 0.000000 0.000000 0.000000 0.031444 0.000000
# 6 0.000000 0.000000 0.000000 0.000000 0.000000 0.016694
#
#
# Mechanical properties :
#
#
# Convention : Reuss Voigt Hill
#
# Bulk Modulus (GPa) = 45.50324 45.51427 45.50876
# Shear Modulus (GPa) = 36.86433 39.07246 37.96840
#
# Velocity S-wave (km/s) = 4.24393 4.36918 4.30701
# Velocity P-wave (km/s) = 6.80045 6.90580 6.85333
#
# Compressibility (1/GPa) = 0.02197646
#
# Stress axis : x y z
#
# Youngs Moduli (GPa) = 82.67949 82.67964 89.60299
#
# Poissons Ratio (x) = 0.25347 0.16223
# Poissons Ratio (y) = 0.25347 0.16223
# Poissons Ratio (z) = 0.14970 0.14970
#
# Static dielectric constant tensor:
#      x y z
#    x 3.780590 0.000000 0.000000 
#    y 0.000000 3.780590 0.000000 
#    z 0.000000 0.000000 3.622010 
# 
# 
# High freq. dielectric constant tensor:
#      x y z
#    x 1.810480 0.000000 0.000000 
#    y 0.000000 1.810480 0.000000 
#    z 0.000000 0.000000 1.800510 
# 
# From -- ./inp_files/5857.got.cif
#   From: 2010.03.12/outbox.cif.g09.slc.cpg/sg127_3_cif.got.tgz:5857.got - 2010.04.06 17:03:15.
