data_PCOD8314704
_publ_section_title
;
Structure prediction by ZEFSAII (Michael W. Deem and Ramdas Pophale) SiO2 
 PCOD8314704
Probable space group: P 4/M N C
;
_chemical_formula_sum "Si O2"
_cell_formula_units_Z 112
_cell_length_a 15.150628
_cell_length_b 15.150628
_cell_length_c 24.751213
_cell_angle_alpha 90.000000
_cell_angle_beta 90.000000
_cell_angle_gamma 90.000000
_cell_volume 5681.431272
_symmetry_space_group_name_H-M "P 4/M N C"
_symmetry_group_IT_number 128
_symmetry_cell_setting 'tetragonal'
loop_
_space_group_symop_operation_xyz
x,y,z
-y,x,z
-x,-y,z
y,-x,z
1/2+x,1/2-y,1/2-z
1/2-x,1/2+y,1/2-z
1/2+y,1/2+x,1/2-z
1/2-y,1/2-x,1/2-z
-x,-y,-z
y,-x,-z
x,y,-z
-y,x,-z
1/2-x,1/2+y,1/2+z
1/2+x,1/2-y,1/2+z
1/2-y,1/2-x,1/2+z
1/2+y,1/2+x,1/2+z
loop_
_atom_site_type_symbol
_atom_site_label
_atom_site_fract_x
_atom_site_fract_y
_atom_site_fract_z
Si Si1 0.727537 0.868460 0.294894
Si Si2 0.642963 0.162336 0.437326
Si Si3 0.911659 0.116218 0.220251
Si Si4 0.935373 0.351487 0.061600
Si Si5 0.323099 0.280720 0.626037
Si Si6 0.484128 0.187259 0.113816
Si Si7 0.462817 0.365824 0.936302
O O1 0.653958 0.846043 0.250000
O O2 0.824832 0.874112 0.269242
O O3 0.730505 0.790758 0.339035
O O4 0.695940 0.961221 0.322269
O O5 0.674249 0.154277 0.500000
O O6 0.539398 0.150266 0.432734
O O7 0.668494 0.256608 0.413386
O O8 0.688694 0.087332 0.400343
O O9 0.875899 0.150890 0.163239
O O10 0.016939 0.122551 0.224960
O O11 0.896671 0.265070 0.089475
O O12 0.900868 0.440727 0.089669
O O13 0.904500 0.353049 0.000000
O O14 0.435599 0.272296 0.087873
O O15 0.560837 0.393182 0.916260
O O16 0.460777 0.359682 0.000000
#
# Coordination Sequence:
#
# PCOD8314704 Si02
#       7
#    16  16  16  16  16  16  16
#     4   9  22  40  58  84 118 152 201 253 301 360
#     4  11  23  37  60  93 123 159 205 245 306 384
#     4  10  21  38  63  87 114 150 197 254 309 359
#     4  10  21  38  58  84 122 160 194 243 294 361
#     4  10  21  39  61  85 117 156 198 248 302 359
#     4  11  22  35  60  84 121 160 202 249 303 365
#     4   9  19  33  49  79 124 165 199 236 284 354
#
# _framework density 19.713342999999998
#
# number of rings (size 3 to 8) (size 9 to 14) (size 15 to 20)
#    0.000    2.000    0.000    3.429    6.000    1.143 
#    0.000    1.429    0.000    6.857    0.000    6.000 
#    0.000    0.000    0.000    0.000    0.000    0.000 
#
# Total GULP energy -1388765.548942 kJ/mol
# GULP energy per Si atom -12399.692401 kJ/mol
# Density = 1.966847 g / cm^3
# Si number density = 19.713343 Si / 1000 Ang^3
#
#
#
# Elastic Constant Matrix: (Units=GPa)
#
#
# Indices 1 2 3 4 5 6 
#
# 1 81.5593 29.9324 43.5638 0.0000 0.0000 0.0000
# 2 29.9324 81.5585 43.5638 0.0000 0.0000 0.0000
# 3 43.5638 43.5638 98.0742 0.0000 0.0000 0.0000
# 4 0.0000 0.0000 0.0000 30.7402 0.0000 0.0000
# 5 0.0000 0.0000 0.0000 0.0000 30.7402 0.0000
# 6 0.0000 0.0000 0.0000 0.0000 0.0000 26.5398
#
#
#
# Elastic Compliance Matrix: (Units=1/GPa)
#
#
# Indices 1 2 3 4 5 6 
#
# 1 0.016554 -0.002816 -0.006102 0.000000 0.000000 0.000000
# 2 -0.002816 0.016554 -0.006102 0.000000 0.000000 0.000000
# 3 -0.006102 -0.006102 0.015618 0.000000 0.000000 0.000000
# 4 0.000000 0.000000 0.000000 0.032531 0.000000 0.000000
# 5 0.000000 0.000000 0.000000 0.000000 0.032531 0.000000
# 6 0.000000 0.000000 0.000000 0.000000 0.000000 0.037679
#
#
# Mechanical properties :
#
#
# Convention : Reuss Voigt Hill
#
# Bulk Modulus (GPa) = 53.52055 55.03467 54.27761
# Shear Modulus (GPa) = 26.63319 27.21285 26.92302
#
# Velocity S-wave (km/s) = 3.67961 3.71944 3.69958
# Velocity P-wave (km/s) = 6.72764 6.81350 6.77070
#
# Compressibility (1/GPa) = 0.01868441
#
# Stress axis : x y z
#
# Youngs Moduli (GPa) = 60.40869 60.40784 64.03023
#
# Poissons Ratio (x) = 0.17010 0.39073
# Poissons Ratio (y) = 0.17010 0.39074
# Poissons Ratio (z) = 0.36863 0.36864
#
# Static dielectric constant tensor:
#      x y z
#    x 3.611970 0.000000 0.000000 
#    y 0.000000 3.611970 0.000000 
#    z 0.000000 0.000000 3.722750 
# 
# 
# High freq. dielectric constant tensor:
#      x y z
#    x 1.770760 0.000000 0.000000 
#    y 0.000000 1.770760 0.000000 
#    z 0.000000 0.000000 1.768430 
# 
# From -- ./inp_files/6465.got.cif
#   From: 2010.03.12/outbox.cif.g09.slc.cpg/sg128_4_cif.got.tgz:6465.got - 2010.04.06 17:11:05.
