data_PCOD8314746
_publ_section_title
;
Structure prediction by ZEFSAII (Michael W. Deem and Ramdas Pophale) SiO2 
 PCOD8314746
Probable space group: P 4/M N C
;
_chemical_formula_sum "Si O2"
_cell_formula_units_Z 72
_cell_length_a 19.722197
_cell_length_b 19.722197
_cell_length_c 9.492921
_cell_angle_alpha 90.000000
_cell_angle_beta 90.000000
_cell_angle_gamma 90.000000
_cell_volume 3692.414534
_symmetry_space_group_name_H-M "P 4/M N C"
_symmetry_group_IT_number 128
_symmetry_cell_setting 'tetragonal'
loop_
_space_group_symop_operation_xyz
x,y,z
-y,x,z
-x,-y,z
y,-x,z
1/2+x,1/2-y,1/2-z
1/2-x,1/2+y,1/2-z
1/2+y,1/2+x,1/2-z
1/2-y,1/2-x,1/2-z
-x,-y,-z
y,-x,-z
x,y,-z
-y,x,-z
1/2-x,1/2+y,1/2+z
1/2+x,1/2-y,1/2+z
1/2-y,1/2-x,1/2+z
1/2+y,1/2+x,1/2+z
loop_
_atom_site_type_symbol
_atom_site_label
_atom_site_fract_x
_atom_site_fract_y
_atom_site_fract_z
Si Si1 0.850074 0.433355 0.656253
Si Si2 0.920682 0.070360 0.332910
Si Si3 0.848564 0.792584 0.340795
Si Si4 0.083637 0.325024 0.167547
Si Si5 0.201192 0.701192 0.750000
O O1 0.916247 0.416247 0.750000
O O2 0.878258 0.442030 0.500000
O O3 0.814625 0.503862 0.701783
O O4 0.796978 0.370190 0.663618
O O5 0.922516 0.069876 0.500000
O O6 0.862864 0.121376 0.280356
O O7 0.994172 0.094746 0.276457
O O8 0.874309 0.776986 0.500000
O O9 0.873193 0.736237 0.231939
O O10 0.767191 0.797577 0.348641
O O11 0.107320 0.392681 0.250000
O O12 0.098515 0.329711 0.000000
#
# Coordination Sequence:
#
# PCOD8314746 Si02
#       5
#    16  16  16  16   8
#     4   9  22  41  63  88 117 154 196 243 298 353
#     4   8  16  31  53  85 120 152 192 240 289 346
#     4  11  22  36  61  89 118 159 200 245 295 345
#     4  11  24  42  61  87 121 159 198 243 298 355
#     4  10  22  38  61  88 121 152 198 246 290 354
#
# _framework density 19.499435999999999
#
# number of rings (size 3 to 8) (size 9 to 14) (size 15 to 20)
#    0.667    1.556    1.111    2.000    3.111    3.111 
#    0.000    2.222    0.000    0.000    0.000    1.556 
#    0.000    0.000    0.000    0.000    0.000    0.000 
#
# Total GULP energy -892046.938974 kJ/mol
# GULP energy per Si atom -12389.540819 kJ/mol
# Density = 1.945505 g / cm^3
# Si number density = 19.499436 Si / 1000 Ang^3
#
#
#
# Elastic Constant Matrix: (Units=GPa)
#
#
# Indices 1 2 3 4 5 6 
#
# 1 134.7267 60.0523 38.4331 0.0000 0.0000 0.0000
# 2 60.0523 134.7263 38.4332 0.0000 0.0000 0.0000
# 3 38.4331 38.4332 82.8601 0.0000 0.0000 0.0000
# 4 0.0000 0.0000 0.0000 17.9829 0.0000 0.0000
# 5 0.0000 0.0000 0.0000 0.0000 17.9828 0.0000
# 6 0.0000 0.0000 0.0000 0.0000 0.0000 30.6390
#
#
#
# Elastic Compliance Matrix: (Units=1/GPa)
#
#
# Indices 1 2 3 4 5 6 
#
# 1 0.009838 -0.003554 -0.002915 0.000000 0.000000 0.000000
# 2 -0.003554 0.009838 -0.002915 0.000000 0.000000 0.000000
# 3 -0.002915 -0.002915 0.014773 0.000000 0.000000 0.000000
# 4 0.000000 0.000000 0.000000 0.055609 0.000000 0.000000
# 5 0.000000 0.000000 0.000000 0.000000 0.055609 0.000000
# 6 0.000000 0.000000 0.000000 0.000000 0.000000 0.032638
#
#
# Mechanical properties :
#
#
# Convention : Reuss Voigt Hill
#
# Bulk Modulus (GPa) = 63.76850 69.57228 66.67039
# Shear Modulus (GPa) = 24.71606 27.68057 26.19831
#
# Velocity S-wave (km/s) = 3.56410 3.77179 3.66941
# Velocity P-wave (km/s) = 7.05059 7.39764 7.22620
#
# Compressibility (1/GPa) = 0.01568172
#
# Stress axis : x y z
#
# Youngs Moduli (GPa) = 101.64765 101.64726 67.69311
#
# Poissons Ratio (x) = 0.36121 0.19732
# Poissons Ratio (y) = 0.36121 0.19732
# Poissons Ratio (z) = 0.29629 0.29629
#
# Static dielectric constant tensor:
#      x y z
#    x 3.734620 0.000000 0.000000 
#    y 0.000000 3.734620 0.000000 
#    z 0.000000 0.000000 3.239670 
# 
# 
# High freq. dielectric constant tensor:
#      x y z
#    x 1.760520 0.000000 0.000000 
#    y 0.000000 1.760520 0.000000 
#    z 0.000000 0.000000 1.732240 
# 
# From -- ./inp_files/1147.got.cif
#   From: 2010.03.12/outbox.cif.g09.slc.cpg/sg128_1_cif.got.tgz:1147.got - 2010.04.06 17:11:05.
