data_PCOD8314181
_publ_section_title
;
Structure prediction by ZEFSAII (Michael W. Deem and Ramdas Pophale) SiO2 
 PCOD8314181
Probable space group: P 4/M B M
;
_chemical_formula_sum "Si O2"
_cell_formula_units_Z 40
_cell_length_a 15.174302
_cell_length_b 15.174302
_cell_length_c 7.866162
_cell_angle_alpha 90.000000
_cell_angle_beta 90.000000
_cell_angle_gamma 90.000000
_cell_volume 1811.258066
_symmetry_space_group_name_H-M "P 4/M B M"
_symmetry_group_IT_number 127
_symmetry_cell_setting 'tetragonal'
loop_
_space_group_symop_operation_xyz
x,y,z
-y,x,z
-x,-y,z
y,-x,z
1/2+x,1/2-y,-z
1/2-x,1/2+y,-z
1/2+y,1/2+x,-z
1/2-y,1/2-x,-z
-x,-y,-z
y,-x,-z
x,y,-z
-y,x,-z
1/2-x,1/2+y,z
1/2+x,1/2-y,z
1/2-y,1/2-x,z
1/2+y,1/2+x,z
loop_
_atom_site_type_symbol
_atom_site_label
_atom_site_fract_x
_atom_site_fract_y
_atom_site_fract_z
Si Si1 0.271730 0.625105 0.688846
Si Si2 0.006497 0.358759 0.192168
Si Si3 0.390215 0.594895 0.000000
O O1 0.313027 0.633253 0.500000
O O2 0.201664 0.701664 0.724698
O O3 0.223049 0.529494 0.698334
O O4 0.347262 0.634892 0.829546
O O5 0.935545 0.435545 0.195377
O O6 0.099551 0.400450 0.260748
O O7 0.019594 0.324514 0.000000
O O8 0.377119 0.490708 0.000000
#
# Coordination Sequence:
#
# PCOD8314181 Si02
#       3
#    16  16   8
#     4  10  20  37  64  93 121 154 194 248 312 368
#     4   8  13  24  47  80 117 154 188 226 282 354
#     4  11  25  44  64  85 115 161 212 253 288 339
#
# _framework density 22.084098999999998
#
# number of rings (size 3 to 8) (size 9 to 14) (size 15 to 20)
#    0.000    2.600    2.000    1.800    0.000    2.400 
#    0.000   10.000    0.000    0.000    0.000    0.000 
#    0.000    0.000    0.000    0.000    0.000    0.000 
#
# Total GULP energy -495663.522733 kJ/mol
# GULP energy per Si atom -12391.588068 kJ/mol
# Density = 2.203383 g / cm^3
# Si number density = 22.084099 Si / 1000 Ang^3
#
#
#
# Elastic Constant Matrix: (Units=GPa)
#
#
# Indices 1 2 3 4 5 6 
#
# 1 50.1835 1.7319 37.8307 0.0000 0.0000 0.0000
# 2 1.7319 50.1835 37.8307 0.0000 0.0000 0.0000
# 3 37.8307 37.8307 145.8166 0.0000 0.0000 0.0000
# 4 0.0000 0.0000 0.0000 16.9751 0.0000 0.0000
# 5 0.0000 0.0000 0.0000 0.0000 16.9751 0.0000
# 6 0.0000 0.0000 0.0000 0.0000 0.0000 14.2114
#
#
#
# Elastic Compliance Matrix: (Units=1/GPa)
#
#
# Indices 1 2 3 4 5 6 
#
# 1 0.025806 0.005167 -0.008036 0.000000 0.000000 0.000000
# 2 0.005167 0.025806 -0.008036 0.000000 0.000000 0.000000
# 3 -0.008036 -0.008036 0.011028 0.000000 0.000000 0.000000
# 4 0.000000 0.000000 0.000000 0.058910 0.000000 0.000000
# 5 0.000000 0.000000 0.000000 0.000000 0.058910 0.000000
# 6 0.000000 0.000000 0.000000 0.000000 0.000000 0.070366
#
#
# Mechanical properties :
#
#
# Convention : Reuss Voigt Hill
#
# Bulk Modulus (GPa) = 24.49103 44.55225 34.52164
# Shear Modulus (GPa) = 17.46756 20.88501 19.17628
#
# Velocity S-wave (km/s) = 2.81545 3.07857 2.94994
# Velocity P-wave (km/s) = 4.65650 5.73188 5.22194
#
# Compressibility (1/GPa) = 0.04083127
#
# Stress axis : x y z
#
# Youngs Moduli (GPa) = 38.75033 38.75033 90.68230
#
# Poissons Ratio (x) = -0.20023 0.72870
# Poissons Ratio (y) = -0.20023 0.72870
# Poissons Ratio (z) = 0.31139 0.31139
#
# Static dielectric constant tensor:
#      x y z
#    x 3.855870 0.000000 0.000000 
#    y 0.000000 3.855870 0.000000 
#    z 0.000000 0.000000 3.881870 
# 
# 
# High freq. dielectric constant tensor:
#      x y z
#    x 1.848350 0.000000 0.000000 
#    y 0.000000 1.848350 0.000000 
#    z 0.000000 0.000000 1.857780 
# 
# From -- ./inp_files/633.got.cif
#   From: 2010.03.12/outbox.cif.g09.slc.cpg/sg127_1_cif.got.tgz:633.got - 2010.04.06 17:03:15.
