data_PCOD8314040
_publ_section_title
;
Structure prediction by ZEFSAII (Michael W. Deem and Ramdas Pophale) SiO2 
 PCOD8314040
Probable space group: P 4/M B M
;
_chemical_formula_sum "Si O2"
_cell_formula_units_Z 120
_cell_length_a 26.303641
_cell_length_b 26.303641
_cell_length_c 9.004469
_cell_angle_alpha 90.000000
_cell_angle_beta 90.000000
_cell_angle_gamma 90.000000
_cell_volume 6230.025787
_symmetry_space_group_name_H-M "P 4/M B M"
_symmetry_group_IT_number 127
_symmetry_cell_setting 'tetragonal'
loop_
_space_group_symop_operation_xyz
x,y,z
-y,x,z
-x,-y,z
y,-x,z
1/2+x,1/2-y,-z
1/2-x,1/2+y,-z
1/2+y,1/2+x,-z
1/2-y,1/2-x,-z
-x,-y,-z
y,-x,-z
x,y,-z
-y,x,-z
1/2-x,1/2+y,z
1/2+x,1/2-y,z
1/2-y,1/2-x,z
1/2+y,1/2+x,z
loop_
_atom_site_type_symbol
_atom_site_label
_atom_site_fract_x
_atom_site_fract_y
_atom_site_fract_z
Si Si1 0.108154 0.936644 0.333590
Si Si2 0.263051 0.682808 0.675671
Si Si3 0.930887 0.224594 0.674613
Si Si4 0.041964 0.541964 0.828160
Si Si5 0.463430 0.774337 0.323906
Si Si6 0.535078 0.119950 0.826648
Si Si7 0.204861 0.873174 0.333920
Si Si8 0.464980 0.371073 0.174591
O O1 0.090914 0.951578 0.500000
O O2 0.146281 0.889542 0.338096
O O3 0.059197 0.923676 0.233471
O O4 0.138448 0.982083 0.256630
O O5 0.267260 0.688695 0.500000
O O6 0.217584 0.717584 0.740822
O O7 0.249393 0.623648 0.711332
O O8 0.317162 0.703477 0.743689
O O9 0.935296 0.210722 0.500000
O O10 0.928865 0.174399 0.774720
O O11 0.979737 0.257601 0.727267
O O12 0.094767 0.518347 0.765021
O O13 0.000000 0.500000 0.800741
O O14 0.050860 0.550860 0.000000
O O15 0.461364 0.772005 0.500000
O O16 0.453167 0.830714 0.268116
O O17 0.417402 0.739358 0.256146
O O18 0.581251 0.081251 0.802095
O O19 0.529941 0.133925 0.000000
O O20 0.226398 0.867151 0.500000
O O21 0.472371 0.373372 0.000000
#
# Coordination Sequence:
#
# PCOD8314040 Si02
#       8
#    16  16  16   8  16  16  16  16
#     4  11  21  39  62  82 109 152 193 225 272 341
#     4   9  17  31  55  85 111 142 191 242 279 323
#     4  10  19  36  58  80 110 154 196 230 280 350
#     4   7  12  28  53  73  93 133 187 225 255 325
#     4  10  20  33  52  84 115 142 184 236 286 336
#     4   9  18  34  55  77 104 143 186 226 278 343
#     4   9  17  31  55  82 106 139 187 232 269 321
#     4  12  24  37  57  89 119 145 183 239 291 331
#
# _framework density 19.261558000000001
#
# number of rings (size 3 to 8) (size 9 to 14) (size 15 to 20)
#    0.000    2.200    2.667    2.400    0.000    1.600 
#    1.200    3.000    0.000    1.600    0.000    0.000 
#    0.000    0.000    0.000    0.000    0.000    0.000 
#
# Total GULP energy -1486681.206875 kJ/mol
# GULP energy per Si atom -12389.010057 kJ/mol
# Density = 1.921772 g / cm^3
# Si number density = 19.261558 Si / 1000 Ang^3
#
#
#
# Elastic Constant Matrix: (Units=GPa)
#
#
# Indices 1 2 3 4 5 6 
#
# 1 107.8932 41.2906 19.1840 0.0000 0.0000 0.0000
# 2 41.2906 107.8932 19.1840 0.0000 0.0000 0.0000
# 3 19.1840 19.1840 49.3316 0.0000 0.0000 0.0000
# 4 0.0000 0.0000 0.0000 18.5405 0.0000 0.0000
# 5 0.0000 0.0000 0.0000 0.0000 18.5405 0.0000
# 6 0.0000 0.0000 0.0000 0.0000 0.0000 32.5579
#
#
#
# Elastic Compliance Matrix: (Units=1/GPa)
#
#
# Indices 1 2 3 4 5 6 
#
# 1 0.011231 -0.003783 -0.002896 0.000000 0.000000 0.000000
# 2 -0.003783 0.011231 -0.002896 0.000000 0.000000 0.000000
# 3 -0.002896 -0.002896 0.022524 0.000000 0.000000 0.000000
# 4 0.000000 0.000000 0.000000 0.053936 0.000000 0.000000
# 5 0.000000 0.000000 0.000000 0.000000 0.053936 0.000000
# 6 0.000000 0.000000 0.000000 0.000000 0.000000 0.030714
#
#
# Mechanical properties :
#
#
# Convention : Reuss Voigt Hill
#
# Bulk Modulus (GPa) = 38.70831 47.15944 42.93388
# Shear Modulus (GPa) = 23.65900 26.29174 24.97537
#
# Velocity S-wave (km/s) = 3.50852 3.69858 3.60480
# Velocity P-wave (km/s) = 6.04588 6.54035 6.29797
#
# Compressibility (1/GPa) = 0.02583425
#
# Stress axis : x y z
#
# Youngs Moduli (GPa) = 89.03740 89.03740 44.39773
#
# Poissons Ratio (x) = 0.33685 0.12859
# Poissons Ratio (y) = 0.33685 0.12859
# Poissons Ratio (z) = 0.25789 0.25789
#
# Static dielectric constant tensor:
#      x y z
#    x 3.641040 0.000000 0.000000 
#    y 0.000000 3.641040 0.000000 
#    z 0.000000 0.000000 3.066450 
# 
# 
# High freq. dielectric constant tensor:
#      x y z
#    x 1.750680 0.000000 0.000000 
#    y 0.000000 1.750680 0.000000 
#    z 0.000000 0.000000 1.701080 
# 
# From -- ./inp_files/2360.got.cif
#   From: 2010.03.12/outbox.cif.g09.slc.cpg/sg127_2_cif.got.tgz:2360.got - 2010.04.06 17:03:15.
