data_PCOD8314627
_publ_section_title
;
Structure prediction by ZEFSAII (Michael W. Deem and Ramdas Pophale) SiO2 
 PCOD8314627
Probable space group: P 4/M N C
;
_chemical_formula_sum "Si O2"
_cell_formula_units_Z 120
_cell_length_a 17.739445
_cell_length_b 17.739445
_cell_length_c 19.610914
_cell_angle_alpha 90.000000
_cell_angle_beta 90.000000
_cell_angle_gamma 90.000000
_cell_volume 6171.317518
_symmetry_space_group_name_H-M "P 4/M N C"
_symmetry_group_IT_number 128
_symmetry_cell_setting 'tetragonal'
loop_
_space_group_symop_operation_xyz
x,y,z
-y,x,z
-x,-y,z
y,-x,z
1/2+x,1/2-y,1/2-z
1/2-x,1/2+y,1/2-z
1/2+y,1/2+x,1/2-z
1/2-y,1/2-x,1/2-z
-x,-y,-z
y,-x,-z
x,y,-z
-y,x,-z
1/2-x,1/2+y,1/2+z
1/2+x,1/2-y,1/2+z
1/2-y,1/2-x,1/2+z
1/2+y,1/2+x,1/2+z
loop_
_atom_site_type_symbol
_atom_site_label
_atom_site_fract_x
_atom_site_fract_y
_atom_site_fract_z
Si Si1 0.011952 0.121660 0.251217
Si Si2 0.424571 0.402146 0.000000
Si Si3 0.105151 0.640252 0.827844
Si Si4 0.293299 0.254755 0.822363
Si Si5 0.155235 0.512139 0.077034
Si Si6 0.871115 0.677147 0.651858
Si Si7 0.454266 0.784116 0.711210
Si Si8 0.186604 0.060122 0.626483
O O1 0.026577 0.195707 0.206311
O O2 0.933056 0.081173 0.234250
O O3 0.006312 0.143337 0.332008
O O4 0.514416 0.394267 0.000000
O O5 0.397156 0.363786 0.930025
O O6 0.126180 0.626180 0.750000
O O7 0.170434 0.698737 0.855644
O O8 0.104672 0.564235 0.873004
O O9 0.022207 0.673336 0.826243
O O10 0.250472 0.249529 0.750000
O O11 0.249766 0.318962 0.865991
O O12 0.379320 0.285601 0.816418
O O13 0.145481 0.422337 0.090493
O O14 0.243492 0.526555 0.085870
O O15 0.129781 0.529672 0.000000
O O16 0.805947 0.617548 0.667440
O O17 0.934424 0.692079 0.711057
#
# Coordination Sequence:
#
# PCOD8314627 Si02
#       8
#    16   8  16  16  16  16  16  16
#     4  11  22  34  55  90 127 161 202 260 317 365
#     4  11  24  36  48  78 122 175 219 237 274 367
#     4  10  20  38  59  87 118 163 206 255 308 362
#     4  10  20  34  58  83 116 154 208 262 307 358
#     4  11  23  41  59  90 123 162 209 252 307 373
#     4  11  22  37  56  90 112 158 207 255 308 366
#     4  11  21  36  60  82 118 156 206 254 305 368
#     4  11  21  35  56  80 121 170 208 246 299 360
#
# _framework density 19.444794000000002
#
# number of rings (size 3 to 8) (size 9 to 14) (size 15 to 20)
#    0.000    1.267    4.667    3.200    3.733    1.600 
#    0.000    1.333    0.000    0.000    0.000    0.000 
#    0.000    0.000    0.000    5.867    0.000    0.000 
#
# Total GULP energy -1486746.590890 kJ/mol
# GULP energy per Si atom -12389.554924 kJ/mol
# Density = 1.940054 g / cm^3
# Si number density = 19.444794 Si / 1000 Ang^3
#
#
#
# Elastic Constant Matrix: (Units=GPa)
#
#
# Indices 1 2 3 4 5 6 
#
# 1 98.2187 40.1233 29.0940 0.0000 0.0000 0.0000
# 2 40.1233 98.2189 29.0939 0.0000 0.0000 0.0000
# 3 29.0940 29.0939 67.2606 0.0000 0.0000 0.0000
# 4 0.0000 0.0000 0.0000 20.4258 0.0000 0.0000
# 5 0.0000 0.0000 0.0000 0.0000 20.4258 0.0000
# 6 0.0000 0.0000 0.0000 0.0000 0.0000 29.1105
#
#
#
# Elastic Compliance Matrix: (Units=1/GPa)
#
#
# Indices 1 2 3 4 5 6 
#
# 1 0.013025 -0.004188 -0.003822 0.000000 0.000000 0.000000
# 2 -0.004188 0.013025 -0.003822 0.000000 0.000000 0.000000
# 3 -0.003822 -0.003822 0.018174 0.000000 0.000000 0.000000
# 4 0.000000 0.000000 0.000000 0.048958 0.000000 0.000000
# 5 0.000000 0.000000 0.000000 0.000000 0.048958 0.000000
# 6 0.000000 0.000000 0.000000 0.000000 0.000000 0.034352
#
#
# Mechanical properties :
#
#
# Convention : Reuss Voigt Hill
#
# Bulk Modulus (GPa) = 48.64322 51.14672 49.89497
# Shear Modulus (GPa) = 24.15363 25.01823 24.58593
#
# Velocity S-wave (km/s) = 3.52826 3.59085 3.55969
# Velocity P-wave (km/s) = 6.45512 6.59947 6.52769
#
# Compressibility (1/GPa) = 0.02055785
#
# Stress axis : x y z
#
# Youngs Moduli (GPa) = 76.77800 76.77821 55.02341
#
# Poissons Ratio (x) = 0.32158 0.21031
# Poissons Ratio (y) = 0.32158 0.21030
# Poissons Ratio (z) = 0.29345 0.29345
#
# Static dielectric constant tensor:
#      x y z
#    x 3.756170 0.000000 0.000000 
#    y 0.000000 3.756170 0.000000 
#    z 0.000000 0.000000 3.308080 
# 
# 
# High freq. dielectric constant tensor:
#      x y z
#    x 1.767320 0.000000 0.000000 
#    y 0.000000 1.767320 0.000000 
#    z 0.000000 0.000000 1.699350 
# 
# From -- ./inp_files/6024.got.cif
#   From: 2010.03.12/outbox.cif.g09.slc.cpg/sg128_4_cif.got.tgz:6024.got - 2010.04.06 17:11:05.
