data_PCOD8314019
_publ_section_title
;
Structure prediction by ZEFSAII (Michael W. Deem and Ramdas Pophale) SiO2 
 PCOD8314019
Probable space group: P 4/M B M
;
_chemical_formula_sum "Si O2"
_cell_formula_units_Z 120
_cell_length_a 17.656835
_cell_length_b 17.656835
_cell_length_c 21.105195
_cell_angle_alpha 90.000000
_cell_angle_beta 90.000000
_cell_angle_gamma 90.000000
_cell_volume 6579.836262
_symmetry_space_group_name_H-M "P 4/M B M"
_symmetry_group_IT_number 127
_symmetry_cell_setting 'tetragonal'
loop_
_space_group_symop_operation_xyz
x,y,z
-y,x,z
-x,-y,z
y,-x,z
1/2+x,1/2-y,-z
1/2-x,1/2+y,-z
1/2+y,1/2+x,-z
1/2-y,1/2-x,-z
-x,-y,-z
y,-x,-z
x,y,-z
-y,x,-z
1/2-x,1/2+y,z
1/2+x,1/2-y,z
1/2-y,1/2-x,z
1/2+y,1/2+x,z
loop_
_atom_site_type_symbol
_atom_site_label
_atom_site_fract_x
_atom_site_fract_y
_atom_site_fract_z
Si Si1 0.114213 0.025509 0.074622
Si Si2 0.183198 0.810171 0.428977
Si Si3 0.220869 0.406760 0.339363
Si Si4 0.118381 0.737789 0.784998
Si Si5 0.732800 0.640512 0.205370
Si Si6 0.376863 0.003004 0.000000
Si Si7 0.703151 0.919256 0.357103
Si Si8 0.729899 0.006375 0.879611
O O1 0.057074 0.088967 0.101138
O O2 0.198625 0.041417 0.095834
O O3 0.109990 0.025343 0.000000
O O4 0.169020 0.840578 0.500000
O O5 0.247697 0.747697 0.427309
O O6 0.211511 0.879808 0.385736
O O7 0.106217 0.770412 0.404434
O O8 0.148177 0.351824 0.343031
O O9 0.256681 0.409698 0.268827
O O10 0.192915 0.490210 0.360430
O O11 0.182706 0.682706 0.810761
O O12 0.147836 0.823874 0.799002
O O13 0.107154 0.731507 0.710849
O O14 0.042380 0.706811 0.818714
O O15 0.791796 0.708205 0.209250
O O16 0.749983 0.590927 0.142845
O O17 0.330227 0.990342 0.064161
O O18 0.442307 0.942307 0.000000
O O19 0.412734 0.087267 0.000000
O O20 0.623096 0.876905 0.373103
#
# Coordination Sequence:
#
# PCOD8314019 Si02
#       8
#    16  16  16  16  16   8  16  16
#     4   9  18  33  52  75 102 129 162 208 262 322
#     4   9  18  34  58  83 109 150 196 230 274 341
#     4  10  19  34  55  82 118 151 188 236 283 334
#     4  10  20  34  53  80 109 139 178 230 280 322
#     4  10  20  34  53  80 109 139 178 230 280 322
#     4  11  26  44  56  73 108 146 182 229 280 342
#     4  10  19  34  55  82 118 151 188 236 283 334
#     4  12  20  36  58  78 100 140 184 222 275 335
#
# _framework density 18.237535000000001
#
# number of rings (size 3 to 8) (size 9 to 14) (size 15 to 20)
#    0.000    1.933    3.333    2.000    0.000    0.800 
#    0.000    0.000    0.000    3.600    0.000    4.667 
#    0.000    0.000    0.000    0.000    0.000    0.000 
#
# Total GULP energy -1487161.198848 kJ/mol
# GULP energy per Si atom -12393.009990 kJ/mol
# Density = 1.819603 g / cm^3
# Si number density = 18.237535 Si / 1000 Ang^3
#
#
#
# Elastic Constant Matrix: (Units=GPa)
#
#
# Indices 1 2 3 4 5 6 
#
# 1 78.1463 16.9407 22.1065 0.0000 0.0000 0.0000
# 2 16.9407 78.1455 22.1062 0.0000 0.0000 0.0000
# 3 22.1065 22.1062 84.1028 0.0000 0.0000 0.0000
# 4 0.0000 0.0000 0.0000 18.4404 0.0000 0.0000
# 5 0.0000 0.0000 0.0000 0.0000 18.4433 0.0000
# 6 0.0000 0.0000 0.0000 0.0000 0.0000 22.1676
#
#
#
# Elastic Compliance Matrix: (Units=1/GPa)
#
#
# Indices 1 2 3 4 5 6 
#
# 1 0.014160 -0.002179 -0.003149 0.000000 0.000000 0.000000
# 2 -0.002179 0.014160 -0.003149 0.000000 0.000000 0.000000
# 3 -0.003149 -0.003149 0.013546 0.000000 0.000000 0.000000
# 4 0.000000 0.000000 0.000000 0.054229 0.000000 0.000000
# 5 0.000000 0.000000 0.000000 0.000000 0.054220 0.000000
# 6 0.000000 0.000000 0.000000 0.000000 0.000000 0.045111
#
#
# Mechanical properties :
#
#
# Convention : Reuss Voigt Hill
#
# Bulk Modulus (GPa) = 40.14296 40.30017 40.22157
# Shear Modulus (GPa) = 22.65693 23.75967 23.20830
#
# Velocity S-wave (km/s) = 3.52849 3.61333 3.57116
# Velocity P-wave (km/s) = 6.21766 6.28916 6.25351
#
# Compressibility (1/GPa) = 0.02491097
#
# Stress axis : x y z
#
# Youngs Moduli (GPa) = 70.62303 70.62234 73.82387
#
# Poissons Ratio (x) = 0.15387 0.23249
# Poissons Ratio (y) = 0.15387 0.23249
# Poissons Ratio (z) = 0.22241 0.22240
#
# Static dielectric constant tensor:
#      x y z
#    x 3.364740 0.000000 0.000000 
#    y 0.000000 3.364740 0.000000 
#    z 0.000000 0.000000 3.431630 
# 
# 
# High freq. dielectric constant tensor:
#      x y z
#    x 1.697940 0.000000 0.000000 
#    y 0.000000 1.697940 0.000000 
#    z 0.000000 0.000000 1.706470 
# 
# From -- ./inp_files/5971.got.cif
#   From: 2010.03.12/outbox.cif.g09.slc.cpg/sg127_3_cif.got.tgz:5971.got - 2010.04.06 17:03:15.
