data_PCOD8314645
_publ_section_title
;
Structure prediction by ZEFSAII (Michael W. Deem and Ramdas Pophale) SiO2 
 PCOD8314645
Probable space group: P 4/M N C
;
_chemical_formula_sum "Si O2"
_cell_formula_units_Z 96
_cell_length_a 23.722684
_cell_length_b 23.722684
_cell_length_c 9.017128
_cell_angle_alpha 90.000000
_cell_angle_beta 90.000000
_cell_angle_gamma 90.000000
_cell_volume 5074.530677
_symmetry_space_group_name_H-M "P 4/M N C"
_symmetry_group_IT_number 128
_symmetry_cell_setting 'tetragonal'
loop_
_space_group_symop_operation_xyz
x,y,z
-y,x,z
-x,-y,z
y,-x,z
1/2+x,1/2-y,1/2-z
1/2-x,1/2+y,1/2-z
1/2+y,1/2+x,1/2-z
1/2-y,1/2-x,1/2-z
-x,-y,-z
y,-x,-z
x,y,-z
-y,x,-z
1/2-x,1/2+y,1/2+z
1/2+x,1/2-y,1/2+z
1/2-y,1/2-x,1/2+z
1/2+y,1/2+x,1/2+z
loop_
_atom_site_type_symbol
_atom_site_label
_atom_site_fract_x
_atom_site_fract_y
_atom_site_fract_z
Si Si1 0.731841 0.847403 0.327861
Si Si2 0.851617 0.728105 0.168861
Si Si3 0.445752 0.866330 0.330557
Si Si4 0.141855 0.560638 0.824689
Si Si5 0.561761 0.431891 0.671498
Si Si6 0.640375 0.342704 0.174466
O O1 0.709027 0.790974 0.250000
O O2 0.726221 0.835543 0.500000
O O3 0.695322 0.901326 0.279860
O O4 0.795965 0.859713 0.281363
O O5 0.796113 0.703888 0.250000
O O6 0.901617 0.683816 0.178143
O O7 0.874658 0.784001 0.247574
O O8 0.834851 0.741389 0.000000
O O9 0.421743 0.921743 0.250000
O O10 0.460496 0.881680 0.500000
O O11 0.500112 0.845274 0.243005
O O12 0.085642 0.585642 0.750000
O O13 0.133071 0.556569 0.000000
O O14 0.578338 0.496164 0.708092
O O15 0.573842 0.418439 0.500000
O O16 0.598697 0.391366 0.772762
O O17 0.632989 0.334790 0.000000
#
# Coordination Sequence:
#
# PCOD8314645 Si02
#       6
#    16  16  16  16  16  16
#     4   9  20  36  53  77 109 143 177 218 267 316
#     4  10  21  37  56  80 112 147 183 226 275 325
#     4  10  21  37  56  79 107 141 182 225 272 321
#     4  10  20  36  56  78 108 143 181 225 272 320
#     4   9  20  40  61  80 107 143 182 226 276 327
#     4  11  22  35  56  86 114 143 182 223 268 328
#
# _framework density 18.918004
#
# number of rings (size 3 to 8) (size 9 to 14) (size 15 to 20)
#    0.000    2.167    0.000    3.000    0.000    7.667 
#    0.000    5.833    0.000    0.000    0.000    0.000 
#    0.000    0.000    0.000    0.000    0.000    0.000 
#
# Total GULP energy -1190753.805153 kJ/mol
# GULP energy per Si atom -12403.685470 kJ/mol
# Density = 1.887495 g / cm^3
# Si number density = 18.918004 Si / 1000 Ang^3
#
#
#
# Elastic Constant Matrix: (Units=GPa)
#
#
# Indices 1 2 3 4 5 6 
#
# 1 86.5169 34.0226 51.3766 0.0000 0.0000 0.0000
# 2 34.0226 86.5185 51.3758 0.0000 0.0000 0.0000
# 3 51.3766 51.3758 115.3382 0.0000 0.0000 0.0000
# 4 0.0000 0.0000 0.0000 35.3019 0.0000 0.0000
# 5 0.0000 0.0000 0.0000 0.0000 35.3019 0.0000
# 6 0.0000 0.0000 0.0000 0.0000 0.0000 26.0831
#
#
#
# Elastic Compliance Matrix: (Units=1/GPa)
#
#
# Indices 1 2 3 4 5 6 
#
# 1 0.016212 -0.002838 -0.005958 0.000000 0.000000 0.000000
# 2 -0.002838 0.016212 -0.005957 0.000000 0.000000 0.000000
# 3 -0.005958 -0.005957 0.013978 0.000000 0.000000 0.000000
# 4 0.000000 0.000000 0.000000 0.028327 0.000000 0.000000
# 5 0.000000 0.000000 0.000000 0.000000 0.028327 0.000000
# 6 0.000000 0.000000 0.000000 0.000000 0.000000 0.038339
#
#
# Mechanical properties :
#
#
# Convention : Reuss Voigt Hill
#
# Bulk Modulus (GPa) = 59.18442 62.43596 60.81019
# Shear Modulus (GPa) = 28.32356 29.44393 28.88375
#
# Velocity S-wave (km/s) = 3.87353 3.94940 3.91165
# Velocity P-wave (km/s) = 7.16647 7.33976 7.25363
#
# Compressibility (1/GPa) = 0.01689634
#
# Stress axis : x y z
#
# Youngs Moduli (GPa) = 61.68210 61.68443 71.54351
#
# Poissons Ratio (x) = 0.17503 0.42623
# Poissons Ratio (y) = 0.17503 0.42620
# Poissons Ratio (z) = 0.36748 0.36747
#
# Static dielectric constant tensor:
#      x y z
#    x 3.471470 0.000000 0.000000 
#    y 0.000000 3.471480 0.000000 
#    z 0.000000 0.000000 3.609850 
# 
# 
# High freq. dielectric constant tensor:
#      x y z
#    x 1.736080 0.000000 0.000000 
#    y 0.000000 1.736080 0.000000 
#    z 0.000000 0.000000 1.745620 
# 
# From -- ./inp_files/1434.got.cif
#   From: 2010.03.12/outbox.cif.g09.slc.cpg/sg128_1_cif.got.tgz:1434.got - 2010.04.06 17:11:05.
