data_PCOD8314003
_publ_section_title
;
Structure prediction by ZEFSAII (Michael W. Deem and Ramdas Pophale) SiO2 
 PCOD8314003
Probable space group: P 4/M B M
;
_chemical_formula_sum "Si O2"
_cell_formula_units_Z 96
_cell_length_a 15.393259
_cell_length_b 15.393259
_cell_length_c 20.978535
_cell_angle_alpha 90.000000
_cell_angle_beta 90.000000
_cell_angle_gamma 90.000000
_cell_volume 4970.914692
_symmetry_space_group_name_H-M "P 4/M B M"
_symmetry_group_IT_number 127
_symmetry_cell_setting 'tetragonal'
loop_
_space_group_symop_operation_xyz
x,y,z
-y,x,z
-x,-y,z
y,-x,z
1/2+x,1/2-y,-z
1/2-x,1/2+y,-z
1/2+y,1/2+x,-z
1/2-y,1/2-x,-z
-x,-y,-z
y,-x,-z
x,y,-z
-y,x,-z
1/2-x,1/2+y,z
1/2+x,1/2-y,z
1/2-y,1/2-x,z
1/2+y,1/2+x,z
loop_
_atom_site_type_symbol
_atom_site_label
_atom_site_fract_x
_atom_site_fract_y
_atom_site_fract_z
Si Si1 0.360070 0.000409 0.681015
Si Si2 0.483493 0.245039 0.191053
Si Si3 0.906752 0.735364 0.571806
Si Si4 0.638634 0.004157 0.069126
Si Si5 0.163919 0.187691 0.777646
Si Si6 0.615951 0.585122 0.345753
O O1 0.416091 0.916091 0.698593
O O2 0.297612 0.980207 0.621308
O O3 0.419947 0.080054 0.658687
O O4 0.311720 0.027147 0.745307
O O5 0.466201 0.195700 0.125743
O O6 0.580212 0.282306 0.182745
O O7 0.406915 0.315266 0.194383
O O8 0.942683 0.726230 0.500000
O O9 0.817642 0.682359 0.579598
O O10 0.890373 0.837843 0.587112
O O11 0.599866 0.099866 0.086030
O O12 0.559238 0.940763 0.060762
O O13 0.688150 0.008375 0.000000
O O14 0.243909 0.256092 0.781833
O O15 0.130877 0.178952 0.705210
O O16 0.519093 0.619613 0.338506
#
# Coordination Sequence:
#
# PCOD8314003 Si02
#       6
#    16  16  16  16  16  16
#     4  10  19  33  56  83 112 148 194 255 315 368
#     4  12  23  37  58  90 124 159 207 252 300 366
#     4  10  21  38  58  82 115 152 193 247 309 372
#     4   9  18  35  60  89 124 164 206 259 316 365
#     4  12  23  37  61  89 121 160 199 251 309 354
#     4  11  22  39  60  84 115 152 200 248 293 350
#
# _framework density 19.312341
#
# number of rings (size 3 to 8) (size 9 to 14) (size 15 to 20)
#    0.000    1.333    3.333    4.000    0.000    2.667 
#    0.000    4.167    0.000    3.000    0.000    1.167 
#    0.000    0.000    0.000    0.000    0.000    0.000 
#
# Total GULP energy -1189734.582181 kJ/mol
# GULP energy per Si atom -12393.068564 kJ/mol
# Density = 1.926839 g / cm^3
# Si number density = 19.312341 Si / 1000 Ang^3
#
#
#
# Elastic Constant Matrix: (Units=GPa)
#
#
# Indices 1 2 3 4 5 6 
#
# 1 92.0704 34.3626 34.3915 0.0000 0.0000 0.0000
# 2 34.3626 92.0704 34.3915 0.0000 0.0000 0.0000
# 3 34.3915 34.3915 126.6208 0.0000 0.0000 0.0000
# 4 0.0000 0.0000 0.0000 17.9773 0.0000 0.0000
# 5 0.0000 0.0000 0.0000 0.0000 17.9773 0.0000
# 6 0.0000 0.0000 0.0000 0.0000 0.0000 23.4817
#
#
#
# Elastic Compliance Matrix: (Units=1/GPa)
#
#
# Indices 1 2 3 4 5 6 
#
# 1 0.013305 -0.004024 -0.002521 0.000000 0.000000 0.000000
# 2 -0.004024 0.013305 -0.002521 0.000000 0.000000 0.000000
# 3 -0.002521 -0.002521 0.009267 0.000000 0.000000 0.000000
# 4 0.000000 0.000000 0.000000 0.055626 0.000000 0.000000
# 5 0.000000 0.000000 0.000000 0.000000 0.055626 0.000000
# 6 0.000000 0.000000 0.000000 0.000000 0.000000 0.042586
#
#
# Mechanical properties :
#
#
# Convention : Reuss Voigt Hill
#
# Bulk Modulus (GPa) = 56.35281 57.45033 56.90157
# Shear Modulus (GPa) = 23.39069 25.72830 24.55949
#
# Velocity S-wave (km/s) = 3.48397 3.65392 3.56996
# Velocity P-wave (km/s) = 6.73997 6.90030 6.82060
#
# Compressibility (1/GPa) = 0.01774534
#
# Stress axis : x y z
#
# Youngs Moduli (GPa) = 75.16151 75.16151 107.91083
#
# Poissons Ratio (x) = 0.30245 0.27201
# Poissons Ratio (y) = 0.30245 0.27201
# Poissons Ratio (z) = 0.18946 0.18946
#
# Static dielectric constant tensor:
#      x y z
#    x 3.653380 0.000000 0.000000 
#    y 0.000000 3.653380 0.000000 
#    z 0.000000 0.000000 3.551020 
# 
# 
# High freq. dielectric constant tensor:
#      x y z
#    x 1.750210 0.000000 0.000000 
#    y 0.000000 1.750210 0.000000 
#    z 0.000000 0.000000 1.741810 
# 
# From -- ./inp_files/5765.got.cif
#   From: 2010.03.12/outbox.cif.g09.slc.cpg/sg127_3_cif.got.tgz:5765.got - 2010.04.06 17:03:15.
