data_PCOD8314045
_publ_section_title
;
Structure prediction by ZEFSAII (Michael W. Deem and Ramdas Pophale) SiO2 
 PCOD8314045
Probable space group: P 4/M B M
;
_chemical_formula_sum "Si O2"
_cell_formula_units_Z 96
_cell_length_a 24.210972
_cell_length_b 24.210972
_cell_length_c 8.734427
_cell_angle_alpha 90.000000
_cell_angle_beta 90.000000
_cell_angle_gamma 90.000000
_cell_volume 5119.869252
_symmetry_space_group_name_H-M "P 4/M B M"
_symmetry_group_IT_number 127
_symmetry_cell_setting 'tetragonal'
loop_
_space_group_symop_operation_xyz
x,y,z
-y,x,z
-x,-y,z
y,-x,z
1/2+x,1/2-y,-z
1/2-x,1/2+y,-z
1/2+y,1/2+x,-z
1/2-y,1/2-x,-z
-x,-y,-z
y,-x,-z
x,y,-z
-y,x,-z
1/2-x,1/2+y,z
1/2+x,1/2-y,z
1/2-y,1/2-x,z
1/2+y,1/2+x,z
loop_
_atom_site_type_symbol
_atom_site_label
_atom_site_fract_x
_atom_site_fract_y
_atom_site_fract_z
Si Si1 0.515529 0.790177 0.183027
Si Si2 0.724151 0.689163 0.817688
Si Si3 0.137263 0.723692 0.181741
Si Si4 0.568268 0.301589 0.181889
Si Si5 0.916455 0.031366 0.320388
Si Si6 0.999726 0.587229 0.817904
O O1 0.575775 0.775038 0.249419
O O2 0.474529 0.743490 0.246849
O O3 0.498577 0.850518 0.247392
O O4 0.515300 0.790906 0.000000
O O5 0.781303 0.718698 0.762577
O O6 0.671939 0.724207 0.756010
O O7 0.717420 0.627638 0.751534
O O8 0.723589 0.688081 0.000000
O O9 0.167053 0.667053 0.233277
O O10 0.134877 0.726312 0.000000
O O11 0.552292 0.362686 0.233375
O O12 0.568905 0.301299 0.000000
O O13 0.905752 0.035243 0.500000
O O14 0.968171 0.070091 0.273516
O O15 0.944914 0.555087 0.760488
O O16 0.054391 0.554391 0.760851
O O17 0.000505 0.588848 0.000000
#
# Coordination Sequence:
#
# PCOD8314045 Si02
#       6
#    16  16  16  16  16  16
#     4   9  16  23  33  57  89 116 145 187 236 274
#     4   8  15  27  40  58  90 128 155 176 219 282
#     4   8  13  22  36  51  75 115 151 177 211 264
#     4  10  20  29  46  76 102 124 153 199 246 280
#     4   9  20  39  57  70  90 125 163 195 238 300
#     4   8  13  21  33  50  79 124 168 196 223 269
#
# _framework density 18.750478000000001
#
# number of rings (size 3 to 8) (size 9 to 14) (size 15 to 20)
#    0.000    3.333    0.000    2.500    2.333    3.333 
#    0.000    4.167    0.000    0.500    0.000    0.000 
#    0.000    2.667    0.000    1.833    0.000    1.667 
#
# Total GULP energy -1189664.714579 kJ/mol
# GULP energy per Si atom -12392.340777 kJ/mol
# Density = 1.870780 g / cm^3
# Si number density = 18.750478 Si / 1000 Ang^3
#
#
#
# Elastic Constant Matrix: (Units=GPa)
#
#
# Indices 1 2 3 4 5 6 
#
# 1 176.1409 101.9981 11.3233 0.0000 0.0000 0.0000
# 2 101.9981 176.1409 11.3233 0.0000 0.0000 0.0000
# 3 11.3233 11.3233 6.0822 0.0000 0.0000 0.0000
# 4 0.0000 0.0000 0.0000 6.8052 0.0000 0.0000
# 5 0.0000 0.0000 0.0000 0.0000 6.8052 0.0000
# 6 0.0000 0.0000 0.0000 0.0000 0.0000 27.6948
#
#
#
# Elastic Compliance Matrix: (Units=1/GPa)
#
#
# Indices 1 2 3 4 5 6 
#
# 1 0.008863 -0.004625 -0.007889 0.000000 0.000000 0.000000
# 2 -0.004625 0.008863 -0.007889 0.000000 0.000000 0.000000
# 3 -0.007889 -0.007889 0.193790 0.000000 0.000000 0.000000
# 4 0.000000 0.000000 0.000000 0.146946 0.000000 0.000000
# 5 0.000000 0.000000 0.000000 0.000000 0.146946 0.000000
# 6 0.000000 0.000000 0.000000 0.000000 0.000000 0.036108
#
#
# Mechanical properties :
#
#
# Convention : Reuss Voigt Hill
#
# Bulk Modulus (GPa) = 5.85797 67.51702 36.68749
# Shear Modulus (GPa) = 7.82198 23.84234 15.83216
#
# Velocity S-wave (km/s) = 2.04467 3.56976 2.90894
# Velocity P-wave (km/s) = 2.95045 7.28541 5.55799
#
# Compressibility (1/GPa) = 0.17070769
#
# Stress axis : x y z
#
# Youngs Moduli (GPa) = 112.83395 112.83395 5.16024
#
# Poissons Ratio (x) = 0.52185 0.04071
# Poissons Ratio (y) = 0.52185 0.04071
# Poissons Ratio (z) = 0.89018 0.89018
#
# Static dielectric constant tensor:
#      x y z
#    x 3.781370 0.000000 0.000000 
#    y 0.000000 3.781370 0.000000 
#    z 0.000000 0.000000 2.626830 
# 
# 
# High freq. dielectric constant tensor:
#      x y z
#    x 1.739240 0.000000 0.000000 
#    y 0.000000 1.739240 0.000000 
#    z 0.000000 0.000000 1.644780 
# 
# From -- ./inp_files/1953.got.cif
#   From: 2010.03.12/outbox.cif.g09.slc.cpg/sg127_1_cif.got.tgz:1953.got - 2010.04.06 17:03:15.
