data_PCOD8314664
_publ_section_title
;
Structure prediction by ZEFSAII (Michael W. Deem and Ramdas Pophale) SiO2 
 PCOD8314664
Probable space group: P 4/M N C
;
_chemical_formula_sum "Si O2"
_cell_formula_units_Z 80
_cell_length_a 15.877641
_cell_length_b 15.877641
_cell_length_c 14.689394
_cell_angle_alpha 90.000000
_cell_angle_beta 90.000000
_cell_angle_gamma 90.000000
_cell_volume 3703.188644
_symmetry_space_group_name_H-M "P 4/M N C"
_symmetry_group_IT_number 128
_symmetry_cell_setting 'tetragonal'
loop_
_space_group_symop_operation_xyz
x,y,z
-y,x,z
-x,-y,z
y,-x,z
1/2+x,1/2-y,1/2-z
1/2-x,1/2+y,1/2-z
1/2+y,1/2+x,1/2-z
1/2-y,1/2-x,1/2-z
-x,-y,-z
y,-x,-z
x,y,-z
-y,x,-z
1/2-x,1/2+y,1/2+z
1/2+x,1/2-y,1/2+z
1/2-y,1/2-x,1/2+z
1/2+y,1/2+x,1/2+z
loop_
_atom_site_type_symbol
_atom_site_label
_atom_site_fract_x
_atom_site_fract_y
_atom_site_fract_z
Si Si1 0.713160 0.062575 0.897252
Si Si2 0.440222 0.625217 0.898003
Si Si3 0.931553 0.295896 0.748280
Si Si4 0.161425 0.197384 0.247134
Si Si5 0.405363 0.975685 0.396983
O O1 0.788858 0.113044 0.848375
O O2 0.624243 0.111183 0.894711
O O3 0.695438 0.976020 0.845104
O O4 0.742003 0.043600 0.000000
O O5 0.389643 0.538700 0.883071
O O6 0.408624 0.697960 0.827991
O O7 0.423263 0.659223 0.000000
O O8 0.846885 0.346885 0.750000
O O9 0.895878 0.200915 0.741914
O O10 0.986996 0.330614 0.664678
O O11 0.225732 0.274269 0.250000
O O12 0.396134 0.010883 0.500000
O O13 0.500000 0.000000 0.360819
#
# Coordination Sequence:
#
# PCOD8314664 Si02
#       5
#    16  16  16  16  16
#     4  11  24  41  61  88 126 170 214 258 309 370
#     4   9  19  39  68  95 117 151 206 267 320 373
#     4  11  22  37  64  93 125 163 212 265 310 369
#     4  11  24  39  56  88 130 171 201 247 317 377
#     4  10  20  37  65  97 124 158 206 261 314 371
#
# _framework density 21.603005
#
# number of rings (size 3 to 8) (size 9 to 14) (size 15 to 20)
#    0.000    1.600    2.000    3.600    0.000    2.400 
#    0.000    9.000    0.000    0.000    0.000    4.200 
#    0.000    0.000    0.000    0.000    0.000    0.000 
#
# Total GULP energy -991326.209460 kJ/mol
# GULP energy per Si atom -12391.577618 kJ/mol
# Density = 2.155384 g / cm^3
# Si number density = 21.603005 Si / 1000 Ang^3
#
#
#
# Elastic Constant Matrix: (Units=GPa)
#
#
# Indices 1 2 3 4 5 6 
#
# 1 66.1780 33.0025 56.6329 0.0000 0.0000 0.0000
# 2 33.0025 66.1782 56.6329 0.0000 0.0000 0.0000
# 3 56.6329 56.6329 187.1034 0.0000 0.0000 0.0000
# 4 0.0000 0.0000 0.0000 28.9910 0.0000 0.0000
# 5 0.0000 0.0000 0.0000 0.0000 28.9908 0.0000
# 6 0.0000 0.0000 0.0000 0.0000 0.0000 -4.4054
#
#
#
# Elastic Compliance Matrix: (Units=1/GPa)
#
#
# Indices 1 2 3 4 5 6 
#
# 1 0.022776 -0.007367 -0.004664 0.000000 0.000000 0.000000
# 2 -0.007367 0.022776 -0.004664 0.000000 0.000000 0.000000
# 3 -0.004664 -0.004664 0.008168 0.000000 0.000000 0.000000
# 4 0.000000 0.000000 0.000000 0.034494 0.000000 0.000000
# 5 0.000000 0.000000 0.000000 0.000000 0.034494 0.000000
# 6 0.000000 0.000000 0.000000 0.000000 0.000000 -0.226996
#
#
# Mechanical properties :
#
#
# Convention : Reuss Voigt Hill
#
# Bulk Modulus (GPa) = 49.18846 67.99956 58.59401
# Shear Modulus (GPa) = -77.97516 22.26137 -27.85689
#
# Velocity S-wave (km/s) = -6.01440 3.21358 -3.59484
# Velocity P-wave (km/s) = 5.04102 6.73162 3.15459
#
# Compressibility (1/GPa) = 0.02032997
#
# Stress axis : x y z
#
# Youngs Moduli (GPa) = 43.90609 43.90630 122.42777
#
# Poissons Ratio (x) = 0.32345 0.57101
# Poissons Ratio (y) = 0.32345 0.57101
# Poissons Ratio (z) = 0.20478 0.20478
#
# Static dielectric constant tensor:
#      x y z
#    x 4.030600 0.000000 0.000000 
#    y 0.000000 4.030590 0.000000 
#    z 0.000000 0.000000 3.899160 
# 
# 
# High freq. dielectric constant tensor:
#      x y z
#    x 1.846670 0.000000 0.000000 
#    y 0.000000 1.846670 0.000000 
#    z 0.000000 0.000000 1.845590 
# 
# From -- ./inp_files/3736.got.cif
#   From: 2010.03.12/outbox.cif.g09.slc.cpg/sg128_2_cif.got.tgz:3736.got - 2010.04.06 17:11:05.
