data_PCOD8314053
_publ_section_title
;
Structure prediction by ZEFSAII (Michael W. Deem and Ramdas Pophale) SiO2 
 PCOD8314053
Probable space group: P 4/M B M
;
_chemical_formula_sum "Si O2"
_cell_formula_units_Z 72
_cell_length_a 20.736790
_cell_length_b 20.736790
_cell_length_c 9.728346
_cell_angle_alpha 90.000000
_cell_angle_beta 90.000000
_cell_angle_gamma 90.000000
_cell_volume 4183.329447
_symmetry_space_group_name_H-M "P 4/M B M"
_symmetry_group_IT_number 127
_symmetry_cell_setting 'tetragonal'
loop_
_space_group_symop_operation_xyz
x,y,z
-y,x,z
-x,-y,z
y,-x,z
1/2+x,1/2-y,-z
1/2-x,1/2+y,-z
1/2+y,1/2+x,-z
1/2-y,1/2-x,-z
-x,-y,-z
y,-x,-z
x,y,-z
-y,x,-z
1/2-x,1/2+y,z
1/2+x,1/2-y,z
1/2-y,1/2-x,z
1/2+y,1/2+x,z
loop_
_atom_site_type_symbol
_atom_site_label
_atom_site_fract_x
_atom_site_fract_y
_atom_site_fract_z
Si Si1 0.768302 0.159421 0.156528
Si Si2 0.603870 0.002412 0.000000
Si Si3 0.416852 0.814136 0.649017
Si Si4 0.844031 0.449335 0.727844
Si Si5 0.847623 0.241371 0.345492
O O1 0.716001 0.216001 0.154857
O O2 0.739484 0.096778 0.234129
O O3 0.831061 0.182127 0.243512
O O4 0.788011 0.141196 0.000000
O O5 0.648675 0.986265 0.871760
O O6 0.542439 0.957562 0.000000
O O7 0.576726 0.076726 0.000000
O O8 0.392445 0.788096 0.500000
O O9 0.379498 0.879498 0.688926
O O10 0.491880 0.831639 0.625322
O O11 0.907470 0.407470 0.687211
O O12 0.781470 0.404224 0.727929
O O13 0.868148 0.218464 0.500000
O O14 0.784841 0.284841 0.361346
#
# Coordination Sequence:
#
# PCOD8314053 Si02
#       5
#    16   8  16  16  16
#     4   9  18  31  48  66  87 118 158 202 247 294
#     4   9  18  30  42  60  92 132 168 201 235 275
#     4  10  20  32  46  66  95 130 165 198 236 286
#     4  10  20  31  47  69  96 129 167 206 243 285
#     4   9  17  30  48  68  91 118 153 202 256 298
#
# _framework density 17.211169999999999
#
# number of rings (size 3 to 8) (size 9 to 14) (size 15 to 20)
#    0.000    2.556    0.000    2.000    3.111    5.333 
#    0.000    1.111    0.000    0.000    0.000    0.000 
#    0.000    0.889    0.000    6.444    0.000    2.444 
#
# Total GULP energy -892054.874579 kJ/mol
# GULP energy per Si atom -12389.651036 kJ/mol
# Density = 1.717200 g / cm^3
# Si number density = 17.211170 Si / 1000 Ang^3
#
#
#
# Elastic Constant Matrix: (Units=GPa)
#
#
# Indices 1 2 3 4 5 6 
#
# 1 63.2154 51.8143 42.3629 0.0000 0.0000 0.0000
# 2 51.8143 63.2152 42.3629 0.0000 0.0000 0.0000
# 3 42.3629 42.3629 133.8503 0.0000 0.0000 0.0000
# 4 0.0000 0.0000 0.0000 21.0734 0.0000 0.0000
# 5 0.0000 0.0000 0.0000 0.0000 21.0710 0.0000
# 6 0.0000 0.0000 0.0000 0.0000 0.0000 29.5880
#
#
#
# Elastic Compliance Matrix: (Units=1/GPa)
#
#
# Indices 1 2 3 4 5 6 
#
# 1 0.049524 -0.038188 -0.003588 0.000000 0.000000 0.000000
# 2 -0.038188 0.049524 -0.003588 0.000000 0.000000 0.000000
# 3 -0.003588 -0.003588 0.009742 0.000000 0.000000 0.000000
# 4 0.000000 0.000000 0.000000 0.047453 0.000000 0.000000
# 5 0.000000 0.000000 0.000000 0.000000 0.047458 0.000000
# 6 0.000000 0.000000 0.000000 0.000000 0.000000 0.033798
#
#
# Mechanical properties :
#
#
# Convention : Reuss Voigt Hill
#
# Bulk Modulus (GPa) = 55.36192 59.26233 57.31213
# Shear Modulus (GPa) = 14.95905 22.59588 18.77746
#
# Velocity S-wave (km/s) = 2.95133 3.62727 3.30662
# Velocity P-wave (km/s) = 6.62193 7.21457 6.92459
#
# Compressibility (1/GPa) = 0.01806296
#
# Stress axis : x y z
#
# Youngs Moduli (GPa) = 20.19242 20.19233 102.64763
#
# Poissons Ratio (x) = 0.77110 0.36828
# Poissons Ratio (y) = 0.77110 0.36828
# Poissons Ratio (z) = 0.07245 0.07245
#
# Static dielectric constant tensor:
#      x y z
#    x 2.943740 0.000000 0.000000 
#    y 0.000000 2.943740 0.000000 
#    z 0.000000 0.000000 3.581720 
# 
# 
# High freq. dielectric constant tensor:
#      x y z
#    x 1.624410 0.000000 0.000000 
#    y 0.000000 1.624410 0.000000 
#    z 0.000000 0.000000 1.687390 
# 
# From -- ./inp_files/1557.got.cif
#   From: 2010.03.12/outbox.cif.g09.slc.cpg/sg127_1_cif.got.tgz:1557.got - 2010.04.06 17:03:15.
