data_PCOD8314527
_publ_section_title
;
Structure prediction by ZEFSAII (Michael W. Deem and Ramdas Pophale) SiO2 
 PCOD8314527
Probable space group: P 4/M N C
;
_chemical_formula_sum "Si O2"
_cell_formula_units_Z 96
_cell_length_a 15.052468
_cell_length_b 15.052468
_cell_length_c 24.845926
_cell_angle_alpha 90.000000
_cell_angle_beta 90.000000
_cell_angle_gamma 90.000000
_cell_volume 5629.510229
_symmetry_space_group_name_H-M "P 4/M N C"
_symmetry_group_IT_number 128
_symmetry_cell_setting 'tetragonal'
loop_
_space_group_symop_operation_xyz
x,y,z
-y,x,z
-x,-y,z
y,-x,z
1/2+x,1/2-y,1/2-z
1/2-x,1/2+y,1/2-z
1/2+y,1/2+x,1/2-z
1/2-y,1/2-x,1/2-z
-x,-y,-z
y,-x,-z
x,y,-z
-y,x,-z
1/2-x,1/2+y,1/2+z
1/2+x,1/2-y,1/2+z
1/2-y,1/2-x,1/2+z
1/2+y,1/2+x,1/2+z
loop_
_atom_site_type_symbol
_atom_site_label
_atom_site_fract_x
_atom_site_fract_y
_atom_site_fract_z
Si Si1 0.990644 0.603998 0.374480
Si Si2 0.914314 0.880960 0.230446
Si Si3 0.789678 0.178968 0.131881
Si Si4 0.074416 0.323416 0.941990
Si Si5 0.714848 0.125011 0.701138
Si Si6 0.163941 0.632152 0.439131
O O1 0.915299 0.610526 0.419119
O O2 0.962494 0.668048 0.324700
O O3 0.000000 0.500000 0.355728
O O4 0.077329 0.646983 0.401956
O O5 0.869084 0.851764 0.174886
O O6 0.887662 0.815712 0.278966
O O7 0.020158 0.877671 0.234824
O O8 0.760164 0.098447 0.094223
O O9 0.704389 0.224007 0.158914
O O10 0.835089 0.252605 0.095052
O O11 0.970541 0.324536 0.948244
O O12 0.119931 0.311678 0.000000
O O13 0.650601 0.150601 0.750000
O O14 0.156957 0.675435 0.500000
#
# Coordination Sequence:
#
# PCOD8314527 Si02
#       6
#    16  16  16  16  16  16
#     4   9  18  32  50  74 105 134 163 206 259 308
#     4  10  21  36  53  70  96 134 176 213 257 310
#     4  10  19  33  50  73 101 129 165 214 257 297
#     4   9  17  31  49  70 103 135 159 198 249 304
#     4   9  20  35  51  74 101 130 172 216 259 310
#     4  10  19  30  51  79 102 133 173 205 255 321
#
# _framework density 17.052994999999999
#
# number of rings (size 3 to 8) (size 9 to 14) (size 15 to 20)
#    0.000    2.500    0.000    2.000    2.333    3.667 
#    0.000    0.000    0.000    0.000    0.000    7.000 
#    0.000    1.333    0.000    0.000    0.000    0.000 
#
# Total GULP energy -1189364.777385 kJ/mol
# GULP energy per Si atom -12389.216431 kJ/mol
# Density = 1.701418 g / cm^3
# Si number density = 17.052995 Si / 1000 Ang^3
#
#
#
# Elastic Constant Matrix: (Units=GPa)
#
#
# Indices 1 2 3 4 5 6 
#
# 1 56.9485 35.0120 38.1739 0.0000 0.0000 0.0000
# 2 35.0120 56.9485 38.1739 0.0000 0.0000 0.0000
# 3 38.1739 38.1739 101.5277 0.0000 0.0000 0.0000
# 4 0.0000 0.0000 0.0000 9835.2522 0.0000 0.0000
# 5 0.0000 0.0000 0.0000 0.0000 9835.2522 0.0000
# 6 0.0000 0.0000 0.0000 0.0000 0.0000 18.2600
#
#
#
# Elastic Compliance Matrix: (Units=1/GPa)
#
#
# Indices 1 2 3 4 5 6 
#
# 1 0.030698 -0.014888 -0.005944 0.000000 0.000000 0.000000
# 2 -0.014888 0.030698 -0.005944 0.000000 0.000000 0.000000
# 3 -0.005944 -0.005944 0.014320 0.000000 0.000000 0.000000
# 4 0.000000 0.000000 0.000000 0.000102 0.000000 0.000000
# 5 0.000000 0.000000 0.000000 0.000000 0.000102 0.000000
# 6 0.000000 0.000000 0.000000 0.000000 0.000000 0.054765
#
#
# Mechanical properties :
#
#
# Convention : Reuss Voigt Hill
#
# Bulk Modulus (GPa) = 45.12389 48.68272 46.90331
# Shear Modulus (GPa) = 26.09281 3944.69053 1985.39167
#
# Velocity S-wave (km/s) = 3.91589 48.14787 34.15810
# Velocity P-wave (km/s) = 6.85303 55.85307 39.79026
#
# Compressibility (1/GPa) = 0.02216121
#
# Stress axis : x y z
#
# Youngs Moduli (GPa) = 32.57572 32.57572 69.83474
#
# Poissons Ratio (x) = 0.48500 0.41511
# Poissons Ratio (y) = 0.48500 0.41511
# Poissons Ratio (z) = 0.19364 0.19364
#
# Static dielectric constant tensor:
#      x y z
#    x 3.241670 0.000000 0.000000 
#    y 0.000000 3.241670 0.000000 
#    z 0.000000 0.000000 3.594020 
# 
# 
# High freq. dielectric constant tensor:
#      x y z
#    x 1.652590 0.000000 0.000000 
#    y 0.000000 1.652590 0.000000 
#    z 0.000000 0.000000 1.669860 
# 
# From -- ./inp_files/5753.got.cif
#   From: 2010.03.12/outbox.cif.g09.slc.cpg/sg128_3_cif.got.tgz:5753.got - 2010.04.06 17:11:05.
