data_PCOD8314373
_publ_section_title
;
Structure prediction by ZEFSAII (Michael W. Deem and Ramdas Pophale) SiO2 
 PCOD8314373
Probable space group: P 4/M B M
;
_chemical_formula_sum "Si O2"
_cell_formula_units_Z 96
_cell_length_a 23.939189
_cell_length_b 23.939189
_cell_length_c 9.264066
_cell_angle_alpha 90.000000
_cell_angle_beta 90.000000
_cell_angle_gamma 90.000000
_cell_volume 5309.095133
_symmetry_space_group_name_H-M "P 4/M B M"
_symmetry_group_IT_number 127
_symmetry_cell_setting 'tetragonal'
loop_
_space_group_symop_operation_xyz
x,y,z
-y,x,z
-x,-y,z
y,-x,z
1/2+x,1/2-y,-z
1/2-x,1/2+y,-z
1/2+y,1/2+x,-z
1/2-y,1/2-x,-z
-x,-y,-z
y,-x,-z
x,y,-z
-y,x,-z
1/2-x,1/2+y,z
1/2+x,1/2-y,z
1/2-y,1/2-x,z
1/2+y,1/2+x,z
loop_
_atom_site_type_symbol
_atom_site_label
_atom_site_fract_x
_atom_site_fract_y
_atom_site_fract_z
Si Si1 0.147933 0.264674 0.828615
Si Si2 0.655471 0.360828 0.827896
Si Si3 0.948648 0.360417 0.338182
Si Si4 0.852275 0.559734 0.829987
Si Si5 0.068796 0.060062 0.332169
Si Si6 0.766974 0.356138 0.663666
O O1 0.205193 0.294808 0.773479
O O2 0.141708 0.201680 0.771834
O O3 0.094913 0.299470 0.770807
O O4 0.148673 0.264908 0.000000
O O5 0.610859 0.403828 0.763624
O O6 0.717585 0.372848 0.771732
O O7 0.654294 0.366362 0.000000
O O8 0.972107 0.366429 0.500000
O O9 0.916923 0.416923 0.292118
O O10 0.907200 0.308978 0.328724
O O11 0.998396 0.349760 0.230571
O O12 0.909337 0.590664 0.782874
O O13 0.848613 0.555463 0.000000
O O14 0.081522 0.070995 0.500000
O O15 0.005281 0.077659 0.295541
O O16 0.744413 0.349197 0.500000
O O17 0.799289 0.299289 0.711547
#
# Coordination Sequence:
#
# PCOD8314373 Si02
#       6
#    16  16  16  16  16  16
#     4   8  16  32  50  70 102 138 166 199 248 302
#     4  11  21  32  54  85 109 132 167 211 261 317
#     4   9  19  35  52  71  99 135 172 213 259 300
#     4   9  18  33  52  73 100 135 172 211 255 303
#     4   9  20  40  60  75  99 138 177 212 255 307
#     4   9  19  36  54  73 103 141 178 216 257 304
#
# _framework density 18.082177000000001
#
# number of rings (size 3 to 8) (size 9 to 14) (size 15 to 20)
#    0.000    2.833    0.000    3.500    0.000    4.667 
#    0.000    9.167    0.000    2.000    0.000    0.000 
#    0.000    0.000    0.000    0.000    0.000    0.000 
#
# Total GULP energy -1189973.797934 kJ/mol
# GULP energy per Si atom -12395.560395 kJ/mol
# Density = 1.804102 g / cm^3
# Si number density = 18.082177 Si / 1000 Ang^3
#
#
#
# Elastic Constant Matrix: (Units=GPa)
#
#
# Indices 1 2 3 4 5 6 
#
# 1 112.6442 36.8287 43.5403 0.0000 0.0000 0.0000
# 2 36.8287 112.6442 43.5403 0.0000 0.0000 0.0000
# 3 43.5403 43.5403 56.4140 0.0000 0.0000 0.0000
# 4 0.0000 0.0000 0.0000 30.5867 0.0000 0.0000
# 5 0.0000 0.0000 0.0000 0.0000 30.5867 0.0000
# 6 0.0000 0.0000 0.0000 0.0000 0.0000 25.9382
#
#
#
# Elastic Compliance Matrix: (Units=1/GPa)
#
#
# Indices 1 2 3 4 5 6 
#
# 1 0.012673 -0.000517 -0.009382 0.000000 0.000000 0.000000
# 2 -0.000517 0.012673 -0.009382 0.000000 0.000000 0.000000
# 3 -0.009382 -0.009382 0.032208 0.000000 0.000000 0.000000
# 4 0.000000 0.000000 0.000000 0.032694 0.000000 0.000000
# 5 0.000000 0.000000 0.000000 0.000000 0.032694 0.000000
# 6 0.000000 0.000000 0.000000 0.000000 0.000000 0.038553
#
#
# Mechanical properties :
#
#
# Convention : Reuss Voigt Hill
#
# Bulk Modulus (GPa) = 52.65336 58.83570 55.74453
# Shear Modulus (GPa) = 24.22625 27.94185 26.08405
#
# Velocity S-wave (km/s) = 3.66428 3.93526 3.80218
# Velocity P-wave (km/s) = 6.86183 7.29773 7.08314
#
# Compressibility (1/GPa) = 0.01899214
#
# Stress axis : x y z
#
# Youngs Moduli (GPa) = 78.90830 78.90830 31.04809
#
# Poissons Ratio (x) = 0.04079 0.29129
# Poissons Ratio (y) = 0.04079 0.29129
# Poissons Ratio (z) = 0.74032 0.74032
#
# Static dielectric constant tensor:
#      x y z
#    x 3.414610 0.000000 0.000000 
#    y 0.000000 3.414610 0.000000 
#    z 0.000000 0.000000 3.182350 
# 
# 
# High freq. dielectric constant tensor:
#      x y z
#    x 1.704460 0.000000 0.000000 
#    y 0.000000 1.704460 0.000000 
#    z 0.000000 0.000000 1.682800 
# 
# From -- ./inp_files/2018.got.cif
#   From: 2010.03.12/outbox.cif.g09.slc.cpg/sg127_2_cif.got.tgz:2018.got - 2010.04.06 17:03:15.
