data_PCOD8314366
_publ_section_title
;
Structure prediction by ZEFSAII (Michael W. Deem and Ramdas Pophale) SiO2 
 PCOD8314366
Probable space group: P 4/M B M
;
_chemical_formula_sum "Si O2"
_cell_formula_units_Z 112
_cell_length_a 15.121967
_cell_length_b 15.121967
_cell_length_c 27.136170
_cell_angle_alpha 90.000000
_cell_angle_beta 90.000000
_cell_angle_gamma 90.000000
_cell_volume 6205.333444
_symmetry_space_group_name_H-M "P 4/M B M"
_symmetry_group_IT_number 127
_symmetry_cell_setting 'tetragonal'
loop_
_space_group_symop_operation_xyz
x,y,z
-y,x,z
-x,-y,z
y,-x,z
1/2+x,1/2-y,-z
1/2-x,1/2+y,-z
1/2+y,1/2+x,-z
1/2-y,1/2-x,-z
-x,-y,-z
y,-x,-z
x,y,-z
-y,x,-z
1/2-x,1/2+y,z
1/2+x,1/2-y,z
1/2-y,1/2-x,z
1/2+y,1/2+x,z
loop_
_atom_site_type_symbol
_atom_site_label
_atom_site_fract_x
_atom_site_fract_y
_atom_site_fract_z
Si Si1 0.335242 0.690884 0.186285
Si Si2 0.145430 0.994380 0.445229
Si Si3 0.354817 0.999166 0.055611
Si Si4 0.314822 0.329848 0.301404
Si Si5 0.980089 0.254309 0.150530
Si Si6 0.926610 0.426610 0.207580
Si Si7 0.573505 0.926496 0.317519
Si Si8 0.741341 0.489041 0.347568
O O1 0.276723 0.776723 0.172086
O O2 0.323905 0.668380 0.243417
O O3 0.437172 0.704937 0.174058
O O4 0.304600 0.607178 0.154493
O O5 0.188005 0.992739 0.500000
O O6 0.221575 0.990112 0.404570
O O7 0.089941 0.083305 0.438042
O O8 0.416978 0.083023 0.065607
O O9 0.272753 0.001781 0.092904
O O10 0.409778 0.909778 0.064355
O O11 0.317450 0.001672 0.000000
O O12 0.246138 0.253863 0.318596
O O13 0.275531 0.425530 0.313993
O O14 0.408314 0.318616 0.328486
O O15 0.967673 0.345079 0.179288
O O16 0.896695 0.396695 0.262411
O O17 0.000000 0.500000 0.211969
O O18 0.535339 0.843589 0.346429
O O19 0.500000 0.000000 0.314516
#
# Coordination Sequence:
#
# PCOD8314366 Si02
#       8
#    16  16  16  16  16   8   8  16
#     4  11  23  38  56  83 119 158 197 235 287 348
#     4   9  18  35  58  86 112 138 183 240 288 332
#     4   9  17  32  57  86 110 139 193 259 302 329
#     4  11  23  37  56  85 120 155 195 240 282 344
#     4  12  22  37  57  83 119 156 191 243 294 351
#     4  11  20  36  61  83 107 152 209 244 272 329
#     4  11  24  38  55  83 119 160 193 222 282 359
#     4  12  21  37  61  84 117 152 191 240 290 340
#
# _framework density 18.048988999999999
#
# number of rings (size 3 to 8) (size 9 to 14) (size 15 to 20)
#    0.000    1.286    3.571    5.143    0.000    2.857 
#    0.000    2.500    0.000    5.571    0.000    1.000 
#    0.000    0.000    0.000    0.000    0.000    0.000 
#
# Total GULP energy -1389224.684009 kJ/mol
# GULP energy per Si atom -12403.791822 kJ/mol
# Density = 1.800791 g / cm^3
# Si number density = 18.048989 Si / 1000 Ang^3
#
#
#
# Elastic Constant Matrix: (Units=GPa)
#
#
# Indices 1 2 3 4 5 6 
#
# 1 80.6265 13.5878 29.1655 0.0000 0.0000 0.0000
# 2 13.5878 80.6265 29.1655 0.0000 0.0000 0.0000
# 3 29.1655 29.1655 107.2753 0.0000 0.0000 0.0000
# 4 0.0000 0.0000 0.0000 15.0721 0.0000 0.0000
# 5 0.0000 0.0000 0.0000 0.0000 15.0721 0.0000
# 6 0.0000 0.0000 0.0000 0.0000 0.0000 32.9428
#
#
#
# Elastic Compliance Matrix: (Units=1/GPa)
#
#
# Indices 1 2 3 4 5 6 
#
# 1 0.013840 -0.001077 -0.003470 0.000000 0.000000 0.000000
# 2 -0.001077 0.013840 -0.003470 0.000000 0.000000 0.000000
# 3 -0.003470 -0.003470 0.011208 0.000000 0.000000 0.000000
# 4 0.000000 0.000000 0.000000 0.066348 0.000000 0.000000
# 5 0.000000 0.000000 0.000000 0.000000 0.066348 0.000000
# 6 0.000000 0.000000 0.000000 0.000000 0.000000 0.030356
#
#
# Mechanical properties :
#
#
# Convention : Reuss Voigt Hill
#
# Bulk Modulus (GPa) = 43.75579 45.81843 44.78711
# Shear Modulus (GPa) = 22.16405 25.72468 23.94437
#
# Velocity S-wave (km/s) = 3.50808 3.77937 3.64625
# Velocity P-wave (km/s) = 6.37999 6.66975 6.52648
#
# Compressibility (1/GPa) = 0.02285412
#
# Stress axis : x y z
#
# Youngs Moduli (GPa) = 72.25668 72.25668 89.21802
#
# Poissons Ratio (x) = 0.07784 0.30957
# Poissons Ratio (y) = 0.07784 0.30957
# Poissons Ratio (z) = 0.25071 0.25071
#
# Static dielectric constant tensor:
#      x y z
#    x 2.883170 0.000000 0.000000 
#    y 0.000000 2.883170 0.000000 
#    z 0.000000 0.000000 3.450610 
# 
# 
# High freq. dielectric constant tensor:
#      x y z
#    x 1.693310 0.000000 0.000000 
#    y 0.000000 1.693310 0.000000 
#    z 0.000000 0.000000 1.701200 
# 
# From -- ./inp_files/6434.got.cif
#   From: 2010.03.12/outbox.cif.g09.slc.cpg/sg127_4_cif.got.tgz:6434.got - 2010.04.06 17:03:15.
