data_PCOD8314451
_publ_section_title
;
Structure prediction by ZEFSAII (Michael W. Deem and Ramdas Pophale) SiO2 
 PCOD8314451
Probable space group: P 4/M B M
;
_chemical_formula_sum "Si O2"
_cell_formula_units_Z 72
_cell_length_a 22.377706
_cell_length_b 22.377706
_cell_length_c 7.439537
_cell_angle_alpha 90.000000
_cell_angle_beta 90.000000
_cell_angle_gamma 90.000000
_cell_volume 3725.435387
_symmetry_space_group_name_H-M "P 4/M B M"
_symmetry_group_IT_number 127
_symmetry_cell_setting 'tetragonal'
loop_
_space_group_symop_operation_xyz
x,y,z
-y,x,z
-x,-y,z
y,-x,z
1/2+x,1/2-y,-z
1/2-x,1/2+y,-z
1/2+y,1/2+x,-z
1/2-y,1/2-x,-z
-x,-y,-z
y,-x,-z
x,y,-z
-y,x,-z
1/2-x,1/2+y,z
1/2+x,1/2-y,z
1/2-y,1/2-x,z
1/2+y,1/2+x,z
loop_
_atom_site_type_symbol
_atom_site_label
_atom_site_fract_x
_atom_site_fract_y
_atom_site_fract_z
Si Si1 0.741131 0.850895 0.712708
Si Si2 0.173908 0.984004 0.287474
Si Si3 0.888917 0.133182 0.714674
Si Si4 0.020529 0.695823 0.289287
Si Si5 0.900756 0.499916 0.000000
O O1 0.742749 0.846811 0.500000
O O2 0.705771 0.794230 0.795576
O O3 0.809075 0.851910 0.785039
O O4 0.706210 0.910872 0.766648
O O5 0.168047 0.983160 0.500000
O O6 0.141682 0.925929 0.202829
O O7 0.243969 0.984272 0.236127
O O8 0.139878 0.043023 0.214804
O O9 0.888405 0.131393 0.500000
O O10 0.013525 0.681161 0.500000
O O11 0.996115 0.639941 0.177917
O O12 0.942454 0.557547 0.000000
O O13 0.939475 0.439475 0.000000
#
# Coordination Sequence:
#
# PCOD8314451 Si02
#       5
#    16  16  16  16   8
#     4   8  13  23  42  66  91 123 165 212 255 292
#     4   8  14  25  43  68  99 135 171 207 249 297
#     4   8  13  21  36  64  99 132 169 208 248 298
#     4   9  18  34  54  74 100 134 168 204 250 300
#     4  11  24  38  54  78 102 127 164 208 254 305
#
# _framework density 19.326602000000001
#
# number of rings (size 3 to 8) (size 9 to 14) (size 15 to 20)
#    0.000    3.444    0.000    3.333    0.000    2.222 
#    0.000    4.444    0.000    9.333    0.000    6.222 
#    0.000    7.111    0.000    0.889    0.000    0.000 
#
# Total GULP energy -892191.097114 kJ/mol
# GULP energy per Si atom -12391.543015 kJ/mol
# Density = 1.928261 g / cm^3
# Si number density = 19.326602 Si / 1000 Ang^3
#
#
#
# Elastic Constant Matrix: (Units=GPa)
#
#
# Indices 1 2 3 4 5 6 
#
# 1 158.4814 110.7770 28.0182 0.0000 0.0000 0.0000
# 2 110.7770 158.4826 28.0181 0.0000 0.0000 0.0000
# 3 28.0182 28.0181 53.2366 0.0000 0.0000 0.0000
# 4 0.0000 0.0000 0.0000 1.0019 0.0000 0.0000
# 5 0.0000 0.0000 0.0000 0.0000 1.0027 0.0000
# 6 0.0000 0.0000 0.0000 0.0000 0.0000 36.1755
#
#
#
# Elastic Compliance Matrix: (Units=1/GPa)
#
#
# Indices 1 2 3 4 5 6 
#
# 1 0.012566 -0.008396 -0.002195 0.000000 0.000000 0.000000
# 2 -0.008396 0.012566 -0.002195 0.000000 0.000000 0.000000
# 3 -0.002195 -0.002195 0.021095 0.000000 0.000000 0.000000
# 4 0.000000 0.000000 0.000000 0.998098 0.000000 0.000000
# 5 0.000000 0.000000 0.000000 0.000000 0.997273 0.000000
# 6 0.000000 0.000000 0.000000 0.000000 0.000000 0.027643
#
#
# Mechanical properties :
#
#
# Convention : Reuss Voigt Hill
#
# Bulk Modulus (GPa) = 48.41239 78.20300 63.30769
# Shear Modulus (GPa) = 2.37903 21.19519 11.78711
#
# Velocity S-wave (km/s) = 1.11069 3.31522 2.47228
# Velocity P-wave (km/s) = 5.17193 7.43007 6.40136
#
# Compressibility (1/GPa) = 0.02065587
#
# Stress axis : x y z
#
# Youngs Moduli (GPa) = 79.57674 79.57746 47.40563
#
# Poissons Ratio (x) = 0.66811 0.10406
# Poissons Ratio (y) = 0.66810 0.10405
# Poissons Ratio (z) = 0.17468 0.17467
#
# Static dielectric constant tensor:
#      x y z
#    x 3.864630 0.000000 0.000000 
#    y 0.000000 3.864630 0.000000 
#    z 0.000000 0.000000 3.072580 
# 
# 
# High freq. dielectric constant tensor:
#      x y z
#    x 1.744260 0.000000 0.000000 
#    y 0.000000 1.744260 0.000000 
#    z 0.000000 0.000000 1.728840 
# 
# From -- ./inp_files/1528.got.cif
#   From: 2010.03.12/outbox.cif.g09.slc.cpg/sg127_1_cif.got.tgz:1528.got - 2010.04.06 17:03:15.
