data_PCOD8314015
_publ_section_title
;
Structure prediction by ZEFSAII (Michael W. Deem and Ramdas Pophale) SiO2 
 PCOD8314015
Probable space group: P 4/M B M
;
_chemical_formula_sum "Si O2"
_cell_formula_units_Z 112
_cell_length_a 15.806701
_cell_length_b 15.806701
_cell_length_c 23.561732
_cell_angle_alpha 90.000000
_cell_angle_beta 90.000000
_cell_angle_gamma 90.000000
_cell_volume 5886.941069
_symmetry_space_group_name_H-M "P 4/M B M"
_symmetry_group_IT_number 127
_symmetry_cell_setting 'tetragonal'
loop_
_space_group_symop_operation_xyz
x,y,z
-y,x,z
-x,-y,z
y,-x,z
1/2+x,1/2-y,-z
1/2-x,1/2+y,-z
1/2+y,1/2+x,-z
1/2-y,1/2-x,-z
-x,-y,-z
y,-x,-z
x,y,-z
-y,x,-z
1/2-x,1/2+y,z
1/2+x,1/2-y,z
1/2-y,1/2-x,z
1/2+y,1/2+x,z
loop_
_atom_site_type_symbol
_atom_site_label
_atom_site_fract_x
_atom_site_fract_y
_atom_site_fract_z
Si Si1 0.259785 0.105276 0.655052
Si Si2 0.414014 0.610566 0.857805
Si Si3 0.130519 0.042566 0.565860
Si Si4 0.757818 0.602151 0.934478
Si Si5 0.467786 0.832606 0.270908
Si Si6 0.637080 0.995305 0.853515
Si Si7 0.197439 0.833309 0.250508
O O1 0.311165 0.188835 0.636435
O O2 0.213194 0.067927 0.600596
O O3 0.191631 0.126970 0.703623
O O4 0.325514 0.037413 0.680186
O O5 0.382798 0.515147 0.860160
O O6 0.378072 0.663639 0.911450
O O7 0.377706 0.652291 0.801548
O O8 0.153749 0.050096 0.500000
O O9 0.053251 0.104840 0.581041
O O10 0.815631 0.684370 0.924374
O O11 0.793402 0.520819 0.900112
O O12 0.754032 0.576702 0.000000
O O13 0.424664 0.924664 0.276267
O O14 0.511126 0.821508 0.208900
O O15 0.399378 0.759532 0.280547
O O16 0.567257 0.067257 0.851937
O O17 0.594665 0.905335 0.870001
O O18 0.251342 0.751342 0.229862
#
# Coordination Sequence:
#
# PCOD8314015 Si02
#       7
#    16  16  16  16  16  16  16
#     4  11  22  33  54  90 121 150 187 232 282 332
#     4  11  23  38  57  80 107 142 181 224 279 340
#     4   9  19  38  62  84 111 153 199 239 279 325
#     4  10  21  39  61  81 105 140 183 233 284 335
#     4  10  19  34  54  78 115 156 188 223 280 347
#     4   9  17  31  53  79 107 142 179 218 272 335
#     4  10  20  35  56  82 114 147 184 232 279 325
#
# _framework density 19.025162000000002
#
# number of rings (size 3 to 8) (size 9 to 14) (size 15 to 20)
#    0.000    2.000    1.429    3.000    0.000    2.000 
#    0.000    4.286    0.000    1.286    0.000    1.000 
#    0.000    0.000    0.000    0.000    0.000    0.000 
#
# Total GULP energy -1388880.898039 kJ/mol
# GULP energy per Si atom -12400.722304 kJ/mol
# Density = 1.898186 g / cm^3
# Si number density = 19.025162 Si / 1000 Ang^3
#
#
#
# Elastic Constant Matrix: (Units=GPa)
#
#
# Indices 1 2 3 4 5 6 
#
# 1 75.7726 29.7472 50.5399 0.0000 0.0000 0.0000
# 2 29.7472 75.7726 50.5399 0.0000 0.0000 0.0000
# 3 50.5399 50.5399 112.1202 0.0000 0.0000 0.0000
# 4 0.0000 0.0000 0.0000 25.8253 0.0000 0.0000
# 5 0.0000 0.0000 0.0000 0.0000 25.8253 0.0000
# 6 0.0000 0.0000 0.0000 0.0000 0.0000 27.0157
#
#
#
# Elastic Compliance Matrix: (Units=1/GPa)
#
#
# Indices 1 2 3 4 5 6 
#
# 1 0.019203 -0.002524 -0.007518 0.000000 0.000000 0.000000
# 2 -0.002524 0.019203 -0.007518 0.000000 0.000000 0.000000
# 3 -0.007518 -0.007518 0.015697 0.000000 0.000000 0.000000
# 4 0.000000 0.000000 0.000000 0.038722 0.000000 0.000000
# 5 0.000000 0.000000 0.000000 0.000000 0.038722 0.000000
# 6 0.000000 0.000000 0.000000 0.000000 0.000000 0.037016
#
#
# Mechanical properties :
#
#
# Convention : Reuss Voigt Hill
#
# Bulk Modulus (GPa) = 52.68265 58.36881 55.52573
# Shear Modulus (GPa) = 23.80839 24.58916 24.19877
#
# Velocity S-wave (km/s) = 3.54137 3.59897 3.57029
# Velocity P-wave (km/s) = 6.66880 6.92940 6.80035
#
# Compressibility (1/GPa) = 0.01898158
#
# Stress axis : x y z
#
# Youngs Moduli (GPa) = 52.07540 52.07540 63.70694
#
# Poissons Ratio (x) = 0.13145 0.47896
# Poissons Ratio (y) = 0.13145 0.47896
# Poissons Ratio (z) = 0.39151 0.39151
#
# Static dielectric constant tensor:
#      x y z
#    x 3.571760 0.000000 0.000000 
#    y 0.000000 3.571760 0.000000 
#    z 0.000000 0.000000 3.282780 
# 
# 
# High freq. dielectric constant tensor:
#      x y z
#    x 1.741180 0.000000 0.000000 
#    y 0.000000 1.741180 0.000000 
#    z 0.000000 0.000000 1.719260 
# 
# From -- ./inp_files/6186.got.cif
#   From: 2010.03.12/outbox.cif.g09.slc.cpg/sg127_4_cif.got.tgz:6186.got - 2010.04.06 17:03:15.
