data_PCOD8314013
_publ_section_title
;
Structure prediction by ZEFSAII (Michael W. Deem and Ramdas Pophale) SiO2 
 PCOD8314013
Probable space group: P 4/M B M
;
_chemical_formula_sum "Si O2"
_cell_formula_units_Z 128
_cell_length_a 26.977933
_cell_length_b 26.977933
_cell_length_c 9.503765
_cell_angle_alpha 90.000000
_cell_angle_beta 90.000000
_cell_angle_gamma 90.000000
_cell_volume 6916.924455
_symmetry_space_group_name_H-M "P 4/M B M"
_symmetry_group_IT_number 127
_symmetry_cell_setting 'tetragonal'
loop_
_space_group_symop_operation_xyz
x,y,z
-y,x,z
-x,-y,z
y,-x,z
1/2+x,1/2-y,-z
1/2-x,1/2+y,-z
1/2+y,1/2+x,-z
1/2-y,1/2-x,-z
-x,-y,-z
y,-x,-z
x,y,-z
-y,x,-z
1/2-x,1/2+y,z
1/2+x,1/2-y,z
1/2-y,1/2-x,z
1/2+y,1/2+x,z
loop_
_atom_site_type_symbol
_atom_site_label
_atom_site_fract_x
_atom_site_fract_y
_atom_site_fract_z
Si Si1 0.430861 0.146183 0.333746
Si Si2 0.031662 0.856420 0.333563
Si Si3 0.292879 0.370002 0.841114
Si Si4 0.583016 0.743272 0.332772
Si Si5 0.739365 0.319285 0.840909
Si Si6 0.921406 0.876656 0.332496
Si Si7 0.963385 0.615112 0.664340
Si Si8 0.183443 0.395983 0.161852
O O1 0.425789 0.148101 0.500000
O O2 0.382628 0.117373 0.270995
O O3 0.435474 0.202757 0.278303
O O4 0.479131 0.114206 0.290515
O O5 0.030175 0.856567 0.500000
O O6 0.046066 0.800723 0.281535
O O7 0.071441 0.897325 0.281589
O O8 0.977791 0.872340 0.275320
O O9 0.287823 0.310874 0.834197
O O10 0.333116 0.389226 0.732557
O O11 0.240342 0.391807 0.794166
O O12 0.306719 0.386721 0.000000
O O13 0.588896 0.741681 0.500000
O O14 0.636133 0.733667 0.266616
O O15 0.784314 0.284314 0.792114
O O16 0.748295 0.338902 0.000000
O O17 0.918991 0.871494 0.500000
O O18 0.957630 0.626023 0.500000
O O19 0.937118 0.562883 0.704949
O O20 0.938858 0.660758 0.743583
O O21 0.155954 0.344047 0.191210
O O22 0.177494 0.411570 0.000000
#
# Coordination Sequence:
#
# PCOD8314013 Si02
#       8
#    16  16  16  16  16  16  16  16
#     4   9  18  31  49  74 104 138 171 208 259 312
#     4   9  19  34  55  81 106 135 172 216 263 309
#     4  10  20  34  52  77 105 137 175 212 253 309
#     4  10  19  34  53  77 105 135 172 211 255 311
#     4  10  20  34  53  77 107 141 173 210 257 303
#     4  10  20  36  56  79 106 137 174 216 262 310
#     4   9  18  32  51  75 100 129 172 221 260 299
#     4   9  18  33  51  71 100 136 171 209 259 316
#
# _framework density 18.505334999999999
#
# number of rings (size 3 to 8) (size 9 to 14) (size 15 to 20)
#    0.000    2.500    1.250    0.750    1.750    3.250 
#    0.000    4.375    0.000    3.375    0.000    2.625 
#    0.000    0.000    0.000    0.000    0.000    0.000 
#
# Total GULP energy -1586749.424820 kJ/mol
# GULP energy per Si atom -12396.479881 kJ/mol
# Density = 1.846322 g / cm^3
# Si number density = 18.505335 Si / 1000 Ang^3
#
#
#
# Elastic Constant Matrix: (Units=GPa)
#
#
# Indices 1 2 3 4 5 6 
#
# 1 122.5752 56.1442 18.0807 0.0000 0.0000 0.0000
# 2 56.1442 122.5752 18.0807 0.0000 0.0000 0.0000
# 3 18.0807 18.0807 24.0381 0.0000 0.0000 0.0000
# 4 0.0000 0.0000 0.0000 17.2877 0.0000 0.0000
# 5 0.0000 0.0000 0.0000 0.0000 17.2877 0.0000
# 6 0.0000 0.0000 0.0000 0.0000 0.0000 26.8273
#
#
#
# Elastic Compliance Matrix: (Units=1/GPa)
#
#
# Indices 1 2 3 4 5 6 
#
# 1 0.010826 -0.004227 -0.004964 0.000000 0.000000 0.000000
# 2 -0.004227 0.010826 -0.004964 0.000000 0.000000 0.000000
# 3 -0.004964 -0.004964 0.049068 0.000000 0.000000 0.000000
# 4 0.000000 0.000000 0.000000 0.057844 0.000000 0.000000
# 5 0.000000 0.000000 0.000000 0.000000 0.057844 0.000000
# 6 0.000000 0.000000 0.000000 0.000000 0.000000 0.037275
#
#
# Mechanical properties :
#
#
# Convention : Reuss Voigt Hill
#
# Bulk Modulus (GPa) = 23.57857 50.42217 37.00037
# Shear Modulus (GPa) = 18.78760 24.07275 21.43018
#
# Velocity S-wave (km/s) = 3.18976 3.61065 3.40671
# Velocity P-wave (km/s) = 5.13179 6.68498 5.95920
#
# Compressibility (1/GPa) = 0.04241140
#
# Stress axis : x y z
#
# Youngs Moduli (GPa) = 92.36600 92.36600 20.37971
#
# Poissons Ratio (x) = 0.39040 0.10117
# Poissons Ratio (y) = 0.39040 0.10117
# Poissons Ratio (z) = 0.45852 0.45852
#
# Static dielectric constant tensor:
#      x y z
#    x 3.618420 0.000000 0.000000 
#    y 0.000000 3.618420 0.000000 
#    z 0.000000 0.000000 3.115200 
# 
# 
# High freq. dielectric constant tensor:
#      x y z
#    x 1.723620 0.000000 0.000000 
#    y 0.000000 1.723620 0.000000 
#    z 0.000000 0.000000 1.683920 
# 
# From -- ./inp_files/3840.got.cif
#   From: 2010.03.12/outbox.cif.g09.slc.cpg/sg127_2_cif.got.tgz:3840.got - 2010.04.06 17:03:15.
