data_PCOD8314544
_publ_section_title
;
Structure prediction by ZEFSAII (Michael W. Deem and Ramdas Pophale) SiO2 
 PCOD8314544
Probable space group: P 4/M N C
;
_chemical_formula_sum "Si O2"
_cell_formula_units_Z 88
_cell_length_a 17.881976
_cell_length_b 17.881976
_cell_length_c 15.800120
_cell_angle_alpha 90.000000
_cell_angle_beta 90.000000
_cell_angle_gamma 90.000000
_cell_volume 5052.326409
_symmetry_space_group_name_H-M "P 4/M N C"
_symmetry_group_IT_number 128
_symmetry_cell_setting 'tetragonal'
loop_
_space_group_symop_operation_xyz
x,y,z
-y,x,z
-x,-y,z
y,-x,z
1/2+x,1/2-y,1/2-z
1/2-x,1/2+y,1/2-z
1/2+y,1/2+x,1/2-z
1/2-y,1/2-x,1/2-z
-x,-y,-z
y,-x,-z
x,y,-z
-y,x,-z
1/2-x,1/2+y,1/2+z
1/2+x,1/2-y,1/2+z
1/2-y,1/2-x,1/2+z
1/2+y,1/2+x,1/2+z
loop_
_atom_site_type_symbol
_atom_site_label
_atom_site_fract_x
_atom_site_fract_y
_atom_site_fract_z
Si Si1 0.301352 0.214010 0.593260
Si Si2 0.127440 0.627440 0.750000
Si Si3 0.158780 0.228128 0.795699
Si Si4 0.721277 0.520932 0.905240
Si Si5 0.636470 0.658625 0.137281
Si Si6 0.167364 0.455759 0.758764
O O1 0.339337 0.205627 0.500000
O O2 0.338128 0.161526 0.664728
O O3 0.301097 0.302311 0.618204
O O4 0.216310 0.188099 0.586329
O O5 0.145122 0.540345 0.740313
O O6 0.213144 0.286857 0.750000
O O7 0.151022 0.155871 0.736480
O O8 0.078886 0.271058 0.807822
O O9 0.683798 0.448581 0.864748
O O10 0.653680 0.580236 0.907730
O O11 0.792972 0.549583 0.851216
O O12 0.750275 0.504276 0.000000
O O13 0.091433 0.408568 0.750000
#
# Coordination Sequence:
#
# PCOD8314544 Si02
#       6
#    16   8  16  16  16  16
#     4  11  19  34  57  76 102 144 189 232 271 322
#     4  12  21  36  54  84 112 141 180 230 282 340
#     4   8  16  34  52  73  99 139 189 225 260 315
#     4  11  20  32  52  78 106 141 181 223 274 335
#     4  10  19  32  49  74 108 138 174 222 274 329
#     4  10  21  35  55  74 110 149 178 223 277 325
#
# _framework density 17.417718000000001
#
# number of rings (size 3 to 8) (size 9 to 14) (size 15 to 20)
#    0.000    1.818    4.545    3.000    0.000    0.364 
#    0.000    2.727    0.000    2.182    0.000    0.000 
#    0.000    0.000    0.000   15.636    0.000    0.000 
#
# Total GULP energy -1090196.306229 kJ/mol
# GULP energy per Si atom -12388.594389 kJ/mol
# Density = 1.737807 g / cm^3
# Si number density = 17.417718 Si / 1000 Ang^3
#
#
#
# Elastic Constant Matrix: (Units=GPa)
#
#
# Indices 1 2 3 4 5 6 
#
# 1 99.0681 56.1344 47.2813 0.0000 0.0000 0.0000
# 2 56.1344 99.0685 47.2831 0.0000 0.0000 0.0000
# 3 47.2813 47.2831 101.8841 0.0000 0.0000 0.0000
# 4 0.0000 0.0000 0.0000 12.2970 0.0000 0.0000
# 5 0.0000 0.0000 0.0000 0.0000 12.2971 0.0000
# 6 0.0000 0.0000 0.0000 0.0000 0.0000 30.6215
#
#
#
# Elastic Compliance Matrix: (Units=1/GPa)
#
#
# Indices 1 2 3 4 5 6 
#
# 1 0.016137 -0.007154 -0.004169 0.000000 0.000000 0.000000
# 2 -0.007154 0.016138 -0.004169 0.000000 0.000000 0.000000
# 3 -0.004169 -0.004169 0.013685 0.000000 0.000000 0.000000
# 4 0.000000 0.000000 0.000000 0.081321 0.000000 0.000000
# 5 0.000000 0.000000 0.000000 0.000000 0.081320 0.000000
# 6 0.000000 0.000000 0.000000 0.000000 0.000000 0.032657
#
#
# Mechanical properties :
#
#
# Convention : Reuss Voigt Hill
#
# Bulk Modulus (GPa) = 66.77657 66.82424 66.80040
# Shear Modulus (GPa) = 18.03539 20.99792 19.51666
#
# Velocity S-wave (km/s) = 3.22135 3.47587 3.35103
# Velocity P-wave (km/s) = 7.22895 7.38633 7.30806
#
# Compressibility (1/GPa) = 0.01497531
#
# Stress axis : x y z
#
# Youngs Moduli (GPa) = 61.96810 61.96708 73.07530
#
# Poissons Ratio (x) = 0.44332 0.30463
# Poissons Ratio (y) = 0.44333 0.30467
# Poissons Ratio (z) = 0.25833 0.25835
#
# Static dielectric constant tensor:
#      x y z
#    x 3.358530 0.000000 0.000000 
#    y 0.000000 3.358540 0.000000 
#    z 0.000000 0.000000 3.265680 
# 
# 
# High freq. dielectric constant tensor:
#      x y z
#    x 1.668940 0.000000 0.000000 
#    y 0.000000 1.668940 0.000000 
#    z 0.000000 0.000000 1.652660 
# 
# From -- ./inp_files/3859.got.cif
#   From: 2010.03.12/outbox.cif.g09.slc.cpg/sg128_2_cif.got.tgz:3859.got - 2010.04.06 17:11:05.
