data_PCOD8314283
_publ_section_title
;
Structure prediction by ZEFSAII (Michael W. Deem and Ramdas Pophale) SiO2 
 PCOD8314283
Probable space group: P 4/M B M
;
_chemical_formula_sum "Si O2"
_cell_formula_units_Z 96
_cell_length_a 14.712901
_cell_length_b 14.712901
_cell_length_c 23.809250
_cell_angle_alpha 90.000000
_cell_angle_beta 90.000000
_cell_angle_gamma 90.000000
_cell_volume 5153.975391
_symmetry_space_group_name_H-M "P 4/M B M"
_symmetry_group_IT_number 127
_symmetry_cell_setting 'tetragonal'
loop_
_space_group_symop_operation_xyz
x,y,z
-y,x,z
-x,-y,z
y,-x,z
1/2+x,1/2-y,-z
1/2-x,1/2+y,-z
1/2+y,1/2+x,-z
1/2-y,1/2-x,-z
-x,-y,-z
y,-x,-z
x,y,-z
-y,x,-z
1/2-x,1/2+y,z
1/2+x,1/2-y,z
1/2-y,1/2-x,z
1/2+y,1/2+x,z
loop_
_atom_site_type_symbol
_atom_site_label
_atom_site_fract_x
_atom_site_fract_y
_atom_site_fract_z
Si Si1 0.403074 0.385948 0.937132
Si Si2 0.237364 0.999958 0.770597
Si Si3 0.424557 0.075444 0.736719
Si Si4 0.676218 0.674621 0.173000
Si Si5 0.559490 0.209169 0.564687
Si Si6 0.463938 0.645558 0.656630
Si Si7 0.424186 0.075815 0.611346
O O1 0.510110 0.374669 0.927649
O O2 0.350383 0.322985 0.892699
O O3 0.376332 0.354451 0.000000
O O4 0.340400 0.034315 0.770438
O O5 0.174798 0.085116 0.788799
O O6 0.229609 0.918691 0.815226
O O7 0.209494 0.956603 0.710946
O O8 0.393670 0.106331 0.673959
O O9 0.500000 0.000000 0.731654
O O10 0.738962 0.761039 0.187055
O O11 0.563726 0.238043 0.500000
O O12 0.643151 0.143151 0.580563
O O13 0.563482 0.299242 0.601418
O O14 0.463315 0.160703 0.576956
O O15 0.391226 0.565724 0.656822
O O16 0.500000 0.000000 0.616392
#
# Coordination Sequence:
#
# PCOD8314283 Si02
#       7
#    16  16   8  16  16  16   8
#     4   9  18  35  61  89 118 157 204 254 304 353
#     4  12  23  39  60  90 124 157 202 249 301 364
#     4  11  22  39  60  89 125 163 194 243 304 363
#     4  12  24  37  61  92 122 164 208 249 303 366
#     4  10  21  39  61  87 115 145 191 245 294 352
#     4  11  24  41  61  84 115 156 194 236 297 357
#     4   9  17  32  61  86 108 147 187 228 291 348
#
# _framework density 18.626397999999998
#
# number of rings (size 3 to 8) (size 9 to 14) (size 15 to 20)
#    0.000    1.333    5.833    1.250    0.000    3.000 
#    3.000    0.833    0.000    0.000    0.000    0.000 
#    0.000    5.333    0.000    0.000    0.000    0.000 
#
# Total GULP energy -1190575.214590 kJ/mol
# GULP energy per Si atom -12401.825152 kJ/mol
# Density = 1.858400 g / cm^3
# Si number density = 18.626398 Si / 1000 Ang^3
#
#
#
# Elastic Constant Matrix: (Units=GPa)
#
#
# Indices 1 2 3 4 5 6 
#
# 1 62.4683 25.5240 29.6066 0.0000 0.0000 0.0000
# 2 25.5240 62.4683 29.6066 0.0000 0.0000 0.0000
# 3 29.6066 29.6066 100.9815 0.0000 0.0000 0.0000
# 4 0.0000 0.0000 0.0000 10.9735 0.0000 0.0000
# 5 0.0000 0.0000 0.0000 0.0000 10.9735 0.0000
# 6 0.0000 0.0000 0.0000 0.0000 0.0000 19.9720
#
#
#
# Elastic Compliance Matrix: (Units=1/GPa)
#
#
# Indices 1 2 3 4 5 6 
#
# 1 0.020613 -0.006455 -0.004151 0.000000 0.000000 0.000000
# 2 -0.006455 0.020613 -0.004151 0.000000 0.000000 0.000000
# 3 -0.004151 -0.004151 0.012337 0.000000 0.000000 0.000000
# 4 0.000000 0.000000 0.000000 0.091129 0.000000 0.000000
# 5 0.000000 0.000000 0.000000 0.000000 0.091129 0.000000
# 6 0.000000 0.000000 0.000000 0.000000 0.000000 0.050070
#
#
# Mechanical properties :
#
#
# Convention : Reuss Voigt Hill
#
# Bulk Modulus (GPa) = 41.58188 43.93251 42.75720
# Shear Modulus (GPa) = 15.45977 17.79585 16.62781
#
# Velocity S-wave (km/s) = 2.88408 3.09432 2.99105
# Velocity P-wave (km/s) = 5.78474 6.03356 5.91046
#
# Compressibility (1/GPa) = 0.02404894
#
# Stress axis : x y z
#
# Youngs Moduli (GPa) = 48.51332 48.51332 81.05810
#
# Poissons Ratio (x) = 0.31315 0.33647
# Poissons Ratio (y) = 0.31315 0.33647
# Poissons Ratio (z) = 0.20138 0.20138
#
# Static dielectric constant tensor:
#      x y z
#    x 3.321260 0.000000 0.000000 
#    y 0.000000 3.321260 0.000000 
#    z 0.000000 0.000000 3.453010 
# 
# 
# High freq. dielectric constant tensor:
#      x y z
#    x 1.714180 0.000000 0.000000 
#    y 0.000000 1.714180 0.000000 
#    z 0.000000 0.000000 1.726430 
# 
# From -- ./inp_files/5809.got.cif
#   From: 2010.03.12/outbox.cif.g09.slc.cpg/sg127_3_cif.got.tgz:5809.got - 2010.04.06 17:03:15.
