data_PCOD8314030
_publ_section_title
;
Structure prediction by ZEFSAII (Michael W. Deem and Ramdas Pophale) SiO2 
 PCOD8314030
Probable space group: P 4/M B M
;
_chemical_formula_sum "Si O2"
_cell_formula_units_Z 96
_cell_length_a 23.515271
_cell_length_b 23.515271
_cell_length_c 8.876055
_cell_angle_alpha 90.000000
_cell_angle_beta 90.000000
_cell_angle_gamma 90.000000
_cell_volume 4908.174117
_symmetry_space_group_name_H-M "P 4/M B M"
_symmetry_group_IT_number 127
_symmetry_cell_setting 'tetragonal'
loop_
_space_group_symop_operation_xyz
x,y,z
-y,x,z
-x,-y,z
y,-x,z
1/2+x,1/2-y,-z
1/2-x,1/2+y,-z
1/2+y,1/2+x,-z
1/2-y,1/2-x,-z
-x,-y,-z
y,-x,-z
x,y,-z
-y,x,-z
1/2-x,1/2+y,z
1/2+x,1/2-y,z
1/2-y,1/2-x,z
1/2+y,1/2+x,z
loop_
_atom_site_type_symbol
_atom_site_label
_atom_site_fract_x
_atom_site_fract_y
_atom_site_fract_z
Si Si1 0.348735 0.506489 0.822191
Si Si2 0.897441 0.092361 0.332312
Si Si3 0.792537 0.167463 0.668402
Si Si4 0.006133 0.732183 0.679470
Si Si5 0.306831 0.897582 0.172775
Si Si6 0.135406 0.726123 0.323286
O O1 0.399485 0.466371 0.760779
O O2 0.359858 0.569183 0.760345
O O3 0.290736 0.484383 0.750518
O O4 0.346127 0.505089 0.000000
O O5 0.923257 0.084204 0.500000
O O6 0.833312 0.113449 0.342161
O O7 0.771356 0.183881 0.500000
O O8 0.738922 0.148266 0.766267
O O9 0.826676 0.221441 0.742020
O O10 0.004656 0.734114 0.500000
O O11 0.070670 0.720532 0.740334
O O12 0.957880 0.688404 0.737831
O O13 0.368700 0.868700 0.187387
O O14 0.291266 0.910592 0.000000
O O15 0.130148 0.737673 0.500000
O O16 0.166941 0.666941 0.285690
#
# Coordination Sequence:
#
# PCOD8314030 Si02
#       6
#    16  16  16  16  16  16
#     4  12  24  38  57  82 114 154 197 241 291 340
#     4  11  22  38  59  83 111 150 199 245 285 335
#     4  10  19  34  59  86 116 150 189 231 283 345
#     4  11  21  37  60  85 114 151 193 233 282 348
#     4  11  24  39  56  84 120 153 191 239 289 342
#     4   9  18  34  58  88 117 144 181 232 284 334
#
# _framework density 19.559208999999999
#
# number of rings (size 3 to 8) (size 9 to 14) (size 15 to 20)
#    0.000    1.333    3.333    3.500    0.000    3.000 
#    0.000    1.667    0.000    3.500    0.000    3.500 
#    0.000    0.000    0.000    0.000    0.000    0.000 
#
# Total GULP energy -1189962.438098 kJ/mol
# GULP energy per Si atom -12395.442064 kJ/mol
# Density = 1.951469 g / cm^3
# Si number density = 19.559209 Si / 1000 Ang^3
#
#
#
# Elastic Constant Matrix: (Units=GPa)
#
#
# Indices 1 2 3 4 5 6 
#
# 1 86.4819 37.2777 36.8324 0.0000 0.0000 0.0000
# 2 37.2777 86.4819 36.8324 0.0000 0.0000 0.0000
# 3 36.8324 36.8324 101.6101 0.0000 0.0000 0.0000
# 4 0.0000 0.0000 0.0000 22.6274 0.0000 0.0000
# 5 0.0000 0.0000 0.0000 0.0000 22.6274 0.0000
# 6 0.0000 0.0000 0.0000 0.0000 0.0000 24.6376
#
#
#
# Elastic Compliance Matrix: (Units=1/GPa)
#
#
# Indices 1 2 3 4 5 6 
#
# 1 0.015313 -0.005010 -0.003735 0.000000 0.000000 0.000000
# 2 -0.005010 0.015313 -0.003735 0.000000 0.000000 0.000000
# 3 -0.003735 -0.003735 0.012549 0.000000 0.000000 0.000000
# 4 0.000000 0.000000 0.000000 0.044194 0.000000 0.000000
# 5 0.000000 0.000000 0.000000 0.000000 0.044194 0.000000
# 6 0.000000 0.000000 0.000000 0.000000 0.000000 0.040588
#
#
# Mechanical properties :
#
#
# Convention : Reuss Voigt Hill
#
# Bulk Modulus (GPa) = 54.89541 55.16209 55.02875
# Shear Modulus (GPa) = 24.60824 24.88727 24.74776
#
# Velocity S-wave (km/s) = 3.55088 3.57095 3.56093
# Velocity P-wave (km/s) = 6.70364 6.72801 6.71584
#
# Compressibility (1/GPa) = 0.01821646
#
# Stress axis : x y z
#
# Youngs Moduli (GPa) = 65.30259 65.30259 79.68652
#
# Poissons Ratio (x) = 0.32717 0.29761
# Poissons Ratio (y) = 0.32717 0.29761
# Poissons Ratio (z) = 0.24389 0.24389
#
# Static dielectric constant tensor:
#      x y z
#    x 3.530210 0.000000 0.000000 
#    y 0.000000 3.530210 0.000000 
#    z 0.000000 0.000000 3.413210 
# 
# 
# High freq. dielectric constant tensor:
#      x y z
#    x 1.752990 0.000000 0.000000 
#    y 0.000000 1.752990 0.000000 
#    z 0.000000 0.000000 1.746800 
# 
# From -- ./inp_files/1930.got.cif
#   From: 2010.03.12/outbox.cif.g09.slc.cpg/sg127_1_cif.got.tgz:1930.got - 2010.04.06 17:03:15.
