data_PCOD8314745
_publ_section_title
;
Structure prediction by ZEFSAII (Michael W. Deem and Ramdas Pophale) SiO2 
 PCOD8314745
Probable space group: P 4/M N C
;
_chemical_formula_sum "Si O2"
_cell_formula_units_Z 72
_cell_length_a 21.120187
_cell_length_b 21.120187
_cell_length_c 7.669613
_cell_angle_alpha 90.000000
_cell_angle_beta 90.000000
_cell_angle_gamma 90.000000
_cell_volume 3421.125207
_symmetry_space_group_name_H-M "P 4/M N C"
_symmetry_group_IT_number 128
_symmetry_cell_setting 'tetragonal'
loop_
_space_group_symop_operation_xyz
x,y,z
-y,x,z
-x,-y,z
y,-x,z
1/2+x,1/2-y,1/2-z
1/2-x,1/2+y,1/2-z
1/2+y,1/2+x,1/2-z
1/2-y,1/2-x,1/2-z
-x,-y,-z
y,-x,-z
x,y,-z
-y,x,-z
1/2-x,1/2+y,1/2+z
1/2+x,1/2-y,1/2+z
1/2-y,1/2-x,1/2+z
1/2+y,1/2+x,1/2+z
loop_
_atom_site_type_symbol
_atom_site_label
_atom_site_fract_x
_atom_site_fract_y
_atom_site_fract_z
Si Si1 0.183219 0.419563 0.796760
Si Si2 0.541550 0.404191 0.500000
Si Si3 0.246291 0.156173 0.703916
Si Si4 0.845607 0.443605 0.794764
Si Si5 0.673820 0.604827 0.208138
O O1 0.136770 0.363231 0.750000
O O2 0.159957 0.486149 0.711870
O O3 0.253454 0.402967 0.733952
O O4 0.183694 0.429202 0.000000
O O5 0.582532 0.467517 0.500000
O O6 0.555454 0.366378 0.321108
O O7 0.275407 0.224594 0.750000
O O8 0.244670 0.147631 0.500000
O O9 0.289932 0.100697 0.787488
O O10 0.174573 0.152262 0.771364
O O11 0.914152 0.414152 0.750000
O O12 0.836784 0.446373 0.000000
O O13 0.663794 0.593170 0.000000
#
# Coordination Sequence:
#
# PCOD8314745 Si02
#       5
#    16   8  16  16  16
#     4  10  22  38  59  88 125 165 212 262 316 380
#     4  11  28  48  66 100 130 157 215 261 305 391
#     4   9  18  33  57  87 121 160 208 262 317 371
#     4   9  19  36  55  84 119 160 213 256 306 378
#     4  10  23  42  67  94 127 169 205 261 322 375
#
# _framework density 21.045708000000001
#
# number of rings (size 3 to 8) (size 9 to 14) (size 15 to 20)
#    0.000    2.333    0.000    0.667    6.222    2.222 
#    0.000    3.333    0.000    0.000    0.000    0.000 
#    0.000    0.000    0.000    0.000    0.000    0.000 
#
# Total GULP energy -892550.526983 kJ/mol
# GULP energy per Si atom -12396.535097 kJ/mol
# Density = 2.099781 g / cm^3
# Si number density = 21.045708 Si / 1000 Ang^3
#
#
#
# Elastic Constant Matrix: (Units=GPa)
#
#
# Indices 1 2 3 4 5 6 
#
# 1 156.2530 69.8749 34.4978 0.0000 0.0000 0.0000
# 2 69.8749 156.2530 34.4953 0.0000 0.0000 0.0000
# 3 34.4978 34.4953 48.9409 0.0000 0.0000 0.0000
# 4 0.0000 0.0000 0.0000 18.7179 0.0000 0.0000
# 5 0.0000 0.0000 0.0000 0.0000 18.7176 0.0000
# 6 0.0000 0.0000 0.0000 0.0000 0.0000 30.0742
#
#
#
# Elastic Compliance Matrix: (Units=1/GPa)
#
#
# Indices 1 2 3 4 5 6 
#
# 1 0.008606 -0.002972 -0.003971 0.000000 0.000000 0.000000
# 2 -0.002972 0.008605 -0.003971 0.000000 0.000000 0.000000
# 3 -0.003971 -0.003971 0.026031 0.000000 0.000000 0.000000
# 4 0.000000 0.000000 0.000000 0.053425 0.000000 0.000000
# 5 0.000000 0.000000 0.000000 0.000000 0.053426 0.000000
# 6 0.000000 0.000000 0.000000 0.000000 0.000000 0.033251
#
#
# Mechanical properties :
#
#
# Convention : Reuss Voigt Hill
#
# Bulk Modulus (GPa) = 46.69773 71.02032 58.85903
# Shear Modulus (GPa) = 23.55056 28.34053 25.94555
#
# Velocity S-wave (km/s) = 3.34880 3.67361 3.51496
# Velocity P-wave (km/s) = 6.09832 7.19812 6.67092
#
# Compressibility (1/GPa) = 0.02141432
#
# Stress axis : x y z
#
# Youngs Moduli (GPa) = 116.20389 116.20701 38.41575
#
# Poissons Ratio (x) = 0.34532 0.15257
# Poissons Ratio (y) = 0.34531 0.15254
# Poissons Ratio (z) = 0.46150 0.46143
#
# Static dielectric constant tensor:
#      x y z
#    x 4.056720 0.000000 0.000000 
#    y 0.000000 4.056730 0.000000 
#    z 0.000000 0.000000 3.618500 
# 
# 
# High freq. dielectric constant tensor:
#      x y z
#    x 1.828170 0.000000 0.000000 
#    y 0.000000 1.828170 0.000000 
#    z 0.000000 0.000000 1.812610 
# 
# From -- ./inp_files/1158.got.cif
#   From: 2010.03.12/outbox.cif.g09.slc.cpg/sg128_1_cif.got.tgz:1158.got - 2010.04.06 17:11:05.
