data_PCOD8314741
_publ_section_title
;
Structure prediction by ZEFSAII (Michael W. Deem and Ramdas Pophale) SiO2 
 PCOD8314741
Probable space group: P 4/M N C
;
_chemical_formula_sum "Si O2"
_cell_formula_units_Z 56
_cell_length_a 10.426537
_cell_length_b 10.426537
_cell_length_c 29.404622
_cell_angle_alpha 90.000000
_cell_angle_beta 90.000000
_cell_angle_gamma 90.000000
_cell_volume 3196.655080
_symmetry_space_group_name_H-M "P 4/M N C"
_symmetry_group_IT_number 128
_symmetry_cell_setting 'tetragonal'
loop_
_space_group_symop_operation_xyz
x,y,z
-y,x,z
-x,-y,z
y,-x,z
1/2+x,1/2-y,1/2-z
1/2-x,1/2+y,1/2-z
1/2+y,1/2+x,1/2-z
1/2-y,1/2-x,1/2-z
-x,-y,-z
y,-x,-z
x,y,-z
-y,x,-z
1/2-x,1/2+y,1/2+z
1/2+x,1/2-y,1/2+z
1/2-y,1/2-x,1/2+z
1/2+y,1/2+x,1/2+z
loop_
_atom_site_type_symbol
_atom_site_label
_atom_site_fract_x
_atom_site_fract_y
_atom_site_fract_z
Si Si1 0.108231 0.596096 0.175938
Si Si2 0.692277 0.414401 0.000000
Si Si3 0.086767 0.804507 0.598487
Si Si4 0.023544 0.790558 0.755897
O O1 0.202435 0.635042 0.135141
O O2 0.038543 0.723249 0.195067
O O3 0.186466 0.527700 0.216148
O O4 0.000000 0.500000 0.157294
O O5 0.665133 0.563409 0.000000
O O6 0.760164 0.384349 0.951502
O O7 0.935801 0.833854 0.604849
O O8 0.888270 0.859218 0.750985
#
# Coordination Sequence:
#
# PCOD8314741 Si02
#       4
#    16   8  16  16
#     4  11  23  31  51  75 101 127 164 206 246 293
#     4   7  12  26  49  76 100 127 162 196 242 293
#     4   9  17  31  53  77 103 132 161 201 248 296
#     4  10  22  37  52  67  93 134 169 205 245 291
#
# _framework density 17.518311000000001
#
# number of rings (size 3 to 8) (size 9 to 14) (size 15 to 20)
#    0.000    2.429    0.000    5.143   12.000    2.286 
#    0.000    0.714    0.000    0.000    0.000    0.000 
#    0.000    2.286    0.000    0.000    0.000    0.000 
#
# Total GULP energy -693960.856483 kJ/mol
# GULP energy per Si atom -12392.158151 kJ/mol
# Density = 1.747844 g / cm^3
# Si number density = 17.518311 Si / 1000 Ang^3
#
#
#
# Elastic Constant Matrix: (Units=GPa)
#
#
# Indices 1 2 3 4 5 6 
#
# 1 43.4878 4.6543 9.9697 0.0000 0.0000 0.0000
# 2 4.6543 43.4878 9.9697 0.0000 0.0000 0.0000
# 3 9.9697 9.9697 113.9653 0.0000 0.0000 0.0000
# 4 0.0000 0.0000 0.0000 23.9343 0.0000 0.0000
# 5 0.0000 0.0000 0.0000 0.0000 23.9343 0.0000
# 6 0.0000 0.0000 0.0000 0.0000 0.0000 13.8393
#
#
#
# Elastic Compliance Matrix: (Units=1/GPa)
#
#
# Indices 1 2 3 4 5 6 
#
# 1 0.023652 -0.002099 -0.001885 0.000000 0.000000 0.000000
# 2 -0.002099 0.023652 -0.001885 0.000000 0.000000 0.000000
# 3 -0.001885 -0.001885 0.009104 0.000000 0.000000 0.000000
# 4 0.000000 0.000000 0.000000 0.041781 0.000000 0.000000
# 5 0.000000 0.000000 0.000000 0.000000 0.041781 0.000000
# 6 0.000000 0.000000 0.000000 0.000000 0.000000 0.072258
#
#
# Mechanical properties :
#
#
# Convention : Reuss Voigt Hill
#
# Bulk Modulus (GPa) = 22.38728 27.79205 25.08966
# Shear Modulus (GPa) = 20.93295 24.09804 22.51549
#
# Velocity S-wave (km/s) = 3.46051 3.71292 3.58893
# Velocity P-wave (km/s) = 5.36413 5.85492 5.61489
#
# Compressibility (1/GPa) = 0.04466822
#
# Stress axis : x y z
#
# Youngs Moduli (GPa) = 42.27994 42.27994 109.83609
#
# Poissons Ratio (x) = 0.08875 0.20709
# Poissons Ratio (y) = 0.08875 0.20709
# Poissons Ratio (z) = 0.07972 0.07972
#
# Static dielectric constant tensor:
#      x y z
#    x 3.098840 0.000000 0.000000 
#    y 0.000000 3.098840 0.000000 
#    z 0.000000 0.000000 3.646490 
# 
# 
# High freq. dielectric constant tensor:
#      x y z
#    x 1.655630 0.000000 0.000000 
#    y 0.000000 1.655630 0.000000 
#    z 0.000000 0.000000 1.680830 
# 
# From -- ./inp_files/6687.got.cif
#   From: 2010.03.12/outbox.cif.g09.slc.cpg/sg128_4_cif.got.tgz:6687.got - 2010.04.06 17:11:05.
