data_PCOD8314402
_publ_section_title
;
Structure prediction by ZEFSAII (Michael W. Deem and Ramdas Pophale) SiO2 
 PCOD8314402
Probable space group: P 4/M B M
;
_chemical_formula_sum "Si O2"
_cell_formula_units_Z 88
_cell_length_a 13.555600
_cell_length_b 13.555600
_cell_length_c 26.510791
_cell_angle_alpha 90.000000
_cell_angle_beta 90.000000
_cell_angle_gamma 90.000000
_cell_volume 4871.471614
_symmetry_space_group_name_H-M "P 4/M B M"
_symmetry_group_IT_number 127
_symmetry_cell_setting 'tetragonal'
loop_
_space_group_symop_operation_xyz
x,y,z
-y,x,z
-x,-y,z
y,-x,z
1/2+x,1/2-y,-z
1/2-x,1/2+y,-z
1/2+y,1/2+x,-z
1/2-y,1/2-x,-z
-x,-y,-z
y,-x,-z
x,y,-z
-y,x,-z
1/2-x,1/2+y,z
1/2+x,1/2-y,z
1/2-y,1/2-x,z
1/2+y,1/2+x,z
loop_
_atom_site_type_symbol
_atom_site_label
_atom_site_fract_x
_atom_site_fract_y
_atom_site_fract_z
Si Si1 0.861247 0.084697 0.444322
Si Si2 0.236159 0.892018 0.342733
Si Si3 0.000410 0.334247 0.000000
Si Si4 0.840719 0.977275 0.194327
Si Si5 0.246674 0.090950 0.708386
Si Si6 0.663153 0.490928 0.080151
O O1 0.818744 0.110699 0.500000
O O2 0.791457 0.127804 0.400988
O O3 0.967809 0.132623 0.437795
O O4 0.337344 0.837344 0.330915
O O5 0.151779 0.851973 0.304930
O O6 0.254514 0.006253 0.333100
O O7 0.992580 0.263022 0.951786
O O8 0.908105 0.408105 0.000000
O O9 0.102857 0.397144 0.000000
O O10 0.890214 0.082005 0.203146
O O11 0.756075 0.956417 0.235409
O O12 0.799197 0.979194 0.137518
O O13 0.343086 0.156915 0.703633
O O14 0.602016 0.591285 0.068795
#
# Coordination Sequence:
#
# PCOD8314402 Si02
#       6
#    16  16   8  16  16  16
#     4   9  17  31  54  82 107 135 178 233 286 328
#     4  11  22  35  55  81 108 148 189 222 276 335
#     4  11  24  39  54  78 114 157 196 225 270 334
#     4   9  17  33  58  85 110 139 177 227 279 325
#     4  11  22  35  55  83 112 145 187 230 273 332
#     4   9  19  36  60  89 113 138 183 237 283 327
#
# _framework density 18.064356
#
# number of rings (size 3 to 8) (size 9 to 14) (size 15 to 20)
#    0.000    2.091    3.636    2.182    0.000    4.000 
#    0.000    3.636    0.000    0.545    0.000    1.273 
#    0.000    0.000    0.000    0.000    0.000    0.000 
#
# Total GULP energy -1090757.960849 kJ/mol
# GULP energy per Si atom -12394.976828 kJ/mol
# Density = 1.802324 g / cm^3
# Si number density = 18.064356 Si / 1000 Ang^3
#
#
#
# Elastic Constant Matrix: (Units=GPa)
#
#
# Indices 1 2 3 4 5 6 
#
# 1 80.4620 35.8320 35.6728 0.0000 0.0000 0.0000
# 2 35.8320 80.4625 35.6729 0.0000 0.0000 0.0000
# 3 35.6728 35.6729 117.3013 0.0000 0.0000 0.0000
# 4 0.0000 0.0000 0.0000 17.8490 0.0000 0.0000
# 5 0.0000 0.0000 0.0000 0.0000 17.8494 0.0000
# 6 0.0000 0.0000 0.0000 0.0000 0.0000 16.0171
#
#
#
# Elastic Compliance Matrix: (Units=1/GPa)
#
#
# Indices 1 2 3 4 5 6 
#
# 1 0.016489 -0.005918 -0.003215 0.000000 0.000000 0.000000
# 2 -0.005918 0.016489 -0.003215 0.000000 0.000000 0.000000
# 3 -0.003215 -0.003215 0.010480 0.000000 0.000000 0.000000
# 4 0.000000 0.000000 0.000000 0.056025 0.000000 0.000000
# 5 0.000000 0.000000 0.000000 0.000000 0.056024 0.000000
# 6 0.000000 0.000000 0.000000 0.000000 0.000000 0.062433
#
#
# Mechanical properties :
#
#
# Convention : Reuss Voigt Hill
#
# Bulk Modulus (GPa) = 53.29527 54.73125 54.01326
# Shear Modulus (GPa) = 20.08922 21.74632 20.91777
#
# Velocity S-wave (km/s) = 3.33842 3.47338 3.40657
# Velocity P-wave (km/s) = 6.66537 6.81539 6.74080
#
# Compressibility (1/GPa) = 0.01876339
#
# Stress axis : x y z
#
# Youngs Moduli (GPa) = 60.64727 60.64763 95.41629
#
# Poissons Ratio (x) = 0.35889 0.30675
# Poissons Ratio (y) = 0.35889 0.30675
# Poissons Ratio (z) = 0.19497 0.19497
#
# Static dielectric constant tensor:
#      x y z
#    x 3.095150 0.000000 0.000000 
#    y 0.000000 3.095150 0.000000 
#    z 0.000000 0.000000 3.518390 
# 
# 
# High freq. dielectric constant tensor:
#      x y z
#    x 1.678950 0.000000 0.000000 
#    y 0.000000 1.678950 0.000000 
#    z 0.000000 0.000000 1.718150 
# 
# From -- ./inp_files/6536.got.cif
#   From: 2010.03.12/outbox.cif.g09.slc.cpg/sg127_4_cif.got.tgz:6536.got - 2010.04.06 17:03:15.
