data_PCOD8314328
_publ_section_title
;
Structure prediction by ZEFSAII (Michael W. Deem and Ramdas Pophale) SiO2 
 PCOD8314328
Probable space group: P 4/M B M
;
_chemical_formula_sum "Si O2"
_cell_formula_units_Z 112
_cell_length_a 13.778780
_cell_length_b 13.778780
_cell_length_c 33.807024
_cell_angle_alpha 90.000000
_cell_angle_beta 90.000000
_cell_angle_gamma 90.000000
_cell_volume 6418.425046
_symmetry_space_group_name_H-M "P 4/M B M"
_symmetry_group_IT_number 127
_symmetry_cell_setting 'tetragonal'
loop_
_space_group_symop_operation_xyz
x,y,z
-y,x,z
-x,-y,z
y,-x,z
1/2+x,1/2-y,-z
1/2-x,1/2+y,-z
1/2+y,1/2+x,-z
1/2-y,1/2-x,-z
-x,-y,-z
y,-x,-z
x,y,-z
-y,x,-z
1/2-x,1/2+y,z
1/2+x,1/2-y,z
1/2-y,1/2-x,z
1/2+y,1/2+x,z
loop_
_atom_site_type_symbol
_atom_site_label
_atom_site_fract_x
_atom_site_fract_y
_atom_site_fract_z
Si Si1 0.757540 0.901155 0.953998
Si Si2 0.100983 0.237281 0.913273
Si Si3 0.436077 0.352836 0.458263
Si Si4 0.098189 0.756639 0.292865
Si Si5 0.763528 0.101607 0.748081
Si Si6 0.352014 0.564227 0.372854
Si Si7 0.652541 0.550885 0.830808
O O1 0.663001 0.836999 0.945111
O O2 0.850400 0.859790 0.930688
O O3 0.734639 0.008571 0.939339
O O4 0.783805 0.901644 0.000000
O O5 0.173049 0.326952 0.916325
O O6 0.070979 0.219845 0.868266
O O7 0.549161 0.375323 0.458541
O O8 0.411212 0.295742 0.500000
O O9 0.413678 0.301403 0.416019
O O10 0.162921 0.662921 0.284107
O O11 0.139465 0.850454 0.269889
O O12 0.097377 0.776553 0.339700
O O13 0.991192 0.734458 0.277554
O O14 0.674461 0.174461 0.745525
O O15 0.781677 0.071342 0.792988
O O16 0.374784 0.450583 0.368207
O O17 0.560682 0.621502 0.830989
#
# Coordination Sequence:
#
# PCOD8314328 Si02
#       7
#    16  16  16  16  16  16  16
#     4  10  22  39  60  87 116 149 191 231 272 325
#     4  11  22  39  60  84 119 153 183 227 276 319
#     4   7  10  17  32  60  95 128 165 210 263 319
#     4  11  22  35  54  78 107 140 177 224 274 324
#     4  11  23  39  58  81 109 142 178 221 271 320
#     4   9  15  25  46  71  98 135 175 219 270 321
#     4  11  21  37  62  87 111 143 182 226 271 316
#
# _framework density 17.449763000000001
#
# number of rings (size 3 to 8) (size 9 to 14) (size 15 to 20)
#    0.000    2.000    4.286    2.143    0.000    2.000 
#    0.000    2.143    0.000    2.143    0.000    0.000 
#    0.000    0.571    0.000    1.286    0.000    0.000 
#
# Total GULP energy -1388331.629555 kJ/mol
# GULP energy per Si atom -12395.818121 kJ/mol
# Density = 1.741005 g / cm^3
# Si number density = 17.449763 Si / 1000 Ang^3
#
#
#
# Elastic Constant Matrix: (Units=GPa)
#
#
# Indices 1 2 3 4 5 6 
#
# 1 64.4381 18.9041 19.5647 0.0000 0.0000 0.0000
# 2 18.9041 64.4381 19.5647 0.0000 0.0000 0.0000
# 3 19.5647 19.5647 106.5688 0.0000 0.0000 0.0000
# 4 0.0000 0.0000 0.0000 15.8072 0.0000 0.0000
# 5 0.0000 0.0000 0.0000 0.0000 15.8072 0.0000
# 6 0.0000 0.0000 0.0000 0.0000 0.0000 13.2097
#
#
#
# Elastic Compliance Matrix: (Units=1/GPa)
#
#
# Indices 1 2 3 4 5 6 
#
# 1 0.017546 -0.004416 -0.002411 0.000000 0.000000 0.000000
# 2 -0.004416 0.017546 -0.002411 0.000000 0.000000 0.000000
# 3 -0.002411 -0.002411 0.010269 0.000000 0.000000 0.000000
# 4 0.000000 0.000000 0.000000 0.063262 0.000000 0.000000
# 5 0.000000 0.000000 0.000000 0.000000 0.063262 0.000000
# 6 0.000000 0.000000 0.000000 0.000000 0.000000 0.075702
#
#
# Mechanical properties :
#
#
# Convention : Reuss Voigt Hill
#
# Bulk Modulus (GPa) = 37.19223 39.05691 38.12457
# Shear Modulus (GPa) = 18.18025 20.79224 19.48625
#
# Velocity S-wave (km/s) = 3.23129 3.45563 3.34534
# Velocity P-wave (km/s) = 5.93985 6.19297 6.06773
#
# Compressibility (1/GPa) = 0.02688733
#
# Stress axis : x y z
#
# Youngs Moduli (GPa) = 56.99289 56.99289 97.38313
#
# Poissons Ratio (x) = 0.25165 0.23475
# Poissons Ratio (y) = 0.25165 0.23475
# Poissons Ratio (z) = 0.13739 0.13739
#
# Static dielectric constant tensor:
#      x y z
#    x 2.986590 0.000000 0.000000 
#    y 0.000000 2.986590 0.000000 
#    z 0.000000 0.000000 3.686870 
# 
# 
# High freq. dielectric constant tensor:
#      x y z
#    x 1.649010 0.000000 0.000000 
#    y 0.000000 1.649010 0.000000 
#    z 0.000000 0.000000 1.703410 
# 
# From -- ./inp_files/6390.got.cif
#   From: 2010.03.12/outbox.cif.g09.slc.cpg/sg127_4_cif.got.tgz:6390.got - 2010.04.06 17:03:15.
