data_PCOD8314989
_publ_section_title
;
Structure prediction by ZEFSAII (Michael W. Deem and Ramdas Pophale) SiO2 
 PCOD8314989
Probable space group: P 4/N M M
;
_chemical_formula_sum "Si O2"
_cell_formula_units_Z 112
_cell_length_a 20.796817
_cell_length_b 20.796817
_cell_length_c 18.252882
_cell_angle_alpha 90.000000
_cell_angle_beta 90.000000
_cell_angle_gamma 90.000000
_cell_volume 7894.510138
_symmetry_space_group_name_H-M "P 4/N M M"
_symmetry_group_IT_number 129
_symmetry_cell_setting 'tetragonal'
loop_
_space_group_symop_operation_xyz
x,y,z
1/2-y,x,z
1/2-x,1/2-y,z
y,1/2-x,z
1/2+x,-y,-z
-x,1/2+y,-z
1/2+y,1/2+x,-z
-y,-x,-z
-x,-y,-z
1/2+y,-x,-z
1/2+x,1/2+y,-z
-y,1/2+x,-z
1/2-x,y,z
x,1/2-y,z
1/2-y,1/2-x,z
y,x,z
loop_
_atom_site_type_symbol
_atom_site_label
_atom_site_fract_x
_atom_site_fract_y
_atom_site_fract_z
Si Si1 0.178802 0.673582 0.919787
Si Si2 0.399963 0.676248 0.781503
Si Si3 0.941328 0.104609 0.574786
Si Si4 0.177953 0.675161 0.366517
Si Si5 0.320781 0.079114 0.384705
Si Si6 0.073268 0.177270 0.557733
Si Si7 0.909458 0.011542 0.696078
O O1 0.250000 0.644401 0.906240
O O2 0.183835 0.750000 0.917647
O O3 0.131412 0.649657 0.856229
O O4 0.152302 0.652302 0.000000
O O5 0.424376 0.750000 0.789977
O O6 0.348452 0.671166 0.716649
O O7 0.457975 0.627104 0.765331
O O8 0.937820 0.062181 0.500000
O O9 0.873934 0.142575 0.580542
O O10 0.950563 0.060483 0.646545
O O11 0.002378 0.151596 0.576679
O O12 0.250000 0.659503 0.396201
O O13 0.164398 0.750000 0.366093
O O14 0.250000 0.082087 0.350615
O O15 0.359037 0.140964 0.354946
O O16 0.319093 0.079191 0.471328
O O17 0.354547 0.014273 0.358418
O O18 0.082038 0.250000 0.590075
O O19 0.129108 0.129108 0.588474
O O20 0.956194 0.956194 0.726778
#
# Coordination Sequence:
#
# PCOD8314989 Si02
#       7
#    16  16  16  16  16  16  16
#     4   8  13  22  39  63  86 105 125 150 180 214
#     4   9  16  26  41  58  78 104 130 158 190 229
#     4  11  20  30  44  58  76 103 138 173 206 244
#     4   9  18  29  39  56  82 110 136 163 200 241
#     4   9  17  28  41  56  73  94 124 164 209 251
#     4  10  20  32  46  61  76  96 126 169 218 262
#     4  10  19  29  41  55  74 101 133 168 200 237
#
# _framework density 14.187074000000001
#
# number of rings (size 3 to 8) (size 9 to 14) (size 15 to 20)
#    0.000    2.571    1.429    2.143    0.000    4.286 
#    0.000    2.143    0.000    0.429    0.000    0.000 
#    0.000    0.000    0.000    0.000    0.000    0.000 
#
# Total GULP energy -1388191.735983 kJ/mol
# GULP energy per Si atom -12394.569071 kJ/mol
# Density = 1.415478 g / cm^3
# Si number density = 14.187074 Si / 1000 Ang^3
#
#
#
# Elastic Constant Matrix: (Units=GPa)
#
#
# Indices 1 2 3 4 5 6 
#
# 1 82.4908 44.2081 24.1950 0.0000 0.0000 0.0000
# 2 44.2081 82.4914 24.1950 0.0000 0.0000 0.0000
# 3 24.1950 24.1950 52.4366 0.0000 0.0000 0.0000
# 4 0.0000 0.0000 0.0000 12.8820 0.0000 0.0000
# 5 0.0000 0.0000 0.0000 0.0000 12.8819 0.0000
# 6 0.0000 0.0000 0.0000 0.0000 0.0000 25.3130
#
#
#
# Elastic Compliance Matrix: (Units=1/GPa)
#
#
# Indices 1 2 3 4 5 6 
#
# 1 0.017851 -0.008270 -0.004421 0.000000 0.000000 0.000000
# 2 -0.008270 0.017851 -0.004421 0.000000 0.000000 0.000000
# 3 -0.004421 -0.004421 0.023150 0.000000 0.000000 0.000000
# 4 0.000000 0.000000 0.000000 0.077627 0.000000 0.000000
# 5 0.000000 0.000000 0.000000 0.000000 0.077628 0.000000
# 6 0.000000 0.000000 0.000000 0.000000 0.000000 0.039505
#
#
# Mechanical properties :
#
#
# Convention : Reuss Voigt Hill
#
# Bulk Modulus (GPa) = 40.60229 44.73500 42.66864
# Shear Modulus (GPa) = 16.88921 18.53678 17.71299
#
# Velocity S-wave (km/s) = 3.45405 3.61861 3.53729
# Velocity P-wave (km/s) = 6.67747 7.00427 6.84282
#
# Compressibility (1/GPa) = 0.02462915
#
# Stress axis : x y z
#
# Youngs Moduli (GPa) = 56.01844 56.01884 43.19585
#
# Poissons Ratio (x) = 0.46328 0.19097
# Poissons Ratio (y) = 0.46327 0.19096
# Poissons Ratio (z) = 0.24765 0.24765
#
# Static dielectric constant tensor:
#      x y z
#    x 2.870880 0.000000 0.000000 
#    y 0.000000 2.870880 0.000000 
#    z 0.000000 0.000000 2.637690 
# 
# 
# High freq. dielectric constant tensor:
#      x y z
#    x 1.537490 0.000000 0.000000 
#    y 0.000000 1.537490 0.000000 
#    z 0.000000 0.000000 1.500890 
# 
# From -- ./inp_files/5980.got.cif
#   From: 2010.03.12/outbox.cif.g09.slc.cpg/sg129_3_cif.got.tgz:5980.got - 2010.04.06 17:19:44.
