data_PCOD8314738
_publ_section_title
;
Structure prediction by ZEFSAII (Michael W. Deem and Ramdas Pophale) SiO2 
 PCOD8314738
Probable space group: P 4/M N C
;
_chemical_formula_sum "Si O2"
_cell_formula_units_Z 96
_cell_length_a 23.083362
_cell_length_b 23.083362
_cell_length_c 9.555862
_cell_angle_alpha 90.000000
_cell_angle_beta 90.000000
_cell_angle_gamma 90.000000
_cell_volume 5091.760809
_symmetry_space_group_name_H-M "P 4/M N C"
_symmetry_group_IT_number 128
_symmetry_cell_setting 'tetragonal'
loop_
_space_group_symop_operation_xyz
x,y,z
-y,x,z
-x,-y,z
y,-x,z
1/2+x,1/2-y,1/2-z
1/2-x,1/2+y,1/2-z
1/2+y,1/2+x,1/2-z
1/2-y,1/2-x,1/2-z
-x,-y,-z
y,-x,-z
x,y,-z
-y,x,-z
1/2-x,1/2+y,1/2+z
1/2+x,1/2-y,1/2+z
1/2-y,1/2-x,1/2+z
1/2+y,1/2+x,1/2+z
loop_
_atom_site_type_symbol
_atom_site_label
_atom_site_fract_x
_atom_site_fract_y
_atom_site_fract_z
Si Si1 0.735848 0.953328 0.227606
Si Si2 0.765913 0.573948 0.841291
Si Si3 0.621911 0.812477 0.500000
Si Si4 0.801731 0.698270 0.250000
Si Si5 0.128987 0.933011 0.337247
Si Si6 0.753436 0.262946 0.500000
Si Si7 0.864434 0.955973 0.840279
Si Si8 0.770227 0.382219 0.000000
O O1 0.688914 0.918206 0.137096
O O2 0.795343 0.958832 0.143065
O O3 0.749761 0.918888 0.368474
O O4 0.710882 0.017249 0.259603
O O5 0.793572 0.630563 0.774655
O O6 0.697072 0.577259 0.833502
O O7 0.787327 0.569264 0.000000
O O8 0.666761 0.757468 0.500000
O O9 0.659831 0.871490 0.500000
O O10 0.759376 0.717096 0.371664
O O11 0.107675 0.935558 0.500000
O O12 0.100882 0.881103 0.248360
O O13 0.111372 0.991017 0.253105
O O14 0.819590 0.237599 0.500000
O O15 0.889760 0.956352 0.000000
#
# Coordination Sequence:
#
# PCOD8314738 Si02
#       8
#    16  16   8   8  16   8  16   8
#     4  11  21  39  60  85 125 157 199 247 297 372
#     4  10  23  40  58  86 116 164 202 239 295 365
#     4  10  22  37  57  99 118 150 200 243 324 354
#     4  12  22  40  58  88 131 164 206 249 298 378
#     4  10  23  38  61  80 107 151 207 242 300 355
#     4  10  24  34  58  96 128 155 193 254 314 364
#     4  11  23  38  55  82 115 152 193 254 299 348
#     4  10  22  35  63  87 126 158 192 243 316 366
#
# _framework density 18.853988000000001
#
# number of rings (size 3 to 8) (size 9 to 14) (size 15 to 20)
#    0.500    1.000    2.500    2.500    7.000    1.000 
#    1.500    1.667    0.000    0.000    0.000    3.500 
#    0.000    0.000    0.000    0.000    0.000    0.000 
#
# Total GULP energy -1190106.322042 kJ/mol
# GULP energy per Si atom -12396.940855 kJ/mol
# Density = 1.881108 g / cm^3
# Si number density = 18.853988 Si / 1000 Ang^3
#
#
#
# Elastic Constant Matrix: (Units=GPa)
#
#
# Indices 1 2 3 4 5 6 
#
# 1 78.4125 31.5556 36.4067 0.0000 0.0000 0.0000
# 2 31.5556 78.4126 36.4066 0.0000 0.0000 0.0000
# 3 36.4067 36.4066 146.0823 0.0000 0.0000 0.0000
# 4 0.0000 0.0000 0.0000 15.1948 0.0000 0.0000
# 5 0.0000 0.0000 0.0000 0.0000 15.1914 0.0000
# 6 0.0000 0.0000 0.0000 0.0000 0.0000 20.8326
#
#
#
# Elastic Compliance Matrix: (Units=1/GPa)
#
#
# Indices 1 2 3 4 5 6 
#
# 1 0.016116 -0.005225 -0.002714 0.000000 0.000000 0.000000
# 2 -0.005225 0.016116 -0.002714 0.000000 0.000000 0.000000
# 3 -0.002714 -0.002714 0.008198 0.000000 0.000000 0.000000
# 4 0.000000 0.000000 0.000000 0.065812 0.000000 0.000000
# 5 0.000000 0.000000 0.000000 0.000000 0.065827 0.000000
# 6 0.000000 0.000000 0.000000 0.000000 0.000000 0.048002
#
#
# Mechanical properties :
#
#
# Convention : Reuss Voigt Hill
#
# Bulk Modulus (GPa) = 52.29314 56.84947 54.57130
# Shear Modulus (GPa) = 20.18137 23.47963 21.83050
#
# Velocity S-wave (km/s) = 3.27525 3.53277 3.40644
# Velocity P-wave (km/s) = 6.48838 6.84533 6.66924
#
# Compressibility (1/GPa) = 0.01912297
#
# Stress axis : x y z
#
# Youngs Moduli (GPa) = 62.04958 62.04968 121.97629
#
# Poissons Ratio (x) = 0.32424 0.33107
# Poissons Ratio (y) = 0.32424 0.33106
# Poissons Ratio (z) = 0.16841 0.16841
#
# Static dielectric constant tensor:
#      x y z
#    x 3.307390 0.000000 0.000000 
#    y 0.000000 3.307420 0.000000 
#    z 0.000000 0.000000 4.076560 
# 
# 
# High freq. dielectric constant tensor:
#      x y z
#    x 1.711980 0.000000 0.000000 
#    y 0.000000 1.711980 0.000000 
#    z 0.000000 0.000000 1.753190 
# 
# From -- ./inp_files/1575.got.cif
#   From: 2010.03.12/outbox.cif.g09.slc.cpg/sg128_1_cif.got.tgz:1575.got - 2010.04.06 17:11:05.
