data_PCOD8314088
_publ_section_title
;
Structure prediction by ZEFSAII (Michael W. Deem and Ramdas Pophale) SiO2 
 PCOD8314088
Probable space group: P 4/M B M
;
_chemical_formula_sum "Si O2"
_cell_formula_units_Z 112
_cell_length_a 22.419653
_cell_length_b 22.419653
_cell_length_c 12.751360
_cell_angle_alpha 90.000000
_cell_angle_beta 90.000000
_cell_angle_gamma 90.000000
_cell_volume 6409.354310
_symmetry_space_group_name_H-M "P 4/M B M"
_symmetry_group_IT_number 127
_symmetry_cell_setting 'tetragonal'
loop_
_space_group_symop_operation_xyz
x,y,z
-y,x,z
-x,-y,z
y,-x,z
1/2+x,1/2-y,-z
1/2-x,1/2+y,-z
1/2+y,1/2+x,-z
1/2-y,1/2-x,-z
-x,-y,-z
y,-x,-z
x,y,-z
-y,x,-z
1/2-x,1/2+y,z
1/2+x,1/2-y,z
1/2-y,1/2-x,z
1/2+y,1/2+x,z
loop_
_atom_site_type_symbol
_atom_site_label
_atom_site_fract_x
_atom_site_fract_y
_atom_site_fract_z
Si Si1 0.199059 0.398311 0.882228
Si Si2 0.933350 0.433350 0.626801
Si Si3 0.819118 0.110491 0.759968
Si Si4 0.376211 0.288971 0.623472
Si Si5 0.860648 0.544520 0.693648
Si Si6 0.487952 0.732279 0.381564
Si Si7 0.558408 0.426367 0.876306
Si Si8 0.162046 0.662046 0.624001
O O1 0.161656 0.338345 0.888670
O O2 0.261312 0.377826 0.830854
O O3 0.164183 0.448414 0.813130
O O4 0.209156 0.424374 0.000000
O O5 0.939883 0.439883 0.500000
O O6 0.912350 0.495207 0.679597
O O7 0.885410 0.385410 0.664577
O O8 0.835387 0.163962 0.683057
O O9 0.807668 0.052851 0.690652
O O10 0.875728 0.100939 0.832957
O O11 0.365636 0.297835 0.500000
O O12 0.445920 0.287760 0.651251
O O13 0.353292 0.226456 0.667112
O O14 0.891837 0.608164 0.660602
O O15 0.803507 0.525808 0.624269
O O16 0.475823 0.713253 0.500000
O O17 0.582515 0.490423 0.837160
O O18 0.560510 0.423406 0.000000
O O19 0.160361 0.660361 0.500000
#
# Coordination Sequence:
#
# PCOD8314088 Si02
#       8
#    16   8  16  16  16  16  16   8
#     4   9  20  38  54  71 101 136 172 219 270 315
#     4  11  19  32  54  82 112 144 179 220 264 317
#     4  11  20  31  54  78  98 128 178 217 254 303
#     4  10  20  34  51  73 105 141 174 207 251 313
#     4  10  20  33  53  80 105 137 181 224 269 317
#     4  10  20  34  49  72 109 145 172 210 263 317
#     4   9  18  33  52  75 101 124 156 209 266 315
#     4   9  18  33  52  70 102 148 180 200 249 313
#
# _framework density 17.474459
#
# number of rings (size 3 to 8) (size 9 to 14) (size 15 to 20)
#    0.000    2.143    1.429    2.786    1.000    1.429 
#    0.000    0.357    0.000    2.571    0.000    6.000 
#    0.000    0.000    0.000    0.000    0.000    0.000 
#
# Total GULP energy -1388016.079171 kJ/mol
# GULP energy per Si atom -12393.000707 kJ/mol
# Density = 1.743469 g / cm^3
# Si number density = 17.474459 Si / 1000 Ang^3
#
#
#
# Elastic Constant Matrix: (Units=GPa)
#
#
# Indices 1 2 3 4 5 6 
#
# 1 69.6578 28.4661 38.0233 0.0000 0.0000 0.0000
# 2 28.4661 69.6578 38.0233 0.0000 0.0000 0.0000
# 3 38.0233 38.0233 79.7722 0.0000 0.0000 0.0000
# 4 0.0000 0.0000 0.0000 25.0970 0.0000 0.0000
# 5 0.0000 0.0000 0.0000 0.0000 25.0970 0.0000
# 6 0.0000 0.0000 0.0000 0.0000 0.0000 33.3801
#
#
#
# Elastic Compliance Matrix: (Units=1/GPa)
#
#
# Indices 1 2 3 4 5 6 
#
# 1 0.020219 -0.004058 -0.007703 0.000000 0.000000 0.000000
# 2 -0.004058 0.020219 -0.007703 0.000000 0.000000 0.000000
# 3 -0.007703 -0.007703 0.019879 0.000000 0.000000 0.000000
# 4 0.000000 0.000000 0.000000 0.039845 0.000000 0.000000
# 5 0.000000 0.000000 0.000000 0.000000 0.039845 0.000000
# 6 0.000000 0.000000 0.000000 0.000000 0.000000 0.029958
#
#
# Mechanical properties :
#
#
# Convention : Reuss Voigt Hill
#
# Bulk Modulus (GPa) = 46.75361 47.56813 47.16087
# Shear Modulus (GPa) = 23.14558 24.35315 23.74936
#
# Velocity S-wave (km/s) = 3.64337 3.73720 3.69058
# Velocity P-wave (km/s) = 6.67176 6.77516 6.72366
#
# Compressibility (1/GPa) = 0.02138872
#
# Stress axis : x y z
#
# Youngs Moduli (GPa) = 49.45846 49.45846 50.30401
#
# Poissons Ratio (x) = 0.20069 0.38750
# Poissons Ratio (y) = 0.20069 0.38750
# Poissons Ratio (z) = 0.38099 0.38099
#
# Static dielectric constant tensor:
#      x y z
#    x 3.346250 0.000000 0.000000 
#    y 0.000000 3.346250 0.000000 
#    z 0.000000 0.000000 3.174970 
# 
# 
# High freq. dielectric constant tensor:
#      x y z
#    x 1.681000 0.000000 0.000000 
#    y 0.000000 1.681000 0.000000 
#    z 0.000000 0.000000 1.659320 
# 
# From -- ./inp_files/3827.got.cif
#   From: 2010.03.12/outbox.cif.g09.slc.cpg/sg127_2_cif.got.tgz:3827.got - 2010.04.06 17:03:15.
