data_PCOD8314028
_publ_section_title
;
Structure prediction by ZEFSAII (Michael W. Deem and Ramdas Pophale) SiO2 
 PCOD8314028
Probable space group: P 4/M B M
;
_chemical_formula_sum "Si O2"
_cell_formula_units_Z 96
_cell_length_a 20.776417
_cell_length_b 20.776417
_cell_length_c 11.645218
_cell_angle_alpha 90.000000
_cell_angle_beta 90.000000
_cell_angle_gamma 90.000000
_cell_volume 5026.769018
_symmetry_space_group_name_H-M "P 4/M B M"
_symmetry_group_IT_number 127
_symmetry_cell_setting 'tetragonal'
loop_
_space_group_symop_operation_xyz
x,y,z
-y,x,z
-x,-y,z
y,-x,z
1/2+x,1/2-y,-z
1/2-x,1/2+y,-z
1/2+y,1/2+x,-z
1/2-y,1/2-x,-z
-x,-y,-z
y,-x,-z
x,y,-z
-y,x,-z
1/2-x,1/2+y,z
1/2+x,1/2-y,z
1/2-y,1/2-x,z
1/2+y,1/2+x,z
loop_
_atom_site_type_symbol
_atom_site_label
_atom_site_fract_x
_atom_site_fract_y
_atom_site_fract_z
Si Si1 0.489008 0.881803 0.000000
Si Si2 0.604726 0.714863 0.862831
Si Si3 0.075419 0.318791 0.365742
Si Si4 0.889029 0.719176 0.000000
Si Si5 0.947587 0.348035 0.775654
Si Si6 0.024626 0.903261 0.135079
Si Si7 0.839612 0.767611 0.223364
O O1 0.460050 0.809906 0.000000
O O2 0.529546 0.888834 0.114944
O O3 0.436137 0.936137 0.000000
O O4 0.589533 0.785785 0.821222
O O5 0.543621 0.669584 0.833910
O O6 0.660676 0.688230 0.778376
O O7 0.622911 0.714217 0.000000
O O8 0.063189 0.313634 0.500000
O O9 0.120089 0.379911 0.332785
O O10 0.112588 0.253213 0.327185
O O11 0.006426 0.328809 0.306668
O O12 0.883202 0.763304 0.889662
O O13 0.837522 0.662479 0.000000
O O14 0.895463 0.395463 0.712815
O O15 0.954120 0.921879 0.184355
O O16 0.024213 0.911134 0.000000
O O17 0.778960 0.721041 0.218881
#
# Coordination Sequence:
#
# PCOD8314028 Si02
#       7
#     8  16  16   8  16  16  16
#     4  11  21  35  55  84 123 165 203 247 304 365
#     4  11  22  33  54  88 129 166 192 231 303 384
#     4  10  23  44  67  87 110 153 217 275 310 349
#     4   9  16  28  52  83 113 145 188 239 290 351
#     4  12  25  38  55  87 129 163 201 253 311 378
#     4   8  16  30  47  73 111 152 193 233 274 336
#     4  10  19  34  57  85 117 152 194 241 295 362
#
# _framework density 19.097753999999998
#
# number of rings (size 3 to 8) (size 9 to 14) (size 15 to 20)
#    0.000    1.833    3.333    1.750    2.333    2.667 
#    0.000    1.667    0.000    2.000    0.000    0.000 
#    0.000    1.333    0.000    0.000    0.000    0.000 
#
# Total GULP energy -1189494.420187 kJ/mol
# GULP energy per Si atom -12390.566877 kJ/mol
# Density = 1.905429 g / cm^3
# Si number density = 19.097754 Si / 1000 Ang^3
#
#
#
# Elastic Constant Matrix: (Units=GPa)
#
#
# Indices 1 2 3 4 5 6 
#
# 1 96.6579 42.3974 29.6309 0.0000 0.0000 0.0000
# 2 42.3974 96.6584 29.6311 0.0000 0.0000 0.0000
# 3 29.6309 29.6311 72.7809 0.0000 0.0000 0.0000
# 4 0.0000 0.0000 0.0000 13.7665 0.0000 0.0000
# 5 0.0000 0.0000 0.0000 0.0000 13.7670 0.0000
# 6 0.0000 0.0000 0.0000 0.0000 0.0000 32.6454
#
#
#
# Elastic Compliance Matrix: (Units=1/GPa)
#
#
# Indices 1 2 3 4 5 6 
#
# 1 0.013565 -0.004864 -0.003542 0.000000 0.000000 0.000000
# 2 -0.004864 0.013565 -0.003542 0.000000 0.000000 0.000000
# 3 -0.003542 -0.003542 0.016624 0.000000 0.000000 0.000000
# 4 0.000000 0.000000 0.000000 0.072640 0.000000 0.000000
# 5 0.000000 0.000000 0.000000 0.000000 0.072637 0.000000
# 6 0.000000 0.000000 0.000000 0.000000 0.000000 0.030632
#
#
# Mechanical properties :
#
#
# Convention : Reuss Voigt Hill
#
# Bulk Modulus (GPa) = 50.36083 52.15735 51.25909
# Shear Modulus (GPa) = 19.98548 22.99831 21.49189
#
# Velocity S-wave (km/s) = 3.23845 3.47398 3.35828
# Velocity P-wave (km/s) = 6.35694 6.59253 6.47580
#
# Compressibility (1/GPa) = 0.01985670
#
# Stress axis : x y z
#
# Youngs Moduli (GPa) = 73.71738 73.71764 60.15294
#
# Poissons Ratio (x) = 0.35858 0.21309
# Poissons Ratio (y) = 0.35858 0.21309
# Poissons Ratio (z) = 0.26114 0.26114
#
# Static dielectric constant tensor:
#      x y z
#    x 3.678470 0.000000 0.000000 
#    y 0.000000 3.678460 0.000000 
#    z 0.000000 0.000000 3.133660 
# 
# 
# High freq. dielectric constant tensor:
#      x y z
#    x 1.752960 0.000000 0.000000 
#    y 0.000000 1.752960 0.000000 
#    z 0.000000 0.000000 1.685060 
# 
# From -- ./inp_files/3612.got.cif
#   From: 2010.03.12/outbox.cif.g09.slc.cpg/sg127_2_cif.got.tgz:3612.got - 2010.04.06 17:03:15.
