data_PCOD8314824
_publ_section_title
;
Structure prediction by ZEFSAII (Michael W. Deem and Ramdas Pophale) SiO2 
 PCOD8314824
Probable space group: P 4/M N C
;
_chemical_formula_sum "Si O2"
_cell_formula_units_Z 96
_cell_length_a 23.478965
_cell_length_b 23.478965
_cell_length_c 8.534660
_cell_angle_alpha 90.000000
_cell_angle_beta 90.000000
_cell_angle_gamma 90.000000
_cell_volume 4704.832012
_symmetry_space_group_name_H-M "P 4/M N C"
_symmetry_group_IT_number 128
_symmetry_cell_setting 'tetragonal'
loop_
_space_group_symop_operation_xyz
x,y,z
-y,x,z
-x,-y,z
y,-x,z
1/2+x,1/2-y,1/2-z
1/2-x,1/2+y,1/2-z
1/2+y,1/2+x,1/2-z
1/2-y,1/2-x,1/2-z
-x,-y,-z
y,-x,-z
x,y,-z
-y,x,-z
1/2-x,1/2+y,1/2+z
1/2+x,1/2-y,1/2+z
1/2-y,1/2-x,1/2+z
1/2+y,1/2+x,1/2+z
loop_
_atom_site_type_symbol
_atom_site_label
_atom_site_fract_x
_atom_site_fract_y
_atom_site_fract_z
Si Si1 0.271540 0.986983 0.682264
Si Si2 0.101540 0.686169 0.815222
Si Si3 0.845096 0.004848 0.818910
Si Si4 0.774771 0.640192 0.314924
Si Si5 0.905285 0.102418 0.325468
Si Si6 0.290783 0.668225 0.175288
O O1 0.282788 0.977147 0.500000
O O2 0.208748 0.011076 0.713797
O O3 0.276430 0.926222 0.768047
O O4 0.311849 0.037452 0.745078
O O5 0.127606 0.627606 0.750000
O O6 0.145431 0.736886 0.771233
O O7 0.095777 0.684513 0.000000
O O8 0.861864 0.069776 0.787825
O O9 0.897840 0.966730 0.758188
O O10 0.831114 0.994237 0.000000
O O11 0.833016 0.666985 0.250000
O O12 0.772273 0.643778 0.500000
O O13 0.722280 0.677250 0.249306
O O14 0.908038 0.075149 0.500000
O O15 0.884401 0.166646 0.333700
O O16 0.270681 0.685263 0.000000
#
# Coordination Sequence:
#
# PCOD8314824 Si02
#       6
#    16  16  16  16  16  16
#     4  12  24  42  65  92 125 164 206 251 307 371
#     4  12  25  42  65  95 129 166 208 256 310 369
#     4  12  24  39  61  88 119 159 211 261 310 365
#     4  12  25  42  65  95 129 166 208 256 310 369
#     4  11  23  39  61  85 119 163 210 258 311 365
#     4  11  22  38  62  92 128 167 207 256 311 368
#
# _framework density 20.404553
#
# number of rings (size 3 to 8) (size 9 to 14) (size 15 to 20)
#    0.000    0.333    3.333    7.500    0.000    1.667 
#    0.000    1.667    0.000    0.500    0.000    3.500 
#    0.000    0.000    0.000    0.000    0.000    0.000 
#
# Total GULP energy -1190260.140711 kJ/mol
# GULP energy per Si atom -12398.543132 kJ/mol
# Density = 2.035811 g / cm^3
# Si number density = 20.404553 Si / 1000 Ang^3
#
#
#
# Elastic Constant Matrix: (Units=GPa)
#
#
# Indices 1 2 3 4 5 6 
#
# 1 46.2538 60.4564 30.3930 0.0000 0.0000 0.0000
# 2 60.4564 46.2726 30.3941 0.0000 0.0000 0.0000
# 3 30.3930 30.3941 147.8388 0.0000 0.0000 0.0000
# 4 0.0000 0.0000 0.0000 32.9665 0.0000 0.0000
# 5 0.0000 0.0000 0.0000 0.0000 32.9657 0.0000
# 6 0.0000 0.0000 0.0000 0.0000 0.0000 34.3144
#
#
#
# Elastic Compliance Matrix: (Units=1/GPa)
#
#
# Indices 1 2 3 4 5 6 
#
# 1 -0.029928 0.040535 -0.002181 0.000000 0.000000 0.000000
# 2 0.040535 -0.029915 -0.002183 0.000000 0.000000 0.000000
# 3 -0.002181 -0.002183 0.007661 0.000000 0.000000 0.000000
# 4 0.000000 0.000000 0.000000 0.030334 0.000000 0.000000
# 5 0.000000 0.000000 0.000000 0.000000 0.030335 0.000000
# 6 0.000000 0.000000 0.000000 0.000000 0.000000 0.029142
#
#
# Mechanical properties :
#
#
# Convention : Reuss Voigt Hill
#
# Bulk Modulus (GPa) = 49.60337 53.65026 51.62682
# Shear Modulus (GPa) = -178.61802 27.99076 -75.31363
#
# Velocity S-wave (km/s) = -9.36634 3.70779 -6.08197
# Velocity P-wave (km/s) = 9.62333 6.68436 4.89529
#
# Compressibility (1/GPa) = 0.02015992
#
# Stress axis : x y z
#
# Youngs Moduli (GPa) = -33.41318 -33.42843 130.52673
#
# Poissons Ratio (x) = 1.35501 0.28465
# Poissons Ratio (y) = 1.35439 0.28495
# Poissons Ratio (z) = -0.07287 -0.07298
#
# Static dielectric constant tensor:
#      x y z
#    x 3.756070 0.000000 0.000000 
#    y 0.000000 3.756070 0.000000 
#    z 0.000000 0.000000 3.827840 
# 
# 
# High freq. dielectric constant tensor:
#      x y z
#    x 1.790110 0.000000 0.000000 
#    y 0.000000 1.790110 0.000000 
#    z 0.000000 0.000000 1.816300 
# 
# From -- ./inp_files/1507.got.cif
#   From: 2010.03.12/outbox.cif.g09.slc.cpg/sg128_1_cif.got.tgz:1507.got - 2010.04.06 17:11:05.
