data_PCOD8314540
_publ_section_title
;
Structure prediction by ZEFSAII (Michael W. Deem and Ramdas Pophale) SiO2 
 PCOD8314540
Probable space group: P 4/M N C
;
_chemical_formula_sum "Si O2"
_cell_formula_units_Z 72
_cell_length_a 20.700245
_cell_length_b 20.700245
_cell_length_c 9.376575
_cell_angle_alpha 90.000000
_cell_angle_beta 90.000000
_cell_angle_gamma 90.000000
_cell_volume 4017.863729
_symmetry_space_group_name_H-M "P 4/M N C"
_symmetry_group_IT_number 128
_symmetry_cell_setting 'tetragonal'
loop_
_space_group_symop_operation_xyz
x,y,z
-y,x,z
-x,-y,z
y,-x,z
1/2+x,1/2-y,1/2-z
1/2-x,1/2+y,1/2-z
1/2+y,1/2+x,1/2-z
1/2-y,1/2-x,1/2-z
-x,-y,-z
y,-x,-z
x,y,-z
-y,x,-z
1/2-x,1/2+y,1/2+z
1/2+x,1/2-y,1/2+z
1/2-y,1/2-x,1/2+z
1/2+y,1/2+x,1/2+z
loop_
_atom_site_type_symbol
_atom_site_label
_atom_site_fract_x
_atom_site_fract_y
_atom_site_fract_z
Si Si1 0.975053 0.392960 0.659488
Si Si2 0.246024 0.906234 0.158590
Si Si3 0.684684 0.721673 0.667834
Si Si4 0.454357 0.230778 0.332909
Si Si5 0.385978 0.885978 0.250000
O O1 0.956490 0.456490 0.750000
O O2 0.946386 0.396521 0.500000
O O3 0.942509 0.333536 0.742713
O O4 0.052218 0.387100 0.646522
O O5 0.207189 0.847668 0.234657
O O6 0.321697 0.888239 0.155518
O O7 0.235426 0.978603 0.223611
O O8 0.218528 0.908296 0.000000
O O9 0.720524 0.779477 0.750000
O O10 0.701861 0.727894 0.500000
O O11 0.607531 0.724040 0.692319
O O12 0.462785 0.212749 0.500000
#
# Coordination Sequence:
#
# PCOD8314540 Si02
#       5
#    16  16  16  16   8
#     4  11  22  33  48  69  98 135 171 205 245 294
#     4   9  17  31  49  70  97 127 160 201 251 299
#     4  10  19  32  52  75  99 129 167 208 251 300
#     4   9  19  34  51  71  99 132 165 207 255 301
#     4  10  19  32  48  68  96 128 164 207 244 290
#
# _framework density 17.919969999999999
#
# number of rings (size 3 to 8) (size 9 to 14) (size 15 to 20)
#    0.000    2.222    1.111    2.333    0.000    6.222 
#    0.000    0.000    0.000    0.667    0.000    4.667 
#    0.000    0.000    0.000    7.778    0.000    7.778 
#
# Total GULP energy -892143.902156 kJ/mol
# GULP energy per Si atom -12390.887530 kJ/mol
# Density = 1.787918 g / cm^3
# Si number density = 17.919970 Si / 1000 Ang^3
#
#
#
# Elastic Constant Matrix: (Units=GPa)
#
#
# Indices 1 2 3 4 5 6 
#
# 1 114.1754 69.6157 25.5834 0.0000 0.0000 0.0000
# 2 69.6157 114.1727 25.5834 0.0000 0.0000 0.0000
# 3 25.5834 25.5834 70.8180 0.0000 0.0000 0.0000
# 4 0.0000 0.0000 0.0000 17.0258 0.0000 0.0000
# 5 0.0000 0.0000 0.0000 0.0000 17.0260 0.0000
# 6 0.0000 0.0000 0.0000 0.0000 0.0000 31.8862
#
#
#
# Elastic Compliance Matrix: (Units=1/GPa)
#
#
# Indices 1 2 3 4 5 6 
#
# 1 0.014246 -0.008197 -0.002185 0.000000 0.000000 0.000000
# 2 -0.008197 0.014246 -0.002185 0.000000 0.000000 0.000000
# 3 -0.002185 -0.002185 0.015700 0.000000 0.000000 0.000000
# 4 0.000000 0.000000 0.000000 0.058735 0.000000 0.000000
# 5 0.000000 0.000000 0.000000 0.000000 0.058734 0.000000
# 6 0.000000 0.000000 0.000000 0.000000 0.000000 0.031362
#
#
# Mechanical properties :
#
#
# Convention : Reuss Voigt Hill
#
# Bulk Modulus (GPa) = 52.47429 60.08123 56.27776
# Shear Modulus (GPa) = 22.27090 25.07983 23.67536
#
# Velocity S-wave (km/s) = 3.52916 3.74511 3.63874
# Velocity P-wave (km/s) = 6.77885 7.23197 7.00907
#
# Compressibility (1/GPa) = 0.01905695
#
# Stress axis : x y z
#
# Youngs Moduli (GPa) = 70.19625 70.19442 63.69562
#
# Poissons Ratio (x) = 0.57535 0.13919
# Poissons Ratio (y) = 0.57537 0.13920
# Poissons Ratio (z) = 0.15340 0.15341
#
# Static dielectric constant tensor:
#      x y z
#    x 3.400320 0.000000 0.000000 
#    y 0.000000 3.400320 0.000000 
#    z 0.000000 0.000000 3.074260 
# 
# 
# High freq. dielectric constant tensor:
#      x y z
#    x 1.685280 0.000000 0.000000 
#    y 0.000000 1.685280 0.000000 
#    z 0.000000 0.000000 1.671170 
# 
# From -- ./inp_files/1186.got.cif
#   From: 2010.03.12/outbox.cif.g09.slc.cpg/sg128_1_cif.got.tgz:1186.got - 2010.04.06 17:11:05.
