data_PCOD8314550
_publ_section_title
;
Structure prediction by ZEFSAII (Michael W. Deem and Ramdas Pophale) SiO2 
 PCOD8314550
Probable space group: P 4/M N C
;
_chemical_formula_sum "Si O2"
_cell_formula_units_Z 104
_cell_length_a 25.942822
_cell_length_b 25.942822
_cell_length_c 7.889711
_cell_angle_alpha 90.000000
_cell_angle_beta 90.000000
_cell_angle_gamma 90.000000
_cell_volume 5310.012299
_symmetry_space_group_name_H-M "P 4/M N C"
_symmetry_group_IT_number 128
_symmetry_cell_setting 'tetragonal'
loop_
_space_group_symop_operation_xyz
x,y,z
-y,x,z
-x,-y,z
y,-x,z
1/2+x,1/2-y,1/2-z
1/2-x,1/2+y,1/2-z
1/2+y,1/2+x,1/2-z
1/2-y,1/2-x,1/2-z
-x,-y,-z
y,-x,-z
x,y,-z
-y,x,-z
1/2-x,1/2+y,1/2+z
1/2+x,1/2-y,1/2+z
1/2-y,1/2-x,1/2+z
1/2+y,1/2+x,1/2+z
loop_
_atom_site_type_symbol
_atom_site_label
_atom_site_fract_x
_atom_site_fract_y
_atom_site_fract_z
Si Si1 0.881798 0.699054 0.301573
Si Si2 0.972277 0.837808 0.694727
Si Si3 0.190490 0.864619 0.192906
Si Si4 0.085624 0.992879 0.000000
Si Si5 0.174552 0.750939 0.198106
Si Si6 0.276992 0.994031 0.299411
Si Si7 0.828709 0.406749 0.189736
O O1 0.853130 0.646871 0.250000
O O2 0.877428 0.709249 0.500000
O O3 0.857490 0.747996 0.207248
O O4 0.941445 0.694560 0.244146
O O5 0.988861 0.851536 0.500000
O O6 0.909971 0.832691 0.692340
O O7 0.991475 0.880762 0.827286
O O8 0.994869 0.782892 0.759509
O O9 0.165978 0.810274 0.249704
O O10 0.175755 0.877512 0.000000
O O11 0.046721 0.944764 0.000000
O O12 0.231974 0.731974 0.250000
O O13 0.134543 0.716840 0.302109
O O14 0.165166 0.742318 0.000000
O O15 0.275619 0.999161 0.500000
O O16 0.309236 0.041260 0.214396
O O17 0.882965 0.382965 0.250000
O O18 0.838959 0.423384 0.000000
#
# Coordination Sequence:
#
# PCOD8314550 Si02
#       7
#    16  16  16   8  16  16  16
#     4  10  19  32  51  78 109 145 187 232 290 348
#     4  10  21  41  64  88 116 151 195 245 300 353
#     4  10  19  33  53  81 115 147 183 232 285 346
#     4  11  26  46  64  88 120 152 198 259 304 350
#     4  10  20  31  45  71 108 144 181 220 273 342
#     4   8  18  36  57  80 110 147 188 236 284 344
#     4  10  19  34  52  75 107 142 187 231 280 341
#
# _framework density 19.585640000000001
#
# number of rings (size 3 to 8) (size 9 to 14) (size 15 to 20)
#    0.000    2.231    0.769    4.154    0.000    5.538 
#    2.769    2.308    0.000    0.462    0.000    3.231 
#    0.000    0.000    0.000    0.000    0.000    0.000 
#
# Total GULP energy -1288985.499217 kJ/mol
# GULP energy per Si atom -12394.091339 kJ/mol
# Density = 1.954106 g / cm^3
# Si number density = 19.585640 Si / 1000 Ang^3
#
#
#
# Elastic Constant Matrix: (Units=GPa)
#
#
# Indices 1 2 3 4 5 6 
#
# 1 85.4396 44.2517 20.3973 0.0000 0.0000 0.0000
# 2 44.2517 85.4381 20.3945 0.0000 0.0000 0.0000
# 3 20.3973 20.3945 62.9534 0.0000 0.0000 0.0000
# 4 0.0000 0.0000 0.0000 19.7656 0.0000 0.0000
# 5 0.0000 0.0000 0.0000 0.0000 19.7655 0.0000
# 6 0.0000 0.0000 0.0000 0.0000 0.0000 23.6164
#
#
#
# Elastic Compliance Matrix: (Units=1/GPa)
#
#
# Indices 1 2 3 4 5 6 
#
# 1 0.016433 -0.007847 -0.002782 0.000000 0.000000 0.000000
# 2 -0.007847 0.016432 -0.002781 0.000000 0.000000 0.000000
# 3 -0.002782 -0.002781 0.017687 0.000000 0.000000 0.000000
# 4 0.000000 0.000000 0.000000 0.050593 0.000000 0.000000
# 5 0.000000 0.000000 0.000000 0.000000 0.050593 0.000000
# 6 0.000000 0.000000 0.000000 0.000000 0.000000 0.042343
#
#
# Mechanical properties :
#
#
# Convention : Reuss Voigt Hill
#
# Bulk Modulus (GPa) = 42.13732 44.87977 43.50855
# Shear Modulus (GPa) = 21.85196 22.54868 22.20032
#
# Velocity S-wave (km/s) = 3.34385 3.39674 3.37040
# Velocity P-wave (km/s) = 6.03900 6.19259 6.11628
#
# Compressibility (1/GPa) = 0.02373193
#
# Stress axis : x y z
#
# Youngs Moduli (GPa) = 60.85495 60.85521 56.53819
#
# Poissons Ratio (x) = 0.47753 0.15730
# Poissons Ratio (y) = 0.47752 0.15724
# Poissons Ratio (z) = 0.16931 0.16924
#
# Static dielectric constant tensor:
#      x y z
#    x 3.795900 0.000000 0.000000 
#    y 0.000000 3.795890 0.000000 
#    z 0.000000 0.000000 3.476290 
# 
# 
# High freq. dielectric constant tensor:
#      x y z
#    x 1.751530 0.000000 0.000000 
#    y 0.000000 1.751520 0.000000 
#    z 0.000000 0.000000 1.760890 
# 
# From -- ./inp_files/1677.got.cif
#   From: 2010.03.12/outbox.cif.g09.slc.cpg/sg128_1_cif.got.tgz:1677.got - 2010.04.06 17:11:05.
