data_PCOD8314140
_publ_section_title
;
Structure prediction by ZEFSAII (Michael W. Deem and Ramdas Pophale) SiO2 
 PCOD8314140
Probable space group: P 4/M B M
;
_chemical_formula_sum "Si O2"
_cell_formula_units_Z 120
_cell_length_a 26.253619
_cell_length_b 26.253619
_cell_length_c 9.510854
_cell_angle_alpha 90.000000
_cell_angle_beta 90.000000
_cell_angle_gamma 90.000000
_cell_volume 6555.379997
_symmetry_space_group_name_H-M "P 4/M B M"
_symmetry_group_IT_number 127
_symmetry_cell_setting 'tetragonal'
loop_
_space_group_symop_operation_xyz
x,y,z
-y,x,z
-x,-y,z
y,-x,z
1/2+x,1/2-y,-z
1/2-x,1/2+y,-z
1/2+y,1/2+x,-z
1/2-y,1/2-x,-z
-x,-y,-z
y,-x,-z
x,y,-z
-y,x,-z
1/2-x,1/2+y,z
1/2+x,1/2-y,z
1/2-y,1/2-x,z
1/2+y,1/2+x,z
loop_
_atom_site_type_symbol
_atom_site_label
_atom_site_fract_x
_atom_site_fract_y
_atom_site_fract_z
Si Si1 0.598387 0.611123 0.661820
Si Si2 0.186550 0.848821 0.839107
Si Si3 0.841132 0.258149 0.845814
Si Si4 0.346630 0.490755 0.337490
Si Si5 0.540998 0.040998 0.166232
Si Si6 0.946353 0.756556 0.835682
Si Si7 0.996591 0.651426 0.834331
Si Si8 0.820379 0.405973 0.341961
O O1 0.607218 0.625009 0.500000
O O2 0.635278 0.645230 0.752851
O O3 0.611157 0.552293 0.691394
O O4 0.541592 0.624516 0.709926
O O5 0.197613 0.788953 0.812865
O O6 0.231875 0.887170 0.791303
O O7 0.174536 0.861289 0.000000
O O8 0.808615 0.308615 0.851328
O O9 0.885030 0.268064 0.729751
O O10 0.866653 0.249225 0.000000
O O11 0.329925 0.491884 0.500000
O O12 0.295177 0.482900 0.248013
O O13 0.528315 0.098318 0.216736
O O14 0.500000 0.000000 0.228108
O O15 0.538531 0.038531 0.000000
O O16 0.958377 0.697993 0.797177
O O17 0.955737 0.766048 0.000000
O O18 0.048253 0.657928 0.749590
O O19 0.009158 0.650034 0.000000
O O20 0.806675 0.424093 0.500000
O O21 0.862899 0.362899 0.348016
#
# Coordination Sequence:
#
# PCOD8314140 Si02
#       8
#    16  16  16  16   8  16  16  16
#     4   9  18  31  48  70  96 129 169 210 256 303
#     4   9  18  33  50  70  98 132 166 207 254 302
#     4   9  18  33  52  75 101 132 168 204 250 304
#     4   9  18  32  49  71  98 131 171 214 259 305
#     4   9  18  34  57  83 109 137 173 213 257 311
#     4   9  19  34  50  73 104 133 170 213 256 302
#     4  10  20  35  56  81 106 139 175 212 257 310
#     4  10  21  35  52  78 109 136 167 210 258 306
#
# _framework density 18.305575999999999
#
# number of rings (size 3 to 8) (size 9 to 14) (size 15 to 20)
#    0.000    2.733    0.000    0.800    1.867    3.200 
#    1.200    1.667    0.000    1.200    0.000    3.733 
#    0.000    0.000    0.000    0.000    0.000    0.000 
#
# Total GULP energy -1487094.784731 kJ/mol
# GULP energy per Si atom -12392.456539 kJ/mol
# Density = 1.826391 g / cm^3
# Si number density = 18.305576 Si / 1000 Ang^3
#
#
#
# Elastic Constant Matrix: (Units=GPa)
#
#
# Indices 1 2 3 4 5 6 
#
# 1 108.8558 47.3188 36.4797 0.0000 0.0000 0.0000
# 2 47.3188 108.8558 36.4797 0.0000 0.0000 0.0000
# 3 36.4797 36.4797 55.1919 0.0000 0.0000 0.0000
# 4 0.0000 0.0000 0.0000 20.4880 0.0000 0.0000
# 5 0.0000 0.0000 0.0000 0.0000 20.4880 0.0000
# 6 0.0000 0.0000 0.0000 0.0000 0.0000 19.4102
#
#
#
# Elastic Compliance Matrix: (Units=1/GPa)
#
#
# Indices 1 2 3 4 5 6 
#
# 1 0.012757 -0.003493 -0.006123 0.000000 0.000000 0.000000
# 2 -0.003493 0.012757 -0.006123 0.000000 0.000000 0.000000
# 3 -0.006123 -0.006123 0.026212 0.000000 0.000000 0.000000
# 4 0.000000 0.000000 0.000000 0.048809 0.000000 0.000000
# 5 0.000000 0.000000 0.000000 0.000000 0.048809 0.000000
# 6 0.000000 0.000000 0.000000 0.000000 0.000000 0.051519
#
#
# Mechanical properties :
#
#
# Convention : Reuss Voigt Hill
#
# Bulk Modulus (GPa) = 49.38705 57.05109 53.21907
# Shear Modulus (GPa) = 20.91253 22.25226 21.58240
#
# Velocity S-wave (km/s) = 3.38363 3.49033 3.43739
# Velocity P-wave (km/s) = 6.50408 6.89034 6.69999
#
# Compressibility (1/GPa) = 0.02024822
#
# Stress axis : x y z
#
# Youngs Moduli (GPa) = 78.38881 78.38881 38.14979
#
# Poissons Ratio (x) = 0.27385 0.23358
# Poissons Ratio (y) = 0.27385 0.23358
# Poissons Ratio (z) = 0.47996 0.47996
#
# Static dielectric constant tensor:
#      x y z
#    x 3.489750 0.000000 0.000000 
#    y 0.000000 3.489750 0.000000 
#    z 0.000000 0.000000 3.475700 
# 
# 
# High freq. dielectric constant tensor:
#      x y z
#    x 1.706350 0.000000 0.000000 
#    y 0.000000 1.706350 0.000000 
#    z 0.000000 0.000000 1.700710 
# 
# From -- ./inp_files/2414.got.cif
#   From: 2010.03.12/outbox.cif.g09.slc.cpg/sg127_2_cif.got.tgz:2414.got - 2010.04.06 17:03:15.
