data_PCOD8314735
_publ_section_title
;
Structure prediction by ZEFSAII (Michael W. Deem and Ramdas Pophale) SiO2 
 PCOD8314735
Probable space group: P 4/M N C
;
_chemical_formula_sum "Si O2"
_cell_formula_units_Z 72
_cell_length_a 14.241666
_cell_length_b 14.241666
_cell_length_c 17.278312
_cell_angle_alpha 90.000000
_cell_angle_beta 90.000000
_cell_angle_gamma 90.000000
_cell_volume 3504.474503
_symmetry_space_group_name_H-M "P 4/M N C"
_symmetry_group_IT_number 128
_symmetry_cell_setting 'tetragonal'
loop_
_space_group_symop_operation_xyz
x,y,z
-y,x,z
-x,-y,z
y,-x,z
1/2+x,1/2-y,1/2-z
1/2-x,1/2+y,1/2-z
1/2+y,1/2+x,1/2-z
1/2-y,1/2-x,1/2-z
-x,-y,-z
y,-x,-z
x,y,-z
-y,x,-z
1/2-x,1/2+y,1/2+z
1/2+x,1/2-y,1/2+z
1/2-y,1/2-x,1/2+z
1/2+y,1/2+x,1/2+z
loop_
_atom_site_type_symbol
_atom_site_label
_atom_site_fract_x
_atom_site_fract_y
_atom_site_fract_z
Si Si1 0.084123 0.572537 0.084977
Si Si2 0.431817 0.780163 0.142739
Si Si3 0.785389 0.566124 0.408040
Si Si4 0.950268 0.853620 0.500000
Si Si5 0.949313 0.854611 0.218228
O O1 0.163817 0.531889 0.142019
O O2 0.000000 0.500000 0.077246
O O3 0.036765 0.670070 0.111999
O O4 0.131195 0.583858 0.000000
O O5 0.346956 0.851960 0.130068
O O6 0.421241 0.729514 0.224593
O O7 0.426845 0.703552 0.076319
O O8 0.777060 0.581652 0.500000
O O9 0.682772 0.566358 0.369196
O O10 0.882342 0.942062 0.500000
O O11 0.057000 0.882604 0.232446
#
# Coordination Sequence:
#
# PCOD8314735 Si02
#       5
#    16  16  16   8  16
#     4   8  15  32  61  92 127 159 194 255 326 373
#     4  11  19  40  65  95 128 163 215 268 320 386
#     4  10  21  42  68  97 128 163 215 279 324 372
#     4  11  22  36  57  92 138 181 204 241 323 399
#     4  11  26  46  62  85 130 182 218 257 319 387
#
# _framework density 20.545164
#
# number of rings (size 3 to 8) (size 9 to 14) (size 15 to 20)
#    0.000    1.889    2.222    3.333    0.000    3.556 
#   12.000    4.444    0.000    0.000    0.000    0.000 
#    0.000    0.000    0.000    0.000    0.000    0.000 
#
# Total GULP energy -892590.207149 kJ/mol
# GULP energy per Si atom -12397.086210 kJ/mol
# Density = 2.049840 g / cm^3
# Si number density = 20.545164 Si / 1000 Ang^3
#
#
#
# Elastic Constant Matrix: (Units=GPa)
#
#
# Indices 1 2 3 4 5 6 
#
# 1 83.6540 30.8569 45.0019 0.0000 0.0000 0.0000
# 2 30.8569 83.6540 45.0019 0.0000 0.0000 0.0000
# 3 45.0019 45.0019 107.6081 0.0000 0.0000 0.0000
# 4 0.0000 0.0000 0.0000 27.8236 0.0000 0.0000
# 5 0.0000 0.0000 0.0000 0.0000 27.8236 0.0000
# 6 0.0000 0.0000 0.0000 0.0000 0.0000 11.3267
#
#
#
# Elastic Compliance Matrix: (Units=1/GPa)
#
#
# Indices 1 2 3 4 5 6 
#
# 1 0.015975 -0.002966 -0.005440 0.000000 0.000000 0.000000
# 2 -0.002966 0.015975 -0.005440 0.000000 0.000000 0.000000
# 3 -0.005440 -0.005440 0.013843 0.000000 0.000000 0.000000
# 4 0.000000 0.000000 0.000000 0.035941 0.000000 0.000000
# 5 0.000000 0.000000 0.000000 0.000000 0.035941 0.000000
# 6 0.000000 0.000000 0.000000 0.000000 0.000000 0.088287
#
#
# Mechanical properties :
#
#
# Convention : Reuss Voigt Hill
#
# Bulk Modulus (GPa) = 55.24969 57.40415 56.32692
# Shear Modulus (GPa) = 20.86055 23.66515 22.26285
#
# Velocity S-wave (km/s) = 3.18991 3.39759 3.29539
# Velocity P-wave (km/s) = 6.36534 6.58731 6.47728
#
# Compressibility (1/GPa) = 0.01809965
#
# Stress axis : x y z
#
# Youngs Moduli (GPa) = 62.59942 62.59942 72.23738
#
# Poissons Ratio (x) = 0.18566 0.39299
# Poissons Ratio (y) = 0.18566 0.39299
# Poissons Ratio (z) = 0.34056 0.34056
#
# Static dielectric constant tensor:
#      x y z
#    x 3.784360 0.000000 0.000000 
#    y 0.000000 3.784360 0.000000 
#    z 0.000000 0.000000 3.769220 
# 
# 
# High freq. dielectric constant tensor:
#      x y z
#    x 1.798550 0.000000 0.000000 
#    y 0.000000 1.798550 0.000000 
#    z 0.000000 0.000000 1.799130 
# 
# From -- ./inp_files/4557.got.cif
#   From: 2010.03.12/outbox.cif.g09.slc.cpg/sg128_3_cif.got.tgz:4557.got - 2010.04.06 17:11:05.
