data_PCOD8314061
_publ_section_title
;
Structure prediction by ZEFSAII (Michael W. Deem and Ramdas Pophale) SiO2 
 PCOD8314061
Probable space group: P 4/M B M
;
_chemical_formula_sum "Si O2"
_cell_formula_units_Z 96
_cell_length_a 25.106563
_cell_length_b 25.106563
_cell_length_c 9.220511
_cell_angle_alpha 90.000000
_cell_angle_beta 90.000000
_cell_angle_gamma 90.000000
_cell_volume 5812.052346
_symmetry_space_group_name_H-M "P 4/M B M"
_symmetry_group_IT_number 127
_symmetry_cell_setting 'tetragonal'
loop_
_space_group_symop_operation_xyz
x,y,z
-y,x,z
-x,-y,z
y,-x,z
1/2+x,1/2-y,-z
1/2-x,1/2+y,-z
1/2+y,1/2+x,-z
1/2-y,1/2-x,-z
-x,-y,-z
y,-x,-z
x,y,-z
-y,x,-z
1/2-x,1/2+y,z
1/2+x,1/2-y,z
1/2-y,1/2-x,z
1/2+y,1/2+x,z
loop_
_atom_site_type_symbol
_atom_site_label
_atom_site_fract_x
_atom_site_fract_y
_atom_site_fract_z
Si Si1 0.549967 0.863196 0.329163
Si Si2 0.646056 0.562562 0.829164
Si Si3 0.852917 0.558388 0.167394
Si Si4 0.752764 0.939295 0.659877
Si Si5 0.146168 0.058933 0.830765
Si Si6 0.065890 0.249455 0.336709
O O1 0.535756 0.863395 0.500000
O O2 0.590415 0.909586 0.286224
O O3 0.496389 0.872449 0.239352
O O4 0.577745 0.806486 0.288112
O O5 0.634689 0.501642 0.781807
O O6 0.594535 0.596291 0.781316
O O7 0.696891 0.586848 0.745715
O O8 0.657174 0.566618 0.000000
O O9 0.900760 0.599241 0.182825
O O10 0.801844 0.583550 0.248625
O O11 0.837846 0.547886 0.000000
O O12 0.764603 0.916663 0.500000
O O13 0.799329 0.917777 0.763015
O O14 0.752536 0.002715 0.659545
O O15 0.154943 0.062398 0.000000
O O16 0.089405 0.251248 0.500000
#
# Coordination Sequence:
#
# PCOD8314061 Si02
#       6
#    16  16  16  16  16  16
#     4   9  18  32  49  69  93 122 155 190 228 269
#     4   9  17  29  45  67  94 122 153 188 227 271
#     4  10  20  32  47  69  96 123 150 184 227 272
#     4   8  15  28  45  64  86 114 151 192 227 263
#     4   9  17  28  44  66  92 122 153 187 227 270
#     4   9  17  30  48  67  87 117 157 193 224 264
#
# _framework density 16.517401
#
# number of rings (size 3 to 8) (size 9 to 14) (size 15 to 20)
#    0.000    3.000    0.000    2.000    0.000    7.000 
#    0.000    3.333    0.000    1.000    0.000    9.333 
#    0.000    0.000    0.000    0.000    0.000    0.000 
#
# Total GULP energy -1190037.041076 kJ/mol
# GULP energy per Si atom -12396.219178 kJ/mol
# Density = 1.647981 g / cm^3
# Si number density = 16.517401 Si / 1000 Ang^3
#
#
#
# Elastic Constant Matrix: (Units=GPa)
#
#
# Indices 1 2 3 4 5 6 
#
# 1 92.1430 54.2935 50.0637 0.0000 0.0000 0.0000
# 2 54.2935 92.1430 50.0637 0.0000 0.0000 0.0000
# 3 50.0637 50.0637 76.2427 0.0000 0.0000 0.0000
# 4 0.0000 0.0000 0.0000 23.9743 0.0000 0.0000
# 5 0.0000 0.0000 0.0000 0.0000 23.9743 0.0000
# 6 0.0000 0.0000 0.0000 0.0000 0.0000 2.8254
#
#
#
# Elastic Compliance Matrix: (Units=1/GPa)
#
#
# Indices 1 2 3 4 5 6 
#
# 1 0.019407 -0.007014 -0.008138 0.000000 0.000000 0.000000
# 2 -0.007014 0.019407 -0.008138 0.000000 0.000000 0.000000
# 3 -0.008138 -0.008138 0.023803 0.000000 0.000000 0.000000
# 4 0.000000 0.000000 0.000000 0.041711 0.000000 0.000000
# 5 0.000000 0.000000 0.000000 0.000000 0.041711 0.000000
# 6 0.000000 0.000000 0.000000 0.000000 0.000000 0.353937
#
#
# Mechanical properties :
#
#
# Convention : Reuss Voigt Hill
#
# Bulk Modulus (GPa) = 62.35075 63.26341 62.80708
# Shear Modulus (GPa) = 9.05959 17.22866 13.14413
#
# Velocity S-wave (km/s) = 2.34452 3.23315 2.82401
# Velocity P-wave (km/s) = 6.72008 7.23339 6.98145
#
# Compressibility (1/GPa) = 0.01603830
#
# Stress axis : x y z
#
# Youngs Moduli (GPa) = 51.52828 51.52828 42.01110
#
# Poissons Ratio (x) = 0.36140 0.34188
# Poissons Ratio (y) = 0.36140 0.34188
# Poissons Ratio (z) = 0.41933 0.41933
#
# Static dielectric constant tensor:
#      x y z
#    x 3.131450 0.000000 0.000000 
#    y 0.000000 3.131450 0.000000 
#    z 0.000000 0.000000 3.257420 
# 
# 
# High freq. dielectric constant tensor:
#      x y z
#    x 1.618880 0.000000 0.000000 
#    y 0.000000 1.618880 0.000000 
#    z 0.000000 0.000000 1.640450 
# 
# From -- ./inp_files/1963.got.cif
#   From: 2010.03.12/outbox.cif.g09.slc.cpg/sg127_1_cif.got.tgz:1963.got - 2010.04.06 17:03:15.
