data_PCOD8314243
_publ_section_title
;
Structure prediction by ZEFSAII (Michael W. Deem and Ramdas Pophale) SiO2 
 PCOD8314243
Probable space group: P 4/M B M
;
_chemical_formula_sum "Si O2"
_cell_formula_units_Z 120
_cell_length_a 22.124321
_cell_length_b 22.124321
_cell_length_c 12.778134
_cell_angle_alpha 90.000000
_cell_angle_beta 90.000000
_cell_angle_gamma 90.000000
_cell_volume 6254.712329
_symmetry_space_group_name_H-M "P 4/M B M"
_symmetry_group_IT_number 127
_symmetry_cell_setting 'tetragonal'
loop_
_space_group_symop_operation_xyz
x,y,z
-y,x,z
-x,-y,z
y,-x,z
1/2+x,1/2-y,-z
1/2-x,1/2+y,-z
1/2+y,1/2+x,-z
1/2-y,1/2-x,-z
-x,-y,-z
y,-x,-z
x,y,-z
-y,x,-z
1/2-x,1/2+y,z
1/2+x,1/2-y,z
1/2-y,1/2-x,z
1/2+y,1/2+x,z
loop_
_atom_site_type_symbol
_atom_site_label
_atom_site_fract_x
_atom_site_fract_y
_atom_site_fract_z
Si Si1 0.948849 0.448849 0.379437
Si Si2 0.047040 0.915186 0.378200
Si Si3 0.419705 0.258932 0.875928
Si Si4 0.146540 0.141356 0.744950
Si Si5 0.949702 0.806324 0.115056
Si Si6 0.866503 0.460162 0.202268
Si Si7 0.139579 0.261627 0.618619
Si Si8 0.586581 0.182863 0.814411
O O1 0.936831 0.436831 0.500000
O O2 0.884988 0.468093 0.325167
O O3 0.000000 0.500000 0.361193
O O4 0.053477 0.903212 0.500000
O O5 0.079193 0.859784 0.319531
O O6 0.977140 0.918829 0.346795
O O7 0.364818 0.297004 0.824887
O O8 0.480910 0.296065 0.852904
O O9 0.422332 0.194643 0.816757
O O10 0.409105 0.249379 0.000000
O O11 0.083751 0.148351 0.807619
O O12 0.156534 0.196535 0.665754
O O13 0.914961 0.741998 0.113983
O O14 0.945878 0.834895 0.000000
O O15 0.922604 0.422604 0.148322
O O16 0.857875 0.527831 0.159587
O O17 0.113525 0.255216 0.500000
O O18 0.201563 0.298438 0.616674
O O19 0.090256 0.295944 0.691967
O O20 0.645417 0.145417 0.846888
#
# Coordination Sequence:
#
# PCOD8314243 Si02
#       8
#     8  16  16  16  16  16  16  16
#     4   9  18  34  57  83 111 141 174 214 257 311
#     4   9  18  32  50  76 109 137 164 208 266 326
#     4  10  21  37  55  75 106 145 180 225 281 327
#     4  11  19  32  56  78  97 135 186 223 261 323
#     4   9  19  34  50  74 105 133 170 225 275 317
#     4   9  20  35  54  80 114 143 175 218 268 326
#     4   9  19  34  50  73 105 136 171 219 267 310
#     4   9  17  31  53  77 101 136 174 214 264 317
#
# _framework density 19.185535000000002
#
# number of rings (size 3 to 8) (size 9 to 14) (size 15 to 20)
#    0.400    2.200    0.000    2.400    0.000    1.600 
#    0.000    2.667    0.000    4.800    0.000    5.600 
#    0.000    0.000    0.000    0.000    0.000    0.000 
#
# Total GULP energy -1486885.316986 kJ/mol
# GULP energy per Si atom -12390.710975 kJ/mol
# Density = 1.914187 g / cm^3
# Si number density = 19.185535 Si / 1000 Ang^3
#
#
#
# Elastic Constant Matrix: (Units=GPa)
#
#
# Indices 1 2 3 4 5 6 
#
# 1 60.5913 21.9773 31.3134 0.0000 0.0000 0.0000
# 2 21.9773 60.5913 31.3134 0.0000 0.0000 0.0000
# 3 31.3134 31.3134 75.0079 0.0000 0.0000 0.0000
# 4 0.0000 0.0000 0.0000 23.6510 0.0000 0.0000
# 5 0.0000 0.0000 0.0000 0.0000 23.6510 0.0000
# 6 0.0000 0.0000 0.0000 0.0000 0.0000 29.8764
#
#
#
# Elastic Compliance Matrix: (Units=1/GPa)
#
#
# Indices 1 2 3 4 5 6 
#
# 1 0.021810 -0.004087 -0.007399 0.000000 0.000000 0.000000
# 2 -0.004087 0.021810 -0.007399 0.000000 0.000000 0.000000
# 3 -0.007399 -0.007399 0.019509 0.000000 0.000000 0.000000
# 4 0.000000 0.000000 0.000000 0.042281 0.000000 0.000000
# 5 0.000000 0.000000 0.000000 0.000000 0.042281 0.000000
# 6 0.000000 0.000000 0.000000 0.000000 0.000000 0.033471
#
#
# Mechanical properties :
#
#
# Convention : Reuss Voigt Hill
#
# Bulk Modulus (GPa) = 39.43172 40.59984 40.01578
# Shear Modulus (GPa) = 21.98896 22.87477 22.43186
#
# Velocity S-wave (km/s) = 3.38911 3.45671 3.42308
# Velocity P-wave (km/s) = 5.99268 6.09421 6.04366
#
# Compressibility (1/GPa) = 0.02536029
#
# Stress axis : x y z
#
# Youngs Moduli (GPa) = 45.85016 45.85016 51.25735
#
# Poissons Ratio (x) = 0.18740 0.37924
# Poissons Ratio (y) = 0.18740 0.37924
# Poissons Ratio (z) = 0.33923 0.33923
#
# Static dielectric constant tensor:
#      x y z
#    x 3.384270 0.000000 0.000000 
#    y 0.000000 3.384270 0.000000 
#    z 0.000000 0.000000 3.462070 
# 
# 
# High freq. dielectric constant tensor:
#      x y z
#    x 1.736590 0.000000 0.000000 
#    y 0.000000 1.736590 0.000000 
#    z 0.000000 0.000000 1.740490 
# 
# From -- ./inp_files/4663.got.cif
#   From: 2010.03.12/outbox.cif.g09.slc.cpg/sg127_3_cif.got.tgz:4663.got - 2010.04.06 17:03:15.
