data_PCOD8314710
_publ_section_title
;
Structure prediction by ZEFSAII (Michael W. Deem and Ramdas Pophale) SiO2 
 PCOD8314710
Probable space group: P 4/M N C
;
_chemical_formula_sum "Si O2"
_cell_formula_units_Z 112
_cell_length_a 15.669361
_cell_length_b 15.669361
_cell_length_c 21.887915
_cell_angle_alpha 90.000000
_cell_angle_beta 90.000000
_cell_angle_gamma 90.000000
_cell_volume 5374.115127
_symmetry_space_group_name_H-M "P 4/M N C"
_symmetry_group_IT_number 128
_symmetry_cell_setting 'tetragonal'
loop_
_space_group_symop_operation_xyz
x,y,z
-y,x,z
-x,-y,z
y,-x,z
1/2+x,1/2-y,1/2-z
1/2-x,1/2+y,1/2-z
1/2+y,1/2+x,1/2-z
1/2-y,1/2-x,1/2-z
-x,-y,-z
y,-x,-z
x,y,-z
-y,x,-z
1/2-x,1/2+y,1/2+z
1/2+x,1/2-y,1/2+z
1/2-y,1/2-x,1/2+z
1/2+y,1/2+x,1/2+z
loop_
_atom_site_type_symbol
_atom_site_label
_atom_site_fract_x
_atom_site_fract_y
_atom_site_fract_z
Si Si1 0.661602 0.875159 0.430952
Si Si2 0.881580 0.068144 0.685082
Si Si3 0.980411 0.863596 0.071530
Si Si4 0.850241 0.814971 0.430197
Si Si5 0.435997 0.849791 0.107854
Si Si6 0.710260 0.075657 0.738912
Si Si7 0.813279 0.501931 0.366914
O O1 0.642816 0.843968 0.500000
O O2 0.755038 0.842765 0.410806
O O3 0.595424 0.830470 0.385204
O O4 0.652985 0.977652 0.431148
O O5 0.862078 0.081878 0.613315
O O6 0.808937 0.102452 0.730478
O O7 0.968437 0.115044 0.700453
O O8 0.964634 0.776070 0.106905
O O9 0.904836 0.928620 0.089675
O O10 0.978169 0.844448 0.000000
O O11 0.868874 0.841346 0.500000
O O12 0.864920 0.713977 0.420316
O O13 0.465606 0.824437 0.176307
O O14 0.392060 0.942534 0.106780
O O15 0.665437 0.165437 0.750000
O O16 0.691918 0.009663 0.793552
#
# Coordination Sequence:
#
# PCOD8314710 Si02
#       7
#    16  16  16  16  16  16  16
#     4  11  24  40  61  96 129 160 210 262 321 393
#     4  10  21  39  62  90 124 158 203 260 311 364
#     4   9  20  38  58  84 123 163 202 254 314 382
#     4  10  21  38  62  89 124 166 206 254 315 384
#     4  10  22  41  62  85 126 167 204 262 320 371
#     4   9  21  42  60  85 121 160 207 252 308 374
#     4  11  23  38  63  90 122 164 212 264 315 379
#
# _framework density 20.84064
#
# number of rings (size 3 to 8) (size 9 to 14) (size 15 to 20)
#    0.000    2.000    0.000    3.429    2.000    6.286 
#    5.143    4.286    0.000    0.000    0.000    0.000 
#    0.000    0.000    0.000    0.000    0.000    0.000 
#
# Total GULP energy -1388811.681444 kJ/mol
# GULP energy per Si atom -12400.104299 kJ/mol
# Density = 2.079321 g / cm^3
# Si number density = 20.840640 Si / 1000 Ang^3
#
#
#
# Elastic Constant Matrix: (Units=GPa)
#
#
# Indices 1 2 3 4 5 6 
#
# 1 76.1219 49.0835 41.9560 0.0000 0.0000 0.0000
# 2 49.0835 76.1219 41.9560 0.0000 0.0000 0.0000
# 3 41.9560 41.9560 89.4455 0.0000 0.0000 0.0000
# 4 0.0000 0.0000 0.0000 29.7968 0.0000 0.0000
# 5 0.0000 0.0000 0.0000 0.0000 29.7968 0.0000
# 6 0.0000 0.0000 0.0000 0.0000 0.0000 30.6499
#
#
#
# Elastic Compliance Matrix: (Units=1/GPa)
#
#
# Indices 1 2 3 4 5 6 
#
# 1 0.024317 -0.012668 -0.005464 0.000000 0.000000 0.000000
# 2 -0.012668 0.024317 -0.005464 0.000000 0.000000 0.000000
# 3 -0.005464 -0.005464 0.016306 0.000000 0.000000 0.000000
# 4 0.000000 0.000000 0.000000 0.033561 0.000000 0.000000
# 5 0.000000 0.000000 0.000000 0.000000 0.033561 0.000000
# 6 0.000000 0.000000 0.000000 0.000000 0.000000 0.032627
#
#
# Mechanical properties :
#
#
# Convention : Reuss Voigt Hill
#
# Bulk Modulus (GPa) = 56.34630 56.40890 56.37760
# Shear Modulus (GPa) = 22.95739 25.29498 24.12618
#
# Velocity S-wave (km/s) = 3.32259 3.48765 3.40612
# Velocity P-wave (km/s) = 6.46644 6.58360 6.52528
#
# Compressibility (1/GPa) = 0.01774739
#
# Stress axis : x y z
#
# Youngs Moduli (GPa) = 41.12412 41.12412 61.32690
#
# Poissons Ratio (x) = 0.52095 0.33510
# Poissons Ratio (y) = 0.52095 0.33510
# Poissons Ratio (z) = 0.22471 0.22471
#
# Static dielectric constant tensor:
#      x y z
#    x 3.735030 0.000000 0.000000 
#    y 0.000000 3.735030 0.000000 
#    z 0.000000 0.000000 3.830090 
# 
# 
# High freq. dielectric constant tensor:
#      x y z
#    x 1.815380 0.000000 0.000000 
#    y 0.000000 1.815380 0.000000 
#    z 0.000000 0.000000 1.814500 
# 
# From -- ./inp_files/6440.got.cif
#   From: 2010.03.12/outbox.cif.g09.slc.cpg/sg128_4_cif.got.tgz:6440.got - 2010.04.06 17:11:05.
