data_PCOD8314717
_publ_section_title
;
Structure prediction by ZEFSAII (Michael W. Deem and Ramdas Pophale) SiO2 
 PCOD8314717
Probable space group: P 4/M N C
;
_chemical_formula_sum "Si O2"
_cell_formula_units_Z 112
_cell_length_a 15.571851
_cell_length_b 15.571851
_cell_length_c 22.825876
_cell_angle_alpha 90.000000
_cell_angle_beta 90.000000
_cell_angle_gamma 90.000000
_cell_volume 5534.876472
_symmetry_space_group_name_H-M "P 4/M N C"
_symmetry_group_IT_number 128
_symmetry_cell_setting 'tetragonal'
loop_
_space_group_symop_operation_xyz
x,y,z
-y,x,z
-x,-y,z
y,-x,z
1/2+x,1/2-y,1/2-z
1/2-x,1/2+y,1/2-z
1/2+y,1/2+x,1/2-z
1/2-y,1/2-x,1/2-z
-x,-y,-z
y,-x,-z
x,y,-z
-y,x,-z
1/2-x,1/2+y,1/2+z
1/2+x,1/2-y,1/2+z
1/2-y,1/2-x,1/2+z
1/2+y,1/2+x,1/2+z
loop_
_atom_site_type_symbol
_atom_site_label
_atom_site_fract_x
_atom_site_fract_y
_atom_site_fract_z
Si Si1 0.775473 0.445616 0.351394
Si Si2 0.973016 0.597389 0.933933
Si Si3 0.215956 0.742344 0.684946
Si Si4 0.480385 0.637057 0.931197
Si Si5 0.639867 0.502716 0.564085
Si Si6 0.297571 0.909460 0.368895
Si Si7 0.042748 0.675791 0.272913
O O1 0.862033 0.457897 0.389123
O O2 0.751700 0.344862 0.347139
O O3 0.707910 0.504659 0.384732
O O4 0.777839 0.487272 0.286736
O O5 0.875362 0.612222 0.912243
O O6 0.000000 0.500000 0.935134
O O7 0.979665 0.635485 0.000000
O O8 0.254039 0.754039 0.750000
O O9 0.247366 0.822474 0.647316
O O10 0.112452 0.733351 0.691754
O O11 0.404152 0.571694 0.913129
O O12 0.470898 0.727905 0.899244
O O13 0.477320 0.653986 0.000000
O O14 0.582973 0.585782 0.571320
O O15 0.684190 0.502683 0.500000
O O16 0.337671 0.958890 0.312655
O O17 0.086968 0.586968 0.250000
#
# Coordination Sequence:
#
# PCOD8314717 Si02
#       7
#    16  16  16  16  16  16  16
#     4  10  21  39  60  81 119 157 196 254 308 363
#     4  11  25  41  58  86 122 163 209 251 304 372
#     4   9  22  40  56  88 121 153 202 255 311 366
#     4   9  19  37  61  91 126 164 207 261 325 381
#     4   9  19  35  56  81 109 146 192 243 302 358
#     4  12  22  37  66  90 123 160 212 259 307 380
#     4   9  21  40  60  85 122 159 197 245 311 374
#
# _framework density 20.235320999999999
#
# number of rings (size 3 to 8) (size 9 to 14) (size 15 to 20)
#    0.000    2.429    0.000    4.286    4.000    1.143 
#    0.000    7.143    0.000    1.714    0.000    0.000 
#    0.000    0.000    0.000    0.000    0.000    0.000 
#
# Total GULP energy -1388086.259719 kJ/mol
# GULP energy per Si atom -12393.627319 kJ/mol
# Density = 2.018926 g / cm^3
# Si number density = 20.235321 Si / 1000 Ang^3
#
#
#
# Elastic Constant Matrix: (Units=GPa)
#
#
# Indices 1 2 3 4 5 6 
#
# 1 64.7719 6.5782 19.5234 0.0000 0.0000 0.0000
# 2 6.5782 64.7719 19.5234 0.0000 0.0000 0.0000
# 3 19.5234 19.5234 76.0082 0.0000 0.0000 0.0000
# 4 0.0000 0.0000 0.0000 3.4709 0.0000 0.0000
# 5 0.0000 0.0000 0.0000 0.0000 3.4709 0.0000
# 6 0.0000 0.0000 0.0000 0.0000 0.0000 16.1251
#
#
#
# Elastic Compliance Matrix: (Units=1/GPa)
#
#
# Indices 1 2 3 4 5 6 
#
# 1 0.016746 -0.000438 -0.004189 0.000000 0.000000 0.000000
# 2 -0.000438 0.016746 -0.004189 0.000000 0.000000 0.000000
# 3 -0.004189 -0.004189 0.015308 0.000000 0.000000 0.000000
# 4 0.000000 0.000000 0.000000 0.288108 0.000000 0.000000
# 5 0.000000 0.000000 0.000000 0.000000 0.288108 0.000000
# 6 0.000000 0.000000 0.000000 0.000000 0.000000 0.062015
#
#
# Mechanical properties :
#
#
# Convention : Reuss Voigt Hill
#
# Bulk Modulus (GPa) = 32.08353 32.97800 32.53077
# Shear Modulus (GPa) = 6.99250 15.27519 11.13385
#
# Velocity S-wave (km/s) = 1.86094 2.75048 2.34822
# Velocity P-wave (km/s) = 4.52848 5.13999 4.84389
#
# Compressibility (1/GPa) = 0.03116864
#
# Stress axis : x y z
#
# Youngs Moduli (GPa) = 59.71624 59.71624 65.32393
#
# Poissons Ratio (x) = 0.02616 0.27363
# Poissons Ratio (y) = 0.02616 0.27363
# Poissons Ratio (z) = 0.25014 0.25014
#
# Static dielectric constant tensor:
#      x y z
#    x 3.589010 0.000000 0.000000 
#    y 0.000000 3.589010 0.000000 
#    z 0.000000 0.000000 3.861560 
# 
# 
# High freq. dielectric constant tensor:
#      x y z
#    x 1.783060 0.000000 0.000000 
#    y 0.000000 1.783060 0.000000 
#    z 0.000000 0.000000 1.800070 
# 
# From -- ./inp_files/6479.got.cif
#   From: 2010.03.12/outbox.cif.g09.slc.cpg/sg128_4_cif.got.tgz:6479.got - 2010.04.06 17:11:05.
