data_PCOD8314554
_publ_section_title
;
Structure prediction by ZEFSAII (Michael W. Deem and Ramdas Pophale) SiO2 
 PCOD8314554
Probable space group: P 4/M N C
;
_chemical_formula_sum "Si O2"
_cell_formula_units_Z 112
_cell_length_a 17.686939
_cell_length_b 17.686939
_cell_length_c 17.524762
_cell_angle_alpha 90.000000
_cell_angle_beta 90.000000
_cell_angle_gamma 90.000000
_cell_volume 5482.232938
_symmetry_space_group_name_H-M "P 4/M N C"
_symmetry_group_IT_number 128
_symmetry_cell_setting 'tetragonal'
loop_
_space_group_symop_operation_xyz
x,y,z
-y,x,z
-x,-y,z
y,-x,z
1/2+x,1/2-y,1/2-z
1/2-x,1/2+y,1/2-z
1/2+y,1/2+x,1/2-z
1/2-y,1/2-x,1/2-z
-x,-y,-z
y,-x,-z
x,y,-z
-y,x,-z
1/2-x,1/2+y,1/2+z
1/2+x,1/2-y,1/2+z
1/2-y,1/2-x,1/2+z
1/2+y,1/2+x,1/2+z
loop_
_atom_site_type_symbol
_atom_site_label
_atom_site_fract_x
_atom_site_fract_y
_atom_site_fract_z
Si Si1 0.324247 0.391937 0.912949
Si Si2 0.260874 0.946491 0.090811
Si Si3 0.185825 0.043848 0.654449
Si Si4 0.738855 0.220211 0.087666
Si Si5 0.916579 0.482590 0.589766
Si Si6 0.367482 0.182858 0.088328
Si Si7 0.373806 0.501840 0.315525
O O1 0.298490 0.477803 0.906579
O O2 0.404213 0.385051 0.869013
O O3 0.260812 0.335873 0.877437
O O4 0.337753 0.367526 0.000000
O O5 0.245687 0.861879 0.124193
O O6 0.194000 0.000079 0.122828
O O7 0.346015 0.967230 0.119941
O O8 0.256069 0.954999 0.000000
O O9 0.260433 0.094975 0.648891
O O10 0.169635 0.005370 0.735165
O O11 0.810616 0.276236 0.098215
O O12 0.721652 0.202515 0.000000
O O13 0.922499 0.494125 0.500000
O O14 0.895510 0.398253 0.613024
O O15 0.000000 0.500000 0.625921
O O16 0.388545 0.201732 0.000000
O O17 0.424315 0.426239 0.325096
#
# Coordination Sequence:
#
# PCOD8314554 Si02
#       7
#    16  16  16  16  16  16  16
#     4  10  19  32  57  90 121 154 200 240 291 368
#     4  10  22  40  67  91 116 159 213 265 316 375
#     4  11  20  36  56  83 121 165 192 237 305 369
#     4   8  17  33  55  88 117 146 194 253 296 344
#     4   9  19  35  60  95 125 153 193 252 322 373
#     4   9  18  33  58  89 123 156 196 247 301 368
#     4  11  25  44  61  84 123 167 206 265 324 364
#
# _framework density 20.429632000000002
#
# number of rings (size 3 to 8) (size 9 to 14) (size 15 to 20)
#    0.000    2.286    1.429    2.143    4.000    0.857 
#    0.000    2.857    0.000    0.857    0.000    0.000 
#    0.000    0.000    0.000    0.000    0.000    0.000 
#
# Total GULP energy -1387842.645676 kJ/mol
# GULP energy per Si atom -12391.452194 kJ/mol
# Density = 2.038313 g / cm^3
# Si number density = 20.429632 Si / 1000 Ang^3
#
#
#
# Elastic Constant Matrix: (Units=GPa)
#
#
# Indices 1 2 3 4 5 6 
#
# 1 139.3480 60.8036 34.2156 0.0000 0.0000 0.0000
# 2 60.8036 139.3480 34.2156 0.0000 0.0000 0.0000
# 3 34.2156 34.2156 46.7347 0.0000 0.0000 0.0000
# 4 0.0000 0.0000 0.0000 20.7616 0.0000 0.0000
# 5 0.0000 0.0000 0.0000 0.0000 20.7616 0.0000
# 6 0.0000 0.0000 0.0000 0.0000 0.0000 27.8672
#
#
#
# Elastic Compliance Matrix: (Units=1/GPa)
#
#
# Indices 1 2 3 4 5 6 
#
# 1 0.009698 -0.003034 -0.004879 0.000000 0.000000 0.000000
# 2 -0.003034 0.009698 -0.004879 0.000000 0.000000 0.000000
# 3 -0.004879 -0.004879 0.028542 0.000000 0.000000 0.000000
# 4 0.000000 0.000000 0.000000 0.048166 0.000000 0.000000
# 5 0.000000 0.000000 0.000000 0.000000 0.048166 0.000000
# 6 0.000000 0.000000 0.000000 0.000000 0.000000 0.035885
#
#
# Mechanical properties :
#
#
# Convention : Reuss Voigt Hill
#
# Bulk Modulus (GPa) = 44.73509 64.87782 54.80645
# Shear Modulus (GPa) = 23.45334 26.95779 25.20556
#
# Velocity S-wave (km/s) = 3.39190 3.63649 3.51632
# Velocity P-wave (km/s) = 6.10612 7.03262 6.58568
#
# Compressibility (1/GPa) = 0.02235382
#
# Stress axis : x y z
#
# Youngs Moduli (GPa) = 103.11389 103.11389 35.03649
#
# Poissons Ratio (x) = 0.31281 0.17095
# Poissons Ratio (y) = 0.31281 0.17095
# Poissons Ratio (z) = 0.50311 0.50311
#
# Static dielectric constant tensor:
#      x y z
#    x 3.837350 0.000000 0.000000 
#    y 0.000000 3.837350 0.000000 
#    z 0.000000 0.000000 3.168790 
# 
# 
# High freq. dielectric constant tensor:
#      x y z
#    x 1.806800 0.000000 0.000000 
#    y 0.000000 1.806800 0.000000 
#    z 0.000000 0.000000 1.748300 
# 
# From -- ./inp_files/5963.got.cif
#   From: 2010.03.12/outbox.cif.g09.slc.cpg/sg128_3_cif.got.tgz:5963.got - 2010.04.06 17:11:05.
