data_PCOD8314568
_publ_section_title
;
Structure prediction by ZEFSAII (Michael W. Deem and Ramdas Pophale) SiO2 
 PCOD8314568
Probable space group: P 4/M N C
;
_chemical_formula_sum "Si O2"
_cell_formula_units_Z 104
_cell_length_a 26.692145
_cell_length_b 26.692145
_cell_length_c 8.220841
_cell_angle_alpha 90.000000
_cell_angle_beta 90.000000
_cell_angle_gamma 90.000000
_cell_volume 5857.107558
_symmetry_space_group_name_H-M "P 4/M N C"
_symmetry_group_IT_number 128
_symmetry_cell_setting 'tetragonal'
loop_
_space_group_symop_operation_xyz
x,y,z
-y,x,z
-x,-y,z
y,-x,z
1/2+x,1/2-y,1/2-z
1/2-x,1/2+y,1/2-z
1/2+y,1/2+x,1/2-z
1/2-y,1/2-x,1/2-z
-x,-y,-z
y,-x,-z
x,y,-z
-y,x,-z
1/2-x,1/2+y,1/2+z
1/2+x,1/2-y,1/2+z
1/2-y,1/2-x,1/2+z
1/2+y,1/2+x,1/2+z
loop_
_atom_site_type_symbol
_atom_site_label
_atom_site_fract_x
_atom_site_fract_y
_atom_site_fract_z
Si Si1 0.920976 0.870412 0.691486
Si Si2 0.499798 0.923878 0.313716
Si Si3 0.951698 0.933838 0.000000
Si Si4 0.000135 0.789290 0.309070
Si Si5 0.293455 0.130569 0.186951
Si Si6 0.181547 0.524189 0.811402
Si Si7 0.309816 0.609915 0.813627
O O1 0.933081 0.886215 0.500000
O O2 0.933517 0.911352 0.827658
O O3 0.861685 0.859963 0.707509
O O4 0.951708 0.820964 0.745410
O O5 0.449013 0.949013 0.250000
O O6 0.500072 0.934461 0.500000
O O7 0.499374 0.864989 0.279089
O O8 0.550453 0.949548 0.250000
O O9 0.010867 0.930356 0.000000
O O10 0.999829 0.784309 0.500000
O O11 0.998992 0.732544 0.238847
O O12 0.051918 0.816571 0.254657
O O13 0.318764 0.181237 0.250000
O O14 0.315505 0.083809 0.286452
O O15 0.233580 0.136614 0.210190
O O16 0.306176 0.121752 0.000000
O O17 0.174567 0.512766 0.000000
O O18 0.291949 0.610230 0.000000
#
# Coordination Sequence:
#
# PCOD8314568 Si02
#       7
#    16  16   8  16  16  16  16
#     4  10  20  37  58  78 107 147 184 226 276 327
#     4  11  21  34  51  75 105 141 179 213 263 316
#     4  11  24  36  50  80 112 142 184 229 272 326
#     4   8  16  32  53  77 101 135 175 216 265 317
#     4  11  21  33  51  76 107 137 172 216 270 324
#     4  10  19  34  53  76 107 137 176 220 264 318
#     4   9  18  33  54  77 104 136 177 218 266 323
#
# _framework density 17.756205000000001
#
# number of rings (size 3 to 8) (size 9 to 14) (size 15 to 20)
#    0.000    2.077    0.000    6.000    1.077    1.846 
#    6.923    0.769    0.000    0.923    0.000    0.000 
#    0.000    0.000    0.000    0.000    0.000    0.000 
#
# Total GULP energy -1288942.415498 kJ/mol
# GULP energy per Si atom -12393.677072 kJ/mol
# Density = 1.771579 g / cm^3
# Si number density = 17.756205 Si / 1000 Ang^3
#
#
#
# Elastic Constant Matrix: (Units=GPa)
#
#
# Indices 1 2 3 4 5 6 
#
# 1 118.5315 30.5679 20.7537 0.0000 0.0000 0.0000
# 2 30.5679 118.5330 20.7550 0.0000 0.0000 0.0000
# 3 20.7537 20.7550 86.1286 0.0000 0.0000 0.0000
# 4 0.0000 0.0000 0.0000 22.3653 0.0000 0.0000
# 5 0.0000 0.0000 0.0000 0.0000 22.3660 0.0000
# 6 0.0000 0.0000 0.0000 0.0000 0.0000 41.0264
#
#
#
# Elastic Compliance Matrix: (Units=1/GPa)
#
#
# Indices 1 2 3 4 5 6 
#
# 1 0.009279 -0.002090 -0.001732 0.000000 0.000000 0.000000
# 2 -0.002090 0.009279 -0.001732 0.000000 0.000000 0.000000
# 3 -0.001732 -0.001732 0.012445 0.000000 0.000000 0.000000
# 4 0.000000 0.000000 0.000000 0.044712 0.000000 0.000000
# 5 0.000000 0.000000 0.000000 0.000000 0.044711 0.000000
# 6 0.000000 0.000000 0.000000 0.000000 0.000000 0.024375
#
#
# Mechanical properties :
#
#
# Convention : Reuss Voigt Hill
#
# Bulk Modulus (GPa) = 50.26562 51.92739 51.09651
# Shear Modulus (GPa) = 30.76160 33.89263 32.32712
#
# Velocity S-wave (km/s) = 4.16678 4.37369 4.27149
# Velocity P-wave (km/s) = 7.17772 7.40363 7.29155
#
# Compressibility (1/GPa) = 0.01989431
#
# Stress axis : x y z
#
# Youngs Moduli (GPa) = 107.77318 107.77390 80.35072
#
# Poissons Ratio (x) = 0.22520 0.13919
# Poissons Ratio (y) = 0.22520 0.13920
# Poissons Ratio (z) = 0.18669 0.18671
#
# Static dielectric constant tensor:
#      x y z
#    x 3.389310 0.000000 0.000000 
#    y 0.000000 3.389320 0.000000 
#    z 0.000000 0.000000 3.345570 
# 
# 
# High freq. dielectric constant tensor:
#      x y z
#    x 1.674410 0.000000 0.000000 
#    y 0.000000 1.674410 0.000000 
#    z 0.000000 0.000000 1.693530 
# 
# From -- ./inp_files/1711.got.cif
#   From: 2010.03.12/outbox.cif.g09.slc.cpg/sg128_1_cif.got.tgz:1711.got - 2010.04.06 17:11:05.
