data_PCOD8314223
_publ_section_title
;
Structure prediction by ZEFSAII (Michael W. Deem and Ramdas Pophale) SiO2 
 PCOD8314223
Probable space group: P 4/M B M
;
_chemical_formula_sum "Si O2"
_cell_formula_units_Z 120
_cell_length_a 26.785188
_cell_length_b 26.785188
_cell_length_c 8.936626
_cell_angle_alpha 90.000000
_cell_angle_beta 90.000000
_cell_angle_gamma 90.000000
_cell_volume 6411.549224
_symmetry_space_group_name_H-M "P 4/M B M"
_symmetry_group_IT_number 127
_symmetry_cell_setting 'tetragonal'
loop_
_space_group_symop_operation_xyz
x,y,z
-y,x,z
-x,-y,z
y,-x,z
1/2+x,1/2-y,-z
1/2-x,1/2+y,-z
1/2+y,1/2+x,-z
1/2-y,1/2-x,-z
-x,-y,-z
y,-x,-z
x,y,-z
-y,x,-z
1/2-x,1/2+y,z
1/2+x,1/2-y,z
1/2-y,1/2-x,z
1/2+y,1/2+x,z
loop_
_atom_site_type_symbol
_atom_site_label
_atom_site_fract_x
_atom_site_fract_y
_atom_site_fract_z
Si Si1 0.458312 0.958312 0.677535
Si Si2 0.559446 0.775579 0.826363
Si Si3 0.154450 0.737062 0.335064
Si Si4 0.504659 0.691280 0.675109
Si Si5 0.420847 0.501073 0.322015
Si Si6 0.974195 0.648885 0.177704
Si Si7 0.267233 0.310615 0.677894
Si Si8 0.416890 0.765571 0.323987
O O1 0.452752 0.952752 0.500000
O O2 0.475031 0.905279 0.745877
O O3 0.500000 0.000000 0.718457
O O4 0.616078 0.787552 0.781429
O O5 0.549439 0.722504 0.747419
O O6 0.524627 0.821630 0.774315
O O7 0.552707 0.767600 0.000000
O O8 0.129447 0.742543 0.500000
O O9 0.201561 0.701561 0.348421
O O10 0.177274 0.790331 0.278410
O O11 0.514330 0.687947 0.500000
O O12 0.501799 0.635387 0.744019
O O13 0.455074 0.721661 0.715256
O O14 0.449892 0.451199 0.266897
O O15 0.418692 0.500172 0.500000
O O16 0.928597 0.682708 0.237898
O O17 0.969499 0.641779 0.000000
O O18 0.263429 0.311107 0.500000
O O19 0.224672 0.275329 0.747714
O O20 0.256727 0.365609 0.739951
O O21 0.415857 0.777866 0.500000
#
# Coordination Sequence:
#
# PCOD8314223 Si02
#       8
#     8  16  16  16  16  16  16  16
#     4  11  25  43  63  87 111 135 173 225 273 323
#     4  10  21  36  53  74 104 141 176 212 258 311
#     4   9  18  33  53  77 105 136 171 212 254 299
#     4   9  17  29  47  72  99 129 170 217 259 307
#     4   8  14  25  43  70 102 133 170 222 279 324
#     4  10  22  39  57  79 109 143 177 215 266 326
#     4   8  15  28  47  74 105 134 167 208 254 300
#     4   9  17  30  51  78 106 137 176 217 259 312
#
# _framework density 18.716225999999999
#
# number of rings (size 3 to 8) (size 9 to 14) (size 15 to 20)
#    0.000    2.867    0.000    2.200    0.933    4.000 
#    0.000    7.333    0.000    4.800    0.000    0.933 
#    0.000    0.000    0.000    0.000    0.000    0.000 
#
# Total GULP energy -1487184.304624 kJ/mol
# GULP energy per Si atom -12393.202539 kJ/mol
# Density = 1.867363 g / cm^3
# Si number density = 18.716226 Si / 1000 Ang^3
#
#
#
# Elastic Constant Matrix: (Units=GPa)
#
#
# Indices 1 2 3 4 5 6 
#
# 1 125.8213 49.0312 33.6323 0.0000 0.0000 0.0000
# 2 49.0312 125.8213 33.6323 0.0000 0.0000 0.0000
# 3 33.6323 33.6323 39.3950 0.0000 0.0000 0.0000
# 4 0.0000 0.0000 0.0000 14.4042 0.0000 0.0000
# 5 0.0000 0.0000 0.0000 0.0000 14.4042 0.0000
# 6 0.0000 0.0000 0.0000 0.0000 0.0000 19.5980
#
#
#
# Elastic Compliance Matrix: (Units=1/GPa)
#
#
# Indices 1 2 3 4 5 6 
#
# 1 0.010769 -0.002253 -0.007270 0.000000 0.000000 0.000000
# 2 -0.002253 0.010769 -0.007270 0.000000 0.000000 0.000000
# 3 -0.007270 -0.007270 0.037797 0.000000 0.000000 0.000000
# 4 0.000000 0.000000 0.000000 0.069424 0.000000 0.000000
# 5 0.000000 0.000000 0.000000 0.000000 0.069424 0.000000
# 6 0.000000 0.000000 0.000000 0.000000 0.000000 0.051026
#
#
# Mechanical properties :
#
#
# Convention : Reuss Voigt Hill
#
# Bulk Modulus (GPa) = 38.83740 58.18104 48.50922
# Shear Modulus (GPa) = 17.15972 21.33072 19.24522
#
# Velocity S-wave (km/s) = 3.03122 3.37959 3.21013
# Velocity P-wave (km/s) = 5.74863 6.81045 6.30194
#
# Compressibility (1/GPa) = 0.02574838
#
# Stress axis : x y z
#
# Youngs Moduli (GPa) = 92.85726 92.85726 26.45683
#
# Poissons Ratio (x) = 0.20924 0.19235
# Poissons Ratio (y) = 0.20924 0.19235
# Poissons Ratio (z) = 0.67509 0.67509
#
# Static dielectric constant tensor:
#      x y z
#    x 3.640470 0.000000 0.000000 
#    y 0.000000 3.640470 0.000000 
#    z 0.000000 0.000000 3.095920 
# 
# 
# High freq. dielectric constant tensor:
#      x y z
#    x 1.730250 0.000000 0.000000 
#    y 0.000000 1.730250 0.000000 
#    z 0.000000 0.000000 1.690050 
# 
# From -- ./inp_files/2391.got.cif
#   From: 2010.03.12/outbox.cif.g09.slc.cpg/sg127_2_cif.got.tgz:2391.got - 2010.04.06 17:03:15.
