data_PCOD8314487
_publ_section_title
;
Structure prediction by ZEFSAII (Michael W. Deem and Ramdas Pophale) SiO2 
 PCOD8314487
Probable space group: P 4/M N C
;
_chemical_formula_sum "Si O2"
_cell_formula_units_Z 48
_cell_length_a 16.736664
_cell_length_b 16.736664
_cell_length_c 8.637037
_cell_angle_alpha 90.000000
_cell_angle_beta 90.000000
_cell_angle_gamma 90.000000
_cell_volume 2419.371581
_symmetry_space_group_name_H-M "P 4/M N C"
_symmetry_group_IT_number 128
_symmetry_cell_setting 'tetragonal'
loop_
_space_group_symop_operation_xyz
x,y,z
-y,x,z
-x,-y,z
y,-x,z
1/2+x,1/2-y,1/2-z
1/2-x,1/2+y,1/2-z
1/2+y,1/2+x,1/2-z
1/2-y,1/2-x,1/2-z
-x,-y,-z
y,-x,-z
x,y,-z
-y,x,-z
1/2-x,1/2+y,1/2+z
1/2+x,1/2-y,1/2+z
1/2-y,1/2-x,1/2+z
1/2+y,1/2+x,1/2+z
loop_
_atom_site_type_symbol
_atom_site_label
_atom_site_fract_x
_atom_site_fract_y
_atom_site_fract_z
Si Si1 0.571259 0.392250 0.180347
Si Si2 0.993356 0.380989 0.316561
Si Si3 0.109491 0.267662 0.818618
O O1 0.608646 0.477598 0.223293
O O2 0.618105 0.325848 0.279668
O O3 0.583094 0.373701 0.000000
O O4 0.056539 0.443462 0.250000
O O5 0.990987 0.382671 0.500000
O O6 0.024537 0.295462 0.256534
O O7 0.905706 0.405706 0.250000
O O8 0.184874 0.315127 0.750000
O O9 0.107571 0.283133 0.000000
#
# Coordination Sequence:
#
# PCOD8314487 Si02
#       3
#    16  16  16
#     4   9  19  38  62  84 108 141 180 222 270 324
#     4  10  17  28  46  70 102 139 179 218 262 318
#     4  11  21  34  54  81 113 146 182 225 273 323
#
# _framework density 19.839862
#
# number of rings (size 3 to 8) (size 9 to 14) (size 15 to 20)
#    0.000    2.000    0.000   10.000    0.000    1.333 
#    0.000    3.333    0.000    8.000    0.000    0.000 
#    0.000    0.000    0.000    0.000    0.000    0.000 
#
# Total GULP energy -595040.654682 kJ/mol
# GULP energy per Si atom -12396.680306 kJ/mol
# Density = 1.979471 g / cm^3
# Si number density = 19.839862 Si / 1000 Ang^3
#
#
#
# Elastic Constant Matrix: (Units=GPa)
#
#
# Indices 1 2 3 4 5 6 
#
# 1 82.5918 33.8237 38.0864 0.0000 0.0000 0.0000
# 2 33.8237 82.5927 38.0868 0.0000 0.0000 0.0000
# 3 38.0864 38.0868 164.8331 0.0000 0.0000 0.0000
# 4 0.0000 0.0000 0.0000 19.6470 0.0000 0.0000
# 5 0.0000 0.0000 0.0000 0.0000 19.6469 0.0000
# 6 0.0000 0.0000 0.0000 0.0000 0.0000 18.5397
#
#
#
# Elastic Compliance Matrix: (Units=1/GPa)
#
#
# Indices 1 2 3 4 5 6 
#
# 1 0.015313 -0.005193 -0.002338 0.000000 0.000000 0.000000
# 2 -0.005193 0.015312 -0.002338 0.000000 0.000000 0.000000
# 3 -0.002338 -0.002338 0.007147 0.000000 0.000000 0.000000
# 4 0.000000 0.000000 0.000000 0.050898 0.000000 0.000000
# 5 0.000000 0.000000 0.000000 0.000000 0.050899 0.000000
# 6 0.000000 0.000000 0.000000 0.000000 0.000000 0.053938
#
#
# Mechanical properties :
#
#
# Convention : Reuss Voigt Hill
#
# Bulk Modulus (GPa) = 55.45128 61.11237 58.28183
# Shear Modulus (GPa) = 22.80427 26.23477 24.51952
#
# Velocity S-wave (km/s) = 3.39398 3.64033 3.51931
# Velocity P-wave (km/s) = 6.58551 6.96699 6.77894
#
# Compressibility (1/GPa) = 0.01803385
#
# Stress axis : x y z
#
# Youngs Moduli (GPa) = 65.30602 65.30666 139.91230
#
# Poissons Ratio (x) = 0.33911 0.32716
# Poissons Ratio (y) = 0.33911 0.32716
# Poissons Ratio (z) = 0.15271 0.15271
#
# Static dielectric constant tensor:
#      x y z
#    x 3.819830 0.000000 0.000000 
#    y 0.000000 3.819800 0.000000 
#    z 0.000000 0.000000 3.530890 
# 
# 
# High freq. dielectric constant tensor:
#      x y z
#    x 1.757170 0.000000 0.000000 
#    y 0.000000 1.757170 0.000000 
#    z 0.000000 0.000000 1.780880 
# 
# From -- ./inp_files/622.got.cif
#   From: 2010.03.12/outbox.cif.g09.slc.cpg/sg128_1_cif.got.tgz:622.got - 2010.04.06 17:11:05.
