data_PCOD8314440
_publ_section_title
;
Structure prediction by ZEFSAII (Michael W. Deem and Ramdas Pophale) SiO2 
 PCOD8314440
Probable space group: P 4/M B M
;
_chemical_formula_sum "Si O2"
_cell_formula_units_Z 88
_cell_length_a 11.678082
_cell_length_b 11.678082
_cell_length_c 31.928573
_cell_angle_alpha 90.000000
_cell_angle_beta 90.000000
_cell_angle_gamma 90.000000
_cell_volume 4354.342132
_symmetry_space_group_name_H-M "P 4/M B M"
_symmetry_group_IT_number 127
_symmetry_cell_setting 'tetragonal'
loop_
_space_group_symop_operation_xyz
x,y,z
-y,x,z
-x,-y,z
y,-x,z
1/2+x,1/2-y,-z
1/2-x,1/2+y,-z
1/2+y,1/2+x,-z
1/2-y,1/2-x,-z
-x,-y,-z
y,-x,-z
x,y,-z
-y,x,-z
1/2-x,1/2+y,z
1/2+x,1/2-y,z
1/2-y,1/2-x,z
1/2+y,1/2+x,z
loop_
_atom_site_type_symbol
_atom_site_label
_atom_site_fract_x
_atom_site_fract_y
_atom_site_fract_z
Si Si1 0.463901 0.687204 0.364991
Si Si2 0.814740 0.967091 0.000000
Si Si3 0.998447 0.317374 0.917310
Si Si4 0.184312 0.969418 0.164896
Si Si5 0.406011 0.906011 0.686523
Si Si6 0.814238 0.034804 0.544114
Si Si7 0.093397 0.406603 0.784907
O O1 0.367927 0.589262 0.359520
O O2 0.445133 0.783316 0.330539
O O3 0.452275 0.749465 0.411112
O O4 0.740360 0.949226 0.958729
O O5 0.868310 0.092069 0.000000
O O6 0.109074 0.390927 0.929861
O O7 0.036060 0.224200 0.883200
O O8 0.899069 0.399069 0.898357
O O9 0.287301 0.948465 0.196445
O O10 0.093115 0.869771 0.173451
O O11 0.392540 0.892540 0.735734
O O12 0.500000 0.000000 0.674117
O O13 0.741670 0.048644 0.500000
O O14 0.910642 0.130672 0.543641
O O15 0.000000 0.500000 0.797331
#
# Coordination Sequence:
#
# PCOD8314440 Si02
#       7
#    16   8  16  16   8  16   8
#     4   9  19  37  62  89 120 161 207 253 306 370
#     4  11  24  39  56  86 128 171 220 268 307 359
#     4  11  23  39  63  93 128 169 212 259 311 373
#     4  11  25  44  70 101 128 162 208 260 316 379
#     4  11  26  42  61  91 123 161 203 256 318 379
#     4   7  10  21  47  82 114 149 198 249 295 353
#     4  11  26  46  68  91 125 163 204 258 324 383
#
# _framework density 20.209710999999999
#
# number of rings (size 3 to 8) (size 9 to 14) (size 15 to 20)
#    0.000    2.091    0.909    3.818    3.818    6.545 
#    0.000    2.273    0.000    1.091    0.000    0.000 
#    0.000    0.000    0.000    0.000    0.000    0.000 
#
# Total GULP energy -1090618.252561 kJ/mol
# GULP energy per Si atom -12393.389234 kJ/mol
# Density = 2.016371 g / cm^3
# Si number density = 20.209711 Si / 1000 Ang^3
#
#
#
# Elastic Constant Matrix: (Units=GPa)
#
#
# Indices 1 2 3 4 5 6 
#
# 1 107.2500 52.4271 56.0637 0.0000 0.0000 0.0000
# 2 52.4271 107.2500 56.0637 0.0000 0.0000 0.0000
# 3 56.0637 56.0637 121.6488 0.0000 0.0000 0.0000
# 4 0.0000 0.0000 0.0000 95.0090 0.0000 0.0000
# 5 0.0000 0.0000 0.0000 0.0000 95.0090 0.0000
# 6 0.0000 0.0000 0.0000 0.0000 0.0000 15.5948
#
#
#
# Elastic Compliance Matrix: (Units=1/GPa)
#
#
# Indices 1 2 3 4 5 6 
#
# 1 0.013750 -0.004491 -0.004267 0.000000 0.000000 0.000000
# 2 -0.004491 0.013750 -0.004267 0.000000 0.000000 0.000000
# 3 -0.004267 -0.004267 0.012154 0.000000 0.000000 0.000000
# 4 0.000000 0.000000 0.000000 0.010525 0.000000 0.000000
# 5 0.000000 0.000000 0.000000 0.000000 0.010525 0.000000
# 6 0.000000 0.000000 0.000000 0.000000 0.000000 0.064124
#
#
# Mechanical properties :
#
#
# Convention : Reuss Voigt Hill
#
# Bulk Modulus (GPa) = 73.51308 73.91753 73.71530
# Shear Modulus (GPa) = 32.17247 52.56219 42.36733
#
# Velocity S-wave (km/s) = 3.99423 5.10537 4.58360
# Velocity P-wave (km/s) = 7.59776 8.45031 8.03535
#
# Compressibility (1/GPa) = 0.01360302
#
# Stress axis : x y z
#
# Youngs Moduli (GPa) = 72.72805 72.72805 82.28014
#
# Poissons Ratio (x) = 0.32660 0.35111
# Poissons Ratio (y) = 0.32660 0.35111
# Poissons Ratio (z) = 0.31035 0.31035
#
# Static dielectric constant tensor:
#      x y z
#    x 3.581810 0.000000 0.000000 
#    y 0.000000 3.581810 0.000000 
#    z 0.000000 0.000000 3.886300 
# 
# 
# High freq. dielectric constant tensor:
#      x y z
#    x 1.779590 0.000000 0.000000 
#    y 0.000000 1.779590 0.000000 
#    z 0.000000 0.000000 1.800540 
# 
# From -- ./inp_files/6577.got.cif
#   From: 2010.03.12/outbox.cif.g09.slc.cpg/sg127_4_cif.got.tgz:6577.got - 2010.04.06 17:03:15.
