data_PCOD8314303
_publ_section_title
;
Structure prediction by ZEFSAII (Michael W. Deem and Ramdas Pophale) SiO2 
 PCOD8314303
Probable space group: P 4/M B M
;
_chemical_formula_sum "Si O2"
_cell_formula_units_Z 72
_cell_length_a 20.423752
_cell_length_b 20.423752
_cell_length_c 9.026688
_cell_angle_alpha 90.000000
_cell_angle_beta 90.000000
_cell_angle_gamma 90.000000
_cell_volume 3765.299168
_symmetry_space_group_name_H-M "P 4/M B M"
_symmetry_group_IT_number 127
_symmetry_cell_setting 'tetragonal'
loop_
_space_group_symop_operation_xyz
x,y,z
-y,x,z
-x,-y,z
y,-x,z
1/2+x,1/2-y,-z
1/2-x,1/2+y,-z
1/2+y,1/2+x,-z
1/2-y,1/2-x,-z
-x,-y,-z
y,-x,-z
x,y,-z
-y,x,-z
1/2-x,1/2+y,z
1/2+x,1/2-y,z
1/2-y,1/2-x,z
1/2+y,1/2+x,z
loop_
_atom_site_type_symbol
_atom_site_label
_atom_site_fract_x
_atom_site_fract_y
_atom_site_fract_z
Si Si1 0.001218 0.393430 0.667626
Si Si2 0.514064 0.760880 0.825440
Si Si3 0.306548 0.393492 0.334310
Si Si4 0.161186 0.766611 0.173310
Si Si5 0.571412 0.421235 0.500000
O O1 0.994868 0.366170 0.500000
O O2 0.943401 0.443401 0.702605
O O3 0.997045 0.336184 0.786036
O O4 0.070795 0.429206 0.687148
O O5 0.456195 0.719712 0.752084
O O6 0.586300 0.739014 0.768170
O O7 0.509189 0.751812 0.000000
O O8 0.273975 0.390033 0.500000
O O9 0.297549 0.325406 0.248331
O O10 0.385231 0.402023 0.352497
O O11 0.198906 0.698906 0.210014
O O12 0.161250 0.781026 0.000000
O O13 0.592103 0.494624 0.500000
#
# Coordination Sequence:
#
# PCOD8314303 Si02
#       5
#    16  16  16  16   8
#     4   9  19  36  57  82 113 150 195 246 296 352
#     4  11  22  37  59  86 118 157 198 245 300 362
#     4  10  22  36  58  83 114 148 193 239 294 343
#     4  10  22  40  60  85 120 159 199 244 298 361
#     4   9  18  34  57  82 108 137 175 228 286 342
#
# _framework density 19.121988000000002
#
# number of rings (size 3 to 8) (size 9 to 14) (size 15 to 20)
#    0.667    1.444    0.000    4.000    0.000    4.000 
#    0.000    1.111    0.000    0.000    0.000    9.333 
#    0.000    0.000    0.000    0.000    0.000    0.000 
#
# Total GULP energy -892308.194401 kJ/mol
# GULP energy per Si atom -12393.169367 kJ/mol
# Density = 1.907847 g / cm^3
# Si number density = 19.121988 Si / 1000 Ang^3
#
#
#
# Elastic Constant Matrix: (Units=GPa)
#
#
# Indices 1 2 3 4 5 6 
#
# 1 119.3043 12.6874 39.4884 0.0000 0.0000 0.0000
# 2 12.6874 119.3043 39.4884 0.0000 0.0000 0.0000
# 3 39.4884 39.4884 73.4057 0.0000 0.0000 0.0000
# 4 0.0000 0.0000 0.0000 33.3980 0.0000 0.0000
# 5 0.0000 0.0000 0.0000 0.0000 33.3980 0.0000
# 6 0.0000 0.0000 0.0000 0.0000 0.0000 28.0942
#
#
#
# Elastic Compliance Matrix: (Units=1/GPa)
#
#
# Indices 1 2 3 4 5 6 
#
# 1 0.010276 0.000897 -0.006010 0.000000 0.000000 0.000000
# 2 0.000897 0.010276 -0.006010 0.000000 0.000000 0.000000
# 3 -0.006010 -0.006010 0.020089 0.000000 0.000000 0.000000
# 4 0.000000 0.000000 0.000000 0.029942 0.000000 0.000000
# 5 0.000000 0.000000 0.000000 0.000000 0.029942 0.000000
# 6 0.000000 0.000000 0.000000 0.000000 0.000000 0.035595
#
#
# Mechanical properties :
#
#
# Convention : Reuss Voigt Hill
#
# Bulk Modulus (GPa) = 54.36744 55.03810 54.70277
# Shear Modulus (GPa) = 30.39548 33.66803 32.03176
#
# Velocity S-wave (km/s) = 3.99125 4.20062 4.09727
# Velocity P-wave (km/s) = 7.05221 7.23685 7.14513
#
# Compressibility (1/GPa) = 0.01839336
#
# Stress axis : x y z
#
# Youngs Moduli (GPa) = 97.31527 97.31527 49.77796
#
# Poissons Ratio (x) = -0.08724 0.29917
# Poissons Ratio (y) = -0.08724 0.29917
# Poissons Ratio (z) = 0.58488 0.58488
#
# Static dielectric constant tensor:
#      x y z
#    x 3.473880 0.000000 0.000000 
#    y 0.000000 3.473880 0.000000 
#    z 0.000000 0.000000 3.388250 
# 
# 
# High freq. dielectric constant tensor:
#      x y z
#    x 1.746770 0.000000 0.000000 
#    y 0.000000 1.746770 0.000000 
#    z 0.000000 0.000000 1.734720 
# 
# From -- ./inp_files/1558.got.cif
#   From: 2010.03.12/outbox.cif.g09.slc.cpg/sg127_1_cif.got.tgz:1558.got - 2010.04.06 17:03:15.
