data_PCOD8314701
_publ_section_title
;
Structure prediction by ZEFSAII (Michael W. Deem and Ramdas Pophale) SiO2 
 PCOD8314701
Probable space group: P 4/M N C
;
_chemical_formula_sum "Si O2"
_cell_formula_units_Z 112
_cell_length_a 14.921288
_cell_length_b 14.921288
_cell_length_c 25.540418
_cell_angle_alpha 90.000000
_cell_angle_beta 90.000000
_cell_angle_gamma 90.000000
_cell_volume 5686.442166
_symmetry_space_group_name_H-M "P 4/M N C"
_symmetry_group_IT_number 128
_symmetry_cell_setting 'tetragonal'
loop_
_space_group_symop_operation_xyz
x,y,z
-y,x,z
-x,-y,z
y,-x,z
1/2+x,1/2-y,1/2-z
1/2-x,1/2+y,1/2-z
1/2+y,1/2+x,1/2-z
1/2-y,1/2-x,1/2-z
-x,-y,-z
y,-x,-z
x,y,-z
-y,x,-z
1/2-x,1/2+y,1/2+z
1/2+x,1/2-y,1/2+z
1/2-y,1/2-x,1/2+z
1/2+y,1/2+x,1/2+z
loop_
_atom_site_type_symbol
_atom_site_label
_atom_site_fract_x
_atom_site_fract_y
_atom_site_fract_z
Si Si1 0.314517 0.875226 0.623883
Si Si2 0.325468 0.073003 0.378166
Si Si3 0.922552 0.117768 0.937766
Si Si4 0.144154 0.221292 0.272845
Si Si5 0.279220 0.243279 0.561634
Si Si6 0.004743 0.600824 0.826894
Si Si7 0.947483 0.260866 0.260112
O O1 0.232529 0.855173 0.664110
O O2 0.304171 0.806167 0.576276
O O3 0.407979 0.863171 0.655126
O O4 0.308046 0.974223 0.598046
O O5 0.271792 0.146245 0.411344
O O6 0.430991 0.098559 0.378371
O O7 0.299266 0.067025 0.317554
O O8 0.866809 0.203215 0.917227
O O9 0.024957 0.122992 0.917436
O O10 0.919711 0.116280 0.000000
O O11 0.188604 0.311397 0.250000
O O12 0.194056 0.134757 0.249686
O O13 0.041685 0.209703 0.254833
O O14 0.281892 0.228515 0.500000
O O15 0.000000 0.500000 0.803775
O O16 0.051988 0.661482 0.782938
#
# Coordination Sequence:
#
# PCOD8314701 Si02
#       7
#    16  16  16  16  16  16  16
#     4  10  22  39  58  89 122 156 204 254 310 369
#     4  10  22  37  59  90 118 155 207 254 304 367
#     4   8  16  33  57  82 109 148 198 245 298 365
#     4  11  21  38  58  90 123 159 200 250 303 371
#     4  11  23  39  61  86 119 164 208 259 311 356
#     4  10  21  37  62  93 126 159 199 249 313 379
#     4  11  22  36  63  87 125 164 199 247 308 376
#
# _framework density 19.695971
#
# number of rings (size 3 to 8) (size 9 to 14) (size 15 to 20)
#    0.000    1.857    2.857    1.714    2.000    3.714 
#    0.000    0.000    0.000    3.000    0.000    1.000 
#    0.000    0.000    0.000    0.000    0.000    0.000 
#
# Total GULP energy -1388185.105130 kJ/mol
# GULP energy per Si atom -12394.509867 kJ/mol
# Density = 1.965114 g / cm^3
# Si number density = 19.695971 Si / 1000 Ang^3
#
#
#
# Elastic Constant Matrix: (Units=GPa)
#
#
# Indices 1 2 3 4 5 6 
#
# 1 116.4520 58.3414 38.6686 0.0000 0.0000 0.0000
# 2 58.3414 116.4511 38.6687 0.0000 0.0000 0.0000
# 3 38.6686 38.6687 51.5480 0.0000 0.0000 0.0000
# 4 0.0000 0.0000 0.0000 22.5722 0.0000 0.0000
# 5 0.0000 0.0000 0.0000 0.0000 22.5723 0.0000
# 6 0.0000 0.0000 0.0000 0.0000 0.0000 35.6502
#
#
#
# Elastic Compliance Matrix: (Units=1/GPa)
#
#
# Indices 1 2 3 4 5 6 
#
# 1 0.012886 -0.004323 -0.006424 0.000000 0.000000 0.000000
# 2 -0.004323 0.012886 -0.006424 0.000000 0.000000 0.000000
# 3 -0.006424 -0.006424 0.029037 0.000000 0.000000 0.000000
# 4 0.000000 0.000000 0.000000 0.044302 0.000000 0.000000
# 5 0.000000 0.000000 0.000000 0.000000 0.044302 0.000000
# 6 0.000000 0.000000 0.000000 0.000000 0.000000 0.028050
#
#
# Mechanical properties :
#
#
# Convention : Reuss Voigt Hill
#
# Bulk Modulus (GPa) = 48.85547 61.75648 55.30597
# Shear Modulus (GPa) = 23.51540 26.07709 24.79625
#
# Velocity S-wave (km/s) = 3.45906 3.64260 3.55202
# Velocity P-wave (km/s) = 6.38844 7.00816 6.70546
#
# Compressibility (1/GPa) = 0.02046854
#
# Stress axis : x y z
#
# Youngs Moduli (GPa) = 77.60434 77.60338 34.43902
#
# Poissons Ratio (x) = 0.33546 0.22122
# Poissons Ratio (y) = 0.33546 0.22123
# Poissons Ratio (z) = 0.49850 0.49851
#
# Static dielectric constant tensor:
#      x y z
#    x 3.806700 0.000000 0.000000 
#    y 0.000000 3.806700 0.000000 
#    z 0.000000 0.000000 3.155930 
# 
# 
# High freq. dielectric constant tensor:
#      x y z
#    x 1.771770 0.000000 0.000000 
#    y 0.000000 1.771770 0.000000 
#    z 0.000000 0.000000 1.730620 
# 
# From -- ./inp_files/6478.got.cif
#   From: 2010.03.12/outbox.cif.g09.slc.cpg/sg128_4_cif.got.tgz:6478.got - 2010.04.06 17:11:05.
