data_PCOD8314715
_publ_section_title
;
Structure prediction by ZEFSAII (Michael W. Deem and Ramdas Pophale) SiO2 
 PCOD8314715
Probable space group: P 4/M N C
;
_chemical_formula_sum "Si O2"
_cell_formula_units_Z 112
_cell_length_a 14.965674
_cell_length_b 14.965674
_cell_length_c 26.312944
_cell_angle_alpha 90.000000
_cell_angle_beta 90.000000
_cell_angle_gamma 90.000000
_cell_volume 5893.346860
_symmetry_space_group_name_H-M "P 4/M N C"
_symmetry_group_IT_number 128
_symmetry_cell_setting 'tetragonal'
loop_
_space_group_symop_operation_xyz
x,y,z
-y,x,z
-x,-y,z
y,-x,z
1/2+x,1/2-y,1/2-z
1/2-x,1/2+y,1/2-z
1/2+y,1/2+x,1/2-z
1/2-y,1/2-x,1/2-z
-x,-y,-z
y,-x,-z
x,y,-z
-y,x,-z
1/2-x,1/2+y,1/2+z
1/2+x,1/2-y,1/2+z
1/2-y,1/2-x,1/2+z
1/2+y,1/2+x,1/2+z
loop_
_atom_site_type_symbol
_atom_site_label
_atom_site_fract_x
_atom_site_fract_y
_atom_site_fract_z
Si Si1 0.421628 0.930736 0.557435
Si Si2 0.321317 0.670227 0.402481
Si Si3 0.031624 0.237928 0.597754
Si Si4 0.703613 0.335692 0.058163
Si Si5 0.743372 0.509821 0.442790
Si Si6 0.873968 0.077321 0.807752
Si Si7 0.444123 0.635826 0.195385
O O1 0.384459 0.918147 0.500000
O O2 0.344495 0.965612 0.594277
O O3 0.459404 0.838551 0.578961
O O4 0.500000 0.000000 0.558410
O O5 0.238692 0.736916 0.412566
O O6 0.402055 0.681307 0.442753
O O7 0.290198 0.568184 0.406272
O O8 0.368006 0.688329 0.347325
O O9 0.100254 0.194555 0.557299
O O10 0.071827 0.211096 0.652943
O O11 0.930669 0.207763 0.586573
O O12 0.737742 0.345078 0.000000
O O13 0.751035 0.472254 0.500000
O O14 0.830883 0.085633 0.751373
O O15 0.971492 0.119938 0.815867
O O16 0.386194 0.547750 0.187445
#
# Coordination Sequence:
#
# PCOD8314715 Si02
#       7
#    16  16  16  16  16  16  16
#     4  10  21  39  59  82 119 171 215 242 293 379
#     4  12  22  38  59  88 122 163 207 260 313 369
#     4  12  22  39  63  89 122 164 206 263 323 376
#     4  12  25  39  58  89 129 166 211 262 314 386
#     4  11  22  35  55  84 123 161 198 247 306 369
#     4   9  18  36  62  89 116 152 198 254 315 379
#     4   9  18  36  62  91 119 150 192 254 324 383
#
# _framework density 19.004480999999998
#
# number of rings (size 3 to 8) (size 9 to 14) (size 15 to 20)
#    0.000    1.286    4.286    4.286    0.000    1.714 
#    0.000    2.143    0.000    0.000    0.000    1.000 
#    0.000    0.000    0.000    0.000    0.000    0.000 
#
# Total GULP energy -1388039.885764 kJ/mol
# GULP energy per Si atom -12393.213266 kJ/mol
# Density = 1.896123 g / cm^3
# Si number density = 19.004481 Si / 1000 Ang^3
#
#
#
# Elastic Constant Matrix: (Units=GPa)
#
#
# Indices 1 2 3 4 5 6 
#
# 1 99.8499 35.4654 32.6468 0.0000 0.0000 0.0000
# 2 35.4654 99.8499 32.6468 0.0000 0.0000 0.0000
# 3 32.6468 32.6468 116.9051 0.0000 0.0000 0.0000
# 4 0.0000 0.0000 0.0000 33.7049 0.0000 0.0000
# 5 0.0000 0.0000 0.0000 0.0000 33.7049 0.0000
# 6 0.0000 0.0000 0.0000 0.0000 0.0000 28.6563
#
#
#
# Elastic Compliance Matrix: (Units=1/GPa)
#
#
# Indices 1 2 3 4 5 6 
#
# 1 0.012036 -0.003495 -0.002385 0.000000 0.000000 0.000000
# 2 -0.003495 0.012036 -0.002385 0.000000 0.000000 0.000000
# 3 -0.002385 -0.002385 0.009886 0.000000 0.000000 0.000000
# 4 0.000000 0.000000 0.000000 0.029669 0.000000 0.000000
# 5 0.000000 0.000000 0.000000 0.000000 0.029669 0.000000
# 6 0.000000 0.000000 0.000000 0.000000 0.000000 0.034896
#
#
# Mechanical properties :
#
#
# Convention : Reuss Voigt Hill
#
# Bulk Modulus (GPa) = 57.38040 57.56922 57.47481
# Shear Modulus (GPa) = 33.21502 33.60293 33.40897
#
# Velocity S-wave (km/s) = 4.18514 4.20951 4.19734
# Velocity P-wave (km/s) = 7.32206 7.34744 7.33476
#
# Compressibility (1/GPa) = 0.01742756
#
# Stress axis : x y z
#
# Youngs Moduli (GPa) = 83.08152 83.08152 101.15205
#
# Poissons Ratio (x) = 0.29040 0.24126
# Poissons Ratio (y) = 0.29040 0.24126
# Poissons Ratio (z) = 0.19816 0.19816
#
# Static dielectric constant tensor:
#      x y z
#    x 3.367410 0.000000 0.000000 
#    y 0.000000 3.367410 0.000000 
#    z 0.000000 0.000000 3.542510 
# 
# 
# High freq. dielectric constant tensor:
#      x y z
#    x 1.735140 0.000000 0.000000 
#    y 0.000000 1.735140 0.000000 
#    z 0.000000 0.000000 1.727630 
# 
# From -- ./inp_files/7379.got.cif
#   From: 2010.03.12/outbox.cif.g09.slc.cpg/sg128_4_cif.got.tgz:7379.got - 2010.04.06 17:11:05.
