data_PCOD8314498
_publ_section_title
;
Structure prediction by ZEFSAII (Michael W. Deem and Ramdas Pophale) SiO2 
 PCOD8314498
Probable space group: P 4/M N C
;
_chemical_formula_sum "Si O2"
_cell_formula_units_Z 96
_cell_length_a 25.349866
_cell_length_b 25.349866
_cell_length_c 9.177296
_cell_angle_alpha 90.000000
_cell_angle_beta 90.000000
_cell_angle_gamma 90.000000
_cell_volume 5897.474550
_symmetry_space_group_name_H-M "P 4/M N C"
_symmetry_group_IT_number 128
_symmetry_cell_setting 'tetragonal'
loop_
_space_group_symop_operation_xyz
x,y,z
-y,x,z
-x,-y,z
y,-x,z
1/2+x,1/2-y,1/2-z
1/2-x,1/2+y,1/2-z
1/2+y,1/2+x,1/2-z
1/2-y,1/2-x,1/2-z
-x,-y,-z
y,-x,-z
x,y,-z
-y,x,-z
1/2-x,1/2+y,1/2+z
1/2+x,1/2-y,1/2+z
1/2-y,1/2-x,1/2+z
1/2+y,1/2+x,1/2+z
loop_
_atom_site_type_symbol
_atom_site_label
_atom_site_fract_x
_atom_site_fract_y
_atom_site_fract_z
Si Si1 0.309552 0.885704 0.665631
Si Si2 0.799331 0.500003 0.833888
Si Si3 0.307690 0.499999 0.672586
Si Si4 0.811171 0.103446 0.329249
Si Si5 0.396556 0.311167 0.170751
Si Si6 0.690444 0.885709 0.334368
O O1 0.344686 0.844686 0.750000
O O2 0.313063 0.867771 0.500000
O O3 0.332234 0.945756 0.687481
O O4 0.248844 0.883595 0.718517
O O5 0.753515 0.500002 0.715342
O O6 0.832235 0.445762 0.812520
O O7 0.775472 0.500003 0.000000
O O8 0.315391 0.499999 0.500000
O O9 0.333429 0.447157 0.741163
O O10 0.333427 0.552841 0.741164
O O11 0.813865 0.090273 0.500000
O O12 0.846390 0.153613 0.287479
O O13 0.383598 0.251152 0.218519
O O14 0.409730 0.313860 0.000000
O O15 0.655307 0.844694 0.250000
O O16 0.686933 0.867777 0.500000
#
# Coordination Sequence:
#
# PCOD8314498 Si02
#       6
#    16  16  16  16  16  16
#     4   9  17  29  46  68  92 119 152 190 229 268
#     4   8  16  32  48  61  86 125 161 186 217 272
#     4  10  18  28  46  71  94 115 148 196 237 262
#     4   9  18  33  50  66  90 127 161 183 215 273
#     4   9  18  33  50  66  90 127 161 183 215 273
#     4   9  17  29  46  68  92 119 152 190 229 268
#
# _framework density 16.278154000000001
#
# number of rings (size 3 to 8) (size 9 to 14) (size 15 to 20)
#    0.000    3.000    0.000    3.500    0.000    6.667 
#    0.000    0.000    0.000    1.000    0.000    7.000 
#    0.000    0.000    0.000    0.000    0.000    0.000 
#
# Total GULP energy -1189453.831439 kJ/mol
# GULP energy per Si atom -12390.144077 kJ/mol
# Density = 1.624110 g / cm^3
# Si number density = 16.278154 Si / 1000 Ang^3
#
#
#
# Elastic Constant Matrix: (Units=GPa)
#
#
# Indices 1 2 3 4 5 6 
#
# 1 104.5588 69.4312 45.5901 0.0000 0.0000 0.0000
# 2 69.4312 104.5612 45.5895 0.0000 0.0000 0.0000
# 3 45.5901 45.5895 66.9388 0.0000 0.0000 0.0000
# 4 0.0000 0.0000 0.0000 25.3977 0.0000 0.0000
# 5 0.0000 0.0000 0.0000 0.0000 25.3975 0.0000
# 6 0.0000 0.0000 0.0000 0.0000 0.0000 0.3288
#
#
#
# Elastic Compliance Matrix: (Units=1/GPa)
#
#
# Indices 1 2 3 4 5 6 
#
# 1 0.018702 -0.009765 -0.006087 0.000000 0.000000 0.000000
# 2 -0.009765 0.018702 -0.006086 0.000000 0.000000 0.000000
# 3 -0.006087 -0.006086 0.023230 0.000000 0.000000 0.000000
# 4 0.000000 0.000000 0.000000 0.039374 0.000000 0.000000
# 5 0.000000 0.000000 0.000000 0.000000 0.039374 0.000000
# 6 0.000000 0.000000 0.000000 0.000000 0.000000 3.040924
#
#
# Mechanical properties :
#
#
# Convention : Reuss Voigt Hill
#
# Bulk Modulus (GPa) = 59.67591 66.36447 63.02019
# Shear Modulus (GPa) = 1.54810 17.92134 9.73472
#
# Velocity S-wave (km/s) = 0.97626 3.32165 2.44811
# Velocity P-wave (km/s) = 6.16527 7.45444 6.84029
#
# Compressibility (1/GPa) = 0.01675718
#
# Stress axis : x y z
#
# Youngs Moduli (GPa) = 53.46917 53.47157 43.04758
#
# Poissons Ratio (x) = 0.52214 0.26204
# Poissons Ratio (y) = 0.52211 0.26201
# Poissons Ratio (z) = 0.32548 0.32545
#
# Static dielectric constant tensor:
#      x y z
#    x 3.107350 0.000000 0.000000 
#    y 0.000000 3.107350 0.000000 
#    z 0.000000 0.000000 2.956630 
# 
# 
# High freq. dielectric constant tensor:
#      x y z
#    x 1.610630 0.000000 0.000000 
#    y 0.000000 1.610630 0.000000 
#    z 0.000000 0.000000 1.620660 
# 
# From -- ./inp_files/1627.got.cif
#   From: 2010.03.12/outbox.cif.g09.slc.cpg/sg128_1_cif.got.tgz:1627.got - 2010.04.06 17:11:05.
