data_PCOD8314610
_publ_section_title
;
Structure prediction by ZEFSAII (Michael W. Deem and Ramdas Pophale) SiO2 
 PCOD8314610
Probable space group: P 4/M N C
;
_chemical_formula_sum "Si O2"
_cell_formula_units_Z 64
_cell_length_a 18.363423
_cell_length_b 18.363423
_cell_length_c 11.156742
_cell_angle_alpha 90.000000
_cell_angle_beta 90.000000
_cell_angle_gamma 90.000000
_cell_volume 3762.224148
_symmetry_space_group_name_H-M "P 4/M N C"
_symmetry_group_IT_number 128
_symmetry_cell_setting 'tetragonal'
loop_
_space_group_symop_operation_xyz
x,y,z
-y,x,z
-x,-y,z
y,-x,z
1/2+x,1/2-y,1/2-z
1/2-x,1/2+y,1/2-z
1/2+y,1/2+x,1/2-z
1/2-y,1/2-x,1/2-z
-x,-y,-z
y,-x,-z
x,y,-z
-y,x,-z
1/2-x,1/2+y,1/2+z
1/2+x,1/2-y,1/2+z
1/2-y,1/2-x,1/2+z
1/2+y,1/2+x,1/2+z
loop_
_atom_site_type_symbol
_atom_site_label
_atom_site_fract_x
_atom_site_fract_y
_atom_site_fract_z
Si Si1 0.914534 0.084418 0.000000
Si Si2 0.606359 0.157042 0.866862
Si Si3 0.230006 0.269995 0.750000
Si Si4 0.625036 0.651881 0.744642
Si Si5 0.800437 0.020253 0.364567
O O1 0.876153 0.119027 0.886619
O O2 0.999360 0.101538 0.000000
O O3 0.602123 0.102123 0.750000
O O4 0.685654 0.196940 0.864515
O O5 0.543176 0.216507 0.848161
O O6 0.598321 0.119916 0.000000
O O7 0.316187 0.283030 0.742893
O O8 0.646434 0.587286 0.834843
O O9 0.547517 0.684932 0.778692
O O10 0.816334 0.996118 0.500000
#
# Coordination Sequence:
#
# PCOD8314610 Si02
#       5
#     8  16   8  16  16
#     4  11  22  34  50  70 110 142 170 203 252 314
#     4   8  16  31  49  71  95 124 163 207 250 292
#     4   8  20  30  52  70  95 129 170 212 254 286
#     4  11  20  36  49  74 101 135 171 207 248 302
#     4  10  20  33  50  72 102 133 167 206 247 294
#
# _framework density 17.011213000000001
#
# number of rings (size 3 to 8) (size 9 to 14) (size 15 to 20)
#    0.750    1.625    2.500    0.750    1.750    1.500 
#    2.250    1.250    0.000    0.000    0.000    0.875 
#    0.000    4.000    0.000    0.000    0.000    0.000 
#
# Total GULP energy -792936.460126 kJ/mol
# GULP energy per Si atom -12389.632189 kJ/mol
# Density = 1.697249 g / cm^3
# Si number density = 17.011213 Si / 1000 Ang^3
#
#
#
# Elastic Constant Matrix: (Units=GPa)
#
#
# Indices 1 2 3 4 5 6 
#
# 1 51.3552 30.7403 1.1484 0.0000 0.0000 0.0000
# 2 30.7403 51.3538 1.1488 0.0000 0.0000 0.0000
# 3 1.1484 1.1488 79.6411 0.0000 0.0000 0.0000
# 4 0.0000 0.0000 0.0000 17.2910 0.0000 0.0000
# 5 0.0000 0.0000 0.0000 0.0000 17.2912 0.0000
# 6 0.0000 0.0000 0.0000 0.0000 0.0000 10.4514
#
#
#
# Elastic Compliance Matrix: (Units=1/GPa)
#
#
# Indices 1 2 3 4 5 6 
#
# 1 0.030348 -0.018162 -0.000176 0.000000 0.000000 0.000000
# 2 -0.018162 0.030349 -0.000176 0.000000 0.000000 0.000000
# 3 -0.000176 -0.000176 0.012561 0.000000 0.000000 0.000000
# 4 0.000000 0.000000 0.000000 0.057834 0.000000 0.000000
# 5 0.000000 0.000000 0.000000 0.000000 0.057833 0.000000
# 6 0.000000 0.000000 0.000000 0.000000 0.000000 0.095681
#
#
# Mechanical properties :
#
#
# Convention : Reuss Voigt Hill
#
# Bulk Modulus (GPa) = 27.60120 27.60279 27.60199
# Shear Modulus (GPa) = 14.98312 18.96089 16.97200
#
# Velocity S-wave (km/s) = 2.97101 3.34220 3.16206
# Velocity P-wave (km/s) = 5.29431 5.58169 5.43990
#
# Compressibility (1/GPa) = 0.03623031
#
# Stress axis : x y z
#
# Youngs Moduli (GPa) = 32.95140 32.95050 79.60892
#
# Poissons Ratio (x) = 0.59845 0.01398
# Poissons Ratio (y) = 0.59847 0.01400
# Poissons Ratio (z) = 0.00579 0.00579
#
# Static dielectric constant tensor:
#      x y z
#    x 2.916330 0.000000 0.000000 
#    y 0.000000 2.916340 0.000000 
#    z 0.000000 0.000000 3.233040 
# 
# 
# High freq. dielectric constant tensor:
#      x y z
#    x 1.630110 0.000000 0.000000 
#    y 0.000000 1.630110 0.000000 
#    z 0.000000 0.000000 1.669670 
# 
# From -- ./inp_files/2547.got.cif
#   From: 2010.03.12/outbox.cif.g09.slc.cpg/sg128_2_cif.got.tgz:2547.got - 2010.04.06 17:11:05.
