data_PCOD8314572
_publ_section_title
;
Structure prediction by ZEFSAII (Michael W. Deem and Ramdas Pophale) SiO2 
 PCOD8314572
Probable space group: P 4/M N C
;
_chemical_formula_sum "Si O2"
_cell_formula_units_Z 96
_cell_length_a 20.377430
_cell_length_b 20.377430
_cell_length_c 13.657195
_cell_angle_alpha 90.000000
_cell_angle_beta 90.000000
_cell_angle_gamma 90.000000
_cell_volume 5671.008918
_symmetry_space_group_name_H-M "P 4/M N C"
_symmetry_group_IT_number 128
_symmetry_cell_setting 'tetragonal'
loop_
_space_group_symop_operation_xyz
x,y,z
-y,x,z
-x,-y,z
y,-x,z
1/2+x,1/2-y,1/2-z
1/2-x,1/2+y,1/2-z
1/2+y,1/2+x,1/2-z
1/2-y,1/2-x,1/2-z
-x,-y,-z
y,-x,-z
x,y,-z
-y,x,-z
1/2-x,1/2+y,1/2+z
1/2+x,1/2-y,1/2+z
1/2-y,1/2-x,1/2+z
1/2+y,1/2+x,1/2+z
loop_
_atom_site_type_symbol
_atom_site_label
_atom_site_fract_x
_atom_site_fract_y
_atom_site_fract_z
Si Si1 0.803378 0.045797 0.888037
Si Si2 0.830902 0.464927 0.886081
Si Si3 0.160999 0.101642 0.888548
Si Si4 0.829039 0.567883 0.731388
Si Si5 0.775033 0.376558 0.265759
Si Si6 0.046198 0.622410 0.113845
O O1 0.868472 0.089318 0.872735
O O2 0.742157 0.069538 0.821178
O O3 0.832039 0.974730 0.861043
O O4 0.778294 0.049128 0.000000
O O5 0.822067 0.536374 0.839348
O O6 0.777676 0.416170 0.836630
O O7 0.904953 0.438319 0.863353
O O8 0.815611 0.468378 0.000000
O O9 0.203970 0.139576 0.807766
O O10 0.184549 0.114377 0.000000
O O11 0.859681 0.640320 0.750000
O O12 0.881505 0.523821 0.669116
O O13 0.806101 0.306101 0.250000
O O14 0.811013 0.419808 0.349203
O O15 0.031512 0.627907 0.000000
#
# Coordination Sequence:
#
# PCOD8314572 Si02
#       6
#    16  16  16  16  16  16
#     4  10  21  36  56  80 103 131 166 212 269 322
#     4   9  18  30  47  73 100 136 182 217 242 288
#     4  10  19  34  57  81 105 130 163 211 268 323
#     4  11  21  32  48  72 106 144 172 208 256 314
#     4   9  16  28  50  75 100 134 170 205 243 299
#     4   9  16  29  49  71  99 135 175 214 252 294
#
# _framework density 16.928204000000001
#
# number of rings (size 3 to 8) (size 9 to 14) (size 15 to 20)
#    0.000    2.333    3.333    2.500    0.000    4.333 
#    0.000    3.333    0.000    1.000    0.000    0.000 
#    0.000    1.333    0.000    0.000    0.000    0.000 
#
# Total GULP energy -1189517.639419 kJ/mol
# GULP energy per Si atom -12390.808744 kJ/mol
# Density = 1.688967 g / cm^3
# Si number density = 16.928204 Si / 1000 Ang^3
#
#
#
# Elastic Constant Matrix: (Units=GPa)
#
#
# Indices 1 2 3 4 5 6 
#
# 1 77.0447 51.8747 39.7995 0.0000 0.0000 0.0000
# 2 51.8747 77.0440 39.7990 0.0000 0.0000 0.0000
# 3 39.7995 39.7990 101.6565 0.0000 0.0000 0.0000
# 4 0.0000 0.0000 0.0000 21.5829 0.0000 0.0000
# 5 0.0000 0.0000 0.0000 0.0000 21.5832 0.0000
# 6 0.0000 0.0000 0.0000 0.0000 0.0000 19.2018
#
#
#
# Elastic Compliance Matrix: (Units=1/GPa)
#
#
# Indices 1 2 3 4 5 6 
#
# 1 0.024980 -0.014750 -0.004005 0.000000 0.000000 0.000000
# 2 -0.014750 0.024980 -0.004005 0.000000 0.000000 0.000000
# 3 -0.004005 -0.004005 0.012973 0.000000 0.000000 0.000000
# 4 0.000000 0.000000 0.000000 0.046333 0.000000 0.000000
# 5 0.000000 0.000000 0.000000 0.000000 0.046332 0.000000
# 6 0.000000 0.000000 0.000000 0.000000 0.000000 0.052078
#
#
# Mechanical properties :
#
#
# Convention : Reuss Voigt Hill
#
# Bulk Modulus (GPa) = 57.43055 57.63240 57.53148
# Shear Modulus (GPa) = 19.30492 20.75840 20.03166
#
# Velocity S-wave (km/s) = 3.38064 3.50560 3.44369
# Velocity P-wave (km/s) = 7.01698 7.10667 7.06196
#
# Compressibility (1/GPa) = 0.01741233
#
# Stress axis : x y z
#
# Youngs Moduli (GPa) = 40.03213 40.03189 77.08328
#
# Poissons Ratio (x) = 0.59049 0.30872
# Poissons Ratio (y) = 0.59049 0.30871
# Poissons Ratio (z) = 0.16033 0.16032
#
# Static dielectric constant tensor:
#      x y z
#    x 3.062080 0.000000 0.000000 
#    y 0.000000 3.062080 0.000000 
#    z 0.000000 0.000000 3.247930 
# 
# 
# High freq. dielectric constant tensor:
#      x y z
#    x 1.631880 0.000000 0.000000 
#    y 0.000000 1.631880 0.000000 
#    z 0.000000 0.000000 1.654070 
# 
# From -- ./inp_files/4011.got.cif
#   From: 2010.03.12/outbox.cif.g09.slc.cpg/sg128_3_cif.got.tgz:4011.got - 2010.04.06 17:11:05.
