data_PCOD8314903
_publ_section_title
;
Structure prediction by ZEFSAII (Michael W. Deem and Ramdas Pophale) SiO2 
 PCOD8314903
Probable space group: P 4/N M M
;
_chemical_formula_sum "Si O2"
_cell_formula_units_Z 64
_cell_length_a 19.002804
_cell_length_b 19.002804
_cell_length_c 10.213203
_cell_angle_alpha 90.000000
_cell_angle_beta 90.000000
_cell_angle_gamma 90.000000
_cell_volume 3688.054601
_symmetry_space_group_name_H-M "P 4/N M M"
_symmetry_group_IT_number 129
_symmetry_cell_setting 'tetragonal'
loop_
_space_group_symop_operation_xyz
x,y,z
1/2-y,x,z
1/2-x,1/2-y,z
y,1/2-x,z
1/2+x,-y,-z
-x,1/2+y,-z
1/2+y,1/2+x,-z
-y,-x,-z
-x,-y,-z
1/2+y,-x,-z
1/2+x,1/2+y,-z
-y,1/2+x,-z
1/2-x,y,z
x,1/2-y,z
1/2-y,1/2-x,z
y,x,z
loop_
_atom_site_type_symbol
_atom_site_label
_atom_site_fract_x
_atom_site_fract_y
_atom_site_fract_z
Si Si1 0.386401 0.495370 0.509760
Si Si2 0.327305 0.533930 0.247853
Si Si3 0.942518 0.670679 0.995374
Si Si4 0.476984 0.593767 0.212945
O O1 0.447360 0.552641 0.500000
O O2 0.418154 0.418154 0.482434
O O3 0.327862 0.509885 0.400007
O O4 0.359169 0.500316 0.660283
O O5 0.250000 0.569925 0.224588
O O6 0.333333 0.465700 0.155468
O O7 0.392433 0.584692 0.213721
O O8 0.930221 0.750000 0.042461
O O9 0.869543 0.630458 0.015503
O O10 0.003801 0.635518 0.082411
O O11 0.517846 0.517846 0.218126
#
# Coordination Sequence:
#
# PCOD8314903 Si02
#       4
#    16  16  16  16
#     4   8  14  26  44  64  87 117 151 189 232 272
#     4  10  18  27  44  71  98 122 151 189 234 281
#     4  10  20  32  48  70  94 123 157 194 239 286
#     4   9  17  31  50  69  92 123 161 203 239 275
#
# _framework density 17.353324000000001
#
# number of rings (size 3 to 8) (size 9 to 14) (size 15 to 20)
#    0.000    2.750    0.000    4.500    0.000    3.250 
#    0.000    0.000    0.000    0.750    0.000    3.500 
#    0.000    6.000    0.000    0.000    0.000    0.000 
#
# Total GULP energy -792929.279365 kJ/mol
# GULP energy per Si atom -12389.519990 kJ/mol
# Density = 1.731383 g / cm^3
# Si number density = 17.353324 Si / 1000 Ang^3
#
#
#
# Elastic Constant Matrix: (Units=GPa)
#
#
# Indices 1 2 3 4 5 6 
#
# 1 100.2443 40.4061 38.0508 0.0000 0.0000 0.0000
# 2 40.4061 100.2444 38.0510 0.0000 0.0000 0.0000
# 3 38.0508 38.0510 96.2102 0.0000 0.0000 0.0000
# 4 0.0000 0.0000 0.0000 19.9828 0.0000 0.0000
# 5 0.0000 0.0000 0.0000 0.0000 19.9827 0.0000
# 6 0.0000 0.0000 0.0000 0.0000 0.0000 12.1341
#
#
#
# Elastic Compliance Matrix: (Units=1/GPa)
#
#
# Indices 1 2 3 4 5 6 
#
# 1 0.012879 -0.003833 -0.003577 0.000000 0.000000 0.000000
# 2 -0.003833 0.012879 -0.003577 0.000000 0.000000 0.000000
# 3 -0.003577 -0.003577 0.013224 0.000000 0.000000 0.000000
# 4 0.000000 0.000000 0.000000 0.050043 0.000000 0.000000
# 5 0.000000 0.000000 0.000000 0.000000 0.050043 0.000000
# 6 0.000000 0.000000 0.000000 0.000000 0.000000 0.082412
#
#
# Mechanical properties :
#
#
# Convention : Reuss Voigt Hill
#
# Bulk Modulus (GPa) = 58.80702 58.85718 58.83210
# Shear Modulus (GPa) = 20.07034 22.43266 21.25150
#
# Velocity S-wave (km/s) = 3.40453 3.59932 3.50328
# Velocity P-wave (km/s) = 7.02965 7.15989 7.09507
#
# Compressibility (1/GPa) = 0.01700477
#
# Stress axis : x y z
#
# Youngs Moduli (GPa) = 77.64820 77.64811 75.62198
#
# Poissons Ratio (x) = 0.29763 0.27053
# Poissons Ratio (y) = 0.29764 0.27054
# Poissons Ratio (z) = 0.27778 0.27778
#
# Static dielectric constant tensor:
#      x y z
#    x 2.960720 0.000000 0.000000 
#    y 0.000000 2.960720 0.000000 
#    z 0.000000 0.000000 3.793370 
# 
# 
# High freq. dielectric constant tensor:
#      x y z
#    x 1.635180 0.000000 0.000000 
#    y 0.000000 1.635180 0.000000 
#    z 0.000000 0.000000 1.697660 
# 
# From -- ./inp_files/2086.got.cif
#   From: 2010.03.12/outbox.cif.g09.slc.cpg/sg129_2_cif.got.tgz:2086.got - 2010.04.06 17:19:44.
