data_PCOD8314060
_publ_section_title
;
Structure prediction by ZEFSAII (Michael W. Deem and Ramdas Pophale) SiO2 
 PCOD8314060
Probable space group: P 4/M B M
;
_chemical_formula_sum "Si O2"
_cell_formula_units_Z 80
_cell_length_a 19.218105
_cell_length_b 19.218105
_cell_length_c 14.311471
_cell_angle_alpha 90.000000
_cell_angle_beta 90.000000
_cell_angle_gamma 90.000000
_cell_volume 5285.735153
_symmetry_space_group_name_H-M "P 4/M B M"
_symmetry_group_IT_number 127
_symmetry_cell_setting 'tetragonal'
loop_
_space_group_symop_operation_xyz
x,y,z
-y,x,z
-x,-y,z
y,-x,z
1/2+x,1/2-y,-z
1/2-x,1/2+y,-z
1/2+y,1/2+x,-z
1/2-y,1/2-x,-z
-x,-y,-z
y,-x,-z
x,y,-z
-y,x,-z
1/2-x,1/2+y,z
1/2+x,1/2-y,z
1/2-y,1/2-x,z
1/2+y,1/2+x,z
loop_
_atom_site_type_symbol
_atom_site_label
_atom_site_fract_x
_atom_site_fract_y
_atom_site_fract_z
Si Si1 0.846177 0.457830 0.708703
Si Si2 0.202073 0.032754 0.610829
Si Si3 0.916840 0.583161 0.389585
Si Si4 0.378991 0.667394 0.389299
Si Si5 0.696714 0.196714 0.610504
Si Si6 0.113584 0.496709 0.102236
O O1 0.882877 0.382877 0.712904
O O2 0.773960 0.446986 0.657813
O O3 0.895656 0.509212 0.651322
O O4 0.832808 0.488067 0.813598
O O5 0.213180 0.032384 0.500000
O O6 0.146839 0.091381 0.642095
O O7 0.176592 0.957749 0.647834
O O8 0.923306 0.576695 0.500000
O O9 0.859979 0.640022 0.359777
O O10 0.379829 0.673611 0.500000
O O11 0.328222 0.728286 0.348982
O O12 0.702008 0.202008 0.500000
O O13 0.079699 0.420302 0.115246
O O14 0.052410 0.552410 0.108479
O O15 0.150589 0.501171 0.000000
#
# Coordination Sequence:
#
# PCOD8314060 Si02
#       6
#    16  16   8  16   8  16
#     4  11  20  28  41  66  92 117 152 184 220 270
#     4  10  20  32  45  63  87 117 154 193 225 261
#     4  11  19  28  40  58  94 132 150 172 212 264
#     4   9  18  31  45  60  83 118 156 188 221 257
#     4   9  16  29  44  56  82 123 154 173 214 269
#     4   8  14  26  42  59  83 115 148 182 216 257
#
# _framework density 15.135076
#
# number of rings (size 3 to 8) (size 9 to 14) (size 15 to 20)
#    0.000    2.400    3.000    1.500    1.400    2.400 
#    0.000    2.000    0.000    0.000    0.000    1.400 
#    0.000    3.200    0.000    1.800    0.000    0.200 
#
# Total GULP energy -991555.814870 kJ/mol
# GULP energy per Si atom -12394.447686 kJ/mol
# Density = 1.510063 g / cm^3
# Si number density = 15.135076 Si / 1000 Ang^3
#
#
#
# Elastic Constant Matrix: (Units=GPa)
#
#
# Indices 1 2 3 4 5 6 
#
# 1 99.2555 47.5502 22.9490 0.0000 0.0000 0.0000
# 2 47.5502 99.2555 22.9501 0.0000 0.0000 0.0000
# 3 22.9490 22.9501 57.9537 0.0000 0.0000 0.0000
# 4 0.0000 0.0000 0.0000 5.9568 0.0000 0.0000
# 5 0.0000 0.0000 0.0000 0.0000 5.9568 0.0000
# 6 0.0000 0.0000 0.0000 0.0000 0.0000 23.2567
#
#
#
# Elastic Compliance Matrix: (Units=1/GPa)
#
#
# Indices 1 2 3 4 5 6 
#
# 1 0.013557 -0.005783 -0.003078 0.000000 0.000000 0.000000
# 2 -0.005783 0.013557 -0.003079 0.000000 0.000000 0.000000
# 3 -0.003078 -0.003079 0.019693 0.000000 0.000000 0.000000
# 4 0.000000 0.000000 0.000000 0.167875 0.000000 0.000000
# 5 0.000000 0.000000 0.000000 0.000000 0.167875 0.000000
# 6 0.000000 0.000000 0.000000 0.000000 0.000000 0.042998
#
#
# Mechanical properties :
#
#
# Convention : Reuss Voigt Hill
#
# Bulk Modulus (GPa) = 43.61570 49.26260 46.43915
# Shear Modulus (GPa) = 10.93903 17.90175 14.42039
#
# Velocity S-wave (km/s) = 2.69134 3.44292 3.09006
# Velocity P-wave (km/s) = 6.20789 6.95875 6.59402
#
# Compressibility (1/GPa) = 0.02292752
#
# Stress axis : x y z
#
# Youngs Moduli (GPa) = 73.76120 73.76052 50.77847
#
# Poissons Ratio (x) = 0.42656 0.15632
# Poissons Ratio (y) = 0.42657 0.15634
# Poissons Ratio (z) = 0.22707 0.22709
#
# Static dielectric constant tensor:
#      x y z
#    x 3.106680 0.000000 0.000000 
#    y 0.000000 3.106670 0.000000 
#    z 0.000000 0.000000 2.871240 
# 
# 
# High freq. dielectric constant tensor:
#      x y z
#    x 1.568780 0.000000 0.000000 
#    y 0.000000 1.568780 0.000000 
#    z 0.000000 0.000000 1.541340 
# 
# From -- ./inp_files/4270.got.cif
#   From: 2010.03.12/outbox.cif.g09.slc.cpg/sg127_3_cif.got.tgz:4270.got - 2010.04.06 17:03:15.
