data_PCOD8314917
_publ_section_title
;
Structure prediction by ZEFSAII (Michael W. Deem and Ramdas Pophale) SiO2 
 PCOD8314917
Probable space group: P 4/N M M
;
_chemical_formula_sum "Si O2"
_cell_formula_units_Z 112
_cell_length_a 17.820613
_cell_length_b 17.820613
_cell_length_c 22.450921
_cell_angle_alpha 90.000000
_cell_angle_beta 90.000000
_cell_angle_gamma 90.000000
_cell_volume 7129.834347
_symmetry_space_group_name_H-M "P 4/N M M"
_symmetry_group_IT_number 129
_symmetry_cell_setting 'tetragonal'
loop_
_space_group_symop_operation_xyz
x,y,z
1/2-y,x,z
1/2-x,1/2-y,z
y,1/2-x,z
1/2+x,-y,-z
-x,1/2+y,-z
1/2+y,1/2+x,-z
-y,-x,-z
-x,-y,-z
1/2+y,-x,-z
1/2+x,1/2+y,-z
-y,1/2+x,-z
1/2-x,y,z
x,1/2-y,z
1/2-y,1/2-x,z
y,x,z
loop_
_atom_site_type_symbol
_atom_site_label
_atom_site_fract_x
_atom_site_fract_y
_atom_site_fract_z
Si Si1 0.663894 0.334694 0.634512
Si Si2 0.931325 0.451114 0.430854
Si Si3 0.932599 0.056753 0.141352
Si Si4 0.335182 0.047751 0.647185
Si Si5 0.166411 0.577569 0.745895
Si Si6 0.335750 0.043212 0.940091
Si Si7 0.457501 0.164045 0.078724
O O1 0.750000 0.341310 0.617937
O O2 0.633952 0.250000 0.615836
O O3 0.624506 0.405407 0.602300
O O4 0.652112 0.342629 0.705574
O O5 0.932325 0.432325 0.500000
O O6 0.868823 0.512843 0.413603
O O7 0.013370 0.486631 0.412043
O O8 0.894183 0.080973 0.202402
O O9 0.972184 0.129827 0.113981
O O10 0.870509 0.026417 0.095535
O O11 0.993068 0.993068 0.155229
O O12 0.250000 0.066687 0.634688
O O13 0.374936 0.125065 0.664224
O O14 0.348094 0.992437 0.702479
O O15 0.250000 0.572700 0.773660
O O16 0.250000 0.055832 0.920292
O O17 0.380165 0.119836 0.925420
O O18 0.342184 0.022836 0.009280
O O19 0.445170 0.250000 0.098396
O O20 0.381292 0.118709 0.093331
#
# Coordination Sequence:
#
# PCOD8314917 Si02
#       7
#    16  16  16  16  16  16  16
#     4   9  18  31  46  66  91 116 144 182 223 258
#     4   9  17  29  45  65  89 117 146 175 211 256
#     4  10  18  28  45  66  86 113 148 181 215 258
#     4   9  17  29  44  63  89 118 147 179 211 247
#     4   9  17  29  44  62  86 116 146 176 214 257
#     4   9  17  29  45  65  89 115 143 177 216 258
#     4   9  18  31  46  65  87 110 139 178 222 266
#
# _framework density 15.708640000000001
#
# number of rings (size 3 to 8) (size 9 to 14) (size 15 to 20)
#    0.000    2.857    0.000    2.571    0.000    4.429 
#    0.000    2.143    0.000    1.286    0.000    6.000 
#    0.000    0.286    0.000    0.000    0.000   12.143 
#
# Total GULP energy -1387945.874294 kJ/mol
# GULP energy per Si atom -12392.373878 kJ/mol
# Density = 1.567289 g / cm^3
# Si number density = 15.708640 Si / 1000 Ang^3
#
#
#
# Elastic Constant Matrix: (Units=GPa)
#
#
# Indices 1 2 3 4 5 6 
#
# 1 95.8217 50.0483 43.9820 0.0000 0.0000 0.0000
# 2 50.0483 95.8217 43.9820 0.0000 0.0000 0.0000
# 3 43.9820 43.9820 72.9202 0.0000 0.0000 0.0000
# 4 0.0000 0.0000 0.0000 17.4809 0.0000 0.0000
# 5 0.0000 0.0000 0.0000 0.0000 17.4809 0.0000
# 6 0.0000 0.0000 0.0000 0.0000 0.0000 21.1130
#
#
#
# Elastic Compliance Matrix: (Units=1/GPa)
#
#
# Indices 1 2 3 4 5 6 
#
# 1 0.016310 -0.005536 -0.006498 0.000000 0.000000 0.000000
# 2 -0.005536 0.016310 -0.006498 0.000000 0.000000 0.000000
# 3 -0.006498 -0.006498 0.021553 0.000000 0.000000 0.000000
# 4 0.000000 0.000000 0.000000 0.057205 0.000000 0.000000
# 5 0.000000 0.000000 0.000000 0.000000 0.057205 0.000000
# 6 0.000000 0.000000 0.000000 0.000000 0.000000 0.047364
#
#
# Mechanical properties :
#
#
# Convention : Reuss Voigt Hill
#
# Bulk Modulus (GPa) = 58.45479 60.06535 59.26007
# Shear Modulus (GPa) = 19.32613 19.65173 19.48893
#
# Velocity S-wave (km/s) = 3.51135 3.54081 3.52611
# Velocity P-wave (km/s) = 7.33022 7.41866 7.37457
#
# Compressibility (1/GPa) = 0.01710724
#
# Stress axis : x y z
#
# Youngs Moduli (GPa) = 61.31030 61.31030 46.39775
#
# Poissons Ratio (x) = 0.33943 0.30151
# Poissons Ratio (y) = 0.33943 0.30151
# Poissons Ratio (z) = 0.39842 0.39842
#
# Static dielectric constant tensor:
#      x y z
#    x 3.056380 0.000000 0.000000 
#    y 0.000000 3.056380 0.000000 
#    z 0.000000 0.000000 2.862490 
# 
# 
# High freq. dielectric constant tensor:
#      x y z
#    x 1.599960 0.000000 0.000000 
#    y 0.000000 1.599960 0.000000 
#    z 0.000000 0.000000 1.590700 
# 
# From -- ./inp_files/6640.got.cif
#   From: 2010.03.12/outbox.cif.g09.slc.cpg/sg129_4_cif.got.tgz:6640.got - 2010.04.06 17:19:44.
