data_PCOD8314802
_publ_section_title
;
Structure prediction by ZEFSAII (Michael W. Deem and Ramdas Pophale) SiO2 
 PCOD8314802
Probable space group: P 4/M N C
;
_chemical_formula_sum "Si O2"
_cell_formula_units_Z 128
_cell_length_a 16.997861
_cell_length_b 16.997861
_cell_length_c 24.916098
_cell_angle_alpha 90.000000
_cell_angle_beta 90.000000
_cell_angle_gamma 90.000000
_cell_volume 7198.940388
_symmetry_space_group_name_H-M "P 4/M N C"
_symmetry_group_IT_number 128
_symmetry_cell_setting 'tetragonal'
loop_
_space_group_symop_operation_xyz
x,y,z
-y,x,z
-x,-y,z
y,-x,z
1/2+x,1/2-y,1/2-z
1/2-x,1/2+y,1/2-z
1/2+y,1/2+x,1/2-z
1/2-y,1/2-x,1/2-z
-x,-y,-z
y,-x,-z
x,y,-z
-y,x,-z
1/2-x,1/2+y,1/2+z
1/2+x,1/2-y,1/2+z
1/2-y,1/2-x,1/2+z
1/2+y,1/2+x,1/2+z
loop_
_atom_site_type_symbol
_atom_site_label
_atom_site_fract_x
_atom_site_fract_y
_atom_site_fract_z
Si Si1 0.287368 0.475073 0.657603
Si Si2 0.824000 0.410346 0.210729
Si Si3 0.879710 0.038747 0.738459
Si Si4 0.520201 0.371989 0.062498
Si Si5 0.696667 0.159515 0.810319
Si Si6 0.251414 0.640941 0.686935
Si Si7 0.748660 0.053718 0.345723
Si Si8 0.378656 0.456198 0.440989
O O1 0.357273 0.455565 0.699282
O O2 0.205319 0.433441 0.675832
O O3 0.276270 0.568620 0.649201
O O4 0.311412 0.435548 0.601419
O O5 0.903170 0.403170 0.250000
O O6 0.749931 0.395509 0.251722
O O7 0.827653 0.335440 0.170450
O O8 0.813679 0.487061 0.174096
O O9 0.809077 0.067733 0.701915
O O10 0.950163 0.097069 0.724517
O O11 0.588586 0.435567 0.075151
O O12 0.531505 0.294108 0.099236
O O13 0.524158 0.346731 0.000000
O O14 0.666347 0.166347 0.750000
O O15 0.785530 0.190756 0.817158
O O16 0.635316 0.200431 0.851507
O O17 0.453528 0.401807 0.432278
O O18 0.343061 0.442809 0.500000
#
# Coordination Sequence:
#
# PCOD8314802 Si02
#       8
#    16  16  16  16  16  16  16  16
#     4  12  21  34  53  75 109 150 184 228 276 340
#     4   8  18  34  49  72 106 151 177 220 275 325
#     4  11  21  28  46  80 108 133 170 221 278 353
#     4   9  20  37  57  84 118 153 188 236 297 356
#     4  12  22  33  52  81 114 144 187 236 287 341
#     4   9  19  34  52  72 112 151 175 220 288 330
#     4  12  22  33  56  79 110 151 193 231 283 350
#     4   9  18  33  54  79 107 141 177 219 281 345
#
# _framework density 17.780394000000001
#
# number of rings (size 3 to 8) (size 9 to 14) (size 15 to 20)
#    0.750    0.875    3.750    3.750    3.500    2.000 
#    0.000    1.250    2.750    1.500    0.000    0.000 
#    0.000    2.000    0.000    0.000    0.000    0.000 
#
# Total GULP energy -1585721.721689 kJ/mol
# GULP energy per Si atom -12388.450951 kJ/mol
# Density = 1.773992 g / cm^3
# Si number density = 17.780394 Si / 1000 Ang^3
#
#
#
# Elastic Constant Matrix: (Units=GPa)
#
#
# Indices 1 2 3 4 5 6 
#
# 1 61.8219 28.9799 25.5593 0.0000 0.0000 0.0000
# 2 28.9799 61.8219 25.5593 0.0000 0.0000 0.0000
# 3 25.5593 25.5593 84.8030 0.0000 0.0000 0.0000
# 4 0.0000 0.0000 0.0000 22.0190 0.0000 0.0000
# 5 0.0000 0.0000 0.0000 0.0000 22.0190 0.0000
# 6 0.0000 0.0000 0.0000 0.0000 0.0000 10.3575
#
#
#
# Elastic Compliance Matrix: (Units=1/GPa)
#
#
# Indices 1 2 3 4 5 6 
#
# 1 0.021856 -0.008593 -0.003998 0.000000 0.000000 0.000000
# 2 -0.008593 0.021856 -0.003998 0.000000 0.000000 0.000000
# 3 -0.003998 -0.003998 0.014202 0.000000 0.000000 0.000000
# 4 0.000000 0.000000 0.000000 0.045415 0.000000 0.000000
# 5 0.000000 0.000000 0.000000 0.000000 0.045415 0.000000
# 6 0.000000 0.000000 0.000000 0.000000 0.000000 0.096549
#
#
# Mechanical properties :
#
#
# Convention : Reuss Voigt Hill
#
# Bulk Modulus (GPa) = 40.42284 40.96039 40.69162
# Shear Modulus (GPa) = 17.43892 19.43567 18.43729
#
# Velocity S-wave (km/s) = 3.13516 3.30979 3.22366
# Velocity P-wave (km/s) = 5.99079 6.13947 6.06558
#
# Compressibility (1/GPa) = 0.02473849
#
# Stress axis : x y z
#
# Youngs Moduli (GPa) = 45.75366 45.75366 70.41396
#
# Poissons Ratio (x) = 0.39315 0.28148
# Poissons Ratio (y) = 0.39315 0.28148
# Poissons Ratio (z) = 0.18290 0.18290
#
# Static dielectric constant tensor:
#      x y z
#    x 3.293000 0.000000 0.000000 
#    y 0.000000 3.293000 0.000000 
#    z 0.000000 0.000000 3.080740 
# 
# 
# High freq. dielectric constant tensor:
#      x y z
#    x 1.678330 0.000000 0.000000 
#    y 0.000000 1.678330 0.000000 
#    z 0.000000 0.000000 1.654260 
# 
# From -- ./inp_files/6605.got.cif
#   From: 2010.03.12/outbox.cif.g09.slc.cpg/sg128_4_cif.got.tgz:6605.got - 2010.04.06 17:11:05.
