data_PCOD8314174
_publ_section_title
;
Structure prediction by ZEFSAII (Michael W. Deem and Ramdas Pophale) SiO2 
 PCOD8314174
Probable space group: P 4/M B M
;
_chemical_formula_sum "Si O2"
_cell_formula_units_Z 96
_cell_length_a 23.853846
_cell_length_b 23.853846
_cell_length_c 9.067449
_cell_angle_alpha 90.000000
_cell_angle_beta 90.000000
_cell_angle_gamma 90.000000
_cell_volume 5159.432605
_symmetry_space_group_name_H-M "P 4/M B M"
_symmetry_group_IT_number 127
_symmetry_cell_setting 'tetragonal'
loop_
_space_group_symop_operation_xyz
x,y,z
-y,x,z
-x,-y,z
y,-x,z
1/2+x,1/2-y,-z
1/2-x,1/2+y,-z
1/2+y,1/2+x,-z
1/2-y,1/2-x,-z
-x,-y,-z
y,-x,-z
x,y,-z
-y,x,-z
1/2-x,1/2+y,z
1/2+x,1/2-y,z
1/2-y,1/2-x,z
1/2+y,1/2+x,z
loop_
_atom_site_type_symbol
_atom_site_label
_atom_site_fract_x
_atom_site_fract_y
_atom_site_fract_z
Si Si1 0.297484 0.490709 0.669959
Si Si2 0.672046 0.827955 0.825165
Si Si3 0.237582 0.262418 0.824936
Si Si4 0.408627 0.504724 0.167006
Si Si5 0.305218 0.046764 0.825137
Si Si6 0.877606 0.742318 0.330845
Si Si7 0.863138 0.548876 0.328965
O O1 0.287198 0.506112 0.500000
O O2 0.358990 0.509024 0.716868
O O3 0.253868 0.525129 0.766856
O O4 0.290658 0.423881 0.694970
O O5 0.717178 0.782823 0.765339
O O6 0.687113 0.889942 0.767373
O O7 0.672882 0.827119 0.000000
O O8 0.255361 0.323765 0.768338
O O9 0.236440 0.263561 0.000000
O O10 0.442253 0.447839 0.195404
O O11 0.385312 0.505411 0.000000
O O12 0.355823 0.007909 0.764190
O O13 0.306240 0.043543 0.000000
O O14 0.857674 0.739676 0.500000
O O15 0.905316 0.683437 0.283486
O O16 0.855140 0.533406 0.500000
O O17 0.924299 0.575702 0.298012
#
# Coordination Sequence:
#
# PCOD8314174 Si02
#       7
#    16   8   8  16  16  16  16
#     4  10  21  36  55  81 112 144 180 223 276 331
#     4   9  22  41  54  72 109 150 181 223 274 314
#     4  11  21  33  53  78 104 138 183 226 266 320
#     4   9  19  36  56  78 106 141 181 226 274 321
#     4  10  20  37  58  77 103 142 186 224 266 322
#     4   9  18  34  51  74 109 142 168 210 272 323
#     4   9  17  33  56  80 110 139 164 212 277 325
#
# _framework density 18.606697
#
# number of rings (size 3 to 8) (size 9 to 14) (size 15 to 20)
#    0.000    2.500    0.833    2.750    0.000    5.667 
#    0.000   11.250    0.000    2.500    0.000    0.000 
#    0.000    0.000    0.000    0.000    0.000    0.000 
#
# Total GULP energy -1190371.710539 kJ/mol
# GULP energy per Si atom -12399.705318 kJ/mol
# Density = 1.856435 g / cm^3
# Si number density = 18.606697 Si / 1000 Ang^3
#
#
#
# Elastic Constant Matrix: (Units=GPa)
#
#
# Indices 1 2 3 4 5 6 
#
# 1 106.6139 47.1316 41.8002 0.0000 0.0000 0.0000
# 2 47.1316 106.6142 41.8004 0.0000 0.0000 0.0000
# 3 41.8002 41.8004 71.7947 0.0000 0.0000 0.0000
# 4 0.0000 0.0000 0.0000 22.8742 0.0000 0.0000
# 5 0.0000 0.0000 0.0000 0.0000 22.8742 0.0000
# 6 0.0000 0.0000 0.0000 0.0000 0.0000 20.0730
#
#
#
# Elastic Compliance Matrix: (Units=1/GPa)
#
#
# Indices 1 2 3 4 5 6 
#
# 1 0.013165 -0.003647 -0.005541 0.000000 0.000000 0.000000
# 2 -0.003647 0.013164 -0.005541 0.000000 0.000000 0.000000
# 3 -0.005541 -0.005541 0.020381 0.000000 0.000000 0.000000
# 4 0.000000 0.000000 0.000000 0.043717 0.000000 0.000000
# 5 0.000000 0.000000 0.000000 0.000000 0.043717 0.000000
# 6 0.000000 0.000000 0.000000 0.000000 0.000000 0.049818
#
#
# Mechanical properties :
#
#
# Convention : Reuss Voigt Hill
#
# Bulk Modulus (GPa) = 57.96798 60.72082 59.34440
# Shear Modulus (GPa) = 22.81311 23.45032 23.13172
#
# Velocity S-wave (km/s) = 3.50533 3.55394 3.52972
# Velocity P-wave (km/s) = 6.89964 7.03885 6.96959
#
# Compressibility (1/GPa) = 0.01725090
#
# Stress axis : x y z
#
# Youngs Moduli (GPa) = 75.96185 75.96197 49.06540
#
# Poissons Ratio (x) = 0.27705 0.27188
# Poissons Ratio (y) = 0.27705 0.27188
# Poissons Ratio (z) = 0.42092 0.42092
#
# Static dielectric constant tensor:
#      x y z
#    x 3.427940 0.000000 0.000000 
#    y 0.000000 3.427950 0.000000 
#    z 0.000000 0.000000 3.287540 
# 
# 
# High freq. dielectric constant tensor:
#      x y z
#    x 1.717880 0.000000 0.000000 
#    y 0.000000 1.717880 0.000000 
#    z 0.000000 0.000000 1.715370 
# 
# From -- ./inp_files/2082.got.cif
#   From: 2010.03.12/outbox.cif.g09.slc.cpg/sg127_2_cif.got.tgz:2082.got - 2010.04.06 17:03:15.
