data_PCOD8314377
_publ_section_title
;
Structure prediction by ZEFSAII (Michael W. Deem and Ramdas Pophale) SiO2 
 PCOD8314377
Probable space group: P 4/M B M
;
_chemical_formula_sum "Si O2"
_cell_formula_units_Z 104
_cell_length_a 26.748763
_cell_length_b 26.748763
_cell_length_c 8.168068
_cell_angle_alpha 90.000000
_cell_angle_beta 90.000000
_cell_angle_gamma 90.000000
_cell_volume 5844.222612
_symmetry_space_group_name_H-M "P 4/M B M"
_symmetry_group_IT_number 127
_symmetry_cell_setting 'tetragonal'
loop_
_space_group_symop_operation_xyz
x,y,z
-y,x,z
-x,-y,z
y,-x,z
1/2+x,1/2-y,-z
1/2-x,1/2+y,-z
1/2+y,1/2+x,-z
1/2-y,1/2-x,-z
-x,-y,-z
y,-x,-z
x,y,-z
-y,x,-z
1/2-x,1/2+y,z
1/2+x,1/2-y,z
1/2-y,1/2-x,z
1/2+y,1/2+x,z
loop_
_atom_site_type_symbol
_atom_site_label
_atom_site_fract_x
_atom_site_fract_y
_atom_site_fract_z
Si Si1 0.077763 0.499892 0.191694
Si Si2 0.494780 0.291775 0.310538
Si Si3 0.320615 0.610655 0.187027
Si Si4 0.870637 0.077356 0.313062
Si Si5 0.932636 0.045931 0.000000
Si Si6 0.473248 0.183074 0.691263
Si Si7 0.285436 0.134846 0.306552
O O1 0.049863 0.450138 0.261537
O O2 0.136124 0.498818 0.231786
O O3 0.049407 0.549407 0.262780
O O4 0.071823 0.500197 0.000000
O O5 0.479298 0.292344 0.500000
O O6 0.448943 0.318276 0.218180
O O7 0.546975 0.319671 0.277057
O O8 0.500906 0.234235 0.252350
O O9 0.362972 0.637390 0.298564
O O10 0.268446 0.638049 0.222561
O O11 0.336066 0.618940 0.000000
O O12 0.889190 0.064933 0.500000
O O13 0.909528 0.063663 0.171608
O O14 0.986967 0.069173 0.000000
O O15 0.476336 0.175550 0.500000
O O16 0.415560 0.186115 0.749257
O O17 0.277548 0.134377 0.500000
O O18 0.317996 0.182005 0.247818
#
# Coordination Sequence:
#
# PCOD8314377 Si02
#       7
#    16  16  16  16   8  16  16
#     4   9  18  31  45  66 101 141 175 208 256 318
#     4   9  20  36  54  75 101 137 176 213 265 324
#     4  11  21  33  53  80 108 136 175 223 265 319
#     4  11  22  38  58  77 107 147 181 222 274 323
#     4  11  24  38  54  82 111 136 178 223 263 324
#     4   9  17  31  50  75 102 129 172 221 259 308
#     4   9  18  33  52  75 106 140 172 213 269 326
#
# _framework density 17.795352000000001
#
# number of rings (size 3 to 8) (size 9 to 14) (size 15 to 20)
#    0.000    2.231    0.769    4.154    1.077    5.846 
#    0.000    1.538    0.000    0.923    0.000    2.154 
#    0.000    0.000    0.000    0.000    0.000    0.000 
#
# Total GULP energy -1288997.024939 kJ/mol
# GULP energy per Si atom -12394.202163 kJ/mol
# Density = 1.775485 g / cm^3
# Si number density = 17.795352 Si / 1000 Ang^3
#
#
#
# Elastic Constant Matrix: (Units=GPa)
#
#
# Indices 1 2 3 4 5 6 
#
# 1 115.6412 66.9262 30.6962 0.0000 0.0000 0.0000
# 2 66.9262 115.6412 30.6962 0.0000 0.0000 0.0000
# 3 30.6962 30.6962 69.1917 0.0000 0.0000 0.0000
# 4 0.0000 0.0000 0.0000 25.2974 0.0000 0.0000
# 5 0.0000 0.0000 0.0000 0.0000 25.2974 0.0000
# 6 0.0000 0.0000 0.0000 0.0000 0.0000 32.2170
#
#
#
# Elastic Compliance Matrix: (Units=1/GPa)
#
#
# Indices 1 2 3 4 5 6 
#
# 1 0.013483 -0.007045 -0.002856 0.000000 0.000000 0.000000
# 2 -0.007045 0.013483 -0.002856 0.000000 0.000000 0.000000
# 3 -0.002856 -0.002856 0.016987 0.000000 0.000000 0.000000
# 4 0.000000 0.000000 0.000000 0.039530 0.000000 0.000000
# 5 0.000000 0.000000 0.000000 0.000000 0.039530 0.000000
# 6 0.000000 0.000000 0.000000 0.000000 0.000000 0.031040
#
#
# Mechanical properties :
#
#
# Convention : Reuss Voigt Hill
#
# Bulk Modulus (GPa) = 54.23554 61.90127 58.06841
# Shear Modulus (GPa) = 26.92350 28.03938 27.48144
#
# Velocity S-wave (km/s) = 3.89389 3.97376 3.93403
# Velocity P-wave (km/s) = 7.12461 7.47763 7.30325
#
# Compressibility (1/GPa) = 0.01843809
#
# Stress axis : x y z
#
# Youngs Moduli (GPa) = 74.16915 74.16915 58.86945
#
# Poissons Ratio (x) = 0.52251 0.16814
# Poissons Ratio (y) = 0.52251 0.16814
# Poissons Ratio (z) = 0.21183 0.21183
#
# Static dielectric constant tensor:
#      x y z
#    x 3.446520 0.000000 0.000000 
#    y 0.000000 3.446520 0.000000 
#    z 0.000000 0.000000 3.260850 
# 
# 
# High freq. dielectric constant tensor:
#      x y z
#    x 1.678010 0.000000 0.000000 
#    y 0.000000 1.678010 0.000000 
#    z 0.000000 0.000000 1.691350 
# 
# From -- ./inp_files/2309.got.cif
#   From: 2010.03.12/outbox.cif.g09.slc.cpg/sg127_2_cif.got.tgz:2309.got - 2010.04.06 17:03:15.
