data_PCOD8314888
_publ_section_title
;
Structure prediction by ZEFSAII (Michael W. Deem and Ramdas Pophale) SiO2 
 PCOD8314888
Probable space group: P 4/N M M
;
_chemical_formula_sum "Si O2"
_cell_formula_units_Z 96
_cell_length_a 19.130677
_cell_length_b 19.130677
_cell_length_c 20.738343
_cell_angle_alpha 90.000000
_cell_angle_beta 90.000000
_cell_angle_gamma 90.000000
_cell_volume 7589.876890
_symmetry_space_group_name_H-M "P 4/N M M"
_symmetry_group_IT_number 129
_symmetry_cell_setting 'tetragonal'
loop_
_space_group_symop_operation_xyz
x,y,z
1/2-y,x,z
1/2-x,1/2-y,z
y,1/2-x,z
1/2+x,-y,-z
-x,1/2+y,-z
1/2+y,1/2+x,-z
-y,-x,-z
-x,-y,-z
1/2+y,-x,-z
1/2+x,1/2+y,-z
-y,1/2+x,-z
1/2-x,y,z
x,1/2-y,z
1/2-y,1/2-x,z
y,x,z
loop_
_atom_site_type_symbol
_atom_site_label
_atom_site_fract_x
_atom_site_fract_y
_atom_site_fract_z
Si Si1 0.171553 0.833132 0.314920
Si Si2 0.557744 0.671092 0.392847
Si Si3 0.942362 0.670067 0.243101
Si Si4 0.668573 0.406695 0.442562
Si Si5 0.588793 0.166857 0.807360
Si Si6 0.171775 0.666759 0.070888
O O1 0.250000 0.862793 0.317498
O O2 0.171217 0.750000 0.311898
O O3 0.130844 0.858505 0.378058
O O4 0.134319 0.864158 0.251433
O O5 0.584839 0.750000 0.404295
O O6 0.618827 0.618827 0.414774
O O7 0.537639 0.661132 0.318027
O O8 0.489477 0.656414 0.435632
O O9 0.923048 0.750000 0.227422
O O10 0.875849 0.624152 0.223475
O O11 0.008308 0.644092 0.200973
O O12 0.621289 0.378712 0.500000
O O13 0.750000 0.389479 0.455798
O O14 0.593827 0.250000 0.805696
O O15 0.619329 0.137048 0.874649
O O16 0.250000 0.637437 0.083839
O O17 0.174616 0.750000 0.073261
O O18 0.143986 0.643986 0.000000
#
# Coordination Sequence:
#
# PCOD8314888 Si02
#       6
#    16  16  16  16  16  16
#     4   9  15  22  33  49  68  92 121 147 171 201
#     4   9  17  29  42  55  71  90 117 154 191 225
#     4   9  16  26  39  53  69  89 115 149 186 220
#     4  10  18  27  37  52  75 100 123 149 178 212
#     4   9  14  22  35  50  68  91 117 146 177 208
#     4   8  13  20  31  50  74  96 118 144 171 199
#
# _framework density 12.648427
#
# number of rings (size 3 to 8) (size 9 to 14) (size 15 to 20)
#    0.000    3.000    1.667    1.500    0.000    3.500 
#    0.000    1.667    0.000    0.500    0.000    0.000 
#    0.000    0.000    0.000    0.000    0.000    0.000 
#
# Total GULP energy -1189970.727194 kJ/mol
# GULP energy per Si atom -12395.528408 kJ/mol
# Density = 1.261964 g / cm^3
# Si number density = 12.648427 Si / 1000 Ang^3
#
#
#
# Elastic Constant Matrix: (Units=GPa)
#
#
# Indices 1 2 3 4 5 6 
#
# 1 63.4215 41.1698 40.0252 0.0000 0.0000 0.0000
# 2 41.1698 63.4211 40.0246 0.0000 0.0000 0.0000
# 3 40.0252 40.0246 89.6338 0.0000 0.0000 0.0000
# 4 0.0000 0.0000 0.0000 9.7778 0.0000 0.0000
# 5 0.0000 0.0000 0.0000 0.0000 9.7779 0.0000
# 6 0.0000 0.0000 0.0000 0.0000 0.0000 12.1189
#
#
#
# Elastic Compliance Matrix: (Units=1/GPa)
#
#
# Indices 1 2 3 4 5 6 
#
# 1 0.029733 -0.015208 -0.006486 0.000000 0.000000 0.000000
# 2 -0.015208 0.029733 -0.006486 0.000000 0.000000 0.000000
# 3 -0.006486 -0.006486 0.016949 0.000000 0.000000 0.000000
# 4 0.000000 0.000000 0.000000 0.102272 0.000000 0.000000
# 5 0.000000 0.000000 0.000000 0.000000 0.102271 0.000000
# 6 0.000000 0.000000 0.000000 0.000000 0.000000 0.082516
#
#
# Mechanical properties :
#
#
# Convention : Reuss Voigt Hill
#
# Bulk Modulus (GPa) = 49.86230 50.99063 50.42646
# Shear Modulus (GPa) = 11.72280 12.68538 12.20409
#
# Velocity S-wave (km/s) = 3.04767 3.17033 3.10961
# Velocity P-wave (km/s) = 7.20359 7.33503 7.26961
#
# Compressibility (1/GPa) = 0.02005523
#
# Stress axis : x y z
#
# Youngs Moduli (GPa) = 33.63261 33.63266 59.00038
#
# Poissons Ratio (x) = 0.51148 0.38269
# Poissons Ratio (y) = 0.51148 0.38267
# Poissons Ratio (z) = 0.21815 0.21814
#
# Static dielectric constant tensor:
#      x y z
#    x 2.408500 0.000000 0.000000 
#    y 0.000000 2.408510 0.000000 
#    z 0.000000 0.000000 2.678880 
# 
# 
# High freq. dielectric constant tensor:
#      x y z
#    x 1.453490 0.000000 0.000000 
#    y 0.000000 1.453490 0.000000 
#    z 0.000000 0.000000 1.473990 
# 
# From -- ./inp_files/5926.got.cif
#   From: 2010.03.12/outbox.cif.g09.slc.cpg/sg129_3_cif.got.tgz:5926.got - 2010.04.06 17:19:44.
