data_PCOD8314660
_publ_section_title
;
Structure prediction by ZEFSAII (Michael W. Deem and Ramdas Pophale) SiO2 
 PCOD8314660
Probable space group: P 4/M N C
;
_chemical_formula_sum "Si O2"
_cell_formula_units_Z 96
_cell_length_a 23.696582
_cell_length_b 23.696582
_cell_length_c 8.710781
_cell_angle_alpha 90.000000
_cell_angle_beta 90.000000
_cell_angle_gamma 90.000000
_cell_volume 4891.347420
_symmetry_space_group_name_H-M "P 4/M N C"
_symmetry_group_IT_number 128
_symmetry_cell_setting 'tetragonal'
loop_
_space_group_symop_operation_xyz
x,y,z
-y,x,z
-x,-y,z
y,-x,z
1/2+x,1/2-y,1/2-z
1/2-x,1/2+y,1/2-z
1/2+y,1/2+x,1/2-z
1/2-y,1/2-x,1/2-z
-x,-y,-z
y,-x,-z
x,y,-z
-y,x,-z
1/2-x,1/2+y,1/2+z
1/2+x,1/2-y,1/2+z
1/2-y,1/2-x,1/2+z
1/2+y,1/2+x,1/2+z
loop_
_atom_site_type_symbol
_atom_site_label
_atom_site_fract_x
_atom_site_fract_y
_atom_site_fract_z
Si Si1 0.307396 0.276582 0.180286
Si Si2 0.639997 0.222468 0.320547
Si Si3 0.499004 0.915441 0.180759
Si Si4 0.703238 0.012273 0.823020
Si Si5 0.414378 0.533528 0.178152
Si Si6 0.300385 0.575055 0.321958
O O1 0.280040 0.219961 0.250000
O O2 0.277056 0.332211 0.244203
O O3 0.372510 0.280413 0.221760
O O4 0.299521 0.274085 0.000000
O O5 0.665390 0.165390 0.250000
O O6 0.653029 0.223771 0.500000
O O7 0.574502 0.224121 0.281992
O O8 0.552954 0.947047 0.250000
O O9 0.504611 0.849739 0.219334
O O10 0.441259 0.941259 0.250000
O O11 0.498142 0.924419 0.000000
O O12 0.756029 0.973506 0.782723
O O13 0.684764 0.007251 0.000000
O O14 0.428024 0.468549 0.217496
O O15 0.362771 0.554329 0.280525
O O16 0.398459 0.539867 0.000000
O O17 0.299497 0.591836 0.500000
#
# Coordination Sequence:
#
# PCOD8314660 Si02
#       6
#    16  16  16  16  16  16
#     4  11  23  41  63  87 116 156 199 246 298 356
#     4  10  20  37  61  89 119 153 194 243 295 349
#     4  11  22  38  62  88 119 158 199 244 295 352
#     4  10  23  40  58  86 122 156 195 243 294 350
#     4   9  20  40  63  89 122 159 200 249 304 361
#     4  11  24  40  60  89 123 161 203 249 299 357
#
# _framework density 19.626494000000001
#
# number of rings (size 3 to 8) (size 9 to 14) (size 15 to 20)
#    0.000    1.667    0.000    6.500    2.333    5.333 
#    0.000    0.833    0.000    0.000    0.000    0.000 
#    0.000    0.000    0.000    0.000    0.000    0.000 
#
# Total GULP energy -1190874.701912 kJ/mol
# GULP energy per Si atom -12404.944812 kJ/mol
# Density = 1.958182 g / cm^3
# Si number density = 19.626494 Si / 1000 Ang^3
#
#
#
# Elastic Constant Matrix: (Units=GPa)
#
#
# Indices 1 2 3 4 5 6 
#
# 1 150.3633 33.2928 49.6479 0.0000 0.0000 0.0000
# 2 33.2928 150.3701 49.6531 0.0000 0.0000 0.0000
# 3 49.6479 49.6531 118.5333 0.0000 0.0000 0.0000
# 4 0.0000 0.0000 0.0000 31.2187 0.0000 0.0000
# 5 0.0000 0.0000 0.0000 0.0000 31.2183 0.0000
# 6 0.0000 0.0000 0.0000 0.0000 0.0000 20.1511
#
#
#
# Elastic Compliance Matrix: (Units=1/GPa)
#
#
# Indices 1 2 3 4 5 6 
#
# 1 0.007790 -0.000751 -0.002948 0.000000 0.000000 0.000000
# 2 -0.000751 0.007790 -0.002949 0.000000 0.000000 0.000000
# 3 -0.002948 -0.002949 0.010907 0.000000 0.000000 0.000000
# 4 0.000000 0.000000 0.000000 0.032032 0.000000 0.000000
# 5 0.000000 0.000000 0.000000 0.000000 0.032032 0.000000
# 6 0.000000 0.000000 0.000000 0.000000 0.000000 0.049625
#
#
# Mechanical properties :
#
#
# Convention : Reuss Voigt Hill
#
# Bulk Modulus (GPa) = 75.81085 76.05046 75.93066
# Shear Modulus (GPa) = 31.67157 35.62914 33.65036
#
# Velocity S-wave (km/s) = 4.02147 4.26533 4.14519
# Velocity P-wave (km/s) = 7.76360 7.94294 7.85379
#
# Compressibility (1/GPa) = 0.01319072
#
# Stress axis : x y z
#
# Youngs Moduli (GPa) = 128.36316 128.36561 91.68831
#
# Poissons Ratio (x) = 0.09644 0.27033
# Poissons Ratio (y) = 0.09644 0.27035
# Poissons Ratio (z) = 0.37845 0.37850
#
# Static dielectric constant tensor:
#      x y z
#    x 3.575430 0.000000 0.000000 
#    y 0.000000 3.575420 0.000000 
#    z 0.000000 0.000000 3.620700 
# 
# 
# High freq. dielectric constant tensor:
#      x y z
#    x 1.770140 0.000000 0.000000 
#    y 0.000000 1.770140 0.000000 
#    z 0.000000 0.000000 1.773820 
# 
# From -- ./inp_files/1505.got.cif
#   From: 2010.03.12/outbox.cif.g09.slc.cpg/sg128_1_cif.got.tgz:1505.got - 2010.04.06 17:11:05.
