data_PCOD8314378
_publ_section_title
;
Structure prediction by ZEFSAII (Michael W. Deem and Ramdas Pophale) SiO2 
 PCOD8314378
Probable space group: P 4/M B M
;
_chemical_formula_sum "Si O2"
_cell_formula_units_Z 56
_cell_length_a 14.090297
_cell_length_b 14.090297
_cell_length_c 14.029708
_cell_angle_alpha 90.000000
_cell_angle_beta 90.000000
_cell_angle_gamma 90.000000
_cell_volume 2785.408695
_symmetry_space_group_name_H-M "P 4/M B M"
_symmetry_group_IT_number 127
_symmetry_cell_setting 'tetragonal'
loop_
_space_group_symop_operation_xyz
x,y,z
-y,x,z
-x,-y,z
y,-x,z
1/2+x,1/2-y,-z
1/2-x,1/2+y,-z
1/2+y,1/2+x,-z
1/2-y,1/2-x,-z
-x,-y,-z
y,-x,-z
x,y,-z
-y,x,-z
1/2-x,1/2+y,z
1/2+x,1/2-y,z
1/2-y,1/2-x,z
1/2+y,1/2+x,z
loop_
_atom_site_type_symbol
_atom_site_label
_atom_site_fract_x
_atom_site_fract_y
_atom_site_fract_z
Si Si1 0.547536 0.201741 0.765413
Si Si2 0.364133 0.426774 0.890925
Si Si3 0.654710 0.501968 0.610204
Si Si4 0.079219 0.579219 0.892698
O O1 0.614974 0.114974 0.734725
O O2 0.609873 0.279354 0.823838
O O3 0.503583 0.248582 0.670686
O O4 0.462434 0.167953 0.834367
O O5 0.461464 0.374345 0.867063
O O6 0.335540 0.410808 0.000000
O O7 0.591876 0.594491 0.634780
O O8 0.683994 0.502011 0.500000
O O9 0.000000 0.500000 0.903265
O O10 0.111079 0.611079 0.000000
#
# Coordination Sequence:
#
# PCOD8314378 Si02
#       4
#    16  16  16   8
#     4  11  21  34  55  81 113 149 187 229 277 335
#     4   9  18  34  54  75 104 143 186 234 284 331
#     4   9  19  39  64  85 110 146 185 229 286 344
#     4   9  20  38  55  73 109 161 198 221 265 330
#
# _framework density 20.104769000000001
#
# number of rings (size 3 to 8) (size 9 to 14) (size 15 to 20)
#    0.000    2.429    0.000    4.286    0.000    4.571 
#   10.286    0.714    0.000    2.571    0.000    0.000 
#    0.000    0.000    0.000    0.000    0.000    0.000 
#
# Total GULP energy -694309.182829 kJ/mol
# GULP energy per Si atom -12398.378265 kJ/mol
# Density = 2.005901 g / cm^3
# Si number density = 20.104769 Si / 1000 Ang^3
#
#
#
# Elastic Constant Matrix: (Units=GPa)
#
#
# Indices 1 2 3 4 5 6 
#
# 1 79.0802 13.6016 49.1493 0.0000 0.0000 0.0000
# 2 13.6016 79.0802 49.1493 0.0000 0.0000 0.0000
# 3 49.1493 49.1493 120.2922 0.0000 0.0000 0.0000
# 4 0.0000 0.0000 0.0000 37.2070 0.0000 0.0000
# 5 0.0000 0.0000 0.0000 0.0000 37.2070 0.0000
# 6 0.0000 0.0000 0.0000 0.0000 0.0000 18.0310
#
#
#
# Elastic Compliance Matrix: (Units=1/GPa)
#
#
# Indices 1 2 3 4 5 6 
#
# 1 0.017157 0.001884 -0.007780 0.000000 0.000000 0.000000
# 2 0.001884 0.017157 -0.007780 0.000000 0.000000 0.000000
# 3 -0.007780 -0.007780 0.014670 0.000000 0.000000 0.000000
# 4 0.000000 0.000000 0.000000 0.026877 0.000000 0.000000
# 5 0.000000 0.000000 0.000000 0.000000 0.026877 0.000000
# 6 0.000000 0.000000 0.000000 0.000000 0.000000 0.055460
#
#
# Mechanical properties :
#
#
# Convention : Reuss Voigt Hill
#
# Bulk Modulus (GPa) = 46.22547 55.80590 51.01569
# Shear Modulus (GPa) = 25.93923 29.59248 27.76585
#
# Velocity S-wave (km/s) = 3.59584 3.84071 3.72029
# Velocity P-wave (km/s) = 6.34683 6.89100 6.62451
#
# Compressibility (1/GPa) = 0.02163309
#
# Stress axis : x y z
#
# Youngs Moduli (GPa) = 58.28686 58.28686 68.16415
#
# Poissons Ratio (x) = -0.10983 0.53030
# Poissons Ratio (y) = -0.10983 0.53030
# Poissons Ratio (z) = 0.45346 0.45346
#
# Static dielectric constant tensor:
#      x y z
#    x 3.459470 0.000000 0.000000 
#    y 0.000000 3.459470 0.000000 
#    z 0.000000 0.000000 3.704890 
# 
# 
# High freq. dielectric constant tensor:
#      x y z
#    x 1.764850 0.000000 0.000000 
#    y 0.000000 1.764850 0.000000 
#    z 0.000000 0.000000 1.795110 
# 
# From -- ./inp_files/4017.got.cif
#   From: 2010.03.12/outbox.cif.g09.slc.cpg/sg127_3_cif.got.tgz:4017.got - 2010.04.06 17:03:15.
