data_PCOD8314581
_publ_section_title
;
Structure prediction by ZEFSAII (Michael W. Deem and Ramdas Pophale) SiO2 
 PCOD8314581
Probable space group: P 4/M N C
;
_chemical_formula_sum "Si O2"
_cell_formula_units_Z 112
_cell_length_a 15.245118
_cell_length_b 15.245118
_cell_length_c 25.682179
_cell_angle_alpha 90.000000
_cell_angle_beta 90.000000
_cell_angle_gamma 90.000000
_cell_volume 5968.888264
_symmetry_space_group_name_H-M "P 4/M N C"
_symmetry_group_IT_number 128
_symmetry_cell_setting 'tetragonal'
loop_
_space_group_symop_operation_xyz
x,y,z
-y,x,z
-x,-y,z
y,-x,z
1/2+x,1/2-y,1/2-z
1/2-x,1/2+y,1/2-z
1/2+y,1/2+x,1/2-z
1/2-y,1/2-x,1/2-z
-x,-y,-z
y,-x,-z
x,y,-z
-y,x,-z
1/2-x,1/2+y,1/2+z
1/2+x,1/2-y,1/2+z
1/2-y,1/2-x,1/2+z
1/2+y,1/2+x,1/2+z
loop_
_atom_site_type_symbol
_atom_site_label
_atom_site_fract_x
_atom_site_fract_y
_atom_site_fract_z
Si Si1 0.467239 0.808262 0.697529
Si Si2 0.604757 0.286573 0.397100
Si Si3 0.354648 0.143354 0.146767
Si Si4 0.810913 0.768243 0.375827
Si Si5 0.080565 0.764366 0.060423
Si Si6 0.909663 0.104206 0.438824
Si Si7 0.675867 0.047610 0.316023
O O1 0.428886 0.727120 0.662948
O O2 0.568633 0.825168 0.686298
O O3 0.413992 0.897066 0.684682
O O4 0.465689 0.786209 0.758252
O O5 0.680045 0.213787 0.407611
O O6 0.524604 0.270657 0.436288
O O7 0.649951 0.380593 0.409063
O O8 0.299173 0.230741 0.161556
O O9 0.325600 0.114281 0.087941
O O10 0.458498 0.159075 0.152068
O O11 0.821966 0.847033 0.416151
O O12 0.898673 0.753452 0.343359
O O13 0.109058 0.763513 0.000000
O O14 0.905165 0.109748 0.500000
O O15 0.008428 0.121830 0.419656
#
# Coordination Sequence:
#
# PCOD8314581 Si02
#       7
#    16  16  16  16  16  16  16
#     4   9  19  37  57  80 107 140 186 233 274 330
#     4   9  20  36  53  80 110 144 184 236 279 331
#     4  10  20  34  54  83 106 145 177 225 276 332
#     4  10  20  34  52  80 113 138 178 232 277 329
#     4  10  20  36  57  80 111 147 187 233 283 337
#     4   9  18  33  54  77 105 144 184 221 266 326
#     4  10  19  36  57  81 108 144 184 228 272 341
#
# _framework density 18.763964000000001
#
# number of rings (size 3 to 8) (size 9 to 14) (size 15 to 20)
#    0.000    2.429    0.000    2.571    0.000    4.286 
#   18.000    1.429    0.000   12.000    0.000    0.000 
#    0.000    0.000    0.000    0.000    0.000    0.000 
#
# Total GULP energy -1388045.850913 kJ/mol
# GULP energy per Si atom -12393.266526 kJ/mol
# Density = 1.872126 g / cm^3
# Si number density = 18.763964 Si / 1000 Ang^3
#
#
#
# Elastic Constant Matrix: (Units=GPa)
#
#
# Indices 1 2 3 4 5 6 
#
# 1 93.0026 35.4127 46.0547 0.0000 0.0000 0.0000
# 2 35.4127 93.0026 46.0547 0.0000 0.0000 0.0000
# 3 46.0547 46.0547 87.7599 0.0000 0.0000 0.0000
# 4 0.0000 0.0000 0.0000 22.8479 0.0000 0.0000
# 5 0.0000 0.0000 0.0000 0.0000 22.8479 0.0000
# 6 0.0000 0.0000 0.0000 0.0000 0.0000 25.6584
#
#
#
# Elastic Compliance Matrix: (Units=1/GPa)
#
#
# Indices 1 2 3 4 5 6 
#
# 1 0.014926 -0.002438 -0.006553 0.000000 0.000000 0.000000
# 2 -0.002438 0.014926 -0.006553 0.000000 0.000000 0.000000
# 3 -0.006553 -0.006553 0.018273 0.000000 0.000000 0.000000
# 4 0.000000 0.000000 0.000000 0.043768 0.000000 0.000000
# 5 0.000000 0.000000 0.000000 0.000000 0.043768 0.000000
# 6 0.000000 0.000000 0.000000 0.000000 0.000000 0.038974
#
#
# Mechanical properties :
#
#
# Convention : Reuss Voigt Hill
#
# Bulk Modulus (GPa) = 58.70248 58.75659 58.72954
# Shear Modulus (GPa) = 23.65164 24.02039 23.83601
#
# Velocity S-wave (km/s) = 3.55418 3.58178 3.56800
# Velocity P-wave (km/s) = 6.94230 6.96326 6.95279
#
# Compressibility (1/GPa) = 0.01703506
#
# Stress axis : x y z
#
# Youngs Moduli (GPa) = 66.99724 66.99724 54.72594
#
# Poissons Ratio (x) = 0.16335 0.35864
# Poissons Ratio (y) = 0.16335 0.35864
# Poissons Ratio (z) = 0.43906 0.43906
#
# Static dielectric constant tensor:
#      x y z
#    x 3.569940 0.000000 0.000000 
#    y 0.000000 3.569940 0.000000 
#    z 0.000000 0.000000 3.287080 
# 
# 
# High freq. dielectric constant tensor:
#      x y z
#    x 1.731190 0.000000 0.000000 
#    y 0.000000 1.731190 0.000000 
#    z 0.000000 0.000000 1.710640 
# 
# From -- ./inp_files/6482.got.cif
#   From: 2010.03.12/outbox.cif.g09.slc.cpg/sg128_4_cif.got.tgz:6482.got - 2010.04.06 17:11:05.
