data_PCOD8314389
_publ_section_title
;
Structure prediction by ZEFSAII (Michael W. Deem and Ramdas Pophale) SiO2 
 PCOD8314389
Probable space group: P 4/M B M
;
_chemical_formula_sum "Si O2"
_cell_formula_units_Z 88
_cell_length_a 13.304658
_cell_length_b 13.304658
_cell_length_c 26.988948
_cell_angle_alpha 90.000000
_cell_angle_beta 90.000000
_cell_angle_gamma 90.000000
_cell_volume 4777.419604
_symmetry_space_group_name_H-M "P 4/M B M"
_symmetry_group_IT_number 127
_symmetry_cell_setting 'tetragonal'
loop_
_space_group_symop_operation_xyz
x,y,z
-y,x,z
-x,-y,z
y,-x,z
1/2+x,1/2-y,-z
1/2-x,1/2+y,-z
1/2+y,1/2+x,-z
1/2-y,1/2-x,-z
-x,-y,-z
y,-x,-z
x,y,-z
-y,x,-z
1/2-x,1/2+y,z
1/2+x,1/2-y,z
1/2-y,1/2-x,z
1/2+y,1/2+x,z
loop_
_atom_site_type_symbol
_atom_site_label
_atom_site_fract_x
_atom_site_fract_y
_atom_site_fract_z
Si Si1 0.664057 0.478890 0.738173
Si Si2 0.836601 0.495000 0.552392
Si Si3 0.765433 0.901009 0.840541
Si Si4 0.405489 0.743911 0.895915
Si Si5 0.334658 0.995783 0.659048
Si Si6 0.648402 0.574735 0.000000
O O1 0.611584 0.586102 0.730765
O O2 0.711654 0.466871 0.792217
O O3 0.752773 0.472839 0.698837
O O4 0.774158 0.509847 0.500000
O O5 0.883473 0.383473 0.550914
O O6 0.778188 0.509451 0.604794
O O7 0.926032 0.573969 0.553682
O O8 0.673513 0.826487 0.830075
O O9 0.863597 0.841613 0.858870
O O10 0.735045 0.978542 0.883717
O O11 0.346838 0.846838 0.887460
O O12 0.391591 0.710128 0.952224
O O13 0.418733 0.081268 0.657030
O O14 0.389191 0.889191 0.672011
O O15 0.543907 0.632957 0.000000
#
# Coordination Sequence:
#
# PCOD8314389 Si02
#       6
#    16  16  16  16  16   8
#     4  11  23  38  58  79 106 147 190 230 273 327
#     4   7  10  20  42  72 104 138 176 219 270 325
#     4  11  23  40  63  86 111 147 190 231 280 337
#     4  11  23  40  62  88 120 151 184 233 281 325
#     4   9  18  32  52  81 114 143 177 228 282 331
#     4  11  21  36  64  91 116 154 194 233 272 324
#
# _framework density 18.419986999999999
#
# number of rings (size 3 to 8) (size 9 to 14) (size 15 to 20)
#    0.000    2.091    3.636    2.455    0.000    2.909 
#    0.000    0.455    0.000    2.182    0.000    6.364 
#    0.000    0.000    0.000    0.000    0.000    0.000 
#
# Total GULP energy -1090411.615912 kJ/mol
# GULP energy per Si atom -12391.041090 kJ/mol
# Density = 1.837806 g / cm^3
# Si number density = 18.419987 Si / 1000 Ang^3
#
#
#
# Elastic Constant Matrix: (Units=GPa)
#
#
# Indices 1 2 3 4 5 6 
#
# 1 67.8579 18.7729 34.6599 0.0000 0.0000 0.0000
# 2 18.7729 67.8579 34.6599 0.0000 0.0000 0.0000
# 3 34.6599 34.6599 138.3516 0.0000 0.0000 0.0000
# 4 0.0000 0.0000 0.0000 6.9125 0.0000 0.0000
# 5 0.0000 0.0000 0.0000 0.0000 6.9125 0.0000
# 6 0.0000 0.0000 0.0000 0.0000 0.0000 6.4650
#
#
#
# Elastic Compliance Matrix: (Units=1/GPa)
#
#
# Indices 1 2 3 4 5 6 
#
# 1 0.017405 -0.002968 -0.003617 0.000000 0.000000 0.000000
# 2 -0.002968 0.017405 -0.003617 0.000000 0.000000 0.000000
# 3 -0.003617 -0.003617 0.009040 0.000000 0.000000 0.000000
# 4 0.000000 0.000000 0.000000 0.144664 0.000000 0.000000
# 5 0.000000 0.000000 0.000000 0.000000 0.144664 0.000000
# 6 0.000000 0.000000 0.000000 0.000000 0.000000 0.154680
#
#
# Mechanical properties :
#
#
# Convention : Reuss Voigt Hill
#
# Bulk Modulus (GPa) = 42.64854 50.02807 46.33830
# Shear Modulus (GPa) = 9.68846 16.45632 13.07239
#
# Velocity S-wave (km/s) = 2.29590 2.99221 2.66688
# Velocity P-wave (km/s) = 5.49835 6.25751 5.89017
#
# Compressibility (1/GPa) = 0.02344746
#
# Stress axis : x y z
#
# Youngs Moduli (GPa) = 57.45443 57.45443 110.61761
#
# Poissons Ratio (x) = 0.17051 0.40009
# Poissons Ratio (y) = 0.17051 0.40009
# Poissons Ratio (z) = 0.20780 0.20780
#
# Static dielectric constant tensor:
#      x y z
#    x 3.125520 0.000000 0.000000 
#    y 0.000000 3.125520 0.000000 
#    z 0.000000 0.000000 3.865350 
# 
# 
# High freq. dielectric constant tensor:
#      x y z
#    x 1.688720 0.000000 0.000000 
#    y 0.000000 1.688720 0.000000 
#    z 0.000000 0.000000 1.737970 
# 
# From -- ./inp_files/6505.got.cif
#   From: 2010.03.12/outbox.cif.g09.slc.cpg/sg127_4_cif.got.tgz:6505.got - 2010.04.06 17:03:15.
