data_PCOD8314469
_publ_section_title
;
Structure prediction by ZEFSAII (Michael W. Deem and Ramdas Pophale) SiO2 
 PCOD8314469
Probable space group: P 4/M B M
;
_chemical_formula_sum "Si O2"
_cell_formula_units_Z 64
_cell_length_a 24.204422
_cell_length_b 24.204422
_cell_length_c 7.602769
_cell_angle_alpha 90.000000
_cell_angle_beta 90.000000
_cell_angle_gamma 90.000000
_cell_volume 4454.112967
_symmetry_space_group_name_H-M "P 4/M B M"
_symmetry_group_IT_number 127
_symmetry_cell_setting 'tetragonal'
loop_
_space_group_symop_operation_xyz
x,y,z
-y,x,z
-x,-y,z
y,-x,z
1/2+x,1/2-y,-z
1/2-x,1/2+y,-z
1/2+y,1/2+x,-z
1/2-y,1/2-x,-z
-x,-y,-z
y,-x,-z
x,y,-z
-y,x,-z
1/2-x,1/2+y,z
1/2+x,1/2-y,z
1/2-y,1/2-x,z
1/2+y,1/2+x,z
loop_
_atom_site_type_symbol
_atom_site_label
_atom_site_fract_x
_atom_site_fract_y
_atom_site_fract_z
Si Si1 0.858998 0.733822 0.194697
Si Si2 0.442077 0.855944 0.208157
Si Si3 0.433893 0.157289 0.796915
Si Si4 0.695606 0.289130 0.500000
Si Si5 0.124411 0.716519 0.500000
O O1 0.810552 0.689449 0.184686
O O2 0.913811 0.702100 0.264529
O O3 0.842857 0.782849 0.327655
O O4 0.868519 0.759447 0.000000
O O5 0.407914 0.907914 0.289159
O O6 0.505091 0.857765 0.272821
O O7 0.439606 0.860397 0.000000
O O8 0.397424 0.102577 0.771457
O O9 0.411240 0.207219 0.676916
O O10 0.433617 0.177101 0.000000
O O11 0.742386 0.242386 0.500000
O O12 0.721737 0.350504 0.500000
O O13 0.174835 0.674835 0.500000
#
# Coordination Sequence:
#
# PCOD8314469 Si02
#       5
#    16  16  16   8   8
#     4   8  14  24  37  54  73  89 111 149 192 227
#     4   8  14  25  40  57  76  97 125 161 193 222
#     4   9  17  28  40  53  73 103 132 157 188 219
#     4   9  16  25  38  53  67  88 118 152 193 231
#     4   9  18  29  37  50  71  92 125 165 187 217
#
# _framework density 14.368743
#
# number of rings (size 3 to 8) (size 9 to 14) (size 15 to 20)
#    0.000    3.500    0.000    1.500    0.000    2.500 
#    0.000    9.375    0.000    2.250    0.000    0.000 
#    0.000    0.000    0.000    0.000    0.000   10.000 
#
# Total GULP energy -793075.686774 kJ/mol
# GULP energy per Si atom -12391.807606 kJ/mol
# Density = 1.433604 g / cm^3
# Si number density = 14.368743 Si / 1000 Ang^3
#
#
#
# Elastic Constant Matrix: (Units=GPa)
#
#
# Indices 1 2 3 4 5 6 
#
# 1 59.4054 57.3352 39.2484 0.0000 0.0000 0.0000
# 2 57.3352 59.4054 39.2484 0.0000 0.0000 0.0000
# 3 39.2484 39.2484 81.1444 0.0000 0.0000 0.0000
# 4 0.0000 0.0000 0.0000 15.2861 0.0000 0.0000
# 5 0.0000 0.0000 0.0000 0.0000 15.2861 0.0000
# 6 0.0000 0.0000 0.0000 0.0000 0.0000 17.8528
#
#
#
# Elastic Compliance Matrix: (Units=1/GPa)
#
#
# Indices 1 2 3 4 5 6 
#
# 1 0.247867 -0.235173 -0.006140 0.000000 0.000000 0.000000
# 2 -0.235173 0.247867 -0.006140 0.000000 0.000000 0.000000
# 3 -0.006140 -0.006140 0.018264 0.000000 0.000000 0.000000
# 4 0.000000 0.000000 0.000000 0.065419 0.000000 0.000000
# 5 0.000000 0.000000 0.000000 0.000000 0.065419 0.000000
# 6 0.000000 0.000000 0.000000 0.000000 0.000000 0.056014
#
#
# Mechanical properties :
#
#
# Convention : Reuss Voigt Hill
#
# Bulk Modulus (GPa) = 52.37785 52.40214 52.39000
# Shear Modulus (GPa) = 4.15932 13.95990 9.05961
#
# Velocity S-wave (km/s) = 1.70323 3.12035 2.51372
# Velocity P-wave (km/s) = 6.35608 7.03781 6.70561
#
# Compressibility (1/GPa) = 0.01909204
#
# Stress axis : x y z
#
# Youngs Moduli (GPa) = 4.03442 4.03442 54.75367
#
# Poissons Ratio (x) = 0.94878 0.33620
# Poissons Ratio (y) = 0.94878 0.33620
# Poissons Ratio (z) = 0.02477 0.02477
#
# Static dielectric constant tensor:
#      x y z
#    x 2.786790 0.000000 0.000000 
#    y 0.000000 2.786790 0.000000 
#    z 0.000000 0.000000 2.991890 
# 
# 
# High freq. dielectric constant tensor:
#      x y z
#    x 1.510750 0.000000 0.000000 
#    y 0.000000 1.510750 0.000000 
#    z 0.000000 0.000000 1.558400 
# 
# From -- ./inp_files/1397.got.cif
#   From: 2010.03.12/outbox.cif.g09.slc.cpg/sg127_1_cif.got.tgz:1397.got - 2010.04.06 17:03:15.
