data_PCOD8314827
_publ_section_title
;
Structure prediction by ZEFSAII (Michael W. Deem and Ramdas Pophale) SiO2 
 PCOD8314827
Probable space group: P 4/M N C
;
_chemical_formula_sum "Si O2"
_cell_formula_units_Z 88
_cell_length_a 14.183644
_cell_length_b 14.183644
_cell_length_c 19.886503
_cell_angle_alpha 90.000000
_cell_angle_beta 90.000000
_cell_angle_gamma 90.000000
_cell_volume 4000.682297
_symmetry_space_group_name_H-M "P 4/M N C"
_symmetry_group_IT_number 128
_symmetry_cell_setting 'tetragonal'
loop_
_space_group_symop_operation_xyz
x,y,z
-y,x,z
-x,-y,z
y,-x,z
1/2+x,1/2-y,1/2-z
1/2-x,1/2+y,1/2-z
1/2+y,1/2+x,1/2-z
1/2-y,1/2-x,1/2-z
-x,-y,-z
y,-x,-z
x,y,-z
-y,x,-z
1/2-x,1/2+y,1/2+z
1/2+x,1/2-y,1/2+z
1/2-y,1/2-x,1/2+z
1/2+y,1/2+x,1/2+z
loop_
_atom_site_type_symbol
_atom_site_label
_atom_site_fract_x
_atom_site_fract_y
_atom_site_fract_z
Si Si1 0.231783 0.904638 0.868366
Si Si2 0.873350 0.089438 0.000000
Si Si3 0.408488 0.211472 0.842405
Si Si4 0.880334 0.907297 0.422277
Si Si5 0.096295 0.442402 0.079599
Si Si6 0.598634 0.735603 0.307316
O O1 0.344227 0.904296 0.879234
O O2 0.190235 0.833228 0.811688
O O3 0.196769 0.009288 0.848339
O O4 0.181014 0.870990 0.935927
O O5 0.977090 0.130798 0.000000
O O6 0.355952 0.298166 0.880689
O O7 0.498427 0.179862 0.886229
O O8 0.435903 0.249399 0.768914
O O9 0.336663 0.125234 0.838201
O O10 0.861667 0.890286 0.500000
O O11 0.982582 0.870542 0.402447
O O12 0.000000 0.500000 0.089322
O O13 0.116573 0.425878 0.000000
#
# Coordination Sequence:
#
# PCOD8314827 Si02
#       6
#    16   8  16  16  16  16
#     4  12  24  47  70 105 137 185 237 295 356 429
#     4  11  22  42  73 102 142 182 234 301 364 413
#     4  11  25  46  62 102 136 183 232 286 354 428
#     4   9  20  40  65  94 128 172 227 287 350 412
#     4  11  24  44  75 106 140 185 233 291 363 430
#     4  11  28  43  68  97 142 183 239 291 356 430
#
# _framework density 21.996248999999999
#
# number of rings (size 3 to 8) (size 9 to 14) (size 15 to 20)
#    0.000    1.182    4.545    1.091    5.091    2.545 
#    4.909    0.000    0.000    0.000    0.000    0.000 
#    0.000    0.000    0.000    0.000    0.000    0.000 
#
# Total GULP energy -1090989.674599 kJ/mol
# GULP energy per Si atom -12397.609939 kJ/mol
# Density = 2.194618 g / cm^3
# Si number density = 21.996249 Si / 1000 Ang^3
#
#
#
# Elastic Constant Matrix: (Units=GPa)
#
#
# Indices 1 2 3 4 5 6 
#
# 1 84.4660 8.7622 35.0025 0.0000 0.0000 0.0000
# 2 8.7622 84.4660 35.0025 0.0000 0.0000 0.0000
# 3 35.0025 35.0025 82.8258 0.0000 0.0000 0.0000
# 4 0.0000 0.0000 0.0000 29.1746 0.0000 0.0000
# 5 0.0000 0.0000 0.0000 0.0000 29.1746 0.0000
# 6 0.0000 0.0000 0.0000 0.0000 0.0000 27.0378
#
#
#
# Elastic Compliance Matrix: (Units=1/GPa)
#
#
# Indices 1 2 3 4 5 6 
#
# 1 0.014461 0.001252 -0.006640 0.000000 0.000000 0.000000
# 2 0.001252 0.014461 -0.006640 0.000000 0.000000 0.000000
# 3 -0.006640 -0.006640 0.017686 0.000000 0.000000 0.000000
# 4 0.000000 0.000000 0.000000 0.034276 0.000000 0.000000
# 5 0.000000 0.000000 0.000000 0.000000 0.034276 0.000000
# 6 0.000000 0.000000 0.000000 0.000000 0.000000 0.036985
#
#
# Mechanical properties :
#
#
# Convention : Reuss Voigt Hill
#
# Bulk Modulus (GPa) = 44.34558 45.47691 44.91124
# Shear Modulus (GPa) = 27.21536 28.61012 27.91274
#
# Velocity S-wave (km/s) = 3.52130 3.61041 3.56614
# Velocity P-wave (km/s) = 6.06111 6.17250 6.11706
#
# Compressibility (1/GPa) = 0.02255016
#
# Stress axis : x y z
#
# Youngs Moduli (GPa) = 69.15191 69.15191 56.54240
#
# Poissons Ratio (x) = -0.08655 0.37545
# Poissons Ratio (y) = -0.08655 0.37545
# Poissons Ratio (z) = 0.45918 0.45918
#
# Static dielectric constant tensor:
#      x y z
#    x 3.855240 0.000000 0.000000 
#    y 0.000000 3.855240 0.000000 
#    z 0.000000 0.000000 3.914730 
# 
# 
# High freq. dielectric constant tensor:
#      x y z
#    x 1.867060 0.000000 0.000000 
#    y 0.000000 1.867060 0.000000 
#    z 0.000000 0.000000 1.866250 
# 
# From -- ./inp_files/5636.got.cif
#   From: 2010.03.12/outbox.cif.g09.slc.cpg/sg128_3_cif.got.tgz:5636.got - 2010.04.06 17:11:05.
