data_PCOD8314576
_publ_section_title
;
Structure prediction by ZEFSAII (Michael W. Deem and Ramdas Pophale) SiO2 
 PCOD8314576
Probable space group: P 4/M N C
;
_chemical_formula_sum "Si O2"
_cell_formula_units_Z 96
_cell_length_a 23.565491
_cell_length_b 23.565491
_cell_length_c 9.099778
_cell_angle_alpha 90.000000
_cell_angle_beta 90.000000
_cell_angle_gamma 90.000000
_cell_volume 5053.401247
_symmetry_space_group_name_H-M "P 4/M N C"
_symmetry_group_IT_number 128
_symmetry_cell_setting 'tetragonal'
loop_
_space_group_symop_operation_xyz
x,y,z
-y,x,z
-x,-y,z
y,-x,z
1/2+x,1/2-y,1/2-z
1/2-x,1/2+y,1/2-z
1/2+y,1/2+x,1/2-z
1/2-y,1/2-x,1/2-z
-x,-y,-z
y,-x,-z
x,y,-z
-y,x,-z
1/2-x,1/2+y,1/2+z
1/2+x,1/2-y,1/2+z
1/2-y,1/2-x,1/2+z
1/2+y,1/2+x,1/2+z
loop_
_atom_site_type_symbol
_atom_site_label
_atom_site_fract_x
_atom_site_fract_y
_atom_site_fract_z
Si Si1 0.095599 0.111854 0.327283
Si Si2 0.701151 0.660809 0.669372
Si Si3 0.222247 0.640377 0.325811
Si Si4 0.512682 0.768742 0.664972
Si Si5 0.009890 0.860466 0.165608
Si Si6 0.817578 0.603215 0.329385
O O1 0.095589 0.102005 0.500000
O O2 0.116337 0.173980 0.282761
O O3 0.032798 0.101664 0.262476
O O4 0.138572 0.070150 0.245237
O O5 0.683191 0.647799 0.500000
O O6 0.679517 0.723441 0.715083
O O7 0.768009 0.650455 0.691351
O O8 0.167395 0.667395 0.250000
O O9 0.214519 0.639736 0.500000
O O10 0.226334 0.575495 0.261617
O O11 0.520093 0.790919 0.500000
O O12 0.490561 0.704403 0.663946
O O13 0.459768 0.803122 0.737962
O O14 0.013735 0.884707 0.000000
O O15 0.873697 0.626304 0.250000
O O16 0.831079 0.596069 0.500000
#
# Coordination Sequence:
#
# PCOD8314576 Si02
#       6
#    16  16  16  16  16  16
#     4  12  24  36  54  86 118 142 186 250 292 317
#     4  10  19  35  58  81 111 154 193 219 272 352
#     4  10  20  35  56  85 114 146 187 232 278 334
#     4   9  18  35  60  81 106 145 192 230 266 337
#     4  11  21  40  62  77 104 156 202 228 276 344
#     4  10  20  35  56  85 114 146 187 232 278 334
#
# _framework density 18.997107
#
# number of rings (size 3 to 8) (size 9 to 14) (size 15 to 20)
#    0.000    1.667    3.333    2.500    0.000    1.667 
#    0.000    2.500    0.000    0.500    0.000    3.500 
#    0.000    0.000    0.000    0.000    0.000    0.000 
#
# Total GULP energy -1189729.855509 kJ/mol
# GULP energy per Si atom -12393.019328 kJ/mol
# Density = 1.895387 g / cm^3
# Si number density = 18.997107 Si / 1000 Ang^3
#
#
#
# Elastic Constant Matrix: (Units=GPa)
#
#
# Indices 1 2 3 4 5 6 
#
# 1 81.2804 37.8633 23.8914 0.0000 0.0000 0.0000
# 2 37.8633 81.2826 23.8928 0.0000 0.0000 0.0000
# 3 23.8914 23.8928 76.2723 0.0000 0.0000 0.0000
# 4 0.0000 0.0000 0.0000 26.4907 0.0000 0.0000
# 5 0.0000 0.0000 0.0000 0.0000 26.4904 0.0000
# 6 0.0000 0.0000 0.0000 0.0000 0.0000 30.6561
#
#
#
# Elastic Compliance Matrix: (Units=1/GPa)
#
#
# Indices 1 2 3 4 5 6 
#
# 1 0.016316 -0.006716 -0.003007 0.000000 0.000000 0.000000
# 2 -0.006716 0.016315 -0.003007 0.000000 0.000000 0.000000
# 3 -0.003007 -0.003007 0.014995 0.000000 0.000000 0.000000
# 4 0.000000 0.000000 0.000000 0.037749 0.000000 0.000000
# 5 0.000000 0.000000 0.000000 0.000000 0.037750 0.000000
# 6 0.000000 0.000000 0.000000 0.000000 0.000000 0.032620
#
#
# Mechanical properties :
#
#
# Convention : Reuss Voigt Hill
#
# Bulk Modulus (GPa) = 45.11548 45.57004 45.34276
# Shear Modulus (GPa) = 26.51214 26.93997 26.72605
#
# Velocity S-wave (km/s) = 3.73981 3.76986 3.75487
# Velocity P-wave (km/s) = 6.51524 6.55661 6.53596
#
# Compressibility (1/GPa) = 0.02216534
#
# Stress axis : x y z
#
# Youngs Moduli (GPa) = 61.29113 61.29213 66.69018
#
# Poissons Ratio (x) = 0.41166 0.20052
# Poissons Ratio (y) = 0.41165 0.20054
# Poissons Ratio (z) = 0.18428 0.18431
#
# Static dielectric constant tensor:
#      x y z
#    x 3.449030 0.000000 0.000000 
#    y 0.000000 3.449030 0.000000 
#    z 0.000000 0.000000 3.209290 
# 
# 
# High freq. dielectric constant tensor:
#      x y z
#    x 1.728500 0.000000 0.000000 
#    y 0.000000 1.728500 0.000000 
#    z 0.000000 0.000000 1.713420 
# 
# From -- ./inp_files/1424.got.cif
#   From: 2010.03.12/outbox.cif.g09.slc.cpg/sg128_1_cif.got.tgz:1424.got - 2010.04.06 17:11:05.
