data_PCOD8314669
_publ_section_title
;
Structure prediction by ZEFSAII (Michael W. Deem and Ramdas Pophale) SiO2 
 PCOD8314669
Probable space group: P 4/M N C
;
_chemical_formula_sum "Si O2"
_cell_formula_units_Z 112
_cell_length_a 14.846409
_cell_length_b 14.846409
_cell_length_c 23.914471
_cell_angle_alpha 90.000000
_cell_angle_beta 90.000000
_cell_angle_gamma 90.000000
_cell_volume 5271.128697
_symmetry_space_group_name_H-M "P 4/M N C"
_symmetry_group_IT_number 128
_symmetry_cell_setting 'tetragonal'
loop_
_space_group_symop_operation_xyz
x,y,z
-y,x,z
-x,-y,z
y,-x,z
1/2+x,1/2-y,1/2-z
1/2-x,1/2+y,1/2-z
1/2+y,1/2+x,1/2-z
1/2-y,1/2-x,1/2-z
-x,-y,-z
y,-x,-z
x,y,-z
-y,x,-z
1/2-x,1/2+y,1/2+z
1/2+x,1/2-y,1/2+z
1/2-y,1/2-x,1/2+z
1/2+y,1/2+x,1/2+z
loop_
_atom_site_type_symbol
_atom_site_label
_atom_site_fract_x
_atom_site_fract_y
_atom_site_fract_z
Si Si1 0.590899 0.817456 0.202315
Si Si2 0.137410 0.057167 0.231258
Si Si3 0.626818 0.963016 0.063177
Si Si4 0.196510 0.261737 0.435093
Si Si5 0.107419 0.088545 0.565883
Si Si6 0.862622 0.238586 0.131091
Si Si7 0.033736 0.369982 0.606190
O O1 0.606645 0.893356 0.250000
O O2 0.583259 0.715777 0.225571
O O3 0.680244 0.820002 0.165698
O O4 0.500564 0.844341 0.168389
O O5 0.169115 0.080539 0.168190
O O6 0.048075 0.116618 0.240366
O O7 0.723931 0.928391 0.082732
O O8 0.552611 0.883114 0.065514
O O9 0.593701 0.038841 0.106912
O O10 0.634384 0.000686 0.000000
O O11 0.217194 0.278853 0.500000
O O12 0.190461 0.154787 0.419622
O O13 0.276493 0.308198 0.399405
O O14 0.097219 0.294824 0.419770
O O15 0.094754 0.086581 0.500000
O O16 0.011121 0.125442 0.590528
#
# Coordination Sequence:
#
# PCOD8314669 Si02
#       7
#    16  16  16  16  16  16  16
#     4   9  21  43  64  95 127 154 208 270 331 395
#     4  10  23  45  70  90 118 164 216 271 335 385
#     4  10  20  39  61  89 134 176 209 255 316 386
#     4  11  22  34  57  93 129 169 214 257 314 384
#     4   8  16  30  46  70 112 166 210 244 291 364
#     4  10  23  39  63  92 128 164 214 267 318 379
#     4  10  21  36  62  92 124 164 211 259 324 390
#
# _framework density 21.247823
#
# number of rings (size 3 to 8) (size 9 to 14) (size 15 to 20)
#    0.000    2.286    0.000    2.571    8.000    0.000 
#    0.000   12.143    0.000    0.000    0.000    4.000 
#    0.000    0.000    0.000    0.000    0.000    0.000 
#
# Total GULP energy -1387799.897721 kJ/mol
# GULP energy per Si atom -12391.070515 kJ/mol
# Density = 2.119946 g / cm^3
# Si number density = 21.247823 Si / 1000 Ang^3
#
#
#
# Elastic Constant Matrix: (Units=GPa)
#
#
# Indices 1 2 3 4 5 6 
#
# 1 79.3075 35.7637 38.4259 0.0000 0.0000 0.0000
# 2 35.7637 79.3067 38.4256 0.0000 0.0000 0.0000
# 3 38.4259 38.4256 103.1225 0.0000 0.0000 0.0000
# 4 0.0000 0.0000 0.0000 29.7465 0.0000 0.0000
# 5 0.0000 0.0000 0.0000 0.0000 29.7466 0.0000
# 6 0.0000 0.0000 0.0000 0.0000 0.0000 24.2324
#
#
#
# Elastic Compliance Matrix: (Units=1/GPa)
#
#
# Indices 1 2 3 4 5 6 
#
# 1 0.017267 -0.005698 -0.004311 0.000000 0.000000 0.000000
# 2 -0.005698 0.017268 -0.004311 0.000000 0.000000 0.000000
# 3 -0.004311 -0.004311 0.012910 0.000000 0.000000 0.000000
# 4 0.000000 0.000000 0.000000 0.033617 0.000000 0.000000
# 5 0.000000 0.000000 0.000000 0.000000 0.033617 0.000000
# 6 0.000000 0.000000 0.000000 0.000000 0.000000 0.041267
#
#
# Mechanical properties :
#
#
# Convention : Reuss Voigt Hill
#
# Bulk Modulus (GPa) = 53.17800 54.10746 53.64273
# Shear Modulus (GPa) = 26.19784 26.68653 26.44219
#
# Velocity S-wave (km/s) = 3.51517 3.54781 3.53153
# Velocity P-wave (km/s) = 6.44648 6.50406 6.47533
#
# Compressibility (1/GPa) = 0.01880477
#
# Stress axis : x y z
#
# Youngs Moduli (GPa) = 57.91240 57.91183 77.45935
#
# Poissons Ratio (x) = 0.32998 0.33393
# Poissons Ratio (y) = 0.32999 0.33393
# Poissons Ratio (z) = 0.24966 0.24966
#
# Static dielectric constant tensor:
#      x y z
#    x 3.865840 0.000000 0.000000 
#    y 0.000000 3.865840 0.000000 
#    z 0.000000 0.000000 3.825410 
# 
# 
# High freq. dielectric constant tensor:
#      x y z
#    x 1.827520 0.000000 0.000000 
#    y 0.000000 1.827520 0.000000 
#    z 0.000000 0.000000 1.819220 
# 
# From -- ./inp_files/6481.got.cif
#   From: 2010.03.12/outbox.cif.g09.slc.cpg/sg128_4_cif.got.tgz:6481.got - 2010.04.06 17:11:05.
