data_PCOD8314821
_publ_section_title
;
Structure prediction by ZEFSAII (Michael W. Deem and Ramdas Pophale) SiO2 
 PCOD8314821
Probable space group: P 4/M N C
;
_chemical_formula_sum "Si O2"
_cell_formula_units_Z 80
_cell_length_a 11.103513
_cell_length_b 11.103513
_cell_length_c 32.713240
_cell_angle_alpha 90.000000
_cell_angle_beta 90.000000
_cell_angle_gamma 90.000000
_cell_volume 4033.149964
_symmetry_space_group_name_H-M "P 4/M N C"
_symmetry_group_IT_number 128
_symmetry_cell_setting 'tetragonal'
loop_
_space_group_symop_operation_xyz
x,y,z
-y,x,z
-x,-y,z
y,-x,z
1/2+x,1/2-y,1/2-z
1/2-x,1/2+y,1/2-z
1/2+y,1/2+x,1/2-z
1/2-y,1/2-x,1/2-z
-x,-y,-z
y,-x,-z
x,y,-z
-y,x,-z
1/2-x,1/2+y,1/2+z
1/2+x,1/2-y,1/2+z
1/2-y,1/2-x,1/2+z
1/2+y,1/2+x,1/2+z
loop_
_atom_site_type_symbol
_atom_site_label
_atom_site_fract_x
_atom_site_fract_y
_atom_site_fract_z
Si Si1 0.806144 0.974806 0.658240
Si Si2 0.304651 0.995496 0.746437
Si Si3 0.683878 0.431858 0.452592
Si Si4 0.390953 0.081124 0.109654
Si Si5 0.807343 0.992859 0.168871
O O1 0.763160 0.977429 0.704735
O O2 0.866326 0.102674 0.649838
O O3 0.700194 0.953617 0.626424
O O4 0.361051 0.861051 0.750000
O O5 0.208924 0.010710 0.782561
O O6 0.409966 0.090035 0.750000
O O7 0.652131 0.570031 0.441663
O O8 0.716346 0.419088 0.500000
O O9 0.799271 0.389271 0.426986
O O10 0.500000 0.000000 0.092982
O O11 0.320833 0.012075 0.146199
O O12 0.876770 0.114159 0.155719
#
# Coordination Sequence:
#
# PCOD8314821 Si02
#       5
#    16  16  16  16  16
#     4  11  26  43  59  83 123 173 214 252 308 372
#     4  11  22  37  59  85 115 158 213 265 315 365
#     4   9  20  42  71 101 131 160 194 250 320 376
#     4  12  25  37  65  94 126 162 203 253 307 374
#     4  11  24  39  60  89 118 156 211 271 323 360
#
# _framework density 19.835612999999999
#
# number of rings (size 3 to 8) (size 9 to 14) (size 15 to 20)
#    0.000    1.200    2.000    4.200    8.400    5.200 
#    0.000    0.000    0.000    0.000    0.000    1.400 
#    0.000    0.000    0.000    0.000    0.000    0.000 
#
# Total GULP energy -992242.286226 kJ/mol
# GULP energy per Si atom -12403.028578 kJ/mol
# Density = 1.979047 g / cm^3
# Si number density = 19.835613 Si / 1000 Ang^3
#
#
#
# Elastic Constant Matrix: (Units=GPa)
#
#
# Indices 1 2 3 4 5 6 
#
# 1 89.9833 31.5526 24.2810 0.0000 0.0000 0.0000
# 2 31.5526 89.9855 24.2807 0.0000 0.0000 0.0000
# 3 24.2810 24.2807 85.5929 0.0000 0.0000 0.0000
# 4 0.0000 0.0000 0.0000 29.9319 0.0000 0.0000
# 5 0.0000 0.0000 0.0000 0.0000 29.9309 0.0000
# 6 0.0000 0.0000 0.0000 0.0000 0.0000 8.8578
#
#
#
# Elastic Compliance Matrix: (Units=1/GPa)
#
#
# Indices 1 2 3 4 5 6 
#
# 1 0.013197 -0.003917 -0.002633 0.000000 0.000000 0.000000
# 2 -0.003917 0.013197 -0.002632 0.000000 0.000000 0.000000
# 3 -0.002633 -0.002632 0.013177 0.000000 0.000000 0.000000
# 4 0.000000 0.000000 0.000000 0.033409 0.000000 0.000000
# 5 0.000000 0.000000 0.000000 0.000000 0.033410 0.000000
# 6 0.000000 0.000000 0.000000 0.000000 0.000000 0.112895
#
#
# Mechanical properties :
#
#
# Convention : Reuss Voigt Hill
#
# Bulk Modulus (GPa) = 47.15548 47.31003 47.23276
# Shear Modulus (GPa) = 20.43173 26.10729 23.26951
#
# Velocity S-wave (km/s) = 3.21293 3.63186 3.42880
# Velocity P-wave (km/s) = 6.13095 6.44128 6.28803
#
# Compressibility (1/GPa) = 0.02120644
#
# Stress axis : x y z
#
# Youngs Moduli (GPa) = 75.77436 75.77656 75.89114
#
# Poissons Ratio (x) = 0.29682 0.19979
# Poissons Ratio (y) = 0.29682 0.19978
# Poissons Ratio (z) = 0.19948 0.19947
#
# Static dielectric constant tensor:
#      x y z
#    x 3.668030 0.000000 0.000000 
#    y 0.000000 3.668030 0.000000 
#    z 0.000000 0.000000 3.336200 
# 
# 
# High freq. dielectric constant tensor:
#      x y z
#    x 1.777680 0.000000 0.000000 
#    y 0.000000 1.777680 0.000000 
#    z 0.000000 0.000000 1.761030 
# 
# From -- ./inp_files/7156.got.cif
#   From: 2010.03.12/outbox.cif.g09.slc.cpg/sg128_4_cif.got.tgz:7156.got - 2010.04.06 17:11:05.
