data_PCOD8314091
_publ_section_title
;
Structure prediction by ZEFSAII (Michael W. Deem and Ramdas Pophale) SiO2 
 PCOD8314091
Probable space group: P 4/M B M
;
_chemical_formula_sum "Si O2"
_cell_formula_units_Z 96
_cell_length_a 23.901735
_cell_length_b 23.901735
_cell_length_c 8.726811
_cell_angle_alpha 90.000000
_cell_angle_beta 90.000000
_cell_angle_gamma 90.000000
_cell_volume 4985.565478
_symmetry_space_group_name_H-M "P 4/M B M"
_symmetry_group_IT_number 127
_symmetry_cell_setting 'tetragonal'
loop_
_space_group_symop_operation_xyz
x,y,z
-y,x,z
-x,-y,z
y,-x,z
1/2+x,1/2-y,-z
1/2-x,1/2+y,-z
1/2+y,1/2+x,-z
1/2-y,1/2-x,-z
-x,-y,-z
y,-x,-z
x,y,-z
-y,x,-z
1/2-x,1/2+y,z
1/2+x,1/2-y,z
1/2-y,1/2-x,z
1/2+y,1/2+x,z
loop_
_atom_site_type_symbol
_atom_site_label
_atom_site_fract_x
_atom_site_fract_y
_atom_site_fract_z
Si Si1 0.809837 0.777336 0.182207
Si Si2 0.415802 0.472754 0.182256
Si Si3 0.433407 0.703368 0.181609
Si Si4 0.130915 0.722835 0.825049
Si Si5 0.000162 0.590955 0.175656
Si Si6 0.207513 0.514130 0.677065
O O1 0.778505 0.721496 0.245243
O O2 0.872285 0.781410 0.250054
O O3 0.775123 0.832128 0.231927
O O4 0.810621 0.774573 0.000000
O O5 0.464330 0.430208 0.239087
O O6 0.356203 0.453572 0.250841
O O7 0.413656 0.472245 0.000000
O O8 0.476248 0.751288 0.224865
O O9 0.429663 0.699105 0.000000
O O10 0.165767 0.665767 0.812546
O O11 0.078463 0.718902 0.714134
O O12 0.110760 0.731719 0.000000
O O13 0.942501 0.557500 0.195437
O O14 0.052044 0.552044 0.224422
O O15 0.997717 0.644147 0.284506
O O16 0.007680 0.610397 0.000000
O O17 0.218783 0.502894 0.500000
#
# Coordination Sequence:
#
# PCOD8314091 Si02
#       6
#    16  16  16  16  16  16
#     4   8  16  32  55  83 108 133 174 227 278 323
#     4   8  15  28  49  80 108 128 166 231 293 333
#     4  10  20  33  55  80 105 144 185 229 276 322
#     4   9  18  35  60  85 108 137 179 232 278 316
#     4   9  19  38  63  86 107 137 181 231 278 322
#     4  12  25  36  49  78 118 153 183 218 263 323
#
# _framework density 19.255589000000001
#
# number of rings (size 3 to 8) (size 9 to 14) (size 15 to 20)
#    0.000    2.667    0.000    4.000    2.333    3.667 
#    0.000    3.333    0.000    1.000    0.000    1.167 
#    0.000    0.000    0.000    0.000    0.000    0.000 
#
# Total GULP energy -1190266.377298 kJ/mol
# GULP energy per Si atom -12398.608097 kJ/mol
# Density = 1.921176 g / cm^3
# Si number density = 19.255589 Si / 1000 Ang^3
#
#
#
# Elastic Constant Matrix: (Units=GPa)
#
#
# Indices 1 2 3 4 5 6 
#
# 1 181.2886 12.5293 10.9665 0.0000 0.0000 0.0000
# 2 12.5293 181.2886 10.9665 0.0000 0.0000 0.0000
# 3 10.9665 10.9665 20.8845 0.0000 0.0000 0.0000
# 4 0.0000 0.0000 0.0000 4.9309 0.0000 0.0000
# 5 0.0000 0.0000 0.0000 0.0000 4.9309 0.0000
# 6 0.0000 0.0000 0.0000 0.0000 0.0000 23.3058
#
#
#
# Elastic Compliance Matrix: (Units=1/GPa)
#
#
# Indices 1 2 3 4 5 6 
#
# 1 0.005706 -0.000220 -0.002880 0.000000 0.000000 0.000000
# 2 -0.000220 0.005706 -0.002880 0.000000 0.000000 0.000000
# 3 -0.002880 -0.002880 0.050907 0.000000 0.000000 0.000000
# 4 0.000000 0.000000 0.000000 0.202804 0.000000 0.000000
# 5 0.000000 0.000000 0.000000 0.000000 0.202804 0.000000
# 6 0.000000 0.000000 0.000000 0.000000 0.000000 0.042908
#
#
# Mechanical properties :
#
#
# Convention : Reuss Voigt Hill
#
# Bulk Modulus (GPa) = 19.85836 50.26516 35.06176
# Shear Modulus (GPa) = 9.26645 29.90014 19.58329
#
# Velocity S-wave (km/s) = 2.19608 3.94484 3.19253
# Velocity P-wave (km/s) = 4.09461 6.84908 5.64250
#
# Compressibility (1/GPa) = 0.05035663
#
# Stress axis : x y z
#
# Youngs Moduli (GPa) = 175.26891 175.26891 19.64349
#
# Poissons Ratio (x) = 0.03857 0.05658
# Poissons Ratio (y) = 0.03857 0.05658
# Poissons Ratio (z) = 0.50485 0.50485
#
# Static dielectric constant tensor:
#      x y z
#    x 3.731410 0.000000 0.000000 
#    y 0.000000 3.731410 0.000000 
#    z 0.000000 0.000000 2.974130 
# 
# 
# High freq. dielectric constant tensor:
#      x y z
#    x 1.758440 0.000000 0.000000 
#    y 0.000000 1.758440 0.000000 
#    z 0.000000 0.000000 1.694910 
# 
# From -- ./inp_files/2005.got.cif
#   From: 2010.03.12/outbox.cif.g09.slc.cpg/sg127_2_cif.got.tgz:2005.got - 2010.04.06 17:03:15.
