data_PCOD8314510
_publ_section_title
;
Structure prediction by ZEFSAII (Michael W. Deem and Ramdas Pophale) SiO2 
 PCOD8314510
Probable space group: P 4/M N C
;
_chemical_formula_sum "Si O2"
_cell_formula_units_Z 80
_cell_length_a 15.252507
_cell_length_b 15.252507
_cell_length_c 20.253733
_cell_angle_alpha 90.000000
_cell_angle_beta 90.000000
_cell_angle_gamma 90.000000
_cell_volume 4711.807579
_symmetry_space_group_name_H-M "P 4/M N C"
_symmetry_group_IT_number 128
_symmetry_cell_setting 'tetragonal'
loop_
_space_group_symop_operation_xyz
x,y,z
-y,x,z
-x,-y,z
y,-x,z
1/2+x,1/2-y,1/2-z
1/2-x,1/2+y,1/2-z
1/2+y,1/2+x,1/2-z
1/2-y,1/2-x,1/2-z
-x,-y,-z
y,-x,-z
x,y,-z
-y,x,-z
1/2-x,1/2+y,1/2+z
1/2+x,1/2-y,1/2+z
1/2-y,1/2-x,1/2+z
1/2+y,1/2+x,1/2+z
loop_
_atom_site_type_symbol
_atom_site_label
_atom_site_fract_x
_atom_site_fract_y
_atom_site_fract_z
Si Si1 0.266547 0.479887 0.073535
Si Si2 0.861777 0.167626 0.355937
Si Si3 0.067904 0.874724 0.216368
Si Si4 0.193156 0.645500 0.321371
Si Si5 0.559211 0.918103 0.924354
O O1 0.293903 0.407849 0.126477
O O2 0.318346 0.570731 0.084112
O O3 0.164464 0.496055 0.085260
O O4 0.286082 0.446135 0.000000
O O5 0.921223 0.141443 0.293943
O O6 0.803270 0.253638 0.343915
O O7 0.109713 0.792445 0.178079
O O8 0.965071 0.882288 0.197734
O O9 0.144126 0.644126 0.250000
O O10 0.140257 0.586377 0.373715
O O11 0.500000 0.000000 0.905269
O O12 0.594371 0.923658 0.000000
#
# Coordination Sequence:
#
# PCOD8314510 Si02
#       5
#    16  16  16  16  16
#     4  10  19  30  49  75 104 137 170 202 252 323
#     4  10  18  32  47  71 106 135 166 210 254 307
#     4  10  19  33  52  72 100 137 172 217 264 303
#     4   9  20  34  52  76 104 137 179 218 258 311
#     4   9  19  36  55  76 105 138 173 219 271 318
#
# _framework density 16.978622000000001
#
# number of rings (size 3 to 8) (size 9 to 14) (size 15 to 20)
#    0.000    2.400    2.000    0.600    0.000    3.200 
#    0.000    1.000    0.000    1.200    0.000    1.400 
#    0.000    0.000    0.000    0.000    0.000    0.000 
#
# Total GULP energy -991856.082789 kJ/mol
# GULP energy per Si atom -12398.201035 kJ/mol
# Density = 1.693998 g / cm^3
# Si number density = 16.978622 Si / 1000 Ang^3
#
#
#
# Elastic Constant Matrix: (Units=GPa)
#
#
# Indices 1 2 3 4 5 6 
#
# 1 113.1955 71.3820 50.7933 0.0000 0.0000 0.0000
# 2 71.3820 113.1955 50.7933 0.0000 0.0000 0.0000
# 3 50.7933 50.7933 81.6517 0.0000 0.0000 0.0000
# 4 0.0000 0.0000 0.0000 23.6475 0.0000 0.0000
# 5 0.0000 0.0000 0.0000 0.0000 23.6475 0.0000
# 6 0.0000 0.0000 0.0000 0.0000 0.0000 26.7262
#
#
#
# Elastic Compliance Matrix: (Units=1/GPa)
#
#
# Indices 1 2 3 4 5 6 
#
# 1 0.016077 -0.007839 -0.005125 0.000000 0.000000 0.000000
# 2 -0.007839 0.016077 -0.005125 0.000000 0.000000 0.000000
# 3 -0.005125 -0.005125 0.018623 0.000000 0.000000 0.000000
# 4 0.000000 0.000000 0.000000 0.042288 0.000000 0.000000
# 5 0.000000 0.000000 0.000000 0.000000 0.042288 0.000000
# 6 0.000000 0.000000 0.000000 0.000000 0.000000 0.037416
#
#
# Mechanical properties :
#
#
# Convention : Reuss Voigt Hill
#
# Bulk Modulus (GPa) = 68.49079 72.66441 70.57760
# Shear Modulus (GPa) = 23.38492 23.80918 23.59705
#
# Velocity S-wave (km/s) = 3.71525 3.74880 3.73206
# Velocity P-wave (km/s) = 7.67014 7.85038 7.76078
#
# Compressibility (1/GPa) = 0.01460050
#
# Stress axis : x y z
#
# Youngs Moduli (GPa) = 62.20048 62.20048 53.69644
#
# Poissons Ratio (x) = 0.48757 0.27519
# Poissons Ratio (y) = 0.48757 0.27519
# Poissons Ratio (z) = 0.31877 0.31877
#
# Static dielectric constant tensor:
#      x y z
#    x 3.122180 0.000000 0.000000 
#    y 0.000000 3.122180 0.000000 
#    z 0.000000 0.000000 3.148490 
# 
# 
# High freq. dielectric constant tensor:
#      x y z
#    x 1.653140 0.000000 0.000000 
#    y 0.000000 1.653140 0.000000 
#    z 0.000000 0.000000 1.646300 
# 
# From -- ./inp_files/5518.got.cif
#   From: 2010.03.12/outbox.cif.g09.slc.cpg/sg128_3_cif.got.tgz:5518.got - 2010.04.06 17:11:05.
