data_PCOD8314286
_publ_section_title
;
Structure prediction by ZEFSAII (Michael W. Deem and Ramdas Pophale) SiO2 
 PCOD8314286
Probable space group: P 4/M B M
;
_chemical_formula_sum "Si O2"
_cell_formula_units_Z 96
_cell_length_a 23.641123
_cell_length_b 23.641123
_cell_length_c 8.572873
_cell_angle_alpha 90.000000
_cell_angle_beta 90.000000
_cell_angle_gamma 90.000000
_cell_volume 4791.401838
_symmetry_space_group_name_H-M "P 4/M B M"
_symmetry_group_IT_number 127
_symmetry_cell_setting 'tetragonal'
loop_
_space_group_symop_operation_xyz
x,y,z
-y,x,z
-x,-y,z
y,-x,z
1/2+x,1/2-y,-z
1/2-x,1/2+y,-z
1/2+y,1/2+x,-z
1/2-y,1/2-x,-z
-x,-y,-z
y,-x,-z
x,y,-z
-y,x,-z
1/2-x,1/2+y,z
1/2+x,1/2-y,z
1/2-y,1/2-x,z
1/2+y,1/2+x,z
loop_
_atom_site_type_symbol
_atom_site_label
_atom_site_fract_x
_atom_site_fract_y
_atom_site_fract_z
Si Si1 0.810022 0.781165 0.318904
Si Si2 0.416459 0.468324 0.185370
Si Si3 0.428997 0.704727 0.182457
Si Si4 0.134231 0.727638 0.820879
Si Si5 0.000280 0.591902 0.179492
Si Si6 0.210778 0.514936 0.679018
O O1 0.804506 0.795751 0.500000
O O2 0.776017 0.723984 0.277306
O O3 0.874635 0.771530 0.272165
O O4 0.785556 0.833885 0.221661
O O5 0.467400 0.427808 0.244354
O O6 0.356965 0.445679 0.251173
O O7 0.414555 0.469095 0.000000
O O8 0.480116 0.747394 0.211018
O O9 0.415639 0.701506 0.000000
O O10 0.174944 0.674944 0.788464
O O11 0.080728 0.720018 0.711130
O O12 0.114797 0.730295 0.000000
O O13 0.053456 0.553456 0.229416
O O14 0.997507 0.646435 0.287597
O O15 0.942491 0.557510 0.203013
O O16 0.007323 0.610553 0.000000
O O17 0.224571 0.501602 0.500000
#
# Coordination Sequence:
#
# PCOD8314286 Si02
#       6
#    16  16  16  16  16  16
#     4  10  22  41  62  85 118 157 196 242 299 358
#     4   8  16  33  57  86 116 145 184 238 294 346
#     4  11  23  37  60  89 118 158 202 245 294 355
#     4  10  21  39  64  90 116 151 199 250 296 350
#     4   9  19  38  63  88 115 150 194 245 298 354
#     4  12  25  38  55  85 124 160 195 242 298 352
#
# _framework density 20.035889999999998
#
# number of rings (size 3 to 8) (size 9 to 14) (size 15 to 20)
#    0.000    2.000    0.000    4.500    2.333    5.333 
#    0.000    0.833    0.000    0.000    0.000    4.667 
#    0.000    0.000    0.000    0.000    0.000    0.000 
#
# Total GULP energy -1190784.050722 kJ/mol
# GULP energy per Si atom -12404.000528 kJ/mol
# Density = 1.999029 g / cm^3
# Si number density = 20.035890 Si / 1000 Ang^3
#
#
#
# Elastic Constant Matrix: (Units=GPa)
#
#
# Indices 1 2 3 4 5 6 
#
# 1 66.4395 90.6311 24.9671 0.0000 0.0000 0.0000
# 2 90.6311 66.4395 24.9671 0.0000 0.0000 0.0000
# 3 24.9671 24.9671 50.1061 0.0000 0.0000 0.0000
# 4 0.0000 0.0000 0.0000 25.2416 0.0000 0.0000
# 5 0.0000 0.0000 0.0000 0.0000 25.2416 0.0000
# 6 0.0000 0.0000 0.0000 0.0000 0.0000 21.6470
#
#
#
# Elastic Compliance Matrix: (Units=1/GPa)
#
#
# Indices 1 2 3 4 5 6 
#
# 1 -0.016886 0.024451 -0.003769 0.000000 0.000000 0.000000
# 2 0.024451 -0.016886 -0.003769 0.000000 0.000000 0.000000
# 3 -0.003769 -0.003769 0.023714 0.000000 0.000000 0.000000
# 4 0.000000 0.000000 0.000000 0.039617 0.000000 0.000000
# 5 0.000000 0.000000 0.000000 0.000000 0.039617 0.000000
# 6 0.000000 0.000000 0.000000 0.000000 0.000000 0.046196
#
#
# Mechanical properties :
#
#
# Convention : Reuss Voigt Hill
#
# Bulk Modulus (GPa) = 42.07671 51.56840 46.82255
# Shear Modulus (GPa) = 55.88394 17.25402 36.56898
#
# Velocity S-wave (km/s) = 5.28701 2.93773 4.27684
# Velocity P-wave (km/s) = 7.63651 6.10745 6.91437
#
# Compressibility (1/GPa) = 0.02376612
#
# Stress axis : x y z
#
# Youngs Moduli (GPa) = -59.22130 -59.22130 42.16878
#
# Poissons Ratio (x) = 1.44800 0.15895
# Poissons Ratio (y) = 1.44800 0.15895
# Poissons Ratio (z) = -0.22323 -0.22323
#
# Static dielectric constant tensor:
#      x y z
#    x 3.688470 0.000000 0.000000 
#    y 0.000000 3.688470 0.000000 
#    z 0.000000 0.000000 3.385340 
# 
# 
# High freq. dielectric constant tensor:
#      x y z
#    x 1.786700 0.000000 0.000000 
#    y 0.000000 1.786700 0.000000 
#    z 0.000000 0.000000 1.766160 
# 
# From -- ./inp_files/2017.got.cif
#   From: 2010.03.12/outbox.cif.g09.slc.cpg/sg127_2_cif.got.tgz:2017.got - 2010.04.06 17:03:15.
