data_PCOD8314405
_publ_section_title
;
Structure prediction by ZEFSAII (Michael W. Deem and Ramdas Pophale) SiO2 
 PCOD8314405
Probable space group: P 4/M B M
;
_chemical_formula_sum "Si O2"
_cell_formula_units_Z 120
_cell_length_a 14.173615
_cell_length_b 14.173615
_cell_length_c 32.862234
_cell_angle_alpha 90.000000
_cell_angle_beta 90.000000
_cell_angle_gamma 90.000000
_cell_volume 6601.738952
_symmetry_space_group_name_H-M "P 4/M B M"
_symmetry_group_IT_number 127
_symmetry_cell_setting 'tetragonal'
loop_
_space_group_symop_operation_xyz
x,y,z
-y,x,z
-x,-y,z
y,-x,z
1/2+x,1/2-y,-z
1/2-x,1/2+y,-z
1/2+y,1/2+x,-z
1/2-y,1/2-x,-z
-x,-y,-z
y,-x,-z
x,y,-z
-y,x,-z
1/2-x,1/2+y,z
1/2+x,1/2-y,z
1/2-y,1/2-x,z
1/2+y,1/2+x,z
loop_
_atom_site_type_symbol
_atom_site_label
_atom_site_fract_x
_atom_site_fract_y
_atom_site_fract_z
Si Si1 0.105477 0.759301 0.625070
Si Si2 0.245708 0.902770 0.664315
Si Si3 0.075444 0.575444 0.045222
Si Si4 0.847345 0.028932 0.833665
Si Si5 0.139525 0.067980 0.545746
Si Si6 0.459737 0.650352 0.742927
Si Si7 0.512893 0.251713 0.085579
Si Si8 0.162893 0.814528 0.953581
O O1 0.163555 0.663555 0.632380
O O2 0.153434 0.845994 0.649265
O O3 0.106338 0.783132 0.577130
O O4 0.998399 0.742577 0.638860
O O5 0.339593 0.839593 0.659497
O O6 0.232130 0.932272 0.711379
O O7 0.151135 0.527247 0.074340
O O8 0.000000 0.500000 0.033098
O O9 0.112580 0.612580 0.000000
O O10 0.763746 0.038979 0.866727
O O11 0.891767 0.926130 0.839821
O O12 0.805730 0.044242 0.788365
O O13 0.176690 0.086234 0.500000
O O14 0.042599 0.123534 0.553045
O O15 0.386712 0.565324 0.736206
O O16 0.431755 0.326773 0.073045
O O17 0.606054 0.263630 0.058977
O O18 0.211514 0.711514 0.946568
O O19 0.134453 0.828847 0.000000
#
# Coordination Sequence:
#
# PCOD8314405 Si02
#       8
#    16  16   8  16  16  16  16  16
#     4  11  22  35  57  86 118 159 201 246 305 364
#     4  11  22  36  58  89 117 149 197 252 299 358
#     4  11  24  42  60  78 108 153 199 231 265 334
#     4   9  18  34  56  87 115 140 174 221 282 343
#     4   9  17  31  54  84 116 153 202 259 308 351
#     4   9  17  33  61  86 109 144 186 232 285 341
#     4  12  21  37  60  82 112 147 180 232 281 327
#     4  11  23  37  54  81 112 143 184 229 277 330
#
# _framework density 18.177029000000001
#
# number of rings (size 3 to 8) (size 9 to 14) (size 15 to 20)
#    0.000    1.667    4.667    2.800    0.000    2.133 
#    0.000    2.000    7.333    0.400    0.000    0.933 
#    0.000    0.000    0.000    0.000    0.000    0.000 
#
# Total GULP energy -1487540.314714 kJ/mol
# GULP energy per Si atom -12396.169289 kJ/mol
# Density = 1.813566 g / cm^3
# Si number density = 18.177029 Si / 1000 Ang^3
#
#
#
# Elastic Constant Matrix: (Units=GPa)
#
#
# Indices 1 2 3 4 5 6 
#
# 1 84.3423 21.9864 43.7019 0.0000 0.0000 0.0000
# 2 21.9864 84.3423 43.7019 0.0000 0.0000 0.0000
# 3 43.7019 43.7019 140.3299 0.0000 0.0000 0.0000
# 4 0.0000 0.0000 0.0000 28.1897 0.0000 0.0000
# 5 0.0000 0.0000 0.0000 0.0000 28.1897 0.0000
# 6 0.0000 0.0000 0.0000 0.0000 0.0000 17.7209
#
#
#
# Elastic Compliance Matrix: (Units=1/GPa)
#
#
# Indices 1 2 3 4 5 6 
#
# 1 0.014339 -0.001698 -0.003937 0.000000 0.000000 0.000000
# 2 -0.001698 0.014339 -0.003937 0.000000 0.000000 0.000000
# 3 -0.003937 -0.003937 0.009578 0.000000 0.000000 0.000000
# 4 0.000000 0.000000 0.000000 0.035474 0.000000 0.000000
# 5 0.000000 0.000000 0.000000 0.000000 0.035474 0.000000
# 6 0.000000 0.000000 0.000000 0.000000 0.000000 0.056431
#
#
# Mechanical properties :
#
#
# Convention : Reuss Voigt Hill
#
# Bulk Modulus (GPa) = 52.32038 58.64389 55.48213
# Shear Modulus (GPa) = 26.15775 28.12834 27.14305
#
# Velocity S-wave (km/s) = 3.79760 3.93805 3.86847
# Velocity P-wave (km/s) = 6.93364 7.28082 7.10935
#
# Compressibility (1/GPa) = 0.01911301
#
# Stress axis : x y z
#
# Youngs Moduli (GPa) = 69.74051 69.74051 104.40619
#
# Poissons Ratio (x) = 0.11843 0.41101
# Poissons Ratio (y) = 0.11843 0.41101
# Poissons Ratio (z) = 0.27454 0.27454
#
# Static dielectric constant tensor:
#      x y z
#    x 3.120420 0.000000 0.000000 
#    y 0.000000 3.120420 0.000000 
#    z 0.000000 0.000000 3.437830 
# 
# 
# High freq. dielectric constant tensor:
#      x y z
#    x 1.688200 0.000000 0.000000 
#    y 0.000000 1.688200 0.000000 
#    z 0.000000 0.000000 1.713860 
# 
# From -- ./inp_files/6687.got.cif
#   From: 2010.03.12/outbox.cif.g09.slc.cpg/sg127_4_cif.got.tgz:6687.got - 2010.04.06 17:03:15.
