data_PCOD8314086
_publ_section_title
;
Structure prediction by ZEFSAII (Michael W. Deem and Ramdas Pophale) SiO2 
 PCOD8314086
Probable space group: P 4/M B M
;
_chemical_formula_sum "Si O2"
_cell_formula_units_Z 96
_cell_length_a 23.612562
_cell_length_b 23.612562
_cell_length_c 9.485670
_cell_angle_alpha 90.000000
_cell_angle_beta 90.000000
_cell_angle_gamma 90.000000
_cell_volume 5288.764564
_symmetry_space_group_name_H-M "P 4/M B M"
_symmetry_group_IT_number 127
_symmetry_cell_setting 'tetragonal'
loop_
_space_group_symop_operation_xyz
x,y,z
-y,x,z
-x,-y,z
y,-x,z
1/2+x,1/2-y,-z
1/2-x,1/2+y,-z
1/2+y,1/2+x,-z
1/2-y,1/2-x,-z
-x,-y,-z
y,-x,-z
x,y,-z
-y,x,-z
1/2-x,1/2+y,z
1/2+x,1/2-y,z
1/2-y,1/2-x,z
1/2+y,1/2+x,z
loop_
_atom_site_type_symbol
_atom_site_label
_atom_site_fract_x
_atom_site_fract_y
_atom_site_fract_z
Si Si1 0.304124 0.481336 0.663602
Si Si2 0.674439 0.825562 0.666194
Si Si3 0.243615 0.256386 0.835360
Si Si4 0.492169 0.407794 0.159980
Si Si5 0.311202 0.045857 0.662017
Si Si6 0.886701 0.751837 0.163098
Si Si7 0.861938 0.548276 0.162485
O O1 0.315086 0.469396 0.500000
O O2 0.356991 0.514038 0.730262
O O3 0.251087 0.522002 0.689302
O O4 0.296002 0.421319 0.741559
O O5 0.683216 0.816785 0.500000
O O6 0.716235 0.783766 0.746099
O O7 0.688158 0.889522 0.713365
O O8 0.257059 0.321161 0.795642
O O9 0.254358 0.245643 0.000000
O O10 0.550842 0.439902 0.187605
O O11 0.490367 0.384689 0.000000
O O12 0.329330 0.041599 0.500000
O O13 0.356879 0.009008 0.747777
O O14 0.907891 0.688537 0.195659
O O15 0.896586 0.767424 0.000000
O O16 0.920564 0.579437 0.201956
O O17 0.860953 0.530450 0.000000
#
# Coordination Sequence:
#
# PCOD8314086 Si02
#       7
#    16   8   8  16  16  16  16
#     4  10  20  33  52  80 108 135 173 219 264 313
#     4  10  22  40  55  69 104 151 185 217 260 308
#     4  10  20  34  54  79 105 135 177 223 265 312
#     4   9  19  36  55  74  99 134 175 216 261 315
#     4   9  20  37  53  72 101 140 179 212 253 311
#     4   9  17  32  52  77 108 137 168 211 262 317
#     4   9  16  30  55  82 105 130 161 209 268 310
#
# _framework density 18.151688
#
# number of rings (size 3 to 8) (size 9 to 14) (size 15 to 20)
#    0.000    2.667    0.833    1.000    0.000    4.333 
#    0.000    4.583    0.000    2.500    0.000    0.000 
#    0.000    0.000    0.000    0.000    0.000    0.000 
#
# Total GULP energy -1190557.998832 kJ/mol
# GULP energy per Si atom -12401.645821 kJ/mol
# Density = 1.811037 g / cm^3
# Si number density = 18.151688 Si / 1000 Ang^3
#
#
#
# Elastic Constant Matrix: (Units=GPa)
#
#
# Indices 1 2 3 4 5 6 
#
# 1 96.3776 40.7780 49.8699 0.0000 0.0000 0.0000
# 2 40.7780 96.3781 49.8698 0.0000 0.0000 0.0000
# 3 49.8699 49.8698 79.6749 0.0000 0.0000 0.0000
# 4 0.0000 0.0000 0.0000 28.9468 0.0000 0.0000
# 5 0.0000 0.0000 0.0000 0.0000 28.9467 0.0000
# 6 0.0000 0.0000 0.0000 0.0000 0.0000 21.4970
#
#
#
# Elastic Compliance Matrix: (Units=1/GPa)
#
#
# Indices 1 2 3 4 5 6 
#
# 1 0.015684 -0.002302 -0.008376 0.000000 0.000000 0.000000
# 2 -0.002302 0.015684 -0.008376 0.000000 0.000000 0.000000
# 3 -0.008376 -0.008376 0.023036 0.000000 0.000000 0.000000
# 4 0.000000 0.000000 0.000000 0.034546 0.000000 0.000000
# 5 0.000000 0.000000 0.000000 0.000000 0.034546 0.000000
# 6 0.000000 0.000000 0.000000 0.000000 0.000000 0.046518
#
#
# Mechanical properties :
#
#
# Convention : Reuss Voigt Hill
#
# Bulk Modulus (GPa) = 61.36355 61.49622 61.42988
# Shear Modulus (GPa) = 23.41321 24.67228 24.04274
#
# Velocity S-wave (km/s) = 3.59536 3.69077 3.64338
# Velocity P-wave (km/s) = 7.14947 7.21907 7.18435
#
# Compressibility (1/GPa) = 0.01629632
#
# Stress axis : x y z
#
# Youngs Moduli (GPa) = 63.75960 63.76013 43.40950
#
# Poissons Ratio (x) = 0.14676 0.36360
# Poissons Ratio (y) = 0.14676 0.36360
# Poissons Ratio (z) = 0.53406 0.53406
#
# Static dielectric constant tensor:
#      x y z
#    x 3.299950 0.000000 0.000000 
#    y 0.000000 3.299960 0.000000 
#    z 0.000000 0.000000 3.309950 
# 
# 
# High freq. dielectric constant tensor:
#      x y z
#    x 1.698470 0.000000 0.000000 
#    y 0.000000 1.698470 0.000000 
#    z 0.000000 0.000000 1.699870 
# 
# From -- ./inp_files/2085.got.cif
#   From: 2010.03.12/outbox.cif.g09.slc.cpg/sg127_2_cif.got.tgz:2085.got - 2010.04.06 17:03:15.
