data_PCOD8314929
_publ_section_title
;
Structure prediction by ZEFSAII (Michael W. Deem and Ramdas Pophale) SiO2 
 PCOD8314929
Probable space group: P 4/N M M
;
_chemical_formula_sum "Si O2"
_cell_formula_units_Z 104
_cell_length_a 18.242360
_cell_length_b 18.242360
_cell_length_c 18.641618
_cell_angle_alpha 90.000000
_cell_angle_beta 90.000000
_cell_angle_gamma 90.000000
_cell_volume 6203.626582
_symmetry_space_group_name_H-M "P 4/N M M"
_symmetry_group_IT_number 129
_symmetry_cell_setting 'tetragonal'
loop_
_space_group_symop_operation_xyz
x,y,z
1/2-y,x,z
1/2-x,1/2-y,z
y,1/2-x,z
1/2+x,-y,-z
-x,1/2+y,-z
1/2+y,1/2+x,-z
-y,-x,-z
-x,-y,-z
1/2+y,-x,-z
1/2+x,1/2+y,-z
-y,1/2+x,-z
1/2-x,y,z
x,1/2-y,z
1/2-y,1/2-x,z
y,x,z
loop_
_atom_site_type_symbol
_atom_site_label
_atom_site_fract_x
_atom_site_fract_y
_atom_site_fract_z
Si Si1 0.834515 0.545405 0.586881
Si Si2 0.562890 0.059184 0.667495
Si Si3 0.165927 0.938311 0.540171
Si Si4 0.570097 0.451730 0.174105
Si Si5 0.829561 0.170440 0.000000
Si Si6 0.955192 0.664378 0.075928
Si Si7 0.331462 0.975743 0.076591
O O1 0.750000 0.561160 0.605908
O O2 0.878222 0.621779 0.589802
O O3 0.865810 0.487378 0.644446
O O4 0.843153 0.511325 0.507611
O O5 0.547694 0.127401 0.615876
O O6 0.576822 0.092534 0.746979
O O7 0.492255 0.007746 0.663733
O O8 0.130852 0.869149 0.500000
O O9 0.250000 0.919243 0.554590
O O10 0.524887 0.524887 0.185070
O O11 0.639710 0.476107 0.125618
O O12 0.515094 0.391934 0.138128
O O13 0.836255 0.110715 0.938392
O O14 0.750000 0.162161 0.037967
O O15 0.939423 0.750000 0.089492
O O16 0.881136 0.618865 0.092021
O O17 0.977875 0.648752 0.993844
O O18 0.250000 0.997617 0.103914
#
# Coordination Sequence:
#
# PCOD8314929 Si02
#       7
#    16  16  16  16   8  16  16
#     4   9  17  30  49  71  96 125 156 191 229 271
#     4   9  18  31  47  68  94 124 156 191 230 273
#     4   9  17  30  48  69  92 121 155 190 228 274
#     4  10  19  31  47  68  95 122 153 194 233 271
#     4   9  16  26  41  62  88 116 145 178 219 270
#     4  10  20  33  49  68  90 119 155 194 236 280
#     4  10  18  29  47  68  91 120 152 188 231 279
#
# _framework density 16.764388
#
# number of rings (size 3 to 8) (size 9 to 14) (size 15 to 20)
#    0.000    2.538    1.538    0.923    0.000    4.769 
#    0.000    0.000    0.000    0.000    0.000    2.154 
#    0.000    7.385    0.000    0.000    0.000    0.000 
#
# Total GULP energy -1288975.860014 kJ/mol
# GULP energy per Si atom -12393.998654 kJ/mol
# Density = 1.672623 g / cm^3
# Si number density = 16.764388 Si / 1000 Ang^3
#
#
#
# Elastic Constant Matrix: (Units=GPa)
#
#
# Indices 1 2 3 4 5 6 
#
# 1 89.9282 34.3336 34.6448 0.0000 0.0000 0.0000
# 2 34.3336 89.9282 34.6446 0.0000 0.0000 0.0000
# 3 34.6448 34.6446 106.7919 0.0000 0.0000 0.0000
# 4 0.0000 0.0000 0.0000 16.8928 0.0000 0.0000
# 5 0.0000 0.0000 0.0000 0.0000 16.8929 0.0000
# 6 0.0000 0.0000 0.0000 0.0000 0.0000 18.0109
#
#
#
# Elastic Compliance Matrix: (Units=1/GPa)
#
#
# Indices 1 2 3 4 5 6 
#
# 1 0.013906 -0.004081 -0.003187 0.000000 0.000000 0.000000
# 2 -0.004081 0.013906 -0.003187 0.000000 0.000000 0.000000
# 3 -0.003187 -0.003187 0.011432 0.000000 0.000000 0.000000
# 4 0.000000 0.000000 0.000000 0.059197 0.000000 0.000000
# 5 0.000000 0.000000 0.000000 0.000000 0.059196 0.000000
# 6 0.000000 0.000000 0.000000 0.000000 0.000000 0.055522
#
#
# Mechanical properties :
#
#
# Convention : Reuss Voigt Hill
#
# Bulk Modulus (GPa) = 54.54819 54.87714 54.71267
# Shear Modulus (GPa) = 20.81757 22.56101 21.68929
#
# Velocity S-wave (km/s) = 3.52770 3.67245 3.60081
# Velocity P-wave (km/s) = 7.01439 7.12657 7.07070
#
# Compressibility (1/GPa) = 0.01833241
#
# Stress axis : x y z
#
# Youngs Moduli (GPa) = 71.91095 71.91103 87.47375
#
# Poissons Ratio (x) = 0.29349 0.27881
# Poissons Ratio (y) = 0.29349 0.27880
# Poissons Ratio (z) = 0.22920 0.22920
#
# Static dielectric constant tensor:
#      x y z
#    x 3.122990 0.000000 0.000000 
#    y 0.000000 3.122980 0.000000 
#    z 0.000000 0.000000 3.191850 
# 
# 
# High freq. dielectric constant tensor:
#      x y z
#    x 1.641440 0.000000 0.000000 
#    y 0.000000 1.641440 0.000000 
#    z 0.000000 0.000000 1.631180 
# 
# From -- ./inp_files/5846.got.cif
#   From: 2010.03.12/outbox.cif.g09.slc.cpg/sg129_3_cif.got.tgz:5846.got - 2010.04.06 17:19:44.
