data_PCOD8314144
_publ_section_title
;
Structure prediction by ZEFSAII (Michael W. Deem and Ramdas Pophale) SiO2 
 PCOD8314144
Probable space group: P 4/M B M
;
_chemical_formula_sum "Si O2"
_cell_formula_units_Z 120
_cell_length_a 26.405221
_cell_length_b 26.405221
_cell_length_c 8.960823
_cell_angle_alpha 90.000000
_cell_angle_beta 90.000000
_cell_angle_gamma 90.000000
_cell_volume 6247.805662
_symmetry_space_group_name_H-M "P 4/M B M"
_symmetry_group_IT_number 127
_symmetry_cell_setting 'tetragonal'
loop_
_space_group_symop_operation_xyz
x,y,z
-y,x,z
-x,-y,z
y,-x,z
1/2+x,1/2-y,-z
1/2-x,1/2+y,-z
1/2+y,1/2+x,-z
1/2-y,1/2-x,-z
-x,-y,-z
y,-x,-z
x,y,-z
-y,x,-z
1/2-x,1/2+y,z
1/2+x,1/2-y,z
1/2-y,1/2-x,z
1/2+y,1/2+x,z
loop_
_atom_site_type_symbol
_atom_site_label
_atom_site_fract_x
_atom_site_fract_y
_atom_site_fract_z
Si Si1 0.147474 0.514395 0.324250
Si Si2 0.252946 0.837071 0.665775
Si Si3 0.064626 0.283485 0.826209
Si Si4 0.412494 0.238411 0.325426
Si Si5 0.957998 0.457998 0.175421
Si Si6 0.002208 0.079850 0.177271
Si Si7 0.193113 0.009014 0.825924
Si Si8 0.184875 0.768473 0.165097
O O1 0.138973 0.508530 0.500000
O O2 0.171154 0.462844 0.260812
O O3 0.185564 0.560261 0.286198
O O4 0.094484 0.524503 0.246240
O O5 0.240411 0.858148 0.500000
O O6 0.290005 0.790005 0.651875
O O7 0.280153 0.878876 0.766059
O O8 0.200712 0.818922 0.743860
O O9 0.038515 0.229438 0.795193
O O10 0.064830 0.297322 0.000000
O O11 0.406013 0.245432 0.500000
O O12 0.442764 0.286372 0.262562
O O13 0.357969 0.236999 0.249971
O O14 0.000000 0.500000 0.211775
O O15 0.950488 0.450488 0.000000
O O16 0.951184 0.051474 0.234291
O O17 0.003926 0.137306 0.237691
O O18 0.002641 0.080535 0.000000
O O19 0.191636 0.023026 0.000000
O O20 0.233175 0.733175 0.149238
O O21 0.166009 0.784738 0.000000
#
# Coordination Sequence:
#
# PCOD8314144 Si02
#       8
#    16  16  16  16   8  16  16  16
#     4  10  22  40  61  85 113 150 191 231 282 348
#     4  10  21  37  56  79 109 146 185 227 274 328
#     4  10  20  35  56  82 112 147 187 234 283 333
#     4  10  21  36  55  80 111 145 182 224 274 332
#     4  11  25  43  63  89 119 147 183 237 293 345
#     4   8  14  26  46  73 104 138 178 225 275 324
#     4   9  18  32  51  77 107 139 180 226 270 322
#     4  10  21  36  55  81 110 142 180 223 272 326
#
# _framework density 19.206745000000002
#
# number of rings (size 3 to 8) (size 9 to 14) (size 15 to 20)
#    0.000    2.333    0.000    2.600    0.933    5.867 
#    0.000    2.667    0.000    0.800    0.000    0.933 
#    0.000    0.000    0.000    0.000    0.000    0.000 
#
# Total GULP energy -1488078.773632 kJ/mol
# GULP energy per Si atom -12400.656447 kJ/mol
# Density = 1.916303 g / cm^3
# Si number density = 19.206745 Si / 1000 Ang^3
#
#
#
# Elastic Constant Matrix: (Units=GPa)
#
#
# Indices 1 2 3 4 5 6 
#
# 1 104.2274 36.5701 48.9497 0.0000 0.0000 0.0000
# 2 36.5701 104.2274 48.9497 0.0000 0.0000 0.0000
# 3 48.9497 48.9497 92.5525 0.0000 0.0000 0.0000
# 4 0.0000 0.0000 0.0000 26.8371 0.0000 0.0000
# 5 0.0000 0.0000 0.0000 0.0000 26.8371 0.0000
# 6 0.0000 0.0000 0.0000 0.0000 0.0000 17.3381
#
#
#
# Elastic Compliance Matrix: (Units=1/GPa)
#
#
# Indices 1 2 3 4 5 6 
#
# 1 0.013007 -0.001773 -0.005941 0.000000 0.000000 0.000000
# 2 -0.001773 0.013007 -0.005941 0.000000 0.000000 0.000000
# 3 -0.005941 -0.005941 0.017089 0.000000 0.000000 0.000000
# 4 0.000000 0.000000 0.000000 0.037262 0.000000 0.000000
# 5 0.000000 0.000000 0.000000 0.000000 0.037262 0.000000
# 6 0.000000 0.000000 0.000000 0.000000 0.000000 0.057676
#
#
# Mechanical properties :
#
#
# Convention : Reuss Voigt Hill
#
# Bulk Modulus (GPa) = 63.32655 63.32740 63.32698
# Shear Modulus (GPa) = 24.05253 25.30500 24.67876
#
# Velocity S-wave (km/s) = 3.54262 3.63368 3.58844
# Velocity P-wave (km/s) = 7.05522 7.11673 7.08604
#
# Compressibility (1/GPa) = 0.01579116
#
# Stress axis : x y z
#
# Youngs Moduli (GPa) = 76.88224 76.88224 58.51678
#
# Poissons Ratio (x) = 0.13635 0.34766
# Poissons Ratio (y) = 0.13635 0.34766
# Poissons Ratio (z) = 0.45677 0.45677
#
# Static dielectric constant tensor:
#      x y z
#    x 3.537390 0.000000 0.000000 
#    y 0.000000 3.537390 0.000000 
#    z 0.000000 0.000000 3.625580 
# 
# 
# High freq. dielectric constant tensor:
#      x y z
#    x 1.744570 0.000000 0.000000 
#    y 0.000000 1.744570 0.000000 
#    z 0.000000 0.000000 1.746070 
# 
# From -- ./inp_files/2406.got.cif
#   From: 2010.03.12/outbox.cif.g09.slc.cpg/sg127_2_cif.got.tgz:2406.got - 2010.04.06 17:03:15.
