data_PCOD8314449
_publ_section_title
;
Structure prediction by ZEFSAII (Michael W. Deem and Ramdas Pophale) SiO2 
 PCOD8314449
Probable space group: P 4/M B M
;
_chemical_formula_sum "Si O2"
_cell_formula_units_Z 72
_cell_length_a 12.245312
_cell_length_b 12.245312
_cell_length_c 24.111507
_cell_angle_alpha 90.000000
_cell_angle_beta 90.000000
_cell_angle_gamma 90.000000
_cell_volume 3615.464198
_symmetry_space_group_name_H-M "P 4/M B M"
_symmetry_group_IT_number 127
_symmetry_cell_setting 'tetragonal'
loop_
_space_group_symop_operation_xyz
x,y,z
-y,x,z
-x,-y,z
y,-x,z
1/2+x,1/2-y,-z
1/2-x,1/2+y,-z
1/2+y,1/2+x,-z
1/2-y,1/2-x,-z
-x,-y,-z
y,-x,-z
x,y,-z
-y,x,-z
1/2-x,1/2+y,z
1/2+x,1/2-y,z
1/2-y,1/2-x,z
1/2+y,1/2+x,z
loop_
_atom_site_type_symbol
_atom_site_label
_atom_site_fract_x
_atom_site_fract_y
_atom_site_fract_z
Si Si1 0.677606 0.464787 0.882303
Si Si2 0.032035 0.176433 0.438706
Si Si3 0.589230 0.910771 0.934469
Si Si4 0.830353 0.499651 0.659625
Si Si5 0.673638 0.466039 0.755161
O O1 0.626706 0.584732 0.895552
O O2 0.787806 0.443219 0.916457
O O3 0.713918 0.457424 0.818296
O O4 0.042034 0.230358 0.500000
O O5 0.050802 0.261449 0.390094
O O6 0.913525 0.124652 0.431568
O O7 0.500000 0.000000 0.912225
O O8 0.588264 0.911737 0.000000
O O9 0.903285 0.596715 0.684684
O O10 0.768277 0.446375 0.711352
O O11 0.904576 0.404576 0.633332
O O12 0.625791 0.584866 0.743386
#
# Coordination Sequence:
#
# PCOD8314449 Si02
#       5
#    16  16   8  16  16
#     4   9  21  43  68  94 125 167 215 262 316 375
#     4   9  19  37  59  79 100 134 184 238 287 338
#     4  11  26  42  62  97 135 169 210 261 315 366
#     4  11  24  36  48  78 118 150 184 225 282 343
#     4   9  19  38  62  86 112 144 190 241 289 344
#
# _framework density 19.914455
#
# number of rings (size 3 to 8) (size 9 to 14) (size 15 to 20)
#    0.000    2.333    0.000    3.333    3.111    8.000 
#    4.000    4.444    0.000    0.000    0.000    0.000 
#    0.000    0.000    0.000    0.000    0.000    0.000 
#
# Total GULP energy -892477.570863 kJ/mol
# GULP energy per Si atom -12395.521818 kJ/mol
# Density = 1.986913 g / cm^3
# Si number density = 19.914455 Si / 1000 Ang^3
#
#
#
# Elastic Constant Matrix: (Units=GPa)
#
#
# Indices 1 2 3 4 5 6 
#
# 1 95.7852 35.6074 40.2332 0.0000 0.0000 0.0000
# 2 35.6074 95.7849 40.2330 0.0000 0.0000 0.0000
# 3 40.2332 40.2330 87.5010 0.0000 0.0000 0.0000
# 4 0.0000 0.0000 0.0000 23.9501 0.0000 0.0000
# 5 0.0000 0.0000 0.0000 0.0000 23.9501 0.0000
# 6 0.0000 0.0000 0.0000 0.0000 0.0000 23.7585
#
#
#
# Elastic Compliance Matrix: (Units=1/GPa)
#
#
# Indices 1 2 3 4 5 6 
#
# 1 0.013606 -0.003012 -0.004871 0.000000 0.000000 0.000000
# 2 -0.003012 0.013606 -0.004871 0.000000 0.000000 0.000000
# 3 -0.004871 -0.004871 0.015908 0.000000 0.000000 0.000000
# 4 0.000000 0.000000 0.000000 0.041753 0.000000 0.000000
# 5 0.000000 0.000000 0.000000 0.000000 0.041753 0.000000
# 6 0.000000 0.000000 0.000000 0.000000 0.000000 0.042090
#
#
# Mechanical properties :
#
#
# Convention : Reuss Voigt Hill
#
# Bulk Modulus (GPa) = 56.78157 56.80202 56.79180
# Shear Modulus (GPa) = 24.98816 25.19824 25.09320
#
# Velocity S-wave (km/s) = 3.54612 3.56100 3.55357
# Velocity P-wave (km/s) = 6.73359 6.74482 6.73921
#
# Compressibility (1/GPa) = 0.01761135
#
# Stress axis : x y z
#
# Youngs Moduli (GPa) = 73.49868 73.49865 62.86180
#
# Poissons Ratio (x) = 0.22136 0.30621
# Poissons Ratio (y) = 0.22136 0.30620
# Poissons Ratio (z) = 0.35802 0.35802
#
# Static dielectric constant tensor:
#      x y z
#    x 3.574160 0.000000 0.000000 
#    y 0.000000 3.574160 0.000000 
#    z 0.000000 0.000000 3.585200 
# 
# 
# High freq. dielectric constant tensor:
#      x y z
#    x 1.775390 0.000000 0.000000 
#    y 0.000000 1.775390 0.000000 
#    z 0.000000 0.000000 1.777310 
# 
# From -- ./inp_files/6297.got.cif
#   From: 2010.03.12/outbox.cif.g09.slc.cpg/sg127_4_cif.got.tgz:6297.got - 2010.04.06 17:03:15.
