data_PCOD8314624
_publ_section_title
;
Structure prediction by ZEFSAII (Michael W. Deem and Ramdas Pophale) SiO2 
 PCOD8314624
Probable space group: P 4/M N C
;
_chemical_formula_sum "Si O2"
_cell_formula_units_Z 88
_cell_length_a 17.918291
_cell_length_b 17.918291
_cell_length_c 15.187037
_cell_angle_alpha 90.000000
_cell_angle_beta 90.000000
_cell_angle_gamma 90.000000
_cell_volume 4876.028348
_symmetry_space_group_name_H-M "P 4/M N C"
_symmetry_group_IT_number 128
_symmetry_cell_setting 'tetragonal'
loop_
_space_group_symop_operation_xyz
x,y,z
-y,x,z
-x,-y,z
y,-x,z
1/2+x,1/2-y,1/2-z
1/2-x,1/2+y,1/2-z
1/2+y,1/2+x,1/2-z
1/2-y,1/2-x,1/2-z
-x,-y,-z
y,-x,-z
x,y,-z
-y,x,-z
1/2-x,1/2+y,1/2+z
1/2+x,1/2-y,1/2+z
1/2-y,1/2-x,1/2+z
1/2+y,1/2+x,1/2+z
loop_
_atom_site_type_symbol
_atom_site_label
_atom_site_fract_x
_atom_site_fract_y
_atom_site_fract_z
Si Si1 0.481218 0.378423 0.500000
Si Si2 0.456242 0.612644 0.828660
Si Si3 0.743564 0.873443 0.760206
Si Si4 0.811230 0.170833 0.401505
Si Si5 0.176187 0.231433 0.101658
Si Si6 0.794988 0.019472 0.166449
O O1 0.562561 0.415242 0.500000
O O2 0.472823 0.327784 0.414435
O O3 0.404753 0.541229 0.851435
O O4 0.418774 0.679088 0.886395
O O5 0.452341 0.635667 0.726181
O O6 0.659904 0.840097 0.750000
O O7 0.786901 0.863393 0.668426
O O8 0.786525 0.832033 0.839006
O O9 0.740902 0.962202 0.780706
O O10 0.836526 0.193072 0.500000
O O11 0.724473 0.192766 0.387481
O O12 0.092323 0.250202 0.134013
O O13 0.174763 0.204060 0.000000
#
# Coordination Sequence:
#
# PCOD8314624 Si02
#       6
#     8  16  16  16  16  16
#     4  11  22  30  46  84 126 160 175 207 285 366
#     4  11  21  34  52  78 112 149 183 225 281 342
#     4  10  21  37  55  78 114 154 190 234 279 334
#     4  10  21  37  53  74 108 151 196 237 274 331
#     4  10  20  34  55  81 111 147 190 233 284 344
#     4  12  20  33  55  79 116 152 189 230 281 342
#
# _framework density 18.047474999999999
#
# number of rings (size 3 to 8) (size 9 to 14) (size 15 to 20)
#    0.000    1.364    4.545    2.182    1.273    2.182 
#    0.000    0.909    0.000    0.000    0.000    2.545 
#    0.000    2.909    0.000    0.000    0.000    0.000 
#
# Total GULP energy -1090653.080814 kJ/mol
# GULP energy per Si atom -12393.785009 kJ/mol
# Density = 1.800640 g / cm^3
# Si number density = 18.047475 Si / 1000 Ang^3
#
#
#
# Elastic Constant Matrix: (Units=GPa)
#
#
# Indices 1 2 3 4 5 6 
#
# 1 86.1638 45.9605 43.5712 0.0000 0.0000 0.0000
# 2 45.9605 86.1627 43.5710 0.0000 0.0000 0.0000
# 3 43.5712 43.5710 113.0551 0.0000 0.0000 0.0000
# 4 0.0000 0.0000 0.0000 22.1912 0.0000 0.0000
# 5 0.0000 0.0000 0.0000 0.0000 22.1911 0.0000
# 6 0.0000 0.0000 0.0000 0.0000 0.0000 30.5778
#
#
#
# Elastic Compliance Matrix: (Units=1/GPa)
#
#
# Indices 1 2 3 4 5 6 
#
# 1 0.017511 -0.007363 -0.003911 0.000000 0.000000 0.000000
# 2 -0.007363 0.017511 -0.003911 0.000000 0.000000 0.000000
# 3 -0.003911 -0.003911 0.011860 0.000000 0.000000 0.000000
# 4 0.000000 0.000000 0.000000 0.045063 0.000000 0.000000
# 5 0.000000 0.000000 0.000000 0.000000 0.045063 0.000000
# 6 0.000000 0.000000 0.000000 0.000000 0.000000 0.032703
#
#
# Mechanical properties :
#
#
# Convention : Reuss Voigt Hill
#
# Bulk Modulus (GPa) = 60.56217 61.28746 60.92481
# Shear Modulus (GPa) = 24.32078 25.14396 24.73237
#
# Velocity S-wave (km/s) = 3.67495 3.73662 3.70592
# Velocity P-wave (km/s) = 7.18589 7.25598 7.22102
#
# Compressibility (1/GPa) = 0.01651196
#
# Stress axis : x y z
#
# Youngs Moduli (GPa) = 57.10712 57.10630 84.31780
#
# Poissons Ratio (x) = 0.42047 0.32977
# Poissons Ratio (y) = 0.42047 0.32978
# Poissons Ratio (z) = 0.22335 0.22335
#
# Static dielectric constant tensor:
#      x y z
#    x 3.338490 0.000000 0.000000 
#    y 0.000000 3.338500 0.000000 
#    z 0.000000 0.000000 3.534080 
# 
# 
# High freq. dielectric constant tensor:
#      x y z
#    x 1.674990 0.000000 0.000000 
#    y 0.000000 1.674990 0.000000 
#    z 0.000000 0.000000 1.715340 
# 
# From -- ./inp_files/3821.got.cif
#   From: 2010.03.12/outbox.cif.g09.slc.cpg/sg128_2_cif.got.tgz:3821.got - 2010.04.06 17:11:05.
