data_PCOD8314606
_publ_section_title
;
Structure prediction by ZEFSAII (Michael W. Deem and Ramdas Pophale) SiO2 
 PCOD8314606
Probable space group: P 4/M N C
;
_chemical_formula_sum "Si O2"
_cell_formula_units_Z 96
_cell_length_a 25.410373
_cell_length_b 25.410373
_cell_length_c 8.939619
_cell_angle_alpha 90.000000
_cell_angle_beta 90.000000
_cell_angle_gamma 90.000000
_cell_volume 5772.196274
_symmetry_space_group_name_H-M "P 4/M N C"
_symmetry_group_IT_number 128
_symmetry_cell_setting 'tetragonal'
loop_
_space_group_symop_operation_xyz
x,y,z
-y,x,z
-x,-y,z
y,-x,z
1/2+x,1/2-y,1/2-z
1/2-x,1/2+y,1/2-z
1/2+y,1/2+x,1/2-z
1/2-y,1/2-x,1/2-z
-x,-y,-z
y,-x,-z
x,y,-z
-y,x,-z
1/2-x,1/2+y,1/2+z
1/2+x,1/2-y,1/2+z
1/2-y,1/2-x,1/2+z
1/2+y,1/2+x,1/2+z
loop_
_atom_site_type_symbol
_atom_site_label
_atom_site_fract_x
_atom_site_fract_y
_atom_site_fract_z
Si Si1 0.442135 0.243282 0.174376
Si Si2 0.940121 0.637840 0.170379
Si Si3 0.139360 0.560772 0.323349
Si Si4 0.355556 0.438473 0.178807
Si Si5 0.557736 0.641487 0.175379
Si Si6 0.947625 0.753248 0.173886
O O1 0.415602 0.195417 0.266171
O O2 0.417281 0.300778 0.211977
O O3 0.502340 0.248916 0.219888
O O4 0.437380 0.229915 0.000000
O O5 0.903194 0.596807 0.250000
O O6 0.917304 0.697357 0.190320
O O7 0.000165 0.634598 0.229610
O O8 0.940373 0.620602 0.000000
O O9 0.091530 0.591530 0.250000
O O10 0.137363 0.567022 0.500000
O O11 0.365301 0.498199 0.237227
O O12 0.403944 0.403392 0.239846
O O13 0.302904 0.415323 0.260175
O O14 0.348761 0.434612 0.000000
O O15 0.553328 0.633898 0.000000
O O16 0.963401 0.761797 0.000000
#
# Coordination Sequence:
#
# PCOD8314606 Si02
#       6
#    16  16  16  16  16  16
#     4   9  16  29  48  68  89 119 156 193 228 269
#     4   9  19  32  47  67  92 118 148 184 225 269
#     4  10  20  33  48  70  96 123 152 186 225 270
#     4   9  16  28  45  67  93 123 154 188 228 273
#     4   8  15  26  44  69  94 119 153 189 226 271
#     4   9  17  30  45  65  90 118 154 192 224 266
#
# _framework density 16.631450999999998
#
# number of rings (size 3 to 8) (size 9 to 14) (size 15 to 20)
#    0.000    3.000    0.000    3.500    0.000    4.667 
#    0.000    7.500    0.000    1.000    0.000    7.000 
#    0.000    0.000    0.000    0.000    0.000    0.000 
#
# Total GULP energy -1189310.013012 kJ/mol
# GULP energy per Si atom -12388.645969 kJ/mol
# Density = 1.659360 g / cm^3
# Si number density = 16.631451 Si / 1000 Ang^3
#
#
#
# Elastic Constant Matrix: (Units=GPa)
#
#
# Indices 1 2 3 4 5 6 
#
# 1 102.8071 66.1207 39.2724 0.0000 0.0000 0.0000
# 2 66.1207 102.8096 39.2700 0.0000 0.0000 0.0000
# 3 39.2724 39.2700 52.0501 0.0000 0.0000 0.0000
# 4 0.0000 0.0000 0.0000 21.5548 0.0000 0.0000
# 5 0.0000 0.0000 0.0000 0.0000 21.5546 0.0000
# 6 0.0000 0.0000 0.0000 0.0000 0.0000 3.0832
#
#
#
# Elastic Compliance Matrix: (Units=1/GPa)
#
#
# Indices 1 2 3 4 5 6 
#
# 1 0.018188 -0.009069 -0.006881 0.000000 0.000000 0.000000
# 2 -0.009069 0.018187 -0.006878 0.000000 0.000000 0.000000
# 3 -0.006881 -0.006878 0.029593 0.000000 0.000000 0.000000
# 4 0.000000 0.000000 0.000000 0.046393 0.000000 0.000000
# 5 0.000000 0.000000 0.000000 0.000000 0.046394 0.000000
# 6 0.000000 0.000000 0.000000 0.000000 0.000000 0.324335
#
#
# Mechanical properties :
#
#
# Convention : Reuss Voigt Hill
#
# Bulk Modulus (GPa) = 49.23325 60.77701 55.00513
# Shear Modulus (GPa) = 9.33673 16.77210 13.05441
#
# Velocity S-wave (km/s) = 2.37194 3.17907 2.80469
# Velocity P-wave (km/s) = 6.09657 7.07800 6.60554
#
# Compressibility (1/GPa) = 0.02031147
#
# Stress axis : x y z
#
# Youngs Moduli (GPa) = 54.97986 54.98453 33.79126
#
# Poissons Ratio (x) = 0.49868 0.23251
# Poissons Ratio (y) = 0.49864 0.23243
# Poissons Ratio (z) = 0.37831 0.37821
#
# Static dielectric constant tensor:
#      x y z
#    x 3.329750 0.000000 0.000000 
#    y 0.000000 3.329760 0.000000 
#    z 0.000000 0.000000 3.069250 
# 
# 
# High freq. dielectric constant tensor:
#      x y z
#    x 1.625080 0.000000 0.000000 
#    y 0.000000 1.625080 0.000000 
#    z 0.000000 0.000000 1.634720 
# 
# From -- ./inp_files/1454.got.cif
#   From: 2010.03.12/outbox.cif.g09.slc.cpg/sg128_1_cif.got.tgz:1454.got - 2010.04.06 17:11:05.
