data_PCOD8314690
_publ_section_title
;
Structure prediction by ZEFSAII (Michael W. Deem and Ramdas Pophale) SiO2 
 PCOD8314690
Probable space group: P 4/M N C
;
_chemical_formula_sum "Si O2"
_cell_formula_units_Z 56
_cell_length_a 18.040049
_cell_length_b 18.040049
_cell_length_c 8.731257
_cell_angle_alpha 90.000000
_cell_angle_beta 90.000000
_cell_angle_gamma 90.000000
_cell_volume 2841.529684
_symmetry_space_group_name_H-M "P 4/M N C"
_symmetry_group_IT_number 128
_symmetry_cell_setting 'tetragonal'
loop_
_space_group_symop_operation_xyz
x,y,z
-y,x,z
-x,-y,z
y,-x,z
1/2+x,1/2-y,1/2-z
1/2-x,1/2+y,1/2-z
1/2+y,1/2+x,1/2-z
1/2-y,1/2-x,1/2-z
-x,-y,-z
y,-x,-z
x,y,-z
-y,x,-z
1/2-x,1/2+y,1/2+z
1/2+x,1/2-y,1/2+z
1/2-y,1/2-x,1/2+z
1/2+y,1/2+x,1/2+z
loop_
_atom_site_type_symbol
_atom_site_label
_atom_site_fract_x
_atom_site_fract_y
_atom_site_fract_z
Si Si1 0.190974 0.415222 0.181201
Si Si2 0.180555 0.819442 0.172312
Si Si3 0.084777 0.690971 0.318799
Si Si4 0.584106 0.584111 0.500000
O O1 0.112349 0.387652 0.250000
O O2 0.252398 0.356408 0.236652
O O3 0.206307 0.500000 0.237179
O O4 0.187235 0.412743 0.000000
O O5 0.143592 0.752393 0.263349
O O6 0.117864 0.882129 0.155165
O O7 0.206188 0.793810 0.000000
O O8 0.112345 0.612345 0.250000
O O9 0.087255 0.687232 0.500000
O O10 0.499997 0.604249 0.500000
#
# Coordination Sequence:
#
# PCOD8314690 Si02
#       4
#    16  16  16   8
#     4  11  24  41  62  89 123 163 207 256 310 366
#     4  10  21  36  63  87 122 156 200 249 303 357
#     4  11  24  41  62  89 123 163 207 256 310 366
#     4   9  18  32  56  90 120 154 196 241 296 356
#
# _framework density 19.707695000000001
#
# number of rings (size 3 to 8) (size 9 to 14) (size 15 to 20)
#    0.857    0.714    0.000    5.143    0.000    4.000 
#    0.000    2.857    0.000    0.000    0.000   12.000 
#    0.000    0.000    0.000    0.000    0.000    0.000 
#
# Total GULP energy -693830.310123 kJ/mol
# GULP energy per Si atom -12389.826966 kJ/mol
# Density = 1.966284 g / cm^3
# Si number density = 19.707695 Si / 1000 Ang^3
#
#
#
# Elastic Constant Matrix: (Units=GPa)
#
#
# Indices 1 2 3 4 5 6 
#
# 1 106.9474 84.1059 46.4316 0.0000 0.0000 0.0000
# 2 84.1059 106.9407 46.4296 0.0000 0.0000 0.0000
# 3 46.4316 46.4296 96.5999 0.0000 0.0000 0.0000
# 4 0.0000 0.0000 0.0000 56.0396 0.0000 0.0000
# 5 0.0000 0.0000 0.0000 0.0000 56.0395 0.0000
# 6 0.0000 0.0000 0.0000 0.0000 0.0000 41.2092
#
#
#
# Elastic Compliance Matrix: (Units=1/GPa)
#
#
# Indices 1 2 3 4 5 6 
#
# 1 0.025307 -0.018478 -0.003283 0.000000 0.000000 0.000000
# 2 -0.018478 0.025309 -0.003283 0.000000 0.000000 0.000000
# 3 -0.003283 -0.003283 0.013508 0.000000 0.000000 0.000000
# 4 0.000000 0.000000 0.000000 0.017845 0.000000 0.000000
# 5 0.000000 0.000000 0.000000 0.000000 0.017845 0.000000
# 6 0.000000 0.000000 0.000000 0.000000 0.000000 0.024266
#
#
# Mechanical properties :
#
#
# Convention : Reuss Voigt Hill
#
# Bulk Modulus (GPa) = 71.24360 73.82469 72.53415
# Shear Modulus (GPa) = 27.95705 39.55905 33.75805
#
# Velocity S-wave (km/s) = 3.77050 4.48514 4.14325
# Velocity P-wave (km/s) = 7.42860 8.02266 7.73134
#
# Compressibility (1/GPa) = 0.01403635
#
# Stress axis : x y z
#
# Youngs Moduli (GPa) = 39.51415 39.51189 74.03194
#
# Poissons Ratio (x) = 0.73011 0.24303
# Poissons Ratio (y) = 0.73015 0.24302
# Poissons Ratio (z) = 0.12972 0.12970
#
# Static dielectric constant tensor:
#      x y z
#    x 3.806760 0.000000 0.000000 
#    y 0.000000 3.806770 0.000000 
#    z 0.000000 0.000000 3.486880 
# 
# 
# High freq. dielectric constant tensor:
#      x y z
#    x 1.778220 0.000000 0.000000 
#    y 0.000000 1.778220 0.000000 
#    z 0.000000 0.000000 1.764100 
# 
# From -- ./inp_files/812.got.cif
#   From: 2010.03.12/outbox.cif.g09.slc.cpg/sg128_1_cif.got.tgz:812.got - 2010.04.06 17:11:05.
