data_PCOD8314761
_publ_section_title
;
Structure prediction by ZEFSAII (Michael W. Deem and Ramdas Pophale) SiO2 
 PCOD8314761
Probable space group: P 4/M N C
;
_chemical_formula_sum "Si O2"
_cell_formula_units_Z 88
_cell_length_a 14.780727
_cell_length_b 14.780727
_cell_length_c 20.186315
_cell_angle_alpha 90.000000
_cell_angle_beta 90.000000
_cell_angle_gamma 90.000000
_cell_volume 4410.102031
_symmetry_space_group_name_H-M "P 4/M N C"
_symmetry_group_IT_number 128
_symmetry_cell_setting 'tetragonal'
loop_
_space_group_symop_operation_xyz
x,y,z
-y,x,z
-x,-y,z
y,-x,z
1/2+x,1/2-y,1/2-z
1/2-x,1/2+y,1/2-z
1/2+y,1/2+x,1/2-z
1/2-y,1/2-x,1/2-z
-x,-y,-z
y,-x,-z
x,y,-z
-y,x,-z
1/2-x,1/2+y,1/2+z
1/2+x,1/2-y,1/2+z
1/2-y,1/2-x,1/2+z
1/2+y,1/2+x,1/2+z
loop_
_atom_site_type_symbol
_atom_site_label
_atom_site_fract_x
_atom_site_fract_y
_atom_site_fract_z
Si Si1 0.873987 0.744863 0.121103
Si Si2 0.813070 0.183363 0.575217
Si Si3 0.445011 0.640359 0.500000
Si Si4 0.444659 0.634850 0.733051
Si Si5 0.724220 0.505847 0.865424
Si Si6 0.942294 0.586371 0.326425
O O1 0.765449 0.743428 0.110019
O O2 0.898715 0.785527 0.192126
O O3 0.911442 0.642899 0.123920
O O4 0.924496 0.800384 0.064347
O O5 0.823621 0.216733 0.500000
O O6 0.907059 0.193901 0.613399
O O7 0.784098 0.077520 0.574504
O O8 0.384100 0.550635 0.500000
O O9 0.383850 0.548490 0.714595
O O10 0.446634 0.660477 0.810193
O O11 0.825692 0.495970 0.838190
O O12 0.913804 0.586197 0.250000
O O13 0.000000 0.500000 0.346754
#
# Coordination Sequence:
#
# PCOD8314761 Si02
#       6
#    16  16   8  16  16  16
#     4  11  23  43  65  92 133 174 218 272 329 400
#     4  11  24  43  66  97 135 178 221 272 332 404
#     4  11  24  44  67  94 126 169 219 276 338 396
#     4  11  22  39  63  98 130 163 214 278 337 393
#     4  11  22  40  67  96 134 171 221 273 334 399
#     4  10  22  41  63  93 129 169 215 270 328 389
#
# _framework density 19.954187000000001
#
# number of rings (size 3 to 8) (size 9 to 14) (size 15 to 20)
#    0.000    1.182    4.545    1.636    0.000    4.727 
#    0.000    1.364    0.000    0.000    0.000    0.000 
#    0.000    0.000    0.000    0.000    0.000    0.000 
#
# Total GULP energy -1091062.795140 kJ/mol
# GULP energy per Si atom -12398.440854 kJ/mol
# Density = 1.990877 g / cm^3
# Si number density = 19.954187 Si / 1000 Ang^3
#
#
#
# Elastic Constant Matrix: (Units=GPa)
#
#
# Indices 1 2 3 4 5 6 
#
# 1 122.0369 62.3156 47.1835 0.0000 0.0000 0.0000
# 2 62.3156 122.0369 47.1835 0.0000 0.0000 0.0000
# 3 47.1835 47.1835 102.1084 0.0000 0.0000 0.0000
# 4 0.0000 0.0000 0.0000 18.5465 0.0000 0.0000
# 5 0.0000 0.0000 0.0000 0.0000 18.5474 0.0000
# 6 0.0000 0.0000 0.0000 0.0000 0.0000 30.7592
#
#
#
# Elastic Compliance Matrix: (Units=1/GPa)
#
#
# Indices 1 2 3 4 5 6 
#
# 1 0.011925 -0.004820 -0.003283 0.000000 0.000000 0.000000
# 2 -0.004820 0.011925 -0.003283 0.000000 0.000000 0.000000
# 3 -0.003283 -0.003283 0.012828 0.000000 0.000000 0.000000
# 4 0.000000 0.000000 0.000000 0.053919 0.000000 0.000000
# 5 0.000000 0.000000 0.000000 0.000000 0.053916 0.000000
# 6 0.000000 0.000000 0.000000 0.000000 0.000000 0.032511
#
#
# Mechanical properties :
#
#
# Convention : Reuss Voigt Hill
#
# Bulk Modulus (GPa) = 71.91607 73.28302 72.59954
# Shear Modulus (GPa) = 24.45830 26.20392 25.33111
#
# Velocity S-wave (km/s) = 3.50483 3.62775 3.56682
# Velocity P-wave (km/s) = 7.24550 7.37243 7.30924
#
# Compressibility (1/GPa) = 0.01390510
#
# Stress axis : x y z
#
# Youngs Moduli (GPa) = 83.85950 83.85943 77.95594
#
# Poissons Ratio (x) = 0.40418 0.25594
# Poissons Ratio (y) = 0.40418 0.25594
# Poissons Ratio (z) = 0.27532 0.27532
#
# Static dielectric constant tensor:
#      x y z
#    x 3.734100 0.000000 0.000000 
#    y 0.000000 3.734090 0.000000 
#    z 0.000000 0.000000 3.590550 
# 
# 
# High freq. dielectric constant tensor:
#      x y z
#    x 1.784380 0.000000 0.000000 
#    y 0.000000 1.784380 0.000000 
#    z 0.000000 0.000000 1.777350 
# 
# From -- ./inp_files/5646.got.cif
#   From: 2010.03.12/outbox.cif.g09.slc.cpg/sg128_3_cif.got.tgz:5646.got - 2010.04.06 17:11:05.
