data_PCOD8314595
_publ_section_title
;
Structure prediction by ZEFSAII (Michael W. Deem and Ramdas Pophale) SiO2 
 PCOD8314595
Probable space group: P 4/M N C
;
_chemical_formula_sum "Si O2"
_cell_formula_units_Z 104
_cell_length_a 19.814896
_cell_length_b 19.814896
_cell_length_c 15.960895
_cell_angle_alpha 90.000000
_cell_angle_beta 90.000000
_cell_angle_gamma 90.000000
_cell_volume 6266.727856
_symmetry_space_group_name_H-M "P 4/M N C"
_symmetry_group_IT_number 128
_symmetry_cell_setting 'tetragonal'
loop_
_space_group_symop_operation_xyz
x,y,z
-y,x,z
-x,-y,z
y,-x,z
1/2+x,1/2-y,1/2-z
1/2-x,1/2+y,1/2-z
1/2+y,1/2+x,1/2-z
1/2-y,1/2-x,1/2-z
-x,-y,-z
y,-x,-z
x,y,-z
-y,x,-z
1/2-x,1/2+y,1/2+z
1/2+x,1/2-y,1/2+z
1/2-y,1/2-x,1/2+z
1/2+y,1/2+x,1/2+z
loop_
_atom_site_type_symbol
_atom_site_label
_atom_site_fract_x
_atom_site_fract_y
_atom_site_fract_z
Si Si1 0.809765 0.724477 0.161342
Si Si2 0.916780 0.822232 0.903254
Si Si3 0.182821 0.251132 0.500000
Si Si4 0.099324 0.049859 0.332396
Si Si5 0.326680 0.565361 0.334477
Si Si6 0.703582 0.844326 0.166626
Si Si7 0.699941 0.841885 0.500000
Si Si8 0.661199 0.396944 0.000000
O O1 0.814949 0.685052 0.250000
O O2 0.880860 0.760693 0.144732
O O3 0.793969 0.671266 0.085521
O O4 0.749690 0.778101 0.167126
O O5 0.872675 0.890121 0.896262
O O6 0.988805 0.834354 0.861962
O O7 0.925130 0.803019 0.000000
O O8 0.262610 0.231309 0.500000
O O9 0.138028 0.182307 0.500000
O O10 0.148153 0.076533 0.260137
O O11 0.133317 0.064636 0.420401
O O12 0.029622 0.089385 0.324241
O O13 0.248877 0.588357 0.337007
O O14 0.656968 0.843033 0.250000
O O15 0.654878 0.844892 0.084578
O O16 0.756852 0.900827 0.500000
#
# Coordination Sequence:
#
# PCOD8314595 Si02
#       8
#    16  16   8  16  16  16   8   8
#     4   9  17  30  49  70  96 121 156 207 258 297
#     4  11  22  34  49  71 100 138 173 207 238 285
#     4   8  16  28  46  71  85 110 152 208 254 313
#     4  11  22  37  46  63  94 136 182 213 232 273
#     4  11  22  33  50  67  98 138 172 205 240 284
#     4   9  17  29  47  69  91 117 156 206 253 295
#     4   8  16  28  46  69  85 102 150 206 254 311
#     4  10  20  31  52  66  82 118 165 220 266 298
#
# _framework density 16.595582
#
# number of rings (size 3 to 8) (size 9 to 14) (size 15 to 20)
#    0.462    1.692    2.308    1.846    8.615    0.923 
#    0.000    0.769    0.000    0.000    0.000    0.000 
#    0.000    0.615    0.000    1.385    0.000    0.615 
#
# Total GULP energy -1289188.130900 kJ/mol
# GULP energy per Si atom -12396.039720 kJ/mol
# Density = 1.655781 g / cm^3
# Si number density = 16.595582 Si / 1000 Ang^3
#
#
#
# Elastic Constant Matrix: (Units=GPa)
#
#
# Indices 1 2 3 4 5 6 
#
# 1 30.1562 27.4453 19.6135 0.0000 0.0000 0.0000
# 2 27.4453 30.1558 19.6135 0.0000 0.0000 0.0000
# 3 19.6135 19.6135 134.8372 0.0000 0.0000 0.0000
# 4 0.0000 0.0000 0.0000 16.5471 0.0000 0.0000
# 5 0.0000 0.0000 0.0000 0.0000 16.5470 0.0000
# 6 0.0000 0.0000 0.0000 0.0000 0.0000 35.5965
#
#
#
# Elastic Compliance Matrix: (Units=1/GPa)
#
#
# Indices 1 2 3 4 5 6 
#
# 1 0.194091 -0.174823 -0.002803 0.000000 0.000000 0.000000
# 2 -0.174823 0.194095 -0.002803 0.000000 0.000000 0.000000
# 3 -0.002803 -0.002803 0.008232 0.000000 0.000000 0.000000
# 4 0.000000 0.000000 0.000000 0.060434 0.000000 0.000000
# 5 0.000000 0.000000 0.000000 0.000000 0.060434 0.000000
# 6 0.000000 0.000000 0.000000 0.000000 0.000000 0.028093
#
#
# Mechanical properties :
#
#
# Convention : Reuss Voigt Hill
#
# Bulk Modulus (GPa) = 28.12224 36.49932 32.31078
# Shear Modulus (GPa) = 5.44609 22.30323 13.87466
#
# Velocity S-wave (km/s) = 1.81350 3.66994 2.89458
# Velocity P-wave (km/s) = 4.62249 6.32448 5.53925
#
# Compressibility (1/GPa) = 0.03555905
#
# Stress axis : x y z
#
# Youngs Moduli (GPa) = 5.15221 5.15213 121.48029
#
# Poissons Ratio (x) = 0.90071 0.34047
# Poissons Ratio (y) = 0.90073 0.34054
# Poissons Ratio (z) = 0.01444 0.01444
#
# Static dielectric constant tensor:
#      x y z
#    x 2.799830 0.000000 0.000000 
#    y 0.000000 2.799830 0.000000 
#    z 0.000000 0.000000 3.521170 
# 
# 
# High freq. dielectric constant tensor:
#      x y z
#    x 1.597060 0.000000 0.000000 
#    y 0.000000 1.597060 0.000000 
#    z 0.000000 0.000000 1.668500 
# 
# From -- ./inp_files/4087.got.cif
#   From: 2010.03.12/outbox.cif.g09.slc.cpg/sg128_3_cif.got.tgz:4087.got - 2010.04.06 17:11:05.
