data_PCOD8314634
_publ_section_title
;
Structure prediction by ZEFSAII (Michael W. Deem and Ramdas Pophale) SiO2 
 PCOD8314634
Probable space group: P 4/M N C
;
_chemical_formula_sum "Si O2"
_cell_formula_units_Z 96
_cell_length_a 24.113633
_cell_length_b 24.113633
_cell_length_c 8.806076
_cell_angle_alpha 90.000000
_cell_angle_beta 90.000000
_cell_angle_gamma 90.000000
_cell_volume 5120.445204
_symmetry_space_group_name_H-M "P 4/M N C"
_symmetry_group_IT_number 128
_symmetry_cell_setting 'tetragonal'
loop_
_space_group_symop_operation_xyz
x,y,z
-y,x,z
-x,-y,z
y,-x,z
1/2+x,1/2-y,1/2-z
1/2-x,1/2+y,1/2-z
1/2+y,1/2+x,1/2-z
1/2-y,1/2-x,1/2-z
-x,-y,-z
y,-x,-z
x,y,-z
-y,x,-z
1/2-x,1/2+y,1/2+z
1/2+x,1/2-y,1/2+z
1/2-y,1/2-x,1/2+z
1/2+y,1/2+x,1/2+z
loop_
_atom_site_type_symbol
_atom_site_label
_atom_site_fract_x
_atom_site_fract_y
_atom_site_fract_z
Si Si1 0.850340 0.145186 0.323391
Si Si2 0.636585 0.055318 0.322382
Si Si3 0.643274 0.937810 0.180158
Si Si4 0.726347 0.853556 0.321667
Si Si5 0.772804 0.646878 0.824198
Si Si6 0.562192 0.562564 0.679539
O O1 0.854505 0.131423 0.500000
O O2 0.862871 0.209224 0.289243
O O3 0.788375 0.132861 0.260431
O O4 0.894580 0.106829 0.241375
O O5 0.581493 0.081493 0.250000
O O6 0.626732 0.044586 0.500000
O O7 0.688825 0.094490 0.291254
O O8 0.650760 0.000005 0.234298
O O9 0.586723 0.913278 0.250000
O O10 0.695707 0.904189 0.240962
O O11 0.640527 0.934661 0.000000
O O12 0.704291 0.795709 0.250000
O O13 0.712766 0.853558 0.500000
O O14 0.797915 0.702086 0.750000
O O15 0.767556 0.661346 0.000000
O O16 0.499761 0.577530 0.735285
O O17 0.564422 0.564778 0.500000
#
# Coordination Sequence:
#
# PCOD8314634 Si02
#       6
#    16  16  16  16  16  16
#     4  10  21  35  55  84 111 139 177 217 261 316
#     4  10  20  36  56  79 109 143 180 223 270 317
#     4  11  22  37  56  78 106 141 182 224 270 319
#     4  10  20  35  54  78 110 143 176 218 265 313
#     4   9  19  35  54  78 110 143 175 216 263 312
#     4   9  20  39  58  77 105 139 176 221 268 312
#
# _framework density 18.748370000000001
#
# number of rings (size 3 to 8) (size 9 to 14) (size 15 to 20)
#    0.000    2.167    0.000    4.500    0.000    5.000 
#    0.000    7.500    0.000    0.000    0.000    0.000 
#    0.000    0.000    0.000    0.000    0.000    0.000 
#
# Total GULP energy -1190393.899975 kJ/mol
# GULP energy per Si atom -12399.936458 kJ/mol
# Density = 1.870570 g / cm^3
# Si number density = 18.748370 Si / 1000 Ang^3
#
#
#
# Elastic Constant Matrix: (Units=GPa)
#
#
# Indices 1 2 3 4 5 6 
#
# 1 133.0874 62.7119 58.9789 0.0000 0.0000 0.0000
# 2 62.7119 133.0904 58.9748 0.0000 0.0000 0.0000
# 3 58.9789 58.9748 102.2683 0.0000 0.0000 0.0000
# 4 0.0000 0.0000 0.0000 31.6023 0.0000 0.0000
# 5 0.0000 0.0000 0.0000 0.0000 31.6026 0.0000
# 6 0.0000 0.0000 0.0000 0.0000 0.0000 25.9123
#
#
#
# Elastic Compliance Matrix: (Units=1/GPa)
#
#
# Indices 1 2 3 4 5 6 
#
# 1 0.011018 -0.003192 -0.004514 0.000000 0.000000 0.000000
# 2 -0.003192 0.011017 -0.004513 0.000000 0.000000 0.000000
# 3 -0.004514 -0.004513 0.014984 0.000000 0.000000 0.000000
# 4 0.000000 0.000000 0.000000 0.031643 0.000000 0.000000
# 5 0.000000 0.000000 0.000000 0.000000 0.031643 0.000000
# 6 0.000000 0.000000 0.000000 0.000000 0.000000 0.038592
#
#
# Mechanical properties :
#
#
# Convention : Reuss Voigt Hill
#
# Bulk Modulus (GPa) = 79.47260 81.08638 80.27949
# Shear Modulus (GPa) = 29.84594 30.34214 30.09404
#
# Velocity S-wave (km/s) = 3.99422 4.02728 4.01079
# Velocity P-wave (km/s) = 7.98453 8.06034 8.02253
#
# Compressibility (1/GPa) = 0.01258295
#
# Stress axis : x y z
#
# Youngs Moduli (GPa) = 90.76020 90.76729 66.73964
#
# Poissons Ratio (x) = 0.28969 0.30124
# Poissons Ratio (y) = 0.28967 0.30117
# Poissons Ratio (z) = 0.40967 0.40960
#
# Static dielectric constant tensor:
#      x y z
#    x 3.551310 0.000000 0.000000 
#    y 0.000000 3.551350 0.000000 
#    z 0.000000 0.000000 3.459630 
# 
# 
# High freq. dielectric constant tensor:
#      x y z
#    x 1.733620 0.000000 0.000000 
#    y 0.000000 1.733620 0.000000 
#    z 0.000000 0.000000 1.731070 
# 
# From -- ./inp_files/1475.got.cif
#   From: 2010.03.12/outbox.cif.g09.slc.cpg/sg128_1_cif.got.tgz:1475.got - 2010.04.06 17:11:05.
