data_PCOD8314963
_publ_section_title
;
Structure prediction by ZEFSAII (Michael W. Deem and Ramdas Pophale) SiO2 
 PCOD8314963
Probable space group: P 4/N M M
;
_chemical_formula_sum "Si O2"
_cell_formula_units_Z 96
_cell_length_a 22.079219
_cell_length_b 22.079219
_cell_length_c 9.843212
_cell_angle_alpha 90.000000
_cell_angle_beta 90.000000
_cell_angle_gamma 90.000000
_cell_volume 4798.486235
_symmetry_space_group_name_H-M "P 4/N M M"
_symmetry_group_IT_number 129
_symmetry_cell_setting 'tetragonal'
loop_
_space_group_symop_operation_xyz
x,y,z
1/2-y,x,z
1/2-x,1/2-y,z
y,1/2-x,z
1/2+x,-y,-z
-x,1/2+y,-z
1/2+y,1/2+x,-z
-y,-x,-z
-x,-y,-z
1/2+y,-x,-z
1/2+x,1/2+y,-z
-y,1/2+x,-z
1/2-x,y,z
x,1/2-y,z
1/2-y,1/2-x,z
y,x,z
loop_
_atom_site_type_symbol
_atom_site_label
_atom_site_fract_x
_atom_site_fract_y
_atom_site_fract_z
Si Si1 0.605158 0.321170 0.096506
Si Si2 0.322876 0.600467 0.408489
Si Si3 0.179148 0.083120 0.704387
Si Si4 0.378218 0.025544 0.449893
Si Si5 0.411297 0.182277 0.213204
Si Si6 0.987344 0.818651 0.043175
O O1 0.598334 0.250000 0.100926
O O2 0.613377 0.342370 0.252401
O O3 0.661297 0.338704 0.000000
O O4 0.545478 0.351245 0.025649
O O5 0.341182 0.658819 0.500000
O O6 0.250000 0.587914 0.422593
O O7 0.365692 0.545938 0.465759
O O8 0.250000 0.093703 0.726015
O O9 0.147231 0.147231 0.729869
O O10 0.165221 0.059558 0.554947
O O11 0.152956 0.033745 0.813248
O O12 0.447968 0.052033 0.468786
O O13 0.356164 0.040833 0.298974
O O14 0.411126 0.250000 0.269227
O O15 0.343992 0.156009 0.229304
O O16 0.430318 0.178126 0.057075
O O17 0.006853 0.750000 0.071602
#
# Coordination Sequence:
#
# PCOD8314963 Si02
#       6
#    16  16  16  16  16  16
#     4  10  22  40  62  89 118 153 195 243 299 362
#     4  11  24  42  66  94 128 164 203 253 308 366
#     4  10  20  33  53  82 115 154 202 253 306 367
#     4  10  21  38  61  86 117 160 207 252 303 357
#     4  10  18  31  53  78 109 149 193 243 300 359
#     4   9  18  34  55  77 106 147 195 233 280 351
#
# _framework density 20.006309000000002
#
# number of rings (size 3 to 8) (size 9 to 14) (size 15 to 20)
#    0.000    2.000    1.667    2.000    2.333    1.667 
#    0.000    1.667    0.000    8.500    0.000    0.000 
#    0.000    0.000    0.000    0.000    0.000    0.000 
#
# Total GULP energy -1189528.230599 kJ/mol
# GULP energy per Si atom -12390.919069 kJ/mol
# Density = 1.996077 g / cm^3
# Si number density = 20.006309 Si / 1000 Ang^3
#
#
#
# Elastic Constant Matrix: (Units=GPa)
#
#
# Indices 1 2 3 4 5 6 
#
# 1 56.7955 34.4858 26.1242 0.0000 0.0000 0.0000
# 2 34.4858 56.8002 26.1257 0.0000 0.0000 0.0000
# 3 26.1242 26.1257 94.0127 0.0000 0.0000 0.0000
# 4 0.0000 0.0000 0.0000 26.8270 0.0000 0.0000
# 5 0.0000 0.0000 0.0000 0.0000 26.8269 0.0000
# 6 0.0000 0.0000 0.0000 0.0000 0.0000 26.4575
#
#
#
# Elastic Compliance Matrix: (Units=1/GPa)
#
#
# Indices 1 2 3 4 5 6 
#
# 1 0.028924 -0.015896 -0.003620 0.000000 0.000000 0.000000
# 2 -0.015896 0.028922 -0.003620 0.000000 0.000000 0.000000
# 3 -0.003620 -0.003620 0.012649 0.000000 0.000000 0.000000
# 4 0.000000 0.000000 0.000000 0.037276 0.000000 0.000000
# 5 0.000000 0.000000 0.000000 0.000000 0.037276 0.000000
# 6 0.000000 0.000000 0.000000 0.000000 0.000000 0.037797
#
#
# Mechanical properties :
#
#
# Convention : Reuss Voigt Hill
#
# Bulk Modulus (GPa) = 41.28385 42.34221 41.81303
# Shear Modulus (GPa) = 21.08023 24.08046 22.58034
#
# Velocity S-wave (km/s) = 3.24956 3.47312 3.36320
# Velocity P-wave (km/s) = 5.89574 6.10686 6.00223
#
# Compressibility (1/GPa) = 0.02422255
#
# Stress axis : x y z
#
# Youngs Moduli (GPa) = 34.57335 34.57604 79.05906
#
# Poissons Ratio (x) = 0.54962 0.28619
# Poissons Ratio (y) = 0.54958 0.28620
# Poissons Ratio (z) = 0.12515 0.12517
#
# Static dielectric constant tensor:
#      x y z
#    x 3.517080 0.000000 0.000000 
#    y 0.000000 3.517090 0.000000 
#    z 0.000000 0.000000 3.836960 
# 
# 
# High freq. dielectric constant tensor:
#      x y z
#    x 1.761910 0.000000 0.000000 
#    y 0.000000 1.761910 0.000000 
#    z 0.000000 0.000000 1.798010 
# 
# From -- ./inp_files/2633.got.cif
#   From: 2010.03.12/outbox.cif.g09.slc.cpg/sg129_2_cif.got.tgz:2633.got - 2010.04.06 17:19:44.
