data_PCOD8314256
_publ_section_title
;
Structure prediction by ZEFSAII (Michael W. Deem and Ramdas Pophale) SiO2 
 PCOD8314256
Probable space group: P 4/M B M
;
_chemical_formula_sum "Si O2"
_cell_formula_units_Z 88
_cell_length_a 13.192810
_cell_length_b 13.192810
_cell_length_c 25.313898
_cell_angle_alpha 90.000000
_cell_angle_beta 90.000000
_cell_angle_gamma 90.000000
_cell_volume 4405.889913
_symmetry_space_group_name_H-M "P 4/M B M"
_symmetry_group_IT_number 127
_symmetry_cell_setting 'tetragonal'
loop_
_space_group_symop_operation_xyz
x,y,z
-y,x,z
-x,-y,z
y,-x,z
1/2+x,1/2-y,-z
1/2-x,1/2+y,-z
1/2+y,1/2+x,-z
1/2-y,1/2-x,-z
-x,-y,-z
y,-x,-z
x,y,-z
-y,x,-z
1/2-x,1/2+y,z
1/2+x,1/2-y,z
1/2-y,1/2-x,z
1/2+y,1/2+x,z
loop_
_atom_site_type_symbol
_atom_site_label
_atom_site_fract_x
_atom_site_fract_y
_atom_site_fract_z
Si Si1 0.086838 0.243802 0.560488
Si Si2 0.774950 0.893499 0.621460
Si Si3 0.902374 0.764660 0.196980
Si Si4 0.834478 0.016846 0.912503
Si Si5 0.332657 0.002179 0.000000
Si Si6 0.740242 0.407331 0.739775
O O1 0.060508 0.219428 0.500000
O O2 0.165081 0.334920 0.565016
O O3 0.127539 0.141488 0.588035
O O4 0.987485 0.277490 0.592185
O O5 0.695905 0.804096 0.622084
O O6 0.807548 0.918639 0.681439
O O7 0.826103 0.673898 0.182157
O O8 0.969671 0.797326 0.147118
O O9 0.842109 0.860260 0.220378
O O10 0.981478 0.726806 0.240904
O O11 0.910558 0.109618 0.924026
O O12 0.735809 0.016190 0.948770
O O13 0.418850 0.918850 0.000000
O O14 0.386157 0.113844 0.000000
O O15 0.841003 0.341003 0.738266
#
# Coordination Sequence:
#
# PCOD8314256 Si02
#       6
#    16  16  16  16   8  16
#     4  10  21  37  57  82 112 149 196 248 304 367
#     4  10  21  38  58  83 116 155 197 246 304 368
#     4  11  22  39  63  90 124 162 204 254 308 362
#     4  11  23  42  68  97 127 165 214 260 307 364
#     4  11  26  45  66  96 134 175 212 255 312 364
#     4  10  22  38  59  87 119 158 203 248 305 369
#
# _framework density 19.973262999999999
#
# number of rings (size 3 to 8) (size 9 to 14) (size 15 to 20)
#    0.000    1.545    1.818    2.727    0.000    8.364 
#    0.000    5.455    0.000    0.000    0.000    0.000 
#    0.000    0.000    0.000    0.000    0.000    0.000 
#
# Total GULP energy -1091268.659303 kJ/mol
# GULP energy per Si atom -12400.780219 kJ/mol
# Density = 1.992780 g / cm^3
# Si number density = 19.973263 Si / 1000 Ang^3
#
#
#
# Elastic Constant Matrix: (Units=GPa)
#
#
# Indices 1 2 3 4 5 6 
#
# 1 71.3719 4.2148 36.7133 0.0000 0.0000 0.0000
# 2 4.2148 71.3712 36.7131 0.0000 0.0000 0.0000
# 3 36.7133 36.7131 128.5721 0.0000 0.0000 0.0000
# 4 0.0000 0.0000 0.0000 31.4402 0.0000 0.0000
# 5 0.0000 0.0000 0.0000 0.0000 31.4405 0.0000
# 6 0.0000 0.0000 0.0000 0.0000 0.0000 10.7775
#
#
#
# Elastic Compliance Matrix: (Units=1/GPa)
#
#
# Indices 1 2 3 4 5 6 
#
# 1 0.016599 0.001709 -0.005228 0.000000 0.000000 0.000000
# 2 0.001709 0.016600 -0.005228 0.000000 0.000000 0.000000
# 3 -0.005228 -0.005228 0.010763 0.000000 0.000000 0.000000
# 4 0.000000 0.000000 0.000000 0.031806 0.000000 0.000000
# 5 0.000000 0.000000 0.000000 0.000000 0.031806 0.000000
# 6 0.000000 0.000000 0.000000 0.000000 0.000000 0.092786
#
#
# Mechanical properties :
#
#
# Convention : Reuss Voigt Hill
#
# Bulk Modulus (GPa) = 37.78063 47.39975 42.59019
# Shear Modulus (GPa) = 22.05782 27.64323 24.85053
#
# Velocity S-wave (km/s) = 3.32681 3.72427 3.53113
# Velocity P-wave (km/s) = 5.80634 6.50205 6.16402
#
# Compressibility (1/GPa) = 0.02646859
#
# Stress axis : x y z
#
# Youngs Moduli (GPa) = 60.24315 60.24257 92.90792
#
# Poissons Ratio (x) = -0.10295 0.48571
# Poissons Ratio (y) = -0.10295 0.48571
# Poissons Ratio (z) = 0.31494 0.31494
#
# Static dielectric constant tensor:
#      x y z
#    x 3.554160 0.000000 0.000000 
#    y 0.000000 3.554160 0.000000 
#    z 0.000000 0.000000 3.873490 
# 
# 
# High freq. dielectric constant tensor:
#      x y z
#    x 1.776910 0.000000 0.000000 
#    y 0.000000 1.776910 0.000000 
#    z 0.000000 0.000000 1.796960 
# 
# From -- ./inp_files/6553.got.cif
#   From: 2010.03.12/outbox.cif.g09.slc.cpg/sg127_4_cif.got.tgz:6553.got - 2010.04.06 17:03:15.
