data_PCOD8314998
_publ_section_title
;
Structure prediction by ZEFSAII (Michael W. Deem and Ramdas Pophale) SiO2 
 PCOD8314998
Probable space group: P 4/N M M
;
_chemical_formula_sum "Si O2"
_cell_formula_units_Z 96
_cell_length_a 14.409932
_cell_length_b 14.409932
_cell_length_c 30.541835
_cell_angle_alpha 90.000000
_cell_angle_beta 90.000000
_cell_angle_gamma 90.000000
_cell_volume 6341.894154
_symmetry_space_group_name_H-M "P 4/N M M"
_symmetry_group_IT_number 129
_symmetry_cell_setting 'tetragonal'
loop_
_space_group_symop_operation_xyz
x,y,z
1/2-y,x,z
1/2-x,1/2-y,z
y,1/2-x,z
1/2+x,-y,-z
-x,1/2+y,-z
1/2+y,1/2+x,-z
-y,-x,-z
-x,-y,-z
1/2+y,-x,-z
1/2+x,1/2+y,-z
-y,1/2+x,-z
1/2-x,y,z
x,1/2-y,z
1/2-y,1/2-x,z
y,x,z
loop_
_atom_site_type_symbol
_atom_site_label
_atom_site_fract_x
_atom_site_fract_y
_atom_site_fract_z
Si Si1 0.512366 0.140216 0.374972
Si Si2 0.144209 0.506121 0.781635
Si Si3 0.855846 0.356769 0.294530
Si Si4 0.353152 0.640208 0.548781
Si Si5 0.139517 0.647356 0.951840
Si Si6 0.494487 0.643082 0.119576
O O1 0.489576 0.250000 0.377526
O O2 0.574700 0.115460 0.333116
O O3 0.570992 0.104243 0.416757
O O4 0.415769 0.084232 0.372810
O O5 0.250000 0.475129 0.774702
O O6 0.083720 0.416281 0.771083
O O7 0.115869 0.587920 0.748900
O O8 0.128456 0.543121 0.831050
O O9 0.750000 0.378271 0.309439
O O10 0.866991 0.250000 0.282042
O O11 0.387164 0.612837 0.500000
O O12 0.250000 0.598226 0.558336
O O13 0.345043 0.750000 0.552719
O O14 0.250000 0.652625 0.949899
O O15 0.097908 0.750000 0.943642
O O16 0.100640 0.580735 0.913905
O O17 0.109912 0.609912 0.000000
O O18 0.514204 0.750000 0.109158
O O19 0.591484 0.591484 0.112798
#
# Coordination Sequence:
#
# PCOD8314998 Si02
#       6
#    16  16  16  16  16  16
#     4  10  19  29  42  60  83 111 138 163 193 231
#     4   9  17  28  41  58  81 106 131 159 190 229
#     4   9  17  29  45  63  80  99 127 165 207 242
#     4   8  14  26  44  64  84 104 129 166 207 239
#     4   8  14  25  40  57  77 100 127 162 201 235
#     4   9  17  27  39  57  80 106 133 158 187 227
#
# _framework density 15.137434000000001
#
# number of rings (size 3 to 8) (size 9 to 14) (size 15 to 20)
#    0.000    3.167    0.000    2.000    0.000    3.833 
#    0.000    5.000    0.000    0.000    0.000    0.000 
#    0.000    3.333    0.000    4.333    0.000    6.500 
#
# Total GULP energy -1189913.256608 kJ/mol
# GULP energy per Si atom -12394.929756 kJ/mol
# Density = 1.510298 g / cm^3
# Si number density = 15.137434 Si / 1000 Ang^3
#
#
#
# Elastic Constant Matrix: (Units=GPa)
#
#
# Indices 1 2 3 4 5 6 
#
# 1 64.3375 42.3310 56.5818 0.0000 0.0000 0.0000
# 2 42.3310 64.3376 56.5818 0.0000 0.0000 0.0000
# 3 56.5818 56.5818 121.2741 0.0000 0.0000 0.0000
# 4 0.0000 0.0000 0.0000 19.0438 0.0000 0.0000
# 5 0.0000 0.0000 0.0000 0.0000 19.0438 0.0000
# 6 0.0000 0.0000 0.0000 0.0000 0.0000 20.4183
#
#
#
# Elastic Compliance Matrix: (Units=1/GPa)
#
#
# Indices 1 2 3 4 5 6 
#
# 1 0.032002 -0.013439 -0.008661 0.000000 0.000000 0.000000
# 2 -0.013439 0.032002 -0.008661 0.000000 0.000000 0.000000
# 3 -0.008661 -0.008661 0.016327 0.000000 0.000000 0.000000
# 4 0.000000 0.000000 0.000000 0.052510 0.000000 0.000000
# 5 0.000000 0.000000 0.000000 0.000000 0.052511 0.000000
# 6 0.000000 0.000000 0.000000 0.000000 0.000000 0.048976
#
#
# Mechanical properties :
#
#
# Convention : Reuss Voigt Hill
#
# Bulk Modulus (GPa) = 53.16264 62.32647 57.74456
# Shear Modulus (GPa) = 16.54976 17.99815 17.27396
#
# Velocity S-wave (km/s) = 3.31010 3.45190 3.38174
# Velocity P-wave (km/s) = 7.05728 7.55980 7.31286
#
# Compressibility (1/GPa) = 0.01881020
#
# Stress axis : x y z
#
# Youngs Moduli (GPa) = 31.24806 31.24816 61.24709
#
# Poissons Ratio (x) = 0.41994 0.53045
# Poissons Ratio (y) = 0.41994 0.53044
# Poissons Ratio (z) = 0.27063 0.27063
#
# Static dielectric constant tensor:
#      x y z
#    x 2.782310 0.000000 0.000000 
#    y 0.000000 2.782310 0.000000 
#    z 0.000000 0.000000 3.216620 
# 
# 
# High freq. dielectric constant tensor:
#      x y z
#    x 1.556560 0.000000 0.000000 
#    y 0.000000 1.556560 0.000000 
#    z 0.000000 0.000000 1.594000 
# 
# From -- ./inp_files/7835.got.cif
#   From: 2010.03.12/outbox.cif.g09.slc.cpg/sg129_4_cif.got.tgz:7835.got - 2010.04.06 17:19:44.
