data_PCOD8314164
_publ_section_title
;
Structure prediction by ZEFSAII (Michael W. Deem and Ramdas Pophale) SiO2 
 PCOD8314164
Probable space group: P 4/M B M
;
_chemical_formula_sum "Si O2"
_cell_formula_units_Z 96
_cell_length_a 24.509605
_cell_length_b 24.509605
_cell_length_c 7.942234
_cell_angle_alpha 90.000000
_cell_angle_beta 90.000000
_cell_angle_gamma 90.000000
_cell_volume 4771.064664
_symmetry_space_group_name_H-M "P 4/M B M"
_symmetry_group_IT_number 127
_symmetry_cell_setting 'tetragonal'
loop_
_space_group_symop_operation_xyz
x,y,z
-y,x,z
-x,-y,z
y,-x,z
1/2+x,1/2-y,-z
1/2-x,1/2+y,-z
1/2+y,1/2+x,-z
1/2-y,1/2-x,-z
-x,-y,-z
y,-x,-z
x,y,-z
-y,x,-z
1/2-x,1/2+y,z
1/2+x,1/2-y,z
1/2-y,1/2-x,z
1/2+y,1/2+x,z
loop_
_atom_site_type_symbol
_atom_site_label
_atom_site_fract_x
_atom_site_fract_y
_atom_site_fract_z
Si Si1 0.858560 0.079509 0.805232
Si Si2 0.044312 0.455689 0.701047
Si Si3 0.656258 0.995864 0.308109
Si Si4 0.797488 0.867633 0.194408
Si Si5 0.068983 0.944965 0.500000
Si Si6 0.294889 0.205112 0.815026
Si Si7 0.884959 0.384959 0.813059
Si Si8 0.488123 0.275448 0.807499
O O1 0.841074 0.142739 0.789991
O O2 0.908206 0.076562 0.676467
O O3 0.811829 0.038348 0.736687
O O4 0.876168 0.067255 0.000000
O O5 0.042206 0.457795 0.500000
O O6 0.105441 0.469191 0.766232
O O7 0.000000 0.500000 0.770470
O O8 0.667494 0.011889 0.500000
O O9 0.639852 0.933277 0.295822
O O10 0.712368 0.005645 0.208886
O O11 0.756526 0.823294 0.281089
O O12 0.790205 0.928889 0.276613
O O13 0.779377 0.873911 0.000000
O O14 0.008674 0.923506 0.500000
O O15 0.340110 0.159891 0.836351
O O16 0.274981 0.225020 0.000000
O O17 0.904299 0.404299 0.000000
O O18 0.483257 0.291562 0.000000
#
# Coordination Sequence:
#
# PCOD8314164 Si02
#       8
#    16   8  16  16   8   8   8  16
#     4  10  22  40  61  86 121 159 196 241 301 365
#     4   9  18  34  51  72 110 153 188 230 288 353
#     4  11  21  34  55  80 111 151 193 236 292 354
#     4   9  17  33  56  82 112 150 189 233 293 355
#     4  11  24  40  62  91 120 150 195 243 290 354
#     4   9  16  29  53  81 110 146 187 235 296 352
#     4  11  19  32  52  80 115 143 181 244 298 349
#     4  10  20  36  58  83 112 147 190 239 294 355
#
# _framework density 20.121293999999999
#
# number of rings (size 3 to 8) (size 9 to 14) (size 15 to 20)
#    0.000    2.000    2.500    1.750    1.167    2.000 
#    1.500    3.750    0.000    2.000    0.000    0.000 
#    0.000    0.000    0.000    0.000    0.000    0.000 
#
# Total GULP energy -1189347.670515 kJ/mol
# GULP energy per Si atom -12389.038235 kJ/mol
# Density = 2.007550 g / cm^3
# Si number density = 20.121294 Si / 1000 Ang^3
#
#
#
# Elastic Constant Matrix: (Units=GPa)
#
#
# Indices 1 2 3 4 5 6 
#
# 1 122.0149 47.5221 12.5149 0.0000 0.0000 0.0000
# 2 47.5221 122.0143 12.5149 0.0000 0.0000 0.0000
# 3 12.5149 12.5149 45.1097 0.0000 0.0000 0.0000
# 4 0.0000 0.0000 0.0000 18.1088 0.0000 0.0000
# 5 0.0000 0.0000 0.0000 0.0000 18.1088 0.0000
# 6 0.0000 0.0000 0.0000 0.0000 0.0000 42.8387
#
#
#
# Elastic Compliance Matrix: (Units=1/GPa)
#
#
# Indices 1 2 3 4 5 6 
#
# 1 0.009787 -0.003637 -0.001706 0.000000 0.000000 0.000000
# 2 -0.003637 0.009787 -0.001706 0.000000 0.000000 0.000000
# 3 -0.001706 -0.001706 0.023115 0.000000 0.000000 0.000000
# 4 0.000000 0.000000 0.000000 0.055222 0.000000 0.000000
# 5 0.000000 0.000000 0.000000 0.000000 0.055222 0.000000
# 6 0.000000 0.000000 0.000000 0.000000 0.000000 0.023343
#
#
# Mechanical properties :
#
#
# Convention : Reuss Voigt Hill
#
# Bulk Modulus (GPa) = 34.97675 48.24918 41.61297
# Shear Modulus (GPa) = 24.98678 30.25037 27.61857
#
# Velocity S-wave (km/s) = 3.52775 3.88158 3.70889
# Velocity P-wave (km/s) = 5.83216 6.64229 6.25037
#
# Compressibility (1/GPa) = 0.02859042
#
# Stress axis : x y z
#
# Youngs Moduli (GPa) = 102.17399 102.17341 43.26203
#
# Poissons Ratio (x) = 0.37160 0.07382
# Poissons Ratio (y) = 0.37160 0.07382
# Poissons Ratio (z) = 0.17434 0.17434
#
# Static dielectric constant tensor:
#      x y z
#    x 3.773830 0.000000 0.000000 
#    y 0.000000 3.773820 0.000000 
#    z 0.000000 0.000000 3.535020 
# 
# 
# High freq. dielectric constant tensor:
#      x y z
#    x 1.782200 0.000000 0.000000 
#    y 0.000000 1.782200 0.000000 
#    z 0.000000 0.000000 1.757790 
# 
# From -- ./inp_files/2149.got.cif
#   From: 2010.03.12/outbox.cif.g09.slc.cpg/sg127_2_cif.got.tgz:2149.got - 2010.04.06 17:03:15.
