data_PCOD8314385
_publ_section_title
;
Structure prediction by ZEFSAII (Michael W. Deem and Ramdas Pophale) SiO2 
 PCOD8314385
Probable space group: P 4/M B M
;
_chemical_formula_sum "Si O2"
_cell_formula_units_Z 72
_cell_length_a 22.136549
_cell_length_b 22.136549
_cell_length_c 7.717649
_cell_angle_alpha 90.000000
_cell_angle_beta 90.000000
_cell_angle_gamma 90.000000
_cell_volume 3781.854856
_symmetry_space_group_name_H-M "P 4/M B M"
_symmetry_group_IT_number 127
_symmetry_cell_setting 'tetragonal'
loop_
_space_group_symop_operation_xyz
x,y,z
-y,x,z
-x,-y,z
y,-x,z
1/2+x,1/2-y,-z
1/2-x,1/2+y,-z
1/2+y,1/2+x,-z
1/2-y,1/2-x,-z
-x,-y,-z
y,-x,-z
x,y,-z
-y,x,-z
1/2-x,1/2+y,z
1/2+x,1/2-y,z
1/2-y,1/2-x,z
1/2+y,1/2+x,z
loop_
_atom_site_type_symbol
_atom_site_label
_atom_site_fract_x
_atom_site_fract_y
_atom_site_fract_z
Si Si1 0.735064 0.860248 0.798079
Si Si2 0.177685 0.980319 0.793654
Si Si3 0.891326 0.134964 0.795980
Si Si4 0.013957 0.691524 0.307279
Si Si5 0.899940 0.498921 0.000000
O O1 0.702529 0.797472 0.752079
O O2 0.805156 0.853311 0.745334
O O3 0.703239 0.914420 0.697315
O O4 0.729611 0.877201 0.000000
O O5 0.141534 0.923231 0.713760
O O6 0.143261 0.040396 0.725829
O O7 0.246359 0.978221 0.728563
O O8 0.179153 0.979733 0.000000
O O9 0.893258 0.125686 0.000000
O O10 0.997393 0.668430 0.500000
O O11 0.994924 0.640638 0.171134
O O12 0.934797 0.434797 0.000000
O O13 0.946340 0.553661 0.000000
#
# Coordination Sequence:
#
# PCOD8314385 Si02
#       5
#    16  16  16  16   8
#     4   9  16  30  52  79 109 140 182 233 279 325
#     4   9  16  32  52  77 115 150 192 232 277 327
#     4   8  15  26  48  76 108 152 191 229 277 327
#     4  11  21  36  59  84 111 147 185 224 277 335
#     4  11  24  42  62  84 112 143 178 228 280 331
#
# _framework density 19.038277999999998
#
# number of rings (size 3 to 8) (size 9 to 14) (size 15 to 20)
#    0.000    2.556    2.222    2.000    0.000    2.667 
#    0.000    8.889    0.000    0.000    0.000    6.222 
#    0.000    0.000    0.000    0.000    0.000    0.000 
#
# Total GULP energy -892532.176648 kJ/mol
# GULP energy per Si atom -12396.280231 kJ/mol
# Density = 1.899495 g / cm^3
# Si number density = 19.038278 Si / 1000 Ang^3
#
#
#
# Elastic Constant Matrix: (Units=GPa)
#
#
# Indices 1 2 3 4 5 6 
#
# 1 120.8797 76.8411 35.4130 0.0000 0.0000 0.0000
# 2 76.8411 120.8820 35.4134 0.0000 0.0000 0.0000
# 3 35.4130 35.4134 86.4241 0.0000 0.0000 0.0000
# 4 0.0000 0.0000 0.0000 4.8637 0.0000 0.0000
# 5 0.0000 0.0000 0.0000 0.0000 4.8642 0.0000
# 6 0.0000 0.0000 0.0000 0.0000 0.0000 31.2888
#
#
#
# Elastic Compliance Matrix: (Units=1/GPa)
#
#
# Indices 1 2 3 4 5 6 
#
# 1 0.014317 -0.008390 -0.002429 0.000000 0.000000 0.000000
# 2 -0.008390 0.014317 -0.002429 0.000000 0.000000 0.000000
# 3 -0.002429 -0.002429 0.013561 0.000000 0.000000 0.000000
# 4 0.000000 0.000000 0.000000 0.205607 0.000000 0.000000
# 5 0.000000 0.000000 0.000000 0.000000 0.205586 0.000000
# 6 0.000000 0.000000 0.000000 0.000000 0.000000 0.031960
#
#
# Mechanical properties :
#
#
# Convention : Reuss Voigt Hill
#
# Bulk Modulus (GPa) = 63.69002 69.28008 66.48505
# Shear Modulus (GPa) = 9.66974 20.23789 14.95382
#
# Velocity S-wave (km/s) = 2.25613 3.26392 2.80565
# Velocity P-wave (km/s) = 6.34926 7.11851 6.74486
#
# Compressibility (1/GPa) = 0.01570105
#
# Stress axis : x y z
#
# Youngs Moduli (GPa) = 69.84529 69.84660 73.73874
#
# Poissons Ratio (x) = 0.58598 0.17911
# Poissons Ratio (y) = 0.58597 0.17911
# Poissons Ratio (z) = 0.16965 0.16965
#
# Static dielectric constant tensor:
#      x y z
#    x 3.605240 0.000000 0.000000 
#    y 0.000000 3.605240 0.000000 
#    z 0.000000 0.000000 3.261490 
# 
# 
# High freq. dielectric constant tensor:
#      x y z
#    x 1.731530 0.000000 0.000000 
#    y 0.000000 1.731530 0.000000 
#    z 0.000000 0.000000 1.724230 
# 
# From -- ./inp_files/1527.got.cif
#   From: 2010.03.12/outbox.cif.g09.slc.cpg/sg127_1_cif.got.tgz:1527.got - 2010.04.06 17:03:15.
