data_PCOD8314026
_publ_section_title
;
Structure prediction by ZEFSAII (Michael W. Deem and Ramdas Pophale) SiO2 
 PCOD8314026
Probable space group: P 4/M B M
;
_chemical_formula_sum "Si O2"
_cell_formula_units_Z 72
_cell_length_a 18.718926
_cell_length_b 18.718926
_cell_length_c 11.918902
_cell_angle_alpha 90.000000
_cell_angle_beta 90.000000
_cell_angle_gamma 90.000000
_cell_volume 4176.361695
_symmetry_space_group_name_H-M "P 4/M B M"
_symmetry_group_IT_number 127
_symmetry_cell_setting 'tetragonal'
loop_
_space_group_symop_operation_xyz
x,y,z
-y,x,z
-x,-y,z
y,-x,z
1/2+x,1/2-y,-z
1/2-x,1/2+y,-z
1/2+y,1/2+x,-z
1/2-y,1/2-x,-z
-x,-y,-z
y,-x,-z
x,y,-z
-y,x,-z
1/2-x,1/2+y,z
1/2+x,1/2-y,z
1/2-y,1/2-x,z
1/2+y,1/2+x,z
loop_
_atom_site_type_symbol
_atom_site_label
_atom_site_fract_x
_atom_site_fract_y
_atom_site_fract_z
Si Si1 0.943602 0.556399 0.633278
Si Si2 0.096149 0.193300 0.000000
Si Si3 0.145877 0.238136 0.235078
Si Si4 0.069410 0.794874 0.000000
Si Si5 0.517409 0.213940 0.632873
Si Si6 0.738437 0.879432 0.230115
O O1 0.945047 0.554954 0.500000
O O2 0.865617 0.534617 0.676734
O O3 0.000000 0.500000 0.683406
O O4 0.120314 0.239224 0.893291
O O5 0.133224 0.115992 0.000000
O O6 0.011983 0.179906 0.000000
O O7 0.190169 0.309832 0.259484
O O8 0.077879 0.233920 0.317121
O O9 0.193733 0.169122 0.260231
O O10 0.086062 0.746157 0.107547
O O11 0.518549 0.220302 0.500000
O O12 0.439839 0.236373 0.675497
O O13 0.665928 0.834073 0.232695
#
# Coordination Sequence:
#
# PCOD8314026 Si02
#       6
#     8   8  16   8  16  16
#     4   9  18  32  50  73 105 141 177 217 262 313
#     4  10  19  34  57  82 106 134 175 222 274 324
#     4  10  20  36  57  80 107 142 182 223 269 322
#     4  10  19  34  57  82 106 136 173 222 274 324
#     4  11  21  34  54  79 108 146 185 221 264 317
#     4  10  21  36  56  81 109 141 180 225 270 320
#
# _framework density 17.239887
#
# number of rings (size 3 to 8) (size 9 to 14) (size 15 to 20)
#    0.000    1.889    3.333    1.333    0.000    5.111 
#    0.000    2.222    0.000    0.667    0.000    6.222 
#    0.000    0.000    0.000    0.000    0.000    0.000 
#
# Total GULP energy -893038.656491 kJ/mol
# GULP energy per Si atom -12403.314673 kJ/mol
# Density = 1.720065 g / cm^3
# Si number density = 17.239887 Si / 1000 Ang^3
#
#
#
# Elastic Constant Matrix: (Units=GPa)
#
#
# Indices 1 2 3 4 5 6 
#
# 1 109.3166 45.8374 51.1273 0.0000 0.0000 0.0000
# 2 45.8374 109.3166 51.1272 0.0000 0.0000 0.0000
# 3 51.1273 51.1272 104.7745 0.0000 0.0000 0.0000
# 4 0.0000 0.0000 0.0000 26.5731 0.0000 0.0000
# 5 0.0000 0.0000 0.0000 0.0000 26.5731 0.0000
# 6 0.0000 0.0000 0.0000 0.0000 0.0000 19.4469
#
#
#
# Elastic Compliance Matrix: (Units=1/GPa)
#
#
# Indices 1 2 3 4 5 6 
#
# 1 0.012627 -0.003126 -0.004636 0.000000 0.000000 0.000000
# 2 -0.003126 0.012627 -0.004636 0.000000 0.000000 0.000000
# 3 -0.004636 -0.004636 0.014069 0.000000 0.000000 0.000000
# 4 0.000000 0.000000 0.000000 0.037632 0.000000 0.000000
# 5 0.000000 0.000000 0.000000 0.000000 0.037632 0.000000
# 6 0.000000 0.000000 0.000000 0.000000 0.000000 0.051422
#
#
# Mechanical properties :
#
#
# Convention : Reuss Voigt Hill
#
# Bulk Modulus (GPa) = 68.84273 68.84351 68.84312
# Shear Modulus (GPa) = 25.55617 26.20635 25.88126
#
# Velocity S-wave (km/s) = 3.85435 3.90308 3.87879
# Velocity P-wave (km/s) = 7.73479 7.76733 7.75108
#
# Compressibility (1/GPa) = 0.01452586
#
# Stress axis : x y z
#
# Youngs Moduli (GPa) = 79.19593 79.19604 71.07903
#
# Poissons Ratio (x) = 0.24759 0.32953
# Poissons Ratio (y) = 0.24759 0.32952
# Poissons Ratio (z) = 0.36716 0.36716
#
# Static dielectric constant tensor:
#      x y z
#    x 3.246580 0.000000 0.000000 
#    y 0.000000 3.246580 0.000000 
#    z 0.000000 0.000000 3.103260 
# 
# 
# High freq. dielectric constant tensor:
#      x y z
#    x 1.668540 0.000000 0.000000 
#    y 0.000000 1.668540 0.000000 
#    z 0.000000 0.000000 1.660710 
# 
# From -- ./inp_files/3218.got.cif
#   From: 2010.03.12/outbox.cif.g09.slc.cpg/sg127_2_cif.got.tgz:3218.got - 2010.04.06 17:03:15.
