data_PCOD8314156
_publ_section_title
;
Structure prediction by ZEFSAII (Michael W. Deem and Ramdas Pophale) SiO2 
 PCOD8314156
Probable space group: P 4/M B M
;
_chemical_formula_sum "Si O2"
_cell_formula_units_Z 104
_cell_length_a 17.267461
_cell_length_b 17.267461
_cell_length_c 18.397040
_cell_angle_alpha 90.000000
_cell_angle_beta 90.000000
_cell_angle_gamma 90.000000
_cell_volume 5485.357284
_symmetry_space_group_name_H-M "P 4/M B M"
_symmetry_group_IT_number 127
_symmetry_cell_setting 'tetragonal'
loop_
_space_group_symop_operation_xyz
x,y,z
-y,x,z
-x,-y,z
y,-x,z
1/2+x,1/2-y,-z
1/2-x,1/2+y,-z
1/2+y,1/2+x,-z
1/2-y,1/2-x,-z
-x,-y,-z
y,-x,-z
x,y,-z
-y,x,-z
1/2-x,1/2+y,z
1/2+x,1/2-y,z
1/2-y,1/2-x,z
1/2+y,1/2+x,z
loop_
_atom_site_type_symbol
_atom_site_label
_atom_site_fract_x
_atom_site_fract_y
_atom_site_fract_z
Si Si1 0.941288 0.887127 0.000000
Si Si2 0.169334 0.330667 0.082712
Si Si3 0.172788 0.553451 0.583852
Si Si4 0.703468 0.573459 0.857818
Si Si5 0.200743 0.700743 0.083450
Si Si6 0.160070 0.783142 0.342533
Si Si7 0.393802 0.764036 0.582709
Si Si8 0.705084 0.399259 0.189601
O O1 0.911559 0.839306 0.932984
O O2 0.032606 0.896441 0.000000
O O3 0.096584 0.294190 0.128214
O O4 0.234449 0.265552 0.079790
O O5 0.145089 0.354912 0.000000
O O6 0.155763 0.538985 0.500000
O O7 0.094988 0.594988 0.618059
O O8 0.244571 0.612623 0.591539
O O9 0.195373 0.470032 0.618409
O O10 0.688702 0.487975 0.828916
O O11 0.658090 0.631216 0.804913
O O12 0.232459 0.627844 0.129409
O O13 0.177032 0.677032 0.000000
O O14 0.237485 0.737485 0.321983
O O15 0.188815 0.868579 0.368854
O O16 0.103220 0.771231 0.273631
O O17 0.411299 0.736371 0.500000
O O18 0.325081 0.825081 0.582076
#
# Coordination Sequence:
#
# PCOD8314156 Si02
#       8
#     8   8  16  16   8  16  16  16
#     4  11  20  33  52  78 110 140 171 222 284 345
#     4   9  18  32  54  79 103 130 178 229 275 330
#     4   9  18  33  56  83 111 146 184 224 272 328
#     4  11  22  34  54  79 107 139 179 225 285 339
#     4   9  20  36  54  77 106 142 184 228 272 330
#     4  10  20  36  54  76 109 146 185 226 269 328
#     4   9  18  33  57  86 113 144 182 226 275 327
#     4  11  23  36  53  80 109 143 181 228 283 329
#
# _framework density 18.959567
#
# number of rings (size 3 to 8) (size 9 to 14) (size 15 to 20)
#    0.000    2.077    3.077    0.462    4.308    2.462 
#    0.000    1.538    0.000    0.923    0.000    3.231 
#    0.000    0.000    0.000    0.000    0.000    0.000 
#
# Total GULP energy -1288373.758038 kJ/mol
# GULP energy per Si atom -12388.209212 kJ/mol
# Density = 1.891641 g / cm^3
# Si number density = 18.959567 Si / 1000 Ang^3
#
#
#
# Elastic Constant Matrix: (Units=GPa)
#
#
# Indices 1 2 3 4 5 6 
#
# 1 58.2357 13.4723 10.3680 0.0000 0.0000 0.0000
# 2 13.4723 58.2355 10.3680 0.0000 0.0000 0.0000
# 3 10.3680 10.3680 54.1337 0.0000 0.0000 0.0000
# 4 0.0000 0.0000 0.0000 16.4480 0.0000 0.0000
# 5 0.0000 0.0000 0.0000 0.0000 16.4480 0.0000
# 6 0.0000 0.0000 0.0000 0.0000 0.0000 21.2383
#
#
#
# Elastic Compliance Matrix: (Units=1/GPa)
#
#
# Indices 1 2 3 4 5 6 
#
# 1 0.018551 -0.003788 -0.002828 0.000000 0.000000 0.000000
# 2 -0.003788 0.018551 -0.002828 0.000000 0.000000 0.000000
# 3 -0.002828 -0.002828 0.019556 0.000000 0.000000 0.000000
# 4 0.000000 0.000000 0.000000 0.060798 0.000000 0.000000
# 5 0.000000 0.000000 0.000000 0.000000 0.060798 0.000000
# 6 0.000000 0.000000 0.000000 0.000000 0.000000 0.047085
#
#
# Mechanical properties :
#
#
# Convention : Reuss Voigt Hill
#
# Bulk Modulus (GPa) = 26.47464 26.55796 26.51630
# Shear Modulus (GPa) = 19.46917 19.91995 19.69456
#
# Velocity S-wave (km/s) = 3.20797 3.24490 3.22649
# Velocity P-wave (km/s) = 5.26455 5.29880 5.28170
#
# Compressibility (1/GPa) = 0.03777199
#
# Stress axis : x y z
#
# Youngs Moduli (GPa) = 53.90427 53.90415 51.13554
#
# Poissons Ratio (x) = 0.20421 0.14459
# Poissons Ratio (y) = 0.20421 0.14459
# Poissons Ratio (z) = 0.15242 0.15242
#
# Static dielectric constant tensor:
#      x y z
#    x 3.493220 0.000000 0.000000 
#    y 0.000000 3.493220 0.000000 
#    z 0.000000 0.000000 3.465340 
# 
# 
# High freq. dielectric constant tensor:
#      x y z
#    x 1.721160 0.000000 0.000000 
#    y 0.000000 1.721160 0.000000 
#    z 0.000000 0.000000 1.732570 
# 
# From -- ./inp_files/5246.got.cif
#   From: 2010.03.12/outbox.cif.g09.slc.cpg/sg127_3_cif.got.tgz:5246.got - 2010.04.06 17:03:15.
