data_PCOD8314643
_publ_section_title
;
Structure prediction by ZEFSAII (Michael W. Deem and Ramdas Pophale) SiO2 
 PCOD8314643
Probable space group: P 4/M N C
;
_chemical_formula_sum "Si O2"
_cell_formula_units_Z 104
_cell_length_a 19.256866
_cell_length_b 19.256866
_cell_length_c 15.745314
_cell_angle_alpha 90.000000
_cell_angle_beta 90.000000
_cell_angle_gamma 90.000000
_cell_volume 5838.785793
_symmetry_space_group_name_H-M "P 4/M N C"
_symmetry_group_IT_number 128
_symmetry_cell_setting 'tetragonal'
loop_
_space_group_symop_operation_xyz
x,y,z
-y,x,z
-x,-y,z
y,-x,z
1/2+x,1/2-y,1/2-z
1/2-x,1/2+y,1/2-z
1/2+y,1/2+x,1/2-z
1/2-y,1/2-x,1/2-z
-x,-y,-z
y,-x,-z
x,y,-z
-y,x,-z
1/2-x,1/2+y,1/2+z
1/2+x,1/2-y,1/2+z
1/2-y,1/2-x,1/2+z
1/2+y,1/2+x,1/2+z
loop_
_atom_site_type_symbol
_atom_site_label
_atom_site_fract_x
_atom_site_fract_y
_atom_site_fract_z
Si Si1 0.652495 0.743420 0.500000
Si Si2 0.495063 0.693029 0.500000
Si Si3 0.715052 0.812766 0.657627
Si Si4 0.557468 0.318986 0.163079
Si Si5 0.612755 0.518280 0.328904
Si Si6 0.701935 0.162870 0.661092
Si Si7 0.088761 0.823505 0.404037
Si Si8 0.635541 0.221185 0.500000
O O1 0.575432 0.713197 0.500000
O O2 0.660602 0.790458 0.584676
O O3 0.708300 0.681116 0.500000
O O4 0.474945 0.646846 0.419996
O O5 0.446000 0.760785 0.500000
O O6 0.679057 0.820944 0.750000
O O7 0.774670 0.755811 0.661944
O O8 0.750412 0.886126 0.635343
O O9 0.528727 0.327476 0.258714
O O10 0.591017 0.243404 0.150570
O O11 0.494228 0.325968 0.097650
O O12 0.611389 0.380709 0.146524
O O13 0.556729 0.578856 0.317947
O O14 0.660361 0.160361 0.750000
O O15 0.650090 0.173853 0.582534
O O16 0.116260 0.828261 0.500000
#
# Coordination Sequence:
#
# PCOD8314643 Si02
#       8
#     8   8  16  16  16  16  16   8
#     4  10  20  36  57  80 109 145 188 233 279 336
#     4  12  24  33  58  80 109 148 194 230 276 336
#     4   9  19  35  56  78 106 142 182 234 282 323
#     4  11  22  35  56  79 110 150 186 224 274 330
#     4  11  22  37  49  76 118 158 189 218 259 325
#     4   9  19  34  53  73 103 138 180 227 276 321
#     4  11  22  36  55  82 112 147 186 228 274 334
#     4  10  20  36  53  78 107 137 178 233 279 326
#
# _framework density 17.811921999999999
#
# number of rings (size 3 to 8) (size 9 to 14) (size 15 to 20)
#    0.000    1.692    2.308    2.769    6.462    3.385 
#    0.000    0.769    0.000    0.000    0.000    2.154 
#    0.000    0.000    0.000    0.000    0.000    0.000 
#
# Total GULP energy -1289764.298829 kJ/mol
# GULP energy per Si atom -12401.579796 kJ/mol
# Density = 1.777138 g / cm^3
# Si number density = 17.811922 Si / 1000 Ang^3
#
#
#
# Elastic Constant Matrix: (Units=GPa)
#
#
# Indices 1 2 3 4 5 6 
#
# 1 92.7420 6.1899 31.6590 0.0000 0.0000 0.0000
# 2 6.1899 92.7407 31.6584 0.0000 0.0000 0.0000
# 3 31.6590 31.6584 141.2950 0.0000 0.0000 0.0000
# 4 0.0000 0.0000 0.0000 25.5331 0.0000 0.0000
# 5 0.0000 0.0000 0.0000 0.0000 25.5331 0.0000
# 6 0.0000 0.0000 0.0000 0.0000 0.0000 -5.1185
#
#
#
# Elastic Compliance Matrix: (Units=1/GPa)
#
#
# Indices 1 2 3 4 5 6 
#
# 1 0.011677 0.000123 -0.002644 0.000000 0.000000 0.000000
# 2 0.000123 0.011677 -0.002644 0.000000 0.000000 0.000000
# 3 -0.002644 -0.002644 0.008262 0.000000 0.000000 0.000000
# 4 0.000000 0.000000 0.000000 0.039165 0.000000 0.000000
# 5 0.000000 0.000000 0.000000 0.000000 0.039165 0.000000
# 6 0.000000 0.000000 0.000000 0.000000 0.000000 -0.195369
#
#
# Mechanical properties :
#
#
# Convention : Reuss Voigt Hill
#
# Bulk Modulus (GPa) = 46.97757 51.75470 49.36614
# Shear Modulus (GPa) = -73.53169 26.34089 -23.59540
#
# Velocity S-wave (km/s) = -6.43210 3.84973 -3.64359
# Velocity P-wave (km/s) = 5.36014 6.99142 3.17402
#
# Compressibility (1/GPa) = 0.02128676
#
# Stress axis : x y z
#
# Youngs Moduli (GPa) = 85.63880 85.63783 121.03300
#
# Poissons Ratio (x) = -0.01055 0.32001
# Poissons Ratio (y) = -0.01055 0.32001
# Poissons Ratio (z) = 0.22643 0.22642
#
# Static dielectric constant tensor:
#      x y z
#    x 3.130290 0.000000 0.000000 
#    y 0.000000 3.130290 0.000000 
#    z 0.000000 0.000000 3.575860 
# 
# 
# High freq. dielectric constant tensor:
#      x y z
#    x 1.661150 0.000000 0.000000 
#    y 0.000000 1.661150 0.000000 
#    z 0.000000 0.000000 1.714110 
# 
# From -- ./inp_files/4927.got.cif
#   From: 2010.03.12/outbox.cif.g09.slc.cpg/sg128_3_cif.got.tgz:4927.got - 2010.04.06 17:11:05.
