data_PCOD8314383
_publ_section_title
;
Structure prediction by ZEFSAII (Michael W. Deem and Ramdas Pophale) SiO2 
 PCOD8314383
Probable space group: P 4/M B M
;
_chemical_formula_sum "Si O2"
_cell_formula_units_Z 56
_cell_length_a 14.191435
_cell_length_b 14.191435
_cell_length_c 15.731804
_cell_angle_alpha 90.000000
_cell_angle_beta 90.000000
_cell_angle_gamma 90.000000
_cell_volume 3168.335414
_symmetry_space_group_name_H-M "P 4/M B M"
_symmetry_group_IT_number 127
_symmetry_cell_setting 'tetragonal'
loop_
_space_group_symop_operation_xyz
x,y,z
-y,x,z
-x,-y,z
y,-x,z
1/2+x,1/2-y,-z
1/2-x,1/2+y,-z
1/2+y,1/2+x,-z
1/2-y,1/2-x,-z
-x,-y,-z
y,-x,-z
x,y,-z
-y,x,-z
1/2-x,1/2+y,z
1/2+x,1/2-y,z
1/2-y,1/2-x,z
1/2+y,1/2+x,z
loop_
_atom_site_type_symbol
_atom_site_label
_atom_site_fract_x
_atom_site_fract_y
_atom_site_fract_z
Si Si1 0.539996 0.649488 0.000000
Si Si2 0.645645 0.444903 0.500000
Si Si3 0.921075 0.578926 0.404855
Si Si4 0.348568 0.540538 0.183837
Si Si5 0.279254 0.062946 0.342994
O O1 0.434948 0.612573 0.000000
O O2 0.554140 0.702377 0.909386
O O3 0.619968 0.554243 0.500000
O O4 0.703524 0.419493 0.583806
O O5 0.890732 0.609269 0.500000
O O6 0.830600 0.537787 0.355889
O O7 0.000000 0.500000 0.411292
O O8 0.386907 0.434676 0.195048
O O9 0.269436 0.562783 0.251973
O O10 0.352706 0.147295 0.347007
#
# Coordination Sequence:
#
# PCOD8314383 Si02
#       5
#     8   8   8  16  16
#     4   7  12  26  53  77  98 135 172 201 250 313
#     4  11  23  39  54  73 104 137 168 215 265 298
#     4   9  18  36  56  67  95 141 177 208 242 292
#     4   9  17  33  54  79 107 134 168 213 260 303
#     4  11  21  36  53  77 105 137 176 209 251 307
#
# _framework density 17.674897999999999
#
# number of rings (size 3 to 8) (size 9 to 14) (size 15 to 20)
#    0.000    2.429    1.429    3.857    0.000    2.286 
#   12.857    0.714    0.000    0.857    0.000    3.000 
#    0.000    0.000    0.000    0.000    0.000    0.000 
#
# Total GULP energy -693939.684177 kJ/mol
# GULP energy per Si atom -12391.780075 kJ/mol
# Density = 1.763467 g / cm^3
# Si number density = 17.674898 Si / 1000 Ang^3
#
#
#
# Elastic Constant Matrix: (Units=GPa)
#
#
# Indices 1 2 3 4 5 6 
#
# 1 75.0253 31.2824 54.0699 0.0000 0.0000 0.0000
# 2 31.2824 75.0254 54.0699 0.0000 0.0000 0.0000
# 3 54.0699 54.0699 180.8565 0.0000 0.0000 0.0000
# 4 0.0000 0.0000 0.0000 19.1716 0.0000 0.0000
# 5 0.0000 0.0000 0.0000 0.0000 19.1717 0.0000
# 6 0.0000 0.0000 0.0000 0.0000 0.0000 15.8767
#
#
#
# Elastic Compliance Matrix: (Units=1/GPa)
#
#
# Indices 1 2 3 4 5 6 
#
# 1 0.018189 -0.004672 -0.004041 0.000000 0.000000 0.000000
# 2 -0.004672 0.018189 -0.004041 0.000000 0.000000 0.000000
# 3 -0.004041 -0.004041 0.007946 0.000000 0.000000 0.000000
# 4 0.000000 0.000000 0.000000 0.052161 0.000000 0.000000
# 5 0.000000 0.000000 0.000000 0.000000 0.052160 0.000000
# 6 0.000000 0.000000 0.000000 0.000000 0.000000 0.062986
#
#
# Mechanical properties :
#
#
# Convention : Reuss Voigt Hill
#
# Bulk Modulus (GPa) = 53.14718 67.75017 60.44868
# Shear Modulus (GPa) = 20.54142 23.60966 22.07554
#
# Velocity S-wave (km/s) = 3.41278 3.65879 3.53792
# Velocity P-wave (km/s) = 6.75751 7.50090 7.13889
#
# Compressibility (1/GPa) = 0.01881567
#
# Stress axis : x y z
#
# Youngs Moduli (GPa) = 54.97762 54.97768 125.85479
#
# Poissons Ratio (x) = 0.25683 0.50862
# Poissons Ratio (y) = 0.25683 0.50862
# Poissons Ratio (z) = 0.22218 0.22218
#
# Static dielectric constant tensor:
#      x y z
#    x 3.136910 0.000000 0.000000 
#    y 0.000000 3.136910 0.000000 
#    z 0.000000 0.000000 3.703470 
# 
# 
# High freq. dielectric constant tensor:
#      x y z
#    x 1.662730 0.000000 0.000000 
#    y 0.000000 1.662730 0.000000 
#    z 0.000000 0.000000 1.702150 
# 
# From -- ./inp_files/4041.got.cif
#   From: 2010.03.12/outbox.cif.g09.slc.cpg/sg127_3_cif.got.tgz:4041.got - 2010.04.06 17:03:15.
