data_PCOD8314805
_publ_section_title
;
Structure prediction by ZEFSAII (Michael W. Deem and Ramdas Pophale) SiO2 
 PCOD8314805
Probable space group: P 4/M N C
;
_chemical_formula_sum "Si O2"
_cell_formula_units_Z 96
_cell_length_a 14.678550
_cell_length_b 14.678550
_cell_length_c 23.591940
_cell_angle_alpha 90.000000
_cell_angle_beta 90.000000
_cell_angle_gamma 90.000000
_cell_volume 5083.115384
_symmetry_space_group_name_H-M "P 4/M N C"
_symmetry_group_IT_number 128
_symmetry_cell_setting 'tetragonal'
loop_
_space_group_symop_operation_xyz
x,y,z
-y,x,z
-x,-y,z
y,-x,z
1/2+x,1/2-y,1/2-z
1/2-x,1/2+y,1/2-z
1/2+y,1/2+x,1/2-z
1/2-y,1/2-x,1/2-z
-x,-y,-z
y,-x,-z
x,y,-z
-y,x,-z
1/2-x,1/2+y,1/2+z
1/2+x,1/2-y,1/2+z
1/2-y,1/2-x,1/2+z
1/2+y,1/2+x,1/2+z
loop_
_atom_site_type_symbol
_atom_site_label
_atom_site_fract_x
_atom_site_fract_y
_atom_site_fract_z
Si Si1 0.640509 0.016598 0.500000
Si Si2 0.877643 0.348002 0.688332
Si Si3 0.526321 0.847196 0.500000
Si Si4 0.359671 0.449210 0.695704
Si Si5 0.494374 0.797234 0.379436
Si Si6 0.338331 0.724011 0.790651
Si Si7 0.837252 0.563270 0.878231
O O1 0.552043 0.078569 0.500000
O O2 0.695468 0.041315 0.557443
O O3 0.618499 0.908146 0.500000
O O4 0.892171 0.392171 0.750000
O O5 0.805548 0.411472 0.655408
O O6 0.842960 0.244756 0.695604
O O7 0.971437 0.348165 0.656017
O O8 0.520409 0.781028 0.445319
O O9 0.445661 0.384523 0.688123
O O10 0.285160 0.433102 0.646040
O O11 0.322195 0.423741 0.758069
O O12 0.435985 0.889574 0.375869
O O13 0.305619 0.805619 0.750000
O O14 0.373573 0.760381 0.850633
#
# Coordination Sequence:
#
# PCOD8314805 Si02
#       7
#     8  16   8  16  16  16  16
#     4   9  18  36  55  83 117 161 195 231 302 365
#     4  11  23  34  57  88 121 150 197 248 310 362
#     4   9  18  36  57  82 119 154 193 247 301 359
#     4  11  23  40  61  83 119 166 201 240 308 377
#     4  11  21  37  60  87 117 158 202 254 308 357
#     4  11  21  38  56  85 121 154 198 254 302 363
#     4  11  21  36  59  84 120 159 198 249 306 364
#
# _framework density 18.886056
#
# number of rings (size 3 to 8) (size 9 to 14) (size 15 to 20)
#    0.000    1.333    3.333    4.500    0.000    0.667 
#    0.000    2.500    0.000    1.000    0.000    0.000 
#    0.000    4.000    0.000    0.000    0.000    0.000 
#
# Total GULP energy -1190051.327092 kJ/mol
# GULP energy per Si atom -12396.367991 kJ/mol
# Density = 1.884307 g / cm^3
# Si number density = 18.886056 Si / 1000 Ang^3
#
#
#
# Elastic Constant Matrix: (Units=GPa)
#
#
# Indices 1 2 3 4 5 6 
#
# 1 87.6978 29.6788 58.7054 0.0000 0.0000 0.0000
# 2 29.6788 87.6978 58.7054 0.0000 0.0000 0.0000
# 3 58.7054 58.7054 185.8485 0.0000 0.0000 0.0000
# 4 0.0000 0.0000 0.0000 18.6870 0.0000 0.0000
# 5 0.0000 0.0000 0.0000 0.0000 18.6870 0.0000
# 6 0.0000 0.0000 0.0000 0.0000 0.0000 25.1507
#
#
#
# Elastic Compliance Matrix: (Units=1/GPa)
#
#
# Indices 1 2 3 4 5 6 
#
# 1 0.014845 -0.002390 -0.003934 0.000000 0.000000 0.000000
# 2 -0.002390 0.014845 -0.003934 0.000000 0.000000 0.000000
# 3 -0.003934 -0.003934 0.007866 0.000000 0.000000 0.000000
# 4 0.000000 0.000000 0.000000 0.053513 0.000000 0.000000
# 5 0.000000 0.000000 0.000000 0.000000 0.053513 0.000000
# 6 0.000000 0.000000 0.000000 0.000000 0.000000 0.039760
#
#
# Mechanical properties :
#
#
# Convention : Reuss Voigt Hill
#
# Bulk Modulus (GPa) = 58.68829 72.82479 65.75654
# Shear Modulus (GPa) = 23.74838 26.78194 25.26516
#
# Velocity S-wave (km/s) = 3.54991 3.76983 3.66152
# Velocity P-wave (km/s) = 6.92422 7.58898 7.26421
#
# Compressibility (1/GPa) = 0.01703918
#
# Stress axis : x y z
#
# Youngs Moduli (GPa) = 67.36117 67.36117 127.12607
#
# Poissons Ratio (x) = 0.16102 0.50015
# Poissons Ratio (y) = 0.16102 0.50015
# Poissons Ratio (z) = 0.26502 0.26502
#
# Static dielectric constant tensor:
#      x y z
#    x 3.414600 0.000000 0.000000 
#    y 0.000000 3.414600 0.000000 
#    z 0.000000 0.000000 3.882480 
# 
# 
# High freq. dielectric constant tensor:
#      x y z
#    x 1.721940 0.000000 0.000000 
#    y 0.000000 1.721940 0.000000 
#    z 0.000000 0.000000 1.739330 
# 
# From -- ./inp_files/5822.got.cif
#   From: 2010.03.12/outbox.cif.g09.slc.cpg/sg128_3_cif.got.tgz:5822.got - 2010.04.06 17:11:05.
