data_PCOD8314148
_publ_section_title
;
Structure prediction by ZEFSAII (Michael W. Deem and Ramdas Pophale) SiO2 
 PCOD8314148
Probable space group: P 4/M B M
;
_chemical_formula_sum "Si O2"
_cell_formula_units_Z 128
_cell_length_a 23.325116
_cell_length_b 23.325116
_cell_length_c 12.553662
_cell_angle_alpha 90.000000
_cell_angle_beta 90.000000
_cell_angle_gamma 90.000000
_cell_volume 6829.958359
_symmetry_space_group_name_H-M "P 4/M B M"
_symmetry_group_IT_number 127
_symmetry_cell_setting 'tetragonal'
loop_
_space_group_symop_operation_xyz
x,y,z
-y,x,z
-x,-y,z
y,-x,z
1/2+x,1/2-y,-z
1/2-x,1/2+y,-z
1/2+y,1/2+x,-z
1/2-y,1/2-x,-z
-x,-y,-z
y,-x,-z
x,y,-z
-y,x,-z
1/2-x,1/2+y,z
1/2+x,1/2-y,z
1/2-y,1/2-x,z
1/2+y,1/2+x,z
loop_
_atom_site_type_symbol
_atom_site_label
_atom_site_fract_x
_atom_site_fract_y
_atom_site_fract_z
Si Si1 0.330561 0.075587 0.874425
Si Si2 0.207667 0.798363 0.619465
Si Si3 0.289586 0.598000 0.239660
Si Si4 0.856263 0.553812 0.877093
Si Si5 0.099886 0.138650 0.875909
Si Si6 0.701252 0.511691 0.619497
Si Si7 0.913181 0.032641 0.699464
Si Si8 0.898035 0.745898 0.752471
O O1 0.379364 0.120637 0.839660
O O2 0.271623 0.092072 0.816958
O O3 0.352306 0.012306 0.839248
O O4 0.319604 0.078280 0.000000
O O5 0.200645 0.824127 0.500000
O O6 0.236428 0.736428 0.613701
O O7 0.146383 0.788638 0.671171
O O8 0.248679 0.838256 0.690937
O O9 0.338506 0.611306 0.153109
O O10 0.306383 0.540683 0.300565
O O11 0.920800 0.579201 0.861044
O O12 0.814410 0.595339 0.811026
O O13 0.837968 0.557748 0.000000
O O14 0.047127 0.104621 0.821018
O O15 0.096563 0.204647 0.840951
O O16 0.089602 0.133997 0.000000
O O17 0.715968 0.492104 0.500000
O O18 0.641028 0.547740 0.623696
O O19 0.751110 0.552277 0.663182
O O20 0.966937 0.072457 0.674289
#
# Coordination Sequence:
#
# PCOD8314148 Si02
#       8
#    16  16  16  16  16  16  16  16
#     4  10  21  37  59  87 118 152 190 234 285 343
#     4  10  21  36  57  83 110 142 179 225 278 329
#     4  11  20  38  56  81 113 144 186 232 281 340
#     4  10  20  35  58  87 119 153 187 228 280 341
#     4  10  21  35  55  79 110 148 185 232 283 335
#     4  11  22  36  56  78 103 142 187 236 281 325
#     4  10  21  38  51  74 108 142 193 233 281 333
#     4  10  20  37  55  81 113 144 184 226 274 339
#
# _framework density 18.740964000000002
#
# number of rings (size 3 to 8) (size 9 to 14) (size 15 to 20)
#    0.000    1.750    2.500    2.250    0.000    1.250 
#    0.000    2.500    0.000    6.000    0.000    0.000 
#    0.000    1.000    0.000    0.000    0.000    0.000 
#
# Total GULP energy -1586733.982306 kJ/mol
# GULP energy per Si atom -12396.359237 kJ/mol
# Density = 1.869831 g / cm^3
# Si number density = 18.740964 Si / 1000 Ang^3
#
#
#
# Elastic Constant Matrix: (Units=GPa)
#
#
# Indices 1 2 3 4 5 6 
#
# 1 77.3253 38.5381 18.9060 0.0000 0.0000 0.0000
# 2 38.5381 77.3253 18.9060 0.0000 0.0000 0.0000
# 3 18.9060 18.9060 70.6588 0.0000 0.0000 0.0000
# 4 0.0000 0.0000 0.0000 23.9068 0.0000 0.0000
# 5 0.0000 0.0000 0.0000 0.0000 23.9068 0.0000
# 6 0.0000 0.0000 0.0000 0.0000 0.0000 30.3240
#
#
#
# Elastic Compliance Matrix: (Units=1/GPa)
#
#
# Indices 1 2 3 4 5 6 
#
# 1 0.017619 -0.008163 -0.002530 0.000000 0.000000 0.000000
# 2 -0.008163 0.017619 -0.002530 0.000000 0.000000 0.000000
# 3 -0.002530 -0.002530 0.015507 0.000000 0.000000 0.000000
# 4 0.000000 0.000000 0.000000 0.041829 0.000000 0.000000
# 5 0.000000 0.000000 0.000000 0.000000 0.041829 0.000000
# 6 0.000000 0.000000 0.000000 0.000000 0.000000 0.032977
#
#
# Mechanical properties :
#
#
# Convention : Reuss Voigt Hill
#
# Bulk Modulus (GPa) = 41.15451 42.00104 41.57778
# Shear Modulus (GPa) = 24.76156 25.55816 25.15986
#
# Velocity S-wave (km/s) = 3.63885 3.69692 3.66800
# Velocity P-wave (km/s) = 6.29780 6.37832 6.33819
#
# Compressibility (1/GPa) = 0.02429867
#
# Stress axis : x y z
#
# Youngs Moduli (GPa) = 56.75645 56.75645 64.48886
#
# Poissons Ratio (x) = 0.46328 0.16317
# Poissons Ratio (y) = 0.46328 0.16317
# Poissons Ratio (z) = 0.14361 0.14361
#
# Static dielectric constant tensor:
#      x y z
#    x 3.484110 0.000000 0.000000 
#    y 0.000000 3.484110 0.000000 
#    z 0.000000 0.000000 3.316730 
# 
# 
# High freq. dielectric constant tensor:
#      x y z
#    x 1.729340 0.000000 0.000000 
#    y 0.000000 1.729340 0.000000 
#    z 0.000000 0.000000 1.717980 
# 
# From -- ./inp_files/3857.got.cif
#   From: 2010.03.12/outbox.cif.g09.slc.cpg/sg127_2_cif.got.tgz:3857.got - 2010.04.06 17:03:15.
