data_PCOD8314536
_publ_section_title
;
Structure prediction by ZEFSAII (Michael W. Deem and Ramdas Pophale) SiO2 
 PCOD8314536
Probable space group: P 4/M N C
;
_chemical_formula_sum "Si O2"
_cell_formula_units_Z 120
_cell_length_a 27.227041
_cell_length_b 27.227041
_cell_length_c 9.188537
_cell_angle_alpha 90.000000
_cell_angle_beta 90.000000
_cell_angle_gamma 90.000000
_cell_volume 6811.570550
_symmetry_space_group_name_H-M "P 4/M N C"
_symmetry_group_IT_number 128
_symmetry_cell_setting 'tetragonal'
loop_
_space_group_symop_operation_xyz
x,y,z
-y,x,z
-x,-y,z
y,-x,z
1/2+x,1/2-y,1/2-z
1/2-x,1/2+y,1/2-z
1/2+y,1/2+x,1/2-z
1/2-y,1/2-x,1/2-z
-x,-y,-z
y,-x,-z
x,y,-z
-y,x,-z
1/2-x,1/2+y,1/2+z
1/2+x,1/2-y,1/2+z
1/2-y,1/2-x,1/2+z
1/2+y,1/2+x,1/2+z
loop_
_atom_site_type_symbol
_atom_site_label
_atom_site_fract_x
_atom_site_fract_y
_atom_site_fract_z
Si Si1 0.126478 0.698315 0.332840
Si Si2 0.010412 0.920458 0.000000
Si Si3 0.827312 0.487287 0.831758
Si Si4 0.708675 0.394073 0.662717
Si Si5 0.734230 0.507854 0.335216
Si Si6 0.412416 0.382223 0.154829
Si Si7 0.484282 0.632670 0.772497
Si Si8 0.500866 0.927540 0.322859
O O1 0.158312 0.658312 0.250000
O O2 0.143292 0.701603 0.500000
O O3 0.070447 0.681497 0.320874
O O4 0.134917 0.751372 0.259125
O O5 0.015890 0.884899 0.865680
O O6 0.054612 0.957771 0.000000
O O7 0.781322 0.517518 0.766330
O O8 0.871500 0.502276 0.725820
O O9 0.836318 0.502913 0.000000
O O10 0.708146 0.371962 0.500000
O O11 0.723384 0.450516 0.659735
O O12 0.654491 0.387620 0.730106
O O13 0.742284 0.527974 0.500000
O O14 0.688123 0.534887 0.256511
O O15 0.470266 0.371541 0.116483
O O16 0.403236 0.439222 0.195741
O O17 0.385653 0.373535 0.000000
O O18 0.549880 0.950121 0.250000
O O19 0.501476 0.932617 0.500000
O O20 0.454708 0.954708 0.250000
#
# Coordination Sequence:
#
# PCOD8314536 Si02
#       8
#    16   8  16  16  16  16  16  16
#     4  10  19  31  50  74 103 133 164 202 245 295
#     4  11  20  32  50  74  98 132 176 217 256 308
#     4  10  20  33  49  73 104 136 170 207 248 294
#     4   9  19  33  50  70  94 126 163 201 245 294
#     4   9  18  31  50  70  94 126 164 206 247 293
#     4  11  23  35  48  69 100 132 167 209 258 306
#     4  11  21  33  52  70  98 130 170 211 258 305
#     4  11  21  34  52  75 106 140 175 208 248 294
#
# _framework density 17.617083000000001
#
# number of rings (size 3 to 8) (size 9 to 14) (size 15 to 20)
#    0.000    1.800    2.000    3.600    1.867    6.667 
#    0.000    0.667    0.000    0.000    0.000    0.933 
#    0.000    6.400    0.000    0.000    0.000    0.000 
#
# Total GULP energy -1487086.859685 kJ/mol
# GULP energy per Si atom -12392.390497 kJ/mol
# Density = 1.757699 g / cm^3
# Si number density = 17.617083 Si / 1000 Ang^3
#
#
#
# Elastic Constant Matrix: (Units=GPa)
#
#
# Indices 1 2 3 4 5 6 
#
# 1 73.7826 13.7870 30.7470 0.0000 0.0000 0.0000
# 2 13.7870 73.7838 30.7472 0.0000 0.0000 0.0000
# 3 30.7470 30.7472 142.1219 0.0000 0.0000 0.0000
# 4 0.0000 0.0000 0.0000 23.1887 0.0000 0.0000
# 5 0.0000 0.0000 0.0000 0.0000 23.1886 0.0000
# 6 0.0000 0.0000 0.0000 0.0000 0.0000 13.0993
#
#
#
# Elastic Compliance Matrix: (Units=1/GPa)
#
#
# Indices 1 2 3 4 5 6 
#
# 1 0.015067 -0.001601 -0.002913 0.000000 0.000000 0.000000
# 2 -0.001601 0.015066 -0.002913 0.000000 0.000000 0.000000
# 3 -0.002913 -0.002913 0.008297 0.000000 0.000000 0.000000
# 4 0.000000 0.000000 0.000000 0.043124 0.000000 0.000000
# 5 0.000000 0.000000 0.000000 0.000000 0.043125 0.000000
# 6 0.000000 0.000000 0.000000 0.000000 0.000000 0.076340
#
#
# Mechanical properties :
#
#
# Convention : Reuss Voigt Hill
#
# Bulk Modulus (GPa) = 42.41878 48.91675 45.66776
# Shear Modulus (GPa) = 22.34823 26.18914 24.26869
#
# Velocity S-wave (km/s) = 3.56554 3.85980 3.71558
# Velocity P-wave (km/s) = 6.40947 6.90587 6.66229
#
# Compressibility (1/GPa) = 0.02357447
#
# Stress axis : x y z
#
# Youngs Moduli (GPa) = 66.37237 66.37343 120.53040
#
# Poissons Ratio (x) = 0.10629 0.35112
# Poissons Ratio (y) = 0.10629 0.35111
# Poissons Ratio (z) = 0.19335 0.19335
#
# Static dielectric constant tensor:
#      x y z
#    x 3.108990 0.000000 0.000000 
#    y 0.000000 3.108990 0.000000 
#    z 0.000000 0.000000 3.605650 
# 
# 
# High freq. dielectric constant tensor:
#      x y z
#    x 1.652070 0.000000 0.000000 
#    y 0.000000 1.652070 0.000000 
#    z 0.000000 0.000000 1.709390 
# 
# From -- ./inp_files/1825.got.cif
#   From: 2010.03.12/outbox.cif.g09.slc.cpg/sg128_1_cif.got.tgz:1825.got - 2010.04.06 17:11:05.
