data_PCOD8314772
_publ_section_title
;
Structure prediction by ZEFSAII (Michael W. Deem and Ramdas Pophale) SiO2 
 PCOD8314772
Probable space group: P 4/M N C
;
_chemical_formula_sum "Si O2"
_cell_formula_units_Z 72
_cell_length_a 17.283395
_cell_length_b 17.283395
_cell_length_c 10.949718
_cell_angle_alpha 90.000000
_cell_angle_beta 90.000000
_cell_angle_gamma 90.000000
_cell_volume 3270.853145
_symmetry_space_group_name_H-M "P 4/M N C"
_symmetry_group_IT_number 128
_symmetry_cell_setting 'tetragonal'
loop_
_space_group_symop_operation_xyz
x,y,z
-y,x,z
-x,-y,z
y,-x,z
1/2+x,1/2-y,1/2-z
1/2-x,1/2+y,1/2-z
1/2+y,1/2+x,1/2-z
1/2-y,1/2-x,1/2-z
-x,-y,-z
y,-x,-z
x,y,-z
-y,x,-z
1/2-x,1/2+y,1/2+z
1/2+x,1/2-y,1/2+z
1/2-y,1/2-x,1/2+z
1/2+y,1/2+x,1/2+z
loop_
_atom_site_type_symbol
_atom_site_label
_atom_site_fract_x
_atom_site_fract_y
_atom_site_fract_z
Si Si1 0.744899 0.460860 0.691302
Si Si2 0.256022 0.670638 0.862619
Si Si3 0.961587 0.620647 0.500000
Si Si4 0.958387 0.375934 0.000000
Si Si5 0.888925 0.728087 0.693675
Si Si6 0.881142 0.952472 0.000000
O O1 0.742479 0.419235 0.823581
O O2 0.824911 0.442332 0.620435
O O3 0.736064 0.553496 0.705853
O O4 0.670330 0.431363 0.617422
O O5 0.211942 0.711942 0.750000
O O6 0.343745 0.703315 0.876105
O O7 0.217863 0.678647 0.000000
O O8 0.906402 0.546083 0.500000
O O9 0.943770 0.672613 0.616066
O O10 0.051784 0.599431 0.500000
O O11 0.821694 0.678307 0.750000
O O12 0.956790 0.900515 0.000000
#
# Coordination Sequence:
#
# PCOD8314772 Si02
#       6
#    16  16   8   8  16   8
#     4  11  24  41  67 100 137 176 229 289 342 408
#     4  11  27  44  66  98 136 182 232 281 345 411
#     4  11  22  42  63  93 138 182 228 269 329 425
#     4  10  24  40  65 101 137 181 225 276 342 406
#     4  11  23  43  66  92 133 185 225 274 343 413
#     4  10  22  44  72 100 133 182 236 292 351 414
#
# _framework density 22.012606000000002
#
# number of rings (size 3 to 8) (size 9 to 14) (size 15 to 20)
#    0.000    1.222    3.333    1.333    7.778    0.000 
#    2.000    0.000    0.000    0.000    0.000    4.667 
#    0.000    0.000    0.000    0.000    0.000    0.000 
#
# Total GULP energy -892388.173637 kJ/mol
# GULP energy per Si atom -12394.280189 kJ/mol
# Density = 2.196250 g / cm^3
# Si number density = 22.012606 Si / 1000 Ang^3
#
#
#
# Elastic Constant Matrix: (Units=GPa)
#
#
# Indices 1 2 3 4 5 6 
#
# 1 78.6327 56.4493 38.0546 0.0000 0.0000 0.0000
# 2 56.4493 78.6301 38.0607 0.0000 0.0000 0.0000
# 3 38.0546 38.0607 141.1023 0.0000 0.0000 0.0000
# 4 0.0000 0.0000 0.0000 28.1767 0.0000 0.0000
# 5 0.0000 0.0000 0.0000 0.0000 28.1769 0.0000
# 6 0.0000 0.0000 0.0000 0.0000 0.0000 37.1387
#
#
#
# Elastic Compliance Matrix: (Units=1/GPa)
#
#
# Indices 1 2 3 4 5 6 
#
# 1 0.026904 -0.018176 -0.002353 0.000000 0.000000 0.000000
# 2 -0.018176 0.026907 -0.002356 0.000000 0.000000 0.000000
# 3 -0.002353 -0.002356 0.008357 0.000000 0.000000 0.000000
# 4 0.000000 0.000000 0.000000 0.035490 0.000000 0.000000
# 5 0.000000 0.000000 0.000000 0.000000 0.035490 0.000000
# 6 0.000000 0.000000 0.000000 0.000000 0.000000 0.026926
#
#
# Mechanical properties :
#
#
# Convention : Reuss Voigt Hill
#
# Bulk Modulus (GPa) = 60.98145 62.61046 61.79596
# Shear Modulus (GPa) = 23.66184 29.75184 26.70684
#
# Velocity S-wave (km/s) = 3.28216 3.68037 3.48696
# Velocity P-wave (km/s) = 6.49049 6.82385 6.65926
#
# Compressibility (1/GPa) = 0.01639843
#
# Stress axis : x y z
#
# Youngs Moduli (GPa) = 37.16867 37.16546 119.65762
#
# Poissons Ratio (x) = 0.67551 0.28159
# Poissons Ratio (y) = 0.67557 0.28189
# Poissons Ratio (z) = 0.08747 0.08756
#
# Static dielectric constant tensor:
#      x y z
#    x 4.159390 0.000000 0.000000 
#    y 0.000000 4.159390 0.000000 
#    z 0.000000 0.000000 3.836660 
# 
# 
# High freq. dielectric constant tensor:
#      x y z
#    x 1.872920 0.000000 0.000000 
#    y 0.000000 1.872920 0.000000 
#    z 0.000000 0.000000 1.860320 
# 
# From -- ./inp_files/2668.got.cif
#   From: 2010.03.12/outbox.cif.g09.slc.cpg/sg128_2_cif.got.tgz:2668.got - 2010.04.06 17:11:05.
