data_PCOD8314770
_publ_section_title
;
Structure prediction by ZEFSAII (Michael W. Deem and Ramdas Pophale) SiO2 
 PCOD8314770
Probable space group: P 4/M N C
;
_chemical_formula_sum "Si O2"
_cell_formula_units_Z 56
_cell_length_a 10.861270
_cell_length_b 10.861270
_cell_length_c 20.725663
_cell_angle_alpha 90.000000
_cell_angle_beta 90.000000
_cell_angle_gamma 90.000000
_cell_volume 2444.948142
_symmetry_space_group_name_H-M "P 4/M N C"
_symmetry_group_IT_number 128
_symmetry_cell_setting 'tetragonal'
loop_
_space_group_symop_operation_xyz
x,y,z
-y,x,z
-x,-y,z
y,-x,z
1/2+x,1/2-y,1/2-z
1/2-x,1/2+y,1/2-z
1/2+y,1/2+x,1/2-z
1/2-y,1/2-x,1/2-z
-x,-y,-z
y,-x,-z
x,y,-z
-y,x,-z
1/2-x,1/2+y,1/2+z
1/2+x,1/2-y,1/2+z
1/2-y,1/2-x,1/2+z
1/2+y,1/2+x,1/2+z
loop_
_atom_site_type_symbol
_atom_site_label
_atom_site_fract_x
_atom_site_fract_y
_atom_site_fract_z
Si Si1 0.442574 0.309045 0.708974
Si Si2 0.872925 0.712607 0.571902
Si Si3 0.930376 0.809005 0.000000
Si Si4 0.894271 0.287758 0.650710
O O1 0.581192 0.347706 0.692218
O O2 0.404047 0.193180 0.665477
O O3 0.436868 0.277023 0.783950
O O4 0.915993 0.754116 0.500000
O O5 0.770685 0.603463 0.563885
O O6 0.815683 0.829548 0.607658
O O7 0.987776 0.660492 0.612411
O O8 0.071990 0.842694 0.000000
#
# Coordination Sequence:
#
# PCOD8314770 Si02
#       4
#    16  16   8  16
#     4  10  22  42  72 101 143 200 255 313 370 442
#     4  10  23  41  74 107 148 190 243 306 379 454
#     4   9  22  46  74 105 150 195 247 297 372 466
#     4  11  21  42  69 107 148 189 250 313 373 446
#
# _framework density 22.904368999999999
#
# number of rings (size 3 to 8) (size 9 to 14) (size 15 to 20)
#    0.857    1.000    2.857    0.857    0.000    2.857 
#    0.000   11.429    0.000    0.000    0.000    0.000 
#    0.000    0.000    0.000    0.000    0.000    0.000 
#
# Total GULP energy -694291.243081 kJ/mol
# GULP energy per Si atom -12398.057912 kJ/mol
# Density = 2.285224 g / cm^3
# Si number density = 22.904369 Si / 1000 Ang^3
#
#
#
# Elastic Constant Matrix: (Units=GPa)
#
#
# Indices 1 2 3 4 5 6 
#
# 1 144.3020 83.4160 65.4861 0.0000 0.0000 0.0000
# 2 83.4160 144.3020 65.4861 0.0000 0.0000 0.0000
# 3 65.4861 65.4861 129.6463 0.0000 0.0000 0.0000
# 4 0.0000 0.0000 0.0000 35.7993 0.0000 0.0000
# 5 0.0000 0.0000 0.0000 0.0000 35.7993 0.0000
# 6 0.0000 0.0000 0.0000 0.0000 0.0000 27.5141
#
#
#
# Elastic Compliance Matrix: (Units=1/GPa)
#
#
# Indices 1 2 3 4 5 6 
#
# 1 0.011307 -0.005117 -0.003126 0.000000 0.000000 0.000000
# 2 -0.005117 0.011307 -0.003126 0.000000 0.000000 0.000000
# 3 -0.003126 -0.003126 0.010872 0.000000 0.000000 0.000000
# 4 0.000000 0.000000 0.000000 0.027934 0.000000 0.000000
# 5 0.000000 0.000000 0.000000 0.000000 0.027934 0.000000
# 6 0.000000 0.000000 0.000000 0.000000 0.000000 0.036345
#
#
# Mechanical properties :
#
#
# Convention : Reuss Voigt Hill
#
# Bulk Modulus (GPa) = 93.06569 94.11409 93.58989
# Shear Modulus (GPa) = 32.89053 33.41334 33.15194
#
# Velocity S-wave (km/s) = 3.79356 3.82359 3.80861
# Velocity P-wave (km/s) = 7.74007 7.78925 7.76470
#
# Compressibility (1/GPa) = 0.01074510
#
# Stress axis : x y z
#
# Youngs Moduli (GPa) = 88.44192 88.44192 91.98192
#
# Poissons Ratio (x) = 0.45258 0.28758
# Poissons Ratio (y) = 0.45258 0.28758
# Poissons Ratio (z) = 0.27651 0.27651
#
# Static dielectric constant tensor:
#      x y z
#    x 3.956530 0.000000 0.000000 
#    y 0.000000 3.956530 0.000000 
#    z 0.000000 0.000000 4.166060 
# 
# 
# High freq. dielectric constant tensor:
#      x y z
#    x 1.897790 0.000000 0.000000 
#    y 0.000000 1.897790 0.000000 
#    z 0.000000 0.000000 1.918320 
# 
# From -- ./inp_files/5329.got.cif
#   From: 2010.03.12/outbox.cif.g09.slc.cpg/sg128_3_cif.got.tgz:5329.got - 2010.04.06 17:11:05.
