data_PCOD8314288
_publ_section_title
;
Structure prediction by ZEFSAII (Michael W. Deem and Ramdas Pophale) SiO2 
 PCOD8314288
Probable space group: P 4/M B M
;
_chemical_formula_sum "Si O2"
_cell_formula_units_Z 72
_cell_length_a 21.746811
_cell_length_b 21.746811
_cell_length_c 7.468434
_cell_angle_alpha 90.000000
_cell_angle_beta 90.000000
_cell_angle_gamma 90.000000
_cell_volume 3532.000103
_symmetry_space_group_name_H-M "P 4/M B M"
_symmetry_group_IT_number 127
_symmetry_cell_setting 'tetragonal'
loop_
_space_group_symop_operation_xyz
x,y,z
-y,x,z
-x,-y,z
y,-x,z
1/2+x,1/2-y,-z
1/2-x,1/2+y,-z
1/2+y,1/2+x,-z
1/2-y,1/2-x,-z
-x,-y,-z
y,-x,-z
x,y,-z
-y,x,-z
1/2-x,1/2+y,z
1/2+x,1/2-y,z
1/2-y,1/2-x,z
1/2+y,1/2+x,z
loop_
_atom_site_type_symbol
_atom_site_label
_atom_site_fract_x
_atom_site_fract_y
_atom_site_fract_z
Si Si1 0.594049 0.477972 0.712308
Si Si2 0.673031 0.724566 0.000000
Si Si3 0.548459 0.048459 0.288475
Si Si4 0.187404 0.464148 0.706345
Si Si5 0.271264 0.874199 0.000000
Si Si6 0.073157 0.777569 0.706769
O O1 0.573180 0.545288 0.782459
O O2 0.594091 0.479059 0.500000
O O3 0.662057 0.462112 0.782422
O O4 0.704964 0.657943 0.000000
O O5 0.633936 0.732774 0.820418
O O6 0.723115 0.776886 0.000000
O O7 0.544387 0.044387 0.500000
O O8 0.617181 0.031331 0.224405
O O9 0.500000 0.000000 0.203189
O O10 0.190517 0.442492 0.500000
O O11 0.224521 0.414677 0.821111
O O12 0.218128 0.530449 0.731848
O O13 0.325457 0.825457 0.000000
O O14 0.092266 0.786227 0.500000
#
# Coordination Sequence:
#
# PCOD8314288 Si02
#       6
#    16   8   8  16   8  16
#     4   8  15  30  54  87 122 153 195 250 305 364
#     4  11  27  44  58  85 125 168 212 258 302 368
#     4   9  18  35  61  95 128 157 197 258 323 379
#     4  10  21  39  64  94 125 161 209 260 314 376
#     4  11  23  40  62  87 125 168 208 256 308 363
#     4  10  22  40  64  90 121 166 210 256 314 370
#
# _framework density 20.385051000000001
#
# number of rings (size 3 to 8) (size 9 to 14) (size 15 to 20)
#    0.000    2.333    1.111    1.333    3.111    2.222 
#    0.000    5.556    0.000    1.333    0.000    0.000 
#    0.000    0.000    0.000    0.000    0.000    0.000 
#
# Total GULP energy -892796.388222 kJ/mol
# GULP energy per Si atom -12399.949836 kJ/mol
# Density = 2.033865 g / cm^3
# Si number density = 20.385051 Si / 1000 Ang^3
#
#
#
# Elastic Constant Matrix: (Units=GPa)
#
#
# Indices 1 2 3 4 5 6 
#
# 1 135.0675 74.8189 45.4358 0.0000 0.0000 0.0000
# 2 74.8189 135.0695 45.4363 0.0000 0.0000 0.0000
# 3 45.4358 45.4363 92.2345 0.0000 0.0000 0.0000
# 4 0.0000 0.0000 0.0000 22.3040 0.0000 0.0000
# 5 0.0000 0.0000 0.0000 0.0000 22.3044 0.0000
# 6 0.0000 0.0000 0.0000 0.0000 0.0000 33.3723
#
#
#
# Elastic Compliance Matrix: (Units=1/GPa)
#
#
# Indices 1 2 3 4 5 6 
#
# 1 0.011327 -0.005271 -0.002983 0.000000 0.000000 0.000000
# 2 -0.005271 0.011327 -0.002983 0.000000 0.000000 0.000000
# 3 -0.002983 -0.002983 0.013781 0.000000 0.000000 0.000000
# 4 0.000000 0.000000 0.000000 0.044835 0.000000 0.000000
# 5 0.000000 0.000000 0.000000 0.000000 0.044834 0.000000
# 6 0.000000 0.000000 0.000000 0.000000 0.000000 0.029965
#
#
# Mechanical properties :
#
#
# Convention : Reuss Voigt Hill
#
# Bulk Modulus (GPa) = 71.63271 77.08371 74.35821
# Shear Modulus (GPa) = 27.29300 28.70819 28.00059
#
# Velocity S-wave (km/s) = 3.66303 3.75680 3.71021
# Velocity P-wave (km/s) = 7.28742 7.53087 7.41014
#
# Compressibility (1/GPa) = 0.01396010
#
# Stress axis : x y z
#
# Youngs Moduli (GPa) = 88.28512 88.28630 72.56270
#
# Poissons Ratio (x) = 0.46534 0.21648
# Poissons Ratio (y) = 0.46533 0.21648
# Poissons Ratio (z) = 0.26338 0.26339
#
# Static dielectric constant tensor:
#      x y z
#    x 3.852440 0.000000 0.000000 
#    y 0.000000 3.852450 0.000000 
#    z 0.000000 0.000000 3.242880 
# 
# 
# High freq. dielectric constant tensor:
#      x y z
#    x 1.796870 0.000000 0.000000 
#    y 0.000000 1.796870 0.000000 
#    z 0.000000 0.000000 1.790390 
# 
# From -- ./inp_files/1661.got.cif
#   From: 2010.03.12/outbox.cif.g09.slc.cpg/sg127_1_cif.got.tgz:1661.got - 2010.04.06 17:03:15.
