data_PCOD8314388
_publ_section_title
;
Structure prediction by ZEFSAII (Michael W. Deem and Ramdas Pophale) SiO2 
 PCOD8314388
Probable space group: P 4/M B M
;
_chemical_formula_sum "Si O2"
_cell_formula_units_Z 96
_cell_length_a 14.026386
_cell_length_b 14.026386
_cell_length_c 26.980269
_cell_angle_alpha 90.000000
_cell_angle_beta 90.000000
_cell_angle_gamma 90.000000
_cell_volume 5308.084747
_symmetry_space_group_name_H-M "P 4/M B M"
_symmetry_group_IT_number 127
_symmetry_cell_setting 'tetragonal'
loop_
_space_group_symop_operation_xyz
x,y,z
-y,x,z
-x,-y,z
y,-x,z
1/2+x,1/2-y,-z
1/2-x,1/2+y,-z
1/2+y,1/2+x,-z
1/2-y,1/2-x,-z
-x,-y,-z
y,-x,-z
x,y,-z
-y,x,-z
1/2-x,1/2+y,z
1/2+x,1/2-y,z
1/2-y,1/2-x,z
1/2+y,1/2+x,z
loop_
_atom_site_type_symbol
_atom_site_label
_atom_site_fract_x
_atom_site_fract_y
_atom_site_fract_z
Si Si1 0.565793 0.643048 0.749926
Si Si2 0.063995 0.722541 0.445328
Si Si3 0.149813 0.947688 0.000000
Si Si4 0.255443 0.599685 0.152624
Si Si5 0.398166 0.738747 0.102621
Si Si6 0.068978 0.860135 0.639701
Si Si7 0.426896 0.926896 0.558463
O O1 0.454185 0.623798 0.757954
O O2 0.599833 0.722111 0.788832
O O3 0.587075 0.682716 0.694613
O O4 0.057088 0.772130 0.500000
O O5 0.133314 0.633314 0.449842
O O6 0.105503 0.792620 0.404026
O O7 0.959309 0.681431 0.427938
O O8 0.216274 0.926463 0.953387
O O9 0.057907 0.879951 0.000000
O O10 0.159637 0.659637 0.143041
O O11 0.345128 0.646264 0.124470
O O12 0.238894 0.492955 0.133661
O O13 0.331364 0.831364 0.105240
O O14 0.957190 0.874802 0.633030
O O15 0.437029 0.937029 0.500000
O O16 0.500000 0.000000 0.585158
#
# Coordination Sequence:
#
# PCOD8314388 Si02
#       7
#    16  16   8  16  16  16   8
#     4   9  17  33  58  80 102 136 182 230 271 320
#     4   9  17  31  51  73  98 132 174 216 259 313
#     4  11  21  36  62  91 118 154 200 245 282 322
#     4  11  22  36  61  88 111 152 198 232 285 344
#     4  11  23  39  59  88 124 154 189 241 287 333
#     4   9  19  34  51  75 105 138 170 210 272 329
#     4   7  12  26  48  68  88 122 166 207 247 298
#
# _framework density 18.085619000000001
#
# number of rings (size 3 to 8) (size 9 to 14) (size 15 to 20)
#    0.000    2.333    3.333    2.250    0.000    2.000 
#    1.500    1.250    3.667    1.000    0.000    0.000 
#    0.000    0.000    0.000    0.000    0.000    0.000 
#
# Total GULP energy -1189759.940715 kJ/mol
# GULP energy per Si atom -12393.332716 kJ/mol
# Density = 1.804446 g / cm^3
# Si number density = 18.085619 Si / 1000 Ang^3
#
#
#
# Elastic Constant Matrix: (Units=GPa)
#
#
# Indices 1 2 3 4 5 6 
#
# 1 64.4783 21.3817 27.4995 0.0000 0.0000 0.0000
# 2 21.3817 64.4783 27.4995 0.0000 0.0000 0.0000
# 3 27.4995 27.4995 115.4074 0.0000 0.0000 0.0000
# 4 0.0000 0.0000 0.0000 24.8523 0.0000 0.0000
# 5 0.0000 0.0000 0.0000 0.0000 24.8523 0.0000
# 6 0.0000 0.0000 0.0000 0.0000 0.0000 16.8440
#
#
#
# Elastic Compliance Matrix: (Units=1/GPa)
#
#
# Indices 1 2 3 4 5 6 
#
# 1 0.018474 -0.004729 -0.003275 0.000000 0.000000 0.000000
# 2 -0.004729 0.018474 -0.003275 0.000000 0.000000 0.000000
# 3 -0.003275 -0.003275 0.010226 0.000000 0.000000 0.000000
# 4 0.000000 0.000000 0.000000 0.040238 0.000000 0.000000
# 5 0.000000 0.000000 0.000000 0.000000 0.040238 0.000000
# 6 0.000000 0.000000 0.000000 0.000000 0.000000 0.059368
#
#
# Mechanical properties :
#
#
# Convention : Reuss Voigt Hill
#
# Bulk Modulus (GPa) = 40.62590 44.12505 42.37548
# Shear Modulus (GPa) = 22.95867 24.50858 23.73362
#
# Velocity S-wave (km/s) = 3.56679 3.68522 3.62649
# Velocity P-wave (km/s) = 6.28287 6.52370 6.40442
#
# Compressibility (1/GPa) = 0.02461484
#
# Stress axis : x y z
#
# Youngs Moduli (GPa) = 54.12937 54.12937 97.79211
#
# Poissons Ratio (x) = 0.25600 0.32028
# Poissons Ratio (y) = 0.25600 0.32028
# Poissons Ratio (z) = 0.17728 0.17728
#
# Static dielectric constant tensor:
#      x y z
#    x 3.225320 0.000000 0.000000 
#    y 0.000000 3.225320 0.000000 
#    z 0.000000 0.000000 3.407810 
# 
# 
# High freq. dielectric constant tensor:
#      x y z
#    x 1.685210 0.000000 0.000000 
#    y 0.000000 1.685210 0.000000 
#    z 0.000000 0.000000 1.706560 
# 
# From -- ./inp_files/6125.got.cif
#   From: 2010.03.12/outbox.cif.g09.slc.cpg/sg127_4_cif.got.tgz:6125.got - 2010.04.06 17:03:15.
