data_PCOD8314728
_publ_section_title
;
Structure prediction by ZEFSAII (Michael W. Deem and Ramdas Pophale) SiO2 
 PCOD8314728
Probable space group: P 4/M N C
;
_chemical_formula_sum "Si O2"
_cell_formula_units_Z 96
_cell_length_a 16.140325
_cell_length_b 16.140325
_cell_length_c 18.974352
_cell_angle_alpha 90.000000
_cell_angle_beta 90.000000
_cell_angle_gamma 90.000000
_cell_volume 4943.010168
_symmetry_space_group_name_H-M "P 4/M N C"
_symmetry_group_IT_number 128
_symmetry_cell_setting 'tetragonal'
loop_
_space_group_symop_operation_xyz
x,y,z
-y,x,z
-x,-y,z
y,-x,z
1/2+x,1/2-y,1/2-z
1/2-x,1/2+y,1/2-z
1/2+y,1/2+x,1/2-z
1/2-y,1/2-x,1/2-z
-x,-y,-z
y,-x,-z
x,y,-z
-y,x,-z
1/2-x,1/2+y,1/2+z
1/2+x,1/2-y,1/2+z
1/2-y,1/2-x,1/2+z
1/2+y,1/2+x,1/2+z
loop_
_atom_site_type_symbol
_atom_site_label
_atom_site_fract_x
_atom_site_fract_y
_atom_site_fract_z
Si Si1 0.085674 0.471930 0.862165
Si Si2 0.277474 0.912501 0.262845
Si Si3 0.879341 0.065662 0.355166
Si Si4 0.542255 0.847123 0.000000
Si Si5 0.328757 0.746310 0.500000
Si Si6 0.284602 0.098540 0.000000
Si Si7 0.593905 0.291138 0.000000
Si Si8 0.210013 0.456162 0.390577
O O1 0.161829 0.473060 0.807310
O O2 0.100633 0.529476 0.929121
O O3 0.075858 0.382654 0.895052
O O4 0.000000 0.500000 0.824143
O O5 0.324072 0.824072 0.250000
O O6 0.189966 0.898783 0.301637
O O7 0.258740 0.960414 0.189994
O O8 0.850560 0.089988 0.433023
O O9 0.966993 0.111281 0.343183
O O10 0.640654 0.834375 0.000000
O O11 0.489127 0.764021 0.000000
O O12 0.293778 0.655287 0.500000
O O13 0.264912 0.823613 0.500000
O O14 0.384601 0.741615 0.430725
O O15 0.282214 0.043980 0.929002
#
# Coordination Sequence:
#
# PCOD8314728 Si02
#       8
#    16  16  16   8   8   8   8  16
#     4  11  19  35  61  90 123 161 195 238 312 378
#     4  10  22  40  63  88 123 163 198 256 318 372
#     4  11  25  43  64  89 122 168 216 255 298 360
#     4  12  19  35  60  92 120 160 201 246 297 365
#     4  11  23  38  62  86 116 158 198 251 312 360
#     4  11  24  36  59  94 115 153 207 253 296 370
#     4  12  21  39  63  87 127 162 203 253 300 352
#     4  10  21  40  58  83 122 154 192 250 312 367
#
# _framework density 19.421365000000002
#
# number of rings (size 3 to 8) (size 9 to 14) (size 15 to 20)
#    0.000    1.167    5.000    2.250    2.333    5.000 
#    0.000    0.000    3.667    4.000    0.000    0.000 
#    0.000    0.000    0.000    0.000    0.000    0.000 
#
# Total GULP energy -1189898.833305 kJ/mol
# GULP energy per Si atom -12394.779514 kJ/mol
# Density = 1.937716 g / cm^3
# Si number density = 19.421365 Si / 1000 Ang^3
#
#
#
# Elastic Constant Matrix: (Units=GPa)
#
#
# Indices 1 2 3 4 5 6 
#
# 1 82.9401 27.8879 46.3342 0.0000 0.0000 0.0000
# 2 27.8879 82.9401 46.3342 0.0000 0.0000 0.0000
# 3 46.3342 46.3342 142.0032 0.0000 0.0000 0.0000
# 4 0.0000 0.0000 0.0000 22.0829 0.0000 0.0000
# 5 0.0000 0.0000 0.0000 0.0000 22.0829 0.0000
# 6 0.0000 0.0000 0.0000 0.0000 0.0000 29.0075
#
#
#
# Elastic Compliance Matrix: (Units=1/GPa)
#
#
# Indices 1 2 3 4 5 6 
#
# 1 0.015286 -0.002878 -0.004049 0.000000 0.000000 0.000000
# 2 -0.002878 0.015286 -0.004049 0.000000 0.000000 0.000000
# 3 -0.004049 -0.004049 0.009684 0.000000 0.000000 0.000000
# 4 0.000000 0.000000 0.000000 0.045284 0.000000 0.000000
# 5 0.000000 0.000000 0.000000 0.000000 0.045284 0.000000
# 6 0.000000 0.000000 0.000000 0.000000 0.000000 0.034474
#
#
# Mechanical properties :
#
#
# Convention : Reuss Voigt Hill
#
# Bulk Modulus (GPa) = 54.62697 60.99956 57.81326
# Shear Modulus (GPa) = 25.85961 27.12315 26.49138
#
# Velocity S-wave (km/s) = 3.65294 3.74112 3.69729
# Velocity P-wave (km/s) = 6.78087 7.08081 6.93247
#
# Compressibility (1/GPa) = 0.01830598
#
# Stress axis : x y z
#
# Youngs Moduli (GPa) = 65.41753 65.41753 103.26113
#
# Poissons Ratio (x) = 0.18828 0.41807
# Poissons Ratio (y) = 0.18828 0.41807
# Poissons Ratio (z) = 0.26486 0.26486
#
# Static dielectric constant tensor:
#      x y z
#    x 3.495020 0.000000 0.000000 
#    y 0.000000 3.495020 0.000000 
#    z 0.000000 0.000000 3.725470 
# 
# 
# High freq. dielectric constant tensor:
#      x y z
#    x 1.746330 0.000000 0.000000 
#    y 0.000000 1.746330 0.000000 
#    z 0.000000 0.000000 1.767160 
# 
# From -- ./inp_files/5847.got.cif
#   From: 2010.03.12/outbox.cif.g09.slc.cpg/sg128_3_cif.got.tgz:5847.got - 2010.04.06 17:11:05.
