data_PCOD8314155
_publ_section_title
;
Structure prediction by ZEFSAII (Michael W. Deem and Ramdas Pophale) SiO2 
 PCOD8314155
Probable space group: P 4/M B M
;
_chemical_formula_sum "Si O2"
_cell_formula_units_Z 96
_cell_length_a 15.286908
_cell_length_b 15.286908
_cell_length_c 22.112140
_cell_angle_alpha 90.000000
_cell_angle_beta 90.000000
_cell_angle_gamma 90.000000
_cell_volume 5167.376183
_symmetry_space_group_name_H-M "P 4/M B M"
_symmetry_group_IT_number 127
_symmetry_cell_setting 'tetragonal'
loop_
_space_group_symop_operation_xyz
x,y,z
-y,x,z
-x,-y,z
y,-x,z
1/2+x,1/2-y,-z
1/2-x,1/2+y,-z
1/2+y,1/2+x,-z
1/2-y,1/2-x,-z
-x,-y,-z
y,-x,-z
x,y,-z
-y,x,-z
1/2-x,1/2+y,z
1/2+x,1/2-y,z
1/2-y,1/2-x,z
1/2+y,1/2+x,z
loop_
_atom_site_type_symbol
_atom_site_label
_atom_site_fract_x
_atom_site_fract_y
_atom_site_fract_z
Si Si1 0.188720 0.830309 0.833555
Si Si2 0.072773 0.572773 0.068284
Si Si3 0.570488 0.625204 0.065808
Si Si4 0.327777 0.974216 0.833089
Si Si5 0.028852 0.857070 0.368992
Si Si6 0.140650 0.028441 0.500000
Si Si7 0.098429 0.736667 0.731767
O O1 0.256163 0.756163 0.851486
O O2 0.109696 0.816427 0.880861
O O3 0.235455 0.924034 0.838983
O O4 0.147897 0.815086 0.767409
O O5 0.153827 0.530524 0.105902
O O6 0.000000 0.500000 0.060742
O O7 0.102141 0.602141 0.000000
O O8 0.467994 0.616941 0.072747
O O9 0.594061 0.665063 0.000000
O O10 0.407038 0.907038 0.820491
O O11 0.320643 0.037567 0.775704
O O12 0.038491 0.809794 0.435493
O O13 0.041680 0.780049 0.320986
O O14 0.932782 0.898596 0.360810
O O15 0.066766 0.100613 0.500000
O O16 0.171110 0.671110 0.704035
#
# Coordination Sequence:
#
# PCOD8314155 Si02
#       7
#    16   8  16  16  16   8  16
#     4  10  21  33  49  70  98 126 155 207 262 303
#     4   9  18  34  56  74  86 117 175 224 250 295
#     4   9  18  33  51  67  86 118 157 192 235 304
#     4  10  20  36  54  73  98 133 174 213 257 310
#     4   9  17  31  53  79 105 138 175 211 251 301
#     4   7  12  26  49  76 104 133 173 215 246 285
#     4  11  21  33  49  74 108 135 167 210 260 312
#
# _framework density 18.578092999999999
#
# number of rings (size 3 to 8) (size 9 to 14) (size 15 to 20)
#    0.000    2.500    0.833    3.500    0.000    1.000 
#    0.000    4.583    0.000    0.000    0.000    1.750 
#    0.000    1.333    0.000    0.000    0.000    0.000 
#
# Total GULP energy -1189566.770815 kJ/mol
# GULP energy per Si atom -12391.320529 kJ/mol
# Density = 1.853581 g / cm^3
# Si number density = 18.578093 Si / 1000 Ang^3
#
#
#
# Elastic Constant Matrix: (Units=GPa)
#
#
# Indices 1 2 3 4 5 6 
#
# 1 41.5242 8.2867 29.8947 0.0000 0.0000 0.0000
# 2 8.2867 41.5242 29.8947 0.0000 0.0000 0.0000
# 3 29.8947 29.8947 128.7838 0.0000 0.0000 0.0000
# 4 0.0000 0.0000 0.0000 22.1056 0.0000 0.0000
# 5 0.0000 0.0000 0.0000 0.0000 22.1056 0.0000
# 6 0.0000 0.0000 0.0000 0.0000 0.0000 25.0460
#
#
#
# Elastic Compliance Matrix: (Units=1/GPa)
#
#
# Indices 1 2 3 4 5 6 
#
# 1 0.028958 -0.001128 -0.006460 0.000000 0.000000 0.000000
# 2 -0.001128 0.028958 -0.006460 0.000000 0.000000 0.000000
# 3 -0.006460 -0.006460 0.010764 0.000000 0.000000 0.000000
# 4 0.000000 0.000000 0.000000 0.045237 0.000000 0.000000
# 5 0.000000 0.000000 0.000000 0.000000 0.045237 0.000000
# 6 0.000000 0.000000 0.000000 0.000000 0.000000 0.039927
#
#
# Mechanical properties :
#
#
# Convention : Reuss Voigt Hill
#
# Bulk Modulus (GPa) = 24.64036 38.66493 31.65264
# Shear Modulus (GPa) = 20.77207 23.43517 22.10362
#
# Velocity S-wave (km/s) = 3.34742 3.55553 3.45304
# Velocity P-wave (km/s) = 5.31340 6.14109 5.74218
#
# Compressibility (1/GPa) = 0.04058383
#
# Stress axis : x y z
#
# Youngs Moduli (GPa) = 34.53224 34.53224 92.90033
#
# Poissons Ratio (x) = 0.03895 0.60016
# Poissons Ratio (y) = 0.03895 0.60016
# Poissons Ratio (z) = 0.22309 0.22309
#
# Static dielectric constant tensor:
#      x y z
#    x 3.363120 0.000000 0.000000 
#    y 0.000000 3.363120 0.000000 
#    z 0.000000 0.000000 3.599790 
# 
# 
# High freq. dielectric constant tensor:
#      x y z
#    x 1.709510 0.000000 0.000000 
#    y 0.000000 1.709510 0.000000 
#    z 0.000000 0.000000 1.714310 
# 
# From -- ./inp_files/5838.got.cif
#   From: 2010.03.12/outbox.cif.g09.slc.cpg/sg127_3_cif.got.tgz:5838.got - 2010.04.06 17:03:15.
