data_PCOD8314753
_publ_section_title
;
Structure prediction by ZEFSAII (Michael W. Deem and Ramdas Pophale) SiO2 
 PCOD8314753
Probable space group: P 4/M N C
;
_chemical_formula_sum "Si O2"
_cell_formula_units_Z 40
_cell_length_a 10.291510
_cell_length_b 10.291510
_cell_length_c 18.370918
_cell_angle_alpha 90.000000
_cell_angle_beta 90.000000
_cell_angle_gamma 90.000000
_cell_volume 1945.759051
_symmetry_space_group_name_H-M "P 4/M N C"
_symmetry_group_IT_number 128
_symmetry_cell_setting 'tetragonal'
loop_
_space_group_symop_operation_xyz
x,y,z
-y,x,z
-x,-y,z
y,-x,z
1/2+x,1/2-y,1/2-z
1/2-x,1/2+y,1/2-z
1/2+y,1/2+x,1/2-z
1/2-y,1/2-x,1/2-z
-x,-y,-z
y,-x,-z
x,y,-z
-y,x,-z
1/2-x,1/2+y,1/2+z
1/2+x,1/2-y,1/2+z
1/2-y,1/2-x,1/2+z
1/2+y,1/2+x,1/2+z
loop_
_atom_site_type_symbol
_atom_site_label
_atom_site_fract_x
_atom_site_fract_y
_atom_site_fract_z
Si Si1 0.414608 0.699342 0.500000
Si Si2 0.522102 0.288156 0.238514
Si Si3 0.611446 0.093106 0.130873
O O1 0.331245 0.567775 0.500000
O O2 0.374274 0.781748 0.429642
O O3 0.641640 0.385821 0.247524
O O4 0.540230 0.223798 0.159016
O O5 0.523820 0.180241 0.301017
O O6 0.500000 0.000000 0.098023
#
# Coordination Sequence:
#
# PCOD8314753 Si02
#       3
#     8  16  16
#     4  11  25  44  66  89 122 168 210 259 313 372
#     4  10  22  39  63  93 125 164 204 255 309 366
#     4  11  24  38  65  93 125 161 207 261 309 367
#
# _framework density 20.557531000000001
#
# number of rings (size 3 to 8) (size 9 to 14) (size 15 to 20)
#    0.000    1.400    0.000    5.400   16.800    3.200 
#    0.000    0.000    0.000    2.400    0.000    0.000 
#    0.000    0.000    0.000    0.000    0.000    0.000 
#
# Total GULP energy -496099.393746 kJ/mol
# GULP energy per Si atom -12402.484844 kJ/mol
# Density = 2.051074 g / cm^3
# Si number density = 20.557531 Si / 1000 Ang^3
#
#
#
# Elastic Constant Matrix: (Units=GPa)
#
#
# Indices 1 2 3 4 5 6 
#
# 1 67.9360 15.8485 13.2083 0.0000 0.0000 0.0000
# 2 15.8485 67.9360 13.2083 0.0000 0.0000 0.0000
# 3 13.2083 13.2083 96.1286 0.0000 0.0000 0.0000
# 4 0.0000 0.0000 0.0000 25.2202 0.0000 0.0000
# 5 0.0000 0.0000 0.0000 0.0000 25.2202 0.0000
# 6 0.0000 0.0000 0.0000 0.0000 0.0000 20.8448
#
#
#
# Elastic Compliance Matrix: (Units=1/GPa)
#
#
# Indices 1 2 3 4 5 6 
#
# 1 0.015837 -0.003361 -0.001714 0.000000 0.000000 0.000000
# 2 -0.003361 0.015837 -0.001714 0.000000 0.000000 0.000000
# 3 -0.001714 -0.001714 0.010874 0.000000 0.000000 0.000000
# 4 0.000000 0.000000 0.000000 0.039651 0.000000 0.000000
# 5 0.000000 0.000000 0.000000 0.000000 0.039651 0.000000
# 6 0.000000 0.000000 0.000000 0.000000 0.000000 0.047974
#
#
# Mechanical properties :
#
#
# Convention : Reuss Voigt Hill
#
# Bulk Modulus (GPa) = 34.52004 35.17008 34.84506
# Shear Modulus (GPa) = 25.89884 26.90609 26.40246
#
# Velocity S-wave (km/s) = 3.55325 3.62169 3.58763
# Velocity P-wave (km/s) = 5.80194 5.88507 5.84365
#
# Compressibility (1/GPa) = 0.02896868
#
# Stress axis : x y z
#
# Youngs Moduli (GPa) = 63.14258 63.14258 91.96420
#
# Poissons Ratio (x) = 0.21224 0.15765
# Poissons Ratio (y) = 0.21224 0.15765
# Poissons Ratio (z) = 0.10824 0.10824
#
# Static dielectric constant tensor:
#      x y z
#    x 3.833200 0.000000 0.000000 
#    y 0.000000 3.833200 0.000000 
#    z 0.000000 0.000000 3.687600 
# 
# 
# High freq. dielectric constant tensor:
#      x y z
#    x 1.814340 0.000000 0.000000 
#    y 0.000000 1.814340 0.000000 
#    z 0.000000 0.000000 1.789030 
# 
# From -- ./inp_files/3251.got.cif
#   From: 2010.03.12/outbox.cif.g09.slc.cpg/sg128_2_cif.got.tgz:3251.got - 2010.04.06 17:11:05.
