data_PCOD8314947
_publ_section_title
;
Structure prediction by ZEFSAII (Michael W. Deem and Ramdas Pophale) SiO2 
 PCOD8314947
Probable space group: P 4/N M M
;
_chemical_formula_sum "Si O2"
_cell_formula_units_Z 56
_cell_length_a 18.228231
_cell_length_b 18.228231
_cell_length_c 9.402729
_cell_angle_alpha 90.000000
_cell_angle_beta 90.000000
_cell_angle_gamma 90.000000
_cell_volume 3124.229771
_symmetry_space_group_name_H-M "P 4/N M M"
_symmetry_group_IT_number 129
_symmetry_cell_setting 'tetragonal'
loop_
_space_group_symop_operation_xyz
x,y,z
1/2-y,x,z
1/2-x,1/2-y,z
y,1/2-x,z
1/2+x,-y,-z
-x,1/2+y,-z
1/2+y,1/2+x,-z
-y,-x,-z
-x,-y,-z
1/2+y,-x,-z
1/2+x,1/2+y,-z
-y,1/2+x,-z
1/2-x,y,z
x,1/2-y,z
1/2-y,1/2-x,z
y,x,z
loop_
_atom_site_type_symbol
_atom_site_label
_atom_site_fract_x
_atom_site_fract_y
_atom_site_fract_z
Si Si1 0.331436 0.977558 0.144504
Si Si2 0.170446 0.670446 0.000000
Si Si3 0.066628 0.551311 0.653855
Si Si4 0.335967 0.455915 0.839270
O O1 0.250000 0.000360 0.198003
O O2 0.392317 0.988462 0.265314
O O3 0.335790 0.890423 0.120402
O O4 0.351008 0.022079 0.002625
O O5 0.162593 0.750000 0.076223
O O6 0.086914 0.586914 0.500000
O O7 0.138173 0.525202 0.743157
O O8 0.023073 0.476928 0.626700
O O9 0.250000 0.441085 0.810815
O O10 0.381546 0.381546 0.807680
#
# Coordination Sequence:
#
# PCOD8314947 Si02
#       4
#    16   8  16  16
#     4  10  18  30  50  74  98 128 163 202 247 295
#     4   9  16  26  43  68  96 124 155 190 231 286
#     4  10  20  33  49  71 101 133 165 204 247 293
#     4  10  20  34  53  74  98 130 167 208 251 295
#
# _framework density 17.924419
#
# number of rings (size 3 to 8) (size 9 to 14) (size 15 to 20)
#    0.000    2.143    2.857    0.857    0.000    3.714 
#    0.000    0.000    0.000    0.000    0.000    2.000 
#    0.000    6.857    0.000    0.000    0.000    0.000 
#
# Total GULP energy -693765.277482 kJ/mol
# GULP energy per Si atom -12388.665669 kJ/mol
# Density = 1.788362 g / cm^3
# Si number density = 17.924419 Si / 1000 Ang^3
#
#
#
# Elastic Constant Matrix: (Units=GPa)
#
#
# Indices 1 2 3 4 5 6 
#
# 1 80.1162 30.5089 30.8950 0.0000 0.0000 0.0000
# 2 30.5089 80.1162 30.8950 0.0000 0.0000 0.0000
# 3 30.8950 30.8950 97.2348 0.0000 0.0000 0.0000
# 4 0.0000 0.0000 0.0000 16.6105 0.0000 0.0000
# 5 0.0000 0.0000 0.0000 0.0000 16.6105 0.0000
# 6 0.0000 0.0000 0.0000 0.0000 0.0000 21.5205
#
#
#
# Elastic Compliance Matrix: (Units=1/GPa)
#
#
# Indices 1 2 3 4 5 6 
#
# 1 0.015574 -0.004584 -0.003492 0.000000 0.000000 0.000000
# 2 -0.004584 0.015574 -0.003492 0.000000 0.000000 0.000000
# 3 -0.003492 -0.003492 0.012503 0.000000 0.000000 0.000000
# 4 0.000000 0.000000 0.000000 0.060203 0.000000 0.000000
# 5 0.000000 0.000000 0.000000 0.000000 0.060203 0.000000
# 6 0.000000 0.000000 0.000000 0.000000 0.000000 0.046467
#
#
# Mechanical properties :
#
#
# Convention : Reuss Voigt Hill
#
# Bulk Modulus (GPa) = 48.74318 49.11831 48.93075
# Shear Modulus (GPa) = 20.79007 21.95951 21.37479
#
# Velocity S-wave (km/s) = 3.40939 3.50396 3.45700
# Velocity P-wave (km/s) = 6.53845 6.62064 6.57967
#
# Compressibility (1/GPa) = 0.02051569
#
# Stress axis : x y z
#
# Youngs Moduli (GPa) = 64.20897 64.20897 79.97832
#
# Poissons Ratio (x) = 0.29435 0.27928
# Poissons Ratio (y) = 0.29435 0.27928
# Poissons Ratio (z) = 0.22421 0.22421
#
# Static dielectric constant tensor:
#      x y z
#    x 3.335660 0.000000 0.000000 
#    y 0.000000 3.335660 0.000000 
#    z 0.000000 0.000000 3.290200 
# 
# 
# High freq. dielectric constant tensor:
#      x y z
#    x 1.690000 0.000000 0.000000 
#    y 0.000000 1.690000 0.000000 
#    z 0.000000 0.000000 1.666190 
# 
# From -- ./inp_files/1714.got.cif
#   From: 2010.03.12/outbox.cif.g09.slc.cpg/sg129_1_cif.got.tgz:1714.got - 2010.04.06 17:19:44.
