data_PCOD8314135
_publ_section_title
;
Structure prediction by ZEFSAII (Michael W. Deem and Ramdas Pophale) SiO2 
 PCOD8314135
Probable space group: P 4/M B M
;
_chemical_formula_sum "Si O2"
_cell_formula_units_Z 112
_cell_length_a 15.111224
_cell_length_b 15.111224
_cell_length_c 25.901454
_cell_angle_alpha 90.000000
_cell_angle_beta 90.000000
_cell_angle_gamma 90.000000
_cell_volume 5914.573471
_symmetry_space_group_name_H-M "P 4/M B M"
_symmetry_group_IT_number 127
_symmetry_cell_setting 'tetragonal'
loop_
_space_group_symop_operation_xyz
x,y,z
-y,x,z
-x,-y,z
y,-x,z
1/2+x,1/2-y,-z
1/2-x,1/2+y,-z
1/2+y,1/2+x,-z
1/2-y,1/2-x,-z
-x,-y,-z
y,-x,-z
x,y,-z
-y,x,-z
1/2-x,1/2+y,z
1/2+x,1/2-y,z
1/2-y,1/2-x,z
1/2+y,1/2+x,z
loop_
_atom_site_type_symbol
_atom_site_label
_atom_site_fract_x
_atom_site_fract_y
_atom_site_fract_z
Si Si1 0.497153 0.143183 0.234058
Si Si2 0.004460 0.642315 0.555463
Si Si3 0.470395 0.641858 0.940534
Si Si4 0.243262 0.508205 0.658193
Si Si5 0.596195 0.244943 0.853885
Si Si6 0.603128 0.394389 0.216071
Si Si7 0.319020 0.328408 0.317653
O O1 0.575648 0.075648 0.242174
O O2 0.483625 0.184897 0.290372
O O3 0.524881 0.210820 0.188740
O O4 0.406728 0.093272 0.217605
O O5 0.999723 0.694937 0.500000
O O6 0.936393 0.563608 0.552473
O O7 0.102967 0.602967 0.561992
O O8 0.980521 0.696715 0.605678
O O9 0.397427 0.566859 0.927734
O O10 0.452990 0.731337 0.907492
O O11 0.464284 0.670162 0.000000
O O12 0.287378 0.603190 0.647907
O O13 0.311983 0.429175 0.664397
O O14 0.673771 0.173771 0.863549
O O15 0.634428 0.340251 0.834566
O O16 0.623112 0.497724 0.218582
O O17 0.664906 0.349571 0.258801
O O18 0.228359 0.271642 0.321867
#
# Coordination Sequence:
#
# PCOD8314135 Si02
#       7
#    16  16  16  16  16  16  16
#     4  10  20  35  55  78 110 152 192 233 285 344
#     4   9  18  35  60  86 111 145 195 253 305 352
#     4   9  19  38  62  83 105 142 190 234 280 337
#     4  12  23  37  56  83 118 153 193 242 294 352
#     4  11  21  34  54  84 118 148 184 235 288 342
#     4  11  21  36  55  78 112 154 195 234 284 337
#     4  12  23  36  56  83 114 151 193 237 291 353
#
# _framework density 18.936275999999999
#
# number of rings (size 3 to 8) (size 9 to 14) (size 15 to 20)
#    0.000    1.429    2.857    4.714    0.000    2.857 
#    0.000    5.000    0.000    3.857    0.000    3.000 
#    0.000    0.000    0.000    0.000    0.000    0.000 
#
# Total GULP energy -1387497.353350 kJ/mol
# GULP energy per Si atom -12388.369226 kJ/mol
# Density = 1.889318 g / cm^3
# Si number density = 18.936276 Si / 1000 Ang^3
#
#
#
# Elastic Constant Matrix: (Units=GPa)
#
#
# Indices 1 2 3 4 5 6 
#
# 1 77.0614 24.3272 31.9478 0.0000 0.0000 0.0000
# 2 24.3272 77.0614 31.9478 0.0000 0.0000 0.0000
# 3 31.9478 31.9478 97.7703 0.0000 0.0000 0.0000
# 4 0.0000 0.0000 0.0000 18.0175 0.0000 0.0000
# 5 0.0000 0.0000 0.0000 0.0000 18.0175 0.0000
# 6 0.0000 0.0000 0.0000 0.0000 0.0000 13.5539
#
#
#
# Elastic Compliance Matrix: (Units=1/GPa)
#
#
# Indices 1 2 3 4 5 6 
#
# 1 0.015692 -0.003271 -0.004059 0.000000 0.000000 0.000000
# 2 -0.003271 0.015692 -0.004059 0.000000 0.000000 0.000000
# 3 -0.004059 -0.004059 0.012881 0.000000 0.000000 0.000000
# 4 0.000000 0.000000 0.000000 0.055502 0.000000 0.000000
# 5 0.000000 0.000000 0.000000 0.000000 0.055502 0.000000
# 6 0.000000 0.000000 0.000000 0.000000 0.000000 0.073780
#
#
# Mechanical properties :
#
#
# Convention : Reuss Voigt Hill
#
# Bulk Modulus (GPa) = 46.53872 47.59316 47.06594
# Shear Modulus (GPa) = 19.30600 20.82912 20.06756
#
# Velocity S-wave (km/s) = 3.19646 3.32016 3.25890
# Velocity P-wave (km/s) = 6.18490 6.31552 6.25055
#
# Compressibility (1/GPa) = 0.02148748
#
# Stress axis : x y z
#
# Youngs Moduli (GPa) = 63.72704 63.72704 77.63666
#
# Poissons Ratio (x) = 0.20846 0.31510
# Poissons Ratio (y) = 0.20846 0.31510
# Poissons Ratio (z) = 0.25865 0.25865
#
# Static dielectric constant tensor:
#      x y z
#    x 3.873710 0.000000 0.000000 
#    y 0.000000 3.873710 0.000000 
#    z 0.000000 0.000000 4.338170 
# 
# 
# High freq. dielectric constant tensor:
#      x y z
#    x 1.731030 0.000000 0.000000 
#    y 0.000000 1.731030 0.000000 
#    z 0.000000 0.000000 1.730160 
# 
# From -- ./inp_files/6402.got.cif
#   From: 2010.03.12/outbox.cif.g09.slc.cpg/sg127_4_cif.got.tgz:6402.got - 2010.04.06 17:03:15.
