data_PCOD8314941
_publ_section_title
;
Structure prediction by ZEFSAII (Michael W. Deem and Ramdas Pophale) SiO2 
 PCOD8314941
Probable space group: P 4/N M M
;
_chemical_formula_sum "Si O2"
_cell_formula_units_Z 104
_cell_length_a 16.981471
_cell_length_b 16.981471
_cell_length_c 21.279923
_cell_angle_alpha 90.000000
_cell_angle_beta 90.000000
_cell_angle_gamma 90.000000
_cell_volume 6136.498999
_symmetry_space_group_name_H-M "P 4/N M M"
_symmetry_group_IT_number 129
_symmetry_cell_setting 'tetragonal'
loop_
_space_group_symop_operation_xyz
x,y,z
1/2-y,x,z
1/2-x,1/2-y,z
y,1/2-x,z
1/2+x,-y,-z
-x,1/2+y,-z
1/2+y,1/2+x,-z
-y,-x,-z
-x,-y,-z
1/2+y,-x,-z
1/2+x,1/2+y,-z
-y,1/2+x,-z
1/2-x,y,z
x,1/2-y,z
1/2-y,1/2-x,z
y,x,z
loop_
_atom_site_type_symbol
_atom_site_label
_atom_site_fract_x
_atom_site_fract_y
_atom_site_fract_z
Si Si1 0.161371 0.658778 0.573071
Si Si2 0.842074 0.157927 0.000000
Si Si3 0.044828 0.584744 0.900647
Si Si4 0.045071 0.164833 0.866276
Si Si5 0.955501 0.664812 0.280396
Si Si6 0.421535 0.550448 0.329736
Si Si7 0.531472 0.840240 0.780503
O O1 0.144936 0.644936 0.500000
O O2 0.250000 0.628429 0.590115
O O3 0.156010 0.750000 0.590664
O O4 0.091976 0.614030 0.609214
O O5 0.913598 0.143144 0.049533
O O6 0.750000 0.148132 0.023188
O O7 0.116205 0.532867 0.876511
O O8 0.971935 0.528066 0.925634
O O9 0.016609 0.636571 0.842430
O O10 0.037735 0.250000 0.899179
O O11 0.119826 0.119826 0.896520
O O12 0.058848 0.174755 0.792877
O O13 0.961107 0.750000 0.313368
O O14 0.882119 0.617882 0.311031
O O15 0.034882 0.616883 0.289742
O O16 0.480716 0.480716 0.351074
O O17 0.354757 0.518125 0.283034
O O18 0.554822 0.750000 0.784403
O O19 0.611948 0.888053 0.777232
#
# Coordination Sequence:
#
# PCOD8314941 Si02
#       7
#    16   8  16  16  16  16  16
#     4   9  18  32  48  67  94 127 162 201 242 281
#     4  11  23  36  50  72 101 127 156 198 242 285
#     4  10  19  35  54  71  93 126 163 195 233 282
#     4   9  16  27  44  65  92 123 155 192 231 272
#     4   9  16  26  41  63  91 123 156 191 230 271
#     4  10  18  30  48  71  97 125 158 194 235 284
#     4  10  20  34  53  75  98 123 153 192 235 283
#
# _framework density 16.947773000000002
#
# number of rings (size 3 to 8) (size 9 to 14) (size 15 to 20)
#    0.000    2.385    1.538    2.538    0.000    0.769 
#    0.000    1.538    0.000    3.692    0.000    0.000 
#    0.000   11.077    0.000   28.615    0.000    0.154 
#
# Total GULP energy -1288393.121646 kJ/mol
# GULP energy per Si atom -12388.395400 kJ/mol
# Density = 1.690920 g / cm^3
# Si number density = 16.947773 Si / 1000 Ang^3
#
#
#
# Elastic Constant Matrix: (Units=GPa)
#
#
# Indices 1 2 3 4 5 6 
#
# 1 107.7801 45.4991 33.4375 0.0000 0.0000 0.0000
# 2 45.4991 107.7798 33.4373 0.0000 0.0000 0.0000
# 3 33.4375 33.4373 61.1755 0.0000 0.0000 0.0000
# 4 0.0000 0.0000 0.0000 11.9316 0.0000 0.0000
# 5 0.0000 0.0000 0.0000 0.0000 11.9326 0.0000
# 6 0.0000 0.0000 0.0000 0.0000 0.0000 20.4725
#
#
#
# Elastic Compliance Matrix: (Units=1/GPa)
#
#
# Indices 1 2 3 4 5 6 
#
# 1 0.012312 -0.003745 -0.004683 0.000000 0.000000 0.000000
# 2 -0.003745 0.012312 -0.004683 0.000000 0.000000 0.000000
# 3 -0.004683 -0.004683 0.021465 0.000000 0.000000 0.000000
# 4 0.000000 0.000000 0.000000 0.083811 0.000000 0.000000
# 5 0.000000 0.000000 0.000000 0.000000 0.083804 0.000000
# 6 0.000000 0.000000 0.000000 0.000000 0.000000 0.048846
#
#
# Mechanical properties :
#
#
# Convention : Reuss Voigt Hill
#
# Bulk Modulus (GPa) = 50.32970 55.72035 53.02503
# Shear Modulus (GPa) = 16.92665 19.82478 18.37571
#
# Velocity S-wave (km/s) = 3.16373 3.42388 3.29638
# Velocity P-wave (km/s) = 6.56559 6.96991 6.77077
#
# Compressibility (1/GPa) = 0.01986898
#
# Stress axis : x y z
#
# Youngs Moduli (GPa) = 81.22385 81.22375 46.58694
#
# Poissons Ratio (x) = 0.30415 0.21815
# Poissons Ratio (y) = 0.30415 0.21815
# Poissons Ratio (z) = 0.38034 0.38033
#
# Static dielectric constant tensor:
#      x y z
#    x 3.394370 0.000000 0.000000 
#    y 0.000000 3.394350 0.000000 
#    z 0.000000 0.000000 2.963880 
# 
# 
# High freq. dielectric constant tensor:
#      x y z
#    x 1.658470 0.000000 0.000000 
#    y 0.000000 1.658470 0.000000 
#    z 0.000000 0.000000 1.623700 
# 
# From -- ./inp_files/5833.got.cif
#   From: 2010.03.12/outbox.cif.g09.slc.cpg/sg129_3_cif.got.tgz:5833.got - 2010.04.06 17:19:44.
