data_PCOD8314651
_publ_section_title
;
Structure prediction by ZEFSAII (Michael W. Deem and Ramdas Pophale) SiO2 
 PCOD8314651
Probable space group: P 4/M N C
;
_chemical_formula_sum "Si O2"
_cell_formula_units_Z 112
_cell_length_a 14.544760
_cell_length_b 14.544760
_cell_length_c 28.223083
_cell_angle_alpha 90.000000
_cell_angle_beta 90.000000
_cell_angle_gamma 90.000000
_cell_volume 5970.594435
_symmetry_space_group_name_H-M "P 4/M N C"
_symmetry_group_IT_number 128
_symmetry_cell_setting 'tetragonal'
loop_
_space_group_symop_operation_xyz
x,y,z
-y,x,z
-x,-y,z
y,-x,z
1/2+x,1/2-y,1/2-z
1/2-x,1/2+y,1/2-z
1/2+y,1/2+x,1/2-z
1/2-y,1/2-x,1/2-z
-x,-y,-z
y,-x,-z
x,y,-z
-y,x,-z
1/2-x,1/2+y,1/2+z
1/2+x,1/2-y,1/2+z
1/2-y,1/2-x,1/2+z
1/2+y,1/2+x,1/2+z
loop_
_atom_site_type_symbol
_atom_site_label
_atom_site_fract_x
_atom_site_fract_y
_atom_site_fract_z
Si Si1 0.227789 0.590462 0.500000
Si Si2 0.211234 0.189694 0.638629
Si Si3 0.654533 0.114718 0.586730
Si Si4 0.124186 0.252215 0.000000
Si Si5 0.409074 0.159246 0.921320
Si Si6 0.622833 0.414482 0.776664
Si Si7 0.514229 0.901171 0.656098
Si Si8 0.867703 0.270017 0.207195
O O1 0.316854 0.657342 0.500000
O O2 0.266301 0.485968 0.500000
O O3 0.159614 0.605951 0.543998
O O4 0.133507 0.260919 0.622157
O O5 0.241275 0.133677 0.591275
O O6 0.173252 0.118654 0.676461
O O7 0.297632 0.241997 0.663158
O O8 0.651734 0.191851 0.546551
O O9 0.564128 0.123201 0.618639
O O10 0.665567 0.015059 0.560706
O O11 0.416055 0.108710 0.871548
O O12 0.627292 0.522974 0.777607
O O13 0.668536 0.383850 0.727326
O O14 0.534705 0.817396 0.692052
O O15 0.500000 0.000000 0.682373
O O16 0.830644 0.330644 0.250000
#
# Coordination Sequence:
#
# PCOD8314651 Si02
#       8
#     8  16  16   8  16  16  16  16
#     4  12  23  42  61  88 124 156 197 245 293 360
#     4  10  20  37  56  83 115 152 195 246 300 356
#     4  11  21  35  62  91 115 158 203 243 317 365
#     4  12  25  40  65  92 120 162 197 243 307 362
#     4  10  20  36  59  85 120 149 193 249 290 366
#     4  10  21  37  56  78 111 156 202 245 292 355
#     4   9  19  34  55  86 115 148 191 245 304 361
#     4   9  20  36  55  80 117 151 192 248 300 358
#
# _framework density 18.758600000000001
#
# number of rings (size 3 to 8) (size 9 to 14) (size 15 to 20)
#    0.000    1.857    2.857    1.286    2.000    2.143 
#    0.000    0.000    0.000    0.000    0.000    1.000 
#    0.000    0.000    0.000    0.000    0.000    0.000 
#
# Total GULP energy -1388031.780712 kJ/mol
# GULP energy per Si atom -12393.140899 kJ/mol
# Density = 1.871590 g / cm^3
# Si number density = 18.758600 Si / 1000 Ang^3
#
#
#
# Elastic Constant Matrix: (Units=GPa)
#
#
# Indices 1 2 3 4 5 6 
#
# 1 118.7581 33.7352 29.9500 0.0000 0.0000 0.0000
# 2 33.7352 118.7581 29.9500 0.0000 0.0000 0.0000
# 3 29.9500 29.9500 59.7398 0.0000 0.0000 0.0000
# 4 0.0000 0.0000 0.0000 16.4960 0.0000 0.0000
# 5 0.0000 0.0000 0.0000 0.0000 16.4960 0.0000
# 6 0.0000 0.0000 0.0000 0.0000 0.0000 30.8334
#
#
#
# Elastic Compliance Matrix: (Units=1/GPa)
#
#
# Indices 1 2 3 4 5 6 
#
# 1 0.009964 -0.001798 -0.004094 0.000000 0.000000 0.000000
# 2 -0.001798 0.009964 -0.004094 0.000000 0.000000 0.000000
# 3 -0.004094 -0.004094 0.020844 0.000000 0.000000 0.000000
# 4 0.000000 0.000000 0.000000 0.060621 0.000000 0.000000
# 5 0.000000 0.000000 0.000000 0.000000 0.060621 0.000000
# 6 0.000000 0.000000 0.000000 0.000000 0.000000 0.032432
#
#
# Mechanical properties :
#
#
# Convention : Reuss Voigt Hill
#
# Bulk Modulus (GPa) = 48.07634 53.83628 50.95631
# Shear Modulus (GPa) = 22.58870 26.33980 24.46425
#
# Velocity S-wave (km/s) = 3.47389 3.75126 3.61524
# Velocity P-wave (km/s) = 6.46337 6.89379 6.68205
#
# Compressibility (1/GPa) = 0.02080025
#
# Stress axis : x y z
#
# Youngs Moduli (GPa) = 100.36496 100.36496 47.97530
#
# Poissons Ratio (x) = 0.18045 0.19640
# Poissons Ratio (y) = 0.18045 0.19640
# Poissons Ratio (z) = 0.41088 0.41088
#
# Static dielectric constant tensor:
#      x y z
#    x 3.612350 0.000000 0.000000 
#    y 0.000000 3.612350 0.000000 
#    z 0.000000 0.000000 3.365390 
# 
# 
# High freq. dielectric constant tensor:
#      x y z
#    x 1.728390 0.000000 0.000000 
#    y 0.000000 1.728390 0.000000 
#    z 0.000000 0.000000 1.723570 
# 
# From -- ./inp_files/6928.got.cif
#   From: 2010.03.12/outbox.cif.g09.slc.cpg/sg128_4_cif.got.tgz:6928.got - 2010.04.06 17:11:05.
