data_PCOD8314414
_publ_section_title
;
Structure prediction by ZEFSAII (Michael W. Deem and Ramdas Pophale) SiO2 
 PCOD8314414
Probable space group: P 4/M B M
;
_chemical_formula_sum "Si O2"
_cell_formula_units_Z 112
_cell_length_a 14.337562
_cell_length_b 14.337562
_cell_length_c 28.613974
_cell_angle_alpha 90.000000
_cell_angle_beta 90.000000
_cell_angle_gamma 90.000000
_cell_volume 5882.051140
_symmetry_space_group_name_H-M "P 4/M B M"
_symmetry_group_IT_number 127
_symmetry_cell_setting 'tetragonal'
loop_
_space_group_symop_operation_xyz
x,y,z
-y,x,z
-x,-y,z
y,-x,z
1/2+x,1/2-y,-z
1/2-x,1/2+y,-z
1/2+y,1/2+x,-z
1/2-y,1/2-x,-z
-x,-y,-z
y,-x,-z
x,y,-z
-y,x,-z
1/2-x,1/2+y,z
1/2+x,1/2-y,z
1/2-y,1/2-x,z
1/2+y,1/2+x,z
loop_
_atom_site_type_symbol
_atom_site_label
_atom_site_fract_x
_atom_site_fract_y
_atom_site_fract_z
Si Si1 0.578249 0.921752 0.780149
Si Si2 0.479373 0.239384 0.052637
Si Si3 0.940372 0.715701 0.735792
Si Si4 0.024001 0.152052 0.549244
Si Si5 0.430769 0.638538 0.186176
Si Si6 0.689056 0.656172 0.909560
Si Si7 0.575033 0.924968 0.883026
Si Si8 0.024253 0.153505 0.650809
O O1 0.535990 0.831791 0.754065
O O2 0.611310 0.888691 0.832388
O O3 0.500000 0.000000 0.782668
O O4 0.414690 0.320379 0.073690
O O5 0.586858 0.270441 0.051427
O O6 0.473991 0.152715 0.086621
O O7 0.447998 0.213788 0.000000
O O8 0.859763 0.640238 0.728269
O O9 0.902549 0.793836 0.771575
O O10 0.963928 0.763282 0.686894
O O11 0.033421 0.211617 0.500000
O O12 0.032184 0.203786 0.599354
O O13 0.924218 0.104192 0.548636
O O14 0.376322 0.541470 0.189279
O O15 0.400640 0.689856 0.138762
O O16 0.748907 0.751094 0.905899
O O17 0.500000 0.000000 0.869128
O O18 0.923974 0.104568 0.657627
#
# Coordination Sequence:
#
# PCOD8314414 Si02
#       8
#     8  16  16  16  16  16   8  16
#     4   9  22  41  60  81 111 148 186 232 283 333
#     4  12  26  43  66  94 123 156 192 234 287 347
#     4  11  22  38  57  82 115 151 193 237 285 346
#     4   7  10  19  41  72 105 144 188 233 284 340
#     4  11  23  42  64  87 115 147 188 234 286 343
#     4  12  25  44  66  92 125 156 191 235 286 351
#     4  11  23  44  69  92 118 150 196 247 293 350
#     4   9  17  32  51  79 118 151 187 239 293 340
#
# _framework density 19.040976000000001
#
# number of rings (size 3 to 8) (size 9 to 14) (size 15 to 20)
#    0.000    1.714    2.143    4.500    0.000    4.571 
#    5.143    0.714    0.000    0.429    0.000    0.500 
#    0.000    1.714    0.000    0.000    0.000    0.000 
#
# Total GULP energy -1388003.580235 kJ/mol
# GULP energy per Si atom -12392.889109 kJ/mol
# Density = 1.899764 g / cm^3
# Si number density = 19.040976 Si / 1000 Ang^3
#
#
#
# Elastic Constant Matrix: (Units=GPa)
#
#
# Indices 1 2 3 4 5 6 
#
# 1 72.2202 17.4352 43.1765 0.0000 0.0000 0.0000
# 2 17.4352 72.2202 43.1765 0.0000 0.0000 0.0000
# 3 43.1765 43.1765 188.7628 0.0000 0.0000 0.0000
# 4 0.0000 0.0000 0.0000 33.2378 0.0000 0.0000
# 5 0.0000 0.0000 0.0000 0.0000 33.2378 0.0000
# 6 0.0000 0.0000 0.0000 0.0000 0.0000 22.5035
#
#
#
# Elastic Compliance Matrix: (Units=1/GPa)
#
#
# Indices 1 2 3 4 5 6 
#
# 1 0.016279 -0.001974 -0.003272 0.000000 0.000000 0.000000
# 2 -0.001974 0.016279 -0.003272 0.000000 0.000000 0.000000
# 3 -0.003272 -0.003272 0.006795 0.000000 0.000000 0.000000
# 4 0.000000 0.000000 0.000000 0.030086 0.000000 0.000000
# 5 0.000000 0.000000 0.000000 0.000000 0.030086 0.000000
# 6 0.000000 0.000000 0.000000 0.000000 0.000000 0.044438
#
#
# Mechanical properties :
#
#
# Convention : Reuss Voigt Hill
#
# Bulk Modulus (GPa) = 44.80919 60.08665 52.44792
# Shear Modulus (GPa) = 29.68446 33.09017 31.38731
#
# Velocity S-wave (km/s) = 3.95267 4.17326 4.06446
# Velocity P-wave (km/s) = 6.66450 7.40584 7.04493
#
# Compressibility (1/GPa) = 0.02231685
#
# Stress axis : x y z
#
# Youngs Moduli (GPa) = 61.42772 61.42772 147.17661
#
# Poissons Ratio (x) = 0.12125 0.48158
# Poissons Ratio (y) = 0.12125 0.48158
# Poissons Ratio (z) = 0.20100 0.20100
#
# Static dielectric constant tensor:
#      x y z
#    x 3.338230 0.000000 0.000000 
#    y 0.000000 3.338230 0.000000 
#    z 0.000000 0.000000 3.912450 
# 
# 
# High freq. dielectric constant tensor:
#      x y z
#    x 1.720180 0.000000 0.000000 
#    y 0.000000 1.720180 0.000000 
#    z 0.000000 0.000000 1.756700 
# 
# From -- ./inp_files/6436.got.cif
#   From: 2010.03.12/outbox.cif.g09.slc.cpg/sg127_4_cif.got.tgz:6436.got - 2010.04.06 17:03:15.
