data_PCOD8314588
_publ_section_title
;
Structure prediction by ZEFSAII (Michael W. Deem and Ramdas Pophale) SiO2 
 PCOD8314588
Probable space group: P 4/M N C
;
_chemical_formula_sum "Si O2"
_cell_formula_units_Z 116
_cell_length_a 18.484145
_cell_length_b 18.484145
_cell_length_c 16.791595
_cell_angle_alpha 90.000000
_cell_angle_beta 90.000000
_cell_angle_gamma 90.000000
_cell_volume 5737.077073
_symmetry_space_group_name_H-M "P 4/M N C"
_symmetry_group_IT_number 128
_symmetry_cell_setting 'tetragonal'
loop_
_space_group_symop_operation_xyz
x,y,z
-y,x,z
-x,-y,z
y,-x,z
1/2+x,1/2-y,1/2-z
1/2-x,1/2+y,1/2-z
1/2+y,1/2+x,1/2-z
1/2-y,1/2-x,1/2-z
-x,-y,-z
y,-x,-z
x,y,-z
-y,x,-z
1/2-x,1/2+y,1/2+z
1/2+x,1/2-y,1/2+z
1/2-y,1/2-x,1/2+z
1/2+y,1/2+x,1/2+z
loop_
_atom_site_type_symbol
_atom_site_label
_atom_site_fract_x
_atom_site_fract_y
_atom_site_fract_z
Si Si1 0.154728 0.239221 0.206055
Si Si2 0.979932 0.628151 0.369955
Si Si3 0.714661 0.776134 0.591323
Si Si4 0.564324 0.168787 0.407916
Si Si5 0.627004 0.910724 0.085715
Si Si6 0.003431 0.788975 0.592802
Si Si7 0.000000 0.500000 0.750000
Si Si8 0.142273 0.150210 0.641493
O O1 0.193229 0.306772 0.250000
O O2 0.207264 0.198886 0.145087
O O3 0.088796 0.269221 0.153053
O O4 0.129525 0.177735 0.267907
O O5 0.900395 0.617096 0.405215
O O6 0.042277 0.602492 0.430071
O O7 0.988523 0.714789 0.357447
O O8 0.998397 0.577347 0.294590
O O9 0.700494 0.755920 0.500000
O O10 0.659829 0.837156 0.626268
O O11 0.796700 0.801596 0.599770
O O12 0.563692 0.196082 0.500000
O O13 0.486941 0.143355 0.371616
O O14 0.664235 0.919246 0.000000
O O15 0.023730 0.772388 0.500000
O O16 0.066836 0.833493 0.636665
O O17 0.932330 0.839038 0.594210
#
# Coordination Sequence:
#
# PCOD8314588 Si02
#       8
#    16  16  16  16  16  16   4  16
#     4  10  23  38  57  84 120 163 205 261 316 371
#     4  12  23  37  59  86 129 172 213 255 315 376
#     4  10  19  38  61  86 120 164 214 256 307 379
#     4  11  22  37  59  90 126 169 217 260 309 375
#     4  10  20  35  59  88 121 161 210 262 306 364
#     4  12  25  44  69  91 119 163 213 268 325 387
#     4  12  28  36  54  96 140 184 210 260 304 392
#     4  11  25  41  64  92 121 155 207 268 329 385
#
# _framework density 20.219356000000001
#
# number of rings (size 3 to 8) (size 9 to 14) (size 15 to 20)
#    0.000    1.103    2.759    4.552    2.897    3.586 
#    0.000    0.690    0.000    0.000    0.000    0.000 
#    0.000    0.000    0.000   12.414    0.000    0.000 
#
# Total GULP energy -1437393.835501 kJ/mol
# GULP energy per Si atom -12391.326168 kJ/mol
# Density = 2.017334 g / cm^3
# Si number density = 20.219356 Si / 1000 Ang^3
#
#
#
# Elastic Constant Matrix: (Units=GPa)
#
#
# Indices 1 2 3 4 5 6 
#
# 1 105.1980 53.8527 37.9064 0.0000 0.0000 0.0000
# 2 53.8527 105.1983 37.9066 0.0000 0.0000 0.0000
# 3 37.9064 37.9066 90.5178 0.0000 0.0000 0.0000
# 4 0.0000 0.0000 0.0000 23.8700 0.0000 0.0000
# 5 0.0000 0.0000 0.0000 0.0000 23.8700 0.0000
# 6 0.0000 0.0000 0.0000 0.0000 0.0000 38.2125
#
#
#
# Elastic Compliance Matrix: (Units=1/GPa)
#
#
# Indices 1 2 3 4 5 6 
#
# 1 0.013666 -0.005810 -0.003290 0.000000 0.000000 0.000000
# 2 -0.005810 0.013666 -0.003290 0.000000 0.000000 0.000000
# 3 -0.003290 -0.003290 0.013803 0.000000 0.000000 0.000000
# 4 0.000000 0.000000 0.000000 0.041894 0.000000 0.000000
# 5 0.000000 0.000000 0.000000 0.000000 0.041894 0.000000
# 6 0.000000 0.000000 0.000000 0.000000 0.000000 0.026169
#
#
# Mechanical properties :
#
#
# Convention : Reuss Voigt Hill
#
# Bulk Modulus (GPa) = 61.14347 62.24949 61.69648
# Shear Modulus (GPa) = 27.57536 28.60706 28.09121
#
# Velocity S-wave (km/s) = 3.69699 3.76551 3.73141
# Velocity P-wave (km/s) = 6.96630 7.05403 7.01030
#
# Compressibility (1/GPa) = 0.01635498
#
# Stress axis : x y z
#
# Youngs Moduli (GPa) = 73.17633 73.17637 72.44931
#
# Poissons Ratio (x) = 0.42518 0.23833
# Poissons Ratio (y) = 0.42518 0.23833
# Poissons Ratio (z) = 0.24072 0.24072
#
# Static dielectric constant tensor:
#      x y z
#    x 3.715260 0.000000 0.000000 
#    y 0.000000 3.715260 0.000000 
#    z 0.000000 0.000000 3.730460 
# 
# 
# High freq. dielectric constant tensor:
#      x y z
#    x 1.780570 0.000000 0.000000 
#    y 0.000000 1.780570 0.000000 
#    z 0.000000 0.000000 1.787990 
# 
# From -- ./inp_files/4951.got.cif
#   From: 2010.03.12/outbox.cif.g09.slc.cpg/sg128_3_cif.got.tgz:4951.got - 2010.04.06 17:11:05.
