data_PCOD8314159
_publ_section_title
;
Structure prediction by ZEFSAII (Michael W. Deem and Ramdas Pophale) SiO2 
 PCOD8314159
Probable space group: P 4/M B M
;
_chemical_formula_sum "Si O2"
_cell_formula_units_Z 56
_cell_length_a 20.083463
_cell_length_b 20.083463
_cell_length_c 7.654236
_cell_angle_alpha 90.000000
_cell_angle_beta 90.000000
_cell_angle_gamma 90.000000
_cell_volume 3087.301540
_symmetry_space_group_name_H-M "P 4/M B M"
_symmetry_group_IT_number 127
_symmetry_cell_setting 'tetragonal'
loop_
_space_group_symop_operation_xyz
x,y,z
-y,x,z
-x,-y,z
y,-x,z
1/2+x,1/2-y,-z
1/2-x,1/2+y,-z
1/2+y,1/2+x,-z
1/2-y,1/2-x,-z
-x,-y,-z
y,-x,-z
x,y,-z
-y,x,-z
1/2-x,1/2+y,z
1/2+x,1/2-y,z
1/2-y,1/2-x,z
1/2+y,1/2+x,z
loop_
_atom_site_type_symbol
_atom_site_label
_atom_site_fract_x
_atom_site_fract_y
_atom_site_fract_z
Si Si1 0.512752 0.798667 0.802524
Si Si2 0.298602 0.536319 0.500000
Si Si3 0.553894 0.946107 0.293433
Si Si4 0.742953 0.133950 0.802370
Si Si5 0.338643 0.385965 0.500000
O O1 0.548358 0.747709 0.669908
O O2 0.536006 0.873782 0.777470
O O3 0.434052 0.796705 0.765002
O O4 0.529466 0.775753 0.000000
O O5 0.335105 0.465476 0.500000
O O6 0.360284 0.586388 0.500000
O O7 0.554760 0.945241 0.500000
O O8 0.500000 0.000000 0.224276
O O9 0.693077 0.193077 0.762561
O O10 0.804658 0.142781 0.673787
O O11 0.770242 0.136215 0.000000
#
# Coordination Sequence:
#
# PCOD8314159 Si02
#       5
#    16   8   8  16   8
#     4  10  20  36  56  78 112 149 182 224 268 312
#     4  10  22  40  57  81 104 137 182 230 286 335
#     4  11  21  33  53  84 119 157 194 219 253 320
#     4   9  18  34  56  82 106 139 184 220 258 314
#     4  10  21  37  59  78 107 138 173 228 283 328
#
# _framework density 18.138818000000001
#
# number of rings (size 3 to 8) (size 9 to 14) (size 15 to 20)
#    0.000    2.143    1.429    1.714    0.000    3.714 
#    5.143    0.000    0.000    0.000    0.000    8.000 
#    0.000    0.000    0.000    0.000    0.000    0.000 
#
# Total GULP energy -694454.965013 kJ/mol
# GULP energy per Si atom -12400.981518 kJ/mol
# Density = 1.809753 g / cm^3
# Si number density = 18.138818 Si / 1000 Ang^3
#
#
#
# Elastic Constant Matrix: (Units=GPa)
#
#
# Indices 1 2 3 4 5 6 
#
# 1 92.2610 66.5229 53.7027 0.0000 0.0000 0.0000
# 2 66.5229 92.2609 53.7026 0.0000 0.0000 0.0000
# 3 53.7027 53.7026 127.5349 0.0000 0.0000 0.0000
# 4 0.0000 0.0000 0.0000 17.3560 0.0000 0.0000
# 5 0.0000 0.0000 0.0000 0.0000 17.3560 0.0000
# 6 0.0000 0.0000 0.0000 0.0000 0.0000 33.7782
#
#
#
# Elastic Compliance Matrix: (Units=1/GPa)
#
#
# Indices 1 2 3 4 5 6 
#
# 1 0.023830 -0.015023 -0.003708 0.000000 0.000000 0.000000
# 2 -0.015023 0.023830 -0.003708 0.000000 0.000000 0.000000
# 3 -0.003708 -0.003708 0.010964 0.000000 0.000000 0.000000
# 4 0.000000 0.000000 0.000000 0.057617 0.000000 0.000000
# 5 0.000000 0.000000 0.000000 0.000000 0.057617 0.000000
# 6 0.000000 0.000000 0.000000 0.000000 0.000000 0.029605
#
#
# Mechanical properties :
#
#
# Convention : Reuss Voigt Hill
#
# Bulk Modulus (GPa) = 72.76082 73.32369 73.04225
# Shear Modulus (GPa) = 19.76891 22.90661 21.33776
#
# Velocity S-wave (km/s) = 3.30490 3.55752 3.43353
# Velocity P-wave (km/s) = 7.40024 7.57535 7.48831
#
# Compressibility (1/GPa) = 0.01374366
#
# Stress axis : x y z
#
# Youngs Moduli (GPa) = 41.96467 41.96467 91.20911
#
# Poissons Ratio (x) = 0.63045 0.33821
# Poissons Ratio (y) = 0.63045 0.33821
# Poissons Ratio (z) = 0.15561 0.15561
#
# Static dielectric constant tensor:
#      x y z
#    x 3.173400 0.000000 0.000000 
#    y 0.000000 3.173400 0.000000 
#    z 0.000000 0.000000 3.759320 
# 
# 
# High freq. dielectric constant tensor:
#      x y z
#    x 1.688330 0.000000 0.000000 
#    y 0.000000 1.688330 0.000000 
#    z 0.000000 0.000000 1.724800 
# 
# From -- ./inp_files/1130.got.cif
#   From: 2010.03.12/outbox.cif.g09.slc.cpg/sg127_1_cif.got.tgz:1130.got - 2010.04.06 17:03:15.
