data_PCOD8314321
_publ_section_title
;
Structure prediction by ZEFSAII (Michael W. Deem and Ramdas Pophale) SiO2 
 PCOD8314321
Probable space group: P 4/M B M
;
_chemical_formula_sum "Si O2"
_cell_formula_units_Z 64
_cell_length_a 15.151183
_cell_length_b 15.151183
_cell_length_c 13.309305
_cell_angle_alpha 90.000000
_cell_angle_beta 90.000000
_cell_angle_gamma 90.000000
_cell_volume 3055.262046
_symmetry_space_group_name_H-M "P 4/M B M"
_symmetry_group_IT_number 127
_symmetry_cell_setting 'tetragonal'
loop_
_space_group_symop_operation_xyz
x,y,z
-y,x,z
-x,-y,z
y,-x,z
1/2+x,1/2-y,-z
1/2-x,1/2+y,-z
1/2+y,1/2+x,-z
1/2-y,1/2-x,-z
-x,-y,-z
y,-x,-z
x,y,-z
-y,x,-z
1/2-x,1/2+y,z
1/2+x,1/2-y,z
1/2-y,1/2-x,z
1/2+y,1/2+x,z
loop_
_atom_site_type_symbol
_atom_site_label
_atom_site_fract_x
_atom_site_fract_y
_atom_site_fract_z
Si Si1 0.379582 0.731762 0.890104
Si Si2 0.500253 0.238751 0.386583
Si Si3 0.324162 0.675672 0.316422
Si Si4 0.861144 0.495145 0.192613
O O1 0.313395 0.813395 0.889992
O O2 0.350113 0.665394 0.802008
O O3 0.477590 0.772069 0.866674
O O4 0.381325 0.685097 0.000000
O O5 0.487935 0.204557 0.500000
O O6 0.420693 0.303831 0.357507
O O7 0.593076 0.288952 0.378730
O O8 0.499276 0.155487 0.312216
O O9 0.241243 0.741243 0.330903
O O10 0.896024 0.396024 0.164157
O O11 0.937774 0.562227 0.164490
#
# Coordination Sequence:
#
# PCOD8314321 Si02
#       4
#    16  16  16  16
#     4   8  15  31  54  76 104 143 178 216 272 330
#     4  11  22  36  56  78 107 151 193 231 280 330
#     4  10  22  39  57  82 114 144 186 239 282 333
#     4   9  18  31  49  80 116 144 181 233 284 342
#
# _framework density 20.947467
#
# number of rings (size 3 to 8) (size 9 to 14) (size 15 to 20)
#    0.000    2.500    0.000    3.750    0.000    6.000 
#    0.000   10.000    0.000    6.000    0.000    7.000 
#    0.000    0.000    0.000    0.000    0.000    0.000 
#
# Total GULP energy -793002.444181 kJ/mol
# GULP energy per Si atom -12390.663190 kJ/mol
# Density = 2.089979 g / cm^3
# Si number density = 20.947467 Si / 1000 Ang^3
#
#
#
# Elastic Constant Matrix: (Units=GPa)
#
#
# Indices 1 2 3 4 5 6 
#
# 1 47.3725 5.7007 -5.1274 0.0000 0.0000 0.0000
# 2 5.7007 47.3725 -5.1274 0.0000 0.0000 0.0000
# 3 -5.1274 -5.1274 123.7987 0.0000 0.0000 0.0000
# 4 0.0000 0.0000 0.0000 17.6512 0.0000 0.0000
# 5 0.0000 0.0000 0.0000 0.0000 17.6512 0.0000
# 6 0.0000 0.0000 0.0000 0.0000 0.0000 12.7968
#
#
#
# Elastic Compliance Matrix: (Units=1/GPa)
#
#
# Indices 1 2 3 4 5 6 
#
# 1 0.021495 -0.002502 0.000787 0.000000 0.000000 0.000000
# 2 -0.002502 0.021495 0.000787 0.000000 0.000000 0.000000
# 3 0.000787 0.000787 0.008143 0.000000 0.000000 0.000000
# 4 0.000000 0.000000 0.000000 0.056653 0.000000 0.000000
# 5 0.000000 0.000000 0.000000 0.000000 0.056653 0.000000
# 6 0.000000 0.000000 0.000000 0.000000 0.000000 0.078145
#
#
# Mechanical properties :
#
#
# Convention : Reuss Voigt Hill
#
# Bulk Modulus (GPa) = 20.29331 23.27059 21.78195
# Shear Modulus (GPa) = 19.16682 24.49302 21.82992
#
# Velocity S-wave (km/s) = 3.02817 3.42315 3.23170
# Velocity P-wave (km/s) = 4.68350 5.17273 4.93418
#
# Compressibility (1/GPa) = 0.04927733
#
# Stress axis : x y z
#
# Youngs Moduli (GPa) = 46.52147 46.52147 122.80800
#
# Poissons Ratio (x) = 0.11638 -0.09661
# Poissons Ratio (y) = 0.11638 -0.09661
# Poissons Ratio (z) = -0.03660 -0.03660
#
# Static dielectric constant tensor:
#      x y z
#    x 3.683990 0.000000 0.000000 
#    y 0.000000 3.683990 0.000000 
#    z 0.000000 0.000000 4.086600 
# 
# 
# High freq. dielectric constant tensor:
#      x y z
#    x 1.799490 0.000000 0.000000 
#    y 0.000000 1.799490 0.000000 
#    z 0.000000 0.000000 1.824460 
# 
# From -- ./inp_files/4078.got.cif
#   From: 2010.03.12/outbox.cif.g09.slc.cpg/sg127_3_cif.got.tgz:4078.got - 2010.04.06 17:03:15.
