data_PCOD8314739
_publ_section_title
;
Structure prediction by ZEFSAII (Michael W. Deem and Ramdas Pophale) SiO2 
 PCOD8314739
Probable space group: P 4/M N C
;
_chemical_formula_sum "Si O2"
_cell_formula_units_Z 96
_cell_length_a 14.897446
_cell_length_b 14.897446
_cell_length_c 23.520097
_cell_angle_alpha 90.000000
_cell_angle_beta 90.000000
_cell_angle_gamma 90.000000
_cell_volume 5219.906793
_symmetry_space_group_name_H-M "P 4/M N C"
_symmetry_group_IT_number 128
_symmetry_cell_setting 'tetragonal'
loop_
_space_group_symop_operation_xyz
x,y,z
-y,x,z
-x,-y,z
y,-x,z
1/2+x,1/2-y,1/2-z
1/2-x,1/2+y,1/2-z
1/2+y,1/2+x,1/2-z
1/2-y,1/2-x,1/2-z
-x,-y,-z
y,-x,-z
x,y,-z
-y,x,-z
1/2-x,1/2+y,1/2+z
1/2+x,1/2-y,1/2+z
1/2-y,1/2-x,1/2+z
1/2+y,1/2+x,1/2+z
loop_
_atom_site_type_symbol
_atom_site_label
_atom_site_fract_x
_atom_site_fract_y
_atom_site_fract_z
Si Si1 0.580091 0.626140 0.000000
Si Si2 0.947507 0.790632 0.686153
Si Si3 0.668824 0.728132 0.650681
Si Si4 0.210582 0.115362 0.380933
Si Si5 0.479802 0.357101 0.298611
Si Si6 0.194074 0.305927 0.750000
Si Si7 0.111506 0.906754 0.066456
O O1 0.472811 0.621796 0.000000
O O2 0.615999 0.679789 0.054200
O O3 0.870630 0.852121 0.659030
O O4 0.901279 0.704736 0.717388
O O5 0.014978 0.759529 0.636764
O O6 0.009052 0.845301 0.731103
O O7 0.701384 0.823686 0.627294
O O8 0.562681 0.732133 0.671574
O O9 0.725283 0.698008 0.705446
O O10 0.681838 0.657040 0.599159
O O11 0.573956 0.398953 0.318662
O O12 0.010666 0.874839 0.083339
O O13 0.127600 0.894403 0.000000
#
# Coordination Sequence:
#
# PCOD8314739 Si02
#       7
#     8  16  16  16  16   8  16
#     4  11  22  38  60  88 112 151 206 246 292 337
#     4  11  20  37  55  85 118 152 184 239 293 342
#     4  11  21  35  52  85 118 153 187 234 285 353
#     4  11  23  36  57  83 121 154 195 244 285 334
#     4  11  19  30  57  88 114 143 181 224 294 352
#     4  10  22  36  50  83 122 149 194 230 280 356
#     4   9  19  36  57  86 117 143 181 239 298 348
#
# _framework density 18.391133
#
# number of rings (size 3 to 8) (size 9 to 14) (size 15 to 20)
#    0.000    1.417    5.000    2.500    1.167    1.667 
#    0.000    0.000    0.000    2.000    0.000    0.000 
#    0.000   10.333    0.000    0.000    0.000    0.000 
#
# Total GULP energy -1189423.571474 kJ/mol
# GULP energy per Si atom -12389.828870 kJ/mol
# Density = 1.834927 g / cm^3
# Si number density = 18.391133 Si / 1000 Ang^3
#
#
#
# Elastic Constant Matrix: (Units=GPa)
#
#
# Indices 1 2 3 4 5 6 
#
# 1 75.0215 50.6948 48.6593 0.0000 0.0000 0.0000
# 2 50.6948 75.0220 48.6595 0.0000 0.0000 0.0000
# 3 48.6593 48.6595 98.6789 0.0000 0.0000 0.0000
# 4 0.0000 0.0000 0.0000 36.8137 0.0000 0.0000
# 5 0.0000 0.0000 0.0000 0.0000 36.8137 0.0000
# 6 0.0000 0.0000 0.0000 0.0000 0.0000 35.0956
#
#
#
# Elastic Compliance Matrix: (Units=1/GPa)
#
#
# Indices 1 2 3 4 5 6 
#
# 1 0.026986 -0.014121 -0.006344 0.000000 0.000000 0.000000
# 2 -0.014121 0.026986 -0.006344 0.000000 0.000000 0.000000
# 3 -0.006344 -0.006344 0.016390 0.000000 0.000000 0.000000
# 4 0.000000 0.000000 0.000000 0.027164 0.000000 0.000000
# 5 0.000000 0.000000 0.000000 0.000000 0.027164 0.000000
# 6 0.000000 0.000000 0.000000 0.000000 0.000000 0.028494
#
#
# Mechanical properties :
#
#
# Convention : Reuss Voigt Hill
#
# Bulk Modulus (GPa) = 59.71884 60.52772 60.12328
# Shear Modulus (GPa) = 23.54238 28.45851 26.00045
#
# Velocity S-wave (km/s) = 3.58172 3.93797 3.76406
# Velocity P-wave (km/s) = 7.04606 7.32527 7.18703
#
# Compressibility (1/GPa) = 0.01674513
#
# Stress axis : x y z
#
# Youngs Moduli (GPa) = 37.05607 37.05632 61.01103
#
# Poissons Ratio (x) = 0.52326 0.38706
# Poissons Ratio (y) = 0.52325 0.38706
# Poissons Ratio (z) = 0.23509 0.23509
#
# Static dielectric constant tensor:
#      x y z
#    x 3.311380 0.000000 0.000000 
#    y 0.000000 3.311380 0.000000 
#    z 0.000000 0.000000 3.648030 
# 
# 
# High freq. dielectric constant tensor:
#      x y z
#    x 1.685440 0.000000 0.000000 
#    y 0.000000 1.685440 0.000000 
#    z 0.000000 0.000000 1.744460 
# 
# From -- ./inp_files/6388.got.cif
#   From: 2010.03.12/outbox.cif.g09.slc.cpg/sg128_4_cif.got.tgz:6388.got - 2010.04.06 17:11:05.
