data_PCOD8314452
_publ_section_title
;
Structure prediction by ZEFSAII (Michael W. Deem and Ramdas Pophale) SiO2 
 PCOD8314452
Probable space group: P 4/M B M
;
_chemical_formula_sum "Si O2"
_cell_formula_units_Z 88
_cell_length_a 12.311780
_cell_length_b 12.311780
_cell_length_c 29.173227
_cell_angle_alpha 90.000000
_cell_angle_beta 90.000000
_cell_angle_gamma 90.000000
_cell_volume 4422.075612
_symmetry_space_group_name_H-M "P 4/M B M"
_symmetry_group_IT_number 127
_symmetry_cell_setting 'tetragonal'
loop_
_space_group_symop_operation_xyz
x,y,z
-y,x,z
-x,-y,z
y,-x,z
1/2+x,1/2-y,-z
1/2-x,1/2+y,-z
1/2+y,1/2+x,-z
1/2-y,1/2-x,-z
-x,-y,-z
y,-x,-z
x,y,-z
-y,x,-z
1/2-x,1/2+y,z
1/2+x,1/2-y,z
1/2-y,1/2-x,z
1/2+y,1/2+x,z
loop_
_atom_site_type_symbol
_atom_site_label
_atom_site_fract_x
_atom_site_fract_y
_atom_site_fract_z
Si Si1 0.000027 0.670630 0.780056
Si Si2 0.827256 0.032334 0.298569
Si Si3 0.465410 0.676569 0.404265
Si Si4 0.823510 0.505051 0.948961
Si Si5 0.411008 0.911008 0.554148
Si Si6 0.480389 0.323917 0.863913
O O1 0.908909 0.591092 0.800242
O O2 0.949221 0.728940 0.735836
O O3 0.036538 0.744786 0.821651
O O4 0.104654 0.604654 0.762646
O O5 0.790406 0.040540 0.351097
O O6 0.914625 0.124331 0.287892
O O7 0.374026 0.584669 0.415856
O O8 0.443344 0.788349 0.431092
O O9 0.879406 0.620595 0.936684
O O10 0.731737 0.474321 0.913117
O O11 0.913573 0.413573 0.947574
O O12 0.771871 0.510885 0.000000
O O13 0.412235 0.912235 0.500000
O O14 0.500000 0.000000 0.572484
O O15 0.595068 0.381121 0.859643
#
# Coordination Sequence:
#
# PCOD8314452 Si02
#       6
#    16  16  16  16   8  16
#     4  11  24  38  54  83 117 149 190 234 286 343
#     4   9  19  38  62  88 118 151 194 241 290 352
#     4   9  21  43  68  94 127 172 218 264 323 387
#     4   9  19  37  60  84 109 139 178 226 280 338
#     4  11  26  42  62  97 135 169 215 274 325 375
#     4  11  24  39  55  78 110 147 187 234 282 333
#
# _framework density 19.900157
#
# number of rings (size 3 to 8) (size 9 to 14) (size 15 to 20)
#    0.000    2.091    0.000    3.818    2.545   10.182 
#    3.273    3.636    0.000    0.000    0.000    0.000 
#    0.000    0.000    0.000    0.000    0.000    0.000 
#
# Total GULP energy -1091006.625761 kJ/mol
# GULP energy per Si atom -12397.802565 kJ/mol
# Density = 1.985486 g / cm^3
# Si number density = 19.900157 Si / 1000 Ang^3
#
#
#
# Elastic Constant Matrix: (Units=GPa)
#
#
# Indices 1 2 3 4 5 6 
#
# 1 98.3228 31.5682 38.0129 0.0000 0.0000 0.0000
# 2 31.5682 98.3228 38.0129 0.0000 0.0000 0.0000
# 3 38.0129 38.0129 89.4614 0.0000 0.0000 0.0000
# 4 0.0000 0.0000 0.0000 27.0112 0.0000 0.0000
# 5 0.0000 0.0000 0.0000 0.0000 27.0112 0.0000
# 6 0.0000 0.0000 0.0000 0.0000 0.0000 71.5450
#
#
#
# Elastic Compliance Matrix: (Units=1/GPa)
#
#
# Indices 1 2 3 4 5 6 
#
# 1 0.012614 -0.002366 -0.004354 0.000000 0.000000 0.000000
# 2 -0.002366 0.012614 -0.004354 0.000000 0.000000 0.000000
# 3 -0.004354 -0.004354 0.014878 0.000000 0.000000 0.000000
# 4 0.000000 0.000000 0.000000 0.037022 0.000000 0.000000
# 5 0.000000 0.000000 0.000000 0.000000 0.037022 0.000000
# 6 0.000000 0.000000 0.000000 0.000000 0.000000 0.013977
#
#
# Mechanical properties :
#
#
# Convention : Reuss Voigt Hill
#
# Bulk Modulus (GPa) = 55.69118 55.69946 55.69532
# Shear Modulus (GPa) = 31.99766 37.01432 34.50599
#
# Velocity S-wave (km/s) = 4.01423 4.31745 4.16860
# Velocity P-wave (km/s) = 7.03785 7.27352 7.15666
#
# Compressibility (1/GPa) = 0.01795616
#
# Stress axis : x y z
#
# Youngs Moduli (GPa) = 79.27851 79.27851 67.21224
#
# Poissons Ratio (x) = 0.18761 0.29265
# Poissons Ratio (y) = 0.18761 0.29265
# Poissons Ratio (z) = 0.34519 0.34519
#
# Static dielectric constant tensor:
#      x y z
#    x 3.648850 0.000000 0.000000 
#    y 0.000000 3.648850 0.000000 
#    z 0.000000 0.000000 3.637300 
# 
# 
# High freq. dielectric constant tensor:
#      x y z
#    x 1.778320 0.000000 0.000000 
#    y 0.000000 1.778320 0.000000 
#    z 0.000000 0.000000 1.780790 
# 
# From -- ./inp_files/6549.got.cif
#   From: 2010.03.12/outbox.cif.g09.slc.cpg/sg127_4_cif.got.tgz:6549.got - 2010.04.06 17:03:15.
