data_PCOD8314311
_publ_section_title
;
Structure prediction by ZEFSAII (Michael W. Deem and Ramdas Pophale) SiO2 
 PCOD8314311
Probable space group: P 4/M B M
;
_chemical_formula_sum "Si O2"
_cell_formula_units_Z 80
_cell_length_a 15.301639
_cell_length_b 15.301639
_cell_length_c 18.067007
_cell_angle_alpha 90.000000
_cell_angle_beta 90.000000
_cell_angle_gamma 90.000000
_cell_volume 4230.211839
_symmetry_space_group_name_H-M "P 4/M B M"
_symmetry_group_IT_number 127
_symmetry_cell_setting 'tetragonal'
loop_
_space_group_symop_operation_xyz
x,y,z
-y,x,z
-x,-y,z
y,-x,z
1/2+x,1/2-y,-z
1/2-x,1/2+y,-z
1/2+y,1/2+x,-z
1/2-y,1/2-x,-z
-x,-y,-z
y,-x,-z
x,y,-z
-y,x,-z
1/2-x,1/2+y,z
1/2+x,1/2-y,z
1/2-y,1/2-x,z
1/2+y,1/2+x,z
loop_
_atom_site_type_symbol
_atom_site_label
_atom_site_fract_x
_atom_site_fract_y
_atom_site_fract_z
Si Si1 0.633954 0.444340 0.500000
Si Si2 0.751331 0.392177 0.362824
Si Si3 0.679608 0.677151 0.217501
Si Si4 0.862322 0.504485 0.736742
Si Si5 0.269988 0.501849 0.153254
Si Si6 0.354578 0.483987 0.000000
O O1 0.612939 0.546646 0.500000
O O2 0.690160 0.421432 0.428704
O O3 0.829804 0.329804 0.391719
O O4 0.694082 0.339374 0.303275
O O5 0.788417 0.479685 0.323266
O O6 0.753396 0.746605 0.188843
O O7 0.707080 0.576947 0.209675
O O8 0.591864 0.680389 0.168294
O O9 0.942918 0.442918 0.721402
O O10 0.830896 0.485279 0.821964
O O11 0.894862 0.605139 0.726887
O O12 0.289191 0.474606 0.069270
O O13 0.423876 0.405138 0.000000
#
# Coordination Sequence:
#
# PCOD8314311 Si02
#       6
#     8  16  16  16  16   8
#     4  11  25  40  54  85 127 161 190 231 296 365
#     4   9  20  40  62  84 116 153 197 248 295 346
#     4  10  22  37  59  90 115 152 204 250 297 352
#     4   9  19  38  63  87 114 152 200 251 297 348
#     4  11  20  37  59  85 120 152 194 251 299 353
#     4  11  22  38  54  83 120 156 198 237 296 360
#
# _framework density 18.911583
#
# number of rings (size 3 to 8) (size 9 to 14) (size 15 to 20)
#    0.000    2.000    2.000    2.700    5.600    0.400 
#    0.000    6.500    0.000    3.600    0.000    0.000 
#    0.000    0.000    0.000    0.000    0.000    0.000 
#
# Total GULP energy -991117.340722 kJ/mol
# GULP energy per Si atom -12388.966759 kJ/mol
# Density = 1.886854 g / cm^3
# Si number density = 18.911583 Si / 1000 Ang^3
#
#
#
# Elastic Constant Matrix: (Units=GPa)
#
#
# Indices 1 2 3 4 5 6 
#
# 1 92.2664 34.1325 49.8882 0.0000 0.0000 0.0000
# 2 34.1325 92.2664 49.8882 0.0000 0.0000 0.0000
# 3 49.8882 49.8882 126.6002 0.0000 0.0000 0.0000
# 4 0.0000 0.0000 0.0000 2.7847 0.0000 0.0000
# 5 0.0000 0.0000 0.0000 0.0000 2.7847 0.0000
# 6 0.0000 0.0000 0.0000 0.0000 0.0000 23.6833
#
#
#
# Elastic Compliance Matrix: (Units=1/GPa)
#
#
# Indices 1 2 3 4 5 6 
#
# 1 0.014343 -0.002859 -0.004525 0.000000 0.000000 0.000000
# 2 -0.002859 0.014343 -0.004525 0.000000 0.000000 0.000000
# 3 -0.004525 -0.004525 0.011465 0.000000 0.000000 0.000000
# 4 0.000000 0.000000 0.000000 0.359107 0.000000 0.000000
# 5 0.000000 0.000000 0.000000 0.000000 0.359107 0.000000
# 6 0.000000 0.000000 0.000000 0.000000 0.000000 0.042224
#
#
# Mechanical properties :
#
#
# Convention : Reuss Voigt Hill
#
# Bulk Modulus (GPa) = 61.23117 64.32786 62.77952
# Shear Modulus (GPa) = 6.02517 17.66548 11.84533
#
# Velocity S-wave (km/s) = 1.78686 3.05964 2.50542
# Velocity P-wave (km/s) = 6.05847 6.82427 6.45274
#
# Compressibility (1/GPa) = 0.01633155
#
# Stress axis : x y z
#
# Youngs Moduli (GPa) = 69.72228 69.72228 87.21966
#
# Poissons Ratio (x) = 0.19934 0.39469
# Poissons Ratio (y) = 0.19934 0.39469
# Poissons Ratio (z) = 0.31551 0.31551
#
# Static dielectric constant tensor:
#      x y z
#    x 3.814790 0.000000 0.000000 
#    y 0.000000 3.814790 0.000000 
#    z 0.000000 0.000000 3.279670 
# 
# 
# High freq. dielectric constant tensor:
#      x y z
#    x 1.743910 0.000000 0.000000 
#    y 0.000000 1.743910 0.000000 
#    z 0.000000 0.000000 1.714920 
# 
# From -- ./inp_files/5061.got.cif
#   From: 2010.03.12/outbox.cif.g09.slc.cpg/sg127_3_cif.got.tgz:5061.got - 2010.04.06 17:03:15.
