data_PCOD8314908
_publ_section_title
;
Structure prediction by ZEFSAII (Michael W. Deem and Ramdas Pophale) SiO2 
 PCOD8314908
Probable space group: P 4/N M M
;
_chemical_formula_sum "Si O2"
_cell_formula_units_Z 112
_cell_length_a 18.378031
_cell_length_b 18.378031
_cell_length_c 22.157720
_cell_angle_alpha 90.000000
_cell_angle_beta 90.000000
_cell_angle_gamma 90.000000
_cell_volume 7483.814765
_symmetry_space_group_name_H-M "P 4/N M M"
_symmetry_group_IT_number 129
_symmetry_cell_setting 'tetragonal'
loop_
_space_group_symop_operation_xyz
x,y,z
1/2-y,x,z
1/2-x,1/2-y,z
y,1/2-x,z
1/2+x,-y,-z
-x,1/2+y,-z
1/2+y,1/2+x,-z
-y,-x,-z
-x,-y,-z
1/2+y,-x,-z
1/2+x,1/2+y,-z
-y,1/2+x,-z
1/2-x,y,z
x,1/2-y,z
1/2-y,1/2-x,z
y,x,z
loop_
_atom_site_type_symbol
_atom_site_label
_atom_site_fract_x
_atom_site_fract_y
_atom_site_fract_z
Si Si1 0.549056 0.832518 0.373689
Si Si2 0.973674 0.089081 0.872289
Si Si3 0.329761 0.663562 0.322971
Si Si4 0.831660 0.552033 0.022496
Si Si5 0.965477 0.334691 0.748525
Si Si6 0.332782 0.910715 0.053279
Si Si7 0.596932 0.165471 0.556597
O O1 0.577178 0.750000 0.378144
O O2 0.615416 0.884585 0.389910
O O3 0.521358 0.847793 0.305954
O O4 0.486086 0.845690 0.422816
O O5 0.987302 0.116338 0.804829
O O6 0.888316 0.093061 0.890245
O O7 0.018358 0.143070 0.914629
O O8 0.007466 0.007466 0.878607
O O9 0.250000 0.633565 0.306272
O O10 0.333052 0.750000 0.324361
O O11 0.386171 0.636731 0.272554
O O12 0.351436 0.636983 0.389591
O O13 0.750000 0.580362 0.030542
O O14 0.880213 0.619788 0.002336
O O15 0.837617 0.492514 0.970325
O O16 0.963519 0.250000 0.767266
O O17 0.250000 0.891773 0.073961
O O18 0.355182 0.855182 0.000000
O O19 0.614390 0.114390 0.500000
O O20 0.612290 0.250000 0.540813
#
# Coordination Sequence:
#
# PCOD8314908 Si02
#       7
#    16  16  16  16  16  16  16
#     4   9  18  31  44  59  80 105 136 173 207 239
#     4  10  18  28  44  61  78 106 137 162 197 242
#     4   8  14  24  37  55  81 110 136 162 192 228
#     4   9  17  29  44  61  81 103 129 164 201 237
#     4   9  17  28  41  58  80 105 134 167 199 232
#     4   9  18  31  44  60  82 105 131 162 195 235
#     4   9  16  25  40  62  85 110 138 165 196 237
#
# _framework density 14.965630000000001
#
# number of rings (size 3 to 8) (size 9 to 14) (size 15 to 20)
#    0.000    3.000    0.000    3.429    0.000    4.286 
#    0.000    0.000    0.000    0.000    0.000    2.000 
#    0.000    0.000    0.000    0.000    0.000    0.286 
#
# Total GULP energy -1388285.955847 kJ/mol
# GULP energy per Si atom -12395.410320 kJ/mol
# Density = 1.493157 g / cm^3
# Si number density = 14.965630 Si / 1000 Ang^3
#
#
#
# Elastic Constant Matrix: (Units=GPa)
#
#
# Indices 1 2 3 4 5 6 
#
# 1 76.5567 39.6987 19.7850 0.0000 0.0000 0.0000
# 2 39.6987 76.5567 19.7850 0.0000 0.0000 0.0000
# 3 19.7850 19.7850 61.4027 0.0000 0.0000 0.0000
# 4 0.0000 0.0000 0.0000 15.6717 0.0000 0.0000
# 5 0.0000 0.0000 0.0000 0.0000 15.6717 0.0000
# 6 0.0000 0.0000 0.0000 0.0000 0.0000 21.7537
#
#
#
# Elastic Compliance Matrix: (Units=1/GPa)
#
#
# Indices 1 2 3 4 5 6 
#
# 1 0.018396 -0.008735 -0.003113 0.000000 0.000000 0.000000
# 2 -0.008735 0.018396 -0.003113 0.000000 0.000000 0.000000
# 3 -0.003113 -0.003113 0.018292 0.000000 0.000000 0.000000
# 4 0.000000 0.000000 0.000000 0.063809 0.000000 0.000000
# 5 0.000000 0.000000 0.000000 0.000000 0.063809 0.000000
# 6 0.000000 0.000000 0.000000 0.000000 0.000000 0.045969
#
#
# Mechanical properties :
#
#
# Convention : Reuss Voigt Hill
#
# Bulk Modulus (GPa) = 39.74154 41.45036 40.59595
# Shear Modulus (GPa) = 18.72788 19.63593 19.18190
#
# Velocity S-wave (km/s) = 3.54134 3.62618 3.58401
# Velocity P-wave (km/s) = 6.58288 6.72974 6.65671
#
# Compressibility (1/GPa) = 0.02516259
#
# Stress axis : x y z
#
# Youngs Moduli (GPa) = 54.35885 54.35885 54.66845
#
# Poissons Ratio (x) = 0.47482 0.17019
# Poissons Ratio (y) = 0.47482 0.17019
# Poissons Ratio (z) = 0.16922 0.16922
#
# Static dielectric constant tensor:
#      x y z
#    x 2.849820 0.000000 0.000000 
#    y 0.000000 2.849820 0.000000 
#    z 0.000000 0.000000 2.724050 
# 
# 
# High freq. dielectric constant tensor:
#      x y z
#    x 1.561160 0.000000 0.000000 
#    y 0.000000 1.561160 0.000000 
#    z 0.000000 0.000000 1.562410 
# 
# From -- ./inp_files/6630.got.cif
#   From: 2010.03.12/outbox.cif.g09.slc.cpg/sg129_4_cif.got.tgz:6630.got - 2010.04.06 17:19:44.
