data_PCOD8314970
_publ_section_title
;
Structure prediction by ZEFSAII (Michael W. Deem and Ramdas Pophale) SiO2 
 PCOD8314970
Probable space group: P 4/N M M
;
_chemical_formula_sum "Si O2"
_cell_formula_units_Z 96
_cell_length_a 17.842178
_cell_length_b 17.842178
_cell_length_c 16.946332
_cell_angle_alpha 90.000000
_cell_angle_beta 90.000000
_cell_angle_gamma 90.000000
_cell_volume 5394.751519
_symmetry_space_group_name_H-M "P 4/N M M"
_symmetry_group_IT_number 129
_symmetry_cell_setting 'tetragonal'
loop_
_space_group_symop_operation_xyz
x,y,z
1/2-y,x,z
1/2-x,1/2-y,z
y,1/2-x,z
1/2+x,-y,-z
-x,1/2+y,-z
1/2+y,1/2+x,-z
-y,-x,-z
-x,-y,-z
1/2+y,-x,-z
1/2+x,1/2+y,-z
-y,1/2+x,-z
1/2-x,y,z
x,1/2-y,z
1/2-y,1/2-x,z
y,x,z
loop_
_atom_site_type_symbol
_atom_site_label
_atom_site_fract_x
_atom_site_fract_y
_atom_site_fract_z
Si Si1 0.562526 0.436662 0.411013
Si Si2 0.956343 0.835638 0.997213
Si Si3 0.043961 0.165301 0.676461
Si Si4 0.458427 0.164033 0.315791
Si Si5 0.030377 0.834353 0.161639
Si Si6 0.483070 0.605592 0.842222
O O1 0.585162 0.414839 0.500000
O O2 0.500339 0.500339 0.409341
O O3 0.635289 0.468644 0.366022
O O4 0.529308 0.364008 0.367197
O O5 0.932608 0.750000 0.997831
O O6 0.880564 0.880564 0.982694
O O7 0.013421 0.853198 0.926254
O O8 0.993835 0.858760 0.079206
O O9 0.058591 0.250000 0.647626
O O10 0.116349 0.116349 0.653189
O O11 0.032391 0.162478 0.770538
O O12 0.441339 0.250000 0.337038
O O13 0.384306 0.115695 0.335645
O O14 0.479066 0.157685 0.223667
O O15 0.064787 0.750000 0.156959
O O16 0.094396 0.895571 0.179354
O O17 0.524872 0.524872 0.843780
#
# Coordination Sequence:
#
# PCOD8314970 Si02
#       6
#    16  16  16  16  16  16
#     4   9  18  34  55  76 100 135 176 212 250 305
#     4  10  20  31  47  73 102 136 174 211 255 304
#     4  10  19  32  52  78 108 139 172 212 257 307
#     4  10  20  34  55  81 108 138 172 214 264 313
#     4  10  19  31  50  75 102 132 172 218 261 300
#     4  10  18  32  52  72 100 137 179 219 253 298
#
# _framework density 17.795072999999999
#
# number of rings (size 3 to 8) (size 9 to 14) (size 15 to 20)
#    0.000    2.167    1.667    2.500    0.000    2.500 
#    0.000    0.000    0.000    9.500    0.000   10.500 
#    0.000    0.000    0.000    0.000    0.000    0.000 
#
# Total GULP energy -1190422.965766 kJ/mol
# GULP energy per Si atom -12400.239227 kJ/mol
# Density = 1.775457 g / cm^3
# Si number density = 17.795073 Si / 1000 Ang^3
#
#
#
# Elastic Constant Matrix: (Units=GPa)
#
#
# Indices 1 2 3 4 5 6 
#
# 1 93.7147 42.7668 27.2632 0.0000 0.0000 0.0000
# 2 42.7668 93.7146 27.2630 0.0000 0.0000 0.0000
# 3 27.2632 27.2630 103.6865 0.0000 0.0000 0.0000
# 4 0.0000 0.0000 0.0000 17.1451 0.0000 0.0000
# 5 0.0000 0.0000 0.0000 0.0000 17.1452 0.0000
# 6 0.0000 0.0000 0.0000 0.0000 0.0000 16.7387
#
#
#
# Elastic Compliance Matrix: (Units=1/GPa)
#
#
# Indices 1 2 3 4 5 6 
#
# 1 0.013907 -0.005720 -0.002153 0.000000 0.000000 0.000000
# 2 -0.005720 0.013907 -0.002153 0.000000 0.000000 0.000000
# 3 -0.002153 -0.002153 0.010777 0.000000 0.000000 0.000000
# 4 0.000000 0.000000 0.000000 0.058326 0.000000 0.000000
# 5 0.000000 0.000000 0.000000 0.000000 0.058326 0.000000
# 6 0.000000 0.000000 0.000000 0.000000 0.000000 0.059742
#
#
# Mechanical properties :
#
#
# Convention : Reuss Voigt Hill
#
# Bulk Modulus (GPa) = 53.93790 53.96686 53.95238
# Shear Modulus (GPa) = 20.72833 23.12732 21.92783
#
# Velocity S-wave (km/s) = 3.41667 3.60897 3.51414
# Velocity P-wave (km/s) = 6.77800 6.91078 6.84471
#
# Compressibility (1/GPa) = 0.01853984
#
# Stress axis : x y z
#
# Youngs Moduli (GPa) = 71.90380 71.90381 92.79450
#
# Poissons Ratio (x) = 0.41132 0.19976
# Poissons Ratio (y) = 0.41132 0.19976
# Poissons Ratio (z) = 0.15479 0.15479
#
# Static dielectric constant tensor:
#      x y z
#    x 3.126090 0.000000 0.000000 
#    y 0.000000 3.126090 0.000000 
#    z 0.000000 0.000000 3.507070 
# 
# 
# High freq. dielectric constant tensor:
#      x y z
#    x 1.668370 0.000000 0.000000 
#    y 0.000000 1.668370 0.000000 
#    z 0.000000 0.000000 1.700280 
# 
# From -- ./inp_files/5649.got.cif
#   From: 2010.03.12/outbox.cif.g09.slc.cpg/sg129_3_cif.got.tgz:5649.got - 2010.04.06 17:19:44.
