data_PCOD8314315
_publ_section_title
;
Structure prediction by ZEFSAII (Michael W. Deem and Ramdas Pophale) SiO2 
 PCOD8314315
Probable space group: P 4/M B M
;
_chemical_formula_sum "Si O2"
_cell_formula_units_Z 80
_cell_length_a 13.736322
_cell_length_b 13.736322
_cell_length_c 23.785709
_cell_angle_alpha 90.000000
_cell_angle_beta 90.000000
_cell_angle_gamma 90.000000
_cell_volume 4488.043182
_symmetry_space_group_name_H-M "P 4/M B M"
_symmetry_group_IT_number 127
_symmetry_cell_setting 'tetragonal'
loop_
_space_group_symop_operation_xyz
x,y,z
-y,x,z
-x,-y,z
y,-x,z
1/2+x,1/2-y,-z
1/2-x,1/2+y,-z
1/2+y,1/2+x,-z
1/2-y,1/2-x,-z
-x,-y,-z
y,-x,-z
x,y,-z
-y,x,-z
1/2-x,1/2+y,z
1/2+x,1/2-y,z
1/2-y,1/2-x,z
1/2+y,1/2+x,z
loop_
_atom_site_type_symbol
_atom_site_label
_atom_site_fract_x
_atom_site_fract_y
_atom_site_fract_z
Si Si1 0.409647 0.251494 0.378717
Si Si2 0.340544 0.515169 0.143520
Si Si3 0.527730 0.657096 0.730022
Si Si4 0.766972 0.108965 0.435993
Si Si5 0.841648 0.503587 0.935814
O O1 0.343868 0.156133 0.384895
O O2 0.450231 0.258435 0.314938
O O3 0.350667 0.348622 0.395513
O O4 0.498682 0.241647 0.421220
O O5 0.395787 0.413847 0.132876
O O6 0.299902 0.527404 0.206926
O O7 0.250865 0.519034 0.101844
O O8 0.422688 0.610794 0.720485
O O9 0.804337 0.115649 0.500000
O O10 0.668326 0.168326 0.427434
O O11 0.897281 0.602720 0.917105
O O12 0.913749 0.413749 0.929592
O O13 0.806550 0.514109 0.000000
#
# Coordination Sequence:
#
# PCOD8314315 Si02
#       5
#    16  16  16  16  16
#     4  11  21  35  57  81 106 141 182 223 269 324
#     4   9  19  34  54  82 111 139 177 222 269 323
#     4   9  17  34  56  77 104 138 175 218 268 316
#     4  10  22  38  55  80 110 138 177 224 269 325
#     4   9  19  36  55  76 107 147 187 225 266 313
#
# _framework density 17.825140999999999
#
# number of rings (size 3 to 8) (size 9 to 14) (size 15 to 20)
#    0.000    2.400    2.000    2.400    0.000    4.400 
#    0.000    9.000    0.000    0.000    0.000    0.000 
#    0.000    0.000    0.000    0.000    0.000    0.000 
#
# Total GULP energy -991851.970491 kJ/mol
# GULP energy per Si atom -12398.149631 kJ/mol
# Density = 1.778457 g / cm^3
# Si number density = 17.825141 Si / 1000 Ang^3
#
#
#
# Elastic Constant Matrix: (Units=GPa)
#
#
# Indices 1 2 3 4 5 6 
#
# 1 91.8854 26.8305 52.7188 0.0000 0.0000 0.0000
# 2 26.8305 91.8854 52.7188 0.0000 0.0000 0.0000
# 3 52.7188 52.7188 112.1151 0.0000 0.0000 0.0000
# 4 0.0000 0.0000 0.0000 33.0104 0.0000 0.0000
# 5 0.0000 0.0000 0.0000 0.0000 33.0104 0.0000
# 6 0.0000 0.0000 0.0000 0.0000 0.0000 12.5715
#
#
#
# Elastic Compliance Matrix: (Units=1/GPa)
#
#
# Indices 1 2 3 4 5 6 
#
# 1 0.014918 -0.000454 -0.006801 0.000000 0.000000 0.000000
# 2 -0.000454 0.014918 -0.006801 0.000000 0.000000 0.000000
# 3 -0.006801 -0.006801 0.015316 0.000000 0.000000 0.000000
# 4 0.000000 0.000000 0.000000 0.030293 0.000000 0.000000
# 5 0.000000 0.000000 0.000000 0.000000 0.030293 0.000000
# 6 0.000000 0.000000 0.000000 0.000000 0.000000 0.079545
#
#
# Mechanical properties :
#
#
# Convention : Reuss Voigt Hill
#
# Bulk Modulus (GPa) = 58.69045 62.26910 60.47978
# Shear Modulus (GPa) = 22.82320 26.62632 24.72476
#
# Velocity S-wave (km/s) = 3.58214 3.86910 3.72838
# Velocity P-wave (km/s) = 7.07857 7.41411 7.24828
#
# Compressibility (1/GPa) = 0.01703855
#
# Stress axis : x y z
#
# Youngs Moduli (GPa) = 67.03383 67.03383 65.29290
#
# Poissons Ratio (x) = 0.03042 0.44408
# Poissons Ratio (y) = 0.03042 0.44408
# Poissons Ratio (z) = 0.45592 0.45592
#
# Static dielectric constant tensor:
#      x y z
#    x 3.152320 0.000000 0.000000 
#    y 0.000000 3.152320 0.000000 
#    z 0.000000 0.000000 3.388820 
# 
# 
# High freq. dielectric constant tensor:
#      x y z
#    x 1.679650 0.000000 0.000000 
#    y 0.000000 1.679650 0.000000 
#    z 0.000000 0.000000 1.700470 
# 
# From -- ./inp_files/5632.got.cif
#   From: 2010.03.12/outbox.cif.g09.slc.cpg/sg127_3_cif.got.tgz:5632.got - 2010.04.06 17:03:15.
