data_PCOD8314633
_publ_section_title
;
Structure prediction by ZEFSAII (Michael W. Deem and Ramdas Pophale) SiO2 
 PCOD8314633
Probable space group: P 4/M N C
;
_chemical_formula_sum "Si O2"
_cell_formula_units_Z 96
_cell_length_a 17.225391
_cell_length_b 17.225391
_cell_length_c 17.446520
_cell_angle_alpha 90.000000
_cell_angle_beta 90.000000
_cell_angle_gamma 90.000000
_cell_volume 5176.628394
_symmetry_space_group_name_H-M "P 4/M N C"
_symmetry_group_IT_number 128
_symmetry_cell_setting 'tetragonal'
loop_
_space_group_symop_operation_xyz
x,y,z
-y,x,z
-x,-y,z
y,-x,z
1/2+x,1/2-y,1/2-z
1/2-x,1/2+y,1/2-z
1/2+y,1/2+x,1/2-z
1/2-y,1/2-x,1/2-z
-x,-y,-z
y,-x,-z
x,y,-z
-y,x,-z
1/2-x,1/2+y,1/2+z
1/2+x,1/2-y,1/2+z
1/2-y,1/2-x,1/2+z
1/2+y,1/2+x,1/2+z
loop_
_atom_site_type_symbol
_atom_site_label
_atom_site_fract_x
_atom_site_fract_y
_atom_site_fract_z
Si Si1 0.586666 0.993915 0.586407
Si Si2 0.791915 0.185362 0.302482
Si Si3 0.743292 0.548347 0.700635
Si Si4 0.692336 0.914648 0.298467
Si Si5 0.662455 0.157568 0.087225
Si Si6 0.993327 0.127217 0.084951
O O1 0.577068 0.963533 0.500000
O O2 0.632000 0.074044 0.590230
O O3 0.500000 0.000000 0.623327
O O4 0.638959 0.930023 0.628154
O O5 0.739948 0.239948 0.250000
O O6 0.805518 0.104378 0.257196
O O7 0.875486 0.224707 0.321450
O O8 0.745448 0.169627 0.381434
O O9 0.798783 0.494821 0.752034
O O10 0.790922 0.598162 0.639791
O O11 0.689857 0.489628 0.652196
O O12 0.649291 0.850710 0.250000
O O13 0.694407 0.155475 0.000000
O O14 0.919574 0.072792 0.094751
O O15 0.991318 0.165525 0.000000
#
# Coordination Sequence:
#
# PCOD8314633 Si02
#       6
#    16  16  16  16  16  16
#     4  10  21  37  56  81 110 141 181 229 283 338
#     4   9  20  35  51  77 109 144 186 230 279 341
#     4  11  19  33  54  77 109 143 185 232 277 338
#     4  11  22  35  56  83 111 145 187 232 283 343
#     4  10  20  35  54  77 107 147 184 225 285 345
#     4   9  18  32  50  75 107 142 181 226 277 331
#
# _framework density 18.544889999999999
#
# number of rings (size 3 to 8) (size 9 to 14) (size 15 to 20)
#    0.000    2.000    1.667    3.000    0.000    2.333 
#    0.000    0.833    0.000    1.000    0.000    0.000 
#    0.000    2.667    0.000    0.000    0.000    0.000 
#
# Total GULP energy -1190182.166292 kJ/mol
# GULP energy per Si atom -12397.730899 kJ/mol
# Density = 1.850268 g / cm^3
# Si number density = 18.544890 Si / 1000 Ang^3
#
#
#
# Elastic Constant Matrix: (Units=GPa)
#
#
# Indices 1 2 3 4 5 6 
#
# 1 67.7751 23.0252 39.9401 0.0000 0.0000 0.0000
# 2 23.0252 67.7755 39.9406 0.0000 0.0000 0.0000
# 3 39.9401 39.9406 89.7365 0.0000 0.0000 0.0000
# 4 0.0000 0.0000 0.0000 11.8391 0.0000 0.0000
# 5 0.0000 0.0000 0.0000 0.0000 11.8399 0.0000
# 6 0.0000 0.0000 0.0000 0.0000 0.0000 40.5812
#
#
#
# Elastic Compliance Matrix: (Units=1/GPa)
#
#
# Indices 1 2 3 4 5 6 
#
# 1 0.020223 -0.002123 -0.008056 0.000000 0.000000 0.000000
# 2 -0.002123 0.020223 -0.008056 0.000000 0.000000 0.000000
# 3 -0.008056 -0.008056 0.018315 0.000000 0.000000 0.000000
# 4 0.000000 0.000000 0.000000 0.084466 0.000000 0.000000
# 5 0.000000 0.000000 0.000000 0.000000 0.084460 0.000000
# 6 0.000000 0.000000 0.000000 0.000000 0.000000 0.024642
#
#
# Mechanical properties :
#
#
# Convention : Reuss Voigt Hill
#
# Bulk Modulus (GPa) = 44.86073 47.89986 46.38030
# Shear Modulus (GPa) = 16.87868 21.01078 18.94473
#
# Velocity S-wave (km/s) = 3.02015 3.36961 3.19965
# Velocity P-wave (km/s) = 6.03362 6.40502 6.22209
#
# Compressibility (1/GPa) = 0.02229121
#
# Stress axis : x y z
#
# Youngs Moduli (GPa) = 49.44753 49.44749 54.59937
#
# Poissons Ratio (x) = 0.10497 0.43987
# Poissons Ratio (y) = 0.10497 0.43987
# Poissons Ratio (z) = 0.39836 0.39837
#
# Static dielectric constant tensor:
#      x y z
#    x 3.434030 0.000000 0.000000 
#    y 0.000000 3.434040 0.000000 
#    z 0.000000 0.000000 3.556270 
# 
# 
# High freq. dielectric constant tensor:
#      x y z
#    x 1.713020 0.000000 0.000000 
#    y 0.000000 1.713020 0.000000 
#    z 0.000000 0.000000 1.718200 
# 
# From -- ./inp_files/4806.got.cif
#   From: 2010.03.12/outbox.cif.g09.slc.cpg/sg128_3_cif.got.tgz:4806.got - 2010.04.06 17:11:05.
