data_PCOD8314623
_publ_section_title
;
Structure prediction by ZEFSAII (Michael W. Deem and Ramdas Pophale) SiO2 
 PCOD8314623
Probable space group: P 4/M N C
;
_chemical_formula_sum "Si O2"
_cell_formula_units_Z 120
_cell_length_a 25.572004
_cell_length_b 25.572004
_cell_length_c 9.544504
_cell_angle_alpha 90.000000
_cell_angle_beta 90.000000
_cell_angle_gamma 90.000000
_cell_volume 6241.412576
_symmetry_space_group_name_H-M "P 4/M N C"
_symmetry_group_IT_number 128
_symmetry_cell_setting 'tetragonal'
loop_
_space_group_symop_operation_xyz
x,y,z
-y,x,z
-x,-y,z
y,-x,z
1/2+x,1/2-y,1/2-z
1/2-x,1/2+y,1/2-z
1/2+y,1/2+x,1/2-z
1/2-y,1/2-x,1/2-z
-x,-y,-z
y,-x,-z
x,y,-z
-y,x,-z
1/2-x,1/2+y,1/2+z
1/2+x,1/2-y,1/2+z
1/2-y,1/2-x,1/2+z
1/2+y,1/2+x,1/2+z
loop_
_atom_site_type_symbol
_atom_site_label
_atom_site_fract_x
_atom_site_fract_y
_atom_site_fract_z
Si Si1 0.480157 0.205278 0.343206
Si Si2 0.630962 0.067188 0.845104
Si Si3 0.495504 0.411677 0.500000
Si Si4 0.364024 0.212214 0.331492
Si Si5 0.118675 0.808854 0.655989
Si Si6 0.198019 0.898349 0.344888
Si Si7 0.322112 0.506855 0.731086
Si Si8 0.152457 0.283043 0.844517
O O1 0.480536 0.184900 0.500000
O O2 0.522578 0.167148 0.268699
O O3 0.422290 0.195490 0.282013
O O4 0.495347 0.266334 0.347950
O O5 0.580265 0.080265 0.750000
O O6 0.664811 0.119260 0.862107
O O7 0.611099 0.050530 0.000000
O O8 0.549190 0.445525 0.500000
O O9 0.493248 0.373024 0.632506
O O10 0.324435 0.175566 0.250000
O O11 0.356172 0.211013 0.500000
O O12 0.356746 0.270983 0.274354
O O13 0.126965 0.784880 0.500000
O O14 0.147543 0.863102 0.673972
O O15 0.058065 0.822078 0.674078
O O16 0.223075 0.891718 0.500000
O O17 0.239807 0.883573 0.227646
O O18 0.176245 0.956695 0.330093
O O19 0.203889 0.296112 0.750000
O O20 0.170129 0.263717 0.000000
#
# Coordination Sequence:
#
# PCOD8314623 Si02
#       8
#    16  16   8  16  16  16  16  16
#     4   9  17  33  56  84 111 146 191 235 283 341
#     4   9  17  31  49  77 112 145 181 228 280 337
#     4  11  24  38  58  90 122 152 196 257 318 378
#     4  10  21  38  62  87 117 154 195 243 293 348
#     4  10  23  40  58  84 115 150 194 241 296 358
#     4  11  23  37  57  83 113 151 194 241 294 354
#     4  11  20  38  59  81 112 151 191 243 297 357
#     4  10  20  34  54  80 115 152 187 232 286 350
#
# _framework density 19.226416
#
# number of rings (size 3 to 8) (size 9 to 14) (size 15 to 20)
#    0.000    1.933    2.000    2.000    1.867    1.600 
#    0.000    1.333    0.000    0.400    0.000    8.400 
#    0.000    0.000    0.000    0.000    0.000    0.000 
#
# Total GULP energy -1486988.178244 kJ/mol
# GULP energy per Si atom -12391.568152 kJ/mol
# Density = 1.918266 g / cm^3
# Si number density = 19.226416 Si / 1000 Ang^3
#
#
#
# Elastic Constant Matrix: (Units=GPa)
#
#
# Indices 1 2 3 4 5 6 
#
# 1 90.4771 55.7563 46.3817 0.0000 0.0000 0.0000
# 2 55.7563 90.4737 46.3822 0.0000 0.0000 0.0000
# 3 46.3817 46.3822 118.3172 0.0000 0.0000 0.0000
# 4 0.0000 0.0000 0.0000 27.3273 0.0000 0.0000
# 5 0.0000 0.0000 0.0000 0.0000 27.3274 0.0000
# 6 0.0000 0.0000 0.0000 0.0000 0.0000 33.0643
#
#
#
# Elastic Compliance Matrix: (Units=1/GPa)
#
#
# Indices 1 2 3 4 5 6 
#
# 1 0.018952 -0.009850 -0.003568 0.000000 0.000000 0.000000
# 2 -0.009850 0.018953 -0.003568 0.000000 0.000000 0.000000
# 3 -0.003568 -0.003568 0.011249 0.000000 0.000000 0.000000
# 4 0.000000 0.000000 0.000000 0.036593 0.000000 0.000000
# 5 0.000000 0.000000 0.000000 0.000000 0.036593 0.000000
# 6 0.000000 0.000000 0.000000 0.000000 0.000000 0.030244
#
#
# Mechanical properties :
#
#
# Convention : Reuss Voigt Hill
#
# Bulk Modulus (GPa) = 65.87246 66.25651 66.06449
# Shear Modulus (GPa) = 26.09359 27.59366 26.84363
#
# Velocity S-wave (km/s) = 3.68798 3.79251 3.74061
# Velocity P-wave (km/s) = 7.24367 7.32895 7.28643
#
# Compressibility (1/GPa) = 0.01518085
#
# Stress axis : x y z
#
# Youngs Moduli (GPa) = 52.76555 52.76279 88.89426
#
# Poissons Ratio (x) = 0.51973 0.31716
# Poissons Ratio (y) = 0.51976 0.31720
# Poissons Ratio (z) = 0.18826 0.18827
#
# Static dielectric constant tensor:
#      x y z
#    x 3.536820 0.000000 0.000000 
#    y 0.000000 3.536820 0.000000 
#    z 0.000000 0.000000 3.786660 
# 
# 
# High freq. dielectric constant tensor:
#      x y z
#    x 1.740480 0.000000 0.000000 
#    y 0.000000 1.740480 0.000000 
#    z 0.000000 0.000000 1.745850 
# 
# From -- ./inp_files/1808.got.cif
#   From: 2010.03.12/outbox.cif.g09.slc.cpg/sg128_1_cif.got.tgz:1808.got - 2010.04.06 17:11:05.
