data_PCOD8314543
_publ_section_title
;
Structure prediction by ZEFSAII (Michael W. Deem and Ramdas Pophale) SiO2 
 PCOD8314543
Probable space group: P 4/M N C
;
_chemical_formula_sum "Si O2"
_cell_formula_units_Z 120
_cell_length_a 28.030355
_cell_length_b 28.030355
_cell_length_c 8.135476
_cell_angle_alpha 90.000000
_cell_angle_beta 90.000000
_cell_angle_gamma 90.000000
_cell_volume 6392.050013
_symmetry_space_group_name_H-M "P 4/M N C"
_symmetry_group_IT_number 128
_symmetry_cell_setting 'tetragonal'
loop_
_space_group_symop_operation_xyz
x,y,z
-y,x,z
-x,-y,z
y,-x,z
1/2+x,1/2-y,1/2-z
1/2-x,1/2+y,1/2-z
1/2+y,1/2+x,1/2-z
1/2-y,1/2-x,1/2-z
-x,-y,-z
y,-x,-z
x,y,-z
-y,x,-z
1/2-x,1/2+y,1/2+z
1/2+x,1/2-y,1/2+z
1/2-y,1/2-x,1/2+z
1/2+y,1/2+x,1/2+z
loop_
_atom_site_type_symbol
_atom_site_label
_atom_site_fract_x
_atom_site_fract_y
_atom_site_fract_z
Si Si1 0.775860 0.652817 0.193388
Si Si2 0.842498 0.905902 0.313584
Si Si3 0.772158 0.060414 0.807644
Si Si4 0.945357 0.876029 0.310847
Si Si5 0.787028 0.813011 0.309361
Si Si6 0.512809 0.422142 0.500000
Si Si7 0.543044 0.743701 0.311434
Si Si8 0.201547 0.631960 0.687093
O O1 0.827538 0.672463 0.250000
O O2 0.766185 0.601848 0.276363
O O3 0.736653 0.691183 0.254426
O O4 0.773480 0.645674 0.000000
O O5 0.830010 0.918913 0.500000
O O6 0.898839 0.909044 0.281135
O O7 0.827092 0.852208 0.271290
O O8 0.812407 0.943429 0.206200
O O9 0.820751 0.069482 0.707637
O O10 0.748857 0.010463 0.742917
O O11 0.784584 0.056850 0.000000
O O12 0.964437 0.883810 0.500000
O O13 0.982973 0.890993 0.169041
O O14 0.773204 0.811036 0.500000
O O15 0.739413 0.825202 0.208920
O O16 0.554317 0.461318 0.500000
O O17 0.543382 0.757416 0.500000
O O18 0.583454 0.777797 0.224234
O O19 0.149847 0.649847 0.750000
O O20 0.194477 0.619677 0.500000
#
# Coordination Sequence:
#
# PCOD8314543 Si02
#       8
#    16  16  16  16  16   8  16  16
#     4  11  22  36  52  76 110 147 188 228 273 332
#     4   9  18  32  51  78 107 133 171 221 276 329
#     4  11  22  38  58  81 111 147 186 232 285 334
#     4  11  23  39  62  88 109 138 182 240 297 354
#     4   9  17  31  48  70 101 135 171 209 255 315
#     4  11  28  48  62  80 108 146 190 244 310 367
#     4   9  21  35  53  78 106 140 181 224 271 329
#     4  10  19  32  49  74 106 140 174 213 261 319
#
# _framework density 18.773319000000001
#
# number of rings (size 3 to 8) (size 9 to 14) (size 15 to 20)
#    0.000    1.933    2.000    1.600    2.800    4.267 
#    0.000    0.667    0.000    0.000    0.000    0.000 
#    0.000    0.533    0.000    6.133    0.000    1.867 
#
# Total GULP energy -1487293.058308 kJ/mol
# GULP energy per Si atom -12394.108819 kJ/mol
# Density = 1.873059 g / cm^3
# Si number density = 18.773319 Si / 1000 Ang^3
#
#
#
# Elastic Constant Matrix: (Units=GPa)
#
#
# Indices 1 2 3 4 5 6 
#
# 1 83.7173 54.3664 21.7992 0.0000 0.0000 0.0000
# 2 54.3664 83.7197 21.7995 0.0000 0.0000 0.0000
# 3 21.7992 21.7995 64.3351 0.0000 0.0000 0.0000
# 4 0.0000 0.0000 0.0000 19.7120 0.0000 0.0000
# 5 0.0000 0.0000 0.0000 0.0000 19.7119 0.0000
# 6 0.0000 0.0000 0.0000 0.0000 0.0000 24.8621
#
#
#
# Elastic Compliance Matrix: (Units=1/GPa)
#
#
# Indices 1 2 3 4 5 6 
#
# 1 0.021090 -0.012980 -0.002748 0.000000 0.000000 0.000000
# 2 -0.012980 0.021089 -0.002748 0.000000 0.000000 0.000000
# 3 -0.002748 -0.002748 0.017406 0.000000 0.000000 0.000000
# 4 0.000000 0.000000 0.000000 0.050730 0.000000 0.000000
# 5 0.000000 0.000000 0.000000 0.000000 0.050731 0.000000
# 6 0.000000 0.000000 0.000000 0.000000 0.000000 0.040222
#
#
# Mechanical properties :
#
#
# Convention : Reuss Voigt Hill
#
# Bulk Modulus (GPa) = 44.18236 47.52249 45.85243
# Shear Modulus (GPa) = 20.34483 21.77769 21.06126
#
# Velocity S-wave (km/s) = 3.29555 3.40962 3.35307
# Velocity P-wave (km/s) = 6.16981 6.39293 6.28236
#
# Compressibility (1/GPa) = 0.02263347
#
# Stress axis : x y z
#
# Youngs Moduli (GPa) = 47.41674 47.41809 57.45218
#
# Poissons Ratio (x) = 0.61548 0.15787
# Poissons Ratio (y) = 0.61546 0.15787
# Poissons Ratio (z) = 0.13029 0.13030
#
# Static dielectric constant tensor:
#      x y z
#    x 3.525080 0.000000 0.000000 
#    y 0.000000 3.525070 0.000000 
#    z 0.000000 0.000000 3.368770 
# 
# 
# High freq. dielectric constant tensor:
#      x y z
#    x 1.705710 0.000000 0.000000 
#    y 0.000000 1.705710 0.000000 
#    z 0.000000 0.000000 1.728740 
# 
# From -- ./inp_files/1774.got.cif
#   From: 2010.03.12/outbox.cif.g09.slc.cpg/sg128_1_cif.got.tgz:1774.got - 2010.04.06 17:11:05.
