data_PCOD8314341
_publ_section_title
;
Structure prediction by ZEFSAII (Michael W. Deem and Ramdas Pophale) SiO2 
 PCOD8314341
Probable space group: P 4/M B M
;
_chemical_formula_sum "Si O2"
_cell_formula_units_Z 48
_cell_length_a 11.241730
_cell_length_b 11.241730
_cell_length_c 19.155533
_cell_angle_alpha 90.000000
_cell_angle_beta 90.000000
_cell_angle_gamma 90.000000
_cell_volume 2420.809090
_symmetry_space_group_name_H-M "P 4/M B M"
_symmetry_group_IT_number 127
_symmetry_cell_setting 'tetragonal'
loop_
_space_group_symop_operation_xyz
x,y,z
-y,x,z
-x,-y,z
y,-x,z
1/2+x,1/2-y,-z
1/2-x,1/2+y,-z
1/2+y,1/2+x,-z
1/2-y,1/2-x,-z
-x,-y,-z
y,-x,-z
x,y,-z
-y,x,-z
1/2-x,1/2+y,z
1/2+x,1/2-y,z
1/2-y,1/2-x,z
1/2+y,1/2+x,z
loop_
_atom_site_type_symbol
_atom_site_label
_atom_site_fract_x
_atom_site_fract_y
_atom_site_fract_z
Si Si1 0.096660 0.596660 0.241591
Si Si2 0.495442 0.807297 0.000000
Si Si3 0.309025 0.520137 0.852851
Si Si4 0.101090 0.601090 0.602841
Si Si5 0.804774 0.962224 0.500000
O O1 0.033721 0.699019 0.197895
O O2 0.138006 0.638006 0.318233
O O3 0.000000 0.500000 0.257541
O O4 0.520547 0.726694 0.066558
O O5 0.583702 0.916299 0.000000
O O6 0.360748 0.860748 0.000000
O O7 0.370515 0.395353 0.836564
O O8 0.053470 0.722115 0.567857
O O9 0.000000 0.500000 0.596306
O O10 0.906814 0.861690 0.500000
#
# Coordination Sequence:
#
# PCOD8314341 Si02
#       5
#     8   8  16   8   8
#     4  11  25  43  65  92 128 174 209 253 317 385
#     4  11  22  37  64  93 121 160 214 269 321 377
#     4  11  25  42  63  93 125 165 217 269 320 375
#     4  10  24  41  65  98 132 166 209 253 311 372
#     4  10  22  41  69  99 128 164 209 256 308 367
#
# _framework density 19.828081999999998
#
# number of rings (size 3 to 8) (size 9 to 14) (size 15 to 20)
#    0.000    1.333    1.667    3.000    9.333    5.333 
#    0.000    3.333    0.000    0.000    0.000    0.000 
#    0.000    0.000    0.000    0.000    0.000    0.000 
#
# Total GULP energy -595266.451336 kJ/mol
# GULP energy per Si atom -12401.384403 kJ/mol
# Density = 1.978295 g / cm^3
# Si number density = 19.828082 Si / 1000 Ang^3
#
#
#
# Elastic Constant Matrix: (Units=GPa)
#
#
# Indices 1 2 3 4 5 6 
#
# 1 106.6826 36.3504 38.4852 0.0000 0.0000 0.0000
# 2 36.3504 106.6830 38.4861 0.0000 0.0000 0.0000
# 3 38.4852 38.4861 157.0636 0.0000 0.0000 0.0000
# 4 0.0000 0.0000 0.0000 -24.7012 0.0000 0.0000
# 5 0.0000 0.0000 0.0000 0.0000 -24.7058 0.0000
# 6 0.0000 0.0000 0.0000 0.0000 0.0000 16.8497
#
#
#
# Elastic Compliance Matrix: (Units=1/GPa)
#
#
# Indices 1 2 3 4 5 6 
#
# 1 0.011136 -0.003082 -0.001973 0.000000 0.000000 0.000000
# 2 -0.003082 0.011136 -0.001973 0.000000 0.000000 0.000000
# 3 -0.001973 -0.001973 0.007334 0.000000 0.000000 0.000000
# 4 0.000000 0.000000 0.000000 -0.040484 0.000000 0.000000
# 5 0.000000 0.000000 0.000000 0.000000 -0.040476 0.000000
# 6 0.000000 0.000000 0.000000 0.000000 0.000000 0.059348
#
#
# Mechanical properties :
#
#
# Convention : Reuss Voigt Hill
#
# Bulk Modulus (GPa) = 64.32017 66.34141 65.33079
# Shear Modulus (GPa) = 183.59338 10.62904 97.11121
#
# Velocity S-wave (km/s) = 9.63294 2.31781 7.00592
# Velocity P-wave (km/s) = 12.49937 6.37918 9.92291
#
# Compressibility (1/GPa) = 0.01554722
#
# Stress axis : x y z
#
# Youngs Moduli (GPa) = 89.80092 89.80083 136.35308
#
# Poissons Ratio (x) = 0.27681 0.26906
# Poissons Ratio (y) = 0.27681 0.26907
# Poissons Ratio (z) = 0.17720 0.17721
#
# Static dielectric constant tensor:
#      x y z
#    x 3.136350 0.000000 0.000000 
#    y 0.000000 3.136410 0.000000 
#    z 0.000000 0.000000 3.626140 
# 
# 
# High freq. dielectric constant tensor:
#      x y z
#    x 1.785740 0.000000 0.000000 
#    y 0.000000 1.785740 0.000000 
#    z 0.000000 0.000000 1.776120 
# 
# From -- ./inp_files/4813.got.cif
#   From: 2010.03.12/outbox.cif.g09.slc.cpg/sg127_3_cif.got.tgz:4813.got - 2010.04.06 17:03:15.
