data_PCOD8314110
_publ_section_title
;
Structure prediction by ZEFSAII (Michael W. Deem and Ramdas Pophale) SiO2 
 PCOD8314110
Probable space group: P 4/M B M
;
_chemical_formula_sum "Si O2"
_cell_formula_units_Z 96
_cell_length_a 22.764017
_cell_length_b 22.764017
_cell_length_c 8.990045
_cell_angle_alpha 90.000000
_cell_angle_beta 90.000000
_cell_angle_gamma 90.000000
_cell_volume 4658.645544
_symmetry_space_group_name_H-M "P 4/M B M"
_symmetry_group_IT_number 127
_symmetry_cell_setting 'tetragonal'
loop_
_space_group_symop_operation_xyz
x,y,z
-y,x,z
-x,-y,z
y,-x,z
1/2+x,1/2-y,-z
1/2-x,1/2+y,-z
1/2+y,1/2+x,-z
1/2-y,1/2-x,-z
-x,-y,-z
y,-x,-z
x,y,-z
-y,x,-z
1/2-x,1/2+y,z
1/2+x,1/2-y,z
1/2-y,1/2-x,z
1/2+y,1/2+x,z
loop_
_atom_site_type_symbol
_atom_site_label
_atom_site_fract_x
_atom_site_fract_y
_atom_site_fract_z
Si Si1 0.612571 0.789660 0.664525
Si Si2 0.791689 0.805167 0.827009
Si Si3 0.031693 0.626272 0.826337
Si Si4 0.425664 0.834423 0.329582
Si Si5 0.473896 0.591559 0.175091
Si Si6 0.298516 0.415165 0.675693
O O1 0.597639 0.763907 0.500000
O O2 0.660946 0.839055 0.647052
O O3 0.635455 0.740549 0.777372
O O4 0.555222 0.817213 0.737764
O O5 0.752091 0.747910 0.792935
O O6 0.849336 0.805260 0.729873
O O7 0.807471 0.809426 0.000000
O O8 0.066777 0.566777 0.785343
O O9 0.964838 0.622008 0.772214
O O10 0.036381 0.638886 0.000000
O O11 0.445970 0.840197 0.500000
O O12 0.358554 0.858554 0.311623
O O13 0.433057 0.767322 0.275240
O O14 0.428230 0.539855 0.220958
O O15 0.458277 0.652688 0.255036
O O16 0.470326 0.602115 0.000000
O O17 0.305927 0.416834 0.500000
#
# Coordination Sequence:
#
# PCOD8314110 Si02
#       6
#    16  16  16  16  16  16
#     4   9  17  31  53  80 110 145 186 233 284 339
#     4  10  20  34  54  81 115 156 200 245 295 350
#     4  10  21  37  58  85 116 149 189 241 299 354
#     4  10  23  42  60  80 112 155 200 244 290 345
#     4   9  20  41  66  90 119 155 193 235 285 342
#     4  11  23  38  59  87 118 153 193 238 289 345
#
# _framework density 20.606846000000001
#
# number of rings (size 3 to 8) (size 9 to 14) (size 15 to 20)
#    0.000    2.167    0.000    3.000    0.000    8.667 
#    0.000    5.833    0.000    0.000    0.000    0.000 
#    0.000    0.000    0.000    0.000    0.000    0.000 
#
# Total GULP energy -1190059.203679 kJ/mol
# GULP energy per Si atom -12396.450038 kJ/mol
# Density = 2.055994 g / cm^3
# Si number density = 20.606846 Si / 1000 Ang^3
#
#
#
# Elastic Constant Matrix: (Units=GPa)
#
#
# Indices 1 2 3 4 5 6 
#
# 1 108.1737 49.6741 39.4521 0.0000 0.0000 0.0000
# 2 49.6741 108.1737 39.4521 0.0000 0.0000 0.0000
# 3 39.4521 39.4521 59.1767 0.0000 0.0000 0.0000
# 4 0.0000 0.0000 0.0000 33.5102 0.0000 0.0000
# 5 0.0000 0.0000 0.0000 0.0000 33.5102 0.0000
# 6 0.0000 0.0000 0.0000 0.0000 0.0000 26.7872
#
#
#
# Elastic Compliance Matrix: (Units=1/GPa)
#
#
# Indices 1 2 3 4 5 6 
#
# 1 0.013298 -0.003796 -0.006335 0.000000 0.000000 0.000000
# 2 -0.003796 0.013298 -0.006335 0.000000 0.000000 0.000000
# 3 -0.006335 -0.006335 0.025345 0.000000 0.000000 0.000000
# 4 0.000000 0.000000 0.000000 0.029842 0.000000 0.000000
# 5 0.000000 0.000000 0.000000 0.000000 0.029842 0.000000
# 6 0.000000 0.000000 0.000000 0.000000 0.000000 0.037331
#
#
# Mechanical properties :
#
#
# Convention : Reuss Voigt Hill
#
# Bulk Modulus (GPa) = 52.60435 59.18676 55.89555
# Shear Modulus (GPa) = 26.56422 28.55791 27.56107
#
# Velocity S-wave (km/s) = 3.59429 3.72673 3.66111
# Velocity P-wave (km/s) = 6.54281 6.87767 6.71232
#
# Compressibility (1/GPa) = 0.01900984
#
# Stress axis : x y z
#
# Youngs Moduli (GPa) = 75.19962 75.19962 39.45552
#
# Poissons Ratio (x) = 0.28547 0.24994
# Poissons Ratio (y) = 0.28547 0.24994
# Poissons Ratio (z) = 0.47636 0.47636
#
# Static dielectric constant tensor:
#      x y z
#    x 3.795000 0.000000 0.000000 
#    y 0.000000 3.795000 0.000000 
#    z 0.000000 0.000000 3.714940 
# 
# 
# High freq. dielectric constant tensor:
#      x y z
#    x 1.802500 0.000000 0.000000 
#    y 0.000000 1.802500 0.000000 
#    z 0.000000 0.000000 1.808740 
# 
# From -- ./inp_files/2012.got.cif
#   From: 2010.03.12/outbox.cif.g09.slc.cpg/sg127_2_cif.got.tgz:2012.got - 2010.04.06 17:03:15.
