data_PCOD8314138
_publ_section_title
;
Structure prediction by ZEFSAII (Michael W. Deem and Ramdas Pophale) SiO2 
 PCOD8314138
Probable space group: P 4/M B M
;
_chemical_formula_sum "Si O2"
_cell_formula_units_Z 120
_cell_length_a 20.385358
_cell_length_b 20.385358
_cell_length_c 14.643892
_cell_angle_alpha 90.000000
_cell_angle_beta 90.000000
_cell_angle_gamma 90.000000
_cell_volume 6085.457067
_symmetry_space_group_name_H-M "P 4/M B M"
_symmetry_group_IT_number 127
_symmetry_cell_setting 'tetragonal'
loop_
_space_group_symop_operation_xyz
x,y,z
-y,x,z
-x,-y,z
y,-x,z
1/2+x,1/2-y,-z
1/2-x,1/2+y,-z
1/2+y,1/2+x,-z
1/2-y,1/2-x,-z
-x,-y,-z
y,-x,-z
x,y,-z
-y,x,-z
1/2-x,1/2+y,z
1/2+x,1/2-y,z
1/2-y,1/2-x,z
1/2+y,1/2+x,z
loop_
_atom_site_type_symbol
_atom_site_label
_atom_site_fract_x
_atom_site_fract_y
_atom_site_fract_z
Si Si1 0.153336 0.451276 0.896105
Si Si2 0.420442 0.650063 0.695971
Si Si3 0.402416 0.453430 0.500000
Si Si4 0.115852 0.282715 0.738000
Si Si5 0.198612 0.592525 0.893994
Si Si6 0.201085 0.598509 0.394488
Si Si7 0.132242 0.468872 0.395976
Si Si8 0.561686 0.691721 0.749662
O O1 0.082760 0.417241 0.871201
O O2 0.211039 0.419791 0.835955
O O3 0.151367 0.529385 0.877864
O O4 0.172232 0.436365 0.000000
O O5 0.435874 0.637253 0.590520
O O6 0.369770 0.709585 0.705115
O O7 0.484426 0.675971 0.750279
O O8 0.382282 0.590925 0.745559
O O9 0.469441 0.413767 0.500000
O O10 0.187642 0.312359 0.744351
O O11 0.071000 0.317453 0.664070
O O12 0.156487 0.656487 0.862965
O O13 0.266575 0.584638 0.837982
O O14 0.218372 0.598577 0.000000
O O15 0.222168 0.596617 0.500000
O O16 0.168863 0.668863 0.369159
O O17 0.143294 0.545349 0.373842
O O18 0.266889 0.583709 0.338790
O O19 0.151422 0.454658 0.500000
O O20 0.057432 0.442569 0.376978
#
# Coordination Sequence:
#
# PCOD8314138 Si02
#       8
#    16  16   8  16  16  16  16  16
#     4   9  17  32  58  93 129 163 204 252 302 357
#     4  12  25  41  66  90 122 163 204 260 328 377
#     4  11  24  42  65  98 122 150 208 277 331 390
#     4  10  20  35  55  85 120 158 200 240 294 371
#     4  10  21  40  67  97 131 171 213 256 307 373
#     4  10  21  36  56  84 120 161 201 243 303 378
#     4   9  17  30  51  78 110 150 196 241 288 354
#     4  12  25  42  63  91 119 161 206 262 316 378
#
# _framework density 19.719144
#
# number of rings (size 3 to 8) (size 9 to 14) (size 15 to 20)
#    0.000    1.667    4.000    0.400    2.800    1.867 
#    0.000    4.000    0.000    5.600    0.000    0.933 
#    0.000    0.000    0.000    0.000    0.000    0.000 
#
# Total GULP energy -1486954.463617 kJ/mol
# GULP energy per Si atom -12391.287197 kJ/mol
# Density = 1.967426 g / cm^3
# Si number density = 19.719144 Si / 1000 Ang^3
#
#
#
# Elastic Constant Matrix: (Units=GPa)
#
#
# Indices 1 2 3 4 5 6 
#
# 1 85.7822 42.8574 38.3726 0.0000 0.0000 0.0000
# 2 42.8574 85.7822 38.3726 0.0000 0.0000 0.0000
# 3 38.3726 38.3726 94.6993 0.0000 0.0000 0.0000
# 4 0.0000 0.0000 0.0000 13.8124 0.0000 0.0000
# 5 0.0000 0.0000 0.0000 0.0000 13.8124 0.0000
# 6 0.0000 0.0000 0.0000 0.0000 0.0000 26.6810
#
#
#
# Elastic Compliance Matrix: (Units=1/GPa)
#
#
# Indices 1 2 3 4 5 6 
#
# 1 0.016774 -0.006522 -0.004154 0.000000 0.000000 0.000000
# 2 -0.006522 0.016774 -0.004154 0.000000 0.000000 0.000000
# 3 -0.004154 -0.004154 0.013926 0.000000 0.000000 0.000000
# 4 0.000000 0.000000 0.000000 0.072399 0.000000 0.000000
# 5 0.000000 0.000000 0.000000 0.000000 0.072399 0.000000
# 6 0.000000 0.000000 0.000000 0.000000 0.000000 0.037480
#
#
# Mechanical properties :
#
#
# Convention : Reuss Voigt Hill
#
# Bulk Modulus (GPa) = 56.13670 56.16323 56.14997
# Shear Modulus (GPa) = 18.84297 20.63858 19.74078
#
# Velocity S-wave (km/s) = 3.09458 3.23867 3.16744
# Velocity P-wave (km/s) = 6.42639 6.52141 6.47407
#
# Compressibility (1/GPa) = 0.01781366
#
# Stress axis : x y z
#
# Youngs Moduli (GPa) = 59.61511 59.61511 71.80655
#
# Poissons Ratio (x) = 0.38883 0.29830
# Poissons Ratio (y) = 0.38883 0.29830
# Poissons Ratio (z) = 0.24765 0.24765
#
# Static dielectric constant tensor:
#      x y z
#    x 3.703200 0.000000 0.000000 
#    y 0.000000 3.703200 0.000000 
#    z 0.000000 0.000000 3.693670 
# 
# 
# High freq. dielectric constant tensor:
#      x y z
#    x 1.759800 0.000000 0.000000 
#    y 0.000000 1.759800 0.000000 
#    z 0.000000 0.000000 1.768100 
# 
# From -- ./inp_files/4675.got.cif
#   From: 2010.03.12/outbox.cif.g09.slc.cpg/sg127_3_cif.got.tgz:4675.got - 2010.04.06 17:03:15.
