data_PCOD8314552
_publ_section_title
;
Structure prediction by ZEFSAII (Michael W. Deem and Ramdas Pophale) SiO2 
 PCOD8314552
Probable space group: P 4/M N C
;
_chemical_formula_sum "Si O2"
_cell_formula_units_Z 80
_cell_length_a 15.235329
_cell_length_b 15.235329
_cell_length_c 16.985979
_cell_angle_alpha 90.000000
_cell_angle_beta 90.000000
_cell_angle_gamma 90.000000
_cell_volume 3942.704758
_symmetry_space_group_name_H-M "P 4/M N C"
_symmetry_group_IT_number 128
_symmetry_cell_setting 'tetragonal'
loop_
_space_group_symop_operation_xyz
x,y,z
-y,x,z
-x,-y,z
y,-x,z
1/2+x,1/2-y,1/2-z
1/2-x,1/2+y,1/2-z
1/2+y,1/2+x,1/2-z
1/2-y,1/2-x,1/2-z
-x,-y,-z
y,-x,-z
x,y,-z
-y,x,-z
1/2-x,1/2+y,1/2+z
1/2+x,1/2-y,1/2+z
1/2-y,1/2-x,1/2+z
1/2+y,1/2+x,1/2+z
loop_
_atom_site_type_symbol
_atom_site_label
_atom_site_fract_x
_atom_site_fract_y
_atom_site_fract_z
Si Si1 0.919098 0.557566 0.657986
Si Si2 0.380343 0.563837 0.593163
Si Si3 0.226433 0.115495 0.406576
Si Si4 0.309855 0.091038 0.093138
Si Si5 0.247253 0.920955 0.406851
O O1 0.928853 0.571148 0.750000
O O2 0.835105 0.498186 0.638117
O O3 0.908788 0.652351 0.618776
O O4 0.000000 0.500000 0.623310
O O5 0.382507 0.463589 0.626274
O O6 0.385681 0.559169 0.500000
O O7 0.290514 0.610578 0.618057
O O8 0.225287 0.124971 0.500000
O O9 0.324378 0.137333 0.375753
O O10 0.153932 0.182656 0.370922
O O11 0.208071 0.015383 0.379920
O O12 0.321863 0.076294 0.000000
O O13 0.246487 0.914805 0.500000
#
# Coordination Sequence:
#
# PCOD8314552 Si02
#       5
#    16  16  16  16  16
#     4  11  23  38  55  78 111 145 184 228 277 326
#     4   8  15  27  45  75 114 147 175 214 266 324
#     4   9  19  33  55  86 112 138 183 229 275 326
#     4  10  19  32  54  83 111 144 184 229 276 329
#     4  10  20  37  59  84 111 142 181 228 275 329
#
# _framework density 20.29064
#
# number of rings (size 3 to 8) (size 9 to 14) (size 15 to 20)
#    0.000    2.400    2.000    1.200    2.800    1.200 
#    0.000    4.000    0.000    0.000    0.000    0.000 
#    0.000    0.000    0.000    0.000    0.000    0.000 
#
# Total GULP energy -991406.655272 kJ/mol
# GULP energy per Si atom -12392.583191 kJ/mol
# Density = 2.024446 g / cm^3
# Si number density = 20.290640 Si / 1000 Ang^3
#
#
#
# Elastic Constant Matrix: (Units=GPa)
#
#
# Indices 1 2 3 4 5 6 
#
# 1 88.0383 112.8832 18.1505 0.0000 0.0000 0.0000
# 2 112.8832 88.0352 18.1499 0.0000 0.0000 0.0000
# 3 18.1505 18.1499 22.8834 0.0000 0.0000 0.0000
# 4 0.0000 0.0000 0.0000 9.6696 0.0000 0.0000
# 5 0.0000 0.0000 0.0000 0.0000 9.6692 0.0000
# 6 0.0000 0.0000 0.0000 0.0000 0.0000 40.3812
#
#
#
# Elastic Compliance Matrix: (Units=1/GPa)
#
#
# Indices 1 2 3 4 5 6 
#
# 1 -0.017219 0.023028 -0.004608 0.000000 0.000000 0.000000
# 2 0.023028 -0.017219 -0.004608 0.000000 0.000000 0.000000
# 3 -0.004608 -0.004608 0.051009 0.000000 0.000000 0.000000
# 4 0.000000 0.000000 0.000000 0.103416 0.000000 0.000000
# 5 0.000000 0.000000 0.000000 0.000000 0.103421 0.000000
# 6 0.000000 0.000000 0.000000 0.000000 0.000000 0.024764
#
#
# Mechanical properties :
#
#
# Convention : Reuss Voigt Hill
#
# Bulk Modulus (GPa) = 22.62605 55.25824 38.94215
# Shear Modulus (GPa) = 21.25120 15.26224 18.25672
#
# Velocity S-wave (km/s) = 3.23977 2.74557 3.00286
# Velocity P-wave (km/s) = 5.01697 6.11092 5.59077
#
# Compressibility (1/GPa) = 0.04419685
#
# Stress axis : x y z
#
# Youngs Moduli (GPa) = -58.07690 -58.07528 19.60422
#
# Poissons Ratio (x) = 1.33738 0.09033
# Poissons Ratio (y) = 1.33742 0.09034
# Poissons Ratio (z) = -0.26759 -0.26763
#
# Static dielectric constant tensor:
#      x y z
#    x 3.991880 0.000000 0.000000 
#    y 0.000000 3.991880 0.000000 
#    z 0.000000 0.000000 3.088150 
# 
# 
# High freq. dielectric constant tensor:
#      x y z
#    x 1.803090 0.000000 0.000000 
#    y 0.000000 1.803090 0.000000 
#    z 0.000000 0.000000 1.732000 
# 
# From -- ./inp_files/5520.got.cif
#   From: 2010.03.12/outbox.cif.g09.slc.cpg/sg128_3_cif.got.tgz:5520.got - 2010.04.06 17:11:05.
