data_PCOD8314165
_publ_section_title
;
Structure prediction by ZEFSAII (Michael W. Deem and Ramdas Pophale) SiO2 
 PCOD8314165
Probable space group: P 4/M B M
;
_chemical_formula_sum "Si O2"
_cell_formula_units_Z 96
_cell_length_a 15.216000
_cell_length_b 15.216000
_cell_length_c 20.660932
_cell_angle_alpha 90.000000
_cell_angle_beta 90.000000
_cell_angle_gamma 90.000000
_cell_volume 4783.556496
_symmetry_space_group_name_H-M "P 4/M B M"
_symmetry_group_IT_number 127
_symmetry_cell_setting 'tetragonal'
loop_
_space_group_symop_operation_xyz
x,y,z
-y,x,z
-x,-y,z
y,-x,z
1/2+x,1/2-y,-z
1/2-x,1/2+y,-z
1/2+y,1/2+x,-z
1/2-y,1/2-x,-z
-x,-y,-z
y,-x,-z
x,y,-z
-y,x,-z
1/2-x,1/2+y,z
1/2+x,1/2-y,z
1/2-y,1/2-x,z
1/2+y,1/2+x,z
loop_
_atom_site_type_symbol
_atom_site_label
_atom_site_fract_x
_atom_site_fract_y
_atom_site_fract_z
Si Si1 0.029487 0.329797 0.070593
Si Si2 0.511179 0.744599 0.367943
Si Si3 0.812196 0.169637 0.424658
Si Si4 0.640404 0.518002 0.249404
Si Si5 0.926212 0.426212 0.827244
Si Si6 0.973245 0.860155 0.101632
Si Si7 0.426642 0.073359 0.678571
O O1 0.120577 0.379424 0.086137
O O2 0.047852 0.226566 0.061792
O O3 0.961918 0.344646 0.130003
O O4 0.993299 0.362047 0.000000
O O5 0.595284 0.686316 0.388558
O O6 0.429390 0.724290 0.415084
O O7 0.476122 0.723736 0.295843
O O8 0.536767 0.846581 0.364395
O O9 0.829980 0.183923 0.500000
O O10 0.739296 0.239296 0.399412
O O11 0.574529 0.596095 0.265404
O O12 0.669266 0.527328 0.175970
O O13 0.899600 0.399600 0.753294
O O14 0.000000 0.500000 0.825995
O O15 0.068492 0.899457 0.084384
O O16 0.500000 0.000000 0.683129
#
# Coordination Sequence:
#
# PCOD8314165 Si02
#       7
#    16  16  16  16   8  16   8
#     4  10  20  36  58  83 115 156 200 247 300 357
#     4  12  21  40  65  91 123 164 206 253 312 370
#     4  11  25  43  62  91 129 167 211 260 306 366
#     4   9  17  32  57  87 118 147 187 244 303 361
#     4   9  19  38  61  85 120 155 196 251 299 360
#     4   9  19  36  57  82 115 156 193 238 302 365
#     4  11  24  39  63  93 125 161 205 255 308 378
#
# _framework density 20.068750999999999
#
# number of rings (size 3 to 8) (size 9 to 14) (size 15 to 20)
#    0.000    1.833    2.500    3.250    0.000    2.000 
#    1.500    2.500    5.500    2.000    0.000    0.000 
#    0.000    0.000    0.000    0.000    0.000    0.000 
#
# Total GULP energy -1189754.471033 kJ/mol
# GULP energy per Si atom -12393.275740 kJ/mol
# Density = 2.002307 g / cm^3
# Si number density = 20.068751 Si / 1000 Ang^3
#
#
#
# Elastic Constant Matrix: (Units=GPa)
#
#
# Indices 1 2 3 4 5 6 
#
# 1 99.7442 31.6113 25.9648 0.0000 0.0000 0.0000
# 2 31.6113 99.7442 25.9648 0.0000 0.0000 0.0000
# 3 25.9648 25.9648 77.1399 0.0000 0.0000 0.0000
# 4 0.0000 0.0000 0.0000 14.8432 0.0000 0.0000
# 5 0.0000 0.0000 0.0000 0.0000 14.8432 0.0000
# 6 0.0000 0.0000 0.0000 0.0000 0.0000 21.7934
#
#
#
# Elastic Compliance Matrix: (Units=1/GPa)
#
#
# Indices 1 2 3 4 5 6 
#
# 1 0.011729 -0.002948 -0.002956 0.000000 0.000000 0.000000
# 2 -0.002948 0.011729 -0.002956 0.000000 0.000000 0.000000
# 3 -0.002956 -0.002956 0.014953 0.000000 0.000000 0.000000
# 4 0.000000 0.000000 0.000000 0.067371 0.000000 0.000000
# 5 0.000000 0.000000 0.000000 0.000000 0.067371 0.000000
# 6 0.000000 0.000000 0.000000 0.000000 0.000000 0.045885
#
#
# Mechanical properties :
#
#
# Convention : Reuss Voigt Hill
#
# Bulk Modulus (GPa) = 48.32543 49.30112 48.81328
# Shear Modulus (GPa) = 20.52075 23.16846 21.84460
#
# Velocity S-wave (km/s) = 3.20116 3.40141 3.30280
# Velocity P-wave (km/s) = 6.14780 6.32816 6.23863
#
# Compressibility (1/GPa) = 0.02069304
#
# Stress axis : x y z
#
# Youngs Moduli (GPa) = 85.25643 85.25643 66.87513
#
# Poissons Ratio (x) = 0.25132 0.19767
# Poissons Ratio (y) = 0.25132 0.19767
# Poissons Ratio (z) = 0.25200 0.25200
#
# Static dielectric constant tensor:
#      x y z
#    x 3.500560 0.000000 0.000000 
#    y 0.000000 3.500560 0.000000 
#    z 0.000000 0.000000 3.716480 
# 
# 
# High freq. dielectric constant tensor:
#      x y z
#    x 1.773990 0.000000 0.000000 
#    y 0.000000 1.773990 0.000000 
#    z 0.000000 0.000000 1.792950 
# 
# From -- ./inp_files/6122.got.cif
#   From: 2010.03.12/outbox.cif.g09.slc.cpg/sg127_4_cif.got.tgz:6122.got - 2010.04.06 17:03:15.
