data_PCOD8314570
_publ_section_title
;
Structure prediction by ZEFSAII (Michael W. Deem and Ramdas Pophale) SiO2 
 PCOD8314570
Probable space group: P 4/M N C
;
_chemical_formula_sum "Si O2"
_cell_formula_units_Z 80
_cell_length_a 17.539729
_cell_length_b 17.539729
_cell_length_c 15.095706
_cell_angle_alpha 90.000000
_cell_angle_beta 90.000000
_cell_angle_gamma 90.000000
_cell_volume 4644.074595
_symmetry_space_group_name_H-M "P 4/M N C"
_symmetry_group_IT_number 128
_symmetry_cell_setting 'tetragonal'
loop_
_space_group_symop_operation_xyz
x,y,z
-y,x,z
-x,-y,z
y,-x,z
1/2+x,1/2-y,1/2-z
1/2-x,1/2+y,1/2-z
1/2+y,1/2+x,1/2-z
1/2-y,1/2-x,1/2-z
-x,-y,-z
y,-x,-z
x,y,-z
-y,x,-z
1/2-x,1/2+y,1/2+z
1/2+x,1/2-y,1/2+z
1/2-y,1/2-x,1/2+z
1/2+y,1/2+x,1/2+z
loop_
_atom_site_type_symbol
_atom_site_label
_atom_site_fract_x
_atom_site_fract_y
_atom_site_fract_z
Si Si1 0.435386 0.607132 0.500000
Si Si2 0.622927 0.516884 0.000000
Si Si3 0.380173 0.686936 0.324885
Si Si4 0.267566 0.472167 0.836338
Si Si5 0.816366 0.720766 0.604315
Si Si6 0.750824 0.860046 0.292743
O O1 0.396538 0.525605 0.500000
O O2 0.409222 0.651678 0.414479
O O3 0.564713 0.585529 0.000000
O O4 0.668904 0.525359 0.910652
O O5 0.451224 0.695864 0.258452
O O6 0.343555 0.769713 0.343453
O O7 0.316061 0.632066 0.282263
O O8 0.209644 0.404716 0.865991
O O9 0.229416 0.556100 0.830209
O O10 0.807053 0.710346 0.500000
O O11 0.784424 0.804499 0.630903
O O12 0.673944 0.826057 0.250000
#
# Coordination Sequence:
#
# PCOD8314570 Si02
#       6
#     8   8  16  16  16  16
#     4  11  22  33  52  80 106 141 182 221 271 321
#     4  11  22  31  46  80 118 150 174 205 269 344
#     4  10  20  37  53  74 110 147 186 223 265 329
#     4  11  20  33  55  78 109 142 181 226 274 323
#     4  10  19  34  56  80 105 145 189 227 267 332
#     4   9  20  34  54  80 109 140 182 226 278 324
#
# _framework density 17.226253
#
# number of rings (size 3 to 8) (size 9 to 14) (size 15 to 20)
#    0.000    1.800    2.000    5.400    1.400    0.000 
#    0.000    2.000    0.000    2.400    0.000    1.400 
#    0.000    0.000    0.000    0.000    0.000    0.000 
#
# Total GULP energy -991750.196655 kJ/mol
# GULP energy per Si atom -12396.877458 kJ/mol
# Density = 1.718705 g / cm^3
# Si number density = 17.226253 Si / 1000 Ang^3
#
#
#
# Elastic Constant Matrix: (Units=GPa)
#
#
# Indices 1 2 3 4 5 6 
#
# 1 83.6545 30.5436 28.6820 0.0000 0.0000 0.0000
# 2 30.5436 83.6524 28.6818 0.0000 0.0000 0.0000
# 3 28.6820 28.6818 121.4300 0.0000 0.0000 0.0000
# 4 0.0000 0.0000 0.0000 37.9961 0.0000 0.0000
# 5 0.0000 0.0000 0.0000 0.0000 37.9958 0.0000
# 6 0.0000 0.0000 0.0000 0.0000 0.0000 25.5158
#
#
#
# Elastic Compliance Matrix: (Units=1/GPa)
#
#
# Indices 1 2 3 4 5 6 
#
# 1 0.014382 -0.004447 -0.002347 0.000000 0.000000 0.000000
# 2 -0.004447 0.014382 -0.002347 0.000000 0.000000 0.000000
# 3 -0.002347 -0.002347 0.009344 0.000000 0.000000 0.000000
# 4 0.000000 0.000000 0.000000 0.026318 0.000000 0.000000
# 5 0.000000 0.000000 0.000000 0.000000 0.026319 0.000000
# 6 0.000000 0.000000 0.000000 0.000000 0.000000 0.039191
#
#
# Mechanical properties :
#
#
# Convention : Reuss Voigt Hill
#
# Bulk Modulus (GPa) = 50.43400 51.61684 51.02542
# Shear Modulus (GPa) = 32.29416 33.69018 32.99217
#
# Velocity S-wave (km/s) = 4.33448 4.42718 4.38108
# Velocity P-wave (km/s) = 7.37505 7.49415 7.43484
#
# Compressibility (1/GPa) = 0.01982789
#
# Stress axis : x y z
#
# Youngs Moduli (GPa) = 69.53098 69.52913 107.02244
#
# Poissons Ratio (x) = 0.30917 0.25116
# Poissons Ratio (y) = 0.30918 0.25116
# Poissons Ratio (z) = 0.16317 0.16317
#
# Static dielectric constant tensor:
#      x y z
#    x 3.205140 0.000000 0.000000 
#    y 0.000000 3.205140 0.000000 
#    z 0.000000 0.000000 3.467330 
# 
# 
# High freq. dielectric constant tensor:
#      x y z
#    x 1.649540 0.000000 0.000000 
#    y 0.000000 1.649540 0.000000 
#    z 0.000000 0.000000 1.688290 
# 
# From -- ./inp_files/3783.got.cif
#   From: 2010.03.12/outbox.cif.g09.slc.cpg/sg128_2_cif.got.tgz:3783.got - 2010.04.06 17:11:05.
