data_PCOD8314467
_publ_section_title
;
Structure prediction by ZEFSAII (Michael W. Deem and Ramdas Pophale) SiO2 
 PCOD8314467
Probable space group: P 4/M B M
;
_chemical_formula_sum "Si O2"
_cell_formula_units_Z 64
_cell_length_a 21.602215
_cell_length_b 21.602215
_cell_length_c 9.365057
_cell_angle_alpha 90.000000
_cell_angle_beta 90.000000
_cell_angle_gamma 90.000000
_cell_volume 4370.257163
_symmetry_space_group_name_H-M "P 4/M B M"
_symmetry_group_IT_number 127
_symmetry_cell_setting 'tetragonal'
loop_
_space_group_symop_operation_xyz
x,y,z
-y,x,z
-x,-y,z
y,-x,z
1/2+x,1/2-y,-z
1/2-x,1/2+y,-z
1/2+y,1/2+x,-z
1/2-y,1/2-x,-z
-x,-y,-z
y,-x,-z
x,y,-z
-y,x,-z
1/2-x,1/2+y,z
1/2+x,1/2-y,z
1/2-y,1/2-x,z
1/2+y,1/2+x,z
loop_
_atom_site_type_symbol
_atom_site_label
_atom_site_fract_x
_atom_site_fract_y
_atom_site_fract_z
Si Si1 0.341062 0.737126 0.158932
Si Si2 0.426631 0.174631 0.167102
Si Si3 0.739319 0.343485 0.339550
Si Si4 0.565724 0.162750 0.830203
O O1 0.285187 0.785187 0.150217
O O2 0.323432 0.680817 0.264079
O O3 0.401632 0.773038 0.218786
O O4 0.353307 0.710244 0.000000
O O5 0.386007 0.113994 0.199158
O O6 0.401370 0.233996 0.251616
O O7 0.495448 0.160500 0.224922
O O8 0.425879 0.191195 0.000000
O O9 0.723119 0.364758 0.500000
O O10 0.789405 0.289405 0.341180
O O11 0.603570 0.103570 0.768271
O O12 0.567857 0.159791 0.000000
#
# Coordination Sequence:
#
# PCOD8314467 Si02
#       4
#    16  16  16  16
#     4   8  13  23  39  55  71  93 122 157 196 231
#     4   9  16  25  38  56  78 105 134 159 185 221
#     4   9  16  25  37  53  73  96 124 160 198 230
#     4   8  14  24  38  57  79 102 130 163 192 218
#
# _framework density 14.644446
#
# number of rings (size 3 to 8) (size 9 to 14) (size 15 to 20)
#    0.000    3.500    0.000    2.250    0.000    3.500 
#    0.000    3.750    0.000    2.250    0.000    3.500 
#    0.000    1.000    0.000   11.500    0.000    5.500 
#
# Total GULP energy -793166.089991 kJ/mol
# GULP energy per Si atom -12393.220156 kJ/mol
# Density = 1.461111 g / cm^3
# Si number density = 14.644446 Si / 1000 Ang^3
#
#
#
# Elastic Constant Matrix: (Units=GPa)
#
#
# Indices 1 2 3 4 5 6 
#
# 1 70.7954 67.2173 37.2089 0.0000 0.0000 0.0000
# 2 67.2173 70.7954 37.2089 0.0000 0.0000 0.0000
# 3 37.2089 37.2089 63.1935 0.0000 0.0000 0.0000
# 4 0.0000 0.0000 0.0000 8.5196 0.0000 0.0000
# 5 0.0000 0.0000 0.0000 0.0000 8.5196 0.0000
# 6 0.0000 0.0000 0.0000 0.0000 0.0000 15.7987
#
#
#
# Elastic Compliance Matrix: (Units=1/GPa)
#
#
# Indices 1 2 3 4 5 6 
#
# 1 0.145049 -0.134433 -0.006251 0.000000 0.000000 0.000000
# 2 -0.134433 0.145049 -0.006251 0.000000 0.000000 0.000000
# 3 -0.006251 -0.006251 0.023186 0.000000 0.000000 0.000000
# 4 0.000000 0.000000 0.000000 0.117377 0.000000 0.000000
# 5 0.000000 0.000000 0.000000 0.000000 0.117377 0.000000
# 6 0.000000 0.000000 0.000000 0.000000 0.000000 0.063296
#
#
# Mechanical properties :
#
#
# Convention : Reuss Voigt Hill
#
# Bulk Modulus (GPa) = 51.50825 54.22830 52.86827
# Shear Modulus (GPa) = 5.48442 10.77751 8.13096
#
# Velocity S-wave (km/s) = 1.93731 2.71577 2.35888
# Velocity P-wave (km/s) = 6.34454 6.85159 6.60293
#
# Compressibility (1/GPa) = 0.01941437
#
# Stress axis : x y z
#
# Youngs Moduli (GPa) = 6.89422 6.89422 43.13008
#
# Poissons Ratio (x) = 0.92681 0.26961
# Poissons Ratio (y) = 0.92681 0.26961
# Poissons Ratio (z) = 0.04310 0.04310
#
# Static dielectric constant tensor:
#      x y z
#    x 2.839250 0.000000 0.000000 
#    y 0.000000 2.839250 0.000000 
#    z 0.000000 0.000000 2.820500 
# 
# 
# High freq. dielectric constant tensor:
#      x y z
#    x 1.533880 0.000000 0.000000 
#    y 0.000000 1.533880 0.000000 
#    z 0.000000 0.000000 1.542000 
# 
# From -- ./inp_files/1374.got.cif
#   From: 2010.03.12/outbox.cif.g09.slc.cpg/sg127_1_cif.got.tgz:1374.got - 2010.04.06 17:03:15.
