data_PCOD8314567
_publ_section_title
;
Structure prediction by ZEFSAII (Michael W. Deem and Ramdas Pophale) SiO2 
 PCOD8314567
Probable space group: P 4/M N C
;
_chemical_formula_sum "Si O2"
_cell_formula_units_Z 72
_cell_length_a 20.422006
_cell_length_b 20.422006
_cell_length_c 9.208934
_cell_angle_alpha 90.000000
_cell_angle_beta 90.000000
_cell_angle_gamma 90.000000
_cell_volume 3840.662627
_symmetry_space_group_name_H-M "P 4/M N C"
_symmetry_group_IT_number 128
_symmetry_cell_setting 'tetragonal'
loop_
_space_group_symop_operation_xyz
x,y,z
-y,x,z
-x,-y,z
y,-x,z
1/2+x,1/2-y,1/2-z
1/2-x,1/2+y,1/2-z
1/2+y,1/2+x,1/2-z
1/2-y,1/2-x,1/2-z
-x,-y,-z
y,-x,-z
x,y,-z
-y,x,-z
1/2-x,1/2+y,1/2+z
1/2+x,1/2-y,1/2+z
1/2-y,1/2-x,1/2+z
1/2+y,1/2+x,1/2+z
loop_
_atom_site_type_symbol
_atom_site_label
_atom_site_fract_x
_atom_site_fract_y
_atom_site_fract_z
Si Si1 0.978667 0.396125 0.655419
Si Si2 0.241544 0.913444 0.163153
Si Si3 0.676970 0.722726 0.673691
Si Si4 0.455680 0.247873 0.173690
Si Si5 0.383838 0.883838 0.250000
O O1 0.957603 0.457603 0.750000
O O2 0.946928 0.409105 0.500000
O O3 0.950687 0.328310 0.717816
O O4 0.056681 0.390718 0.636775
O O5 0.201808 0.849694 0.212744
O O6 0.316812 0.890607 0.163135
O O7 0.224634 0.974309 0.269076
O O8 0.222838 0.934706 0.000000
O O9 0.722243 0.777758 0.750000
O O10 0.675817 0.735685 0.500000
O O11 0.604441 0.720187 0.741366
O O12 0.451868 0.259333 0.000000
#
# Coordination Sequence:
#
# PCOD8314567 Si02
#       5
#    16  16  16  16   8
#     4  10  21  33  48  71 104 145 186 225 268 323
#     4  10  21  37  58  83 112 148 188 237 291 344
#     4  11  22  37  60  88 117 151 194 240 291 348
#     4  10  22  38  56  80 112 150 190 238 292 345
#     4  10  19  34  52  76 108 142 188 229 276 330
#
# _framework density 18.746766000000001
#
# number of rings (size 3 to 8) (size 9 to 14) (size 15 to 20)
#    0.000    1.778    1.111    3.000    0.000   10.667 
#    0.000    0.000    0.000    0.667    0.000    4.667 
#    0.000    0.000    0.000    0.000    0.000    0.000 
#
# Total GULP energy -892309.076458 kJ/mol
# GULP energy per Si atom -12393.181617 kJ/mol
# Density = 1.870410 g / cm^3
# Si number density = 18.746766 Si / 1000 Ang^3
#
#
#
# Elastic Constant Matrix: (Units=GPa)
#
#
# Indices 1 2 3 4 5 6 
#
# 1 107.9243 71.8291 49.7188 0.0000 0.0000 0.0000
# 2 71.8291 107.9213 49.7151 0.0000 0.0000 0.0000
# 3 49.7188 49.7151 94.2665 0.0000 0.0000 0.0000
# 4 0.0000 0.0000 0.0000 25.8270 0.0000 0.0000
# 5 0.0000 0.0000 0.0000 0.0000 25.8270 0.0000
# 6 0.0000 0.0000 0.0000 0.0000 0.0000 33.9846
#
#
#
# Elastic Compliance Matrix: (Units=1/GPa)
#
#
# Indices 1 2 3 4 5 6 
#
# 1 0.017780 -0.009925 -0.004143 0.000000 0.000000 0.000000
# 2 -0.009925 0.017780 -0.004142 0.000000 0.000000 0.000000
# 3 -0.004143 -0.004142 0.014978 0.000000 0.000000 0.000000
# 4 0.000000 0.000000 0.000000 0.038719 0.000000 0.000000
# 5 0.000000 0.000000 0.000000 0.000000 0.038719 0.000000
# 6 0.000000 0.000000 0.000000 0.000000 0.000000 0.029425
#
#
# Mechanical properties :
#
#
# Convention : Reuss Voigt Hill
#
# Bulk Modulus (GPa) = 70.83719 72.51534 71.67627
# Shear Modulus (GPa) = 25.18521 26.38434 25.78478
#
# Velocity S-wave (km/s) = 3.66928 3.75561 3.71270
# Velocity P-wave (km/s) = 7.47127 7.58760 7.52966
#
# Compressibility (1/GPa) = 0.01411688
#
# Stress axis : x y z
#
# Youngs Moduli (GPa) = 56.24189 56.24250 66.76438
#
# Poissons Ratio (x) = 0.55823 0.27663
# Poissons Ratio (y) = 0.55822 0.27655
# Poissons Ratio (z) = 0.23303 0.23296
#
# Static dielectric constant tensor:
#      x y z
#    x 3.410880 0.000000 0.000000 
#    y 0.000000 3.410880 0.000000 
#    z 0.000000 0.000000 3.430550 
# 
# 
# High freq. dielectric constant tensor:
#      x y z
#    x 1.719660 0.000000 0.000000 
#    y 0.000000 1.719660 0.000000 
#    z 0.000000 0.000000 1.735730 
# 
# From -- ./inp_files/1185.got.cif
#   From: 2010.03.12/outbox.cif.g09.slc.cpg/sg128_1_cif.got.tgz:1185.got - 2010.04.06 17:11:05.
