data_PCOD8314479
_publ_section_title
;
Structure prediction by ZEFSAII (Michael W. Deem and Ramdas Pophale) SiO2 
 PCOD8314479
Probable space group: P 4/M B M
;
_chemical_formula_sum "Si O2"
_cell_formula_units_Z 96
_cell_length_a 24.000000
_cell_length_b 24.000000
_cell_length_c 9.000000
_cell_angle_alpha 90.000000
_cell_angle_beta 90.000000
_cell_angle_gamma 90.000000
_cell_volume 5184.000000
_symmetry_space_group_name_H-M "P 4/M B M"
_symmetry_group_IT_number 127
_symmetry_cell_setting 'tetragonal'
loop_
_space_group_symop_operation_xyz
x,y,z
-y,x,z
-x,-y,z
y,-x,z
1/2+x,1/2-y,-z
1/2-x,1/2+y,-z
1/2+y,1/2+x,-z
1/2-y,1/2-x,-z
-x,-y,-z
y,-x,-z
x,y,-z
-y,x,-z
1/2-x,1/2+y,z
1/2+x,1/2-y,z
1/2-y,1/2-x,z
1/2+y,1/2+x,z
loop_
_atom_site_type_symbol
_atom_site_label
_atom_site_fract_x
_atom_site_fract_y
_atom_site_fract_z
Si Si1 0.908904 0.499362 0.672585
Si Si2 0.364709 0.221756 0.824479
Si Si3 0.208490 0.510100 0.177483
Si Si4 0.221873 0.813656 0.826085
Si Si5 0.430312 0.700490 0.677607
Si Si6 0.585338 0.532486 0.825951
O O1 0.891742 0.497181 0.500000
O O2 0.943779 0.443779 0.715322
O O3 0.854058 0.505053 0.773029
O O4 0.946598 0.553403 0.704334
O O5 0.331484 0.168517 0.757170
O O6 0.427579 0.222436 0.765357
O O7 0.332627 0.278179 0.780025
O O8 0.364785 0.216047 0.000000
O O9 0.253857 0.471726 0.255731
O O10 0.213110 0.503741 0.000000
O O11 0.277839 0.777839 0.791863
O O12 0.219507 0.868942 0.727879
O O13 0.220200 0.829567 0.000000
O O14 0.433612 0.700839 0.500000
O O15 0.446400 0.638741 0.734604
O O16 0.531877 0.571078 0.786367
O O17 0.599170 0.537684 0.000000
#
# Coordination Sequence:
#
# PCOD8314479 Si02
#       6
#    16  16  16  16  16  16
#     4   9  19  37  59  83 116 157 194 234 293 356
#     4   8  16  33  59  88 112 137 177 235 290 332
#     4  11  22  36  57  86 116 150 195 241 285 338
#     4   9  19  39  64  85 108 145 195 242 286 340
#     4  12  26  39  55  85 124 160 194 236 291 354
#     4   9  20  41  67  90 113 148 196 246 294 346
#
# _framework density 18.518519000000001
#
# number of rings (size 3 to 8) (size 9 to 14) (size 15 to 20)
#    0.000    2.333    0.000    4.500    2.333    3.000 
#    0.000    2.500    0.000    2.000    0.000    0.000 
#    0.000    0.000    0.000    0.000    0.000    0.000 
#
# Total GULP energy -1190228.864822 kJ/mol
# GULP energy per Si atom -12398.217342 kJ/mol
# Density = 1.847637 g / cm^3
# Si number density = 18.518519 Si / 1000 Ang^3
#
#
#
# Elastic Constant Matrix: (Units=GPa)
#
#
# Indices 1 2 3 4 5 6 
#
# 1 152.7552 81.2931 61.5553 0.0000 0.0000 0.0000
# 2 81.2931 152.7552 61.5553 0.0000 0.0000 0.0000
# 3 61.5553 61.5553 107.3442 0.0000 0.0000 0.0000
# 4 0.0000 0.0000 0.0000 28.3935 0.0000 0.0000
# 5 0.0000 0.0000 0.0000 0.0000 28.3935 0.0000
# 6 0.0000 0.0000 0.0000 0.0000 0.0000 30.4839
#
#
#
# Elastic Compliance Matrix: (Units=1/GPa)
#
#
# Indices 1 2 3 4 5 6 
#
# 1 0.010056 -0.003938 -0.003508 0.000000 0.000000 0.000000
# 2 -0.003938 0.010056 -0.003508 0.000000 0.000000 0.000000
# 3 -0.003508 -0.003508 0.013339 0.000000 0.000000 0.000000
# 4 0.000000 0.000000 0.000000 0.035219 0.000000 0.000000
# 5 0.000000 0.000000 0.000000 0.000000 0.035219 0.000000
# 6 0.000000 0.000000 0.000000 0.000000 0.000000 0.032804
#
#
# Mechanical properties :
#
#
# Convention : Reuss Voigt Hill
#
# Bulk Modulus (GPa) = 86.63841 91.29580 88.96710
# Shear Modulus (GPa) = 30.77876 31.35092 31.06484
#
# Velocity S-wave (km/s) = 4.08125 4.11901 4.10017
# Velocity P-wave (km/s) = 8.31235 8.48696 8.40011
#
# Compressibility (1/GPa) = 0.01154223
#
# Stress axis : x y z
#
# Youngs Moduli (GPa) = 99.44591 99.44591 74.96576
#
# Poissons Ratio (x) = 0.39159 0.26300
# Poissons Ratio (y) = 0.39159 0.26300
# Poissons Ratio (z) = 0.34889 0.34889
#
# Static dielectric constant tensor:
#      x y z
#    x 3.667950 0.000000 0.000000 
#    y 0.000000 3.667950 0.000000 
#    z 0.000000 0.000000 3.278060 
# 
# 
# High freq. dielectric constant tensor:
#      x y z
#    x 1.737840 0.000000 0.000000 
#    y 0.000000 1.737840 0.000000 
#    z 0.000000 0.000000 1.705910 
# 
# From -- ./inp_files/1989.got.cif
#   From: 2010.03.12/outbox.ucp.g09.slc.cvg/sg127_1_cif.got.tgz:1989.got - 2010.05.04 20:26:26.
