data_PCOD8314442
_publ_section_title
;
Structure prediction by ZEFSAII (Michael W. Deem and Ramdas Pophale) SiO2 
 PCOD8314442
Probable space group: P 4/M B M
;
_chemical_formula_sum "Si O2"
_cell_formula_units_Z 88
_cell_length_a 12.006068
_cell_length_b 12.006068
_cell_length_c 29.168416
_cell_angle_alpha 90.000000
_cell_angle_beta 90.000000
_cell_angle_gamma 90.000000
_cell_volume 4204.500833
_symmetry_space_group_name_H-M "P 4/M B M"
_symmetry_group_IT_number 127
_symmetry_cell_setting 'tetragonal'
loop_
_space_group_symop_operation_xyz
x,y,z
-y,x,z
-x,-y,z
y,-x,z
1/2+x,1/2-y,-z
1/2-x,1/2+y,-z
1/2+y,1/2+x,-z
1/2-y,1/2-x,-z
-x,-y,-z
y,-x,-z
x,y,-z
-y,x,-z
1/2-x,1/2+y,z
1/2+x,1/2-y,z
1/2-y,1/2-x,z
1/2+y,1/2+x,z
loop_
_atom_site_type_symbol
_atom_site_label
_atom_site_fract_x
_atom_site_fract_y
_atom_site_fract_z
Si Si1 0.319912 0.526007 0.398403
Si Si2 0.983820 0.182025 0.051483
Si Si3 0.498880 0.680766 0.225942
Si Si4 0.909312 0.409312 0.554071
Si Si5 0.819644 0.503168 0.687004
Si Si6 0.999054 0.678889 0.861500
O O1 0.375629 0.406835 0.409923
O O2 0.209846 0.549714 0.427696
O O3 0.287927 0.518264 0.344718
O O4 0.881397 0.099333 0.059446
O O5 0.974223 0.281778 0.087190
O O6 0.979296 0.231298 0.000000
O O7 0.389346 0.609243 0.235522
O O8 0.497816 0.785532 0.259857
O O9 0.497980 0.718508 0.173313
O O10 0.900505 0.400505 0.500000
O O11 0.000000 0.500000 0.569915
O O12 0.904836 0.404836 0.676903
O O13 0.878668 0.621332 0.675656
O O14 0.093455 0.593455 0.845605
O O15 0.878583 0.621418 0.860683
#
# Coordination Sequence:
#
# PCOD8314442 Si02
#       6
#    16  16  16   8  16  16
#     4  11  25  44  70 103 139 181 231 283 338 403
#     4   9  19  37  60  84 109 141 185 236 290 353
#     4  11  24  40  59  86 119 157 204 255 308 370
#     4  11  26  46  72 103 139 183 231 284 345 405
#     4  11  23  39  64  96 132 170 215 263 321 385
#     4  11  24  39  55  80 115 151 192 241 298 360
#
# _framework density 20.929952
#
# number of rings (size 3 to 8) (size 9 to 14) (size 15 to 20)
#    0.000    1.364    0.909    4.364    2.545   12.364 
#    0.000    3.636    0.000    0.000    0.000    0.000 
#    0.000    0.000    0.000    0.000    0.000    0.000 
#
# Total GULP energy -1091546.749356 kJ/mol
# GULP energy per Si atom -12403.940334 kJ/mol
# Density = 2.088231 g / cm^3
# Si number density = 20.929952 Si / 1000 Ang^3
#
#
#
# Elastic Constant Matrix: (Units=GPa)
#
#
# Indices 1 2 3 4 5 6 
#
# 1 119.8490 50.3671 41.6717 0.0000 0.0000 0.0000
# 2 50.3671 119.8490 41.6717 0.0000 0.0000 0.0000
# 3 41.6717 41.6717 102.9239 0.0000 0.0000 0.0000
# 4 0.0000 0.0000 0.0000 34.7280 0.0000 0.0000
# 5 0.0000 0.0000 0.0000 0.0000 34.7280 0.0000
# 6 0.0000 0.0000 0.0000 0.0000 0.0000 11.8475
#
#
#
# Elastic Compliance Matrix: (Units=1/GPa)
#
#
# Indices 1 2 3 4 5 6 
#
# 1 0.010860 -0.003532 -0.002967 0.000000 0.000000 0.000000
# 2 -0.003532 0.010860 -0.002967 0.000000 0.000000 0.000000
# 3 -0.002967 -0.002967 0.012118 0.000000 0.000000 0.000000
# 4 0.000000 0.000000 0.000000 0.028795 0.000000 0.000000
# 5 0.000000 0.000000 0.000000 0.000000 0.028795 0.000000
# 6 0.000000 0.000000 0.000000 0.000000 0.000000 0.084406
#
#
# Mechanical properties :
#
#
# Convention : Reuss Voigt Hill
#
# Bulk Modulus (GPa) = 67.08584 67.78251 67.43417
# Shear Modulus (GPa) = 25.03317 30.18813 27.61065
#
# Velocity S-wave (km/s) = 3.46214 3.80194 3.63601
# Velocity P-wave (km/s) = 6.93571 7.19227 7.06515
#
# Compressibility (1/GPa) = 0.01490628
#
# Stress axis : x y z
#
# Youngs Moduli (GPa) = 92.08212 92.08212 82.52013
#
# Poissons Ratio (x) = 0.32527 0.24482
# Poissons Ratio (y) = 0.32527 0.24482
# Poissons Ratio (z) = 0.27318 0.27318
#
# Static dielectric constant tensor:
#      x y z
#    x 3.767450 0.000000 0.000000 
#    y 0.000000 3.767450 0.000000 
#    z 0.000000 0.000000 3.713150 
# 
# 
# High freq. dielectric constant tensor:
#      x y z
#    x 1.823870 0.000000 0.000000 
#    y 0.000000 1.823870 0.000000 
#    z 0.000000 0.000000 1.825000 
# 
# From -- ./inp_files/6520.got.cif
#   From: 2010.03.12/outbox.cif.g09.slc.cpg/sg127_4_cif.got.tgz:6520.got - 2010.04.06 17:03:15.
