data_PCOD8314948
_publ_section_title
;
Structure prediction by ZEFSAII (Michael W. Deem and Ramdas Pophale) SiO2 
 PCOD8314948
Probable space group: P 4/N M M
;
_chemical_formula_sum "Si O2"
_cell_formula_units_Z 128
_cell_length_a 25.100163
_cell_length_b 25.100163
_cell_length_c 11.648725
_cell_angle_alpha 90.000000
_cell_angle_beta 90.000000
_cell_angle_gamma 90.000000
_cell_volume 7338.908554
_symmetry_space_group_name_H-M "P 4/N M M"
_symmetry_group_IT_number 129
_symmetry_cell_setting 'tetragonal'
loop_
_space_group_symop_operation_xyz
x,y,z
1/2-y,x,z
1/2-x,1/2-y,z
y,1/2-x,z
1/2+x,-y,-z
-x,1/2+y,-z
1/2+y,1/2+x,-z
-y,-x,-z
-x,-y,-z
1/2+y,-x,-z
1/2+x,1/2+y,-z
-y,1/2+x,-z
1/2-x,y,z
x,1/2-y,z
1/2-y,1/2-x,z
y,x,z
loop_
_atom_site_type_symbol
_atom_site_label
_atom_site_fract_x
_atom_site_fract_y
_atom_site_fract_z
Si Si1 0.688504 0.019541 0.589072
Si Si2 0.094629 0.623107 0.216993
Si Si3 0.689112 0.599798 0.198960
Si Si4 0.445185 0.688974 0.837636
Si Si5 0.441357 0.974318 0.623520
Si Si6 0.355729 0.439093 0.572317
Si Si7 0.115302 0.687438 0.437297
Si Si8 0.810866 0.491111 0.079081
O O1 0.750000 0.028374 0.573922
O O2 0.672499 0.023484 0.721861
O O3 0.662349 0.066071 0.510680
O O4 0.673195 0.961823 0.540049
O O5 0.147413 0.603815 0.147980
O O6 0.069448 0.571403 0.279998
O O7 0.112716 0.666868 0.308211
O O8 0.052281 0.649604 0.132185
O O9 0.750000 0.618635 0.177043
O O10 0.648949 0.648949 0.176097
O O11 0.685586 0.578603 0.329539
O O12 0.673221 0.551132 0.114666
O O13 0.423103 0.750000 0.830622
O O14 0.486682 0.683657 0.941788
O O15 0.446359 0.946359 0.500000
O O16 0.497397 0.002604 0.654639
O O17 0.394262 0.017163 0.627382
O O18 0.388430 0.388430 0.527958
O O19 0.169212 0.669212 0.500000
O O20 0.114834 0.750000 0.432135
O O21 0.750000 0.479467 0.118961
#
# Coordination Sequence:
#
# PCOD8314948 Si02
#       8
#    16  16  16  16  16  16  16  16
#     4  10  18  32  51  72 101 138 175 211 256 324
#     4  12  19  33  56  75 101 134 180 223 268 327
#     4  10  20  36  59  85 114 144 177 222 270 323
#     4  10  22  36  52  72 101 139 180 227 272 314
#     4  10  19  29  45  74 109 138 162 201 257 315
#     4  10  18  30  50  78 110 137 167 210 259 314
#     4  11  21  32  49  72  98 129 167 218 275 325
#     4  10  21  37  54  76 102 138 184 224 269 320
#
# _framework density 17.441286000000002
#
# number of rings (size 3 to 8) (size 9 to 14) (size 15 to 20)
#    0.000    1.625    3.750    2.250    0.000    2.250 
#    0.000    1.250    0.000    2.625    0.000    3.500 
#    0.000    0.000    0.000    7.875    0.000    0.000 
#
# Total GULP energy -1586872.236284 kJ/mol
# GULP energy per Si atom -12397.439346 kJ/mol
# Density = 1.740159 g / cm^3
# Si number density = 17.441286 Si / 1000 Ang^3
#
#
#
# Elastic Constant Matrix: (Units=GPa)
#
#
# Indices 1 2 3 4 5 6 
#
# 1 57.0816 74.6081 41.1070 0.0000 0.0000 0.0000
# 2 74.6081 57.0816 41.1070 0.0000 0.0000 0.0000
# 3 41.1070 41.1070 80.4229 0.0000 0.0000 0.0000
# 4 0.0000 0.0000 0.0000 23.4313 0.0000 0.0000
# 5 0.0000 0.0000 0.0000 0.0000 23.4313 0.0000
# 6 0.0000 0.0000 0.0000 0.0000 0.0000 28.2327
#
#
#
# Elastic Compliance Matrix: (Units=1/GPa)
#
#
# Indices 1 2 3 4 5 6 
#
# 1 -0.022952 0.034104 -0.005700 0.000000 0.000000 0.000000
# 2 0.034104 -0.022952 -0.005700 0.000000 0.000000 0.000000
# 3 -0.005700 -0.005700 0.018262 0.000000 0.000000 0.000000
# 4 0.000000 0.000000 0.000000 0.042678 0.000000 0.000000
# 5 0.000000 0.000000 0.000000 0.000000 0.042678 0.000000
# 6 0.000000 0.000000 0.000000 0.000000 0.000000 0.035420
#
#
# Mechanical properties :
#
#
# Convention : Reuss Voigt Hill
#
# Bulk Modulus (GPa) = 56.29099 56.47004 56.38051
# Shear Modulus (GPa) = 93.20109 17.53667 55.36888
#
# Velocity S-wave (km/s) = 7.31800 3.17435 5.64046
# Velocity P-wave (km/s) = 10.18571 6.77369 8.64961
#
# Compressibility (1/GPa) = 0.01776483
#
# Stress axis : x y z
#
# Youngs Moduli (GPa) = -43.56908 -43.56908 54.75975
#
# Poissons Ratio (x) = 1.48590 0.31215
# Poissons Ratio (y) = 1.48590 0.31215
# Poissons Ratio (z) = -0.24836 -0.24836
#
# Static dielectric constant tensor:
#      x y z
#    x 3.282830 0.000000 0.000000 
#    y 0.000000 3.282830 0.000000 
#    z 0.000000 0.000000 3.246900 
# 
# 
# High freq. dielectric constant tensor:
#      x y z
#    x 1.669170 0.000000 0.000000 
#    y 0.000000 1.669170 0.000000 
#    z 0.000000 0.000000 1.663310 
# 
# From -- ./inp_files/4208.got.cif
#   From: 2010.03.12/outbox.cif.g09.slc.cpg/sg129_3_cif.got.tgz:4208.got - 2010.04.06 17:19:44.
