data_PCOD8314271
_publ_section_title
;
Structure prediction by ZEFSAII (Michael W. Deem and Ramdas Pophale) SiO2 
 PCOD8314271
Probable space group: P 4/M B M
;
_chemical_formula_sum "Si O2"
_cell_formula_units_Z 112
_cell_length_a 14.414087
_cell_length_b 14.414087
_cell_length_c 28.120848
_cell_angle_alpha 90.000000
_cell_angle_beta 90.000000
_cell_angle_gamma 90.000000
_cell_volume 5842.553407
_symmetry_space_group_name_H-M "P 4/M B M"
_symmetry_group_IT_number 127
_symmetry_cell_setting 'tetragonal'
loop_
_space_group_symop_operation_xyz
x,y,z
-y,x,z
-x,-y,z
y,-x,z
1/2+x,1/2-y,-z
1/2-x,1/2+y,-z
1/2+y,1/2+x,-z
1/2-y,1/2-x,-z
-x,-y,-z
y,-x,-z
x,y,-z
-y,x,-z
1/2-x,1/2+y,z
1/2+x,1/2-y,z
1/2-y,1/2-x,z
1/2+y,1/2+x,z
loop_
_atom_site_type_symbol
_atom_site_label
_atom_site_fract_x
_atom_site_fract_y
_atom_site_fract_z
Si Si1 0.500307 0.149525 0.443803
Si Si2 0.496827 0.148380 0.887226
Si Si3 0.102103 0.887655 0.862301
Si Si4 0.119252 0.225883 0.946775
Si Si5 0.995824 0.152732 0.606985
Si Si6 0.263190 0.089342 0.203996
Si Si7 0.349755 0.511330 0.716463
O O1 0.501049 0.161193 0.500000
O O2 0.593224 0.093224 0.427759
O O3 0.496438 0.252335 0.422258
O O4 0.409569 0.090432 0.428108
O O5 0.408121 0.091880 0.907588
O O6 0.527235 0.224035 0.926210
O O7 0.474350 0.193957 0.836984
O O8 0.581371 0.081371 0.876200
O O9 0.138050 0.853548 0.913867
O O10 0.143929 0.824978 0.819774
O O11 0.993208 0.870706 0.856289
O O12 0.205246 0.294755 0.947079
O O13 0.097015 0.190780 0.000000
O O14 0.906131 0.088873 0.595134
O O15 0.990523 0.182255 0.661963
O O16 0.334986 0.165015 0.223332
O O17 0.237542 0.024200 0.248741
O O18 0.402179 0.416466 0.727695
#
# Coordination Sequence:
#
# PCOD8314271 Si02
#       7
#    16  16  16  16  16  16  16
#     4   9  19  36  57  83 119 164 210 255 304 356
#     4   9  19  37  58  78 103 132 164 210 263 315
#     4  11  22  37  55  74 101 138 172 203 254 319
#     4  10  21  38  58  79 103 129 164 213 263 314
#     4   9  19  36  57  83 118 157 198 250 305 357
#     4  11  21  35  56  82 106 133 175 221 266 319
#     4   9  19  37  57  78 109 147 183 223 275 333
#
# _framework density 19.169699000000001
#
# number of rings (size 3 to 8) (size 9 to 14) (size 15 to 20)
#    0.000    2.286    1.429    2.571    0.000    3.714 
#    0.000    7.143    0.000    1.714    0.000    0.000 
#    0.000    0.000    0.000    0.000    0.000    0.000 
#
# Total GULP energy -1388046.662237 kJ/mol
# GULP energy per Si atom -12393.273770 kJ/mol
# Density = 1.912607 g / cm^3
# Si number density = 19.169699 Si / 1000 Ang^3
#
#
#
# Elastic Constant Matrix: (Units=GPa)
#
#
# Indices 1 2 3 4 5 6 
#
# 1 87.7245 21.0267 33.0582 0.0000 0.0000 0.0000
# 2 21.0267 87.7245 33.0582 0.0000 0.0000 0.0000
# 3 33.0582 33.0582 75.2557 0.0000 0.0000 0.0000
# 4 0.0000 0.0000 0.0000 29.1471 0.0000 0.0000
# 5 0.0000 0.0000 0.0000 0.0000 29.1471 0.0000
# 6 0.0000 0.0000 0.0000 0.0000 0.0000 13.0046
#
#
#
# Elastic Compliance Matrix: (Units=1/GPa)
#
#
# Indices 1 2 3 4 5 6 
#
# 1 0.013769 -0.001224 -0.005511 0.000000 0.000000 0.000000
# 2 -0.001224 0.013769 -0.005511 0.000000 0.000000 0.000000
# 3 -0.005511 -0.005511 0.018130 0.000000 0.000000 0.000000
# 4 0.000000 0.000000 0.000000 0.034309 0.000000 0.000000
# 5 0.000000 0.000000 0.000000 0.000000 0.034309 0.000000
# 6 0.000000 0.000000 0.000000 0.000000 0.000000 0.076896
#
#
# Mechanical properties :
#
#
# Convention : Reuss Voigt Hill
#
# Bulk Modulus (GPa) = 47.22090 47.22124 47.22107
# Shear Modulus (GPa) = 22.44843 25.16387 23.80615
#
# Velocity S-wave (km/s) = 3.42575 3.62704 3.52783
# Velocity P-wave (km/s) = 6.35093 6.49825 6.42501
#
# Compressibility (1/GPa) = 0.02117706
#
# Stress axis : x y z
#
# Youngs Moduli (GPa) = 72.62465 72.62465 55.15758
#
# Poissons Ratio (x) = 0.08886 0.30398
# Poissons Ratio (y) = 0.08886 0.30398
# Poissons Ratio (z) = 0.40024 0.40024
#
# Static dielectric constant tensor:
#      x y z
#    x 3.582760 0.000000 0.000000 
#    y 0.000000 3.582760 0.000000 
#    z 0.000000 0.000000 3.481190 
# 
# 
# High freq. dielectric constant tensor:
#      x y z
#    x 1.745290 0.000000 0.000000 
#    y 0.000000 1.745290 0.000000 
#    z 0.000000 0.000000 1.734880 
# 
# From -- ./inp_files/6194.got.cif
#   From: 2010.03.12/outbox.cif.g09.slc.cpg/sg127_4_cif.got.tgz:6194.got - 2010.04.06 17:03:15.
