data_PCOD8314922
_publ_section_title
;
Structure prediction by ZEFSAII (Michael W. Deem and Ramdas Pophale) SiO2 
 PCOD8314922
Probable space group: P 4/N M M
;
_chemical_formula_sum "Si O2"
_cell_formula_units_Z 80
_cell_length_a 17.657390
_cell_length_b 17.657390
_cell_length_c 14.532607
_cell_angle_alpha 90.000000
_cell_angle_beta 90.000000
_cell_angle_gamma 90.000000
_cell_volume 4531.025935
_symmetry_space_group_name_H-M "P 4/N M M"
_symmetry_group_IT_number 129
_symmetry_cell_setting 'tetragonal'
loop_
_space_group_symop_operation_xyz
x,y,z
1/2-y,x,z
1/2-x,1/2-y,z
y,1/2-x,z
1/2+x,-y,-z
-x,1/2+y,-z
1/2+y,1/2+x,-z
-y,-x,-z
-x,-y,-z
1/2+y,-x,-z
1/2+x,1/2+y,-z
-y,1/2+x,-z
1/2-x,y,z
x,1/2-y,z
1/2-y,1/2-x,z
y,x,z
loop_
_atom_site_type_symbol
_atom_site_label
_atom_site_fract_x
_atom_site_fract_y
_atom_site_fract_z
Si Si1 0.164656 0.458917 0.713080
Si Si2 0.510900 0.111758 0.902772
Si Si3 0.063208 0.564083 0.603658
Si Si4 0.035629 0.834829 0.903377
Si Si5 0.041837 0.335826 0.285269
O O1 0.250000 0.440086 0.683921
O O2 0.114633 0.385368 0.690365
O O3 0.162783 0.478984 0.820977
O O4 0.136468 0.531454 0.655563
O O5 0.601408 0.100355 0.891346
O O6 0.470779 0.029221 0.900836
O O7 0.493491 0.153687 0.998759
O O8 0.086348 0.586348 0.500000
O O9 0.998906 0.501095 0.604786
O O10 0.031913 0.637123 0.657630
O O11 0.071578 0.750000 0.899469
O O12 0.973938 0.843701 0.823170
O O13 0.059328 0.250000 0.313830
O O14 0.115087 0.384914 0.311539
#
# Coordination Sequence:
#
# PCOD8314922 Si02
#       5
#    16  16  16  16  16
#     4  10  20  34  54  79 106 135 170 213 260 310
#     4  10  18  31  51  72 101 140 181 215 250 306
#     4   9  18  34  54  74  97 129 172 215 253 300
#     4  10  18  28  48  75 102 132 172 219 259 295
#     4  10  19  32  51  77 107 137 172 211 253 303
#
# _framework density 17.656044999999999
#
# number of rings (size 3 to 8) (size 9 to 14) (size 15 to 20)
#    0.000    2.200    2.000    3.000    0.000    1.200 
#    0.000    0.000    0.000   12.000    0.000    9.800 
#    0.000    0.000    0.000    0.000    0.000    0.000 
#
# Total GULP energy -991871.621073 kJ/mol
# GULP energy per Si atom -12398.395263 kJ/mol
# Density = 1.761586 g / cm^3
# Si number density = 17.656045 Si / 1000 Ang^3
#
#
#
# Elastic Constant Matrix: (Units=GPa)
#
#
# Indices 1 2 3 4 5 6 
#
# 1 109.3999 47.5186 34.7286 0.0000 0.0000 0.0000
# 2 47.5186 109.3999 34.7286 0.0000 0.0000 0.0000
# 3 34.7286 34.7286 107.7311 0.0000 0.0000 0.0000
# 4 0.0000 0.0000 0.0000 12.9840 0.0000 0.0000
# 5 0.0000 0.0000 0.0000 0.0000 12.9840 0.0000
# 6 0.0000 0.0000 0.0000 0.0000 0.0000 15.3069
#
#
#
# Elastic Compliance Matrix: (Units=1/GPa)
#
#
# Indices 1 2 3 4 5 6 
#
# 1 0.011797 -0.004363 -0.002396 0.000000 0.000000 0.000000
# 2 -0.004363 0.011797 -0.002396 0.000000 0.000000 0.000000
# 3 -0.002396 -0.002396 0.010827 0.000000 0.000000 0.000000
# 4 0.000000 0.000000 0.000000 0.077018 0.000000 0.000000
# 5 0.000000 0.000000 0.000000 0.000000 0.077018 0.000000
# 6 0.000000 0.000000 0.000000 0.000000 0.000000 0.065330
#
#
# Mechanical properties :
#
#
# Convention : Reuss Voigt Hill
#
# Bulk Modulus (GPa) = 62.07685 62.27584 62.17634
# Shear Modulus (GPa) = 18.02011 22.22533 20.12272
#
# Velocity S-wave (km/s) = 3.19818 3.55180 3.37962
# Velocity P-wave (km/s) = 6.99093 7.22278 7.10780
#
# Compressibility (1/GPa) = 0.01610906
#
# Stress axis : x y z
#
# Youngs Moduli (GPa) = 84.76966 84.76966 92.35910
#
# Poissons Ratio (x) = 0.36987 0.22132
# Poissons Ratio (y) = 0.36987 0.22132
# Poissons Ratio (z) = 0.20313 0.20313
#
# Static dielectric constant tensor:
#      x y z
#    x 3.086220 0.000000 0.000000 
#    y 0.000000 3.086220 0.000000 
#    z 0.000000 0.000000 3.517270 
# 
# 
# High freq. dielectric constant tensor:
#      x y z
#    x 1.659410 0.000000 0.000000 
#    y 0.000000 1.659410 0.000000 
#    z 0.000000 0.000000 1.695380 
# 
# From -- ./inp_files/4549.got.cif
#   From: 2010.03.12/outbox.cif.g09.slc.cpg/sg129_3_cif.got.tgz:4549.got - 2010.04.06 17:19:44.
