data_PCOD8314426
_publ_section_title
;
Structure prediction by ZEFSAII (Michael W. Deem and Ramdas Pophale) SiO2 
 PCOD8314426
Probable space group: P 4/M B M
;
_chemical_formula_sum "Si O2"
_cell_formula_units_Z 96
_cell_length_a 14.308205
_cell_length_b 14.308205
_cell_length_c 26.273152
_cell_angle_alpha 90.000000
_cell_angle_beta 90.000000
_cell_angle_gamma 90.000000
_cell_volume 5378.763958
_symmetry_space_group_name_H-M "P 4/M B M"
_symmetry_group_IT_number 127
_symmetry_cell_setting 'tetragonal'
loop_
_space_group_symop_operation_xyz
x,y,z
-y,x,z
-x,-y,z
y,-x,z
1/2+x,1/2-y,-z
1/2-x,1/2+y,-z
1/2+y,1/2+x,-z
1/2-y,1/2-x,-z
-x,-y,-z
y,-x,-z
x,y,-z
-y,x,-z
1/2-x,1/2+y,z
1/2+x,1/2-y,z
1/2-y,1/2-x,z
1/2+y,1/2+x,z
loop_
_atom_site_type_symbol
_atom_site_label
_atom_site_fract_x
_atom_site_fract_y
_atom_site_fract_z
Si Si1 0.748537 0.526949 0.108357
Si Si2 0.156400 0.502081 0.610993
Si Si3 0.847956 0.006039 0.207935
Si Si4 0.803917 0.844666 0.942130
Si Si5 0.006198 0.351539 0.500000
Si Si6 0.426696 0.926696 0.055261
Si Si7 0.503602 0.345491 0.675342
O O1 0.739353 0.511290 0.169269
O O2 0.690424 0.449740 0.077923
O O3 0.715680 0.629202 0.093098
O O4 0.854321 0.519303 0.090897
O O5 0.089720 0.410281 0.616024
O O6 0.201103 0.510920 0.553650
O O7 0.247749 0.494363 0.645726
O O8 0.094375 0.594375 0.624152
O O9 0.904834 0.912208 0.196759
O O10 0.813949 0.005934 0.265979
O O11 0.700203 0.799797 0.937607
O O12 0.839334 0.843414 0.000000
O O13 0.113318 0.386683 0.500000
O O14 0.941588 0.441588 0.500000
O O15 0.500000 0.000000 0.036504
O O16 0.386336 0.886336 0.000000
O O17 0.594356 0.409971 0.663061
#
# Coordination Sequence:
#
# PCOD8314426 Si02
#       7
#    16  16  16  16   8   8  16
#     4  12  21  37  60  80 103 136 175 217 264 318
#     4   9  17  32  55  84 114 145 184 231 273 317
#     4   9  18  36  57  79 103 135 173 220 271 321
#     4  11  23  37  54  81 111 135 167 214 265 321
#     4   7  12  26  50  77 110 150 184 217 270 323
#     4  11  24  42  58  74 106 149 177 198 254 337
#     4   9  19  36  57  76 105 148 190 224 272 328
#
# _framework density 17.847967000000001
#
# number of rings (size 3 to 8) (size 9 to 14) (size 15 to 20)
#    0.000    2.167    2.500    4.000    0.000    2.333 
#    1.500    3.333    1.833    4.000    0.000    0.000 
#    0.000    0.000    0.000    0.000    0.000    0.000 
#
# Total GULP energy -1189263.728902 kJ/mol
# GULP energy per Si atom -12388.163843 kJ/mol
# Density = 1.780734 g / cm^3
# Si number density = 17.847967 Si / 1000 Ang^3
#
#
#
# Elastic Constant Matrix: (Units=GPa)
#
#
# Indices 1 2 3 4 5 6 
#
# 1 87.3612 27.7779 59.1903 0.0000 0.0000 0.0000
# 2 27.7779 87.3614 59.1904 0.0000 0.0000 0.0000
# 3 59.1903 59.1904 145.6910 0.0000 0.0000 0.0000
# 4 0.0000 0.0000 0.0000 31.4568 0.0000 0.0000
# 5 0.0000 0.0000 0.0000 0.0000 31.4557 0.0000
# 6 0.0000 0.0000 0.0000 0.0000 0.0000 19.0472
#
#
#
# Elastic Compliance Matrix: (Units=1/GPa)
#
#
# Indices 1 2 3 4 5 6 
#
# 1 0.015849 -0.000934 -0.006060 0.000000 0.000000 0.000000
# 2 -0.000934 0.015849 -0.006060 0.000000 0.000000 0.000000
# 3 -0.006060 -0.006060 0.011788 0.000000 0.000000 0.000000
# 4 0.000000 0.000000 0.000000 0.031790 0.000000 0.000000
# 5 0.000000 0.000000 0.000000 0.000000 0.031791 0.000000
# 6 0.000000 0.000000 0.000000 0.000000 0.000000 0.052501
#
#
# Mechanical properties :
#
#
# Convention : Reuss Voigt Hill
#
# Bulk Modulus (GPa) = 57.53866 68.08119 62.80992
# Shear Modulus (GPa) = 26.11404 28.00895 27.06150
#
# Velocity S-wave (km/s) = 3.82925 3.96575 3.89810
# Velocity P-wave (km/s) = 7.20132 7.69398 7.45173
#
# Compressibility (1/GPa) = 0.01737962
#
# Stress axis : x y z
#
# Youngs Moduli (GPa) = 63.09406 63.09415 84.83441
#
# Poissons Ratio (x) = 0.05892 0.51408
# Poissons Ratio (y) = 0.05892 0.51408
# Poissons Ratio (z) = 0.38233 0.38234
#
# Static dielectric constant tensor:
#      x y z
#    x 3.248200 0.000000 0.000000 
#    y 0.000000 3.248200 0.000000 
#    z 0.000000 0.000000 3.473420 
# 
# 
# High freq. dielectric constant tensor:
#      x y z
#    x 1.676810 0.000000 0.000000 
#    y 0.000000 1.676810 0.000000 
#    z 0.000000 0.000000 1.694940 
# 
# From -- ./inp_files/6118.got.cif
#   From: 2010.03.12/outbox.cif.g09.slc.cpg/sg127_4_cif.got.tgz:6118.got - 2010.04.06 17:03:15.
