data_PCOD8314105
_publ_section_title
;
Structure prediction by ZEFSAII (Michael W. Deem and Ramdas Pophale) SiO2 
 PCOD8314105
Probable space group: P 4/M B M
;
_chemical_formula_sum "Si O2"
_cell_formula_units_Z 56
_cell_length_a 19.041073
_cell_length_b 19.041073
_cell_length_c 8.951834
_cell_angle_alpha 90.000000
_cell_angle_beta 90.000000
_cell_angle_gamma 90.000000
_cell_volume 3245.598965
_symmetry_space_group_name_H-M "P 4/M B M"
_symmetry_group_IT_number 127
_symmetry_cell_setting 'tetragonal'
loop_
_space_group_symop_operation_xyz
x,y,z
-y,x,z
-x,-y,z
y,-x,z
1/2+x,1/2-y,-z
1/2-x,1/2+y,-z
1/2+y,1/2+x,-z
1/2-y,1/2-x,-z
-x,-y,-z
y,-x,-z
x,y,-z
-y,x,-z
1/2-x,1/2+y,z
1/2+x,1/2-y,z
1/2-y,1/2-x,z
1/2+y,1/2+x,z
loop_
_atom_site_type_symbol
_atom_site_label
_atom_site_fract_x
_atom_site_fract_y
_atom_site_fract_z
Si Si1 0.522966 0.796572 0.824177
Si Si2 0.267656 0.651628 0.673231
Si Si3 0.746442 0.132597 0.172516
Si Si4 0.058554 0.558554 0.672137
O O1 0.580139 0.741622 0.764710
O O2 0.447443 0.765649 0.781070
O O3 0.531011 0.871347 0.747653
O O4 0.531551 0.806757 0.000000
O O5 0.275930 0.633909 0.500000
O O6 0.200173 0.700173 0.704655
O O7 0.337956 0.689769 0.729041
O O8 0.675216 0.175216 0.206802
O O9 0.767720 0.139976 0.000000
O O10 0.075070 0.575070 0.500000
O O11 0.000000 0.500000 0.692201
#
# Coordination Sequence:
#
# PCOD8314105 Si02
#       4
#    16  16  16   8
#     4  11  21  34  55  79 106 142 180 223 268 317
#     4  10  20  34  53  77 106 140 179 220 265 321
#     4   9  19  35  54  77 105 137 179 223 264 315
#     4  11  23  35  49  75 113 149 179 216 265 326
#
# _framework density 17.254134000000001
#
# number of rings (size 3 to 8) (size 9 to 14) (size 15 to 20)
#    0.000    1.857    1.429    3.000    0.000    5.714 
#    0.000    2.857    0.000    0.857    0.000    6.000 
#    0.000    0.000    0.000    0.000    0.000    0.000 
#
# Total GULP energy -694681.055454 kJ/mol
# GULP energy per Si atom -12405.018847 kJ/mol
# Density = 1.721486 g / cm^3
# Si number density = 17.254134 Si / 1000 Ang^3
#
#
#
# Elastic Constant Matrix: (Units=GPa)
#
#
# Indices 1 2 3 4 5 6 
#
# 1 109.0470 77.3495 66.5950 0.0000 0.0000 0.0000
# 2 77.3495 109.0470 66.5950 0.0000 0.0000 0.0000
# 3 66.5950 66.5950 102.7423 0.0000 0.0000 0.0000
# 4 0.0000 0.0000 0.0000 25.8900 0.0000 0.0000
# 5 0.0000 0.0000 0.0000 0.0000 25.8900 0.0000
# 6 0.0000 0.0000 0.0000 0.0000 0.0000 20.7918
#
#
#
# Elastic Compliance Matrix: (Units=1/GPa)
#
#
# Indices 1 2 3 4 5 6 
#
# 1 0.020771 -0.010777 -0.006477 0.000000 0.000000 0.000000
# 2 -0.010777 0.020771 -0.006477 0.000000 0.000000 0.000000
# 3 -0.006477 -0.006477 0.018130 0.000000 0.000000 0.000000
# 4 0.000000 0.000000 0.000000 0.038625 0.000000 0.000000
# 5 0.000000 0.000000 0.000000 0.000000 0.038625 0.000000
# 6 0.000000 0.000000 0.000000 0.000000 0.000000 0.048096
#
#
# Mechanical properties :
#
#
# Convention : Reuss Voigt Hill
#
# Bulk Modulus (GPa) = 81.91975 82.43505 82.17740
# Shear Modulus (GPa) = 21.13707 21.86749 21.50228
#
# Velocity S-wave (km/s) = 3.50386 3.56389 3.53400
# Velocity P-wave (km/s) = 7.99692 8.05082 8.02392
#
# Compressibility (1/GPa) = 0.01220707
#
# Stress axis : x y z
#
# Youngs Moduli (GPa) = 48.14445 48.14445 55.15664
#
# Poissons Ratio (x) = 0.51887 0.35728
# Poissons Ratio (y) = 0.51887 0.35728
# Poissons Ratio (z) = 0.31185 0.31185
#
# Static dielectric constant tensor:
#      x y z
#    x 3.217370 0.000000 0.000000 
#    y 0.000000 3.217370 0.000000 
#    z 0.000000 0.000000 3.338320 
# 
# 
# High freq. dielectric constant tensor:
#      x y z
#    x 1.659440 0.000000 0.000000 
#    y 0.000000 1.659440 0.000000 
#    z 0.000000 0.000000 1.680240 
# 
# From -- ./inp_files/1060.got.cif
#   From: 2010.03.12/outbox.cif.g09.slc.cpg/sg127_1_cif.got.tgz:1060.got - 2010.04.06 17:03:15.
