data_PCOD8314612
_publ_section_title
;
Structure prediction by ZEFSAII (Michael W. Deem and Ramdas Pophale) SiO2 
 PCOD8314612
Probable space group: P 4/M N C
;
_chemical_formula_sum "Si O2"
_cell_formula_units_Z 96
_cell_length_a 22.434665
_cell_length_b 22.434665
_cell_length_c 9.035009
_cell_angle_alpha 90.000000
_cell_angle_beta 90.000000
_cell_angle_gamma 90.000000
_cell_volume 4547.448270
_symmetry_space_group_name_H-M "P 4/M N C"
_symmetry_group_IT_number 128
_symmetry_cell_setting 'tetragonal'
loop_
_space_group_symop_operation_xyz
x,y,z
-y,x,z
-x,-y,z
y,-x,z
1/2+x,1/2-y,1/2-z
1/2-x,1/2+y,1/2-z
1/2+y,1/2+x,1/2-z
1/2-y,1/2-x,1/2-z
-x,-y,-z
y,-x,-z
x,y,-z
-y,x,-z
1/2-x,1/2+y,1/2+z
1/2+x,1/2-y,1/2+z
1/2-y,1/2-x,1/2+z
1/2+y,1/2+x,1/2+z
loop_
_atom_site_type_symbol
_atom_site_label
_atom_site_fract_x
_atom_site_fract_y
_atom_site_fract_z
Si Si1 0.217601 0.805641 0.671038
Si Si2 0.906754 0.973387 0.827203
Si Si3 0.326568 0.090869 0.829222
Si Si4 0.891156 0.525811 0.331764
Si Si5 0.577990 0.707618 0.829626
Si Si6 0.883726 0.705009 0.824728
O O1 0.248934 0.748934 0.750000
O O2 0.236931 0.806450 0.500000
O O3 0.147681 0.800295 0.691168
O O4 0.231095 0.870982 0.748439
O O5 0.847589 0.958517 0.736064
O O6 0.959692 0.927505 0.786364
O O7 0.891548 0.968961 0.000000
O O8 0.348343 0.151658 0.750000
O O9 0.268366 0.061519 0.756278
O O10 0.381368 0.044202 0.812332
O O11 0.313180 0.105084 0.000000
O O12 0.950229 0.549772 0.250000
O O13 0.901580 0.544539 0.500000
O O14 0.829850 0.557029 0.274787
O O15 0.559561 0.714843 0.000000
O O16 0.828452 0.671549 0.750000
O O17 0.879035 0.710709 0.000000
#
# Coordination Sequence:
#
# PCOD8314612 Si02
#       6
#    16  16  16  16  16  16
#     4  10  20  33  50  76 111 150 193 240 291 347
#     4   9  20  41  67  93 122 157 196 239 290 349
#     4  11  24  42  61  84 116 154 198 247 297 351
#     4   9  20  37  58  84 113 147 189 238 291 347
#     4  11  24  39  58  87 119 155 198 243 295 352
#     4   9  16  29  50  76 105 138 178 225 279 336
#
# _framework density 21.110741000000001
#
# number of rings (size 3 to 8) (size 9 to 14) (size 15 to 20)
#    0.000    2.167    0.000    4.000    0.000    8.333 
#    0.000    7.500    0.000    0.000    0.000    0.000 
#    0.000    0.000    0.000    0.000    0.000    0.000 
#
# Total GULP energy -1189685.039535 kJ/mol
# GULP energy per Si atom -12392.552495 kJ/mol
# Density = 2.106269 g / cm^3
# Si number density = 21.110741 Si / 1000 Ang^3
#
#
#
# Elastic Constant Matrix: (Units=GPa)
#
#
# Indices 1 2 3 4 5 6 
#
# 1 76.7738 24.5453 46.9911 0.0000 0.0000 0.0000
# 2 24.5453 76.7751 46.9876 0.0000 0.0000 0.0000
# 3 46.9911 46.9876 128.1070 0.0000 0.0000 0.0000
# 4 0.0000 0.0000 0.0000 33.0342 0.0000 0.0000
# 5 0.0000 0.0000 0.0000 0.0000 33.0344 0.0000
# 6 0.0000 0.0000 0.0000 0.0000 0.0000 33.1878
#
#
#
# Elastic Compliance Matrix: (Units=1/GPa)
#
#
# Indices 1 2 3 4 5 6 
#
# 1 0.017053 -0.002094 -0.005487 0.000000 0.000000 0.000000
# 2 -0.002094 0.017052 -0.005487 0.000000 0.000000 0.000000
# 3 -0.005487 -0.005487 0.011831 0.000000 0.000000 0.000000
# 4 0.000000 0.000000 0.000000 0.030272 0.000000 0.000000
# 5 0.000000 0.000000 0.000000 0.000000 0.030271 0.000000
# 6 0.000000 0.000000 0.000000 0.000000 0.000000 0.030132
#
#
# Mechanical properties :
#
#
# Convention : Reuss Voigt Hill
#
# Bulk Modulus (GPa) = 50.50095 57.63374 54.06734
# Shear Modulus (GPa) = 29.52515 30.72675 30.12595
#
# Velocity S-wave (km/s) = 3.74382 3.81924 3.78172
# Velocity P-wave (km/s) = 6.53163 6.84169 6.68846
#
# Compressibility (1/GPa) = 0.01980161
#
# Stress axis : x y z
#
# Youngs Moduli (GPa) = 58.63956 58.64333 84.52223
#
# Poissons Ratio (x) = 0.12278 0.46381
# Poissons Ratio (y) = 0.12277 0.46373
# Poissons Ratio (z) = 0.32178 0.32175
#
# Static dielectric constant tensor:
#      x y z
#    x 3.813280 0.000000 0.000000 
#    y 0.000000 3.813300 0.000000 
#    z 0.000000 0.000000 3.837610 
# 
# 
# High freq. dielectric constant tensor:
#      x y z
#    x 1.824640 0.000000 0.000000 
#    y 0.000000 1.824640 0.000000 
#    z 0.000000 0.000000 1.829320 
# 
# From -- ./inp_files/1499.got.cif
#   From: 2010.03.12/outbox.cif.g09.slc.cpg/sg128_1_cif.got.tgz:1499.got - 2010.04.06 17:11:05.
