data_PCOD8314813
_publ_section_title
;
Structure prediction by ZEFSAII (Michael W. Deem and Ramdas Pophale) SiO2 
 PCOD8314813
Probable space group: P 4/M N C
;
_chemical_formula_sum "Si O2"
_cell_formula_units_Z 64
_cell_length_a 19.874533
_cell_length_b 19.874533
_cell_length_c 8.949658
_cell_angle_alpha 90.000000
_cell_angle_beta 90.000000
_cell_angle_gamma 90.000000
_cell_volume 3535.088616
_symmetry_space_group_name_H-M "P 4/M N C"
_symmetry_group_IT_number 128
_symmetry_cell_setting 'tetragonal'
loop_
_space_group_symop_operation_xyz
x,y,z
-y,x,z
-x,-y,z
y,-x,z
1/2+x,1/2-y,1/2-z
1/2-x,1/2+y,1/2-z
1/2+y,1/2+x,1/2-z
1/2-y,1/2-x,1/2-z
-x,-y,-z
y,-x,-z
x,y,-z
-y,x,-z
1/2-x,1/2+y,1/2+z
1/2+x,1/2-y,1/2+z
1/2-y,1/2-x,1/2+z
1/2+y,1/2+x,1/2+z
loop_
_atom_site_type_symbol
_atom_site_label
_atom_site_fract_x
_atom_site_fract_y
_atom_site_fract_z
Si Si1 0.809576 0.790466 0.175848
Si Si2 0.922998 0.225404 0.331322
Si Si3 0.953267 0.732412 0.824222
Si Si4 0.368568 0.035786 0.668251
O O1 0.747991 0.752010 0.250000
O O2 0.812873 0.865526 0.240279
O O3 0.878074 0.752688 0.219003
O O4 0.798065 0.793640 0.000000
O O5 0.925686 0.196930 0.500000
O O6 0.995079 0.213241 0.249409
O O7 0.910487 0.306588 0.333133
O O8 0.969059 0.657955 0.755903
O O9 0.965237 0.731045 0.000000
O O10 0.433002 0.066999 0.750000
O O11 0.389317 0.015816 0.500000
#
# Coordination Sequence:
#
# PCOD8314813 Si02
#       4
#    16  16  16  16
#     4  11  22  34  54  81 110 142 175 220 268 315
#     4   9  19  32  51  76 103 137 173 214 260 309
#     4   9  19  34  50  74 107 140 175 216 265 315
#     4   9  17  28  47  73  97 130 168 209 254 301
#
# _framework density 18.104213999999999
#
# number of rings (size 3 to 8) (size 9 to 14) (size 15 to 20)
#    1.500    1.000    0.000    3.000    0.000    6.000 
#    0.000    0.000    0.000    1.500    0.000   10.500 
#    0.000    0.000    0.000    0.000    0.000    0.000 
#
# Total GULP energy -793023.457074 kJ/mol
# GULP energy per Si atom -12390.991517 kJ/mol
# Density = 1.806301 g / cm^3
# Si number density = 18.104214 Si / 1000 Ang^3
#
#
#
# Elastic Constant Matrix: (Units=GPa)
#
#
# Indices 1 2 3 4 5 6 
#
# 1 41.9005 -6.4496 20.8299 0.0000 0.0000 0.0000
# 2 -6.4496 41.9005 20.8281 0.0000 0.0000 0.0000
# 3 20.8299 20.8281 110.6593 0.0000 0.0000 0.0000
# 4 0.0000 0.0000 0.0000 22.4579 0.0000 0.0000
# 5 0.0000 0.0000 0.0000 0.0000 22.4589 0.0000
# 6 0.0000 0.0000 0.0000 0.0000 0.0000 10.0686
#
#
#
# Elastic Compliance Matrix: (Units=1/GPa)
#
#
# Indices 1 2 3 4 5 6 
#
# 1 0.028451 0.007768 -0.006818 0.000000 0.000000 0.000000
# 2 0.007768 0.028451 -0.006817 0.000000 0.000000 0.000000
# 3 -0.006818 -0.006817 0.011603 0.000000 0.000000 0.000000
# 4 0.000000 0.000000 0.000000 0.044528 0.000000 0.000000
# 5 0.000000 0.000000 0.000000 0.000000 0.044526 0.000000
# 6 0.000000 0.000000 0.000000 0.000000 0.000000 0.099318
#
#
# Mechanical properties :
#
#
# Convention : Reuss Voigt Hill
#
# Bulk Modulus (GPa) = 17.61440 29.43081 23.52260
# Shear Modulus (GPa) = 17.38927 21.61388 19.50157
#
# Velocity S-wave (km/s) = 3.10257 3.45897 3.28561
# Velocity P-wave (km/s) = 4.75239 5.67841 5.23591
#
# Compressibility (1/GPa) = 0.05677174
#
# Stress axis : x y z
#
# Youngs Moduli (GPa) = 35.14812 35.14873 86.18321
#
# Poissons Ratio (x) = -0.27305 0.58756
# Poissons Ratio (y) = -0.27304 0.58753
# Poissons Ratio (z) = 0.23963 0.23962
#
# Static dielectric constant tensor:
#      x y z
#    x 3.046820 0.000000 0.000000 
#    y 0.000000 3.046820 0.000000 
#    z 0.000000 0.000000 3.409500 
# 
# 
# High freq. dielectric constant tensor:
#      x y z
#    x 1.673790 0.000000 0.000000 
#    y 0.000000 1.673790 0.000000 
#    z 0.000000 0.000000 1.722500 
# 
# From -- ./inp_files/1031.got.cif
#   From: 2010.03.12/outbox.cif.g09.slc.cpg/sg128_1_cif.got.tgz:1031.got - 2010.04.06 17:11:05.
