data_PCOD8314203
_publ_section_title
;
Structure prediction by ZEFSAII (Michael W. Deem and Ramdas Pophale) SiO2 
 PCOD8314203
Probable space group: P 4/M B M
;
_chemical_formula_sum "Si O2"
_cell_formula_units_Z 96
_cell_length_a 24.133296
_cell_length_b 24.133296
_cell_length_c 9.438690
_cell_angle_alpha 90.000000
_cell_angle_beta 90.000000
_cell_angle_gamma 90.000000
_cell_volume 5497.243847
_symmetry_space_group_name_H-M "P 4/M B M"
_symmetry_group_IT_number 127
_symmetry_cell_setting 'tetragonal'
loop_
_space_group_symop_operation_xyz
x,y,z
-y,x,z
-x,-y,z
y,-x,z
1/2+x,1/2-y,-z
1/2-x,1/2+y,-z
1/2+y,1/2+x,-z
1/2-y,1/2-x,-z
-x,-y,-z
y,-x,-z
x,y,-z
-y,x,-z
1/2-x,1/2+y,z
1/2+x,1/2-y,z
1/2-y,1/2-x,z
1/2+y,1/2+x,z
loop_
_atom_site_type_symbol
_atom_site_label
_atom_site_fract_x
_atom_site_fract_y
_atom_site_fract_z
Si Si1 0.273866 0.860721 0.167798
Si Si2 0.942544 0.350850 0.338884
Si Si3 0.134221 0.724314 0.164966
Si Si4 0.561679 0.562918 0.168481
Si Si5 0.651186 0.650031 0.831654
Si Si6 0.359561 0.951418 0.840178
O O1 0.307573 0.807573 0.229864
O O2 0.211885 0.864720 0.230551
O O3 0.305319 0.917198 0.207064
O O4 0.271478 0.853416 0.000000
O O5 0.951861 0.331884 0.500000
O O6 0.904003 0.404003 0.329412
O O7 0.916476 0.300115 0.253142
O O8 0.999966 0.368502 0.270096
O O9 0.191506 0.691506 0.196793
O O10 0.138889 0.787420 0.215680
O O11 0.119166 0.720035 0.000000
O O12 0.499237 0.577715 0.220079
O O13 0.605361 0.607551 0.231834
O O14 0.563355 0.564933 0.000000
O O15 0.651400 0.645285 0.000000
O O16 0.413103 0.913103 0.833435
O O17 0.352114 0.974535 0.000000
#
# Coordination Sequence:
#
# PCOD8314203 Si02
#       6
#    16  16  16  16  16  16
#     4   8  14  25  41  64  94 121 146 184 233 278
#     4  10  21  35  49  66  92 127 162 196 237 283
#     4   9  17  29  46  69  94 117 147 191 236 275
#     4   8  14  23  32  48  82 121 149 177 216 260
#     4   9  15  23  41  67  91 120 155 185 220 273
#     4   9  18  32  50  72  97 125 157 196 241 284
#
# _framework density 17.463297000000001
#
# number of rings (size 3 to 8) (size 9 to 14) (size 15 to 20)
#    0.000    3.167    0.000    2.500    0.000    5.000 
#    0.000    6.667    0.000    1.000    0.000    2.333 
#    0.000    0.000    0.000    3.500    0.000    3.333 
#
# Total GULP energy -1189948.049021 kJ/mol
# GULP energy per Si atom -12395.292177 kJ/mol
# Density = 1.742355 g / cm^3
# Si number density = 17.463297 Si / 1000 Ang^3
#
#
#
# Elastic Constant Matrix: (Units=GPa)
#
#
# Indices 1 2 3 4 5 6 
#
# 1 99.0822 59.9618 31.8661 0.0000 0.0000 0.0000
# 2 59.9618 99.0822 31.8661 0.0000 0.0000 0.0000
# 3 31.8661 31.8661 43.4455 0.0000 0.0000 0.0000
# 4 0.0000 0.0000 0.0000 5.4875 0.0000 0.0000
# 5 0.0000 0.0000 0.0000 0.0000 5.4875 0.0000
# 6 0.0000 0.0000 0.0000 0.0000 0.0000 19.6464
#
#
#
# Elastic Compliance Matrix: (Units=1/GPa)
#
#
# Indices 1 2 3 4 5 6 
#
# 1 0.017233 -0.008329 -0.006531 0.000000 0.000000 0.000000
# 2 -0.008329 0.017233 -0.006531 0.000000 0.000000 0.000000
# 3 -0.006531 -0.006531 0.032599 0.000000 0.000000 0.000000
# 4 0.000000 0.000000 0.000000 0.182232 0.000000 0.000000
# 5 0.000000 0.000000 0.000000 0.000000 0.182232 0.000000
# 6 0.000000 0.000000 0.000000 0.000000 0.000000 0.050900
#
#
# Mechanical properties :
#
#
# Convention : Reuss Voigt Hill
#
# Bulk Modulus (GPa) = 41.18193 54.33311 47.75752
# Shear Modulus (GPa) = 9.37545 13.98533 11.68039
#
# Velocity S-wave (km/s) = 2.31955 2.83298 2.58903
# Velocity P-wave (km/s) = 5.55040 6.47158 6.02861
#
# Compressibility (1/GPa) = 0.02428249
#
# Stress axis : x y z
#
# Youngs Moduli (GPa) = 58.02662 58.02662 30.67605
#
# Poissons Ratio (x) = 0.48328 0.20036
# Poissons Ratio (y) = 0.48328 0.20036
# Poissons Ratio (z) = 0.37900 0.37900
#
# Static dielectric constant tensor:
#      x y z
#    x 3.453380 0.000000 0.000000 
#    y 0.000000 3.453380 0.000000 
#    z 0.000000 0.000000 2.772800 
# 
# 
# High freq. dielectric constant tensor:
#      x y z
#    x 1.680670 0.000000 0.000000 
#    y 0.000000 1.680670 0.000000 
#    z 0.000000 0.000000 1.612190 
# 
# From -- ./inp_files/1998.got.cif
#   From: 2010.03.12/outbox.cif.g09.slc.cpg/sg127_1_cif.got.tgz:1998.got - 2010.04.06 17:03:15.
