data_PCOD8314348
_publ_section_title
;
Structure prediction by ZEFSAII (Michael W. Deem and Ramdas Pophale) SiO2 
 PCOD8314348
Probable space group: P 4/M B M
;
_chemical_formula_sum "Si O2"
_cell_formula_units_Z 72
_cell_length_a 19.222998
_cell_length_b 19.222998
_cell_length_c 8.862205
_cell_angle_alpha 90.000000
_cell_angle_beta 90.000000
_cell_angle_gamma 90.000000
_cell_volume 3274.794357
_symmetry_space_group_name_H-M "P 4/M B M"
_symmetry_group_IT_number 127
_symmetry_cell_setting 'tetragonal'
loop_
_space_group_symop_operation_xyz
x,y,z
-y,x,z
-x,-y,z
y,-x,z
1/2+x,1/2-y,-z
1/2-x,1/2+y,-z
1/2+y,1/2+x,-z
1/2-y,1/2-x,-z
-x,-y,-z
y,-x,-z
x,y,-z
-y,x,-z
1/2-x,1/2+y,z
1/2+x,1/2-y,z
1/2-y,1/2-x,z
1/2+y,1/2+x,z
loop_
_atom_site_type_symbol
_atom_site_label
_atom_site_fract_x
_atom_site_fract_y
_atom_site_fract_z
Si Si1 0.557361 0.057361 0.666948
Si Si2 0.794645 0.130919 0.673616
Si Si3 0.259863 0.128279 0.825665
Si Si4 0.952164 0.897466 0.835075
Si Si5 0.803524 0.525260 0.178638
O O1 0.582082 0.082082 0.500000
O O2 0.521843 0.119478 0.758069
O O3 0.500000 0.000000 0.647640
O O4 0.775770 0.142779 0.500000
O O5 0.825682 0.202225 0.739307
O O6 0.851531 0.070560 0.694652
O O7 0.728480 0.098062 0.759215
O O8 0.334547 0.165454 0.799668
O O9 0.264268 0.047131 0.771591
O O10 0.238334 0.129926 0.000000
O O11 0.908786 0.967040 0.822590
O O12 0.936440 0.862631 0.000000
O O13 0.805786 0.529126 0.000000
#
# Coordination Sequence:
#
# PCOD8314348 Si02
#       5
#     8  16  16  16  16
#     4  11  25  45  71 103 139 173 213 274 345 412
#     4  12  25  38  58  91 132 171 211 265 333 402
#     4  10  23  44  69  95 126 169 226 282 337 403
#     4   9  18  34  56  81 113 158 212 264 313 374
#     4  11  24  44  71  99 131 176 229 283 333 398
#
# _framework density 21.986113
#
# number of rings (size 3 to 8) (size 9 to 14) (size 15 to 20)
#    0.000    1.444    0.000    5.667    1.556   10.222 
#    0.000    1.111    0.000    0.000    0.000    0.000 
#    0.000    0.000    0.000    0.000    0.000    0.000 
#
# Total GULP energy -892179.476296 kJ/mol
# GULP energy per Si atom -12391.381615 kJ/mol
# Density = 2.193607 g / cm^3
# Si number density = 21.986113 Si / 1000 Ang^3
#
#
#
# Elastic Constant Matrix: (Units=GPa)
#
#
# Indices 1 2 3 4 5 6 
#
# 1 60.3061 63.9242 48.8836 0.0000 0.0000 0.0000
# 2 63.9242 60.3061 48.8836 0.0000 0.0000 0.0000
# 3 48.8836 48.8836 114.0740 0.0000 0.0000 0.0000
# 4 0.0000 0.0000 0.0000 22.1107 0.0000 0.0000
# 5 0.0000 0.0000 0.0000 0.0000 22.1107 0.0000
# 6 0.0000 0.0000 0.0000 0.0000 0.0000 37.2712
#
#
#
# Elastic Compliance Matrix: (Units=1/GPa)
#
#
# Indices 1 2 3 4 5 6 
#
# 1 -0.132121 0.144267 -0.005205 0.000000 0.000000 0.000000
# 2 0.144267 -0.132121 -0.005205 0.000000 0.000000 0.000000
# 3 -0.005205 -0.005205 0.013227 0.000000 0.000000 0.000000
# 4 0.000000 0.000000 0.000000 0.045227 0.000000 0.000000
# 5 0.000000 0.000000 0.000000 0.000000 0.045227 0.000000
# 6 0.000000 0.000000 0.000000 0.000000 0.000000 0.026830
#
#
# Mechanical properties :
#
#
# Convention : Reuss Voigt Hill
#
# Bulk Modulus (GPa) = 59.88266 62.00766 60.94516
# Shear Modulus (GPa) = -12.63012 21.16483 4.26735
#
# Velocity S-wave (km/s) = -2.39939 3.10602 1.39468
# Velocity P-wave (km/s) = 4.42941 6.41307 5.51122
#
# Compressibility (1/GPa) = 0.01669932
#
# Stress axis : x y z
#
# Youngs Moduli (GPa) = -7.56881 -7.56881 75.60339
#
# Poissons Ratio (x) = 1.09193 0.39349
# Poissons Ratio (y) = 1.09193 0.39349
# Poissons Ratio (z) = -0.03939 -0.03939
#
# Static dielectric constant tensor:
#      x y z
#    x 4.140370 0.000000 0.000000 
#    y 0.000000 4.140370 0.000000 
#    z 0.000000 0.000000 3.915020 
# 
# 
# High freq. dielectric constant tensor:
#      x y z
#    x 1.876280 0.000000 0.000000 
#    y 0.000000 1.876280 0.000000 
#    z 0.000000 0.000000 1.849300 
# 
# From -- ./inp_files/1585.got.cif
#   From: 2010.03.12/outbox.cif.g09.slc.cpg/sg127_1_cif.got.tgz:1585.got - 2010.04.06 17:03:15.
