data_PCOD8314124
_publ_section_title
;
Structure prediction by ZEFSAII (Michael W. Deem and Ramdas Pophale) SiO2 
 PCOD8314124
Probable space group: P 4/M B M
;
_chemical_formula_sum "Si O2"
_cell_formula_units_Z 96
_cell_length_a 15.845262
_cell_length_b 15.845262
_cell_length_c 22.511151
_cell_angle_alpha 90.000000
_cell_angle_beta 90.000000
_cell_angle_gamma 90.000000
_cell_volume 5651.927084
_symmetry_space_group_name_H-M "P 4/M B M"
_symmetry_group_IT_number 127
_symmetry_cell_setting 'tetragonal'
loop_
_space_group_symop_operation_xyz
x,y,z
-y,x,z
-x,-y,z
y,-x,z
1/2+x,1/2-y,-z
1/2-x,1/2+y,-z
1/2+y,1/2+x,-z
1/2-y,1/2-x,-z
-x,-y,-z
y,-x,-z
x,y,-z
-y,x,-z
1/2-x,1/2+y,z
1/2+x,1/2-y,z
1/2-y,1/2-x,z
1/2+y,1/2+x,z
loop_
_atom_site_type_symbol
_atom_site_label
_atom_site_fract_x
_atom_site_fract_y
_atom_site_fract_z
Si Si1 0.137040 0.503107 0.000000
Si Si2 0.464224 0.634404 0.437481
Si Si3 0.822588 0.459722 0.874714
Si Si4 0.536239 0.363516 0.307763
Si Si5 0.268008 0.904360 0.212268
Si Si6 0.894812 0.091330 0.000000
Si Si7 0.177380 0.812578 0.110500
O O1 0.191109 0.494865 0.939342
O O2 0.096941 0.596941 0.000000
O O3 0.067322 0.432679 0.000000
O O4 0.399078 0.558491 0.438592
O O5 0.450097 0.687474 0.500000
O O6 0.452276 0.679313 0.373630
O O7 0.912647 0.412647 0.873616
O O8 0.824655 0.526111 0.821215
O O9 0.745486 0.397119 0.864997
O O10 0.601595 0.441039 0.298293
O O11 0.554497 0.285216 0.265069
O O12 0.330034 0.830034 0.235701
O O13 0.200348 0.870240 0.165802
O O14 0.850392 0.128135 0.057522
O O15 0.991817 0.117704 0.000000
O O16 0.256095 0.756095 0.088535
#
# Coordination Sequence:
#
# PCOD8314124 Si02
#       7
#     8  16  16  16  16   8  16
#     4   9  17  30  48  66  80 100 139 189 232 267
#     4   7  10  19  39  68  96 119 149 190 228 260
#     4  10  20  35  53  69  89 118 152 192 237 285
#     4   9  17  30  49  71  96 127 159 189 225 275
#     4  11  22  33  47  68  95 124 155 194 234 276
#     4  11  22  34  50  70  91 114 142 180 226 285
#     4  10  21  36  51  66  87 116 150 190 235 277
#
# _framework density 16.985355999999999
#
# number of rings (size 3 to 8) (size 9 to 14) (size 15 to 20)
#    0.000    2.500    0.000    4.750    0.000    3.000 
#    0.000    2.500    0.000    0.500    0.000    0.000 
#    0.000    2.000    0.000    1.500    0.000    0.000 
#
# Total GULP energy -1189407.637953 kJ/mol
# GULP energy per Si atom -12389.662895 kJ/mol
# Density = 1.694670 g / cm^3
# Si number density = 16.985356 Si / 1000 Ang^3
#
#
#
# Elastic Constant Matrix: (Units=GPa)
#
#
# Indices 1 2 3 4 5 6 
#
# 1 51.1325 19.8431 45.0477 0.0000 0.0000 0.0000
# 2 19.8431 51.1311 45.0479 0.0000 0.0000 0.0000
# 3 45.0477 45.0479 143.5370 0.0000 0.0000 0.0000
# 4 0.0000 0.0000 0.0000 12.7619 0.0000 0.0000
# 5 0.0000 0.0000 0.0000 0.0000 12.7641 0.0000
# 6 0.0000 0.0000 0.0000 0.0000 0.0000 23.1340
#
#
#
# Elastic Compliance Matrix: (Units=1/GPa)
#
#
# Indices 1 2 3 4 5 6 
#
# 1 0.027689 -0.004270 -0.007350 0.000000 0.000000 0.000000
# 2 -0.004270 0.027691 -0.007350 0.000000 0.000000 0.000000
# 3 -0.007350 -0.007350 0.011580 0.000000 0.000000 0.000000
# 4 0.000000 0.000000 0.000000 0.078358 0.000000 0.000000
# 5 0.000000 0.000000 0.000000 0.000000 0.078345 0.000000
# 6 0.000000 0.000000 0.000000 0.000000 0.000000 0.043226
#
#
# Mechanical properties :
#
#
# Convention : Reuss Voigt Hill
#
# Bulk Modulus (GPa) = 34.45966 51.74200 43.10083
# Shear Modulus (GPa) = 15.89806 18.78947 17.34377
#
# Velocity S-wave (km/s) = 3.06271 3.32959 3.19893
# Velocity P-wave (km/s) = 5.73052 6.73130 6.25097
#
# Compressibility (1/GPa) = 0.02901944
#
# Stress axis : x y z
#
# Youngs Moduli (GPa) = 36.11485 36.11331 86.35334
#
# Poissons Ratio (x) = 0.15422 0.63468
# Poissons Ratio (y) = 0.15422 0.63472
# Poissons Ratio (z) = 0.26544 0.26544
#
# Static dielectric constant tensor:
#      x y z
#    x 3.048810 0.000000 0.000000 
#    y 0.000000 3.048810 0.000000 
#    z 0.000000 0.000000 3.518250 
# 
# 
# High freq. dielectric constant tensor:
#      x y z
#    x 1.636570 0.000000 0.000000 
#    y 0.000000 1.636570 0.000000 
#    z 0.000000 0.000000 1.653730 
# 
# From -- ./inp_files/6109.got.cif
#   From: 2010.03.12/outbox.cif.g09.slc.cpg/sg127_4_cif.got.tgz:6109.got - 2010.04.06 17:03:15.
