data_PCOD8314372
_publ_section_title
;
Structure prediction by ZEFSAII (Michael W. Deem and Ramdas Pophale) SiO2 
 PCOD8314372
Probable space group: P 4/M B M
;
_chemical_formula_sum "Si O2"
_cell_formula_units_Z 104
_cell_length_a 26.479780
_cell_length_b 26.479780
_cell_length_c 8.788914
_cell_angle_alpha 90.000000
_cell_angle_beta 90.000000
_cell_angle_gamma 90.000000
_cell_volume 6162.599722
_symmetry_space_group_name_H-M "P 4/M B M"
_symmetry_group_IT_number 127
_symmetry_cell_setting 'tetragonal'
loop_
_space_group_symop_operation_xyz
x,y,z
-y,x,z
-x,-y,z
y,-x,z
1/2+x,1/2-y,-z
1/2-x,1/2+y,-z
1/2+y,1/2+x,-z
1/2-y,1/2-x,-z
-x,-y,-z
y,-x,-z
x,y,-z
-y,x,-z
1/2-x,1/2+y,z
1/2+x,1/2-y,z
1/2-y,1/2-x,z
1/2+y,1/2+x,z
loop_
_atom_site_type_symbol
_atom_site_label
_atom_site_fract_x
_atom_site_fract_y
_atom_site_fract_z
Si Si1 0.749052 0.465953 0.327960
Si Si2 0.588227 0.169779 0.324423
Si Si3 0.222587 0.917010 0.332865
Si Si4 0.541849 0.958152 0.680917
Si Si5 0.430009 0.625656 0.177020
Si Si6 0.041875 0.854354 0.181654
Si Si7 0.484835 0.149537 0.178402
O O1 0.751729 0.445183 0.500000
O O2 0.740777 0.525433 0.323666
O O3 0.700540 0.441303 0.243983
O O4 0.802369 0.453229 0.244932
O O5 0.569123 0.164361 0.500000
O O6 0.631951 0.131951 0.283608
O O7 0.612723 0.225562 0.298299
O O8 0.543673 0.158560 0.207596
O O9 0.200839 0.904544 0.500000
O O10 0.179186 0.903267 0.212666
O O11 0.543007 0.956994 0.500000
O O12 0.597273 0.970852 0.741451
O O13 0.500000 0.000000 0.735105
O O14 0.486887 0.627852 0.244434
O O15 0.396531 0.580493 0.246187
O O16 0.433058 0.616913 0.000000
O O17 0.041831 0.850971 0.000000
O O18 0.473639 0.145498 0.000000
#
# Coordination Sequence:
#
# PCOD8314372 Si02
#       7
#    16  16  16   8  16  16  16
#     4   9  17  31  49  67  88 119 158 196 232 273
#     4   9  17  30  47  67  92 123 156 191 235 284
#     4   8  15  27  43  63  87 115 150 190 230 275
#     4  11  23  37  51  69  99 137 167 193 231 281
#     4   9  17  28  43  64  93 125 156 192 236 284
#     4   9  17  29  45  68  95 124 157 195 238 285
#     4  11  21  32  48  71  98 125 157 197 237 277
#
# _framework density 16.875995
#
# number of rings (size 3 to 8) (size 9 to 14) (size 15 to 20)
#    0.000    2.692    0.000    3.462    0.000    7.385 
#    0.000    1.538    0.000    0.000    2.000    4.308 
#    0.000    0.000    0.000    0.000    0.000    0.000 
#
# Total GULP energy -1288709.426354 kJ/mol
# GULP energy per Si atom -12391.436792 kJ/mol
# Density = 1.683758 g / cm^3
# Si number density = 16.875995 Si / 1000 Ang^3
#
#
#
# Elastic Constant Matrix: (Units=GPa)
#
#
# Indices 1 2 3 4 5 6 
#
# 1 93.3717 52.0832 30.4446 0.0000 0.0000 0.0000
# 2 52.0832 93.3714 30.4444 0.0000 0.0000 0.0000
# 3 30.4446 30.4444 61.4709 0.0000 0.0000 0.0000
# 4 0.0000 0.0000 0.0000 23.1413 0.0000 0.0000
# 5 0.0000 0.0000 0.0000 0.0000 23.1414 0.0000
# 6 0.0000 0.0000 0.0000 0.0000 0.0000 12.4500
#
#
#
# Elastic Compliance Matrix: (Units=1/GPa)
#
#
# Indices 1 2 3 4 5 6 
#
# 1 0.016447 -0.007773 -0.004296 0.000000 0.000000 0.000000
# 2 -0.007773 0.016447 -0.004295 0.000000 0.000000 0.000000
# 3 -0.004296 -0.004295 0.020523 0.000000 0.000000 0.000000
# 4 0.000000 0.000000 0.000000 0.043213 0.000000 0.000000
# 5 0.000000 0.000000 0.000000 0.000000 0.043213 0.000000
# 6 0.000000 0.000000 0.000000 0.000000 0.000000 0.080321
#
#
# Mechanical properties :
#
#
# Convention : Reuss Voigt Hill
#
# Bulk Modulus (GPa) = 48.33973 52.68428 50.51200
# Shear Modulus (GPa) = 19.24657 20.76267 20.00462
#
# Velocity S-wave (km/s) = 3.38075 3.51138 3.44668
# Velocity P-wave (km/s) = 6.62914 6.90840 6.77021
#
# Compressibility (1/GPa) = 0.02068692
#
# Stress axis : x y z
#
# Youngs Moduli (GPa) = 60.80316 60.80312 48.72648
#
# Poissons Ratio (x) = 0.47265 0.20931
# Poissons Ratio (y) = 0.47265 0.20930
# Poissons Ratio (z) = 0.26118 0.26118
#
# Static dielectric constant tensor:
#      x y z
#    x 3.301030 0.000000 0.000000 
#    y 0.000000 3.301030 0.000000 
#    z 0.000000 0.000000 3.131840 
# 
# 
# High freq. dielectric constant tensor:
#      x y z
#    x 1.633270 0.000000 0.000000 
#    y 0.000000 1.633270 0.000000 
#    z 0.000000 0.000000 1.647860 
# 
# From -- ./inp_files/2296.got.cif
#   From: 2010.03.12/outbox.cif.g09.slc.cpg/sg127_2_cif.got.tgz:2296.got - 2010.04.06 17:03:15.
