data_PCOD8314986
_publ_section_title
;
Structure prediction by ZEFSAII (Michael W. Deem and Ramdas Pophale) SiO2 
 PCOD8314986
Probable space group: P 4/N M M
;
_chemical_formula_sum "Si O2"
_cell_formula_units_Z 96
_cell_length_a 21.452025
_cell_length_b 21.452025
_cell_length_c 12.550094
_cell_angle_alpha 90.000000
_cell_angle_beta 90.000000
_cell_angle_gamma 90.000000
_cell_volume 5775.419934
_symmetry_space_group_name_H-M "P 4/N M M"
_symmetry_group_IT_number 129
_symmetry_cell_setting 'tetragonal'
loop_
_space_group_symop_operation_xyz
x,y,z
1/2-y,x,z
1/2-x,1/2-y,z
y,1/2-x,z
1/2+x,-y,-z
-x,1/2+y,-z
1/2+y,1/2+x,-z
-y,-x,-z
-x,-y,-z
1/2+y,-x,-z
1/2+x,1/2+y,-z
-y,1/2+x,-z
1/2-x,y,z
x,1/2-y,z
1/2-y,1/2-x,z
y,x,z
loop_
_atom_site_type_symbol
_atom_site_label
_atom_site_fract_x
_atom_site_fract_y
_atom_site_fract_z
Si Si1 0.907679 0.011766 0.862376
Si Si2 0.151080 0.680490 0.381010
Si Si3 0.424614 0.177050 0.729952
Si Si4 0.820674 0.047727 0.678206
Si Si5 0.484694 0.678294 0.448615
Si Si6 0.005735 0.390557 0.902600
O O1 0.857426 0.012287 0.769705
O O2 0.940594 0.079510 0.864254
O O3 0.957006 0.957006 0.841015
O O4 0.871072 0.999817 0.973564
O O5 0.178199 0.678199 0.500000
O O6 0.167239 0.750000 0.334569
O O7 0.179187 0.623589 0.312200
O O8 0.077183 0.669717 0.379185
O O9 0.408666 0.250000 0.724037
O O10 0.360340 0.139661 0.744899
O O11 0.457875 0.151871 0.621363
O O12 0.472295 0.166913 0.829072
O O13 0.750000 0.025032 0.688066
O O14 0.852062 0.025073 0.565788
O O15 0.497747 0.750000 0.470240
O O16 0.055741 0.444260 0.889574
#
# Coordination Sequence:
#
# PCOD8314986 Si02
#       6
#    16  16  16  16  16  16
#     4   9  17  31  49  66  88 118 149 183 225 271
#     4   9  16  27  43  62  89 125 157 182 215 263
#     4  10  19  31  48  68  92 122 154 191 236 282
#     4  10  19  28  42  69  97 117 147 189 226 267
#     4   8  16  29  42  61  89 117 147 182 217 257
#     4   8  16  31  49  67  85 110 149 191 226 266
#
# _framework density 16.622167999999999
#
# number of rings (size 3 to 8) (size 9 to 14) (size 15 to 20)
#    0.000    3.000    0.000    3.500    0.000    2.667 
#    0.000    0.000    0.000    7.000    0.000    0.000 
#    0.000    0.333    0.000    0.333    0.000    0.000 
#
# Total GULP energy -1189422.378759 kJ/mol
# GULP energy per Si atom -12389.816445 kJ/mol
# Density = 1.658434 g / cm^3
# Si number density = 16.622168 Si / 1000 Ang^3
#
#
#
# Elastic Constant Matrix: (Units=GPa)
#
#
# Indices 1 2 3 4 5 6 
#
# 1 67.8303 29.1700 42.0368 0.0000 0.0000 0.0000
# 2 29.1700 67.8303 42.0368 0.0000 0.0000 0.0000
# 3 42.0368 42.0368 99.3316 0.0000 0.0000 0.0000
# 4 0.0000 0.0000 0.0000 23.3651 0.0000 0.0000
# 5 0.0000 0.0000 0.0000 0.0000 23.3651 0.0000
# 6 0.0000 0.0000 0.0000 0.0000 0.0000 18.0320
#
#
#
# Elastic Compliance Matrix: (Units=1/GPa)
#
#
# Indices 1 2 3 4 5 6 
#
# 1 0.021074 -0.004793 -0.006890 0.000000 0.000000 0.000000
# 2 -0.004793 0.021074 -0.006890 0.000000 0.000000 0.000000
# 3 -0.006890 -0.006890 0.015899 0.000000 0.000000 0.000000
# 4 0.000000 0.000000 0.000000 0.042799 0.000000 0.000000
# 5 0.000000 0.000000 0.000000 0.000000 0.042799 0.000000
# 6 0.000000 0.000000 0.000000 0.000000 0.000000 0.055457
#
#
# Mechanical properties :
#
#
# Convention : Reuss Voigt Hill
#
# Bulk Modulus (GPa) = 47.84496 51.27551 49.56023
# Shear Modulus (GPa) = 20.55803 21.06901 20.81352
#
# Velocity S-wave (km/s) = 3.52061 3.56409 3.54242
# Velocity P-wave (km/s) = 6.73592 6.91749 6.82731
#
# Compressibility (1/GPa) = 0.02090084
#
# Stress axis : x y z
#
# Youngs Moduli (GPa) = 47.45238 47.45238 62.89678
#
# Poissons Ratio (x) = 0.22742 0.43337
# Poissons Ratio (y) = 0.22742 0.43337
# Poissons Ratio (z) = 0.32695 0.32695
#
# Static dielectric constant tensor:
#      x y z
#    x 2.998740 0.000000 0.000000 
#    y 0.000000 2.998740 0.000000 
#    z 0.000000 0.000000 3.272980 
# 
# 
# High freq. dielectric constant tensor:
#      x y z
#    x 1.622080 0.000000 0.000000 
#    y 0.000000 1.622080 0.000000 
#    z 0.000000 0.000000 1.628500 
# 
# From -- ./inp_files/3825.got.cif
#   From: 2010.03.12/outbox.cif.g09.slc.cpg/sg129_2_cif.got.tgz:3825.got - 2010.04.06 17:19:44.
