data_PCOD8314823
_publ_section_title
;
Structure prediction by ZEFSAII (Michael W. Deem and Ramdas Pophale) SiO2 
 PCOD8314823
Probable space group: P 4/M N C
;
_chemical_formula_sum "Si O2"
_cell_formula_units_Z 96
_cell_length_a 23.586646
_cell_length_b 23.586646
_cell_length_c 8.599206
_cell_angle_alpha 90.000000
_cell_angle_beta 90.000000
_cell_angle_gamma 90.000000
_cell_volume 4783.995152
_symmetry_space_group_name_H-M "P 4/M N C"
_symmetry_group_IT_number 128
_symmetry_cell_setting 'tetragonal'
loop_
_space_group_symop_operation_xyz
x,y,z
-y,x,z
-x,-y,z
y,-x,z
1/2+x,1/2-y,1/2-z
1/2-x,1/2+y,1/2-z
1/2+y,1/2+x,1/2-z
1/2-y,1/2-x,1/2-z
-x,-y,-z
y,-x,-z
x,y,-z
-y,x,-z
1/2-x,1/2+y,1/2+z
1/2+x,1/2-y,1/2+z
1/2-y,1/2-x,1/2+z
1/2+y,1/2+x,1/2+z
loop_
_atom_site_type_symbol
_atom_site_label
_atom_site_fract_x
_atom_site_fract_y
_atom_site_fract_z
Si Si1 0.777888 0.363699 0.815883
Si Si2 0.391216 0.810877 0.681827
Si Si3 0.988899 0.263330 0.181699
Si Si4 0.162636 0.201707 0.683072
Si Si5 0.901209 0.894559 0.823729
Si Si6 0.146594 0.002359 0.322725
O O1 0.833534 0.333534 0.750000
O O2 0.780132 0.427127 0.745546
O O3 0.723799 0.324721 0.767316
O O4 0.781056 0.369659 0.000000
O O5 0.371886 0.871886 0.750000
O O6 0.378532 0.805295 0.500000
O O7 0.459465 0.807484 0.711988
O O8 0.349292 0.766304 0.769588
O O9 0.012375 0.209777 0.274715
O O10 0.982372 0.249225 0.000000
O O11 0.152959 0.193509 0.500000
O O12 0.115655 0.169396 0.784996
O O13 0.863291 0.931720 0.708417
O O14 0.967772 0.898926 0.781898
O O15 0.889492 0.912041 0.000000
O O16 0.136364 0.986300 0.500000
#
# Coordination Sequence:
#
# PCOD8314823 Si02
#       6
#    16  16  16  16  16  16
#     4  11  24  40  62  92 126 163 205 251 306 363
#     4  11  24  40  62  92 126 163 205 251 306 363
#     4  11  23  40  63  90 122 161 203 247 302 366
#     4  11  22  37  60  91 126 162 203 250 304 361
#     4  12  24  39  60  86 119 160 208 258 307 357
#     4  12  24  40  61  86 118 160 210 256 304 360
#
# _framework density 20.066908999999999
#
# number of rings (size 3 to 8) (size 9 to 14) (size 15 to 20)
#    0.000    0.667    3.333    5.500    0.000    5.667 
#    0.000    1.667    0.000    0.500    0.000    3.500 
#    0.000    0.000    0.000    0.000    0.000    0.000 
#
# Total GULP energy -1189989.373704 kJ/mol
# GULP energy per Si atom -12395.722643 kJ/mol
# Density = 2.002124 g / cm^3
# Si number density = 20.066909 Si / 1000 Ang^3
#
#
#
# Elastic Constant Matrix: (Units=GPa)
#
#
# Indices 1 2 3 4 5 6 
#
# 1 87.4127 45.3633 38.4300 0.0000 0.0000 0.0000
# 2 45.3633 87.4127 38.4300 0.0000 0.0000 0.0000
# 3 38.4300 38.4300 114.0503 0.0000 0.0000 0.0000
# 4 0.0000 0.0000 0.0000 26.9734 0.0000 0.0000
# 5 0.0000 0.0000 0.0000 0.0000 26.9734 0.0000
# 6 0.0000 0.0000 0.0000 0.0000 0.0000 31.2784
#
#
#
# Elastic Compliance Matrix: (Units=1/GPa)
#
#
# Indices 1 2 3 4 5 6 
#
# 1 0.016569 -0.007213 -0.003153 0.000000 0.000000 0.000000
# 2 -0.007213 0.016569 -0.003153 0.000000 0.000000 0.000000
# 3 -0.003153 -0.003153 0.010893 0.000000 0.000000 0.000000
# 4 0.000000 0.000000 0.000000 0.037074 0.000000 0.000000
# 5 0.000000 0.000000 0.000000 0.000000 0.037074 0.000000
# 6 0.000000 0.000000 0.000000 0.000000 0.000000 0.031971
#
#
# Mechanical properties :
#
#
# Convention : Reuss Voigt Hill
#
# Bulk Modulus (GPa) = 58.84155 59.25805 59.04980
# Shear Modulus (GPa) = 27.34486 28.15520 27.75003
#
# Velocity S-wave (km/s) = 3.69546 3.74982 3.72274
# Velocity P-wave (km/s) = 6.89891 6.95288 6.92594
#
# Compressibility (1/GPa) = 0.01699479
#
# Stress axis : x y z
#
# Youngs Moduli (GPa) = 60.35363 60.35363 91.80433
#
# Poissons Ratio (x) = 0.43530 0.28943
# Poissons Ratio (y) = 0.43530 0.28943
# Poissons Ratio (z) = 0.19028 0.19028
#
# Static dielectric constant tensor:
#      x y z
#    x 3.637170 0.000000 0.000000 
#    y 0.000000 3.637170 0.000000 
#    z 0.000000 0.000000 3.646420 
# 
# 
# High freq. dielectric constant tensor:
#      x y z
#    x 1.774970 0.000000 0.000000 
#    y 0.000000 1.774970 0.000000 
#    z 0.000000 0.000000 1.796670 
# 
# From -- ./inp_files/1451.got.cif
#   From: 2010.03.12/outbox.cif.g09.slc.cpg/sg128_1_cif.got.tgz:1451.got - 2010.04.06 17:11:05.
