data_PCOD8314218
_publ_section_title
;
Structure prediction by ZEFSAII (Michael W. Deem and Ramdas Pophale) SiO2 
 PCOD8314218
Probable space group: P 4/M B M
;
_chemical_formula_sum "Si O2"
_cell_formula_units_Z 120
_cell_length_a 20.974338
_cell_length_b 20.974338
_cell_length_c 13.695454
_cell_angle_alpha 90.000000
_cell_angle_beta 90.000000
_cell_angle_gamma 90.000000
_cell_volume 6024.943218
_symmetry_space_group_name_H-M "P 4/M B M"
_symmetry_group_IT_number 127
_symmetry_cell_setting 'tetragonal'
loop_
_space_group_symop_operation_xyz
x,y,z
-y,x,z
-x,-y,z
y,-x,z
1/2+x,1/2-y,-z
1/2-x,1/2+y,-z
1/2+y,1/2+x,-z
1/2-y,1/2-x,-z
-x,-y,-z
y,-x,-z
x,y,-z
-y,x,-z
1/2-x,1/2+y,z
1/2+x,1/2-y,z
1/2-y,1/2-x,z
1/2+y,1/2+x,z
loop_
_atom_site_type_symbol
_atom_site_label
_atom_site_fract_x
_atom_site_fract_y
_atom_site_fract_z
Si Si1 0.597844 0.656857 0.615019
Si Si2 0.977171 0.687045 0.718922
Si Si3 0.218003 0.387190 0.108878
Si Si4 0.682596 0.345295 0.114934
Si Si5 0.446595 0.946595 0.383771
Si Si6 0.222351 0.621570 0.268393
Si Si7 0.946452 0.084238 0.116237
Si Si8 0.542317 0.316858 0.615800
O O1 0.602619 0.656266 0.500000
O O2 0.627317 0.723213 0.650226
O O3 0.638243 0.598078 0.658966
O O4 0.524396 0.651319 0.649522
O O5 0.939990 0.687690 0.821234
O O6 0.967527 0.620784 0.662206
O O7 0.950540 0.744746 0.653515
O O8 0.050678 0.696235 0.745462
O O9 0.173662 0.326339 0.105628
O O10 0.285965 0.361358 0.146613
O O11 0.224832 0.417068 0.000000
O O12 0.750694 0.348818 0.167395
O O13 0.645624 0.408345 0.154335
O O14 0.695381 0.344040 0.000000
O O15 0.438772 0.938772 0.500000
O O16 0.500000 0.000000 0.359296
O O17 0.163789 0.663789 0.305220
O O18 0.019140 0.087340 0.153502
O O19 0.943394 0.083813 0.000000
O O20 0.546123 0.313096 0.500000
#
# Coordination Sequence:
#
# PCOD8314218 Si02
#       8
#    16  16  16  16   8  16  16  16
#     4   9  19  37  59  83 115 152 192 239 290 355
#     4  11  22  40  63  88 121 155 196 255 308 368
#     4  10  21  38  60  86 116 157 203 245 295 355
#     4  10  21  35  57  84 118 158 201 244 286 343
#     4  11  24  44  71  99 121 149 196 258 333 398
#     4  11  24  39  57  83 116 154 196 241 301 364
#     4   8  15  29  49  75 109 147 188 236 285 330
#     4   9  18  34  58  88 120 155 195 238 295 359
#
# _framework density 19.917200000000001
#
# number of rings (size 3 to 8) (size 9 to 14) (size 15 to 20)
#    0.000    2.200    0.667    2.400    1.867    2.400 
#    1.200    1.333    0.000    1.600    0.000    0.000 
#    0.000    0.000    0.000    0.000    0.000    0.000 
#
# Total GULP energy -1487899.547564 kJ/mol
# GULP energy per Si atom -12399.162896 kJ/mol
# Density = 1.987187 g / cm^3
# Si number density = 19.917200 Si / 1000 Ang^3
#
#
#
# Elastic Constant Matrix: (Units=GPa)
#
#
# Indices 1 2 3 4 5 6 
#
# 1 105.9836 56.6358 36.2777 0.0000 0.0000 0.0000
# 2 56.6358 105.9836 36.2777 0.0000 0.0000 0.0000
# 3 36.2777 36.2777 56.3878 0.0000 0.0000 0.0000
# 4 0.0000 0.0000 0.0000 28.2296 0.0000 0.0000
# 5 0.0000 0.0000 0.0000 0.0000 28.2296 0.0000
# 6 0.0000 0.0000 0.0000 0.0000 0.0000 39.9426
#
#
#
# Elastic Compliance Matrix: (Units=1/GPa)
#
#
# Indices 1 2 3 4 5 6 
#
# 1 0.014445 -0.005820 -0.005549 0.000000 0.000000 0.000000
# 2 -0.005820 0.014445 -0.005549 0.000000 0.000000 0.000000
# 3 -0.005549 -0.005549 0.024874 0.000000 0.000000 0.000000
# 4 0.000000 0.000000 0.000000 0.035424 0.000000 0.000000
# 5 0.000000 0.000000 0.000000 0.000000 0.035424 0.000000
# 6 0.000000 0.000000 0.000000 0.000000 0.000000 0.025036
#
#
# Mechanical properties :
#
#
# Convention : Reuss Voigt Hill
#
# Bulk Modulus (GPa) = 50.17958 58.52638 54.35298
# Shear Modulus (GPa) = 26.29838 28.55795 27.42817
#
# Velocity S-wave (km/s) = 3.63765 3.79071 3.71497
# Velocity P-wave (km/s) = 6.54921 6.97194 6.76388
#
# Compressibility (1/GPa) = 0.01992842
#
# Stress axis : x y z
#
# Youngs Moduli (GPa) = 69.22944 69.22944 40.20190
#
# Poissons Ratio (x) = 0.40289 0.22308
# Poissons Ratio (y) = 0.40289 0.22308
# Poissons Ratio (z) = 0.38416 0.38416
#
# Static dielectric constant tensor:
#      x y z
#    x 3.725510 0.000000 0.000000 
#    y 0.000000 3.725510 0.000000 
#    z 0.000000 0.000000 3.544240 
# 
# 
# High freq. dielectric constant tensor:
#      x y z
#    x 1.778810 0.000000 0.000000 
#    y 0.000000 1.778810 0.000000 
#    z 0.000000 0.000000 1.779910 
# 
# From -- ./inp_files/4641.got.cif
#   From: 2010.03.12/outbox.cif.g09.slc.cpg/sg127_3_cif.got.tgz:4641.got - 2010.04.06 17:03:15.
