data_PCOD8314548
_publ_section_title
;
Structure prediction by ZEFSAII (Michael W. Deem and Ramdas Pophale) SiO2 
 PCOD8314548
Probable space group: P 4/M N C
;
_chemical_formula_sum "Si O2"
_cell_formula_units_Z 88
_cell_length_a 18.642748
_cell_length_b 18.642748
_cell_length_c 13.746141
_cell_angle_alpha 90.000000
_cell_angle_beta 90.000000
_cell_angle_gamma 90.000000
_cell_volume 4777.499525
_symmetry_space_group_name_H-M "P 4/M N C"
_symmetry_group_IT_number 128
_symmetry_cell_setting 'tetragonal'
loop_
_space_group_symop_operation_xyz
x,y,z
-y,x,z
-x,-y,z
y,-x,z
1/2+x,1/2-y,1/2-z
1/2-x,1/2+y,1/2-z
1/2+y,1/2+x,1/2-z
1/2-y,1/2-x,1/2-z
-x,-y,-z
y,-x,-z
x,y,-z
-y,x,-z
1/2-x,1/2+y,1/2+z
1/2+x,1/2-y,1/2+z
1/2-y,1/2-x,1/2+z
1/2+y,1/2+x,1/2+z
loop_
_atom_site_type_symbol
_atom_site_label
_atom_site_fract_x
_atom_site_fract_y
_atom_site_fract_z
Si Si1 0.923915 0.089202 0.390269
Si Si2 0.835579 0.664422 0.750000
Si Si3 0.940143 0.440908 0.389955
Si Si4 0.825955 0.495260 0.242236
Si Si5 0.233103 0.754348 0.884222
Si Si6 0.876117 0.216313 0.729332
O O1 0.903965 0.113412 0.500000
O O2 0.881497 0.136351 0.312444
O O3 0.008112 0.099432 0.373372
O O4 0.817772 0.580258 0.746908
O O5 0.798487 0.697361 0.846514
O O6 0.915449 0.433768 0.500000
O O7 0.869582 0.462040 0.331704
O O8 0.000000 0.500000 0.372140
O O9 0.975662 0.366462 0.357326
O O10 0.749405 0.455665 0.239237
O O11 0.161871 0.788307 0.835006
O O12 0.237677 0.672246 0.846547
O O13 0.227491 0.758696 0.000000
#
# Coordination Sequence:
#
# PCOD8314548 Si02
#       6
#    16   8  16  16  16  16
#     4   9  19  36  59  87 113 137 178 239 295 336
#     4  10  22  37  58  86 116 151 188 238 286 328
#     4  10  19  32  51  76 114 152 182 227 274 320
#     4  11  20  36  55  83 114 143 193 233 273 335
#     4  10  23  42  55  79 119 155 190 229 284 352
#     4  10  22  35  62  82 108 153 186 233 282 336
#
# _framework density 18.419678000000001
#
# number of rings (size 3 to 8) (size 9 to 14) (size 15 to 20)
#    0.000    2.182    1.818    3.818    5.091    5.091 
#    0.000    0.000    0.000    0.000    0.000    1.273 
#    0.000    0.000    0.000    0.000    0.000    0.000 
#
# Total GULP energy -1091055.477049 kJ/mol
# GULP energy per Si atom -12398.357694 kJ/mol
# Density = 1.837775 g / cm^3
# Si number density = 18.419678 Si / 1000 Ang^3
#
#
#
# Elastic Constant Matrix: (Units=GPa)
#
#
# Indices 1 2 3 4 5 6 
#
# 1 71.7932 30.3039 33.3852 0.0000 0.0000 0.0000
# 2 30.3039 71.7923 33.3852 0.0000 0.0000 0.0000
# 3 33.3852 33.3852 129.3468 0.0000 0.0000 0.0000
# 4 0.0000 0.0000 0.0000 -20.9903 0.0000 0.0000
# 5 0.0000 0.0000 0.0000 0.0000 -21.0033 0.0000
# 6 0.0000 0.0000 0.0000 0.0000 0.0000 32.7672
#
#
#
# Elastic Compliance Matrix: (Units=1/GPa)
#
#
# Indices 1 2 3 4 5 6 
#
# 1 0.017943 -0.006160 -0.003041 0.000000 0.000000 0.000000
# 2 -0.006160 0.017943 -0.003041 0.000000 0.000000 0.000000
# 3 -0.003041 -0.003041 0.009301 0.000000 0.000000 0.000000
# 4 0.000000 0.000000 0.000000 -0.047641 0.000000 0.000000
# 5 0.000000 0.000000 0.000000 0.000000 -0.047612 0.000000
# 6 0.000000 0.000000 0.000000 0.000000 0.000000 0.030518
#
#
# Mechanical properties :
#
#
# Convention : Reuss Voigt Hill
#
# Bulk Modulus (GPa) = 48.30257 51.89788 50.10023
# Shear Modulus (GPa) = 422.32657 9.87861 216.10259
#
# Velocity S-wave (km/s) = 15.15843 2.31834 10.84326
# Velocity P-wave (km/s) = 18.23872 5.95002 13.56564
#
# Compressibility (1/GPa) = 0.02070283
#
# Stress axis : x y z
#
# Youngs Moduli (GPa) = 55.73150 55.73072 107.51314
#
# Poissons Ratio (x) = 0.34328 0.32699
# Poissons Ratio (y) = 0.34328 0.32700
# Poissons Ratio (z) = 0.16950 0.16950
#
# Static dielectric constant tensor:
#      x y z
#    x 3.375240 0.000000 0.000000 
#    y 0.000000 3.375280 0.000000 
#    z 0.000000 0.000000 3.324200 
# 
# 
# High freq. dielectric constant tensor:
#      x y z
#    x 1.714080 0.000000 0.000000 
#    y 0.000000 1.714080 0.000000 
#    z 0.000000 0.000000 1.703850 
# 
# From -- ./inp_files/3854.got.cif
#   From: 2010.03.12/outbox.cif.g09.slc.cpg/sg128_2_cif.got.tgz:3854.got - 2010.04.06 17:11:05.
