data_PCOD8314603
_publ_section_title
;
Structure prediction by ZEFSAII (Michael W. Deem and Ramdas Pophale) SiO2 
 PCOD8314603
Probable space group: P 4/M N C
;
_chemical_formula_sum "Si O2"
_cell_formula_units_Z 96
_cell_length_a 24.169418
_cell_length_b 24.169418
_cell_length_c 8.883726
_cell_angle_alpha 90.000000
_cell_angle_beta 90.000000
_cell_angle_gamma 90.000000
_cell_volume 5189.524189
_symmetry_space_group_name_H-M "P 4/M N C"
_symmetry_group_IT_number 128
_symmetry_cell_setting 'tetragonal'
loop_
_space_group_symop_operation_xyz
x,y,z
-y,x,z
-x,-y,z
y,-x,z
1/2+x,1/2-y,1/2-z
1/2-x,1/2+y,1/2-z
1/2+y,1/2+x,1/2-z
1/2-y,1/2-x,1/2-z
-x,-y,-z
y,-x,-z
x,y,-z
-y,x,-z
1/2-x,1/2+y,1/2+z
1/2+x,1/2-y,1/2+z
1/2-y,1/2-x,1/2+z
1/2+y,1/2+x,1/2+z
loop_
_atom_site_type_symbol
_atom_site_label
_atom_site_fract_x
_atom_site_fract_y
_atom_site_fract_z
Si Si1 0.565754 0.853309 0.821062
Si Si2 0.439219 0.563298 0.678802
Si Si3 0.157108 0.856014 0.824242
Si Si4 0.941031 0.637035 0.323989
Si Si5 0.647529 0.227287 0.177004
Si Si6 0.351764 0.228278 0.676164
O O1 0.591452 0.908549 0.750000
O O2 0.502547 0.850107 0.768446
O O3 0.595719 0.799785 0.754029
O O4 0.572582 0.854236 0.000000
O O5 0.422448 0.501565 0.735197
O O6 0.437498 0.563720 0.500000
O O7 0.395662 0.608555 0.740844
O O8 0.212937 0.869566 0.736594
O O9 0.140938 0.792877 0.792973
O O10 0.167139 0.866980 0.000000
O O11 0.919541 0.580459 0.250000
O O12 0.939148 0.627742 0.500000
O O13 0.902780 0.687985 0.273719
O O14 0.704506 0.204506 0.250000
O O15 0.656830 0.229535 0.000000
O O16 0.295183 0.204818 0.750000
O O17 0.350658 0.214059 0.500000
#
# Coordination Sequence:
#
# PCOD8314603 Si02
#       6
#    16  16  16  16  16  16
#     4  10  20  35  53  74 101 133 170 210 251 296
#     4   8  15  30  51  74 102 134 167 206 249 292
#     4  10  20  32  51  80 105 129 167 209 249 298
#     4   9  20  36  53  74 101 133 169 209 252 299
#     4  10  20  35  53  74 102 135 168 204 250 299
#     4  10  20  33  49  72 102 134 167 205 251 299
#
# _framework density 18.498805999999998
#
# number of rings (size 3 to 8) (size 9 to 14) (size 15 to 20)
#    0.000    2.500    0.000    3.500    0.000    6.333 
#    0.000    3.333    0.000    1.000    0.000    1.167 
#    0.000    0.000    0.000    0.000    0.000    0.000 
#
# Total GULP energy -1190363.771926 kJ/mol
# GULP energy per Si atom -12399.622624 kJ/mol
# Density = 1.845670 g / cm^3
# Si number density = 18.498806 Si / 1000 Ang^3
#
#
#
# Elastic Constant Matrix: (Units=GPa)
#
#
# Indices 1 2 3 4 5 6 
#
# 1 -172.4676 395.2982 43.4211 0.0000 0.0000 0.0000
# 2 395.2982 -172.7529 43.7156 0.0000 0.0000 0.0000
# 3 43.4211 43.7156 60.7852 0.0000 0.0000 0.0000
# 4 0.0000 0.0000 0.0000 21.1244 0.0000 0.0000
# 5 0.0000 0.0000 0.0000 0.0000 21.1240 0.0000
# 6 0.0000 0.0000 0.0000 0.0000 0.0000 27.2030
#
#
#
# Elastic Compliance Matrix: (Units=1/GPa)
#
#
# Indices 1 2 3 4 5 6 
#
# 1 0.002244 0.004001 -0.004480 0.000000 0.000000 0.000000
# 2 0.004001 0.002236 -0.004466 0.000000 0.000000 0.000000
# 3 -0.004480 -0.004466 0.022864 0.000000 0.000000 0.000000
# 4 0.000000 0.000000 0.000000 0.047339 0.000000 0.000000
# 5 0.000000 0.000000 0.000000 0.000000 0.047340 0.000000
# 6 0.000000 0.000000 0.000000 0.000000 0.000000 0.036761
#
#
# Mechanical properties :
#
#
# Convention : Reuss Voigt Hill
#
# Bulk Modulus (GPa) = 57.29763 75.60384 66.45073
# Shear Modulus (GPa) = 28.65469 -37.23441 -4.28986
#
# Velocity S-wave (km/s) = 3.94001 -4.49129 -1.52448
# Velocity P-wave (km/s) = 7.19299 3.75003 5.73593
#
# Compressibility (1/GPa) = 0.01745273
#
# Stress axis : x y z
#
# Youngs Moduli (GPa) = 445.64523 447.19456 43.73723
#
# Poissons Ratio (x) = -1.78918 0.19596
# Poissons Ratio (y) = -1.78298 0.19534
# Poissons Ratio (z) = 1.99662 1.99726
#
# Static dielectric constant tensor:
#      x y z
#    x 3.589640 0.000000 0.000000 
#    y 0.000000 3.589640 0.000000 
#    z 0.000000 0.000000 3.255950 
# 
# 
# High freq. dielectric constant tensor:
#      x y z
#    x 1.721430 0.000000 0.000000 
#    y 0.000000 1.721430 0.000000 
#    z 0.000000 0.000000 1.704550 
# 
# From -- ./inp_files/1490.got.cif
#   From: 2010.03.12/outbox.cif.g09.slc.cpg/sg128_1_cif.got.tgz:1490.got - 2010.04.06 17:11:05.
