data_PCOD8314876
_publ_section_title
;
Structure prediction by ZEFSAII (Michael W. Deem and Ramdas Pophale) SiO2 
 PCOD8314876
Probable space group: P 4/N M M
;
_chemical_formula_sum "Si O2"
_cell_formula_units_Z 128
_cell_length_a 17.855181
_cell_length_b 17.855181
_cell_length_c 22.971484
_cell_angle_alpha 90.000000
_cell_angle_beta 90.000000
_cell_angle_gamma 90.000000
_cell_volume 7323.481122
_symmetry_space_group_name_H-M "P 4/N M M"
_symmetry_group_IT_number 129
_symmetry_cell_setting 'tetragonal'
loop_
_space_group_symop_operation_xyz
x,y,z
1/2-y,x,z
1/2-x,1/2-y,z
y,1/2-x,z
1/2+x,-y,-z
-x,1/2+y,-z
1/2+y,1/2+x,-z
-y,-x,-z
-x,-y,-z
1/2+y,-x,-z
1/2+x,1/2+y,-z
-y,1/2+x,-z
1/2-x,y,z
x,1/2-y,z
1/2-y,1/2-x,z
y,x,z
loop_
_atom_site_type_symbol
_atom_site_label
_atom_site_fract_x
_atom_site_fract_y
_atom_site_fract_z
Si Si1 0.949183 0.830787 0.426991
Si Si2 0.059139 0.562551 0.855582
Si Si3 0.891890 0.487281 0.536309
Si Si4 0.045601 0.335042 0.220886
Si Si5 0.331759 0.950980 0.677607
Si Si6 0.834266 0.546010 0.213565
Si Si7 0.835320 0.164379 0.068759
Si Si8 0.485371 0.608690 0.666183
O O1 0.913963 0.750000 0.414581
O O2 0.891192 0.891192 0.405111
O O3 0.966050 0.835436 0.495918
O O4 0.024130 0.842998 0.389435
O O5 0.122479 0.518536 0.820738
O O6 0.102047 0.608455 0.905617
O O7 0.996602 0.503399 0.880398
O O8 0.019582 0.621309 0.812797
O O9 0.911135 0.411135 0.500000
O O10 0.856676 0.478274 0.600860
O O11 0.970036 0.529965 0.546130
O O12 0.050937 0.250000 0.198681
O O13 0.125242 0.374759 0.208954
O O14 0.028259 0.335447 0.290310
O O15 0.250000 0.910765 0.685035
O O16 0.401118 0.897392 0.691940
O O17 0.333653 0.023961 0.718589
O O18 0.750000 0.553132 0.188850
O O19 0.874167 0.625834 0.205770
O O20 0.750000 0.142845 0.088013
O O21 0.852010 0.250000 0.088512
O O22 0.842270 0.157731 0.000000
O O23 0.528120 0.528120 0.667317
#
# Coordination Sequence:
#
# PCOD8314876 Si02
#       8
#    16  16  16  16  16  16  16  16
#     4  10  19  29  42  63  88 115 148 185 232 287
#     4  10  19  32  52  76 103 135 173 212 243 282
#     4   9  16  26  44  63  80 106 143 191 237 277
#     4  10  21  35  53  76 100 128 160 199 249 299
#     4  10  18  28  45  67  94 122 153 197 242 283
#     4  10  19  30  46  69  98 133 169 205 246 288
#     4   9  18  33  53  77 107 141 171 204 251 299
#     4  10  17  30  50  67  90 120 157 199 238 285
#
# _framework density 17.478027000000001
#
# number of rings (size 3 to 8) (size 9 to 14) (size 15 to 20)
#    0.000    2.250    2.500    2.250    0.000    1.125 
#    0.000    0.000    0.000    3.375    0.000    3.500 
#    0.000    0.250    0.000   23.250    0.000    0.000 
#
# Total GULP energy -1585930.884147 kJ/mol
# GULP energy per Si atom -12390.085032 kJ/mol
# Density = 1.743825 g / cm^3
# Si number density = 17.478027 Si / 1000 Ang^3
#
#
#
# Elastic Constant Matrix: (Units=GPa)
#
#
# Indices 1 2 3 4 5 6 
#
# 1 94.4890 40.6880 27.0752 0.0000 0.0000 0.0000
# 2 40.6880 94.4890 27.0753 0.0000 0.0000 0.0000
# 3 27.0752 27.0753 59.9626 0.0000 0.0000 0.0000
# 4 0.0000 0.0000 0.0000 20.4193 0.0000 0.0000
# 5 0.0000 0.0000 0.0000 0.0000 20.4193 0.0000
# 6 0.0000 0.0000 0.0000 0.0000 0.0000 16.8720
#
#
#
# Elastic Compliance Matrix: (Units=1/GPa)
#
#
# Indices 1 2 3 4 5 6 
#
# 1 0.013809 -0.004778 -0.004078 0.000000 0.000000 0.000000
# 2 -0.004778 0.013809 -0.004078 0.000000 0.000000 0.000000
# 3 -0.004078 -0.004078 0.020360 0.000000 0.000000 0.000000
# 4 0.000000 0.000000 0.000000 0.048973 0.000000 0.000000
# 5 0.000000 0.000000 0.000000 0.000000 0.048973 0.000000
# 6 0.000000 0.000000 0.000000 0.000000 0.000000 0.059270
#
#
# Mechanical properties :
#
#
# Convention : Reuss Voigt Hill
#
# Bulk Modulus (GPa) = 45.22731 48.73528 46.98130
# Shear Modulus (GPa) = 20.97033 21.81559 21.39296
#
# Velocity S-wave (km/s) = 3.46759 3.53678 3.50235
# Velocity P-wave (km/s) = 6.47804 6.68002 6.57981
#
# Compressibility (1/GPa) = 0.02211053
#
# Stress axis : x y z
#
# Youngs Moduli (GPa) = 72.41576 72.41576 49.11651
#
# Poissons Ratio (x) = 0.34599 0.20029
# Poissons Ratio (y) = 0.34599 0.20030
# Poissons Ratio (z) = 0.29531 0.29531
#
# Static dielectric constant tensor:
#      x y z
#    x 3.128110 0.000000 0.000000 
#    y 0.000000 3.128120 0.000000 
#    z 0.000000 0.000000 3.155800 
# 
# 
# High freq. dielectric constant tensor:
#      x y z
#    x 1.658780 0.000000 0.000000 
#    y 0.000000 1.658780 0.000000 
#    z 0.000000 0.000000 1.664930 
# 
# From -- ./inp_files/7318.got.cif
#   From: 2010.03.12/outbox.cif.g09.slc.cpg/sg129_4_cif.got.tgz:7318.got - 2010.04.06 17:19:44.
