data_PCOD8314897
_publ_section_title
;
Structure prediction by ZEFSAII (Michael W. Deem and Ramdas Pophale) SiO2 
 PCOD8314897
Probable space group: P 4/N M M
;
_chemical_formula_sum "Si O2"
_cell_formula_units_Z 128
_cell_length_a 19.756371
_cell_length_b 19.756371
_cell_length_c 19.466262
_cell_angle_alpha 90.000000
_cell_angle_beta 90.000000
_cell_angle_gamma 90.000000
_cell_volume 7597.958384
_symmetry_space_group_name_H-M "P 4/N M M"
_symmetry_group_IT_number 129
_symmetry_cell_setting 'tetragonal'
loop_
_space_group_symop_operation_xyz
x,y,z
1/2-y,x,z
1/2-x,1/2-y,z
y,1/2-x,z
1/2+x,-y,-z
-x,1/2+y,-z
1/2+y,1/2+x,-z
-y,-x,-z
-x,-y,-z
1/2+y,-x,-z
1/2+x,1/2+y,-z
-y,1/2+x,-z
1/2-x,y,z
x,1/2-y,z
1/2-y,1/2-x,z
y,x,z
loop_
_atom_site_type_symbol
_atom_site_label
_atom_site_fract_x
_atom_site_fract_y
_atom_site_fract_z
Si Si1 0.937723 0.672673 0.036071
Si Si2 0.493723 0.384121 0.352771
Si Si3 0.172687 0.062249 0.479759
Si Si4 0.062941 0.172780 0.634591
Si Si5 0.421225 0.534368 0.879758
Si Si6 0.825568 0.024063 0.904885
Si Si7 0.932780 0.675614 0.778406
Si Si8 0.026955 0.586907 0.277447
O O1 0.925997 0.750000 0.060109
O O2 0.867250 0.632751 0.044159
O O3 0.995644 0.639437 0.083017
O O4 0.961680 0.669776 0.957449
O O5 0.452433 0.452433 0.365292
O O6 0.498293 0.345648 0.426195
O O7 0.455913 0.335405 0.299424
O O8 0.566151 0.406092 0.321141
O O9 0.250000 0.084438 0.470870
O O10 0.128552 0.128552 0.462329
O O11 0.158937 0.036292 0.557097
O O12 0.083020 0.250000 0.646340
O O13 0.130299 0.130299 0.649801
O O14 0.003597 0.153642 0.687400
O O15 0.491677 0.491677 0.886240
O O16 0.427565 0.608904 0.915409
O O17 0.398555 0.545402 0.801218
O O18 0.750000 0.058789 0.913174
O O19 0.833615 0.996776 0.827813
O O20 0.901281 0.750000 0.784911
O O21 0.876537 0.623464 0.802516
O O22 0.973326 0.526675 0.280017
#
# Coordination Sequence:
#
# PCOD8314897 Si02
#       8
#    16  16  16  16  16  16  16  16
#     4  10  21  34  51  76 103 133 167 203 246 295
#     4   9  16  27  42  61  86 117 154 193 234 270
#     4   9  17  28  42  62  92 127 161 195 229 273
#     4   9  18  31  46  67  93 122 156 192 233 284
#     4  10  18  32  53  73  96 129 170 211 248 292
#     4  10  19  31  49  74 101 128 163 206 246 285
#     4  10  18  27  41  62  92 127 160 192 227 271
#     4   9  17  29  47  67  88 117 154 198 245 285
#
# _framework density 16.846630999999999
#
# number of rings (size 3 to 8) (size 9 to 14) (size 15 to 20)
#    0.000    2.500    1.250    1.875    0.000    2.500 
#    0.000    3.750    0.000    4.875    0.000    5.250 
#    0.000    2.000    0.000    8.250    0.000    0.625 
#
# Total GULP energy -1586412.769637 kJ/mol
# GULP energy per Si atom -12393.849763 kJ/mol
# Density = 1.680829 g / cm^3
# Si number density = 16.846631 Si / 1000 Ang^3
#
#
#
# Elastic Constant Matrix: (Units=GPa)
#
#
# Indices 1 2 3 4 5 6 
#
# 1 83.0752 48.3211 33.9758 0.0000 0.0000 0.0000
# 2 48.3211 83.0752 33.9758 0.0000 0.0000 0.0000
# 3 33.9758 33.9758 66.5832 0.0000 0.0000 0.0000
# 4 0.0000 0.0000 0.0000 22.3920 0.0000 0.0000
# 5 0.0000 0.0000 0.0000 0.0000 22.3920 0.0000
# 6 0.0000 0.0000 0.0000 0.0000 0.0000 17.1489
#
#
#
# Elastic Compliance Matrix: (Units=1/GPa)
#
#
# Indices 1 2 3 4 5 6 
#
# 1 0.019556 -0.009217 -0.005276 0.000000 0.000000 0.000000
# 2 -0.009217 0.019556 -0.005276 0.000000 0.000000 0.000000
# 3 -0.005276 -0.005276 0.020403 0.000000 0.000000 0.000000
# 4 0.000000 0.000000 0.000000 0.044659 0.000000 0.000000
# 5 0.000000 0.000000 0.000000 0.000000 0.044659 0.000000
# 6 0.000000 0.000000 0.000000 0.000000 0.000000 0.058313
#
#
# Mechanical properties :
#
#
# Convention : Reuss Voigt Hill
#
# Bulk Modulus (GPa) = 50.05519 51.69767 50.87643
# Shear Modulus (GPa) = 19.73613 20.15065 19.94339
#
# Velocity S-wave (km/s) = 3.42646 3.46225 3.44440
# Velocity P-wave (km/s) = 6.74025 6.83643 6.78851
#
# Compressibility (1/GPa) = 0.01997795
#
# Stress axis : x y z
#
# Youngs Moduli (GPa) = 51.13457 51.13457 49.01259
#
# Poissons Ratio (x) = 0.47133 0.25857
# Poissons Ratio (y) = 0.47133 0.25857
# Poissons Ratio (z) = 0.26977 0.26977
#
# Static dielectric constant tensor:
#      x y z
#    x 3.051900 0.000000 0.000000 
#    y 0.000000 3.051900 0.000000 
#    z 0.000000 0.000000 3.358300 
# 
# 
# High freq. dielectric constant tensor:
#      x y z
#    x 1.621880 0.000000 0.000000 
#    y 0.000000 1.621880 0.000000 
#    z 0.000000 0.000000 1.664860 
# 
# From -- ./inp_files/6161.got.cif
#   From: 2010.03.12/outbox.cif.g09.slc.cpg/sg129_4_cif.got.tgz:6161.got - 2010.04.06 17:19:44.
