data_PCOD8314427
_publ_section_title
;
Structure prediction by ZEFSAII (Michael W. Deem and Ramdas Pophale) SiO2 
 PCOD8314427
Probable space group: P 4/M B M
;
_chemical_formula_sum "Si O2"
_cell_formula_units_Z 88
_cell_length_a 14.329370
_cell_length_b 14.329370
_cell_length_c 23.197432
_cell_angle_alpha 90.000000
_cell_angle_beta 90.000000
_cell_angle_gamma 90.000000
_cell_volume 4763.148305
_symmetry_space_group_name_H-M "P 4/M B M"
_symmetry_group_IT_number 127
_symmetry_cell_setting 'tetragonal'
loop_
_space_group_symop_operation_xyz
x,y,z
-y,x,z
-x,-y,z
y,-x,z
1/2+x,1/2-y,-z
1/2-x,1/2+y,-z
1/2+y,1/2+x,-z
1/2-y,1/2-x,-z
-x,-y,-z
y,-x,-z
x,y,-z
-y,x,-z
1/2-x,1/2+y,z
1/2+x,1/2-y,z
1/2-y,1/2-x,z
1/2+y,1/2+x,z
loop_
_atom_site_type_symbol
_atom_site_label
_atom_site_fract_x
_atom_site_fract_y
_atom_site_fract_z
Si Si1 0.849702 0.499918 0.431909
Si Si2 0.171669 0.178992 0.066055
Si Si3 0.574573 0.074573 0.063343
Si Si4 0.845816 0.000991 0.632795
Si Si5 0.847653 0.002400 0.764271
Si Si6 0.250680 0.502753 0.122013
O O1 0.837087 0.499739 0.500000
O O2 0.907318 0.407318 0.412782
O O3 0.746750 0.500865 0.405288
O O4 0.908025 0.591976 0.412890
O O5 0.217739 0.282262 0.074028
O O6 0.066870 0.177077 0.090284
O O7 0.233152 0.107439 0.101906
O O8 0.171976 0.147273 0.000000
O O9 0.525378 0.148715 0.103747
O O10 0.500000 0.000000 0.045242
O O11 0.612758 0.112758 0.000000
O O12 0.908725 0.092455 0.619857
O O13 0.811306 0.002216 0.698870
O O14 0.907074 0.909936 0.776032
O O15 0.761407 0.004193 0.808684
#
# Coordination Sequence:
#
# PCOD8314427 Si02
#       6
#    16  16   8  16  16  16
#     4   9  19  37  59  85 121 160 193 232 282 329
#     4  11  23  37  54  81 111 137 177 231 284 342
#     4  11  24  42  58  74 106 149 184 220 282 354
#     4   9  19  36  59  84 115 154 195 236 282 334
#     4   9  18  36  57  81 111 145 179 225 284 336
#     4  12  21  37  60  80 105 143 182 227 284 339
#
# _framework density 18.475173999999999
#
# number of rings (size 3 to 8) (size 9 to 14) (size 15 to 20)
#    0.000    1.909    2.727    3.818    0.000    3.273 
#    1.636    5.455    2.000    0.000    0.000    0.000 
#    0.000    0.000    0.000    0.000    0.000    0.000 
#
# Total GULP energy -1090912.131647 kJ/mol
# GULP energy per Si atom -12396.728769 kJ/mol
# Density = 1.843312 g / cm^3
# Si number density = 18.475174 Si / 1000 Ang^3
#
#
#
# Elastic Constant Matrix: (Units=GPa)
#
#
# Indices 1 2 3 4 5 6 
#
# 1 106.2645 29.1399 48.6134 0.0000 0.0000 0.0000
# 2 29.1399 106.2645 48.6134 0.0000 0.0000 0.0000
# 3 48.6134 48.6134 92.0690 0.0000 0.0000 0.0000
# 4 0.0000 0.0000 0.0000 38.7091 0.0000 0.0000
# 5 0.0000 0.0000 0.0000 0.0000 38.7091 0.0000
# 6 0.0000 0.0000 0.0000 0.0000 0.0000 24.1424
#
#
#
# Elastic Compliance Matrix: (Units=1/GPa)
#
#
# Indices 1 2 3 4 5 6 
#
# 1 0.012431 -0.000535 -0.006281 0.000000 0.000000 0.000000
# 2 -0.000535 0.012431 -0.006281 0.000000 0.000000 0.000000
# 3 -0.006281 -0.006281 0.017494 0.000000 0.000000 0.000000
# 4 0.000000 0.000000 0.000000 0.025834 0.000000 0.000000
# 5 0.000000 0.000000 0.000000 0.000000 0.025834 0.000000
# 6 0.000000 0.000000 0.000000 0.000000 0.000000 0.041421
#
#
# Mechanical properties :
#
#
# Convention : Reuss Voigt Hill
#
# Bulk Modulus (GPa) = 61.87621 61.92570 61.90096
# Shear Modulus (GPa) = 29.93569 32.19420 31.06494
#
# Velocity S-wave (km/s) = 4.02969 4.17893 4.10499
# Velocity P-wave (km/s) = 7.43071 7.54160 7.48636
#
# Compressibility (1/GPa) = 0.01616130
#
# Stress axis : x y z
#
# Youngs Moduli (GPa) = 80.44660 80.44660 57.16232
#
# Poissons Ratio (x) = 0.04307 0.35902
# Poissons Ratio (y) = 0.04307 0.35902
# Poissons Ratio (z) = 0.50527 0.50527
#
# Static dielectric constant tensor:
#      x y z
#    x 3.266980 0.000000 0.000000 
#    y 0.000000 3.266980 0.000000 
#    z 0.000000 0.000000 3.326260 
# 
# 
# High freq. dielectric constant tensor:
#      x y z
#    x 1.713900 0.000000 0.000000 
#    y 0.000000 1.713900 0.000000 
#    z 0.000000 0.000000 1.713420 
# 
# From -- ./inp_files/5684.got.cif
#   From: 2010.03.12/outbox.cif.g09.slc.cpg/sg127_3_cif.got.tgz:5684.got - 2010.04.06 17:03:15.
