data_PCOD8314486
_publ_section_title
;
Structure prediction by ZEFSAII (Michael W. Deem and Ramdas Pophale) SiO2 
 PCOD8314486
Probable space group: P 4/M N C
;
_chemical_formula_sum "Si O2"
_cell_formula_units_Z 64
_cell_length_a 21.589411
_cell_length_b 21.589411
_cell_length_c 8.435297
_cell_angle_alpha 90.000000
_cell_angle_beta 90.000000
_cell_angle_gamma 90.000000
_cell_volume 3931.714431
_symmetry_space_group_name_H-M "P 4/M N C"
_symmetry_group_IT_number 128
_symmetry_cell_setting 'tetragonal'
loop_
_space_group_symop_operation_xyz
x,y,z
-y,x,z
-x,-y,z
y,-x,z
1/2+x,1/2-y,1/2-z
1/2-x,1/2+y,1/2-z
1/2+y,1/2+x,1/2-z
1/2-y,1/2-x,1/2-z
-x,-y,-z
y,-x,-z
x,y,-z
-y,x,-z
1/2-x,1/2+y,1/2+z
1/2+x,1/2-y,1/2+z
1/2-y,1/2-x,1/2+z
1/2+y,1/2+x,1/2+z
loop_
_atom_site_type_symbol
_atom_site_label
_atom_site_fract_x
_atom_site_fract_y
_atom_site_fract_z
Si Si1 0.068793 0.334646 0.314237
Si Si2 0.755260 0.157421 0.186204
Si Si3 0.066237 0.664701 0.186469
Si Si4 0.343408 0.254399 0.813512
O O1 0.107032 0.392969 0.250000
O O2 0.079516 0.329631 0.500000
O O3 0.089105 0.268716 0.234994
O O4 0.997680 0.346508 0.275004
O O5 0.701281 0.201281 0.250000
O O6 0.821627 0.175826 0.266024
O O7 0.762941 0.163647 0.000000
O O8 0.113999 0.613999 0.250000
O O9 0.092851 0.733230 0.229319
O O10 0.056862 0.658026 0.000000
O O11 0.288645 0.211356 0.750000
O O12 0.351718 0.247493 0.000000
#
# Coordination Sequence:
#
# PCOD8314486 Si02
#       4
#    16  16  16  16
#     4  11  21  34  48  66  90 121 156 192 228 269
#     4  10  17  28  45  66  88 114 145 184 228 272
#     4  11  21  34  48  66  90 121 156 192 228 269
#     4  10  17  28  45  66  88 114 145 184 228 272
#
# _framework density 16.277885999999999
#
# number of rings (size 3 to 8) (size 9 to 14) (size 15 to 20)
#    0.000    1.500    0.000   13.500    0.000    0.500 
#    0.000    2.500    0.000    0.000    0.000    0.000 
#    0.000    1.000    0.000   10.000    0.000    6.000 
#
# Total GULP energy -793283.274301 kJ/mol
# GULP energy per Si atom -12395.051161 kJ/mol
# Density = 1.624084 g / cm^3
# Si number density = 16.277886 Si / 1000 Ang^3
#
#
#
# Elastic Constant Matrix: (Units=GPa)
#
#
# Indices 1 2 3 4 5 6 
#
# 1 51.8823 49.0758 5.7512 0.0000 0.0000 0.0000
# 2 49.0758 51.8814 5.7535 0.0000 0.0000 0.0000
# 3 5.7512 5.7535 90.2094 0.0000 0.0000 0.0000
# 4 0.0000 0.0000 0.0000 20.1406 0.0000 0.0000
# 5 0.0000 0.0000 0.0000 0.0000 20.1440 0.0000
# 6 0.0000 0.0000 0.0000 0.0000 0.0000 19.0790
#
#
#
# Elastic Compliance Matrix: (Units=1/GPa)
#
#
# Indices 1 2 3 4 5 6 
#
# 1 0.183178 -0.173202 -0.000632 0.000000 0.000000 0.000000
# 2 -0.173202 0.183182 -0.000641 0.000000 0.000000 0.000000
# 3 -0.000632 -0.000641 0.011166 0.000000 0.000000 0.000000
# 4 0.000000 0.000000 0.000000 0.049651 0.000000 0.000000
# 5 0.000000 0.000000 0.000000 0.000000 0.049643 0.000000
# 6 0.000000 0.000000 0.000000 0.000000 0.000000 0.052414
#
#
# Mechanical properties :
#
#
# Convention : Reuss Voigt Hill
#
# Bulk Modulus (GPa) = 34.99342 35.01489 35.00416
# Shear Modulus (GPa) = 5.63248 20.76557 13.19903
#
# Velocity S-wave (km/s) = 1.86218 3.57556 2.85064
# Velocity P-wave (km/s) = 5.11545 6.21318 5.69084
#
# Compressibility (1/GPa) = 0.02857680
#
# Stress axis : x y z
#
# Youngs Moduli (GPa) = 5.45917 5.45905 89.55388
#
# Poissons Ratio (x) = 0.94552 0.05655
# Poissons Ratio (y) = 0.94554 0.05740
# Poissons Ratio (z) = 0.00345 0.00350
#
# Static dielectric constant tensor:
#      x y z
#    x 3.328520 0.000000 0.000000 
#    y 0.000000 3.328520 0.000000 
#    z 0.000000 0.000000 3.234790 
# 
# 
# High freq. dielectric constant tensor:
#      x y z
#    x 1.598870 0.000000 0.000000 
#    y 0.000000 1.598870 0.000000 
#    z 0.000000 0.000000 1.655060 
# 
# From -- ./inp_files/1010.got.cif
#   From: 2010.03.12/outbox.cif.g09.slc.cpg/sg128_1_cif.got.tgz:1010.got - 2010.04.06 17:11:05.
