data_PCOD8314913
_publ_section_title
;
Structure prediction by ZEFSAII (Michael W. Deem and Ramdas Pophale) SiO2 
 PCOD8314913
Probable space group: P 4/N M M
;
_chemical_formula_sum "Si O2"
_cell_formula_units_Z 128
_cell_length_a 18.181230
_cell_length_b 18.181230
_cell_length_c 22.911213
_cell_angle_alpha 90.000000
_cell_angle_beta 90.000000
_cell_angle_gamma 90.000000
_cell_volume 7573.464684
_symmetry_space_group_name_H-M "P 4/N M M"
_symmetry_group_IT_number 129
_symmetry_cell_setting 'tetragonal'
loop_
_space_group_symop_operation_xyz
x,y,z
1/2-y,x,z
1/2-x,1/2-y,z
y,1/2-x,z
1/2+x,-y,-z
-x,1/2+y,-z
1/2+y,1/2+x,-z
-y,-x,-z
-x,-y,-z
1/2+y,-x,-z
1/2+x,1/2+y,-z
-y,1/2+x,-z
1/2-x,y,z
x,1/2-y,z
1/2-y,1/2-x,z
y,x,z
loop_
_atom_site_type_symbol
_atom_site_label
_atom_site_fract_x
_atom_site_fract_y
_atom_site_fract_z
Si Si1 0.665716 0.425100 0.256099
Si Si2 0.334477 0.047063 0.556109
Si Si3 0.835679 0.168934 0.847909
Si Si4 0.932539 0.446269 0.367637
Si Si5 0.835148 0.547796 0.030071
Si Si6 0.666771 0.951039 0.162297
Si Si7 0.584950 0.334759 0.044382
Si Si8 0.454554 0.334987 0.418718
O O1 0.750000 0.430471 0.278498
O O2 0.649624 0.350377 0.219838
O O3 0.611185 0.425702 0.309872
O O4 0.646332 0.487341 0.209087
O O5 0.250000 0.054032 0.578110
O O6 0.377468 0.122533 0.572544
O O7 0.337277 0.033222 0.487571
O O8 0.374489 0.977092 0.585168
O O9 0.750000 0.174527 0.859136
O O10 0.872099 0.250000 0.860324
O O11 0.868618 0.107776 0.892506
O O12 0.991877 0.508123 0.352290
O O13 0.973588 0.373206 0.390690
O O14 0.750000 0.562246 0.017509
O O15 0.875509 0.624492 0.018821
O O16 0.848123 0.519807 0.096516
O O17 0.869912 0.487835 0.985288
O O18 0.750000 0.925030 0.169307
O O19 0.619691 0.880310 0.177842
O O20 0.568607 0.250000 0.051665
O O21 0.652669 0.347332 0.000000
O O22 0.447092 0.250000 0.397169
O O23 0.380237 0.380237 0.401938
#
# Coordination Sequence:
#
# PCOD8314913 Si02
#       8
#    16  16  16  16  16  16  16  16
#     4  10  19  31  47  65  88 121 157 190 224 263
#     4   9  17  30  49  73 101 131 162 197 236 278
#     4   9  18  31  45  62  85 113 145 181 222 270
#     4  10  19  31  48  70  96 127 162 196 233 279
#     4   9  18  31  46  65  88 115 148 185 226 272
#     4   9  17  29  44  62  86 115 148 187 227 267
#     4  10  18  28  44  65  88 113 141 175 219 271
#     4   9  18  32  51  75 100 126 157 195 239 285
#
# _framework density 16.901115000000001
#
# number of rings (size 3 to 8) (size 9 to 14) (size 15 to 20)
#    0.000    2.625    0.000    2.250    0.000    5.375 
#    0.000    3.750    0.000    1.125    0.000    5.250 
#    0.000    0.000    0.000    3.750    0.000    0.250 
#
# Total GULP energy -1586117.245053 kJ/mol
# GULP energy per Si atom -12391.540977 kJ/mol
# Density = 1.686265 g / cm^3
# Si number density = 16.901115 Si / 1000 Ang^3
#
#
#
# Elastic Constant Matrix: (Units=GPa)
#
#
# Indices 1 2 3 4 5 6 
#
# 1 80.6295 60.9165 45.7879 0.0000 0.0000 0.0000
# 2 60.9165 80.6323 45.7871 0.0000 0.0000 0.0000
# 3 45.7879 45.7871 78.9514 0.0000 0.0000 0.0000
# 4 0.0000 0.0000 0.0000 26.4477 0.0000 0.0000
# 5 0.0000 0.0000 0.0000 0.0000 26.4477 0.0000
# 6 0.0000 0.0000 0.0000 0.0000 0.0000 17.9399
#
#
#
# Elastic Compliance Matrix: (Units=1/GPa)
#
#
# Indices 1 2 3 4 5 6 
#
# 1 0.031017 -0.019709 -0.006558 0.000000 0.000000 0.000000
# 2 -0.019709 0.031015 -0.006557 0.000000 0.000000 0.000000
# 3 -0.006558 -0.006557 0.020272 0.000000 0.000000 0.000000
# 4 0.000000 0.000000 0.000000 0.037810 0.000000 0.000000
# 5 0.000000 0.000000 0.000000 0.000000 0.037811 0.000000
# 6 0.000000 0.000000 0.000000 0.000000 0.000000 0.055742
#
#
# Mechanical properties :
#
#
# Convention : Reuss Voigt Hill
#
# Bulk Modulus (GPa) = 60.03751 60.57735 60.30743
# Shear Modulus (GPa) = 17.55208 20.01515 18.78361
#
# Velocity S-wave (km/s) = 3.22610 3.44503 3.33736
# Velocity P-wave (km/s) = 7.03398 7.19335 7.11411
#
# Compressibility (1/GPa) = 0.01665625
#
# Stress axis : x y z
#
# Youngs Moduli (GPa) = 32.24043 32.24262 49.32883
#
# Poissons Ratio (x) = 0.63546 0.32352
# Poissons Ratio (y) = 0.63542 0.32344
# Poissons Ratio (z) = 0.21145 0.21141
#
# Static dielectric constant tensor:
#      x y z
#    x 3.226180 0.000000 0.000000 
#    y 0.000000 3.226180 0.000000 
#    z 0.000000 0.000000 3.176330 
# 
# 
# High freq. dielectric constant tensor:
#      x y z
#    x 1.646500 0.000000 0.000000 
#    y 0.000000 1.646500 0.000000 
#    z 0.000000 0.000000 1.640710 
# 
# From -- ./inp_files/7299.got.cif
#   From: 2010.03.12/outbox.cif.g09.slc.cpg/sg129_4_cif.got.tgz:7299.got - 2010.04.06 17:19:44.
