data_PCOD8314958
_publ_section_title
;
Structure prediction by ZEFSAII (Michael W. Deem and Ramdas Pophale) SiO2 
 PCOD8314958
Probable space group: P 4/N M M
;
_chemical_formula_sum "Si O2"
_cell_formula_units_Z 128
_cell_length_a 19.696004
_cell_length_b 19.696004
_cell_length_c 19.805204
_cell_angle_alpha 90.000000
_cell_angle_beta 90.000000
_cell_angle_gamma 90.000000
_cell_volume 7683.083758
_symmetry_space_group_name_H-M "P 4/N M M"
_symmetry_group_IT_number 129
_symmetry_cell_setting 'tetragonal'
loop_
_space_group_symop_operation_xyz
x,y,z
1/2-y,x,z
1/2-x,1/2-y,z
y,1/2-x,z
1/2+x,-y,-z
-x,1/2+y,-z
1/2+y,1/2+x,-z
-y,-x,-z
-x,-y,-z
1/2+y,-x,-z
1/2+x,1/2+y,-z
-y,1/2+x,-z
1/2-x,y,z
x,1/2-y,z
1/2-y,1/2-x,z
y,x,z
loop_
_atom_site_type_symbol
_atom_site_label
_atom_site_fract_x
_atom_site_fract_y
_atom_site_fract_z
Si Si1 0.172862 0.438798 0.411953
Si Si2 0.597505 0.486993 0.859080
Si Si3 0.985208 0.095453 0.643833
Si Si4 0.122369 0.013414 0.889165
Si Si5 0.499273 0.610008 0.711078
Si Si6 0.438140 0.827001 0.985787
Si Si7 0.566407 0.826016 0.244881
Si Si8 0.440436 0.829598 0.486129
O O1 0.250000 0.414852 0.424533
O O2 0.123080 0.376921 0.431205
O O3 0.164847 0.459410 0.333105
O O4 0.154045 0.503957 0.456734
O O5 0.557996 0.557996 0.870437
O O6 0.545935 0.424519 0.859839
O O7 0.637301 0.484671 0.786778
O O8 0.652139 0.477980 0.918122
O O9 0.034689 0.034689 0.618253
O O10 0.016796 0.134241 0.706335
O O11 0.912279 0.067571 0.669431
O O12 0.973408 0.148802 0.584392
O O13 0.075483 0.075483 0.913566
O O14 0.173102 0.035829 0.830252
O O15 0.166592 0.990249 0.952510
O O16 0.540869 0.540869 0.721729
O O17 0.413204 0.750000 0.978693
O O18 0.372504 0.872504 0.000000
O O19 0.574699 0.750000 0.270780
O O20 0.640474 0.859527 0.245541
O O21 0.372190 0.872190 0.500000
O O22 0.421570 0.750000 0.484835
#
# Coordination Sequence:
#
# PCOD8314958 Si02
#       8
#    16  16  16  16  16  16  16  16
#     4  10  21  35  53  78 105 135 169 205 249 297
#     4   9  16  29  49  73  96 116 148 201 254 290
#     4  10  18  31  52  75  99 126 160 205 249 292
#     4   9  16  29  48  70  93 118 155 203 248 285
#     4   9  16  29  51  76  99 123 156 201 249 293
#     4  10  20  31  45  66  92 127 162 194 237 287
#     4  10  19  30  46  69  98 131 164 200 242 292
#     4  11  22  35  53  77 103 134 170 209 252 297
#
# _framework density 16.659977000000001
#
# number of rings (size 3 to 8) (size 9 to 14) (size 15 to 20)
#    0.000    2.250    2.500    1.500    0.000    3.000 
#    0.000    0.000    0.000    0.000    0.000    1.750 
#    0.000    2.250    0.000    0.500    0.000    0.000 
#
# Total GULP energy -1586972.109120 kJ/mol
# GULP energy per Si atom -12398.219602 kJ/mol
# Density = 1.662206 g / cm^3
# Si number density = 16.659977 Si / 1000 Ang^3
#
#
#
# Elastic Constant Matrix: (Units=GPa)
#
#
# Indices 1 2 3 4 5 6 
#
# 1 82.9031 38.8008 32.8215 0.0000 0.0000 0.0000
# 2 38.8008 82.9031 32.8215 0.0000 0.0000 0.0000
# 3 32.8215 32.8215 94.1662 0.0000 0.0000 0.0000
# 4 0.0000 0.0000 0.0000 16.9604 0.0000 0.0000
# 5 0.0000 0.0000 0.0000 0.0000 16.9604 0.0000
# 6 0.0000 0.0000 0.0000 0.0000 0.0000 14.8317
#
#
#
# Elastic Compliance Matrix: (Units=1/GPa)
#
#
# Indices 1 2 3 4 5 6 
#
# 1 0.016397 -0.006278 -0.003527 0.000000 0.000000 0.000000
# 2 -0.006278 0.016397 -0.003527 0.000000 0.000000 0.000000
# 3 -0.003527 -0.003527 0.013078 0.000000 0.000000 0.000000
# 4 0.000000 0.000000 0.000000 0.058961 0.000000 0.000000
# 5 0.000000 0.000000 0.000000 0.000000 0.058961 0.000000
# 6 0.000000 0.000000 0.000000 0.000000 0.000000 0.067423
#
#
# Mechanical properties :
#
#
# Convention : Reuss Voigt Hill
#
# Bulk Modulus (GPa) = 52.06085 52.09556 52.07821
# Shear Modulus (GPa) = 18.91914 20.11908 19.51911
#
# Velocity S-wave (km/s) = 3.37353 3.47887 3.42660
# Velocity P-wave (km/s) = 6.81844 6.89017 6.85440
#
# Compressibility (1/GPa) = 0.01920829
#
# Stress axis : x y z
#
# Youngs Moduli (GPa) = 60.98762 60.98762 76.46341
#
# Poissons Ratio (x) = 0.38287 0.26968
# Poissons Ratio (y) = 0.38287 0.26968
# Poissons Ratio (z) = 0.21510 0.21510
#
# Static dielectric constant tensor:
#      x y z
#    x 2.924050 0.000000 0.000000 
#    y 0.000000 2.924050 0.000000 
#    z 0.000000 0.000000 3.287000 
# 
# 
# High freq. dielectric constant tensor:
#      x y z
#    x 1.622810 0.000000 0.000000 
#    y 0.000000 1.622810 0.000000 
#    z 0.000000 0.000000 1.657590 
# 
# From -- ./inp_files/6135.got.cif
#   From: 2010.03.12/outbox.cif.g09.slc.cpg/sg129_4_cif.got.tgz:6135.got - 2010.04.06 17:19:44.
