data_PCOD8314912
_publ_section_title
;
Structure prediction by ZEFSAII (Michael W. Deem and Ramdas Pophale) SiO2 
 PCOD8314912
Probable space group: P 4/N M M
;
_chemical_formula_sum "Si O2"
_cell_formula_units_Z 64
_cell_length_a 17.582138
_cell_length_b 17.582138
_cell_length_c 13.398585
_cell_angle_alpha 90.000000
_cell_angle_beta 90.000000
_cell_angle_gamma 90.000000
_cell_volume 4141.925706
_symmetry_space_group_name_H-M "P 4/N M M"
_symmetry_group_IT_number 129
_symmetry_cell_setting 'tetragonal'
loop_
_space_group_symop_operation_xyz
x,y,z
1/2-y,x,z
1/2-x,1/2-y,z
y,1/2-x,z
1/2+x,-y,-z
-x,1/2+y,-z
1/2+y,1/2+x,-z
-y,-x,-z
-x,-y,-z
1/2+y,-x,-z
1/2+x,1/2+y,-z
-y,1/2+x,-z
1/2-x,y,z
x,1/2-y,z
1/2-y,1/2-x,z
y,x,z
loop_
_atom_site_type_symbol
_atom_site_label
_atom_site_fract_x
_atom_site_fract_y
_atom_site_fract_z
Si Si1 0.662805 0.163475 0.382500
Si Si2 0.046775 0.335025 0.126893
Si Si3 0.563061 0.440971 0.245426
Si Si4 0.663940 0.056784 0.057349
O O1 0.653965 0.153965 0.500000
O O2 0.750000 0.149038 0.350030
O O3 0.639581 0.250000 0.350758
O O4 0.609785 0.099124 0.333670
O O5 0.051435 0.250000 0.166658
O O6 0.131112 0.368889 0.125564
O O7 0.995012 0.379429 0.204286
O O8 0.015460 0.340405 0.014754
O O9 0.515809 0.515809 0.282485
O O10 0.619732 0.465906 0.157382
O O11 0.750000 0.078352 0.085342
O O12 0.629103 0.129103 0.000000
#
# Coordination Sequence:
#
# PCOD8314912 Si02
#       4
#    16  16  16  16
#     4   9  18  32  48  65  86 112 141 175 217 263
#     4   9  17  28  41  58  81 109 140 172 205 242
#     4  10  18  28  44  64  87 114 141 172 213 257
#     4   9  17  28  41  60  86 114 144 176 209 246
#
# _framework density 15.451750000000001
#
# number of rings (size 3 to 8) (size 9 to 14) (size 15 to 20)
#    0.000    2.750    0.000    3.000    0.000    5.000 
#    0.000    0.000    0.000    0.000    0.000    0.000 
#    0.000    4.500    0.000   18.500    0.000    0.500 
#
# Total GULP energy -793319.425267 kJ/mol
# GULP energy per Si atom -12395.616020 kJ/mol
# Density = 1.541658 g / cm^3
# Si number density = 15.451750 Si / 1000 Ang^3
#
#
#
# Elastic Constant Matrix: (Units=GPa)
#
#
# Indices 1 2 3 4 5 6 
#
# 1 91.9482 56.9497 32.2784 0.0000 0.0000 0.0000
# 2 56.9497 91.9482 32.2784 0.0000 0.0000 0.0000
# 3 32.2784 32.2784 54.7827 0.0000 0.0000 0.0000
# 4 0.0000 0.0000 0.0000 20.1797 0.0000 0.0000
# 5 0.0000 0.0000 0.0000 0.0000 20.1797 0.0000
# 6 0.0000 0.0000 0.0000 0.0000 0.0000 26.7092
#
#
#
# Elastic Compliance Matrix: (Units=1/GPa)
#
#
# Indices 1 2 3 4 5 6 
#
# 1 0.018796 -0.009776 -0.005315 0.000000 0.000000 0.000000
# 2 -0.009776 0.018796 -0.005315 0.000000 0.000000 0.000000
# 3 -0.005315 -0.005315 0.024517 0.000000 0.000000 0.000000
# 4 0.000000 0.000000 0.000000 0.049555 0.000000 0.000000
# 5 0.000000 0.000000 0.000000 0.000000 0.049555 0.000000
# 6 0.000000 0.000000 0.000000 0.000000 0.000000 0.037440
#
#
# Mechanical properties :
#
#
# Convention : Reuss Voigt Hill
#
# Bulk Modulus (GPa) = 46.95208 53.52134 50.23671
# Shear Modulus (GPa) = 20.27812 21.22521 20.75166
#
# Velocity S-wave (km/s) = 3.62657 3.71029 3.66867
# Velocity P-wave (km/s) = 6.92735 7.28477 7.10831
#
# Compressibility (1/GPa) = 0.02129831
#
# Stress axis : x y z
#
# Youngs Moduli (GPa) = 53.20140 53.20140 40.78792
#
# Poissons Ratio (x) = 0.52011 0.21678
# Poissons Ratio (y) = 0.52011 0.21678
# Poissons Ratio (z) = 0.28276 0.28276
#
# Static dielectric constant tensor:
#      x y z
#    x 3.057130 0.000000 0.000000 
#    y 0.000000 3.057130 0.000000 
#    z 0.000000 0.000000 2.755450 
# 
# 
# High freq. dielectric constant tensor:
#      x y z
#    x 1.589620 0.000000 0.000000 
#    y 0.000000 1.589620 0.000000 
#    z 0.000000 0.000000 1.576400 
# 
# From -- ./inp_files/3398.got.cif
#   From: 2010.03.12/outbox.cif.g09.slc.cpg/sg129_2_cif.got.tgz:3398.got - 2010.04.06 17:19:44.
