data_PCOD8314743
_publ_section_title
;
Structure prediction by ZEFSAII (Michael W. Deem and Ramdas Pophale) SiO2 
 PCOD8314743
Probable space group: P 4/M N C
;
_chemical_formula_sum "Si O2"
_cell_formula_units_Z 56
_cell_length_a 12.107580
_cell_length_b 12.107580
_cell_length_c 19.332242
_cell_angle_alpha 90.000000
_cell_angle_beta 90.000000
_cell_angle_gamma 90.000000
_cell_volume 2833.980891
_symmetry_space_group_name_H-M "P 4/M N C"
_symmetry_group_IT_number 128
_symmetry_cell_setting 'tetragonal'
loop_
_space_group_symop_operation_xyz
x,y,z
-y,x,z
-x,-y,z
y,-x,z
1/2+x,1/2-y,1/2-z
1/2-x,1/2+y,1/2-z
1/2+y,1/2+x,1/2-z
1/2-y,1/2-x,1/2-z
-x,-y,-z
y,-x,-z
x,y,-z
-y,x,-z
1/2-x,1/2+y,1/2+z
1/2+x,1/2-y,1/2+z
1/2-y,1/2-x,1/2+z
1/2+y,1/2+x,1/2+z
loop_
_atom_site_type_symbol
_atom_site_label
_atom_site_fract_x
_atom_site_fract_y
_atom_site_fract_z
Si Si1 0.000000 0.500000 0.886693
Si Si2 0.170684 0.446548 0.000000
Si Si3 0.342729 0.590508 0.768236
Si Si4 0.311273 0.149044 0.851973
Si Si5 0.271831 0.189647 0.500000
O O1 0.054837 0.595456 0.839957
O O2 0.093717 0.441397 0.932710
O O3 0.243797 0.557600 0.000000
O O4 0.254646 0.346346 0.000000
O O5 0.350772 0.459723 0.776793
O O6 0.265678 0.638360 0.828273
O O7 0.295471 0.617887 0.692378
O O8 0.275579 0.157513 0.932328
#
# Coordination Sequence:
#
# PCOD8314743 Si02
#       5
#     8   8  16  16   8
#     4   9  20  37  58  90 118 156 196 260 294 370
#     4   9  20  37  56  89 132 144 206 250 309 371
#     4  10  24  42  59  89 128 163 206 253 300 370
#     4  10  23  40  65  90 120 164 208 247 317 365
#     4  10  22  37  62  98 115 166 201 261 313 358
#
# _framework density 19.760187999999999
#
# number of rings (size 3 to 8) (size 9 to 14) (size 15 to 20)
#    0.000    2.286    0.000    0.857   12.000    4.857 
#    0.000    0.000    0.000    1.714    0.000    0.000 
#    0.000    0.000    0.000    0.000    0.000    0.000 
#
# Total GULP energy -694510.841779 kJ/mol
# GULP energy per Si atom -12401.979317 kJ/mol
# Density = 1.971521 g / cm^3
# Si number density = 19.760188 Si / 1000 Ang^3
#
#
#
# Elastic Constant Matrix: (Units=GPa)
#
#
# Indices 1 2 3 4 5 6 
#
# 1 92.4968 58.3575 20.5924 0.0000 0.0000 0.0000
# 2 58.3575 92.4968 20.5924 0.0000 0.0000 0.0000
# 3 20.5924 20.5924 103.7169 0.0000 0.0000 0.0000
# 4 0.0000 0.0000 0.0000 5.1619 0.0000 0.0000
# 5 0.0000 0.0000 0.0000 0.0000 5.1619 0.0000
# 6 0.0000 0.0000 0.0000 0.0000 0.0000 35.1343
#
#
#
# Elastic Compliance Matrix: (Units=1/GPa)
#
#
# Indices 1 2 3 4 5 6 
#
# 1 0.018150 -0.011141 -0.001392 0.000000 0.000000 0.000000
# 2 -0.011141 0.018150 -0.001392 0.000000 0.000000 0.000000
# 3 -0.001392 -0.001392 0.010194 0.000000 0.000000 0.000000
# 4 0.000000 0.000000 0.000000 0.193726 0.000000 0.000000
# 5 0.000000 0.000000 0.000000 0.000000 0.193726 0.000000
# 6 0.000000 0.000000 0.000000 0.000000 0.000000 0.028462
#
#
# Mechanical properties :
#
#
# Convention : Reuss Voigt Hill
#
# Bulk Modulus (GPa) = 53.63193 54.19944 53.91568
# Shear Modulus (GPa) = 10.07103 21.70285 15.88694
#
# Velocity S-wave (km/s) = 2.26002 3.31767 2.83854
# Velocity P-wave (km/s) = 5.83186 6.49339 6.17149
#
# Compressibility (1/GPa) = 0.01864561
#
# Stress axis : x y z
#
# Youngs Moduli (GPa) = 55.09555 55.09555 98.09497
#
# Poissons Ratio (x) = 0.61384 0.13651
# Poissons Ratio (y) = 0.61384 0.13651
# Poissons Ratio (z) = 0.07667 0.07667
#
# Static dielectric constant tensor:
#      x y z
#    x 3.545060 0.000000 0.000000 
#    y 0.000000 3.545060 0.000000 
#    z 0.000000 0.000000 3.651550 
# 
# 
# High freq. dielectric constant tensor:
#      x y z
#    x 1.768280 0.000000 0.000000 
#    y 0.000000 1.768280 0.000000 
#    z 0.000000 0.000000 1.774750 
# 
# From -- ./inp_files/5353.got.cif
#   From: 2010.03.12/outbox.cif.g09.slc.cpg/sg128_3_cif.got.tgz:5353.got - 2010.04.06 17:11:05.
