data_PCOD8314843
_publ_section_title
;
Structure prediction by ZEFSAII (Michael W. Deem and Ramdas Pophale) SiO2 
 PCOD8314843
Probable space group: P 4/M N C
;
_chemical_formula_sum "Si O2"
_cell_formula_units_Z 88
_cell_length_a 11.466751
_cell_length_b 11.466751
_cell_length_c 32.925275
_cell_angle_alpha 90.000000
_cell_angle_beta 90.000000
_cell_angle_gamma 90.000000
_cell_volume 4329.225171
_symmetry_space_group_name_H-M "P 4/M N C"
_symmetry_group_IT_number 128
_symmetry_cell_setting 'tetragonal'
loop_
_space_group_symop_operation_xyz
x,y,z
-y,x,z
-x,-y,z
y,-x,z
1/2+x,1/2-y,1/2-z
1/2-x,1/2+y,1/2-z
1/2+y,1/2+x,1/2-z
1/2-y,1/2-x,1/2-z
-x,-y,-z
y,-x,-z
x,y,-z
-y,x,-z
1/2-x,1/2+y,1/2+z
1/2+x,1/2-y,1/2+z
1/2-y,1/2-x,1/2+z
1/2+y,1/2+x,1/2+z
loop_
_atom_site_type_symbol
_atom_site_label
_atom_site_fract_x
_atom_site_fract_y
_atom_site_fract_z
Si Si1 0.186060 0.039372 0.279823
Si Si2 0.457647 0.314699 0.687325
Si Si3 0.107178 0.575471 0.841451
Si Si4 0.616908 0.934772 0.567215
Si Si5 0.019938 0.806162 0.500000
Si Si6 0.057410 0.823463 0.951963
O O1 0.230716 0.051155 0.233664
O O2 0.288043 0.060960 0.310862
O O3 0.088437 0.136014 0.287843
O O4 0.586070 0.362808 0.678767
O O5 0.432227 0.210023 0.656647
O O6 0.144425 0.531217 0.886227
O O7 0.000000 0.500000 0.824788
O O8 0.725873 0.973444 0.539907
O O9 0.598807 0.796612 0.567020
O O10 0.500000 0.000000 0.551676
O O11 0.896821 0.872952 0.500000
O O12 0.926139 0.855021 0.937678
O O13 0.060850 0.811490 0.000000
#
# Coordination Sequence:
#
# PCOD8314843 Si02
#       6
#    16  16  16  16   8  16
#     4   9  20  40  64  87 118 166 214 256 305 360
#     4   9  20  40  64  90 123 164 206 252 310 368
#     4  11  25  39  57  95 129 160 205 255 312 371
#     4  11  25  41  64  90 126 167 201 253 319 368
#     4  11  27  48  70  93 118 162 216 259 303 368
#     4   9  19  36  62  93 116 147 198 251 304 364
#
# _framework density 20.326961000000001
#
# number of rings (size 3 to 8) (size 9 to 14) (size 15 to 20)
#    0.000    2.091    0.909    2.455    5.091    4.364 
#    0.000    3.636    0.000    0.000    0.000    0.000 
#    0.000    0.000    0.000    0.000    0.000    0.000 
#
# Total GULP energy -1091336.789924 kJ/mol
# GULP energy per Si atom -12401.554431 kJ/mol
# Density = 2.028070 g / cm^3
# Si number density = 20.326961 Si / 1000 Ang^3
#
#
#
# Elastic Constant Matrix: (Units=GPa)
#
#
# Indices 1 2 3 4 5 6 
#
# 1 102.3428 44.0015 39.9755 0.0000 0.0000 0.0000
# 2 44.0015 102.3428 39.9755 0.0000 0.0000 0.0000
# 3 39.9755 39.9755 79.9033 0.0000 0.0000 0.0000
# 4 0.0000 0.0000 0.0000 12.5066 0.0000 0.0000
# 5 0.0000 0.0000 0.0000 0.0000 12.5066 0.0000
# 6 0.0000 0.0000 0.0000 0.0000 0.0000 8.1715
#
#
#
# Elastic Compliance Matrix: (Units=1/GPa)
#
#
# Indices 1 2 3 4 5 6 
#
# 1 0.013272 -0.003869 -0.004704 0.000000 0.000000 0.000000
# 2 -0.003869 0.013272 -0.004704 0.000000 0.000000 0.000000
# 3 -0.004704 -0.004704 0.017222 0.000000 0.000000 0.000000
# 4 0.000000 0.000000 0.000000 0.079958 0.000000 0.000000
# 5 0.000000 0.000000 0.000000 0.000000 0.079958 0.000000
# 6 0.000000 0.000000 0.000000 0.000000 0.000000 0.122377
#
#
# Mechanical properties :
#
#
# Convention : Reuss Voigt Hill
#
# Bulk Modulus (GPa) = 58.10172 59.16600 58.63386
# Shear Modulus (GPa) = 13.95282 17.34604 15.64943
#
# Velocity S-wave (km/s) = 2.62280 2.92439 2.77769
# Velocity P-wave (km/s) = 6.14961 6.36970 6.26062
#
# Compressibility (1/GPa) = 0.01721119
#
# Stress axis : x y z
#
# Youngs Moduli (GPa) = 75.34694 75.34694 58.06385
#
# Poissons Ratio (x) = 0.29149 0.27316
# Poissons Ratio (y) = 0.29149 0.27316
# Poissons Ratio (z) = 0.35447 0.35447
#
# Static dielectric constant tensor:
#      x y z
#    x 3.794560 0.000000 0.000000 
#    y 0.000000 3.794560 0.000000 
#    z 0.000000 0.000000 3.583530 
# 
# 
# High freq. dielectric constant tensor:
#      x y z
#    x 1.797830 0.000000 0.000000 
#    y 0.000000 1.797830 0.000000 
#    z 0.000000 0.000000 1.793270 
# 
# From -- ./inp_files/7253.got.cif
#   From: 2010.03.12/outbox.cif.g09.slc.cpg/sg128_4_cif.got.tgz:7253.got - 2010.04.06 17:11:05.
