data_PCOD8314611
_publ_section_title
;
Structure prediction by ZEFSAII (Michael W. Deem and Ramdas Pophale) SiO2 
 PCOD8314611
Probable space group: P 4/M N C
;
_chemical_formula_sum "Si O2"
_cell_formula_units_Z 128
_cell_length_a 18.322095
_cell_length_b 18.322095
_cell_length_c 21.116138
_cell_angle_alpha 90.000000
_cell_angle_beta 90.000000
_cell_angle_gamma 90.000000
_cell_volume 7088.669899
_symmetry_space_group_name_H-M "P 4/M N C"
_symmetry_group_IT_number 128
_symmetry_cell_setting 'tetragonal'
loop_
_space_group_symop_operation_xyz
x,y,z
-y,x,z
-x,-y,z
y,-x,z
1/2+x,1/2-y,1/2-z
1/2-x,1/2+y,1/2-z
1/2+y,1/2+x,1/2-z
1/2-y,1/2-x,1/2-z
-x,-y,-z
y,-x,-z
x,y,-z
-y,x,-z
1/2-x,1/2+y,1/2+z
1/2+x,1/2-y,1/2+z
1/2-y,1/2-x,1/2+z
1/2+y,1/2+x,1/2+z
loop_
_atom_site_type_symbol
_atom_site_label
_atom_site_fract_x
_atom_site_fract_y
_atom_site_fract_z
Si Si1 0.397186 0.809019 0.138172
Si Si2 0.183586 0.246646 0.188779
Si Si3 0.890362 0.326559 0.430589
Si Si4 0.029394 0.426655 0.570179
Si Si5 0.202839 0.004060 0.427520
Si Si6 0.741925 0.028036 0.762548
Si Si7 0.616135 0.494071 0.191084
Si Si8 0.373118 0.201422 0.689528
O O1 0.309468 0.796792 0.137258
O O2 0.407428 0.891527 0.112824
O O3 0.432765 0.749863 0.091776
O O4 0.437201 0.807735 0.206964
O O5 0.218572 0.281429 0.250000
O O6 0.095653 0.236173 0.191995
O O7 0.220822 0.167614 0.177787
O O8 0.850761 0.330193 0.500000
O O9 0.964511 0.370361 0.435308
O O10 0.918718 0.244620 0.416269
O O11 0.841260 0.358198 0.375195
O O12 0.060686 0.444983 0.500000
O O13 0.000000 0.500000 0.603406
O O14 0.178905 0.994620 0.500000
O O15 0.131334 0.007016 0.384065
O O16 0.811134 0.989255 0.731365
O O17 0.705745 0.960955 0.801362
O O18 0.575547 0.568467 0.209346
O O19 0.340121 0.159880 0.750000
#
# Coordination Sequence:
#
# PCOD8314611 Si02
#       8
#    16  16  16  16  16  16  16  16
#     4   9  17  32  49  69 102 131 167 207 251 301
#     4   9  20  34  49  73 103 132 166 223 270 309
#     4   9  19  34  50  74 106 137 171 212 252 304
#     4   9  17  29  48  71  99 137 167 194 240 298
#     4   9  18  33  51  72 105 141 172 203 245 305
#     4  10  20  34  51  71  99 132 169 213 268 311
#     4  10  20  33  50  73 100 130 168 213 261 313
#     4  11  20  33  56  78 100 135 182 220 264 317
#
# _framework density 18.056984
#
# number of rings (size 3 to 8) (size 9 to 14) (size 15 to 20)
#    0.000    2.500    0.000    4.125    1.750    4.500 
#    0.000    3.125    0.000    0.750    0.000    0.000 
#    0.000    0.000    0.000    3.875    0.000    0.000 
#
# Total GULP energy -1585929.351174 kJ/mol
# GULP energy per Si atom -12390.073056 kJ/mol
# Density = 1.801589 g / cm^3
# Si number density = 18.056984 Si / 1000 Ang^3
#
#
#
# Elastic Constant Matrix: (Units=GPa)
#
#
# Indices 1 2 3 4 5 6 
#
# 1 60.2024 -3.2790 16.3491 0.0000 0.0000 0.0000
# 2 -3.2790 60.2025 16.3492 0.0000 0.0000 0.0000
# 3 16.3491 16.3492 72.8029 0.0000 0.0000 0.0000
# 4 0.0000 0.0000 0.0000 24.2291 0.0000 0.0000
# 5 0.0000 0.0000 0.0000 0.0000 24.2287 0.0000
# 6 0.0000 0.0000 0.0000 0.0000 0.0000 4.5217
#
#
#
# Elastic Compliance Matrix: (Units=1/GPa)
#
#
# Indices 1 2 3 4 5 6 
#
# 1 0.017961 0.002208 -0.004529 0.000000 0.000000 0.000000
# 2 0.002208 0.017961 -0.004529 0.000000 0.000000 0.000000
# 3 -0.004529 -0.004529 0.015770 0.000000 0.000000 0.000000
# 4 0.000000 0.000000 0.000000 0.041273 0.000000 0.000000
# 5 0.000000 0.000000 0.000000 0.000000 0.041273 0.000000
# 6 0.000000 0.000000 0.000000 0.000000 0.000000 0.221155
#
#
# Mechanical properties :
#
#
# Convention : Reuss Voigt Hill
#
# Bulk Modulus (GPa) = 26.32197 28.00515 27.16356
# Shear Modulus (GPa) = 13.09732 21.51515 17.30624
#
# Velocity S-wave (km/s) = 2.69612 3.45558 3.09920
# Velocity P-wave (km/s) = 4.92960 5.60931 5.28040
#
# Compressibility (1/GPa) = 0.03799108
#
# Stress axis : x y z
#
# Youngs Moduli (GPa) = 55.67635 55.67646 63.41157
#
# Poissons Ratio (x) = -0.12295 0.28721
# Poissons Ratio (y) = -0.12295 0.28721
# Poissons Ratio (z) = 0.25218 0.25218
#
# Static dielectric constant tensor:
#      x y z
#    x 3.458820 0.000000 0.000000 
#    y 0.000000 3.458820 0.000000 
#    z 0.000000 0.000000 3.366620 
# 
# 
# High freq. dielectric constant tensor:
#      x y z
#    x 1.691590 0.000000 0.000000 
#    y 0.000000 1.691590 0.000000 
#    z 0.000000 0.000000 1.679450 
# 
# From -- ./inp_files/6629.got.cif
#   From: 2010.03.12/outbox.cif.g09.slc.cpg/sg128_4_cif.got.tgz:6629.got - 2010.04.06 17:11:05.
