data_PCOD8314694
_publ_section_title
;
Structure prediction by ZEFSAII (Michael W. Deem and Ramdas Pophale) SiO2 
 PCOD8314694
Probable space group: P 4/M N C
;
_chemical_formula_sum "Si O2"
_cell_formula_units_Z 96
_cell_length_a 23.720040
_cell_length_b 23.720040
_cell_length_c 8.956086
_cell_angle_alpha 90.000000
_cell_angle_beta 90.000000
_cell_angle_gamma 90.000000
_cell_volume 5039.054892
_symmetry_space_group_name_H-M "P 4/M N C"
_symmetry_group_IT_number 128
_symmetry_cell_setting 'tetragonal'
loop_
_space_group_symop_operation_xyz
x,y,z
-y,x,z
-x,-y,z
y,-x,z
1/2+x,1/2-y,1/2-z
1/2-x,1/2+y,1/2-z
1/2+y,1/2+x,1/2-z
1/2-y,1/2-x,1/2-z
-x,-y,-z
y,-x,-z
x,y,-z
-y,x,-z
1/2-x,1/2+y,1/2+z
1/2+x,1/2-y,1/2+z
1/2-y,1/2-x,1/2+z
1/2+y,1/2+x,1/2+z
loop_
_atom_site_type_symbol
_atom_site_label
_atom_site_fract_x
_atom_site_fract_y
_atom_site_fract_z
Si Si1 0.559928 0.144329 0.174301
Si Si2 0.061705 0.236452 0.175531
Si Si3 0.567810 0.848567 0.828802
Si Si4 0.054454 0.778104 0.322946
Si Si5 0.423208 0.449223 0.163346
Si Si6 0.862834 0.137267 0.168963
O O1 0.595740 0.095740 0.250000
O O2 0.573506 0.203501 0.251076
O O3 0.494792 0.127479 0.198526
O O4 0.574654 0.149442 0.000000
O O5 0.121026 0.202486 0.202034
O O6 0.006319 0.206397 0.249959
O O7 0.049384 0.242537 0.000000
O O8 0.613328 0.886673 0.750000
O O9 0.571076 0.784562 0.769109
O O10 0.584341 0.849340 0.000000
O O11 0.046318 0.781573 0.500000
O O12 0.107016 0.817666 0.276174
O O13 0.484632 0.422709 0.176698
O O14 0.390031 0.423926 0.302526
O O15 0.398405 0.431722 0.000000
O O16 0.871797 0.157517 0.000000
#
# Coordination Sequence:
#
# PCOD8314694 Si02
#       6
#    16  16  16  16  16  16
#     4  10  21  38  60  87 116 146 181 219 266 324
#     4  10  21  37  56  80 111 146 185 231 281 328
#     4   9  20  37  58  85 113 142 176 215 263 321
#     4  10  21  37  56  79 108 145 187 227 273 327
#     4   9  18  31  46  66  94 130 172 220 275 329
#     4  11  22  33  49  75 103 137 183 228 273 324
#
# _framework density 19.051190999999999
#
# number of rings (size 3 to 8) (size 9 to 14) (size 15 to 20)
#    0.000    2.167    0.000    4.500    0.000   10.333 
#    0.000    3.333    0.000    2.000    0.000    0.000 
#    0.000    0.000    0.000    0.000    0.000    0.000 
#
# Total GULP energy -1189715.028204 kJ/mol
# GULP energy per Si atom -12392.864877 kJ/mol
# Density = 1.900783 g / cm^3
# Si number density = 19.051191 Si / 1000 Ang^3
#
#
#
# Elastic Constant Matrix: (Units=GPa)
#
#
# Indices 1 2 3 4 5 6 
#
# 1 70.0425 44.4367 42.3570 0.0000 0.0000 0.0000
# 2 44.4367 70.0441 42.3594 0.0000 0.0000 0.0000
# 3 42.3570 42.3594 92.1223 0.0000 0.0000 0.0000
# 4 0.0000 0.0000 0.0000 34.2945 0.0000 0.0000
# 5 0.0000 0.0000 0.0000 0.0000 34.2944 0.0000
# 6 0.0000 0.0000 0.0000 0.0000 0.0000 36.1835
#
#
#
# Elastic Compliance Matrix: (Units=1/GPa)
#
#
# Indices 1 2 3 4 5 6 
#
# 1 0.026146 -0.012906 -0.006087 0.000000 0.000000 0.000000
# 2 -0.012906 0.026147 -0.006089 0.000000 0.000000 0.000000
# 3 -0.006087 -0.006089 0.016454 0.000000 0.000000 0.000000
# 4 0.000000 0.000000 0.000000 0.029159 0.000000 0.000000
# 5 0.000000 0.000000 0.000000 0.000000 0.029159 0.000000
# 6 0.000000 0.000000 0.000000 0.000000 0.000000 0.027637
#
#
# Mechanical properties :
#
#
# Convention : Reuss Voigt Hill
#
# Bulk Modulus (GPa) = 53.81413 54.50168 54.15791
# Shear Modulus (GPa) = 23.68996 27.82485 25.75740
#
# Velocity S-wave (km/s) = 3.53014 3.82584 3.68096
# Velocity P-wave (km/s) = 6.70256 6.94162 6.82314
#
# Compressibility (1/GPa) = 0.01858248
#
# Stress axis : x y z
#
# Youngs Moduli (GPa) = 38.24644 38.24599 60.77681
#
# Poissons Ratio (x) = 0.49361 0.36997
# Poissons Ratio (y) = 0.49361 0.37004
# Poissons Ratio (z) = 0.23282 0.23286
#
# Static dielectric constant tensor:
#      x y z
#    x 3.513320 0.000000 0.000000 
#    y 0.000000 3.513320 0.000000 
#    z 0.000000 0.000000 3.567150 
# 
# 
# High freq. dielectric constant tensor:
#      x y z
#    x 1.734300 0.000000 0.000000 
#    y 0.000000 1.734300 0.000000 
#    z 0.000000 0.000000 1.748530 
# 
# From -- ./inp_files/1462.got.cif
#   From: 2010.03.12/outbox.cif.g09.slc.cpg/sg128_1_cif.got.tgz:1462.got - 2010.04.06 17:11:05.
