data_PCOD8314832
_publ_section_title
;
Structure prediction by ZEFSAII (Michael W. Deem and Ramdas Pophale) SiO2 
 PCOD8314832
Probable space group: P 4/M N C
;
_chemical_formula_sum "Si O2"
_cell_formula_units_Z 72
_cell_length_a 15.234614
_cell_length_b 15.234614
_cell_length_c 15.216595
_cell_angle_alpha 90.000000
_cell_angle_beta 90.000000
_cell_angle_gamma 90.000000
_cell_volume 3531.672240
_symmetry_space_group_name_H-M "P 4/M N C"
_symmetry_group_IT_number 128
_symmetry_cell_setting 'tetragonal'
loop_
_space_group_symop_operation_xyz
x,y,z
-y,x,z
-x,-y,z
y,-x,z
1/2+x,1/2-y,1/2-z
1/2-x,1/2+y,1/2-z
1/2+y,1/2+x,1/2-z
1/2-y,1/2-x,1/2-z
-x,-y,-z
y,-x,-z
x,y,-z
-y,x,-z
1/2-x,1/2+y,1/2+z
1/2+x,1/2-y,1/2+z
1/2-y,1/2-x,1/2+z
1/2+y,1/2+x,1/2+z
loop_
_atom_site_type_symbol
_atom_site_label
_atom_site_fract_x
_atom_site_fract_y
_atom_site_fract_z
Si Si1 0.256355 0.958148 0.327749
Si Si2 0.441270 0.084375 0.902084
Si Si3 0.420105 0.249310 0.669241
Si Si4 0.639125 0.460894 0.500000
Si Si5 0.476003 0.641674 0.000000
Si Si6 0.232293 0.267708 0.250000
O O1 0.196296 0.966673 0.412046
O O2 0.266657 0.855338 0.307988
O O3 0.349488 0.999651 0.347949
O O4 0.217253 0.015165 0.246900
O O5 0.353417 0.064712 0.847995
O O6 0.500000 0.000000 0.911477
O O7 0.417691 0.120165 0.000000
O O8 0.446758 0.302972 0.584860
O O9 0.317921 0.266971 0.688600
O O10 0.607133 0.560214 0.500000
O O11 0.399504 0.571381 0.000000
#
# Coordination Sequence:
#
# PCOD8314832 Si02
#       6
#    16  16  16   8   8   8
#     4  12  24  44  69 101 139 173 236 285 347 419
#     4  11  23  42  69  99 140 181 224 290 359 415
#     4  12  24  46  70 101 142 182 233 291 354 422
#     4  11  26  46  69 100 140 188 235 289 345 420
#     4  11  26  44  67  94 134 184 228 280 338 401
#     4  12  26  40  72 106 132 190 230 284 360 416
#
# _framework density 20.386944
#
# number of rings (size 3 to 8) (size 9 to 14) (size 15 to 20)
#    0.000    0.444    4.444    4.000    0.000    1.778 
#    0.000    2.222    0.000    0.000    0.000    0.000 
#    0.000    0.000    0.000    0.000    0.000    0.000 
#
# Total GULP energy -893039.353358 kJ/mol
# GULP energy per Si atom -12403.324352 kJ/mol
# Density = 2.034054 g / cm^3
# Si number density = 20.386944 Si / 1000 Ang^3
#
#
#
# Elastic Constant Matrix: (Units=GPa)
#
#
# Indices 1 2 3 4 5 6 
#
# 1 148.9964 47.8164 76.6710 0.0000 0.0000 0.0000
# 2 47.8164 148.9936 76.6708 0.0000 0.0000 0.0000
# 3 76.6710 76.6708 183.9034 0.0000 0.0000 0.0000
# 4 0.0000 0.0000 0.0000 -52.8920 0.0000 0.0000
# 5 0.0000 0.0000 0.0000 0.0000 -52.8987 0.0000
# 6 0.0000 0.0000 0.0000 0.0000 0.0000 34.0438
#
#
#
# Elastic Compliance Matrix: (Units=1/GPa)
#
#
# Indices 1 2 3 4 5 6 
#
# 1 0.008704 -0.001179 -0.003137 0.000000 0.000000 0.000000
# 2 -0.001179 0.008705 -0.003137 0.000000 0.000000 0.000000
# 3 -0.003137 -0.003137 0.008054 0.000000 0.000000 0.000000
# 4 0.000000 0.000000 0.000000 -0.018906 0.000000 0.000000
# 5 0.000000 0.000000 0.000000 0.000000 -0.018904 0.000000
# 6 0.000000 0.000000 0.000000 0.000000 0.000000 0.029374
#
#
# Mechanical properties :
#
#
# Convention : Reuss Voigt Hill
#
# Bulk Modulus (GPa) = 94.74274 98.24554 96.49414
# Shear Modulus (GPa) = 141.03506 4.36629 72.70068
#
# Velocity S-wave (km/s) = 8.32642 1.46505 5.97811
# Velocity P-wave (km/s) = 11.79034 7.15240 9.75113
#
# Compressibility (1/GPa) = 0.01055490
#
# Stress axis : x y z
#
# Youngs Moduli (GPa) = 114.88442 114.88184 124.16675
#
# Poissons Ratio (x) = 0.13545 0.38956
# Poissons Ratio (y) = 0.13545 0.38957
# Poissons Ratio (z) = 0.36044 0.36044
#
# Static dielectric constant tensor:
#      x y z
#    x 3.891010 0.000000 0.000000 
#    y 0.000000 3.891010 0.000000 
#    z 0.000000 0.000000 3.856620 
# 
# 
# High freq. dielectric constant tensor:
#      x y z
#    x 1.808070 0.000000 0.000000 
#    y 0.000000 1.808070 0.000000 
#    z 0.000000 0.000000 1.819240 
# 
# From -- ./inp_files/4614.got.cif
#   From: 2010.03.12/outbox.cif.g09.slc.cpg/sg128_3_cif.got.tgz:4614.got - 2010.04.06 17:11:05.
