data_PCOD8314365
_publ_section_title
;
Structure prediction by ZEFSAII (Michael W. Deem and Ramdas Pophale) SiO2 
 PCOD8314365
Probable space group: P 4/M B M
;
_chemical_formula_sum "Si O2"
_cell_formula_units_Z 72
_cell_length_a 19.464364
_cell_length_b 19.464364
_cell_length_c 10.185439
_cell_angle_alpha 90.000000
_cell_angle_beta 90.000000
_cell_angle_gamma 90.000000
_cell_volume 3858.870351
_symmetry_space_group_name_H-M "P 4/M B M"
_symmetry_group_IT_number 127
_symmetry_cell_setting 'tetragonal'
loop_
_space_group_symop_operation_xyz
x,y,z
-y,x,z
-x,-y,z
y,-x,z
1/2+x,1/2-y,-z
1/2-x,1/2+y,-z
1/2+y,1/2+x,-z
1/2-y,1/2-x,-z
-x,-y,-z
y,-x,-z
x,y,-z
-y,x,-z
1/2-x,1/2+y,z
1/2+x,1/2-y,z
1/2-y,1/2-x,z
1/2+y,1/2+x,z
loop_
_atom_site_type_symbol
_atom_site_label
_atom_site_fract_x
_atom_site_fract_y
_atom_site_fract_z
Si Si1 0.581974 0.689280 0.645741
Si Si2 0.389889 0.475140 0.000000
Si Si3 0.064986 0.174461 0.733837
Si Si4 0.187069 0.422719 0.848699
Si Si5 0.193018 0.580904 0.149568
O O1 0.605749 0.712441 0.500000
O O2 0.500184 0.676676 0.637275
O O3 0.619611 0.618483 0.681340
O O4 0.602867 0.746240 0.752318
O O5 0.448559 0.418649 0.000000
O O6 0.342925 0.467605 0.874143
O O7 0.099256 0.249494 0.754285
O O8 0.121054 0.378947 0.804062
O O9 0.169682 0.502739 0.827062
O O10 0.205578 0.407195 0.000000
O O11 0.127236 0.627236 0.180295
O O12 0.219169 0.591858 0.000000
#
# Coordination Sequence:
#
# PCOD8314365 Si02
#       5
#    16   8  16  16  16
#     4  11  24  38  55  80 113 152 189 229 278 328
#     4  11  20  32  53  84 108 151 194 237 275 323
#     4  11  21  35  55  78 117 148 189 232 272 328
#     4   9  18  32  55  86 115 142 174 225 287 335
#     4   9  20  38  60  84 109 141 185 233 279 334
#
# _framework density 18.658308999999999
#
# number of rings (size 3 to 8) (size 9 to 14) (size 15 to 20)
#    0.000    1.889    3.333    0.667    3.111    2.222 
#    0.000    5.556    0.000   16.000    0.000    6.222 
#    0.000    0.000    0.000    0.000    0.000    0.000 
#
# Total GULP energy -892801.202840 kJ/mol
# GULP energy per Si atom -12400.016706 kJ/mol
# Density = 1.861584 g / cm^3
# Si number density = 18.658309 Si / 1000 Ang^3
#
#
#
# Elastic Constant Matrix: (Units=GPa)
#
#
# Indices 1 2 3 4 5 6 
#
# 1 77.1483 40.3098 21.1780 0.0000 0.0000 0.0000
# 2 40.3098 77.1483 21.1780 0.0000 0.0000 0.0000
# 3 21.1780 21.1780 83.1629 0.0000 0.0000 0.0000
# 4 0.0000 0.0000 0.0000 102.4089 0.0000 0.0000
# 5 0.0000 0.0000 0.0000 0.0000 102.4089 0.0000
# 6 0.0000 0.0000 0.0000 0.0000 0.0000 36.3863
#
#
#
# Elastic Compliance Matrix: (Units=1/GPa)
#
#
# Indices 1 2 3 4 5 6 
#
# 1 0.018260 -0.008885 -0.002387 0.000000 0.000000 0.000000
# 2 -0.008885 0.018260 -0.002387 0.000000 0.000000 0.000000
# 3 -0.002387 -0.002387 0.013240 0.000000 0.000000 0.000000
# 4 0.000000 0.000000 0.000000 0.009765 0.000000 0.000000
# 5 0.000000 0.000000 0.000000 0.000000 0.009765 0.000000
# 6 0.000000 0.000000 0.000000 0.000000 0.000000 0.027483
#
#
# Mechanical properties :
#
#
# Convention : Reuss Voigt Hill
#
# Bulk Modulus (GPa) = 44.56250 44.75457 44.65853
# Shear Modulus (GPa) = 38.00166 58.56041 48.28103
#
# Velocity S-wave (km/s) = 4.51789 5.60837 5.09241
# Velocity P-wave (km/s) = 7.15195 8.12262 7.65269
#
# Compressibility (1/GPa) = 0.02244039
#
# Stress axis : x y z
#
# Youngs Moduli (GPa) = 54.76441 54.76441 75.52599
#
# Poissons Ratio (x) = 0.48661 0.18030
# Poissons Ratio (y) = 0.48661 0.18030
# Poissons Ratio (z) = 0.13074 0.13074
#
# Static dielectric constant tensor:
#      x y z
#    x 3.404690 0.000000 0.000000 
#    y 0.000000 3.404690 0.000000 
#    z 0.000000 0.000000 3.418700 
# 
# 
# High freq. dielectric constant tensor:
#      x y z
#    x 1.721280 0.000000 0.000000 
#    y 0.000000 1.721280 0.000000 
#    z 0.000000 0.000000 1.716230 
# 
# From -- ./inp_files/1569.got.cif
#   From: 2010.03.12/outbox.cif.g09.slc.cpg/sg127_1_cif.got.tgz:1569.got - 2010.04.06 17:03:15.
