data_PCOD8314178
_publ_section_title
;
Structure prediction by ZEFSAII (Michael W. Deem and Ramdas Pophale) SiO2 
 PCOD8314178
Probable space group: P 4/M B M
;
_chemical_formula_sum "Si O2"
_cell_formula_units_Z 88
_cell_length_a 18.345671
_cell_length_b 18.345671
_cell_length_c 14.462095
_cell_angle_alpha 90.000000
_cell_angle_beta 90.000000
_cell_angle_gamma 90.000000
_cell_volume 4867.415399
_symmetry_space_group_name_H-M "P 4/M B M"
_symmetry_group_IT_number 127
_symmetry_cell_setting 'tetragonal'
loop_
_space_group_symop_operation_xyz
x,y,z
-y,x,z
-x,-y,z
y,-x,z
1/2+x,1/2-y,-z
1/2-x,1/2+y,-z
1/2+y,1/2+x,-z
1/2-y,1/2-x,-z
-x,-y,-z
y,-x,-z
x,y,-z
-y,x,-z
1/2-x,1/2+y,z
1/2+x,1/2-y,z
1/2-y,1/2-x,z
1/2+y,1/2+x,z
loop_
_atom_site_type_symbol
_atom_site_label
_atom_site_fract_x
_atom_site_fract_y
_atom_site_fract_z
Si Si1 0.138854 0.832539 0.000000
Si Si2 0.390673 0.450939 0.500000
Si Si3 0.560577 0.060577 0.742962
Si Si4 0.300740 0.399922 0.675346
Si Si5 0.288749 0.999917 0.190944
Si Si6 0.718050 0.519892 0.000000
Si Si7 0.843310 0.227514 0.197814
Si Si8 0.150857 0.349144 0.395511
O O1 0.160152 0.916160 0.000000
O O2 0.169880 0.793717 0.908846
O O3 0.051852 0.831090 0.000000
O O4 0.463562 0.404259 0.500000
O O5 0.348962 0.433568 0.594424
O O6 0.522749 0.126965 0.797820
O O7 0.595120 0.095120 0.651835
O O8 0.500000 0.000000 0.718591
O O9 0.268304 0.462426 0.740292
O O10 0.348356 0.343822 0.737157
O O11 0.234508 0.359736 0.627418
O O12 0.278189 0.085710 0.207215
O O13 0.270555 0.975802 0.087632
O O14 0.774184 0.274184 0.230706
O O15 0.134241 0.365760 0.500000
#
# Coordination Sequence:
#
# PCOD8314178 Si02
#       8
#     8   8   8  16  16   8  16   8
#     4  10  21  35  57  80 119 152 190 238 282 352
#     4  11  24  39  56  80 113 151 190 235 295 360
#     4  10  22  40  60  86 119 161 197 241 300 356
#     4  11  20  37  61  83 112 151 187 242 295 341
#     4  10  22  37  59  86 119 155 196 241 290 357
#     4  10  20  38  55  85 116 155 195 235 296 340
#     4  11  21  36  58  87 115 151 193 244 288 341
#     4  10  20  37  61  87 110 147 195 239 294 343
#
# _framework density 18.079409999999999
#
# number of rings (size 3 to 8) (size 9 to 14) (size 15 to 20)
#    0.000    1.545    3.636    1.909    0.000    0.727 
#    1.636    1.818    0.000    0.000    0.000    0.000 
#    0.000    0.000    0.000    0.000    0.000    0.000 
#
# Total GULP energy -1091125.454176 kJ/mol
# GULP energy per Si atom -12399.152888 kJ/mol
# Density = 1.803826 g / cm^3
# Si number density = 18.079410 Si / 1000 Ang^3
#
#
#
# Elastic Constant Matrix: (Units=GPa)
#
#
# Indices 1 2 3 4 5 6 
#
# 1 195.2143 -39.2234 46.5802 0.0000 0.0000 0.0000
# 2 -39.2234 195.2146 46.5804 0.0000 0.0000 0.0000
# 3 46.5802 46.5804 130.0629 0.0000 0.0000 0.0000
# 4 0.0000 0.0000 0.0000 39.8312 0.0000 0.0000
# 5 0.0000 0.0000 0.0000 0.0000 39.8321 0.0000
# 6 0.0000 0.0000 0.0000 0.0000 0.0000 31.1769
#
#
#
# Elastic Compliance Matrix: (Units=1/GPa)
#
#
# Indices 1 2 3 4 5 6 
#
# 1 0.006210 0.001945 -0.002921 0.000000 0.000000 0.000000
# 2 0.001945 0.006210 -0.002921 0.000000 0.000000 0.000000
# 3 -0.002921 -0.002921 0.009780 0.000000 0.000000 0.000000
# 4 0.000000 0.000000 0.000000 0.025106 0.000000 0.000000
# 5 0.000000 0.000000 0.000000 0.000000 0.025105 0.000000
# 6 0.000000 0.000000 0.000000 0.000000 0.000000 0.032075
#
#
# Mechanical properties :
#
#
# Convention : Reuss Voigt Hill
#
# Bulk Modulus (GPa) = 69.40602 69.81847 69.61224
# Shear Modulus (GPa) = 42.70487 53.27169 47.98828
#
# Velocity S-wave (km/s) = 4.86539 5.43409 5.15758
# Velocity P-wave (km/s) = 8.36872 8.83595 8.60551
#
# Compressibility (1/GPa) = 0.01440797
#
# Stress axis : x y z
#
# Youngs Moduli (GPa) = 161.02610 161.02622 102.24434
#
# Poissons Ratio (x) = -0.31314 0.29861
# Poissons Ratio (y) = -0.31314 0.29861
# Poissons Ratio (z) = 0.47028 0.47028
#
# Static dielectric constant tensor:
#      x y z
#    x 3.309710 0.000000 0.000000 
#    y 0.000000 3.309700 0.000000 
#    z 0.000000 0.000000 3.495930 
# 
# 
# High freq. dielectric constant tensor:
#      x y z
#    x 1.706150 0.000000 0.000000 
#    y 0.000000 1.706150 0.000000 
#    z 0.000000 0.000000 1.709810 
# 
# From -- ./inp_files/4480.got.cif
#   From: 2010.03.12/outbox.cif.g09.slc.cpg/sg127_3_cif.got.tgz:4480.got - 2010.04.06 17:03:15.
