data_PCOD8314699
_publ_section_title
;
Structure prediction by ZEFSAII (Michael W. Deem and Ramdas Pophale) SiO2 
 PCOD8314699
Probable space group: P 4/M N C
;
_chemical_formula_sum "Si O2"
_cell_formula_units_Z 96
_cell_length_a 14.632395
_cell_length_b 14.632395
_cell_length_c 20.023493
_cell_angle_alpha 90.000000
_cell_angle_beta 90.000000
_cell_angle_gamma 90.000000
_cell_volume 4287.169684
_symmetry_space_group_name_H-M "P 4/M N C"
_symmetry_group_IT_number 128
_symmetry_cell_setting 'tetragonal'
loop_
_space_group_symop_operation_xyz
x,y,z
-y,x,z
-x,-y,z
y,-x,z
1/2+x,1/2-y,1/2-z
1/2-x,1/2+y,1/2-z
1/2+y,1/2+x,1/2-z
1/2-y,1/2-x,1/2-z
-x,-y,-z
y,-x,-z
x,y,-z
-y,x,-z
1/2-x,1/2+y,1/2+z
1/2+x,1/2-y,1/2+z
1/2-y,1/2-x,1/2+z
1/2+y,1/2+x,1/2+z
loop_
_atom_site_type_symbol
_atom_site_label
_atom_site_fract_x
_atom_site_fract_y
_atom_site_fract_z
Si Si1 0.588766 0.951112 0.395074
Si Si2 0.884659 0.687430 0.355840
Si Si3 0.929372 0.256397 0.500000
Si Si4 0.390286 0.696456 0.357368
Si Si5 0.739817 0.623327 0.000000
Si Si6 0.067209 0.129642 0.284767
Si Si7 0.245770 0.567455 0.578777
O O1 0.678250 0.932964 0.437430
O O2 0.560655 0.847385 0.375839
O O3 0.500000 0.000000 0.428946
O O4 0.625982 0.023984 0.339230
O O5 0.795600 0.636781 0.327464
O O6 0.867426 0.694581 0.435759
O O7 0.889224 0.787413 0.324707
O O8 0.839318 0.196998 0.500000
O O9 0.021426 0.194385 0.500000
O O10 0.422766 0.637681 0.294673
O O11 0.473382 0.700092 0.410062
O O12 0.304760 0.652418 0.395631
O O13 0.961360 0.121700 0.305717
O O14 0.222546 0.580254 0.500000
#
# Coordination Sequence:
#
# PCOD8314699 Si02
#       7
#    16  16   8  16   8  16  16
#     4  11  22  42  65 101 138 183 222 273 353 417
#     4  11  26  43  72 101 141 182 235 287 348 416
#     4  10  21  37  60  92 143 176 217 275 333 424
#     4  12  25  48  72 104 139 187 236 291 345 420
#     4  10  24  39  64 106 139 176 226 293 344 409
#     4  11  26  50  72  95 135 191 238 287 349 412
#     4  12  26  42  75 108 145 181 227 288 356 418
#
# _framework density 22.392396000000002
#
# number of rings (size 3 to 8) (size 9 to 14) (size 15 to 20)
#    0.000    0.833    4.167    2.250    9.333    0.500 
#    0.000    1.667    0.000    0.000    0.000    0.000 
#    0.000    0.000    0.000    0.000    0.000    0.000 
#
# Total GULP energy -1189667.369058 kJ/mol
# GULP energy per Si atom -12392.368428 kJ/mol
# Density = 2.234143 g / cm^3
# Si number density = 22.392396 Si / 1000 Ang^3
#
#
#
# Elastic Constant Matrix: (Units=GPa)
#
#
# Indices 1 2 3 4 5 6 
#
# 1 113.1720 49.0476 9.4439 0.0000 0.0000 0.0000
# 2 49.0476 113.1720 9.4439 0.0000 0.0000 0.0000
# 3 9.4439 9.4439 47.2792 0.0000 0.0000 0.0000
# 4 0.0000 0.0000 0.0000 28.8927 0.0000 0.0000
# 5 0.0000 0.0000 0.0000 0.0000 28.8927 0.0000
# 6 0.0000 0.0000 0.0000 0.0000 0.0000 49.4388
#
#
#
# Elastic Compliance Matrix: (Units=1/GPa)
#
#
# Indices 1 2 3 4 5 6 
#
# 1 0.010953 -0.004642 -0.001261 0.000000 0.000000 0.000000
# 2 -0.004642 0.010953 -0.001261 0.000000 0.000000 0.000000
# 3 -0.001261 -0.001261 0.021655 0.000000 0.000000 0.000000
# 4 0.000000 0.000000 0.000000 0.034611 0.000000 0.000000
# 5 0.000000 0.000000 0.000000 0.000000 0.034611 0.000000
# 6 0.000000 0.000000 0.000000 0.000000 0.000000 0.020227
#
#
# Mechanical properties :
#
#
# Convention : Reuss Voigt Hill
#
# Bulk Modulus (GPa) = 34.20618 45.49932 39.85275
# Shear Modulus (GPa) = 31.83090 35.15737 33.49413
#
# Velocity S-wave (km/s) = 3.77438 3.96669 3.87173
# Velocity P-wave (km/s) = 5.85692 6.42983 6.15005
#
# Compressibility (1/GPa) = 0.02923448
#
# Stress axis : x y z
#
# Youngs Moduli (GPa) = 91.29943 91.29943 46.17962
#
# Poissons Ratio (x) = 0.42379 0.05822
# Poissons Ratio (y) = 0.42379 0.05822
# Poissons Ratio (z) = 0.11510 0.11510
#
# Static dielectric constant tensor:
#      x y z
#    x 4.372840 0.000000 0.000000 
#    y 0.000000 4.372840 0.000000 
#    z 0.000000 0.000000 3.764530 
# 
# 
# High freq. dielectric constant tensor:
#      x y z
#    x 1.901770 0.000000 0.000000 
#    y 0.000000 1.901770 0.000000 
#    z 0.000000 0.000000 1.840730 
# 
# From -- ./inp_files/5813.got.cif
#   From: 2010.03.12/outbox.cif.g09.slc.cpg/sg128_3_cif.got.tgz:5813.got - 2010.04.06 17:11:05.
