data_PCOD8314957
_publ_section_title
;
Structure prediction by ZEFSAII (Michael W. Deem and Ramdas Pophale) SiO2 
 PCOD8314957
Probable space group: P 4/N M M
;
_chemical_formula_sum "Si O2"
_cell_formula_units_Z 128
_cell_length_a 21.220099
_cell_length_b 21.220099
_cell_length_c 17.290029
_cell_angle_alpha 90.000000
_cell_angle_beta 90.000000
_cell_angle_gamma 90.000000
_cell_volume 7785.572140
_symmetry_space_group_name_H-M "P 4/N M M"
_symmetry_group_IT_number 129
_symmetry_cell_setting 'tetragonal'
loop_
_space_group_symop_operation_xyz
x,y,z
1/2-y,x,z
1/2-x,1/2-y,z
y,1/2-x,z
1/2+x,-y,-z
-x,1/2+y,-z
1/2+y,1/2+x,-z
-y,-x,-z
-x,-y,-z
1/2+y,-x,-z
1/2+x,1/2+y,-z
-y,1/2+x,-z
1/2-x,y,z
x,1/2-y,z
1/2-y,1/2-x,z
y,x,z
loop_
_atom_site_type_symbol
_atom_site_label
_atom_site_fract_x
_atom_site_fract_y
_atom_site_fract_z
Si Si1 0.149091 0.818959 0.913407
Si Si2 0.822532 0.572813 0.574444
Si Si3 0.006138 0.598125 0.467851
Si Si4 0.180734 0.502935 0.111535
Si Si5 0.917925 0.020255 0.294177
Si Si6 0.099743 0.999940 0.977028
Si Si7 0.877913 0.521032 0.726770
Si Si8 0.321981 0.552874 0.840077
O O1 0.171056 0.750000 0.882505
O O2 0.074307 0.821120 0.916617
O O3 0.175695 0.872225 0.855873
O O4 0.173752 0.826249 0.000000
O O5 0.750000 0.592042 0.563157
O O6 0.864579 0.635421 0.563049
O O7 0.840040 0.518369 0.512545
O O8 0.831798 0.543446 0.659241
O O9 0.074003 0.574003 0.500000
O O10 0.009361 0.614275 0.377180
O O11 0.956511 0.543490 0.486109
O O12 0.250000 0.473205 0.101765
O O13 0.162548 0.499648 0.200480
O O14 0.132350 0.468797 0.052971
O O15 0.863013 0.033578 0.233659
O O16 0.962975 0.080521 0.303069
O O17 0.959214 0.959214 0.269010
O O18 0.152018 0.985410 0.913252
O O19 0.064619 0.935382 0.000000
O O20 0.049547 0.049547 0.943012
O O21 0.922102 0.577899 0.753937
O O22 0.250000 0.532507 0.825147
#
# Coordination Sequence:
#
# PCOD8314957 Si02
#       8
#    16  16  16  16  16  16  16  16
#     4  11  21  33  47  64  93 131 169 204 242 288
#     4  10  20  33  52  79 109 141 173 206 253 314
#     4   9  16  31  54  77  99 126 162 209 258 305
#     4  11  19  30  47  70  98 127 164 203 243 294
#     4  10  19  33  53  76 103 130 160 208 266 303
#     4  11  20  33  50  68  93 125 164 207 259 304
#     4  10  18  31  51  75 102 131 167 208 255 300
#     4  12  22  34  48  70 101 132 172 208 245 301
#
# _framework density 16.440667000000001
#
# number of rings (size 3 to 8) (size 9 to 14) (size 15 to 20)
#    0.000    1.500    5.000    1.875    0.000    3.500 
#    0.000    0.000    0.000    0.000    0.000    0.000 
#    0.000   20.000    0.000    0.000    0.000    0.000 
#
# Total GULP energy -1586984.614026 kJ/mol
# GULP energy per Si atom -12398.317297 kJ/mol
# Density = 1.640325 g / cm^3
# Si number density = 16.440667 Si / 1000 Ang^3
#
#
#
# Elastic Constant Matrix: (Units=GPa)
#
#
# Indices 1 2 3 4 5 6 
#
# 1 81.2159 43.1365 43.3141 0.0000 0.0000 0.0000
# 2 43.1365 81.2165 43.3136 0.0000 0.0000 0.0000
# 3 43.3141 43.3136 91.9558 0.0000 0.0000 0.0000
# 4 0.0000 0.0000 0.0000 18.5060 0.0000 0.0000
# 5 0.0000 0.0000 0.0000 0.0000 18.5064 0.0000
# 6 0.0000 0.0000 0.0000 0.0000 0.0000 13.5900
#
#
#
# Elastic Compliance Matrix: (Units=1/GPa)
#
#
# Indices 1 2 3 4 5 6 
#
# 1 0.019115 -0.007146 -0.005638 0.000000 0.000000 0.000000
# 2 -0.007146 0.019115 -0.005638 0.000000 0.000000 0.000000
# 3 -0.005638 -0.005638 0.016186 0.000000 0.000000 0.000000
# 4 0.000000 0.000000 0.000000 0.054037 0.000000 0.000000
# 5 0.000000 0.000000 0.000000 0.000000 0.054035 0.000000
# 6 0.000000 0.000000 0.000000 0.000000 0.000000 0.073583
#
#
# Mechanical properties :
#
#
# Convention : Reuss Voigt Hill
#
# Bulk Modulus (GPa) = 56.90567 57.10183 57.00375
# Shear Modulus (GPa) = 17.93583 18.42874 18.18228
#
# Velocity S-wave (km/s) = 3.30653 3.35165 3.32917
# Velocity P-wave (km/s) = 7.01893 7.05589 7.03743
#
# Compressibility (1/GPa) = 0.01757294
#
# Stress axis : x y z
#
# Youngs Moduli (GPa) = 52.31478 52.31568 61.78210
#
# Poissons Ratio (x) = 0.37384 0.34832
# Poissons Ratio (y) = 0.37383 0.34831
# Poissons Ratio (z) = 0.29495 0.29494
#
# Static dielectric constant tensor:
#      x y z
#    x 3.050760 0.000000 0.000000 
#    y 0.000000 3.050760 0.000000 
#    z 0.000000 0.000000 3.119210 
# 
# 
# High freq. dielectric constant tensor:
#      x y z
#    x 1.618000 0.000000 0.000000 
#    y 0.000000 1.618000 0.000000 
#    z 0.000000 0.000000 1.635720 
# 
# From -- ./inp_files/6107.got.cif
#   From: 2010.03.12/outbox.cif.g09.slc.cpg/sg129_4_cif.got.tgz:6107.got - 2010.04.06 17:19:44.
