data_PCOD8314659
_publ_section_title
;
Structure prediction by ZEFSAII (Michael W. Deem and Ramdas Pophale) SiO2 
 PCOD8314659
Probable space group: P 4/M N C
;
_chemical_formula_sum "Si O2"
_cell_formula_units_Z 96
_cell_length_a 24.047272
_cell_length_b 24.047272
_cell_length_c 8.528195
_cell_angle_alpha 90.000000
_cell_angle_beta 90.000000
_cell_angle_gamma 90.000000
_cell_volume 4931.610329
_symmetry_space_group_name_H-M "P 4/M N C"
_symmetry_group_IT_number 128
_symmetry_cell_setting 'tetragonal'
loop_
_space_group_symop_operation_xyz
x,y,z
-y,x,z
-x,-y,z
y,-x,z
1/2+x,1/2-y,1/2-z
1/2-x,1/2+y,1/2-z
1/2+y,1/2+x,1/2-z
1/2-y,1/2-x,1/2-z
-x,-y,-z
y,-x,-z
x,y,-z
-y,x,-z
1/2-x,1/2+y,1/2+z
1/2+x,1/2-y,1/2+z
1/2-y,1/2-x,1/2+z
1/2+y,1/2+x,1/2+z
loop_
_atom_site_type_symbol
_atom_site_label
_atom_site_fract_x
_atom_site_fract_y
_atom_site_fract_z
Si Si1 0.001531 0.274040 0.820116
Si Si2 0.188725 0.193352 0.828137
Si Si3 0.293546 0.123477 0.812925
Si Si4 0.100770 0.901615 0.825536
Si Si5 0.841271 0.999330 0.320102
Si Si6 0.121646 0.295469 0.316317
O O1 0.001824 0.208179 0.804273
O O2 0.056884 0.296078 0.734430
O O3 0.940888 0.293042 0.751442
O O4 0.006857 0.291788 0.000000
O O5 0.242892 0.163216 0.748841
O O6 0.144723 0.145893 0.852546
O O7 0.160397 0.242980 0.730975
O O8 0.204858 0.217713 0.000000
O O9 0.351035 0.148966 0.750000
O O10 0.290124 0.122612 0.000000
O O11 0.122438 0.947003 0.706648
O O12 0.051553 0.878957 0.722695
O O13 0.082899 0.923558 0.000000
O O14 0.820017 0.996699 0.500000
O O15 0.148272 0.351729 0.250000
O O16 0.121937 0.297304 0.500000
#
# Coordination Sequence:
#
# PCOD8314659 Si02
#       6
#    16  16  16  16  16  16
#     4  11  22  41  63  86 120 162 200 240 297 363
#     4  10  20  37  60  88 122 161 200 243 296 356
#     4  10  22  39  61  90 122 157 197 240 292 351
#     4  11  22  39  61  82 115 161 206 248 302 359
#     4  12  24  38  58  87 118 153 205 259 302 350
#     4  12  25  40  61  92 124 159 201 248 302 356
#
# _framework density 19.466258
#
# number of rings (size 3 to 8) (size 9 to 14) (size 15 to 20)
#    0.000    1.000    3.333    4.500    0.000    4.333 
#    0.000    1.667    0.000    0.500    0.000    3.500 
#    0.000    0.000    0.000    0.000    0.000    0.000 
#
# Total GULP energy -1189549.422557 kJ/mol
# GULP energy per Si atom -12391.139818 kJ/mol
# Density = 1.942195 g / cm^3
# Si number density = 19.466258 Si / 1000 Ang^3
#
#
#
# Elastic Constant Matrix: (Units=GPa)
#
#
# Indices 1 2 3 4 5 6 
#
# 1 928.3786 -732.6579 33.4402 0.0000 0.0000 0.0000
# 2 -732.6579 928.6171 33.2351 0.0000 0.0000 0.0000
# 3 33.4402 33.2351 93.5533 0.0000 0.0000 0.0000
# 4 0.0000 0.0000 0.0000 27.7393 0.0000 0.0000
# 5 0.0000 0.0000 0.0000 0.0000 27.7393 0.0000
# 6 0.0000 0.0000 0.0000 0.0000 0.0000 36.8714
#
#
#
# Elastic Compliance Matrix: (Units=1/GPa)
#
#
# Indices 1 2 3 4 5 6 
#
# 1 0.003207 0.002605 -0.002072 0.000000 0.000000 0.000000
# 2 0.002605 0.003206 -0.002070 0.000000 0.000000 0.000000
# 3 -0.002072 -0.002070 0.012165 0.000000 0.000000 0.000000
# 4 0.000000 0.000000 0.000000 0.036050 0.000000 0.000000
# 5 0.000000 0.000000 0.000000 0.000000 0.036050 0.000000
# 6 0.000000 0.000000 0.000000 0.000000 0.000000 0.027121
#
#
# Mechanical properties :
#
#
# Convention : Reuss Voigt Hill
#
# Bulk Modulus (GPa) = 64.49894 68.73153 66.61524
# Shear Modulus (GPa) = 39.66947 192.90543 116.28745
#
# Velocity S-wave (km/s) = 4.51916 9.96556 7.73742
# Velocity P-wave (km/s) = 7.77406 12.95381 10.68263
#
# Compressibility (1/GPa) = 0.01550413
#
# Stress axis : x y z
#
# Youngs Moduli (GPa) = 311.78969 311.92059 82.20317
#
# Poissons Ratio (x) = -0.81244 0.17030
# Poissons Ratio (y) = -0.81210 0.17016
# Poissons Ratio (z) = 0.64595 0.64566
#
# Static dielectric constant tensor:
#      x y z
#    x 3.690210 0.000000 0.000000 
#    y 0.000000 3.690210 0.000000 
#    z 0.000000 0.000000 3.549000 
# 
# 
# High freq. dielectric constant tensor:
#      x y z
#    x 1.753910 0.000000 0.000000 
#    y 0.000000 1.753910 0.000000 
#    z 0.000000 0.000000 1.760120 
# 
# From -- ./inp_files/1441.got.cif
#   From: 2010.03.12/outbox.cif.g09.slc.cpg/sg128_1_cif.got.tgz:1441.got - 2010.04.06 17:11:05.
