data_PCOD8314172
_publ_section_title
;
Structure prediction by ZEFSAII (Michael W. Deem and Ramdas Pophale) SiO2 
 PCOD8314172
Probable space group: P 4/M B M
;
_chemical_formula_sum "Si O2"
_cell_formula_units_Z 128
_cell_length_a 23.568639
_cell_length_b 23.568639
_cell_length_c 12.754294
_cell_angle_alpha 90.000000
_cell_angle_beta 90.000000
_cell_angle_gamma 90.000000
_cell_volume 7084.764724
_symmetry_space_group_name_H-M "P 4/M B M"
_symmetry_group_IT_number 127
_symmetry_cell_setting 'tetragonal'
loop_
_space_group_symop_operation_xyz
x,y,z
-y,x,z
-x,-y,z
y,-x,z
1/2+x,1/2-y,-z
1/2-x,1/2+y,-z
1/2+y,1/2+x,-z
1/2-y,1/2-x,-z
-x,-y,-z
y,-x,-z
x,y,-z
-y,x,-z
1/2-x,1/2+y,z
1/2+x,1/2-y,z
1/2-y,1/2-x,z
1/2+y,1/2+x,z
loop_
_atom_site_type_symbol
_atom_site_label
_atom_site_fract_x
_atom_site_fract_y
_atom_site_fract_z
Si Si1 0.047235 0.189516 0.121379
Si Si2 0.278691 0.016578 0.746599
Si Si3 0.844788 0.749026 0.387254
Si Si4 0.126839 0.720143 0.877612
Si Si5 0.551970 0.674090 0.621723
Si Si6 0.657512 0.065617 0.620836
Si Si7 0.663382 0.344479 0.226637
Si Si8 0.406743 0.499961 0.760918
O O1 0.107971 0.166628 0.158010
O O2 0.028679 0.247064 0.178899
O O3 0.001062 0.139820 0.145373
O O4 0.048611 0.203410 0.000000
O O5 0.297852 0.071194 0.812975
O O6 0.238121 0.034846 0.650090
O O7 0.336008 0.989365 0.696115
O O8 0.847734 0.781411 0.500000
O O9 0.801053 0.698948 0.397348
O O10 0.904929 0.719095 0.365441
O O11 0.824362 0.789613 0.296093
O O12 0.177218 0.677218 0.847816
O O13 0.145655 0.783855 0.849925
O O14 0.112099 0.717510 0.000000
O O15 0.567070 0.670007 0.500000
O O16 0.603878 0.653653 0.694063
O O17 0.501492 0.629425 0.651661
O O18 0.647159 0.048213 0.500000
O O19 0.605671 0.105671 0.659440
O O20 0.444102 0.444150 0.769353
#
# Coordination Sequence:
#
# PCOD8314172 Si02
#       8
#    16  16  16  16  16  16  16  16
#     4  11  22  35  53  75 102 142 185 234 284 324
#     4  10  20  37  57  81 112 142 181 230 274 336
#     4   9  17  29  49  78 111 145 174 206 257 322
#     4  10  22  39  60  82 106 146 193 234 281 334
#     4  10  21  34  52  76 105 142 181 226 276 327
#     4   9  17  31  55  86 117 147 176 210 262 331
#     4  11  19  35  53  78 112 140 181 229 272 331
#     4  10  21  38  49  67  97 131 187 233 279 325
#
# _framework density 18.066936999999999
#
# number of rings (size 3 to 8) (size 9 to 14) (size 15 to 20)
#    0.000    2.000    2.500    2.625    0.000    1.000 
#    0.000    1.250    0.000   10.125    0.000    1.750 
#    0.000    0.000    0.000    0.000    0.000    0.000 
#
# Total GULP energy -1586583.863867 kJ/mol
# GULP energy per Si atom -12395.186436 kJ/mol
# Density = 1.802582 g / cm^3
# Si number density = 18.066937 Si / 1000 Ang^3
#
#
#
# Elastic Constant Matrix: (Units=GPa)
#
#
# Indices 1 2 3 4 5 6 
#
# 1 71.0895 28.8823 36.3785 0.0000 0.0000 0.0000
# 2 28.8823 71.0895 36.3785 0.0000 0.0000 0.0000
# 3 36.3785 36.3785 106.5447 0.0000 0.0000 0.0000
# 4 0.0000 0.0000 0.0000 24.7237 0.0000 0.0000
# 5 0.0000 0.0000 0.0000 0.0000 24.7237 0.0000
# 6 0.0000 0.0000 0.0000 0.0000 0.0000 23.6652
#
#
#
# Elastic Compliance Matrix: (Units=1/GPa)
#
#
# Indices 1 2 3 4 5 6 
#
# 1 0.018501 -0.005191 -0.004545 0.000000 0.000000 0.000000
# 2 -0.005191 0.018501 -0.004545 0.000000 0.000000 0.000000
# 3 -0.004545 -0.004545 0.012489 0.000000 0.000000 0.000000
# 4 0.000000 0.000000 0.000000 0.040447 0.000000 0.000000
# 5 0.000000 0.000000 0.000000 0.000000 0.040447 0.000000
# 6 0.000000 0.000000 0.000000 0.000000 0.000000 0.042256
#
#
# Mechanical properties :
#
#
# Convention : Reuss Voigt Hill
#
# Bulk Modulus (GPa) = 47.77567 50.22250 48.99909
# Shear Modulus (GPa) = 24.01763 24.42813 24.22288
#
# Velocity S-wave (km/s) = 3.65001 3.68107 3.66557
# Velocity P-wave (km/s) = 6.65316 6.77683 6.71528
#
# Compressibility (1/GPa) = 0.02093116
#
# Stress axis : x y z
#
# Youngs Moduli (GPa) = 54.04977 54.04977 80.06928
#
# Poissons Ratio (x) = 0.28058 0.36389
# Poissons Ratio (y) = 0.28058 0.36389
# Poissons Ratio (z) = 0.24564 0.24564
#
# Static dielectric constant tensor:
#      x y z
#    x 3.300630 0.000000 0.000000 
#    y 0.000000 3.300630 0.000000 
#    z 0.000000 0.000000 3.323920 
# 
# 
# High freq. dielectric constant tensor:
#      x y z
#    x 1.690070 0.000000 0.000000 
#    y 0.000000 1.690070 0.000000 
#    z 0.000000 0.000000 1.695370 
# 
# From -- ./inp_files/3870.got.cif
#   From: 2010.03.12/outbox.cif.g09.slc.cpg/sg127_2_cif.got.tgz:3870.got - 2010.04.06 17:03:15.
