data_PCOD8314900
_publ_section_title
;
Structure prediction by ZEFSAII (Michael W. Deem and Ramdas Pophale) SiO2 
 PCOD8314900
Probable space group: P 4/N M M
;
_chemical_formula_sum "Si O2"
_cell_formula_units_Z 64
_cell_length_a 21.893644
_cell_length_b 21.893644
_cell_length_c 9.184029
_cell_angle_alpha 90.000000
_cell_angle_beta 90.000000
_cell_angle_gamma 90.000000
_cell_volume 4402.195752
_symmetry_space_group_name_H-M "P 4/N M M"
_symmetry_group_IT_number 129
_symmetry_cell_setting 'tetragonal'
loop_
_space_group_symop_operation_xyz
x,y,z
1/2-y,x,z
1/2-x,1/2-y,z
y,1/2-x,z
1/2+x,-y,-z
-x,1/2+y,-z
1/2+y,1/2+x,-z
-y,-x,-z
-x,-y,-z
1/2+y,-x,-z
1/2+x,1/2+y,-z
-y,1/2+x,-z
1/2-x,y,z
x,1/2-y,z
1/2-y,1/2-x,z
y,x,z
loop_
_atom_site_type_symbol
_atom_site_label
_atom_site_fract_x
_atom_site_fract_y
_atom_site_fract_z
Si Si1 0.002984 0.678869 0.144703
Si Si2 0.318441 0.604747 0.095146
Si Si3 0.417284 0.595187 0.335425
Si Si4 0.516666 0.983335 0.780728
Si Si5 0.072363 0.072363 0.951742
O O1 0.988158 0.750000 0.178525
O O2 0.941741 0.641694 0.100412
O O3 0.034341 0.647476 0.285942
O O4 0.045782 0.671292 0.004830
O O5 0.250000 0.612211 0.148291
O O6 0.357250 0.599752 0.239516
O O7 0.336369 0.663631 0.000000
O O8 0.395439 0.604562 0.500000
O O9 0.443301 0.526811 0.321663
O O10 0.474682 0.025319 0.881067
O O11 0.561241 0.938760 0.875294
#
# Coordination Sequence:
#
# PCOD8314900 Si02
#       5
#    16  16  16   8   8
#     4   9  17  29  45  64  84 112 147 180 215 257
#     4   9  17  29  43  58  78 108 147 182 212 253
#     4  10  18  27  42  64  91 117 139 175 222 266
#     4   9  15  26  42  66  88 111 141 169 220 273
#     4   9  14  26  48  63  84 111 143 184 214 257
#
# _framework density 14.538201000000001
#
# number of rings (size 3 to 8) (size 9 to 14) (size 15 to 20)
#    0.000    2.750    2.500    0.375    0.000    1.250 
#    0.000    0.000    0.000    0.375    0.000    3.500 
#    0.000    0.000    0.000    0.125    0.000    0.000 
#
# Total GULP energy -793259.073417 kJ/mol
# GULP energy per Si atom -12394.673022 kJ/mol
# Density = 1.450511 g / cm^3
# Si number density = 14.538201 Si / 1000 Ang^3
#
#
#
# Elastic Constant Matrix: (Units=GPa)
#
#
# Indices 1 2 3 4 5 6 
#
# 1 63.0677 74.4669 36.8379 0.0000 0.0000 0.0000
# 2 74.4669 63.0652 36.8426 0.0000 0.0000 0.0000
# 3 36.8379 36.8426 94.6319 0.0000 0.0000 0.0000
# 4 0.0000 0.0000 0.0000 0.8562 0.0000 0.0000
# 5 0.0000 0.0000 0.0000 0.0000 0.8536 0.0000
# 6 0.0000 0.0000 0.0000 0.0000 0.0000 15.3267
#
#
#
# Elastic Compliance Matrix: (Units=1/GPa)
#
#
# Indices 1 2 3 4 5 6 
#
# 1 -0.039262 0.048451 -0.003580 0.000000 0.000000 0.000000
# 2 0.048451 -0.039267 -0.003573 0.000000 0.000000 0.000000
# 3 -0.003580 -0.003573 0.013352 0.000000 0.000000 0.000000
# 4 0.000000 0.000000 0.000000 1.167931 0.000000 0.000000
# 5 0.000000 0.000000 0.000000 0.000000 1.171467 0.000000
# 6 0.000000 0.000000 0.000000 0.000000 0.000000 0.065246
#
#
# Mechanical properties :
#
#
# Convention : Reuss Voigt Hill
#
# Bulk Modulus (GPa) = 57.40559 57.45109 57.42834
# Shear Modulus (GPa) = 2.20977 8.24847 5.22912
#
# Velocity S-wave (km/s) = 1.23421 2.38453 1.89858
# Velocity P-wave (km/s) = 6.45002 6.86909 6.66285
#
# Compressibility (1/GPa) = 0.01741991
#
# Stress axis : x y z
#
# Youngs Moduli (GPa) = -25.46995 -25.46672 74.89557
#
# Poissons Ratio (x) = 1.23390 0.26810
# Poissons Ratio (y) = 1.23406 0.26763
# Poissons Ratio (z) = -0.09117 -0.09100
#
# Static dielectric constant tensor:
#      x y z
#    x 2.811160 0.000000 0.000000 
#    y 0.000000 2.811160 0.000000 
#    z 0.000000 0.000000 2.677660 
# 
# 
# High freq. dielectric constant tensor:
#      x y z
#    x 1.539690 0.000000 0.000000 
#    y 0.000000 1.539690 0.000000 
#    z 0.000000 0.000000 1.546500 
# 
# From -- ./inp_files/2117.got.cif
#   From: 2010.03.12/outbox.cif.g09.slc.cpg/sg129_2_cif.got.tgz:2117.got - 2010.04.06 17:19:44.
