data_PCOD8314317
_publ_section_title
;
Structure prediction by ZEFSAII (Michael W. Deem and Ramdas Pophale) SiO2 
 PCOD8314317
Probable space group: P 4/M B M
;
_chemical_formula_sum "Si O2"
_cell_formula_units_Z 88
_cell_length_a 14.198124
_cell_length_b 14.198124
_cell_length_c 24.242994
_cell_angle_alpha 90.000000
_cell_angle_beta 90.000000
_cell_angle_gamma 90.000000
_cell_volume 4887.065768
_symmetry_space_group_name_H-M "P 4/M B M"
_symmetry_group_IT_number 127
_symmetry_cell_setting 'tetragonal'
loop_
_space_group_symop_operation_xyz
x,y,z
-y,x,z
-x,-y,z
y,-x,z
1/2+x,1/2-y,-z
1/2-x,1/2+y,-z
1/2+y,1/2+x,-z
1/2-y,1/2-x,-z
-x,-y,-z
y,-x,-z
x,y,-z
-y,x,-z
1/2-x,1/2+y,z
1/2+x,1/2-y,z
1/2-y,1/2-x,z
1/2+y,1/2+x,z
loop_
_atom_site_type_symbol
_atom_site_label
_atom_site_fract_x
_atom_site_fract_y
_atom_site_fract_z
Si Si1 0.563334 0.220452 0.061043
Si Si2 0.861567 0.067655 0.153423
Si Si3 0.572310 0.927691 0.934874
Si Si4 0.400370 0.253282 0.435197
Si Si5 0.259841 0.394637 0.615427
Si Si6 0.859661 0.066678 0.276575
O O1 0.633273 0.133273 0.057065
O O2 0.603367 0.292098 0.106040
O O3 0.460198 0.179114 0.080486
O O4 0.556022 0.268159 0.000000
O O5 0.876465 0.957266 0.145239
O O6 0.821058 0.086176 0.214827
O O7 0.500000 0.000000 0.905450
O O8 0.562567 0.937434 0.000000
O O9 0.416513 0.259068 0.500000
O O10 0.336664 0.163337 0.418770
O O11 0.348555 0.348838 0.416158
O O12 0.500804 0.242038 0.406416
O O13 0.165723 0.334278 0.605226
O O14 0.282003 0.397082 0.680567
O O15 0.956244 0.122956 0.285886
#
# Coordination Sequence:
#
# PCOD8314317 Si02
#       6
#    16  16   8  16  16  16
#     4   9  17  31  51  74 101 133 170 211 256 308
#     4   9  19  34  52  74 102 136 170 209 264 322
#     4   7  12  26  48  68  90 126 164 199 246 300
#     4  10  22  38  56  85 120 147 181 228 272 324
#     4  11  21  35  59  84 109 149 191 226 273 328
#     4   9  17  34  57  77  99 134 180 224 267 313
#
# _framework density 18.006715
#
# number of rings (size 3 to 8) (size 9 to 14) (size 15 to 20)
#    0.000    2.636    1.818    2.727    0.000    3.273 
#    1.636    2.727    4.000    0.000    0.000    0.000 
#    0.000    0.000    0.000    0.000    0.000    0.000 
#
# Total GULP energy -1090570.144265 kJ/mol
# GULP energy per Si atom -12392.842548 kJ/mol
# Density = 1.796573 g / cm^3
# Si number density = 18.006715 Si / 1000 Ang^3
#
#
#
# Elastic Constant Matrix: (Units=GPa)
#
#
# Indices 1 2 3 4 5 6 
#
# 1 71.6458 22.0062 32.4512 0.0000 0.0000 0.0000
# 2 22.0062 71.6458 32.4514 0.0000 0.0000 0.0000
# 3 32.4512 32.4514 99.4176 0.0000 0.0000 0.0000
# 4 0.0000 0.0000 0.0000 27.3206 0.0000 0.0000
# 5 0.0000 0.0000 0.0000 0.0000 27.3206 0.0000
# 6 0.0000 0.0000 0.0000 0.0000 0.0000 19.2334
#
#
#
# Elastic Compliance Matrix: (Units=1/GPa)
#
#
# Indices 1 2 3 4 5 6 
#
# 1 0.016972 -0.003173 -0.004504 0.000000 0.000000 0.000000
# 2 -0.003173 0.016972 -0.004504 0.000000 0.000000 0.000000
# 3 -0.004504 -0.004504 0.012999 0.000000 0.000000 0.000000
# 4 0.000000 0.000000 0.000000 0.036602 0.000000 0.000000
# 5 0.000000 0.000000 0.000000 0.000000 0.036602 0.000000
# 6 0.000000 0.000000 0.000000 0.000000 0.000000 0.051993
#
#
# Mechanical properties :
#
#
# Convention : Reuss Voigt Hill
#
# Bulk Modulus (GPa) = 44.28567 46.28074 45.28320
# Shear Modulus (GPa) = 24.50604 25.16163 24.83384
#
# Velocity S-wave (km/s) = 3.69309 3.74217 3.71771
# Velocity P-wave (km/s) = 6.54466 6.66554 6.60538
#
# Compressibility (1/GPa) = 0.02258067
#
# Stress axis : x y z
#
# Youngs Moduli (GPa) = 58.91955 58.91949 76.92828
#
# Poissons Ratio (x) = 0.18695 0.34651
# Poissons Ratio (y) = 0.18695 0.34651
# Poissons Ratio (z) = 0.26539 0.26539
#
# Static dielectric constant tensor:
#      x y z
#    x 3.238610 0.000000 0.000000 
#    y 0.000000 3.238600 0.000000 
#    z 0.000000 0.000000 3.372140 
# 
# 
# High freq. dielectric constant tensor:
#      x y z
#    x 1.683370 0.000000 0.000000 
#    y 0.000000 1.683370 0.000000 
#    z 0.000000 0.000000 1.699460 
# 
# From -- ./inp_files/6085.got.cif
#   From: 2010.03.12/outbox.cif.g09.slc.cpg/sg127_4_cif.got.tgz:6085.got - 2010.04.06 17:03:15.
