data_PCOD8314676
_publ_section_title
;
Structure prediction by ZEFSAII (Michael W. Deem and Ramdas Pophale) SiO2 
 PCOD8314676
Probable space group: P 4/M N C
;
_chemical_formula_sum "Si O2"
_cell_formula_units_Z 72
_cell_length_a 20.298660
_cell_length_b 20.298660
_cell_length_c 8.985822
_cell_angle_alpha 90.000000
_cell_angle_beta 90.000000
_cell_angle_gamma 90.000000
_cell_volume 3702.478539
_symmetry_space_group_name_H-M "P 4/M N C"
_symmetry_group_IT_number 128
_symmetry_cell_setting 'tetragonal'
loop_
_space_group_symop_operation_xyz
x,y,z
-y,x,z
-x,-y,z
y,-x,z
1/2+x,1/2-y,1/2-z
1/2-x,1/2+y,1/2-z
1/2+y,1/2+x,1/2-z
1/2-y,1/2-x,1/2-z
-x,-y,-z
y,-x,-z
x,y,-z
-y,x,-z
1/2-x,1/2+y,1/2+z
1/2+x,1/2-y,1/2+z
1/2-y,1/2-x,1/2+z
1/2+y,1/2+x,1/2+z
loop_
_atom_site_type_symbol
_atom_site_label
_atom_site_fract_x
_atom_site_fract_y
_atom_site_fract_z
Si Si1 0.975935 0.389905 0.664150
Si Si2 0.239401 0.902549 0.164509
Si Si3 0.680900 0.717440 0.823790
Si Si4 0.449024 0.241088 0.324833
Si Si5 0.382367 0.882367 0.250000
O O1 0.957024 0.457024 0.750000
O O2 0.944274 0.387647 0.500000
O O3 0.945116 0.332730 0.764865
O O4 0.054296 0.384340 0.642980
O O5 0.206912 0.855671 0.287007
O O6 0.316815 0.885695 0.151279
O O7 0.227943 0.978886 0.210447
O O8 0.209426 0.889345 0.000000
O O9 0.726532 0.773469 0.750000
O O10 0.606852 0.718182 0.760796
O O11 0.681472 0.728092 0.000000
O O12 0.434820 0.241348 0.500000
#
# Coordination Sequence:
#
# PCOD8314676 Si02
#       5
#    16  16  16  16   8
#     4  11  22  35  52  77 112 154 198 239 285 340
#     4  10  21  38  60  86 115 149 190 240 296 349
#     4  12  24  38  61  89 120 156 197 243 292 349
#     4  10  22  40  60  83 115 151 192 243 296 351
#     4  10  21  34  56  80 112 150 192 237 282 344
#
# _framework density 19.446432000000001
#
# number of rings (size 3 to 8) (size 9 to 14) (size 15 to 20)
#    0.000    1.333    1.111    5.000    0.000    8.000 
#    0.000    0.000    0.000    0.667    0.000    4.667 
#    0.000    0.000    0.000    0.000    0.000    0.000 
#
# Total GULP energy -892655.263558 kJ/mol
# GULP energy per Si atom -12397.989772 kJ/mol
# Density = 1.940217 g / cm^3
# Si number density = 19.446432 Si / 1000 Ang^3
#
#
#
# Elastic Constant Matrix: (Units=GPa)
#
#
# Indices 1 2 3 4 5 6 
#
# 1 102.5004 57.5796 53.5018 0.0000 0.0000 0.0000
# 2 57.5796 102.4993 53.5010 0.0000 0.0000 0.0000
# 3 53.5018 53.5010 157.2578 0.0000 0.0000 0.0000
# 4 0.0000 0.0000 0.0000 23.9515 0.0000 0.0000
# 5 0.0000 0.0000 0.0000 0.0000 23.9517 0.0000
# 6 0.0000 0.0000 0.0000 0.0000 0.0000 30.6965
#
#
#
# Elastic Compliance Matrix: (Units=1/GPa)
#
#
# Indices 1 2 3 4 5 6 
#
# 1 0.015174 -0.007088 -0.002751 0.000000 0.000000 0.000000
# 2 -0.007088 0.015174 -0.002751 0.000000 0.000000 0.000000
# 3 -0.002751 -0.002751 0.008231 0.000000 0.000000 0.000000
# 4 0.000000 0.000000 0.000000 0.041751 0.000000 0.000000
# 5 0.000000 0.000000 0.000000 0.000000 0.041751 0.000000
# 6 0.000000 0.000000 0.000000 0.000000 0.000000 0.032577
#
#
# Mechanical properties :
#
#
# Convention : Reuss Voigt Hill
#
# Bulk Modulus (GPa) = 74.63443 76.82470 75.72957
# Shear Modulus (GPa) = 27.12930 28.89827 28.01379
#
# Velocity S-wave (km/s) = 3.73913 3.85911 3.79959
# Velocity P-wave (km/s) = 7.55674 7.71029 7.63390
#
# Compressibility (1/GPa) = 0.01339864
#
# Stress axis : x y z
#
# Youngs Moduli (GPa) = 65.90382 65.90338 121.49562
#
# Poissons Ratio (x) = 0.46712 0.33422
# Poissons Ratio (y) = 0.46713 0.33421
# Poissons Ratio (z) = 0.18129 0.18129
#
# Static dielectric constant tensor:
#      x y z
#    x 3.526060 0.000000 0.000000 
#    y 0.000000 3.526060 0.000000 
#    z 0.000000 0.000000 3.496640 
# 
# 
# High freq. dielectric constant tensor:
#      x y z
#    x 1.744970 0.000000 0.000000 
#    y 0.000000 1.744970 0.000000 
#    z 0.000000 0.000000 1.766780 
# 
# From -- ./inp_files/1171.got.cif
#   From: 2010.03.12/outbox.cif.g09.slc.cpg/sg128_1_cif.got.tgz:1171.got - 2010.04.06 17:11:05.
