data_PCOD8314953
_publ_section_title
;
Structure prediction by ZEFSAII (Michael W. Deem and Ramdas Pophale) SiO2 
 PCOD8314953
Probable space group: P 4/N M M
;
_chemical_formula_sum "Si O2"
_cell_formula_units_Z 72
_cell_length_a 26.581132
_cell_length_b 26.581132
_cell_length_c 5.125298
_cell_angle_alpha 90.000000
_cell_angle_beta 90.000000
_cell_angle_gamma 90.000000
_cell_volume 3621.313018
_symmetry_space_group_name_H-M "P 4/N M M"
_symmetry_group_IT_number 129
_symmetry_cell_setting 'tetragonal'
loop_
_space_group_symop_operation_xyz
x,y,z
1/2-y,x,z
1/2-x,1/2-y,z
y,1/2-x,z
1/2+x,-y,-z
-x,1/2+y,-z
1/2+y,1/2+x,-z
-y,-x,-z
-x,-y,-z
1/2+y,-x,-z
1/2+x,1/2+y,-z
-y,1/2+x,-z
1/2-x,y,z
x,1/2-y,z
1/2-y,1/2-x,z
y,x,z
loop_
_atom_site_type_symbol
_atom_site_label
_atom_site_fract_x
_atom_site_fract_y
_atom_site_fract_z
Si Si1 0.692320 0.886121 0.809686
Si Si2 0.307357 0.807357 0.500000
Si Si3 0.689382 0.460847 0.300297
Si Si4 0.191426 0.901881 0.196636
Si Si5 0.568028 0.851815 0.311276
O O1 0.750000 0.881964 0.743915
O O2 0.668768 0.831233 0.765867
O O3 0.667490 0.924748 0.605834
O O4 0.683739 0.903711 0.105020
O O5 0.316141 0.750000 0.402391
O O6 0.343131 0.820980 0.744840
O O7 0.750000 0.472654 0.288996
O O8 0.671089 0.437123 0.571197
O O9 0.654122 0.509195 0.250598
O O10 0.671348 0.420535 0.081810
O O11 0.250000 0.910046 0.196652
O O12 0.591070 0.908931 0.284318
#
# Coordination Sequence:
#
# PCOD8314953 Si02
#       5
#    16   8  16  16  16
#     4  10  19  30  44  64  91 124 164 206 256 319
#     4   9  18  36  58  82 117 148 166 192 229 282
#     4  10  18  31  50  72 100 129 166 216 256 292
#     4   9  19  32  50  77 102 133 171 197 235 293
#     4  10  20  32  48  70  94 126 168 214 266 310
#
# _framework density 19.882290000000001
#
# number of rings (size 3 to 8) (size 9 to 14) (size 15 to 20)
#    0.000    2.333    0.000    3.333    0.000    2.889 
#    0.000    3.333    0.000   13.333    0.000    4.667 
#    0.000    0.000    0.000    0.000    0.000    0.000 
#
# Total GULP energy -892240.141424 kJ/mol
# GULP energy per Si atom -12392.224186 kJ/mol
# Density = 1.983704 g / cm^3
# Si number density = 19.882290 Si / 1000 Ang^3
#
#
#
# Elastic Constant Matrix: (Units=GPa)
#
#
# Indices 1 2 3 4 5 6 
#
# 1 85.4688 29.5592 8.4658 0.0000 0.0000 0.0000
# 2 29.5592 85.4688 8.4658 0.0000 0.0000 0.0000
# 3 8.4658 8.4658 78.7069 0.0000 0.0000 0.0000
# 4 0.0000 0.0000 0.0000 17.6902 0.0000 0.0000
# 5 0.0000 0.0000 0.0000 0.0000 17.6902 0.0000
# 6 0.0000 0.0000 0.0000 0.0000 0.0000 13.9784
#
#
#
# Elastic Compliance Matrix: (Units=1/GPa)
#
#
# Indices 1 2 3 4 5 6 
#
# 1 0.013360 -0.004526 -0.000950 0.000000 0.000000 0.000000
# 2 -0.004526 0.013360 -0.000950 0.000000 0.000000 0.000000
# 3 -0.000950 -0.000950 0.012910 0.000000 0.000000 0.000000
# 4 0.000000 0.000000 0.000000 0.056528 0.000000 0.000000
# 5 0.000000 0.000000 0.000000 0.000000 0.056528 0.000000
# 6 0.000000 0.000000 0.000000 0.000000 0.000000 0.071539
#
#
# Mechanical properties :
#
#
# Convention : Reuss Voigt Hill
#
# Bulk Modulus (GPa) = 37.34683 38.06956 37.70819
# Shear Modulus (GPa) = 20.32492 23.41535 21.87014
#
# Velocity S-wave (km/s) = 3.20075 3.43548 3.32019
# Velocity P-wave (km/s) = 5.69952 5.90980 5.80561
#
# Compressibility (1/GPa) = 0.02677603
#
# Stress axis : x y z
#
# Youngs Moduli (GPa) = 74.85191 74.85191 77.46076
#
# Poissons Ratio (x) = 0.33880 0.07360
# Poissons Ratio (y) = 0.33880 0.07360
# Poissons Ratio (z) = 0.07112 0.07112
#
# Static dielectric constant tensor:
#      x y z
#    x 3.531590 0.000000 0.000000 
#    y 0.000000 3.531590 0.000000 
#    z 0.000000 0.000000 4.219660 
# 
# 
# High freq. dielectric constant tensor:
#      x y z
#    x 1.750780 0.000000 0.000000 
#    y 0.000000 1.750780 0.000000 
#    z 0.000000 0.000000 1.795440 
# 
# From -- ./inp_files/907.got.cif
#   From: 2010.03.12/outbox.cif.g09.slc.cpg/sg129_1_cif.got.tgz:907.got - 2010.04.06 17:19:44.
