data_PCOD8314102
_publ_section_title
;
Structure prediction by ZEFSAII (Michael W. Deem and Ramdas Pophale) SiO2 
 PCOD8314102
Probable space group: P 4/M B M
;
_chemical_formula_sum "Si O2"
_cell_formula_units_Z 120
_cell_length_a 26.764221
_cell_length_b 26.764221
_cell_length_c 8.901210
_cell_angle_alpha 90.000000
_cell_angle_beta 90.000000
_cell_angle_gamma 90.000000
_cell_volume 6376.146131
_symmetry_space_group_name_H-M "P 4/M B M"
_symmetry_group_IT_number 127
_symmetry_cell_setting 'tetragonal'
loop_
_space_group_symop_operation_xyz
x,y,z
-y,x,z
-x,-y,z
y,-x,z
1/2+x,1/2-y,-z
1/2-x,1/2+y,-z
1/2+y,1/2+x,-z
1/2-y,1/2-x,-z
-x,-y,-z
y,-x,-z
x,y,-z
-y,x,-z
1/2-x,1/2+y,z
1/2+x,1/2-y,z
1/2-y,1/2-x,z
1/2+y,1/2+x,z
loop_
_atom_site_type_symbol
_atom_site_label
_atom_site_fract_x
_atom_site_fract_y
_atom_site_fract_z
Si Si1 0.148080 0.516098 0.322137
Si Si2 0.259863 0.842142 0.664649
Si Si3 0.063604 0.286196 0.826820
Si Si4 0.422610 0.243941 0.322400
Si Si5 0.958473 0.458473 0.178323
Si Si6 0.078467 0.990745 0.178474
Si Si7 0.190269 0.998031 0.175517
Si Si8 0.186251 0.763943 0.321468
O O1 0.139197 0.515753 0.500000
O O2 0.170845 0.463065 0.270642
O O3 0.189109 0.557554 0.272165
O O4 0.095314 0.525926 0.243118
O O5 0.254708 0.868343 0.500000
O O6 0.293926 0.793926 0.646426
O O7 0.285126 0.878441 0.784821
O O8 0.206237 0.819879 0.719991
O O9 0.045518 0.230009 0.789631
O O10 0.056009 0.300304 0.000000
O O11 0.424690 0.247228 0.500000
O O12 0.453279 0.290081 0.258110
O O13 0.368020 0.252832 0.253886
O O14 0.000000 0.500000 0.224237
O O15 0.954319 0.454319 0.000000
O O16 0.135178 0.984109 0.239281
O O17 0.043513 0.945073 0.235780
O O18 0.078858 0.990406 0.000000
O O19 0.187306 0.009734 0.000000
O O20 0.184515 0.758697 0.500000
O O21 0.222012 0.722012 0.250211
#
# Coordination Sequence:
#
# PCOD8314102 Si02
#       8
#    16  16  16  16   8  16  16  16
#     4  10  21  37  59  84 107 137 179 222 262 317
#     4   9  18  33  52  74  99 132 172 210 247 294
#     4  10  20  34  52  75 106 141 172 211 266 317
#     4   9  18  32  53  78 103 133 170 208 254 310
#     4  11  25  43  61  83 113 143 173 217 273 329
#     4   8  14  26  45  68  94 129 175 220 259 304
#     4   9  18  31  47  70 100 129 163 208 256 303
#     4   8  15  29  50  74 101 130 163 204 248 298
#
# _framework density 18.820146000000001
#
# number of rings (size 3 to 8) (size 9 to 14) (size 15 to 20)
#    0.000    2.867    0.000    2.200    0.933    3.467 
#    0.000    2.000    0.000    1.600    0.000    0.933 
#    0.000    0.000    0.000    0.000    0.000    0.000 
#
# Total GULP energy -1487115.949716 kJ/mol
# GULP energy per Si atom -12392.632914 kJ/mol
# Density = 1.877731 g / cm^3
# Si number density = 18.820146 Si / 1000 Ang^3
#
#
#
# Elastic Constant Matrix: (Units=GPa)
#
#
# Indices 1 2 3 4 5 6 
#
# 1 112.3788 35.6519 25.8290 0.0000 0.0000 0.0000
# 2 35.6519 112.3788 25.8290 0.0000 0.0000 0.0000
# 3 25.8290 25.8290 36.3653 0.0000 0.0000 0.0000
# 4 0.0000 0.0000 0.0000 22.8106 0.0000 0.0000
# 5 0.0000 0.0000 0.0000 0.0000 22.8106 0.0000
# 6 0.0000 0.0000 0.0000 0.0000 0.0000 17.7002
#
#
#
# Elastic Compliance Matrix: (Units=1/GPa)
#
#
# Indices 1 2 3 4 5 6 
#
# 1 0.011007 -0.002026 -0.006379 0.000000 0.000000 0.000000
# 2 -0.002026 0.011007 -0.006379 0.000000 0.000000 0.000000
# 3 -0.006379 -0.006379 0.036561 0.000000 0.000000 0.000000
# 4 0.000000 0.000000 0.000000 0.043839 0.000000 0.000000
# 5 0.000000 0.000000 0.000000 0.000000 0.043839 0.000000
# 6 0.000000 0.000000 0.000000 0.000000 0.000000 0.056497
#
#
# Mechanical properties :
#
#
# Convention : Reuss Voigt Hill
#
# Bulk Modulus (GPa) = 34.47484 48.41587 41.44535
# Shear Modulus (GPa) = 20.66217 24.25181 22.45699
#
# Velocity S-wave (km/s) = 3.31701 3.59361 3.45808
# Velocity P-wave (km/s) = 5.74699 6.55745 6.16555
#
# Compressibility (1/GPa) = 0.02900666
#
# Stress axis : x y z
#
# Youngs Moduli (GPa) = 90.84816 90.84816 27.35179
#
# Poissons Ratio (x) = 0.18405 0.17448
# Poissons Ratio (y) = 0.18405 0.17448
# Poissons Ratio (z) = 0.57954 0.57954
#
# Static dielectric constant tensor:
#      x y z
#    x 3.622380 0.000000 0.000000 
#    y 0.000000 3.622380 0.000000 
#    z 0.000000 0.000000 3.151540 
# 
# 
# High freq. dielectric constant tensor:
#      x y z
#    x 1.732970 0.000000 0.000000 
#    y 0.000000 1.732970 0.000000 
#    z 0.000000 0.000000 1.701640 
# 
# From -- ./inp_files/2408.got.cif
#   From: 2010.03.12/outbox.cif.g09.slc.cpg/sg127_2_cif.got.tgz:2408.got - 2010.04.06 17:03:15.
