data_PCOD8314911
_publ_section_title
;
Structure prediction by ZEFSAII (Michael W. Deem and Ramdas Pophale) SiO2 
 PCOD8314911
Probable space group: P 4/N M M
;
_chemical_formula_sum "Si O2"
_cell_formula_units_Z 128
_cell_length_a 17.496867
_cell_length_b 17.496867
_cell_length_c 27.128271
_cell_angle_alpha 90.000000
_cell_angle_beta 90.000000
_cell_angle_gamma 90.000000
_cell_volume 8305.058509
_symmetry_space_group_name_H-M "P 4/N M M"
_symmetry_group_IT_number 129
_symmetry_cell_setting 'tetragonal'
loop_
_space_group_symop_operation_xyz
x,y,z
1/2-y,x,z
1/2-x,1/2-y,z
y,1/2-x,z
1/2+x,-y,-z
-x,1/2+y,-z
1/2+y,1/2+x,-z
-y,-x,-z
-x,-y,-z
1/2+y,-x,-z
1/2+x,1/2+y,-z
-y,1/2+x,-z
1/2-x,y,z
x,1/2-y,z
1/2-y,1/2-x,z
y,x,z
loop_
_atom_site_type_symbol
_atom_site_label
_atom_site_fract_x
_atom_site_fract_y
_atom_site_fract_z
Si Si1 0.162484 0.662792 0.806287
Si Si2 0.935958 0.058147 0.378304
Si Si3 0.662104 0.163306 0.309610
Si Si4 0.562622 0.062571 0.123682
Si Si5 0.540354 0.663025 0.943605
Si Si6 0.959673 0.836977 0.056351
Si Si7 0.663683 0.055800 0.471732
Si Si8 0.664771 0.953496 0.563244
O O1 0.250000 0.642507 0.820692
O O2 0.144567 0.750000 0.822777
O O3 0.150754 0.654597 0.748316
O O4 0.103581 0.603532 0.830653
O O5 0.889752 0.098327 0.334470
O O6 0.879228 0.032802 0.421825
O O7 0.994135 0.119681 0.399076
O O8 0.983125 0.983125 0.359724
O O9 0.750000 0.148529 0.324388
O O10 0.639239 0.250000 0.326035
O O11 0.523851 0.127046 0.090640
O O12 0.500077 0.999924 0.142051
O O13 0.627122 0.023974 0.090567
O O14 0.553313 0.750000 0.927790
O O15 0.620876 0.620876 0.936065
O O16 0.512300 0.655716 0.999976
O O17 0.946651 0.750000 0.072142
O O18 0.879206 0.879206 0.063940
O O19 0.628084 0.128084 0.500000
O O20 0.750000 0.078308 0.458408
O O21 0.659206 0.983274 0.507441
O O22 0.750000 0.950242 0.583197
O O23 0.631583 0.868418 0.563454
#
# Coordination Sequence:
#
# PCOD8314911 Si02
#       8
#    16  16  16  16  16  16  16  16
#     4   9  18  32  48  64  83 109 140 173 210 254
#     4  10  18  28  44  64  87 113 138 168 210 256
#     4   9  18  32  48  65  85 109 138 174 215 256
#     4  10  18  28  44  64  87 112 138 172 212 252
#     4   9  17  28  42  61  85 113 144 175 207 245
#     4   9  17  28  42  61  85 113 143 174 208 246
#     4   9  17  28  41  60  86 114 143 173 206 244
#     4   9  17  28  41  58  81 109 140 170 199 234
#
# _framework density 15.412293999999999
#
# number of rings (size 3 to 8) (size 9 to 14) (size 15 to 20)
#    0.000    2.750    0.000    3.000    0.000    4.500 
#    0.000    1.250    0.000    0.000    0.000    5.250 
#    0.000    2.250    0.000   32.500    0.000    0.375 
#
# Total GULP energy -1586794.722181 kJ/mol
# GULP energy per Si atom -12396.833767 kJ/mol
# Density = 1.537721 g / cm^3
# Si number density = 15.412294 Si / 1000 Ang^3
#
#
#
# Elastic Constant Matrix: (Units=GPa)
#
#
# Indices 1 2 3 4 5 6 
#
# 1 97.9474 58.1756 42.5201 0.0000 0.0000 0.0000
# 2 58.1756 97.9474 42.5201 0.0000 0.0000 0.0000
# 3 42.5201 42.5201 58.3909 0.0000 0.0000 0.0000
# 4 0.0000 0.0000 0.0000 22.7072 0.0000 0.0000
# 5 0.0000 0.0000 0.0000 0.0000 22.7072 0.0000
# 6 0.0000 0.0000 0.0000 0.0000 0.0000 23.5325
#
#
#
# Elastic Compliance Matrix: (Units=1/GPa)
#
#
# Indices 1 2 3 4 5 6 
#
# 1 0.017880 -0.007264 -0.007731 0.000000 0.000000 0.000000
# 2 -0.007264 0.017880 -0.007731 0.000000 0.000000 0.000000
# 3 -0.007731 -0.007731 0.028385 0.000000 0.000000 0.000000
# 4 0.000000 0.000000 0.000000 0.044039 0.000000 0.000000
# 5 0.000000 0.000000 0.000000 0.000000 0.044039 0.000000
# 6 0.000000 0.000000 0.000000 0.000000 0.000000 0.042494
#
#
# Mechanical properties :
#
#
# Convention : Reuss Voigt Hill
#
# Bulk Modulus (GPa) = 53.49161 60.07968 56.78564
# Shear Modulus (GPa) = 20.29243 21.19407 20.74325
#
# Velocity S-wave (km/s) = 3.63249 3.71231 3.67262
# Velocity P-wave (km/s) = 7.23711 7.57900 7.41003
#
# Compressibility (1/GPa) = 0.01869452
#
# Stress axis : x y z
#
# Youngs Moduli (GPa) = 55.92926 55.92926 35.23024
#
# Poissons Ratio (x) = 0.40625 0.27235
# Poissons Ratio (y) = 0.40625 0.27235
# Poissons Ratio (z) = 0.43236 0.43236
#
# Static dielectric constant tensor:
#      x y z
#    x 3.028170 0.000000 0.000000 
#    y 0.000000 3.028170 0.000000 
#    z 0.000000 0.000000 2.754810 
# 
# 
# High freq. dielectric constant tensor:
#      x y z
#    x 1.591610 0.000000 0.000000 
#    y 0.000000 1.591610 0.000000 
#    z 0.000000 0.000000 1.574680 
# 
# From -- ./inp_files/7262.got.cif
#   From: 2010.03.12/outbox.cif.g09.slc.cpg/sg129_4_cif.got.tgz:7262.got - 2010.04.06 17:19:44.
