data_PCOD8314675
_publ_section_title
;
Structure prediction by ZEFSAII (Michael W. Deem and Ramdas Pophale) SiO2 
 PCOD8314675
Probable space group: P 4/M N C
;
_chemical_formula_sum "Si O2"
_cell_formula_units_Z 76
_cell_length_a 17.454832
_cell_length_b 17.454832
_cell_length_c 13.663624
_cell_angle_alpha 90.000000
_cell_angle_beta 90.000000
_cell_angle_gamma 90.000000
_cell_volume 4162.912176
_symmetry_space_group_name_H-M "P 4/M N C"
_symmetry_group_IT_number 128
_symmetry_cell_setting 'tetragonal'
loop_
_space_group_symop_operation_xyz
x,y,z
-y,x,z
-x,-y,z
y,-x,z
1/2+x,1/2-y,1/2-z
1/2-x,1/2+y,1/2-z
1/2+y,1/2+x,1/2-z
1/2-y,1/2-x,1/2-z
-x,-y,-z
y,-x,-z
x,y,-z
-y,x,-z
1/2-x,1/2+y,1/2+z
1/2+x,1/2-y,1/2+z
1/2-y,1/2-x,1/2+z
1/2+y,1/2+x,1/2+z
loop_
_atom_site_type_symbol
_atom_site_label
_atom_site_fract_x
_atom_site_fract_y
_atom_site_fract_z
Si Si1 0.030033 0.358899 0.615100
Si Si2 0.323637 0.356644 0.255463
Si Si3 0.975924 0.201515 0.303988
Si Si4 0.618555 0.460622 0.000000
Si Si5 0.000000 0.500000 0.250000
Si Si6 0.303562 0.800261 0.889056
O O1 0.006166 0.361638 0.500000
O O2 0.998638 0.430146 0.674849
O O3 0.122127 0.354466 0.623997
O O4 0.991008 0.289460 0.672813
O O5 0.405440 0.313766 0.271284
O O6 0.337974 0.447181 0.237734
O O7 0.279804 0.317166 0.165091
O O8 0.270709 0.345825 0.350994
O O9 0.944166 0.165382 0.403303
O O10 0.596688 0.548785 0.000000
O O11 0.288899 0.778007 0.000000
#
# Coordination Sequence:
#
# PCOD8314675 Si02
#       6
#    16  16  16   8   4  16
#     4  10  21  36  57  76 104 145 183 221 276 322
#     4  10  21  34  54  84 110 138 177 221 268 322
#     4  11  20  33  53  80 113 143 173 218 269 326
#     4  11  20  30  50  85 116 142 168 219 274 326
#     4  12  22  36  52  82 112 132 182 244 276 318
#     4   9  20  40  59  74 101 146 188 219 258 322
#
# _framework density 18.256450000000001
#
# number of rings (size 3 to 8) (size 9 to 14) (size 15 to 20)
#    0.000    1.789    3.158    2.842    2.947    2.105 
#    0.000    1.053    0.000    1.263    0.000    1.474 
#    0.000    0.000    0.000    0.000    0.000    0.000 
#
# Total GULP energy -942182.388139 kJ/mol
# GULP energy per Si atom -12397.136686 kJ/mol
# Density = 1.821490 g / cm^3
# Si number density = 18.256450 Si / 1000 Ang^3
#
#
#
# Elastic Constant Matrix: (Units=GPa)
#
#
# Indices 1 2 3 4 5 6 
#
# 1 100.7795 40.6985 26.7611 0.0000 0.0000 0.0000
# 2 40.6985 100.7795 26.7611 0.0000 0.0000 0.0000
# 3 26.7611 26.7611 62.2454 0.0000 0.0000 0.0000
# 4 0.0000 0.0000 0.0000 31.0799 0.0000 0.0000
# 5 0.0000 0.0000 0.0000 0.0000 31.0799 0.0000
# 6 0.0000 0.0000 0.0000 0.0000 0.0000 24.8588
#
#
#
# Elastic Compliance Matrix: (Units=1/GPa)
#
#
# Indices 1 2 3 4 5 6 
#
# 1 0.012543 -0.004102 -0.003629 0.000000 0.000000 0.000000
# 2 -0.004102 0.012543 -0.003629 0.000000 0.000000 0.000000
# 3 -0.003629 -0.003629 0.019186 0.000000 0.000000 0.000000
# 4 0.000000 0.000000 0.000000 0.032175 0.000000 0.000000
# 5 0.000000 0.000000 0.000000 0.000000 0.032175 0.000000
# 6 0.000000 0.000000 0.000000 0.000000 0.000000 0.040227
#
#
# Mechanical properties :
#
#
# Convention : Reuss Voigt Hill
#
# Bulk Modulus (GPa) = 46.39965 50.24950 48.32458
# Shear Modulus (GPa) = 27.97169 28.70929 28.34049
#
# Velocity S-wave (km/s) = 3.91852 3.96985 3.94427
# Velocity P-wave (km/s) = 6.77818 6.97115 6.87534
#
# Compressibility (1/GPa) = 0.02155189
#
# Stress axis : x y z
#
# Youngs Moduli (GPa) = 79.72780 79.72780 52.12148
#
# Poissons Ratio (x) = 0.32701 0.18915
# Poissons Ratio (y) = 0.32701 0.18915
# Poissons Ratio (z) = 0.28934 0.28934
#
# Static dielectric constant tensor:
#      x y z
#    x 3.395150 0.000000 0.000000 
#    y 0.000000 3.395150 0.000000 
#    z 0.000000 0.000000 3.317120 
# 
# 
# High freq. dielectric constant tensor:
#      x y z
#    x 1.705340 0.000000 0.000000 
#    y 0.000000 1.705340 0.000000 
#    z 0.000000 0.000000 1.694410 
# 
# From -- ./inp_files/3763.got.cif
#   From: 2010.03.12/outbox.cif.g09.slc.cpg/sg128_2_cif.got.tgz:3763.got - 2010.04.06 17:11:05.
