data_PCOD8314607
_publ_section_title
;
Structure prediction by ZEFSAII (Michael W. Deem and Ramdas Pophale) SiO2 
 PCOD8314607
Probable space group: P 4/M N C
;
_chemical_formula_sum "Si O2"
_cell_formula_units_Z 72
_cell_length_a 20.401566
_cell_length_b 20.401566
_cell_length_c 9.211519
_cell_angle_alpha 90.000000
_cell_angle_beta 90.000000
_cell_angle_gamma 90.000000
_cell_volume 3834.054319
_symmetry_space_group_name_H-M "P 4/M N C"
_symmetry_group_IT_number 128
_symmetry_cell_setting 'tetragonal'
loop_
_space_group_symop_operation_xyz
x,y,z
-y,x,z
-x,-y,z
y,-x,z
1/2+x,1/2-y,1/2-z
1/2-x,1/2+y,1/2-z
1/2+y,1/2+x,1/2-z
1/2-y,1/2-x,1/2-z
-x,-y,-z
y,-x,-z
x,y,-z
-y,x,-z
1/2-x,1/2+y,1/2+z
1/2+x,1/2-y,1/2+z
1/2-y,1/2-x,1/2+z
1/2+y,1/2+x,1/2+z
loop_
_atom_site_type_symbol
_atom_site_label
_atom_site_fract_x
_atom_site_fract_y
_atom_site_fract_z
Si Si1 0.409642 0.738801 0.166078
Si Si2 0.602504 0.979935 0.844207
Si Si3 0.459556 0.245037 0.670425
Si Si4 0.617632 0.117632 0.250000
Si Si5 0.285558 0.686574 0.672003
O O1 0.481055 0.724064 0.235846
O O2 0.388967 0.814923 0.163117
O O3 0.356588 0.702156 0.264199
O O4 0.409373 0.713228 0.000000
O O5 0.540350 0.959651 0.750000
O O6 0.669699 0.950645 0.779592
O O7 0.610300 0.057998 0.862614
O O8 0.589064 0.948634 0.000000
O O9 0.478274 0.249236 0.500000
O O10 0.390663 0.278941 0.704064
O O11 0.228743 0.728743 0.750000
O O12 0.282951 0.701920 0.500000
#
# Coordination Sequence:
#
# PCOD8314607 Si02
#       5
#    16  16  16   8  16
#     4  11  22  36  58  84 112 148 189 238 289 342
#     4  10  20  33  49  71 104 145 187 226 269 323
#     4   9  21  39  56  78 112 150 187 234 289 345
#     4  10  21  34  50  74 110 146 188 227 274 332
#     4  11  22  37  60  87 117 152 193 240 290 346
#
# _framework density 18.779077000000001
#
# number of rings (size 3 to 8) (size 9 to 14) (size 15 to 20)
#    0.000    1.778    1.111    3.000    0.000    8.889 
#    0.000    0.000    0.000    0.667    0.000    4.667 
#    0.000    0.000    0.000    0.000    0.000    0.000 
#
# Total GULP energy -892375.977264 kJ/mol
# GULP energy per Si atom -12394.110795 kJ/mol
# Density = 1.873634 g / cm^3
# Si number density = 18.779077 Si / 1000 Ang^3
#
#
#
# Elastic Constant Matrix: (Units=GPa)
#
#
# Indices 1 2 3 4 5 6 
#
# 1 109.8709 68.2851 54.9574 0.0000 0.0000 0.0000
# 2 68.2851 109.8677 54.9569 0.0000 0.0000 0.0000
# 3 54.9574 54.9569 116.3836 0.0000 0.0000 0.0000
# 4 0.0000 0.0000 0.0000 23.7297 0.0000 0.0000
# 5 0.0000 0.0000 0.0000 0.0000 23.7299 0.0000
# 6 0.0000 0.0000 0.0000 0.0000 0.0000 33.4667
#
#
#
# Elastic Compliance Matrix: (Units=1/GPa)
#
#
# Indices 1 2 3 4 5 6 
#
# 1 0.015984 -0.008063 -0.003740 0.000000 0.000000 0.000000
# 2 -0.008063 0.015984 -0.003740 0.000000 0.000000 0.000000
# 3 -0.003740 -0.003740 0.012125 0.000000 0.000000 0.000000
# 4 0.000000 0.000000 0.000000 0.042141 0.000000 0.000000
# 5 0.000000 0.000000 0.000000 0.000000 0.042141 0.000000
# 6 0.000000 0.000000 0.000000 0.000000 0.000000 0.029880
#
#
# Mechanical properties :
#
#
# Convention : Reuss Voigt Hill
#
# Bulk Modulus (GPa) = 76.89278 76.94677 76.91977
# Shear Modulus (GPa) = 25.81602 26.71344 26.26473
#
# Velocity S-wave (km/s) = 3.71175 3.77571 3.74387
# Velocity P-wave (km/s) = 7.70742 7.75059 7.72904
#
# Compressibility (1/GPa) = 0.01300512
#
# Stress axis : x y z
#
# Youngs Moduli (GPa) = 62.56314 62.56106 82.47724
#
# Poissons Ratio (x) = 0.50446 0.30847
# Poissons Ratio (y) = 0.50448 0.30849
# Poissons Ratio (z) = 0.23399 0.23400
#
# Static dielectric constant tensor:
#      x y z
#    x 3.422450 0.000000 0.000000 
#    y 0.000000 3.422450 0.000000 
#    z 0.000000 0.000000 3.400450 
# 
# 
# High freq. dielectric constant tensor:
#      x y z
#    x 1.719920 0.000000 0.000000 
#    y 0.000000 1.719920 0.000000 
#    z 0.000000 0.000000 1.733940 
# 
# From -- ./inp_files/1164.got.cif
#   From: 2010.03.12/outbox.cif.g09.slc.cpg/sg128_1_cif.got.tgz:1164.got - 2010.04.06 17:11:05.
