data_PCOD8314160
_publ_section_title
;
Structure prediction by ZEFSAII (Michael W. Deem and Ramdas Pophale) SiO2 
 PCOD8314160
Probable space group: P 4/M B M
;
_chemical_formula_sum "Si O2"
_cell_formula_units_Z 104
_cell_length_a 26.853575
_cell_length_b 26.853575
_cell_length_c 8.080931
_cell_angle_alpha 90.000000
_cell_angle_beta 90.000000
_cell_angle_gamma 90.000000
_cell_volume 5827.276439
_symmetry_space_group_name_H-M "P 4/M B M"
_symmetry_group_IT_number 127
_symmetry_cell_setting 'tetragonal'
loop_
_space_group_symop_operation_xyz
x,y,z
-y,x,z
-x,-y,z
y,-x,z
1/2+x,1/2-y,-z
1/2-x,1/2+y,-z
1/2+y,1/2+x,-z
1/2-y,1/2-x,-z
-x,-y,-z
y,-x,-z
x,y,-z
-y,x,-z
1/2-x,1/2+y,z
1/2+x,1/2-y,z
1/2-y,1/2-x,z
1/2+y,1/2+x,z
loop_
_atom_site_type_symbol
_atom_site_label
_atom_site_fract_x
_atom_site_fract_y
_atom_site_fract_z
Si Si1 0.367246 0.424294 0.694334
Si Si2 0.634290 0.788670 0.309182
Si Si3 0.502767 0.281706 0.690141
Si Si4 0.817680 0.468992 0.813936
Si Si5 0.573309 0.534993 0.000000
Si Si6 0.579233 0.000340 0.304791
Si Si7 0.184337 0.103198 0.694926
O O1 0.384632 0.431624 0.500000
O O2 0.311547 0.445763 0.716433
O O3 0.369437 0.366420 0.749589
O O4 0.400136 0.453746 0.825927
O O5 0.647845 0.783959 0.500000
O O6 0.677193 0.822808 0.222911
O O7 0.580398 0.814939 0.297641
O O8 0.631421 0.732987 0.228828
O O9 0.494783 0.267902 0.500000
O O10 0.505296 0.229693 0.787294
O O11 0.454956 0.314562 0.751430
O O12 0.866823 0.500774 0.777493
O O13 0.818303 0.449818 0.000000
O O14 0.523359 0.566040 0.000000
O O15 0.585320 0.000611 0.500000
O O16 0.548525 0.951476 0.248593
O O17 0.549661 0.049661 0.246308
O O18 0.188544 0.105612 0.500000
#
# Coordination Sequence:
#
# PCOD8314160 Si02
#       7
#    16  16  16  16   8  16  16
#     4  10  20  36  57  76 103 141 178 220 264 313
#     4   9  17  31  51  73 101 134 168 211 259 310
#     4   9  18  33  53  73  97 132 172 212 254 306
#     4  11  21  30  46  73 105 135 166 210 256 306
#     4  11  24  36  50  78 109 136 174 215 259 322
#     4   9  18  33  52  72  97 133 173 209 250 305
#     4   8  15  30  50  74  97 126 171 211 256 309
#
# _framework density 17.847102
#
# number of rings (size 3 to 8) (size 9 to 14) (size 15 to 20)
#    0.000    2.538    0.000    4.154    1.077    4.615 
#    5.538    1.538    0.000    0.923    0.000    4.308 
#    0.000    0.000    0.000    0.000    0.000    0.000 
#
# Total GULP energy -1288687.418058 kJ/mol
# GULP energy per Si atom -12391.225174 kJ/mol
# Density = 1.780648 g / cm^3
# Si number density = 17.847102 Si / 1000 Ang^3
#
#
#
# Elastic Constant Matrix: (Units=GPa)
#
#
# Indices 1 2 3 4 5 6 
#
# 1 122.1314 49.8117 23.3181 0.0000 0.0000 0.0000
# 2 49.8117 122.1314 23.3181 0.0000 0.0000 0.0000
# 3 23.3181 23.3181 53.4504 0.0000 0.0000 0.0000
# 4 0.0000 0.0000 0.0000 12.3009 0.0000 0.0000
# 5 0.0000 0.0000 0.0000 0.0000 12.3009 0.0000
# 6 0.0000 0.0000 0.0000 0.0000 0.0000 33.2836
#
#
#
# Elastic Compliance Matrix: (Units=1/GPa)
#
#
# Indices 1 2 3 4 5 6 
#
# 1 0.010212 -0.003616 -0.002878 0.000000 0.000000 0.000000
# 2 -0.003616 0.010212 -0.002878 0.000000 0.000000 0.000000
# 3 -0.002878 -0.002878 0.021220 0.000000 0.000000 0.000000
# 4 0.000000 0.000000 0.000000 0.081295 0.000000 0.000000
# 5 0.000000 0.000000 0.000000 0.000000 0.081295 0.000000
# 6 0.000000 0.000000 0.000000 0.000000 0.000000 0.030045
#
#
# Mechanical properties :
#
#
# Convention : Reuss Voigt Hill
#
# Bulk Modulus (GPa) = 43.66490 54.51211 49.08851
# Shear Modulus (GPa) = 19.18255 24.99478 22.08866
#
# Velocity S-wave (km/s) = 3.28201 3.74638 3.52186
# Velocity P-wave (km/s) = 6.23549 7.02311 6.64099
#
# Compressibility (1/GPa) = 0.02290169
#
# Stress axis : x y z
#
# Youngs Moduli (GPa) = 97.92443 97.92443 47.12584
#
# Poissons Ratio (x) = 0.35405 0.13562
# Poissons Ratio (y) = 0.35405 0.13562
# Poissons Ratio (z) = 0.28180 0.28180
#
# Static dielectric constant tensor:
#      x y z
#    x 3.509220 0.000000 0.000000 
#    y 0.000000 3.509220 0.000000 
#    z 0.000000 0.000000 3.162080 
# 
# 
# High freq. dielectric constant tensor:
#      x y z
#    x 1.678820 0.000000 0.000000 
#    y 0.000000 1.678820 0.000000 
#    z 0.000000 0.000000 1.680940 
# 
# From -- ./inp_files/2325.got.cif
#   From: 2010.03.12/outbox.cif.g09.slc.cpg/sg127_2_cif.got.tgz:2325.got - 2010.04.06 17:03:15.
