data_PCOD8314432
_publ_section_title
;
Structure prediction by ZEFSAII (Michael W. Deem and Ramdas Pophale) SiO2 
 PCOD8314432
Probable space group: P 4/M B M
;
_chemical_formula_sum "Si O2"
_cell_formula_units_Z 96
_cell_length_a 15.158919
_cell_length_b 15.158919
_cell_length_c 23.407190
_cell_angle_alpha 90.000000
_cell_angle_beta 90.000000
_cell_angle_gamma 90.000000
_cell_volume 5378.804321
_symmetry_space_group_name_H-M "P 4/M B M"
_symmetry_group_IT_number 127
_symmetry_cell_setting 'tetragonal'
loop_
_space_group_symop_operation_xyz
x,y,z
-y,x,z
-x,-y,z
y,-x,z
1/2+x,1/2-y,-z
1/2-x,1/2+y,-z
1/2+y,1/2+x,-z
1/2-y,1/2-x,-z
-x,-y,-z
y,-x,-z
x,y,-z
-y,x,-z
1/2-x,1/2+y,z
1/2+x,1/2-y,z
1/2-y,1/2-x,z
1/2+y,1/2+x,z
loop_
_atom_site_type_symbol
_atom_site_label
_atom_site_fract_x
_atom_site_fract_y
_atom_site_fract_z
Si Si1 0.468842 0.738563 0.433516
Si Si2 0.069888 0.873179 0.725177
Si Si3 0.573248 0.073248 0.065602
Si Si4 0.631456 0.440304 0.145465
Si Si5 0.291151 0.061015 0.065742
Si Si6 0.848551 0.198225 0.617974
Si Si7 0.068046 0.431955 0.432170
O O1 0.444596 0.729513 0.500000
O O2 0.570772 0.715120 0.424797
O O3 0.400355 0.681141 0.397553
O O4 0.457353 0.836532 0.409756
O O5 0.080837 0.838867 0.789814
O O6 0.114603 0.801882 0.682893
O O7 0.966132 0.882524 0.713823
O O8 0.531031 0.164420 0.090507
O O9 0.500000 0.000000 0.073001
O O10 0.592043 0.092043 0.000000
O O11 0.614570 0.543239 0.133836
O O12 0.707535 0.409997 0.102740
O O13 0.360969 0.139032 0.070165
O O14 0.261859 0.048024 0.000000
O O15 0.771126 0.271126 0.610307
O O16 0.063550 0.436451 0.500000
O O17 0.000000 0.500000 0.404023
#
# Coordination Sequence:
#
# PCOD8314432 Si02
#       7
#    16  16   8  16  16  16   8
#     4  11  23  37  56  85 118 147 182 232 283 337
#     4   9  18  37  60  77  99 138 186 228 275 330
#     4   7  12  26  48  71 101 143 179 209 255 316
#     4   9  19  35  55  77 105 143 182 225 275 328
#     4   9  17  31  52  79 111 145 182 223 270 327
#     4  12  23  37  60  86 112 148 192 236 283 341
#     4   9  18  36  56  75 111 160 190 211 265 341
#
# _framework density 17.847832
#
# number of rings (size 3 to 8) (size 9 to 14) (size 15 to 20)
#    0.000    2.333    2.500    3.000    0.000    3.333 
#    1.500    1.667    1.833    0.000    0.000    1.167 
#    0.000    0.000    0.000    0.000    0.000    0.000 
#
# Total GULP energy -1189574.763000 kJ/mol
# GULP energy per Si atom -12391.403781 kJ/mol
# Density = 1.780721 g / cm^3
# Si number density = 17.847832 Si / 1000 Ang^3
#
#
#
# Elastic Constant Matrix: (Units=GPa)
#
#
# Indices 1 2 3 4 5 6 
#
# 1 85.9117 30.3369 35.3225 0.0000 0.0000 0.0000
# 2 30.3369 85.9116 35.3226 0.0000 0.0000 0.0000
# 3 35.3225 35.3226 83.8893 0.0000 0.0000 0.0000
# 4 0.0000 0.0000 0.0000 21.9509 0.0000 0.0000
# 5 0.0000 0.0000 0.0000 0.0000 21.9510 0.0000
# 6 0.0000 0.0000 0.0000 0.0000 0.0000 25.1388
#
#
#
# Elastic Compliance Matrix: (Units=1/GPa)
#
#
# Indices 1 2 3 4 5 6 
#
# 1 0.014777 -0.003217 -0.004868 0.000000 0.000000 0.000000
# 2 -0.003217 0.014777 -0.004868 0.000000 0.000000 0.000000
# 3 -0.004868 -0.004868 0.016020 0.000000 0.000000 0.000000
# 4 0.000000 0.000000 0.000000 0.045556 0.000000 0.000000
# 5 0.000000 0.000000 0.000000 0.000000 0.045556 0.000000
# 6 0.000000 0.000000 0.000000 0.000000 0.000000 0.039779
#
#
# Mechanical properties :
#
#
# Convention : Reuss Voigt Hill
#
# Bulk Modulus (GPa) = 50.83929 50.85296 50.84612
# Shear Modulus (GPa) = 23.93195 24.12350 24.02772
#
# Velocity S-wave (km/s) = 3.66579 3.68043 3.67311
# Velocity P-wave (km/s) = 6.81645 6.82753 6.82199
#
# Compressibility (1/GPa) = 0.01966983
#
# Stress axis : x y z
#
# Youngs Moduli (GPa) = 67.67258 67.67239 62.42351
#
# Poissons Ratio (x) = 0.21768 0.30385
# Poissons Ratio (y) = 0.21768 0.30385
# Poissons Ratio (z) = 0.32940 0.32940
#
# Static dielectric constant tensor:
#      x y z
#    x 2.390600 0.000000 0.000000 
#    y 0.000000 2.390420 0.000000 
#    z 0.000000 0.000000 3.109980 
# 
# 
# High freq. dielectric constant tensor:
#      x y z
#    x 1.688170 0.000000 0.000000 
#    y 0.000000 1.688170 0.000000 
#    z 0.000000 0.000000 1.671750 
# 
# From -- ./inp_files/5833.got.cif
#   From: 2010.03.12/outbox.cif.g09.slc.cpg/sg127_3_cif.got.tgz:5833.got - 2010.04.06 17:03:15.
