data_PCOD8314515
_publ_section_title
;
Structure prediction by ZEFSAII (Michael W. Deem and Ramdas Pophale) SiO2 
 PCOD8314515
Probable space group: P 4/M N C
;
_chemical_formula_sum "Si O2"
_cell_formula_units_Z 64
_cell_length_a 11.781254
_cell_length_b 11.781254
_cell_length_c 25.124921
_cell_angle_alpha 90.000000
_cell_angle_beta 90.000000
_cell_angle_gamma 90.000000
_cell_volume 3487.287424
_symmetry_space_group_name_H-M "P 4/M N C"
_symmetry_group_IT_number 128
_symmetry_cell_setting 'tetragonal'
loop_
_space_group_symop_operation_xyz
x,y,z
-y,x,z
-x,-y,z
y,-x,z
1/2+x,1/2-y,1/2-z
1/2-x,1/2+y,1/2-z
1/2+y,1/2+x,1/2-z
1/2-y,1/2-x,1/2-z
-x,-y,-z
y,-x,-z
x,y,-z
-y,x,-z
1/2-x,1/2+y,1/2+z
1/2+x,1/2-y,1/2+z
1/2-y,1/2-x,1/2+z
1/2+y,1/2+x,1/2+z
loop_
_atom_site_type_symbol
_atom_site_label
_atom_site_fract_x
_atom_site_fract_y
_atom_site_fract_z
Si Si1 0.828032 0.935196 0.324021
Si Si2 0.829558 0.686602 0.000000
Si Si3 0.626477 0.873524 0.750000
Si Si4 0.818752 0.500674 0.085508
Si Si5 0.000000 0.500000 0.331482
Si Si6 0.669311 0.903455 0.000000
O O1 0.746393 0.889229 0.278087
O O2 0.933873 0.854984 0.315140
O O3 0.784743 0.932948 0.385843
O O4 0.787266 0.611686 0.949363
O O5 0.770771 0.810603 0.000000
O O6 0.965533 0.710842 0.000000
O O7 0.531677 0.890935 0.704299
O O8 0.896033 0.545141 0.133609
O O9 0.887528 0.408814 0.051411
#
# Coordination Sequence:
#
# PCOD8314515 Si02
#       6
#    16   8   8  16   8   8
#     4  10  21  36  55  83 113 140 178 229 282 326
#     4  11  21  34  56  82 117 143 186 226 274 340
#     4   9  20  32  56  81 104 142 178 225 276 316
#     4  10  18  36  57  80 104 144 187 226 270 321
#     4   9  16  33  56  80  98 133 196 219 254 334
#     4  11  21  34  54  84 111 147 184 228 274 333
#
# _framework density 18.352371999999999
#
# number of rings (size 3 to 8) (size 9 to 14) (size 15 to 20)
#    0.000    2.000    2.500    2.250    0.000    4.250 
#    0.000    0.000    0.000    6.000    0.000    0.000 
#    0.000    0.000    0.000    0.000    0.000    0.000 
#
# Total GULP energy -792853.908783 kJ/mol
# GULP energy per Si atom -12388.342325 kJ/mol
# Density = 1.831060 g / cm^3
# Si number density = 18.352372 Si / 1000 Ang^3
#
#
#
# Elastic Constant Matrix: (Units=GPa)
#
#
# Indices 1 2 3 4 5 6 
#
# 1 5.8616 120.1742 41.4426 0.0000 0.0000 0.0000
# 2 120.1742 5.8580 41.4430 0.0000 0.0000 0.0000
# 3 41.4426 41.4430 116.3701 0.0000 0.0000 0.0000
# 4 0.0000 0.0000 0.0000 19.6603 0.0000 0.0000
# 5 0.0000 0.0000 0.0000 0.0000 19.6602 0.0000
# 6 0.0000 0.0000 0.0000 0.0000 0.0000 -13.0533
#
#
#
# Elastic Compliance Matrix: (Units=1/GPa)
#
#
# Indices 1 2 3 4 5 6 
#
# 1 0.000807 0.009554 -0.003690 0.000000 0.000000 0.000000
# 2 0.009554 0.000806 -0.003690 0.000000 0.000000 0.000000
# 3 -0.003690 -0.003690 0.011221 0.000000 0.000000 0.000000
# 4 0.000000 0.000000 0.000000 0.050864 0.000000 0.000000
# 5 0.000000 0.000000 0.000000 0.000000 0.050864 0.000000
# 6 0.000000 0.000000 0.000000 0.000000 0.000000 -0.076609
#
#
# Mechanical properties :
#
#
# Convention : Reuss Voigt Hill
#
# Bulk Modulus (GPa) = 58.19379 59.35658 58.77518
# Shear Modulus (GPa) = 127.12168 0.25543 63.68855
#
# Velocity S-wave (km/s) = 8.33172 0.37347 5.89733
# Velocity P-wave (km/s) = 11.15055 5.70955 8.85815
#
# Compressibility (1/GPa) = 0.01718397
#
# Stress axis : x y z
#
# Youngs Moduli (GPa) = 1239.52079 1240.06648 89.11554
#
# Poissons Ratio (x) = -11.84807 0.32883
# Poissons Ratio (y) = -11.84286 0.32882
# Poissons Ratio (z) = 4.57373 4.57555
#
# Static dielectric constant tensor:
#      x y z
#    x 3.347900 0.000000 0.000000 
#    y 0.000000 3.347910 0.000000 
#    z 0.000000 0.000000 3.699400 
# 
# 
# High freq. dielectric constant tensor:
#      x y z
#    x 1.701530 0.000000 0.000000 
#    y 0.000000 1.701530 0.000000 
#    z 0.000000 0.000000 1.728350 
# 
# From -- ./inp_files/6279.got.cif
#   From: 2010.03.12/outbox.cif.g09.slc.cpg/sg128_4_cif.got.tgz:6279.got - 2010.04.06 17:11:05.
