data_PCOD8314553
_publ_section_title
;
Structure prediction by ZEFSAII (Michael W. Deem and Ramdas Pophale) SiO2 
 PCOD8314553
Probable space group: P 4/M N C
;
_chemical_formula_sum "Si O2"
_cell_formula_units_Z 128
_cell_length_a 20.249004
_cell_length_b 20.249004
_cell_length_c 18.435563
_cell_angle_alpha 90.000000
_cell_angle_beta 90.000000
_cell_angle_gamma 90.000000
_cell_volume 7558.989417
_symmetry_space_group_name_H-M "P 4/M N C"
_symmetry_group_IT_number 128
_symmetry_cell_setting 'tetragonal'
loop_
_space_group_symop_operation_xyz
x,y,z
-y,x,z
-x,-y,z
y,-x,z
1/2+x,1/2-y,1/2-z
1/2-x,1/2+y,1/2-z
1/2+y,1/2+x,1/2-z
1/2-y,1/2-x,1/2-z
-x,-y,-z
y,-x,-z
x,y,-z
-y,x,-z
1/2-x,1/2+y,1/2+z
1/2+x,1/2-y,1/2+z
1/2-y,1/2-x,1/2+z
1/2+y,1/2+x,1/2+z
loop_
_atom_site_type_symbol
_atom_site_label
_atom_site_fract_x
_atom_site_fract_y
_atom_site_fract_z
Si Si1 0.929092 0.676964 0.777884
Si Si2 0.487358 0.072909 0.080841
Si Si3 0.367542 0.889909 0.078767
Si Si4 0.670063 0.735825 0.203814
Si Si5 0.567582 0.843326 0.199989
Si Si6 0.406569 0.444692 0.417843
Si Si7 0.273144 0.774374 0.584406
Si Si8 0.190132 0.865520 0.818423
O O1 0.872470 0.627531 0.750000
O O2 0.942321 0.659189 0.862439
O O3 0.903249 0.751522 0.775591
O O4 0.995436 0.667927 0.732990
O O5 0.554011 0.115273 0.080782
O O6 0.435283 0.114656 0.126339
O O7 0.500000 0.000000 0.114889
O O8 0.458222 0.063893 0.000000
O O9 0.341133 0.815965 0.093645
O O10 0.342823 0.915236 0.000000
O O11 0.719978 0.780023 0.250000
O O12 0.602029 0.773230 0.184945
O O13 0.704808 0.715448 0.128040
O O14 0.651675 0.673191 0.254298
O O15 0.613724 0.886277 0.250000
O O16 0.477153 0.410848 0.405901
O O17 0.381687 0.430041 0.500000
O O18 0.356885 0.417556 0.357618
O O19 0.257734 0.758832 0.500000
O O20 0.315477 0.714972 0.619201
#
# Coordination Sequence:
#
# PCOD8314553 Si02
#       8
#    16  16  16  16  16  16  16  16
#     4  11  20  32  53  77  99 137 181 211 263 312
#     4  10  20  33  50  72 102 138 172 210 255 308
#     4   9  17  30  48  73  98 123 170 219 251 295
#     4   9  20  35  47  72 105 133 170 221 264 303
#     4  11  23  34  51  74 107 140 174 216 262 315
#     4   9  19  35  54  78 108 139 168 204 261 327
#     4   9  17  32  54  73  95 134 174 217 262 306
#     4  10  19  32  55  75 107 131 173 220 264 311
#
# _framework density 16.933481
#
# number of rings (size 3 to 8) (size 9 to 14) (size 15 to 20)
#    0.000    2.250    1.250    3.375    1.750    1.000 
#    0.000    0.000    0.000    0.750    0.000    0.000 
#    0.000    0.000    0.000    1.375    0.000    0.000 
#
# Total GULP energy -1586653.468912 kJ/mol
# GULP energy per Si atom -12395.730226 kJ/mol
# Density = 1.689494 g / cm^3
# Si number density = 16.933481 Si / 1000 Ang^3
#
#
#
# Elastic Constant Matrix: (Units=GPa)
#
#
# Indices 1 2 3 4 5 6 
#
# 1 78.6382 46.2589 40.1533 0.0000 0.0000 0.0000
# 2 46.2589 78.6380 40.1541 0.0000 0.0000 0.0000
# 3 40.1533 40.1541 98.6160 0.0000 0.0000 0.0000
# 4 0.0000 0.0000 0.0000 11.4207 0.0000 0.0000
# 5 0.0000 0.0000 0.0000 0.0000 11.4150 0.0000
# 6 0.0000 0.0000 0.0000 0.0000 0.0000 25.8045
#
#
#
# Elastic Compliance Matrix: (Units=1/GPa)
#
#
# Indices 1 2 3 4 5 6 
#
# 1 0.020865 -0.010019 -0.004416 0.000000 0.000000 0.000000
# 2 -0.010019 0.020865 -0.004416 0.000000 0.000000 0.000000
# 3 -0.004416 -0.004416 0.013737 0.000000 0.000000 0.000000
# 4 0.000000 0.000000 0.000000 0.087561 0.000000 0.000000
# 5 0.000000 0.000000 0.000000 0.000000 0.087604 0.000000
# 6 0.000000 0.000000 0.000000 0.000000 0.000000 0.038753
#
#
# Mechanical properties :
#
#
# Convention : Reuss Voigt Hill
#
# Bulk Modulus (GPa) = 56.29350 56.55829 56.42590
# Shear Modulus (GPa) = 15.97400 18.34977 17.16188
#
# Velocity S-wave (km/s) = 3.07471 3.29544 3.18699
# Velocity P-wave (km/s) = 6.77652 6.92479 6.85105
#
# Compressibility (1/GPa) = 0.01776404
#
# Stress axis : x y z
#
# Youngs Moduli (GPa) = 47.92727 47.92664 72.79765
#
# Poissons Ratio (x) = 0.48017 0.32148
# Poissons Ratio (y) = 0.48018 0.32151
# Poissons Ratio (z) = 0.21165 0.21167
#
# Static dielectric constant tensor:
#      x y z
#    x 3.088010 0.000000 0.000000 
#    y 0.000000 3.088010 0.000000 
#    z 0.000000 0.000000 3.459440 
# 
# 
# High freq. dielectric constant tensor:
#      x y z
#    x 1.636060 0.000000 0.000000 
#    y 0.000000 1.636060 0.000000 
#    z 0.000000 0.000000 1.662870 
# 
# From -- ./inp_files/5122.got.cif
#   From: 2010.03.12/outbox.cif.g09.slc.cpg/sg128_3_cif.got.tgz:5122.got - 2010.04.06 17:11:05.
