data_PCOD8314777
_publ_section_title
;
Structure prediction by ZEFSAII (Michael W. Deem and Ramdas Pophale) SiO2 
 PCOD8314777
Probable space group: P 4/M N C
;
_chemical_formula_sum "Si O2"
_cell_formula_units_Z 88
_cell_length_a 12.123955
_cell_length_b 12.123955
_cell_length_c 31.515198
_cell_angle_alpha 90.000000
_cell_angle_beta 90.000000
_cell_angle_gamma 90.000000
_cell_volume 4632.427931
_symmetry_space_group_name_H-M "P 4/M N C"
_symmetry_group_IT_number 128
_symmetry_cell_setting 'tetragonal'
loop_
_space_group_symop_operation_xyz
x,y,z
-y,x,z
-x,-y,z
y,-x,z
1/2+x,1/2-y,1/2-z
1/2-x,1/2+y,1/2-z
1/2+y,1/2+x,1/2-z
1/2-y,1/2-x,1/2-z
-x,-y,-z
y,-x,-z
x,y,-z
-y,x,-z
1/2-x,1/2+y,1/2+z
1/2+x,1/2-y,1/2+z
1/2-y,1/2-x,1/2+z
1/2+y,1/2+x,1/2+z
loop_
_atom_site_type_symbol
_atom_site_label
_atom_site_fract_x
_atom_site_fract_y
_atom_site_fract_z
Si Si1 0.113496 0.269825 0.413728
Si Si2 0.019104 0.820737 0.294226
Si Si3 0.374260 0.990698 0.133004
Si Si4 0.903069 0.842385 0.500000
Si Si5 0.008363 0.181715 0.801466
Si Si6 0.608026 0.770602 0.125294
O O1 0.134394 0.399723 0.404511
O O2 0.144011 0.229586 0.460728
O O3 0.183269 0.205450 0.378215
O O4 0.985681 0.238127 0.408393
O O5 0.008339 0.774860 0.246580
O O6 0.047526 0.725075 0.328174
O O7 0.904676 0.881178 0.302526
O O8 0.500000 0.000000 0.150080
O O9 0.289490 0.968566 0.170954
O O10 0.342260 0.109716 0.113841
O O11 0.035906 0.850341 0.500000
O O12 0.113076 0.103106 0.810580
#
# Coordination Sequence:
#
# PCOD8314777 Si02
#       6
#    16  16  16   8  16  16
#     4  11  22  38  59  89 118 148 190 240 300 360
#     4   9  17  30  55  86 110 145 200 256 298 328
#     4  10  23  38  52  79 121 165 190 226 290 364
#     4  11  22  38  65  99 119 138 187 252 301 357
#     4   9  18  36  60  82 106 150 214 261 281 320
#     4  11  20  35  59  83 116 157 193 238 296 359
#
# _framework density 18.996518999999999
#
# number of rings (size 3 to 8) (size 9 to 14) (size 15 to 20)
#    0.000    1.909    3.636    2.182    0.000    1.091 
#    0.000   11.364    0.000    0.000    0.000    0.000 
#    0.000    4.364    0.000    0.000    0.000    0.000 
#
# Total GULP energy -1090251.444077 kJ/mol
# GULP energy per Si atom -12389.220955 kJ/mol
# Density = 1.895328 g / cm^3
# Si number density = 18.996519 Si / 1000 Ang^3
#
#
#
# Elastic Constant Matrix: (Units=GPa)
#
#
# Indices 1 2 3 4 5 6 
#
# 1 75.5764 14.4264 33.5135 0.0000 0.0000 0.0000
# 2 14.4264 75.5764 33.5135 0.0000 0.0000 0.0000
# 3 33.5135 33.5135 101.7918 0.0000 0.0000 0.0000
# 4 0.0000 0.0000 0.0000 25.2427 0.0000 0.0000
# 5 0.0000 0.0000 0.0000 0.0000 25.2427 0.0000
# 6 0.0000 0.0000 0.0000 0.0000 0.0000 18.9780
#
#
#
# Elastic Compliance Matrix: (Units=1/GPa)
#
#
# Indices 1 2 3 4 5 6 
#
# 1 0.015537 -0.000817 -0.004846 0.000000 0.000000 0.000000
# 2 -0.000817 0.015537 -0.004846 0.000000 0.000000 0.000000
# 3 -0.004846 -0.004846 0.013015 0.000000 0.000000 0.000000
# 4 0.000000 0.000000 0.000000 0.039615 0.000000 0.000000
# 5 0.000000 0.000000 0.000000 0.000000 0.039615 0.000000
# 6 0.000000 0.000000 0.000000 0.000000 0.000000 0.052693
#
#
# Mechanical properties :
#
#
# Convention : Reuss Voigt Hill
#
# Bulk Modulus (GPa) = 43.34693 46.20572 44.77632
# Shear Modulus (GPa) = 24.42360 25.32544 24.87452
#
# Velocity S-wave (km/s) = 3.58954 3.65521 3.62252
# Velocity P-wave (km/s) = 6.32832 6.49539 6.41240
#
# Compressibility (1/GPa) = 0.02306968
#
# Stress axis : x y z
#
# Youngs Moduli (GPa) = 64.36427 64.36427 76.83363
#
# Poissons Ratio (x) = 0.05256 0.37236
# Poissons Ratio (y) = 0.05256 0.37236
# Poissons Ratio (z) = 0.31193 0.31193
#
# Static dielectric constant tensor:
#      x y z
#    x 3.487100 0.000000 0.000000 
#    y 0.000000 3.487100 0.000000 
#    z 0.000000 0.000000 3.240870 
# 
# 
# High freq. dielectric constant tensor:
#      x y z
#    x 1.735930 0.000000 0.000000 
#    y 0.000000 1.735930 0.000000 
#    z 0.000000 0.000000 1.716070 
# 
# From -- ./inp_files/7263.got.cif
#   From: 2010.03.12/outbox.cif.g09.slc.cpg/sg128_4_cif.got.tgz:7263.got - 2010.04.06 17:11:05.
