data_PCOD8314163
_publ_section_title
;
Structure prediction by ZEFSAII (Michael W. Deem and Ramdas Pophale) SiO2 
 PCOD8314163
Probable space group: P 4/M B M
;
_chemical_formula_sum "Si O2"
_cell_formula_units_Z 96
_cell_length_a 15.239671
_cell_length_b 15.239671
_cell_length_c 20.714939
_cell_angle_alpha 90.000000
_cell_angle_beta 90.000000
_cell_angle_gamma 90.000000
_cell_volume 4810.994291
_symmetry_space_group_name_H-M "P 4/M B M"
_symmetry_group_IT_number 127
_symmetry_cell_setting 'tetragonal'
loop_
_space_group_symop_operation_xyz
x,y,z
-y,x,z
-x,-y,z
y,-x,z
1/2+x,1/2-y,-z
1/2-x,1/2+y,-z
1/2+y,1/2+x,-z
1/2-y,1/2-x,-z
-x,-y,-z
y,-x,-z
x,y,-z
-y,x,-z
1/2-x,1/2+y,z
1/2+x,1/2-y,z
1/2-y,1/2-x,z
1/2+y,1/2+x,z
loop_
_atom_site_type_symbol
_atom_site_label
_atom_site_fract_x
_atom_site_fract_y
_atom_site_fract_z
Si Si1 0.359241 0.006266 0.734433
Si Si2 0.884214 0.085343 0.427079
Si Si3 0.359373 0.006401 0.879794
Si Si4 0.112209 0.908278 0.189821
Si Si5 0.730310 0.623935 0.927828
Si Si6 0.770986 0.124738 0.309986
O O1 0.401341 0.098660 0.708458
O O2 0.435383 0.935383 0.735780
O O3 0.323312 0.019420 0.807090
O O4 0.279656 0.969522 0.691106
O O5 0.854487 0.107187 0.500000
O O6 0.819385 0.133933 0.378210
O O7 0.981734 0.119911 0.414523
O O8 0.436079 0.936079 0.879529
O O9 0.279826 0.970570 0.923184
O O10 0.400907 0.099094 0.905419
O O11 0.152364 0.869998 0.123631
O O12 0.160500 0.867356 0.251607
O O13 0.012514 0.878168 0.192155
O O14 0.798338 0.701663 0.912648
O O15 0.691363 0.632031 0.000000
O O16 0.704192 0.204192 0.301983
#
# Coordination Sequence:
#
# PCOD8314163 Si02
#       6
#    16  16  16  16  16  16
#     4   8  14  26  47  75 107 143 179 214 262 331
#     4   9  19  38  62  85 114 156 199 231 264 317
#     4   8  13  25  47  74 105 140 176 213 261 329
#     4  11  24  41  59  78 105 147 196 234 270 332
#     4  10  20  36  58  82 110 141 178 235 299 345
#     4  11  20  34  60  89 118 146 181 236 292 333
#
# _framework density 19.954297
#
# number of rings (size 3 to 8) (size 9 to 14) (size 15 to 20)
#    0.000    2.500    1.667    3.000    0.000    2.667 
#    0.000    8.333    0.000    1.500    0.000    2.333 
#    0.000    0.000    0.000    0.000    0.000    0.000 
#
# Total GULP energy -1189825.492753 kJ/mol
# GULP energy per Si atom -12394.015550 kJ/mol
# Density = 1.990888 g / cm^3
# Si number density = 19.954297 Si / 1000 Ang^3
#
#
#
# Elastic Constant Matrix: (Units=GPa)
#
#
# Indices 1 2 3 4 5 6 
#
# 1 61.5373 16.5326 43.2580 0.0000 0.0000 0.0000
# 2 16.5326 61.5373 43.2580 0.0000 0.0000 0.0000
# 3 43.2580 43.2580 126.6348 0.0000 0.0000 0.0000
# 4 0.0000 0.0000 0.0000 24.6268 0.0000 0.0000
# 5 0.0000 0.0000 0.0000 0.0000 24.6268 0.0000
# 6 0.0000 0.0000 0.0000 0.0000 0.0000 18.9533
#
#
#
# Elastic Compliance Matrix: (Units=1/GPa)
#
#
# Indices 1 2 3 4 5 6 
#
# 1 0.021416 -0.000804 -0.007041 0.000000 0.000000 0.000000
# 2 -0.000804 0.021416 -0.007041 0.000000 0.000000 0.000000
# 3 -0.007041 -0.007041 0.012707 0.000000 0.000000 0.000000
# 4 0.000000 0.000000 0.000000 0.040606 0.000000 0.000000
# 5 0.000000 0.000000 0.000000 0.000000 0.040606 0.000000
# 6 0.000000 0.000000 0.000000 0.000000 0.000000 0.052761
#
#
# Mechanical properties :
#
#
# Convention : Reuss Voigt Hill
#
# Bulk Modulus (GPa) = 38.80961 50.64519 44.72740
# Shear Modulus (GPa) = 21.94206 23.41876 22.68041
#
# Velocity S-wave (km/s) = 3.31964 3.42953 3.37503
# Velocity P-wave (km/s) = 5.84678 6.41233 6.13607
#
# Compressibility (1/GPa) = 0.02576681
#
# Stress axis : x y z
#
# Youngs Moduli (GPa) = 46.69456 46.69456 78.69682
#
# Poissons Ratio (x) = 0.03755 0.55409
# Poissons Ratio (y) = 0.03755 0.55409
# Poissons Ratio (z) = 0.32877 0.32877
#
# Static dielectric constant tensor:
#      x y z
#    x 3.627740 0.000000 0.000000 
#    y 0.000000 3.627740 0.000000 
#    z 0.000000 0.000000 3.451710 
# 
# 
# High freq. dielectric constant tensor:
#      x y z
#    x 1.769570 0.000000 0.000000 
#    y 0.000000 1.769570 0.000000 
#    z 0.000000 0.000000 1.757150 
# 
# From -- ./inp_files/5759.got.cif
#   From: 2010.03.12/outbox.cif.g09.slc.cpg/sg127_3_cif.got.tgz:5759.got - 2010.04.06 17:03:15.
