data_PCOD8314600
_publ_section_title
;
Structure prediction by ZEFSAII (Michael W. Deem and Ramdas Pophale) SiO2 
 PCOD8314600
Probable space group: P 4/M N C
;
_chemical_formula_sum "Si O2"
_cell_formula_units_Z 96
_cell_length_a 24.996731
_cell_length_b 24.996731
_cell_length_c 8.897418
_cell_angle_alpha 90.000000
_cell_angle_beta 90.000000
_cell_angle_gamma 90.000000
_cell_volume 5559.432062
_symmetry_space_group_name_H-M "P 4/M N C"
_symmetry_group_IT_number 128
_symmetry_cell_setting 'tetragonal'
loop_
_space_group_symop_operation_xyz
x,y,z
-y,x,z
-x,-y,z
y,-x,z
1/2+x,1/2-y,1/2-z
1/2-x,1/2+y,1/2-z
1/2+y,1/2+x,1/2-z
1/2-y,1/2-x,1/2-z
-x,-y,-z
y,-x,-z
x,y,-z
-y,x,-z
1/2-x,1/2+y,1/2+z
1/2+x,1/2-y,1/2+z
1/2-y,1/2-x,1/2+z
1/2+y,1/2+x,1/2+z
loop_
_atom_site_type_symbol
_atom_site_label
_atom_site_fract_x
_atom_site_fract_y
_atom_site_fract_z
Si Si1 0.254660 0.460792 0.821543
Si Si2 0.732026 0.312105 0.324804
Si Si3 0.854632 0.727066 0.178487
Si Si4 0.444932 0.384325 0.165047
Si Si5 0.076475 0.762031 0.664206
Si Si6 0.046973 0.132005 0.176226
O O1 0.218540 0.412343 0.758168
O O2 0.230927 0.521136 0.785726
O O3 0.307818 0.450842 0.727920
O O4 0.263494 0.454158 0.000000
O O5 0.779632 0.279632 0.250000
O O6 0.741836 0.309811 0.500000
O O7 0.674342 0.284803 0.285612
O O8 0.738610 0.374051 0.277288
O O9 0.818578 0.681423 0.250000
O O10 0.860301 0.719197 0.000000
O O11 0.446434 0.321153 0.147574
O O12 0.499875 0.402120 0.244587
O O13 0.395542 0.398184 0.272628
O O14 0.439559 0.411119 0.000000
O O15 0.095918 0.741283 0.500000
O O16 0.039483 0.129461 0.000000
#
# Coordination Sequence:
#
# PCOD8314600 Si02
#       6
#    16  16  16  16  16  16
#     4  10  20  34  50  69  95 128 160 194 238 289
#     4  10  20  32  49  72  99 129 162 200 244 290
#     4  10  20  33  50  74 101 131 166 206 249 295
#     4  10  20  34  48  62  83 115 151 190 238 287
#     4   9  19  33  49  68  92 122 157 194 235 283
#     4  11  21  32  46  65  86 111 149 196 239 282
#
# _framework density 17.267951
#
# number of rings (size 3 to 8) (size 9 to 14) (size 15 to 20)
#    0.000    2.000    0.000    5.500    0.000    9.000 
#    0.000    1.667    0.000    0.000    0.000    0.000 
#    0.000    0.667    0.000    7.000    0.000    3.000 
#
# Total GULP energy -1189360.166034 kJ/mol
# GULP energy per Si atom -12389.168396 kJ/mol
# Density = 1.722865 g / cm^3
# Si number density = 17.267951 Si / 1000 Ang^3
#
#
#
# Elastic Constant Matrix: (Units=GPa)
#
#
# Indices 1 2 3 4 5 6 
#
# 1 64.8475 4.7718 30.7640 0.0000 0.0000 0.0000
# 2 4.7718 64.8540 30.7497 0.0000 0.0000 0.0000
# 3 30.7640 30.7497 104.6860 0.0000 0.0000 0.0000
# 4 0.0000 0.0000 0.0000 26.6577 0.0000 0.0000
# 5 0.0000 0.0000 0.0000 0.0000 26.6575 0.0000
# 6 0.0000 0.0000 0.0000 0.0000 0.0000 17.5882
#
#
#
# Elastic Compliance Matrix: (Units=1/GPa)
#
#
# Indices 1 2 3 4 5 6 
#
# 1 0.018024 0.001377 -0.005701 0.000000 0.000000 0.000000
# 2 0.001377 0.018019 -0.005698 0.000000 0.000000 0.000000
# 3 -0.005701 -0.005698 0.012901 0.000000 0.000000 0.000000
# 4 0.000000 0.000000 0.000000 0.037513 0.000000 0.000000
# 5 0.000000 0.000000 0.000000 0.000000 0.037513 0.000000
# 6 0.000000 0.000000 0.000000 0.000000 0.000000 0.056856
#
#
# Mechanical properties :
#
#
# Convention : Reuss Voigt Hill
#
# Bulk Modulus (GPa) = 34.60048 40.77315 37.68681
# Shear Modulus (GPa) = 23.75254 25.38749 24.57001
#
# Velocity S-wave (km/s) = 3.71283 3.83849 3.77618
# Velocity P-wave (km/s) = 6.20170 6.58093 6.39413
#
# Compressibility (1/GPa) = 0.02890134
#
# Stress axis : x y z
#
# Youngs Moduli (GPa) = 55.48112 55.49598 77.51142
#
# Poissons Ratio (x) = -0.07642 0.44191
# Poissons Ratio (y) = -0.07640 0.44162
# Poissons Ratio (z) = 0.31631 0.31619
#
# Static dielectric constant tensor:
#      x y z
#    x 3.233450 0.000000 0.000000 
#    y 0.000000 3.233460 0.000000 
#    z 0.000000 0.000000 3.362710 
# 
# 
# High freq. dielectric constant tensor:
#      x y z
#    x 1.640850 0.000000 0.000000 
#    y 0.000000 1.640850 0.000000 
#    z 0.000000 0.000000 1.684280 
# 
# From -- ./inp_files/1426.got.cif
#   From: 2010.03.12/outbox.cif.g09.slc.cpg/sg128_1_cif.got.tgz:1426.got - 2010.04.06 17:11:05.
