data_PCOD8314418
_publ_section_title
;
Structure prediction by ZEFSAII (Michael W. Deem and Ramdas Pophale) SiO2 
 PCOD8314418
Probable space group: P 4/M B M
;
_chemical_formula_sum "Si O2"
_cell_formula_units_Z 112
_cell_length_a 15.215965
_cell_length_b 15.215965
_cell_length_c 27.966804
_cell_angle_alpha 90.000000
_cell_angle_beta 90.000000
_cell_angle_gamma 90.000000
_cell_volume 6475.030821
_symmetry_space_group_name_H-M "P 4/M B M"
_symmetry_group_IT_number 127
_symmetry_cell_setting 'tetragonal'
loop_
_space_group_symop_operation_xyz
x,y,z
-y,x,z
-x,-y,z
y,-x,z
1/2+x,1/2-y,-z
1/2-x,1/2+y,-z
1/2+y,1/2+x,-z
1/2-y,1/2-x,-z
-x,-y,-z
y,-x,-z
x,y,-z
-y,x,-z
1/2-x,1/2+y,z
1/2+x,1/2-y,z
1/2-y,1/2-x,z
1/2+y,1/2+x,z
loop_
_atom_site_type_symbol
_atom_site_label
_atom_site_fract_x
_atom_site_fract_y
_atom_site_fract_z
Si Si1 0.689987 0.660880 0.747174
Si Si2 0.978971 0.240314 0.903836
Si Si3 0.068195 0.568195 0.095536
Si Si4 0.617186 0.588061 0.654101
Si Si5 0.615949 0.587276 0.449587
Si Si6 0.664698 0.308535 0.055897
Si Si7 0.021512 0.759583 0.208832
Si Si8 0.431824 0.068177 0.790863
O O1 0.756893 0.743108 0.753853
O O2 0.682002 0.634466 0.691678
O O3 0.591694 0.677965 0.765822
O O4 0.722083 0.578800 0.778131
O O5 0.078984 0.220812 0.915862
O O6 0.957829 0.336769 0.923429
O O7 0.910362 0.177728 0.930800
O O8 0.964560 0.230948 0.847545
O O9 0.064843 0.564843 0.152335
O O10 0.000000 0.500000 0.072786
O O11 0.517123 0.620853 0.660636
O O12 0.655818 0.617294 0.601606
O O13 0.516955 0.620179 0.450087
O O14 0.661195 0.621352 0.500000
O O15 0.747395 0.247395 0.072016
O O16 0.647437 0.299106 0.000000
O O17 0.042525 0.663105 0.228207
O O18 0.500000 0.000000 0.768080
#
# Coordination Sequence:
#
# PCOD8314418 Si02
#       8
#    16  16   8  16  16  16  16   8
#     4  12  23  36  53  78 113 147 185 226 276 327
#     4  11  22  40  62  85 114 144 180 219 264 317
#     4   9  18  34  61  88 109 137 180 227 264 298
#     4   9  16  29  48  70 103 141 176 221 275 327
#     4   7  10  18  37  66  95 127 171 219 268 323
#     4  11  24  42  63  87 115 143 173 216 270 325
#     4  11  23  36  57  82 108 145 182 224 265 318
#     4   9  18  36  54  77 108 140 180 224 267 307
#
# _framework density 17.297215000000001
#
# number of rings (size 3 to 8) (size 9 to 14) (size 15 to 20)
#    0.000    2.000    2.857    3.429    0.000    3.429 
#    0.000    2.143    0.000    2.143    0.000    0.000 
#    0.000    0.000    0.000    0.000    0.000   16.429 
#
# Total GULP energy -1387862.281181 kJ/mol
# GULP energy per Si atom -12391.627511 kJ/mol
# Density = 1.725785 g / cm^3
# Si number density = 17.297215 Si / 1000 Ang^3
#
#
#
# Elastic Constant Matrix: (Units=GPa)
#
#
# Indices 1 2 3 4 5 6 
#
# 1 75.1446 21.5560 17.9998 0.0000 0.0000 0.0000
# 2 21.5560 75.1446 17.9998 0.0000 0.0000 0.0000
# 3 17.9998 17.9998 57.7402 0.0000 0.0000 0.0000
# 4 0.0000 0.0000 0.0000 14.4417 0.0000 0.0000
# 5 0.0000 0.0000 0.0000 0.0000 14.4417 0.0000
# 6 0.0000 0.0000 0.0000 0.0000 0.0000 31.7793
#
#
#
# Elastic Compliance Matrix: (Units=1/GPa)
#
#
# Indices 1 2 3 4 5 6 
#
# 1 0.015180 -0.003481 -0.003647 0.000000 0.000000 0.000000
# 2 -0.003481 0.015180 -0.003647 0.000000 0.000000 0.000000
# 3 -0.003647 -0.003647 0.019593 0.000000 0.000000 0.000000
# 4 0.000000 0.000000 0.000000 0.069244 0.000000 0.000000
# 5 0.000000 0.000000 0.000000 0.000000 0.069244 0.000000
# 6 0.000000 0.000000 0.000000 0.000000 0.000000 0.031467
#
#
# Mechanical properties :
#
#
# Convention : Reuss Voigt Hill
#
# Bulk Modulus (GPa) = 35.20805 35.90452 35.55628
# Shear Modulus (GPa) = 19.92635 22.16416 21.04525
#
# Velocity S-wave (km/s) = 3.39779 3.58351 3.49188
# Velocity P-wave (km/s) = 5.98266 6.15829 6.07111
#
# Compressibility (1/GPa) = 0.02840260
#
# Stress axis : x y z
#
# Youngs Moduli (GPa) = 65.87711 65.87711 51.03929
#
# Poissons Ratio (x) = 0.22931 0.18614
# Poissons Ratio (y) = 0.22931 0.18614
# Poissons Ratio (z) = 0.24025 0.24025
#
# Static dielectric constant tensor:
#      x y z
#    x 3.178060 0.000000 0.000000 
#    y 0.000000 3.178060 0.000000 
#    z 0.000000 0.000000 3.458090 
# 
# 
# High freq. dielectric constant tensor:
#      x y z
#    x 1.653340 0.000000 0.000000 
#    y 0.000000 1.653340 0.000000 
#    z 0.000000 0.000000 1.671000 
# 
# From -- ./inp_files/6429.got.cif
#   From: 2010.03.12/outbox.cif.g09.slc.cpg/sg127_4_cif.got.tgz:6429.got - 2010.04.06 17:03:15.
