data_PCOD8314264
_publ_section_title
;
Structure prediction by ZEFSAII (Michael W. Deem and Ramdas Pophale) SiO2 
 PCOD8314264
Probable space group: P 4/M B M
;
_chemical_formula_sum "Si O2"
_cell_formula_units_Z 112
_cell_length_a 13.564991
_cell_length_b 13.564991
_cell_length_c 32.075149
_cell_angle_alpha 90.000000
_cell_angle_beta 90.000000
_cell_angle_gamma 90.000000
_cell_volume 5902.115477
_symmetry_space_group_name_H-M "P 4/M B M"
_symmetry_group_IT_number 127
_symmetry_cell_setting 'tetragonal'
loop_
_space_group_symop_operation_xyz
x,y,z
-y,x,z
-x,-y,z
y,-x,z
1/2+x,1/2-y,-z
1/2-x,1/2+y,-z
1/2+y,1/2+x,-z
1/2-y,1/2-x,-z
-x,-y,-z
y,-x,-z
x,y,-z
-y,x,-z
1/2-x,1/2+y,z
1/2+x,1/2-y,z
1/2-y,1/2-x,z
1/2+y,1/2+x,z
loop_
_atom_site_type_symbol
_atom_site_label
_atom_site_fract_x
_atom_site_fract_y
_atom_site_fract_z
Si Si1 0.999760 0.662135 0.170403
Si Si2 0.111631 0.227203 0.453116
Si Si3 0.737212 0.922788 0.915492
Si Si4 0.877838 0.778716 0.953536
Si Si5 0.251319 0.085518 0.408950
Si Si6 0.020120 0.840305 0.671176
Si Si7 0.162414 0.003737 0.765452
O O1 0.084163 0.584163 0.181149
O O2 0.027929 0.724387 0.129526
O O3 0.995476 0.739960 0.207387
O O4 0.895192 0.604809 0.164682
O O5 0.113793 0.183739 0.500000
O O6 0.174987 0.325014 0.450017
O O7 0.152742 0.145748 0.420989
O O8 0.002121 0.260030 0.441686
O O9 0.640154 0.859847 0.927839
O O10 0.834014 0.853300 0.918585
O O11 0.756593 0.007655 0.948622
O O12 0.825982 0.674019 0.948253
O O13 0.859687 0.822303 0.000000
O O14 0.347883 0.152118 0.412935
O O15 0.245860 0.040679 0.362115
O O16 0.015810 0.798991 0.718153
O O17 0.916285 0.891714 0.663690
O O18 0.094608 0.098985 0.774485
#
# Coordination Sequence:
#
# PCOD8314264 Si02
#       7
#    16  16  16  16  16  16  16
#     4  10  22  39  59  85 117 156 199 237 281 343
#     4  10  22  38  55  81 114 147 192 243 292 352
#     4  10  22  39  58  83 119 155 192 241 292 345
#     4  10  21  37  59  86 114 150 198 242 286 346
#     4  11  21  35  58  84 112 149 195 240 287 346
#     4   9  17  35  59  83 112 147 186 234 284 336
#     4   9  20  37  60  90 120 149 189 234 285 347
#
# _framework density 18.976247000000001
#
# number of rings (size 3 to 8) (size 9 to 14) (size 15 to 20)
#    0.000    2.143    1.429    2.143    2.000    4.571 
#    0.000    5.714    0.000    0.000    0.000    0.000 
#    0.000    0.000    0.000    0.000    0.000    0.000 
#
# Total GULP energy -1388364.318520 kJ/mol
# GULP energy per Si atom -12396.109987 kJ/mol
# Density = 1.893306 g / cm^3
# Si number density = 18.976247 Si / 1000 Ang^3
#
#
#
# Elastic Constant Matrix: (Units=GPa)
#
#
# Indices 1 2 3 4 5 6 
#
# 1 97.4495 29.2456 52.5656 0.0000 0.0000 0.0000
# 2 29.2456 97.4495 52.5656 0.0000 0.0000 0.0000
# 3 52.5656 52.5656 97.0169 0.0000 0.0000 0.0000
# 4 0.0000 0.0000 0.0000 33.2518 0.0000 0.0000
# 5 0.0000 0.0000 0.0000 0.0000 33.2518 0.0000
# 6 0.0000 0.0000 0.0000 0.0000 0.0000 17.8052
#
#
#
# Elastic Compliance Matrix: (Units=1/GPa)
#
#
# Indices 1 2 3 4 5 6 
#
# 1 0.014501 -0.000161 -0.007770 0.000000 0.000000 0.000000
# 2 -0.000161 0.014501 -0.007770 0.000000 0.000000 0.000000
# 3 -0.007770 -0.007770 0.018727 0.000000 0.000000 0.000000
# 4 0.000000 0.000000 0.000000 0.030074 0.000000 0.000000
# 5 0.000000 0.000000 0.000000 0.000000 0.030074 0.000000
# 6 0.000000 0.000000 0.000000 0.000000 0.000000 0.056163
#
#
# Mechanical properties :
#
#
# Convention : Reuss Voigt Hill
#
# Bulk Modulus (GPa) = 61.24284 62.29662 61.76973
# Shear Modulus (GPa) = 24.88999 27.36437 26.12718
#
# Velocity S-wave (km/s) = 3.62559 3.80153 3.71460
# Velocity P-wave (km/s) = 7.06187 7.22280 7.14279
#
# Compressibility (1/GPa) = 0.01632844
#
# Stress axis : x y z
#
# Youngs Moduli (GPa) = 68.95999 68.95999 53.39810
#
# Poissons Ratio (x) = 0.01109 0.41490
# Poissons Ratio (y) = 0.01109 0.41490
# Poissons Ratio (z) = 0.53581 0.53581
#
# Static dielectric constant tensor:
#      x y z
#    x 3.366680 0.000000 0.000000 
#    y 0.000000 3.366680 0.000000 
#    z 0.000000 0.000000 3.531350 
# 
# 
# High freq. dielectric constant tensor:
#      x y z
#    x 1.730570 0.000000 0.000000 
#    y 0.000000 1.730570 0.000000 
#    z 0.000000 0.000000 1.744200 
# 
# From -- ./inp_files/6393.got.cif
#   From: 2010.03.12/outbox.cif.g09.slc.cpg/sg127_4_cif.got.tgz:6393.got - 2010.04.06 17:03:15.
