data_PCOD8314516
_publ_section_title
;
Structure prediction by ZEFSAII (Michael W. Deem and Ramdas Pophale) SiO2 
 PCOD8314516
Probable space group: P 4/M N C
;
_chemical_formula_sum "Si O2"
_cell_formula_units_Z 80
_cell_length_a 15.232144
_cell_length_b 15.232144
_cell_length_c 19.084406
_cell_angle_alpha 90.000000
_cell_angle_beta 90.000000
_cell_angle_gamma 90.000000
_cell_volume 4427.929735
_symmetry_space_group_name_H-M "P 4/M N C"
_symmetry_group_IT_number 128
_symmetry_cell_setting 'tetragonal'
loop_
_space_group_symop_operation_xyz
x,y,z
-y,x,z
-x,-y,z
y,-x,z
1/2+x,1/2-y,1/2-z
1/2-x,1/2+y,1/2-z
1/2+y,1/2+x,1/2-z
1/2-y,1/2-x,1/2-z
-x,-y,-z
y,-x,-z
x,y,-z
-y,x,-z
1/2-x,1/2+y,1/2+z
1/2+x,1/2-y,1/2+z
1/2-y,1/2-x,1/2+z
1/2+y,1/2+x,1/2+z
loop_
_atom_site_type_symbol
_atom_site_label
_atom_site_fract_x
_atom_site_fract_y
_atom_site_fract_z
Si Si1 0.316154 0.322318 0.420976
Si Si2 0.133378 0.948003 0.725082
Si Si3 0.002885 0.226345 0.863741
Si Si4 0.085253 0.456098 0.330009
Si Si5 0.336797 0.780806 0.171883
O O1 0.320531 0.285767 0.500000
O O2 0.412490 0.316955 0.386527
O O3 0.283094 0.423751 0.424346
O O4 0.248134 0.262158 0.376564
O O5 0.173843 0.945599 0.802514
O O6 0.201353 0.905654 0.670528
O O7 0.049141 0.887526 0.712254
O O8 0.983995 0.327338 0.839893
O O9 0.059171 0.440830 0.250000
O O10 0.109261 0.361647 0.362378
O O11 0.000000 0.500000 0.367806
O O12 0.303229 0.803229 0.250000
#
# Coordination Sequence:
#
# PCOD8314516 Si02
#       5
#    16  16  16  16  16
#     4  11  23  36  56  84 121 162 197 238 300 368
#     4  11  20  33  55  84 114 145 189 244 295 345
#     4  11  19  35  54  81 123 153 193 237 293 365
#     4   9  17  30  51  80 109 142 188 232 284 343
#     4  10  18  37  53  76 112 151 197 239 287 342
#
# _framework density 18.067135
#
# number of rings (size 3 to 8) (size 9 to 14) (size 15 to 20)
#    0.000    1.600    8.000    0.600    0.000    2.000 
#    3.600    1.000    0.000   21.000    0.000    1.400 
#    0.000    0.000    0.000    0.000    0.000    0.000 
#
# Total GULP energy -991055.933184 kJ/mol
# GULP energy per Si atom -12388.199165 kJ/mol
# Density = 1.802601 g / cm^3
# Si number density = 18.067135 Si / 1000 Ang^3
#
#
#
# Elastic Constant Matrix: (Units=GPa)
#
#
# Indices 1 2 3 4 5 6 
#
# 1 111.0927 59.1739 36.1337 0.0000 0.0000 0.0000
# 2 59.1739 111.0928 36.1338 0.0000 0.0000 0.0000
# 3 36.1337 36.1338 56.9878 0.0000 0.0000 0.0000
# 4 0.0000 0.0000 0.0000 11.3095 0.0000 0.0000
# 5 0.0000 0.0000 0.0000 0.0000 11.3091 0.0000
# 6 0.0000 0.0000 0.0000 0.0000 0.0000 34.0574
#
#
#
# Elastic Compliance Matrix: (Units=1/GPa)
#
#
# Indices 1 2 3 4 5 6 
#
# 1 0.013648 -0.005613 -0.005095 0.000000 0.000000 0.000000
# 2 -0.005613 0.013648 -0.005095 0.000000 0.000000 0.000000
# 3 -0.005095 -0.005095 0.024009 0.000000 0.000000 0.000000
# 4 0.000000 0.000000 0.000000 0.088421 0.000000 0.000000
# 5 0.000000 0.000000 0.000000 0.000000 0.088424 0.000000
# 6 0.000000 0.000000 0.000000 0.000000 0.000000 0.029362
#
#
# Mechanical properties :
#
#
# Convention : Reuss Voigt Hill
#
# Bulk Modulus (GPa) = 50.76202 60.22845 55.49524
# Shear Modulus (GPa) = 16.90987 21.18400 19.04694
#
# Velocity S-wave (km/s) = 3.06264 3.42792 3.25042
# Velocity P-wave (km/s) = 6.37681 7.00541 6.69849
#
# Compressibility (1/GPa) = 0.01969977
#
# Stress axis : x y z
#
# Youngs Moduli (GPa) = 73.26941 73.26939 41.65124
#
# Poissons Ratio (x) = 0.41123 0.21222
# Poissons Ratio (y) = 0.41123 0.21222
# Poissons Ratio (z) = 0.37332 0.37332
#
# Static dielectric constant tensor:
#      x y z
#    x 3.688000 0.000000 0.000000 
#    y 0.000000 3.688010 0.000000 
#    z 0.000000 0.000000 2.950810 
# 
# 
# High freq. dielectric constant tensor:
#      x y z
#    x 1.704990 0.000000 0.000000 
#    y 0.000000 1.704990 0.000000 
#    z 0.000000 0.000000 1.649030 
# 
# From -- ./inp_files/5525.got.cif
#   From: 2010.03.12/outbox.cif.g09.slc.cpg/sg128_3_cif.got.tgz:5525.got - 2010.04.06 17:11:05.
