data_PCOD8314617
_publ_section_title
;
Structure prediction by ZEFSAII (Michael W. Deem and Ramdas Pophale) SiO2 
 PCOD8314617
Probable space group: P 4/M N C
;
_chemical_formula_sum "Si O2"
_cell_formula_units_Z 96
_cell_length_a 25.292003
_cell_length_b 25.292003
_cell_length_c 8.811902
_cell_angle_alpha 90.000000
_cell_angle_beta 90.000000
_cell_angle_gamma 90.000000
_cell_volume 5636.845194
_symmetry_space_group_name_H-M "P 4/M N C"
_symmetry_group_IT_number 128
_symmetry_cell_setting 'tetragonal'
loop_
_space_group_symop_operation_xyz
x,y,z
-y,x,z
-x,-y,z
y,-x,z
1/2+x,1/2-y,1/2-z
1/2-x,1/2+y,1/2-z
1/2+y,1/2+x,1/2-z
1/2-y,1/2-x,1/2-z
-x,-y,-z
y,-x,-z
x,y,-z
-y,x,-z
1/2-x,1/2+y,1/2+z
1/2+x,1/2-y,1/2+z
1/2-y,1/2-x,1/2+z
1/2+y,1/2+x,1/2+z
loop_
_atom_site_type_symbol
_atom_site_label
_atom_site_fract_x
_atom_site_fract_y
_atom_site_fract_z
Si Si1 0.061393 0.247456 0.332595
Si Si2 0.564144 0.751508 0.829683
Si Si3 0.944580 0.636794 0.680858
Si Si4 0.855661 0.938930 0.819326
Si Si5 0.140762 0.559552 0.680645
Si Si6 0.058311 0.142759 0.821775
O O1 0.083256 0.234697 0.500000
O O2 0.080610 0.305521 0.278792
O O3 0.080962 0.200437 0.223799
O O4 0.998572 0.250115 0.334129
O O5 0.584946 0.698319 0.749024
O O6 0.582317 0.802510 0.734274
O O7 0.587441 0.755036 0.000000
O O8 0.906856 0.593145 0.750000
O O9 0.950799 0.630489 0.500000
O O10 0.001079 0.629992 0.758262
O O11 0.903902 0.903233 0.757357
O O12 0.865891 0.998756 0.759918
O O13 0.850950 0.937655 0.000000
O O14 0.095757 0.595757 0.750000
O O15 0.138259 0.559818 0.500000
O O16 0.058190 0.139509 0.000000
#
# Coordination Sequence:
#
# PCOD8314617 Si02
#       6
#    16  16  16  16  16  16
#     4   8  16  30  47  66  91 121 158 198 237 281
#     4   9  17  31  49  69  92 123 162 202 238 280
#     4  10  20  34  51  74 100 128 161 198 239 285
#     4   9  17  29  45  69  97 128 162 200 242 287
#     4  11  21  34  52  74 100 129 159 195 236 283
#     4   9  17  28  45  68  96 127 162 199 241 288
#
# _framework density 17.030804
#
# number of rings (size 3 to 8) (size 9 to 14) (size 15 to 20)
#    0.000    2.667    0.000    3.500    0.000    6.000 
#    0.000    3.333    0.000    1.000    0.000    7.000 
#    0.000    0.000    0.000    0.000    0.000    0.000 
#
# Total GULP energy -1189946.236049 kJ/mol
# GULP energy per Si atom -12395.273292 kJ/mol
# Density = 1.699204 g / cm^3
# Si number density = 17.030804 Si / 1000 Ang^3
#
#
#
# Elastic Constant Matrix: (Units=GPa)
#
#
# Indices 1 2 3 4 5 6 
#
# 1 102.1071 63.6045 42.5858 0.0000 0.0000 0.0000
# 2 63.6045 102.1095 42.5856 0.0000 0.0000 0.0000
# 3 42.5858 42.5856 82.3225 0.0000 0.0000 0.0000
# 4 0.0000 0.0000 0.0000 23.6003 0.0000 0.0000
# 5 0.0000 0.0000 0.0000 0.0000 23.6000 0.0000
# 6 0.0000 0.0000 0.0000 0.0000 0.0000 1.1288
#
#
#
# Elastic Compliance Matrix: (Units=1/GPa)
#
#
# Indices 1 2 3 4 5 6 
#
# 1 0.017096 -0.008876 -0.004252 0.000000 0.000000 0.000000
# 2 -0.008876 0.017095 -0.004252 0.000000 0.000000 0.000000
# 3 -0.004252 -0.004252 0.016547 0.000000 0.000000 0.000000
# 4 0.000000 0.000000 0.000000 0.042372 0.000000 0.000000
# 5 0.000000 0.000000 0.000000 0.000000 0.042373 0.000000
# 6 0.000000 0.000000 0.000000 0.000000 0.000000 0.885874
#
#
# Mechanical properties :
#
#
# Convention : Reuss Voigt Hill
#
# Bulk Modulus (GPa) = 62.58669 64.89899 63.74284
# Shear Modulus (GPa) = 4.71056 18.85004 11.78030
#
# Velocity S-wave (km/s) = 1.66491 3.33050 2.63288
# Velocity P-wave (km/s) = 6.36591 7.27868 6.83754
#
# Compressibility (1/GPa) = 0.01597784
#
# Stress axis : x y z
#
# Youngs Moduli (GPa) = 58.49302 58.49494 60.43466
#
# Poissons Ratio (x) = 0.51918 0.25700
# Poissons Ratio (y) = 0.51917 0.25697
# Poissons Ratio (z) = 0.24874 0.24873
#
# Static dielectric constant tensor:
#      x y z
#    x 3.307640 0.000000 0.000000 
#    y 0.000000 3.307640 0.000000 
#    z 0.000000 0.000000 3.271500 
# 
# 
# High freq. dielectric constant tensor:
#      x y z
#    x 1.642210 0.000000 0.000000 
#    y 0.000000 1.642210 0.000000 
#    z 0.000000 0.000000 1.661870 
# 
# From -- ./inp_files/1455.got.cif
#   From: 2010.03.12/outbox.cif.g09.slc.cpg/sg128_1_cif.got.tgz:1455.got - 2010.04.06 17:11:05.
