data_PCOD8314154
_publ_section_title
;
Structure prediction by ZEFSAII (Michael W. Deem and Ramdas Pophale) SiO2 
 PCOD8314154
Probable space group: P 4/M B M
;
_chemical_formula_sum "Si O2"
_cell_formula_units_Z 88
_cell_length_a 15.490463
_cell_length_b 15.490463
_cell_length_c 20.697342
_cell_angle_alpha 90.000000
_cell_angle_beta 90.000000
_cell_angle_gamma 90.000000
_cell_volume 4966.419191
_symmetry_space_group_name_H-M "P 4/M B M"
_symmetry_group_IT_number 127
_symmetry_cell_setting 'tetragonal'
loop_
_space_group_symop_operation_xyz
x,y,z
-y,x,z
-x,-y,z
y,-x,z
1/2+x,1/2-y,-z
1/2-x,1/2+y,-z
1/2+y,1/2+x,-z
1/2-y,1/2-x,-z
-x,-y,-z
y,-x,-z
x,y,-z
-y,x,-z
1/2-x,1/2+y,z
1/2+x,1/2-y,z
1/2-y,1/2-x,z
1/2+y,1/2+x,z
loop_
_atom_site_type_symbol
_atom_site_label
_atom_site_fract_x
_atom_site_fract_y
_atom_site_fract_z
Si Si1 0.561401 0.370032 0.139911
Si Si2 0.897047 0.746740 0.255294
Si Si3 0.183699 0.176146 0.378738
Si Si4 0.060453 0.128092 0.000000
Si Si5 0.927589 0.572412 0.571715
Si Si6 0.680202 0.961182 0.338959
Si Si7 0.385247 0.415642 0.500000
O O1 0.612802 0.459604 0.148683
O O2 0.595792 0.301682 0.190783
O O3 0.581756 0.326747 0.068915
O O4 0.829266 0.670735 0.243037
O O5 0.867505 0.810327 0.312408
O O6 0.990902 0.708055 0.273241
O O7 0.240709 0.259292 0.396217
O O8 0.243033 0.092251 0.370757
O O9 0.116974 0.162831 0.436242
O O10 0.112149 0.040235 0.000000
O O11 0.898854 0.601147 0.500000
O O12 0.844991 0.535317 0.609427
O O13 0.000000 0.500000 0.566909
O O14 0.599641 0.900360 0.321166
O O15 0.482010 0.380547 0.500000
#
# Coordination Sequence:
#
# PCOD8314154 Si02
#       7
#    16  16  16   8   8  16   8
#     4   9  17  31  54  78 102 133 169 206 247 297
#     4  11  21  34  49  76 107 135 167 208 253 307
#     4  10  22  37  53  72  98 129 165 215 263 299
#     4   7  12  26  49  78 102 125 165 211 244 281
#     4   9  18  32  52  74  88 117 171 220 252 289
#     4  10  20  36  54  73 100 132 171 214 257 307
#     4  11  23  38  54  70  94 130 167 203 252 323
#
# _framework density 17.719003000000001
#
# number of rings (size 3 to 8) (size 9 to 14) (size 15 to 20)
#    0.000    2.273    0.909    3.545    1.273    0.000 
#    1.636    2.273    0.000    0.000    0.000    1.909 
#    0.000    1.455    0.000    0.000    0.000    0.000 
#
# Total GULP energy -1090945.224379 kJ/mol
# GULP energy per Si atom -12397.104822 kJ/mol
# Density = 1.767867 g / cm^3
# Si number density = 17.719003 Si / 1000 Ang^3
#
#
#
# Elastic Constant Matrix: (Units=GPa)
#
#
# Indices 1 2 3 4 5 6 
#
# 1 51.1384 16.8121 34.4866 0.0000 0.0000 0.0000
# 2 16.8121 51.1384 34.4866 0.0000 0.0000 0.0000
# 3 34.4866 34.4866 132.6614 0.0000 0.0000 0.0000
# 4 0.0000 0.0000 0.0000 20.3311 0.0000 0.0000
# 5 0.0000 0.0000 0.0000 0.0000 20.3312 0.0000
# 6 0.0000 0.0000 0.0000 0.0000 0.0000 14.7931
#
#
#
# Elastic Compliance Matrix: (Units=1/GPa)
#
#
# Indices 1 2 3 4 5 6 
#
# 1 0.024562 -0.004570 -0.005197 0.000000 0.000000 0.000000
# 2 -0.004570 0.024562 -0.005197 0.000000 0.000000 0.000000
# 3 -0.005197 -0.005197 0.010240 0.000000 0.000000 0.000000
# 4 0.000000 0.000000 0.000000 0.049186 0.000000 0.000000
# 5 0.000000 0.000000 0.000000 0.000000 0.049186 0.000000
# 6 0.000000 0.000000 0.000000 0.000000 0.000000 0.067599
#
#
# Mechanical properties :
#
#
# Convention : Reuss Voigt Hill
#
# Bulk Modulus (GPa) = 33.97258 45.16766 39.57012
# Shear Modulus (GPa) = 18.86261 21.03462 19.94861
#
# Velocity S-wave (km/s) = 3.26627 3.44920 3.35898
# Velocity P-wave (km/s) = 5.78267 6.43499 6.11753
#
# Compressibility (1/GPa) = 0.02943550
#
# Stress axis : x y z
#
# Youngs Moduli (GPa) = 40.71319 40.71318 97.65573
#
# Poissons Ratio (x) = 0.18607 0.50753
# Poissons Ratio (y) = 0.18607 0.50753
# Poissons Ratio (z) = 0.21159 0.21159
#
# Static dielectric constant tensor:
#      x y z
#    x 3.224850 0.000000 0.000000 
#    y 0.000000 3.224850 0.000000 
#    z 0.000000 0.000000 3.445460 
# 
# 
# High freq. dielectric constant tensor:
#      x y z
#    x 1.679860 0.000000 0.000000 
#    y 0.000000 1.679860 0.000000 
#    z 0.000000 0.000000 1.681560 
# 
# From -- ./inp_files/5723.got.cif
#   From: 2010.03.12/outbox.cif.g09.slc.cpg/sg127_3_cif.got.tgz:5723.got - 2010.04.06 17:03:15.
