data_PCOD8314342
_publ_section_title
;
Structure prediction by ZEFSAII (Michael W. Deem and Ramdas Pophale) SiO2 
 PCOD8314342
Probable space group: P 4/M B M
;
_chemical_formula_sum "Si O2"
_cell_formula_units_Z 88
_cell_length_a 15.488045
_cell_length_b 15.488045
_cell_length_c 20.996018
_cell_angle_alpha 90.000000
_cell_angle_beta 90.000000
_cell_angle_gamma 90.000000
_cell_volume 5036.515096
_symmetry_space_group_name_H-M "P 4/M B M"
_symmetry_group_IT_number 127
_symmetry_cell_setting 'tetragonal'
loop_
_space_group_symop_operation_xyz
x,y,z
-y,x,z
-x,-y,z
y,-x,z
1/2+x,1/2-y,-z
1/2-x,1/2+y,-z
1/2+y,1/2+x,-z
1/2-y,1/2-x,-z
-x,-y,-z
y,-x,-z
x,y,-z
-y,x,-z
1/2-x,1/2+y,z
1/2+x,1/2-y,z
1/2-y,1/2-x,z
1/2+y,1/2+x,z
loop_
_atom_site_type_symbol
_atom_site_label
_atom_site_fract_x
_atom_site_fract_y
_atom_site_fract_z
Si Si1 0.805988 0.162596 0.889684
Si Si2 0.575775 0.379666 0.500000
Si Si3 0.475633 0.245424 0.928284
Si Si4 0.423630 0.620784 0.637035
Si Si5 0.880846 0.758386 0.248966
Si Si6 0.996205 0.362851 0.189336
O O1 0.734898 0.234898 0.910044
O O2 0.784852 0.070815 0.920860
O O3 0.808045 0.154051 0.813143
O O4 0.901211 0.184815 0.914165
O O5 0.616085 0.473621 0.500000
O O6 0.602945 0.336494 0.567812
O O7 0.461968 0.167586 0.879106
O O8 0.464852 0.210483 0.000000
O O9 0.383031 0.526373 0.643266
O O10 0.384723 0.676700 0.693047
O O11 0.816428 0.683573 0.270460
O O12 0.975772 0.716825 0.234390
O O13 0.081505 0.418495 0.175769
O O14 0.920320 0.420320 0.221685
#
# Coordination Sequence:
#
# PCOD8314342 Si02
#       6
#    16   8  16  16  16  16
#     4  10  23  39  53  74 106 135 169 218 263 309
#     4   7  12  26  45  70 102 131 159 197 240 283
#     4  11  22  36  55  74  98 135 170 206 264 322
#     4   9  17  29  50  76 101 130 165 201 241 292
#     4   9  19  34  49  71 102 133 164 204 253 299
#     4   9  19  35  52  71  96 127 170 220 260 299
#
# _framework density 17.472397999999998
#
# number of rings (size 3 to 8) (size 9 to 14) (size 15 to 20)
#    0.000    2.636    0.000    3.818    5.091    4.000 
#    0.000    2.273    0.000    0.000    0.000    1.909 
#    0.000    2.909    0.000    0.000    0.000    0.000 
#
# Total GULP energy -1090365.584096 kJ/mol
# GULP energy per Si atom -12390.518001 kJ/mol
# Density = 1.743263 g / cm^3
# Si number density = 17.472398 Si / 1000 Ang^3
#
#
#
# Elastic Constant Matrix: (Units=GPa)
#
#
# Indices 1 2 3 4 5 6 
#
# 1 64.9978 19.9202 22.9209 0.0000 0.0000 0.0000
# 2 19.9202 64.9978 22.9209 0.0000 0.0000 0.0000
# 3 22.9209 22.9209 109.1467 0.0000 0.0000 0.0000
# 4 0.0000 0.0000 0.0000 14.3914 0.0000 0.0000
# 5 0.0000 0.0000 0.0000 0.0000 14.3914 0.0000
# 6 0.0000 0.0000 0.0000 0.0000 0.0000 19.5004
#
#
#
# Elastic Compliance Matrix: (Units=1/GPa)
#
#
# Indices 1 2 3 4 5 6 
#
# 1 0.017733 -0.004451 -0.002789 0.000000 0.000000 0.000000
# 2 -0.004451 0.017733 -0.002789 0.000000 0.000000 0.000000
# 3 -0.002789 -0.002789 0.010333 0.000000 0.000000 0.000000
# 4 0.000000 0.000000 0.000000 0.069486 0.000000 0.000000
# 5 0.000000 0.000000 0.000000 0.000000 0.069486 0.000000
# 6 0.000000 0.000000 0.000000 0.000000 0.000000 0.051281
#
#
# Mechanical properties :
#
#
# Convention : Reuss Voigt Hill
#
# Bulk Modulus (GPa) = 38.84966 41.18513 40.01740
# Shear Modulus (GPa) = 18.88994 21.21532 20.05263
#
# Velocity S-wave (km/s) = 3.29162 3.48834 3.39141
# Velocity P-wave (km/s) = 6.06049 6.31248 6.18777
#
# Compressibility (1/GPa) = 0.02574025
#
# Stress axis : x y z
#
# Youngs Moduli (GPa) = 56.39244 56.39244 96.77318
#
# Poissons Ratio (x) = 0.25101 0.26992
# Poissons Ratio (y) = 0.25101 0.26992
# Poissons Ratio (z) = 0.15729 0.15729
#
# Static dielectric constant tensor:
#      x y z
#    x 3.179180 0.000000 0.000000 
#    y 0.000000 3.179180 0.000000 
#    z 0.000000 0.000000 3.432850 
# 
# 
# High freq. dielectric constant tensor:
#      x y z
#    x 1.663910 0.000000 0.000000 
#    y 0.000000 1.663910 0.000000 
#    z 0.000000 0.000000 1.671800 
# 
# From -- ./inp_files/5700.got.cif
#   From: 2010.03.12/outbox.cif.g09.slc.cpg/sg127_3_cif.got.tgz:5700.got - 2010.04.06 17:03:15.
