data_PCOD8314881
_publ_section_title
;
Structure prediction by ZEFSAII (Michael W. Deem and Ramdas Pophale) SiO2 
 PCOD8314881
Probable space group: P 4/N M M
;
_chemical_formula_sum "Si O2"
_cell_formula_units_Z 96
_cell_length_a 18.495789
_cell_length_b 18.495789
_cell_length_c 21.329278
_cell_angle_alpha 90.000000
_cell_angle_beta 90.000000
_cell_angle_gamma 90.000000
_cell_volume 7296.622523
_symmetry_space_group_name_H-M "P 4/N M M"
_symmetry_group_IT_number 129
_symmetry_cell_setting 'tetragonal'
loop_
_space_group_symop_operation_xyz
x,y,z
1/2-y,x,z
1/2-x,1/2-y,z
y,1/2-x,z
1/2+x,-y,-z
-x,1/2+y,-z
1/2+y,1/2+x,-z
-y,-x,-z
-x,-y,-z
1/2+y,-x,-z
1/2+x,1/2+y,-z
-y,1/2+x,-z
1/2-x,y,z
x,1/2-y,z
1/2-y,1/2-x,z
y,x,z
loop_
_atom_site_type_symbol
_atom_site_label
_atom_site_fract_x
_atom_site_fract_y
_atom_site_fract_z
Si Si1 0.168526 0.052922 0.186588
Si Si2 0.094873 0.835577 0.757649
Si Si3 0.165084 0.048919 0.041358
Si Si4 0.095306 0.595306 0.000000
Si Si5 0.165064 0.831178 0.882724
Si Si6 0.663493 0.167918 0.634071
Si Si7 0.665854 0.165854 0.500000
O O1 0.250000 0.075197 0.201909
O O2 0.121786 0.121786 0.203909
O O3 0.160934 0.028437 0.114558
O O4 0.142163 0.987791 0.230812
O O5 0.104566 0.750000 0.755039
O O6 0.142570 0.865079 0.815683
O O7 0.121220 0.869110 0.691522
O O8 0.250000 0.051042 0.019529
O O9 0.127584 0.127584 0.029693
O O10 0.115898 0.989514 0.005492
O O11 0.136063 0.620867 0.938502
O O12 0.250000 0.829134 0.887248
O O13 0.132672 0.750000 0.889800
O O14 0.750000 0.166743 0.634022
O O15 0.636277 0.250000 0.643047
O O16 0.636277 0.133939 0.566642
O O17 0.650274 0.250000 0.505773
#
# Coordination Sequence:
#
# PCOD8314881 Si02
#       7
#    16  16  16   8  16  16   8
#     4   9  17  29  42  55  71  91 119 157 196 232
#     4   9  15  24  35  49  70  94 121 153 184 218
#     4  10  20  33  47  61  77  99 128 163 202 240
#     4  12  19  29  42  58  80 101 126 160 199 234
#     4  10  18  25  35  52  76 106 133 155 184 225
#     4   8  12  18  30  48  71  97 121 145 174 206
#     4   7  10  16  26  44  69  94 120 148 173 198
#
# _framework density 13.156772
#
# number of rings (size 3 to 8) (size 9 to 14) (size 15 to 20)
#    0.000    2.750    1.667    3.250    0.000    3.000 
#    0.000    1.667    0.000    0.000    0.000    0.583 
#    0.000    0.000    0.000    0.000    0.000    0.000 
#
# Total GULP energy -1189267.645732 kJ/mol
# GULP energy per Si atom -12388.204643 kJ/mol
# Density = 1.312683 g / cm^3
# Si number density = 13.156772 Si / 1000 Ang^3
#
#
#
# Elastic Constant Matrix: (Units=GPa)
#
#
# Indices 1 2 3 4 5 6 
#
# 1 51.8809 27.9961 24.7280 0.0000 0.0000 0.0000
# 2 27.9961 51.8809 24.7280 0.0000 0.0000 0.0000
# 3 24.7280 24.7280 89.9790 0.0000 0.0000 0.0000
# 4 0.0000 0.0000 0.0000 11.0681 0.0000 0.0000
# 5 0.0000 0.0000 0.0000 0.0000 11.0681 0.0000
# 6 0.0000 0.0000 0.0000 0.0000 0.0000 15.8963
#
#
#
# Elastic Compliance Matrix: (Units=1/GPa)
#
#
# Indices 1 2 3 4 5 6 
#
# 1 0.028477 -0.013391 -0.004146 0.000000 0.000000 0.000000
# 2 -0.013391 0.028477 -0.004146 0.000000 0.000000 0.000000
# 3 -0.004146 -0.004146 0.013393 0.000000 0.000000 0.000000
# 4 0.000000 0.000000 0.000000 0.090350 0.000000 0.000000
# 5 0.000000 0.000000 0.000000 0.000000 0.090350 0.000000
# 6 0.000000 0.000000 0.000000 0.000000 0.000000 0.062908
#
#
# Mechanical properties :
#
#
# Convention : Reuss Voigt Hill
#
# Bulk Modulus (GPa) = 37.06313 38.73837 37.90075
# Shear Modulus (GPa) = 13.64952 15.35906 14.50429
#
# Velocity S-wave (km/s) = 3.22445 3.42041 3.32387
# Velocity P-wave (km/s) = 6.48801 6.71614 6.60306
#
# Compressibility (1/GPa) = 0.02698099
#
# Stress axis : x y z
#
# Youngs Moduli (GPa) = 35.11611 35.11611 74.66862
#
# Poissons Ratio (x) = 0.47023 0.30958
# Poissons Ratio (y) = 0.47023 0.30958
# Poissons Ratio (z) = 0.14559 0.14559
#
# Static dielectric constant tensor:
#      x y z
#    x 2.431460 0.000000 0.000000 
#    y 0.000000 2.431460 0.000000 
#    z 0.000000 0.000000 2.972080 
# 
# 
# High freq. dielectric constant tensor:
#      x y z
#    x 1.471020 0.000000 0.000000 
#    y 0.000000 1.471020 0.000000 
#    z 0.000000 0.000000 1.499080 
# 
# From -- ./inp_files/6607.got.cif
#   From: 2010.03.12/outbox.cif.g09.slc.cpg/sg129_4_cif.got.tgz:6607.got - 2010.04.06 17:19:44.
