data_PCOD8314571
_publ_section_title
;
Structure prediction by ZEFSAII (Michael W. Deem and Ramdas Pophale) SiO2 
 PCOD8314571
Probable space group: P 4/M N C
;
_chemical_formula_sum "Si O2"
_cell_formula_units_Z 64
_cell_length_a 15.923579
_cell_length_b 15.923579
_cell_length_c 13.173313
_cell_angle_alpha 90.000000
_cell_angle_beta 90.000000
_cell_angle_gamma 90.000000
_cell_volume 3340.230094
_symmetry_space_group_name_H-M "P 4/M N C"
_symmetry_group_IT_number 128
_symmetry_cell_setting 'tetragonal'
loop_
_space_group_symop_operation_xyz
x,y,z
-y,x,z
-x,-y,z
y,-x,z
1/2+x,1/2-y,1/2-z
1/2-x,1/2+y,1/2-z
1/2+y,1/2+x,1/2-z
1/2-y,1/2-x,1/2-z
-x,-y,-z
y,-x,-z
x,y,-z
-y,x,-z
1/2-x,1/2+y,1/2+z
1/2+x,1/2-y,1/2+z
1/2-y,1/2-x,1/2+z
1/2+y,1/2+x,1/2+z
loop_
_atom_site_type_symbol
_atom_site_label
_atom_site_fract_x
_atom_site_fract_y
_atom_site_fract_z
Si Si1 0.354512 0.784376 0.116089
Si Si2 0.640099 0.312172 0.311303
Si Si3 0.033442 0.412374 0.118961
Si Si4 0.967974 0.234933 0.882692
O O1 0.380068 0.710738 0.193533
O O2 0.256503 0.803266 0.131515
O O3 0.406904 0.867973 0.145826
O O4 0.371747 0.756421 0.000000
O O5 0.552568 0.319908 0.371037
O O6 0.691747 0.398028 0.313341
O O7 0.000000 0.500000 0.166676
O O8 0.983989 0.329915 0.159124
O O9 0.020475 0.412319 0.000000
O O10 0.940049 0.234436 0.000000
#
# Coordination Sequence:
#
# PCOD8314571 Si02
#       4
#    16  16  16  16
#     4   9  18  36  55  74 113 152 181 229 288 346
#     4  10  20  35  54  80 107 145 191 229 286 339
#     4   8  15  31  56  83 110 142 179 227 290 347
#     4  10  19  34  56  81 110 141 184 238 281 328
#
# _framework density 19.160357999999999
#
# number of rings (size 3 to 8) (size 9 to 14) (size 15 to 20)
#    0.000    2.750    0.000    3.750    0.000    0.500 
#    9.000   11.250    0.000    0.000    0.000    1.750 
#    0.000    1.000    0.000    0.000    0.000    0.000 
#
# Total GULP energy -793315.467088 kJ/mol
# GULP energy per Si atom -12395.554173 kJ/mol
# Density = 1.911675 g / cm^3
# Si number density = 19.160358 Si / 1000 Ang^3
#
#
#
# Elastic Constant Matrix: (Units=GPa)
#
#
# Indices 1 2 3 4 5 6 
#
# 1 97.0883 67.3400 29.7549 0.0000 0.0000 0.0000
# 2 67.3400 97.0883 29.7549 0.0000 0.0000 0.0000
# 3 29.7549 29.7549 105.3328 0.0000 0.0000 0.0000
# 4 0.0000 0.0000 0.0000 20.1318 0.0000 0.0000
# 5 0.0000 0.0000 0.0000 0.0000 20.1318 0.0000
# 6 0.0000 0.0000 0.0000 0.0000 0.0000 28.3328
#
#
#
# Elastic Compliance Matrix: (Units=1/GPa)
#
#
# Indices 1 2 3 4 5 6 
#
# 1 0.020195 -0.013421 -0.001914 0.000000 0.000000 0.000000
# 2 -0.013421 0.020195 -0.001914 0.000000 0.000000 0.000000
# 3 -0.001914 -0.001914 0.010575 0.000000 0.000000 0.000000
# 4 0.000000 0.000000 0.000000 0.049673 0.000000 0.000000
# 5 0.000000 0.000000 0.000000 0.000000 0.049673 0.000000
# 6 0.000000 0.000000 0.000000 0.000000 0.000000 0.035295
#
#
# Mechanical properties :
#
#
# Convention : Reuss Voigt Hill
#
# Bulk Modulus (GPa) = 60.72060 61.46767 61.09413
# Shear Modulus (GPa) = 22.16411 25.22992 23.69701
#
# Velocity S-wave (km/s) = 3.40482 3.63268 3.52059
# Velocity P-wave (km/s) = 6.87143 7.05304 6.96283
#
# Compressibility (1/GPa) = 0.01646888
#
# Stress axis : x y z
#
# Youngs Moduli (GPa) = 49.51765 49.51765 94.56399
#
# Poissons Ratio (x) = 0.66455 0.18096
# Poissons Ratio (y) = 0.66455 0.18096
# Poissons Ratio (z) = 0.09476 0.09476
#
# Static dielectric constant tensor:
#      x y z
#    x 3.445080 0.000000 0.000000 
#    y 0.000000 3.445080 0.000000 
#    z 0.000000 0.000000 3.545320 
# 
# 
# High freq. dielectric constant tensor:
#      x y z
#    x 1.724040 0.000000 0.000000 
#    y 0.000000 1.724040 0.000000 
#    z 0.000000 0.000000 1.752630 
# 
# From -- ./inp_files/3531.got.cif
#   From: 2010.03.12/outbox.cif.g09.slc.cpg/sg128_2_cif.got.tgz:3531.got - 2010.04.06 17:11:05.
