data_PCOD8314952
_publ_section_title
;
Structure prediction by ZEFSAII (Michael W. Deem and Ramdas Pophale) SiO2 
 PCOD8314952
Probable space group: P 4/N M M
;
_chemical_formula_sum "Si O2"
_cell_formula_units_Z 128
_cell_length_a 17.814089
_cell_length_b 17.814089
_cell_length_c 23.441673
_cell_angle_alpha 90.000000
_cell_angle_beta 90.000000
_cell_angle_gamma 90.000000
_cell_volume 7439.021929
_symmetry_space_group_name_H-M "P 4/N M M"
_symmetry_group_IT_number 129
_symmetry_cell_setting 'tetragonal'
loop_
_space_group_symop_operation_xyz
x,y,z
1/2-y,x,z
1/2-x,1/2-y,z
y,1/2-x,z
1/2+x,-y,-z
-x,1/2+y,-z
1/2+y,1/2+x,-z
-y,-x,-z
-x,-y,-z
1/2+y,-x,-z
1/2+x,1/2+y,-z
-y,1/2+x,-z
1/2-x,y,z
x,1/2-y,z
1/2-y,1/2-x,z
y,x,z
loop_
_atom_site_type_symbol
_atom_site_label
_atom_site_fract_x
_atom_site_fract_y
_atom_site_fract_z
Si Si1 0.834538 0.545657 0.785691
Si Si2 0.835151 0.543271 0.564746
Si Si3 0.456492 0.164414 0.561714
Si Si4 0.335394 0.045318 0.785466
Si Si5 0.955607 0.167191 0.323992
Si Si6 0.485088 0.892807 0.326083
Si Si7 0.060672 0.938636 0.857654
Si Si8 0.335671 0.835679 0.932637
O O1 0.750000 0.552522 0.809455
O O2 0.874767 0.625234 0.794929
O O3 0.834496 0.526347 0.718576
O O4 0.876904 0.480140 0.819278
O O5 0.750000 0.571195 0.569467
O O6 0.884696 0.615305 0.577434
O O7 0.851868 0.509575 0.501438
O O8 0.851892 0.480372 0.611585
O O9 0.434546 0.250000 0.569080
O O10 0.379507 0.120494 0.571459
O O11 0.515177 0.140286 0.610140
O O12 0.250000 0.050590 0.806559
O O13 0.374588 0.125413 0.797081
O O14 0.337680 0.026436 0.718052
O O15 0.378492 0.980513 0.819141
O O16 0.917239 0.250000 0.320983
O O17 0.898015 0.101804 0.306871
O O18 0.525154 0.974847 0.323932
O O19 0.105041 0.895096 0.907231
O O20 0.999151 0.999151 0.881763
O O21 0.250000 0.854903 0.913648
O O22 0.354837 0.750000 0.913603
O O23 0.342738 0.842738 0.000000
#
# Coordination Sequence:
#
# PCOD8314952 Si02
#       8
#    16  16  16  16  16  16  16  16
#     4  10  19  31  48  70  97 130 166 204 247 292
#     4   9  17  28  42  63  88 114 148 188 235 290
#     4   9  18  30  45  66  89 116 149 188 236 289
#     4  10  20  33  51  74  99 129 162 198 243 291
#     4  10  19  31  47  64  89 120 153 197 242 287
#     4  10  18  31  49  66  90 120 154 195 240 288
#     4  10  19  32  51  75 103 136 171 204 240 286
#     4   9  18  33  53  77 106 138 169 206 251 289
#
# _framework density 17.206562999999999
#
# number of rings (size 3 to 8) (size 9 to 14) (size 15 to 20)
#    0.000    2.375    1.250    2.625    0.000    1.250 
#    0.000    3.125    0.000    6.750    0.000    0.000 
#    0.000    6.000    0.000   23.250    0.000    0.000 
#
# Total GULP energy -1586541.792858 kJ/mol
# GULP energy per Si atom -12394.857757 kJ/mol
# Density = 1.716740 g / cm^3
# Si number density = 17.206563 Si / 1000 Ang^3
#
#
#
# Elastic Constant Matrix: (Units=GPa)
#
#
# Indices 1 2 3 4 5 6 
#
# 1 104.9047 47.9292 32.6920 0.0000 0.0000 0.0000
# 2 47.9292 104.9047 32.6920 0.0000 0.0000 0.0000
# 3 32.6920 32.6920 59.5144 0.0000 0.0000 0.0000
# 4 0.0000 0.0000 0.0000 23.9775 0.0000 0.0000
# 5 0.0000 0.0000 0.0000 0.0000 23.9775 0.0000
# 6 0.0000 0.0000 0.0000 0.0000 0.0000 21.8069
#
#
#
# Elastic Compliance Matrix: (Units=1/GPa)
#
#
# Indices 1 2 3 4 5 6 
#
# 1 0.013052 -0.004499 -0.004698 0.000000 0.000000 0.000000
# 2 -0.004499 0.013052 -0.004698 0.000000 0.000000 0.000000
# 3 -0.004698 -0.004698 0.021964 0.000000 0.000000 0.000000
# 4 0.000000 0.000000 0.000000 0.041706 0.000000 0.000000
# 5 0.000000 0.000000 0.000000 0.000000 0.041706 0.000000
# 6 0.000000 0.000000 0.000000 0.000000 0.000000 0.045857
#
#
# Mechanical properties :
#
#
# Convention : Reuss Voigt Hill
#
# Bulk Modulus (GPa) = 49.31641 55.10556 52.21098
# Shear Modulus (GPa) = 23.59739 24.35309 23.97524
#
# Velocity S-wave (km/s) = 3.70728 3.76618 3.73685
# Velocity P-wave (km/s) = 6.85922 7.14196 7.00202
#
# Compressibility (1/GPa) = 0.02027723
#
# Stress axis : x y z
#
# Youngs Moduli (GPa) = 76.61535 76.61535 45.52849
#
# Poissons Ratio (x) = 0.34471 0.21391
# Poissons Ratio (y) = 0.34471 0.21391
# Poissons Ratio (z) = 0.35996 0.35996
#
# Static dielectric constant tensor:
#      x y z
#    x 3.143910 0.000000 0.000000 
#    y 0.000000 3.143910 0.000000 
#    z 0.000000 0.000000 3.170060 
# 
# 
# High freq. dielectric constant tensor:
#      x y z
#    x 1.654660 0.000000 0.000000 
#    y 0.000000 1.654660 0.000000 
#    z 0.000000 0.000000 1.656840 
# 
# From -- ./inp_files/7307.got.cif
#   From: 2010.03.12/outbox.cif.g09.slc.cpg/sg129_4_cif.got.tgz:7307.got - 2010.04.06 17:19:44.
