data_PCOD8314906
_publ_section_title
;
Structure prediction by ZEFSAII (Michael W. Deem and Ramdas Pophale) SiO2 
 PCOD8314906
Probable space group: P 4/N M M
;
_chemical_formula_sum "Si O2"
_cell_formula_units_Z 112
_cell_length_a 17.172693
_cell_length_b 17.172693
_cell_length_c 25.174859
_cell_angle_alpha 90.000000
_cell_angle_beta 90.000000
_cell_angle_gamma 90.000000
_cell_volume 7424.100783
_symmetry_space_group_name_H-M "P 4/N M M"
_symmetry_group_IT_number 129
_symmetry_cell_setting 'tetragonal'
loop_
_space_group_symop_operation_xyz
x,y,z
1/2-y,x,z
1/2-x,1/2-y,z
y,1/2-x,z
1/2+x,-y,-z
-x,1/2+y,-z
1/2+y,1/2+x,-z
-y,-x,-z
-x,-y,-z
1/2+y,-x,-z
1/2+x,1/2+y,-z
-y,1/2+x,-z
1/2-x,y,z
x,1/2-y,z
1/2-y,1/2-x,z
y,x,z
loop_
_atom_site_type_symbol
_atom_site_label
_atom_site_fract_x
_atom_site_fract_y
_atom_site_fract_z
Si Si1 0.945646 0.431385 0.367328
Si Si2 0.436810 0.563243 0.084666
Si Si3 0.660638 0.160951 0.834879
Si Si4 0.551254 0.162780 0.470018
Si Si5 0.837828 0.159650 0.288934
Si Si6 0.656816 0.529598 0.999989
Si Si7 0.164021 0.454717 0.570617
O O1 0.973182 0.373858 0.413955
O O2 0.904719 0.387138 0.319218
O O3 0.883958 0.489038 0.392270
O O4 0.020955 0.479046 0.346145
O O5 0.499857 0.499857 0.104403
O O6 0.396879 0.603175 0.134860
O O7 0.369898 0.519959 0.051028
O O8 0.480565 0.630072 0.051231
O O9 0.750000 0.139332 0.847853
O O10 0.644636 0.250000 0.852189
O O11 0.643390 0.150335 0.772960
O O12 0.622522 0.122522 0.500000
O O13 0.578881 0.250000 0.458876
O O14 0.477278 0.158549 0.508697
O O15 0.750000 0.134306 0.306016
O O16 0.849102 0.250000 0.302163
O O17 0.750000 0.541684 0.999973
O O18 0.613898 0.613898 0.999813
O O19 0.250000 0.456960 0.593337
O O20 0.132633 0.367368 0.575400
#
# Coordination Sequence:
#
# PCOD8314906 Si02
#       7
#    16  16  16  16  16  16  16
#     4  10  18  28  43  61  82 108 135 164 201 243
#     4   9  17  28  43  63  87 113 140 174 211 246
#     4   9  17  29  45  63  83 109 139 171 209 251
#     4   9  17  28  41  59  82 106 132 162 198 240
#     4   9  18  31  45  62  84 109 137 170 209 250
#     4   9  17  28  42  62  87 115 145 174 207 245
#     4   9  17  28  41  57  77 101 129 160 194 233
#
# _framework density 15.086001
#
# number of rings (size 3 to 8) (size 9 to 14) (size 15 to 20)
#    0.000    2.857    0.000    3.857    0.000    3.286 
#    0.000    0.000    0.000    3.429    0.000    0.000 
#    0.000    2.571    0.000   37.143    0.000    0.286 
#
# Total GULP energy -1388192.774515 kJ/mol
# GULP energy per Si atom -12394.578344 kJ/mol
# Density = 1.505166 g / cm^3
# Si number density = 15.086001 Si / 1000 Ang^3
#
#
#
# Elastic Constant Matrix: (Units=GPa)
#
#
# Indices 1 2 3 4 5 6 
#
# 1 88.9222 50.7322 40.6071 0.0000 0.0000 0.0000
# 2 50.7322 88.9222 40.6071 0.0000 0.0000 0.0000
# 3 40.6071 40.6071 70.0118 0.0000 0.0000 0.0000
# 4 0.0000 0.0000 0.0000 19.6267 0.0000 0.0000
# 5 0.0000 0.0000 0.0000 0.0000 19.6267 0.0000
# 6 0.0000 0.0000 0.0000 0.0000 0.0000 21.5949
#
#
#
# Elastic Compliance Matrix: (Units=1/GPa)
#
#
# Indices 1 2 3 4 5 6 
#
# 1 0.018495 -0.007690 -0.006267 0.000000 0.000000 0.000000
# 2 -0.007690 0.018495 -0.006267 0.000000 0.000000 0.000000
# 3 -0.006267 -0.006267 0.021553 0.000000 0.000000 0.000000
# 4 0.000000 0.000000 0.000000 0.050951 0.000000 0.000000
# 5 0.000000 0.000000 0.000000 0.000000 0.050951 0.000000
# 6 0.000000 0.000000 0.000000 0.000000 0.000000 0.046307
#
#
# Mechanical properties :
#
#
# Convention : Reuss Voigt Hill
#
# Bulk Modulus (GPa) = 55.26317 56.86100 56.06208
# Shear Modulus (GPa) = 19.74479 19.89698 19.82088
#
# Velocity S-wave (km/s) = 3.62168 3.63561 3.62865
# Velocity P-wave (km/s) = 7.36209 7.44289 7.40260
#
# Compressibility (1/GPa) = 0.01809524
#
# Stress axis : x y z
#
# Youngs Moduli (GPa) = 54.06886 54.06886 46.39727
#
# Poissons Ratio (x) = 0.41579 0.29077
# Poissons Ratio (y) = 0.41579 0.29077
# Poissons Ratio (z) = 0.33885 0.33885
#
# Static dielectric constant tensor:
#      x y z
#    x 2.949490 0.000000 0.000000 
#    y 0.000000 2.949490 0.000000 
#    z 0.000000 0.000000 2.731290 
# 
# 
# High freq. dielectric constant tensor:
#      x y z
#    x 1.574970 0.000000 0.000000 
#    y 0.000000 1.574970 0.000000 
#    z 0.000000 0.000000 1.565590 
# 
# From -- ./inp_files/7214.got.cif
#   From: 2010.03.12/outbox.cif.g09.slc.cpg/sg129_4_cif.got.tgz:7214.got - 2010.04.06 17:19:44.
