data_PCOD8314757
_publ_section_title
;
Structure prediction by ZEFSAII (Michael W. Deem and Ramdas Pophale) SiO2 
 PCOD8314757
Probable space group: P 4/M N C
;
_chemical_formula_sum "Si O2"
_cell_formula_units_Z 112
_cell_length_a 14.328387
_cell_length_b 14.328387
_cell_length_c 25.682526
_cell_angle_alpha 90.000000
_cell_angle_beta 90.000000
_cell_angle_gamma 90.000000
_cell_volume 5272.691263
_symmetry_space_group_name_H-M "P 4/M N C"
_symmetry_group_IT_number 128
_symmetry_cell_setting 'tetragonal'
loop_
_space_group_symop_operation_xyz
x,y,z
-y,x,z
-x,-y,z
y,-x,z
1/2+x,1/2-y,1/2-z
1/2-x,1/2+y,1/2-z
1/2+y,1/2+x,1/2-z
1/2-y,1/2-x,1/2-z
-x,-y,-z
y,-x,-z
x,y,-z
-y,x,-z
1/2-x,1/2+y,1/2+z
1/2+x,1/2-y,1/2+z
1/2-y,1/2-x,1/2+z
1/2+y,1/2+x,1/2+z
loop_
_atom_site_type_symbol
_atom_site_label
_atom_site_fract_x
_atom_site_fract_y
_atom_site_fract_z
Si Si1 0.728754 0.292908 0.058060
Si Si2 0.760748 0.408439 0.768117
Si Si3 0.615392 0.109644 0.558717
Si Si4 0.848886 0.975704 0.173531
Si Si5 0.872572 0.911894 0.358136
Si Si6 0.932025 0.294927 0.907382
Si Si7 0.099338 0.529633 0.846812
O O1 0.683836 0.194282 0.074302
O O2 0.692849 0.374598 0.095618
O O3 0.840234 0.279170 0.058123
O O4 0.697898 0.321283 0.000000
O O5 0.816510 0.316510 0.750000
O O6 0.727687 0.466242 0.718434
O O7 0.671647 0.378930 0.803300
O O8 0.823597 0.481126 0.801908
O O9 0.630283 0.070039 0.500000
O O10 0.514727 0.159146 0.559271
O O11 0.621928 0.026197 0.600103
O O12 0.802159 0.967478 0.116840
O O13 0.923579 0.893949 0.179420
O O14 0.976133 0.871439 0.362343
O O15 0.902986 0.361162 0.859637
O O16 0.000000 0.500000 0.823147
#
# Coordination Sequence:
#
# PCOD8314757 Si02
#       7
#    16  16  16  16  16  16  16
#     4  11  23  39  65  98 132 173 218 270 329 391
#     4  12  22  42  65  92 128 166 218 271 324 386
#     4  10  23  41  65  98 131 172 219 261 329 397
#     4  11  24  42  66  93 126 170 217 269 331 396
#     4  11  24  43  67  93 130 177 221 268 322 390
#     4  11  21  42  64  91 128 166 217 273 326 380
#     4  10  22  40  64  91 126 170 213 265 323 387
#
# _framework density 21.241523999999998
#
# number of rings (size 3 to 8) (size 9 to 14) (size 15 to 20)
#    0.000    1.143    2.857    3.000    0.000    5.143 
#    0.000    2.143    0.000    0.000    0.000    6.000 
#    0.000    0.000    0.000    0.000    0.000    0.000 
#
# Total GULP energy -1389005.059235 kJ/mol
# GULP energy per Si atom -12401.830886 kJ/mol
# Density = 2.119318 g / cm^3
# Si number density = 21.241524 Si / 1000 Ang^3
#
#
#
# Elastic Constant Matrix: (Units=GPa)
#
#
# Indices 1 2 3 4 5 6 
#
# 1 105.3682 33.4333 37.2006 0.0000 0.0000 0.0000
# 2 33.4333 105.3682 37.2006 0.0000 0.0000 0.0000
# 3 37.2006 37.2006 98.7627 0.0000 0.0000 0.0000
# 4 0.0000 0.0000 0.0000 31.5414 0.0000 0.0000
# 5 0.0000 0.0000 0.0000 0.0000 31.5414 0.0000
# 6 0.0000 0.0000 0.0000 0.0000 0.0000 22.9971
#
#
#
# Elastic Compliance Matrix: (Units=1/GPa)
#
#
# Indices 1 2 3 4 5 6 
#
# 1 0.011464 -0.002437 -0.003400 0.000000 0.000000 0.000000
# 2 -0.002437 0.011464 -0.003400 0.000000 0.000000 0.000000
# 3 -0.003400 -0.003400 0.012687 0.000000 0.000000 0.000000
# 4 0.000000 0.000000 0.000000 0.031704 0.000000 0.000000
# 5 0.000000 0.000000 0.000000 0.000000 0.031704 0.000000
# 6 0.000000 0.000000 0.000000 0.000000 0.000000 0.043484
#
#
# Mechanical properties :
#
#
# Convention : Reuss Voigt Hill
#
# Bulk Modulus (GPa) = 58.34245 58.35200 58.34723
# Shear Modulus (GPa) = 29.99463 30.66027 30.32745
#
# Velocity S-wave (km/s) = 3.76184 3.80335 3.78265
# Velocity P-wave (km/s) = 6.81134 6.84234 6.82686
#
# Compressibility (1/GPa) = 0.01714018
#
# Stress axis : x y z
#
# Youngs Moduli (GPa) = 87.22728 87.22728 78.82220
#
# Poissons Ratio (x) = 0.21259 0.26801
# Poissons Ratio (y) = 0.21259 0.26801
# Poissons Ratio (z) = 0.29659 0.29659
#
# Static dielectric constant tensor:
#      x y z
#    x 3.910300 0.000000 0.000000 
#    y 0.000000 3.910300 0.000000 
#    z 0.000000 0.000000 3.741150 
# 
# 
# High freq. dielectric constant tensor:
#      x y z
#    x 1.837010 0.000000 0.000000 
#    y 0.000000 1.837010 0.000000 
#    z 0.000000 0.000000 1.833600 
# 
# From -- ./inp_files/6432.got.cif
#   From: 2010.03.12/outbox.cif.g09.slc.cpg/sg128_4_cif.got.tgz:6432.got - 2010.04.06 17:11:05.
