data_PCOD8314390
_publ_section_title
;
Structure prediction by ZEFSAII (Michael W. Deem and Ramdas Pophale) SiO2 
 PCOD8314390
Probable space group: P 4/M B M
;
_chemical_formula_sum "Si O2"
_cell_formula_units_Z 88
_cell_length_a 13.057606
_cell_length_b 13.057606
_cell_length_c 26.047292
_cell_angle_alpha 90.000000
_cell_angle_beta 90.000000
_cell_angle_gamma 90.000000
_cell_volume 4441.091273
_symmetry_space_group_name_H-M "P 4/M B M"
_symmetry_group_IT_number 127
_symmetry_cell_setting 'tetragonal'
loop_
_space_group_symop_operation_xyz
x,y,z
-y,x,z
-x,-y,z
y,-x,z
1/2+x,1/2-y,-z
1/2-x,1/2+y,-z
1/2+y,1/2+x,-z
1/2-y,1/2-x,-z
-x,-y,-z
y,-x,-z
x,y,-z
-y,x,-z
1/2-x,1/2+y,z
1/2+x,1/2-y,z
1/2-y,1/2-x,z
1/2+y,1/2+x,z
loop_
_atom_site_type_symbol
_atom_site_label
_atom_site_fract_x
_atom_site_fract_y
_atom_site_fract_z
Si Si1 0.518616 0.334308 0.559319
Si Si2 0.000453 0.334156 0.641719
Si Si3 0.249220 0.416029 0.108848
Si Si4 0.664715 0.472122 0.276491
Si Si5 0.657325 0.562556 0.000000
Si Si6 0.893380 0.225807 0.831352
O O1 0.611037 0.411324 0.572498
O O2 0.522510 0.302341 0.500000
O O3 0.531478 0.233078 0.592725
O O4 0.907814 0.407814 0.625386
O O5 0.961344 0.264425 0.688463
O O6 0.099101 0.400900 0.658852
O O7 0.147634 0.352367 0.119448
O O8 0.276262 0.409267 0.049267
O O9 0.342564 0.374237 0.143557
O O10 0.226299 0.531844 0.125809
O O11 0.616711 0.583040 0.288632
O O12 0.696956 0.461822 0.217548
O O13 0.556504 0.631158 0.000000
O O14 0.808359 0.308359 0.815515
#
# Coordination Sequence:
#
# PCOD8314390 Si02
#       6
#    16  16  16  16   8  16
#     4   9  19  38  64  92 121 156 204 259 309 359
#     4  11  25  41  57  85 127 167 203 248 302 363
#     4  11  23  40  62  89 125 161 196 248 304 357
#     4  11  23  40  66  92 117 154 201 253 303 355
#     4  11  21  36  64  91 118 158 204 255 298 348
#     4  11  23  40  64  91 120 157 202 246 301 366
#
# _framework density 19.814948999999999
#
# number of rings (size 3 to 8) (size 9 to 14) (size 15 to 20)
#    0.000    1.364    3.636    2.455    0.000    7.273 
#    0.000    3.182    0.000    1.091    0.000    0.000 
#    0.000    0.000    0.000    0.000    0.000    0.000 
#
# Total GULP energy -1091541.515109 kJ/mol
# GULP energy per Si atom -12403.880854 kJ/mol
# Density = 1.976985 g / cm^3
# Si number density = 19.814949 Si / 1000 Ang^3
#
#
#
# Elastic Constant Matrix: (Units=GPa)
#
#
# Indices 1 2 3 4 5 6 
#
# 1 80.3979 19.0726 26.1257 0.0000 0.0000 0.0000
# 2 19.0726 80.3979 26.1257 0.0000 0.0000 0.0000
# 3 26.1257 26.1257 94.8990 0.0000 0.0000 0.0000
# 4 0.0000 0.0000 0.0000 29.1313 0.0000 0.0000
# 5 0.0000 0.0000 0.0000 0.0000 29.1313 0.0000
# 6 0.0000 0.0000 0.0000 0.0000 0.0000 13.4593
#
#
#
# Elastic Compliance Matrix: (Units=1/GPa)
#
#
# Indices 1 2 3 4 5 6 
#
# 1 0.014030 -0.002277 -0.003236 0.000000 0.000000 0.000000
# 2 -0.002277 0.014030 -0.003236 0.000000 0.000000 0.000000
# 3 -0.003236 -0.003236 0.012319 0.000000 0.000000 0.000000
# 4 0.000000 0.000000 0.000000 0.034327 0.000000 0.000000
# 5 0.000000 0.000000 0.000000 0.000000 0.034327 0.000000
# 6 0.000000 0.000000 0.000000 0.000000 0.000000 0.074298
#
#
# Mechanical properties :
#
#
# Convention : Reuss Voigt Hill
#
# Bulk Modulus (GPa) = 43.70153 44.26029 43.98091
# Shear Modulus (GPa) = 23.98607 26.63578 25.31093
#
# Velocity S-wave (km/s) = 3.48300 3.67035 3.57790
# Velocity P-wave (km/s) = 6.18691 6.35195 6.26997
#
# Compressibility (1/GPa) = 0.02288250
#
# Stress axis : x y z
#
# Youngs Moduli (GPa) = 71.27750 71.27750 81.17527
#
# Poissons Ratio (x) = 0.16229 0.26265
# Poissons Ratio (y) = 0.16229 0.26265
# Poissons Ratio (z) = 0.23062 0.23062
#
# Static dielectric constant tensor:
#      x y z
#    x 3.513480 0.000000 0.000000 
#    y 0.000000 3.513480 0.000000 
#    z 0.000000 0.000000 3.584180 
# 
# 
# High freq. dielectric constant tensor:
#      x y z
#    x 1.770700 0.000000 0.000000 
#    y 0.000000 1.770700 0.000000 
#    z 0.000000 0.000000 1.782410 
# 
# From -- ./inp_files/6524.got.cif
#   From: 2010.03.12/outbox.cif.g09.slc.cpg/sg127_4_cif.got.tgz:6524.got - 2010.04.06 17:03:15.
