data_PCOD8314460
_publ_section_title
;
Structure prediction by ZEFSAII (Michael W. Deem and Ramdas Pophale) SiO2 
 PCOD8314460
Probable space group: P 4/M B M
;
_chemical_formula_sum "Si O2"
_cell_formula_units_Z 64
_cell_length_a 19.303459
_cell_length_b 19.303459
_cell_length_c 9.036302
_cell_angle_alpha 90.000000
_cell_angle_beta 90.000000
_cell_angle_gamma 90.000000
_cell_volume 3367.138744
_symmetry_space_group_name_H-M "P 4/M B M"
_symmetry_group_IT_number 127
_symmetry_cell_setting 'tetragonal'
loop_
_space_group_symop_operation_xyz
x,y,z
-y,x,z
-x,-y,z
y,-x,z
1/2+x,1/2-y,-z
1/2-x,1/2+y,-z
1/2+y,1/2+x,-z
1/2-y,1/2-x,-z
-x,-y,-z
y,-x,-z
x,y,-z
-y,x,-z
1/2-x,1/2+y,z
1/2+x,1/2-y,z
1/2-y,1/2-x,z
1/2+y,1/2+x,z
loop_
_atom_site_type_symbol
_atom_site_label
_atom_site_fract_x
_atom_site_fract_y
_atom_site_fract_z
Si Si1 0.238819 0.980051 0.671754
Si Si2 0.165497 0.219597 0.169920
Si Si3 0.112179 0.014071 0.836822
Si Si4 0.720905 0.889685 0.825645
O O1 0.255956 0.975638 0.500000
O O2 0.290982 0.034999 0.749194
O O3 0.237054 0.902774 0.736145
O O4 0.165800 0.017495 0.703467
O O5 0.218557 0.281444 0.199081
O O6 0.204146 0.146939 0.211360
O O7 0.142148 0.216779 0.000000
O O8 0.076034 0.940360 0.821120
O O9 0.148246 0.017883 0.000000
O O10 0.660018 0.839983 0.766176
O O11 0.714142 0.899091 0.000000
#
# Coordination Sequence:
#
# PCOD8314460 Si02
#       4
#    16  16  16  16
#     4  12  23  31  47  77 109 138 165 202 260 320
#     4   9  19  37  59  79 100 133 179 224 260 299
#     4   9  18  32  48  66  93 133 177 214 245 285
#     4   9  19  37  59  79 100 133 179 224 260 299
#
# _framework density 19.007237
#
# number of rings (size 3 to 8) (size 9 to 14) (size 15 to 20)
#    0.000    2.250    0.000    6.000    0.000    9.000 
#    0.000    3.750    0.000    0.750    0.000    5.250 
#    0.000    0.000    0.000    0.000    0.000    0.000 
#
# Total GULP energy -792906.564044 kJ/mol
# GULP energy per Si atom -12389.165063 kJ/mol
# Density = 1.896398 g / cm^3
# Si number density = 19.007237 Si / 1000 Ang^3
#
#
#
# Elastic Constant Matrix: (Units=GPa)
#
#
# Indices 1 2 3 4 5 6 
#
# 1 64.4186 -5.5137 27.5972 0.0000 0.0000 0.0000
# 2 -5.5137 64.4186 27.5972 0.0000 0.0000 0.0000
# 3 27.5972 27.5972 84.3865 0.0000 0.0000 0.0000
# 4 0.0000 0.0000 0.0000 -3.9505 0.0000 0.0000
# 5 0.0000 0.0000 0.0000 0.0000 -3.9505 0.0000
# 6 0.0000 0.0000 0.0000 0.0000 0.0000 15.8197
#
#
#
# Elastic Compliance Matrix: (Units=1/GPa)
#
#
# Indices 1 2 3 4 5 6 
#
# 1 0.019388 0.005089 -0.008005 0.000000 0.000000 0.000000
# 2 0.005089 0.019388 -0.008005 0.000000 0.000000 0.000000
# 3 -0.008005 -0.008005 0.017086 0.000000 0.000000 0.000000
# 4 0.000000 0.000000 0.000000 -0.253134 0.000000 0.000000
# 5 0.000000 0.000000 0.000000 0.000000 -0.253134 0.000000
# 6 0.000000 0.000000 0.000000 0.000000 0.000000 0.063212
#
#
# Mechanical properties :
#
#
# Convention : Reuss Voigt Hill
#
# Bulk Modulus (GPa) = 29.39375 34.73167 32.06271
# Shear Modulus (GPa) = -14.12388 12.48662 -0.81863
#
# Velocity S-wave (km/s) = -2.72891 2.56587 -0.65699
# Velocity P-wave (km/s) = 2.35984 5.20488 4.04101
#
# Compressibility (1/GPa) = 0.03402083
#
# Stress axis : x y z
#
# Youngs Moduli (GPa) = 51.57744 51.57744 58.52773
#
# Poissons Ratio (x) = -0.26247 0.46850
# Poissons Ratio (y) = -0.26247 0.46850
# Poissons Ratio (z) = 0.41287 0.41287
#
# Static dielectric constant tensor:
#      x y z
#    x 3.587240 0.000000 0.000000 
#    y 0.000000 3.587240 0.000000 
#    z 0.000000 0.000000 3.237320 
# 
# 
# High freq. dielectric constant tensor:
#      x y z
#    x 1.735360 0.000000 0.000000 
#    y 0.000000 1.735360 0.000000 
#    z 0.000000 0.000000 1.712980 
# 
# From -- ./inp_files/1365.got.cif
#   From: 2010.03.12/outbox.cif.g09.slc.cpg/sg127_1_cif.got.tgz:1365.got - 2010.04.06 17:03:15.
