data_PCOD8314035
_publ_section_title
;
Structure prediction by ZEFSAII (Michael W. Deem and Ramdas Pophale) SiO2 
 PCOD8314035
Probable space group: P 4/M B M
;
_chemical_formula_sum "Si O2"
_cell_formula_units_Z 112
_cell_length_a 15.504701
_cell_length_b 15.504701
_cell_length_c 24.052104
_cell_angle_alpha 90.000000
_cell_angle_beta 90.000000
_cell_angle_gamma 90.000000
_cell_volume 5782.023655
_symmetry_space_group_name_H-M "P 4/M B M"
_symmetry_group_IT_number 127
_symmetry_cell_setting 'tetragonal'
loop_
_space_group_symop_operation_xyz
x,y,z
-y,x,z
-x,-y,z
y,-x,z
1/2+x,1/2-y,-z
1/2-x,1/2+y,-z
1/2+y,1/2+x,-z
1/2-y,1/2-x,-z
-x,-y,-z
y,-x,-z
x,y,-z
-y,x,-z
1/2-x,1/2+y,z
1/2+x,1/2-y,z
1/2-y,1/2-x,z
1/2+y,1/2+x,z
loop_
_atom_site_type_symbol
_atom_site_label
_atom_site_fract_x
_atom_site_fract_y
_atom_site_fract_z
Si Si1 0.866441 0.956163 0.435601
Si Si2 0.031661 0.668074 0.859322
Si Si3 0.750186 0.395394 0.658273
Si Si4 0.170144 0.809008 0.151444
Si Si5 0.100884 0.261098 0.060872
Si Si6 0.107114 0.094289 0.260017
Si Si7 0.496089 0.860045 0.738084
O O1 0.842040 0.948210 0.500000
O O2 0.893340 0.053860 0.420836
O O3 0.781497 0.929090 0.401524
O O4 0.072971 0.572971 0.861358
O O5 0.103008 0.739661 0.870308
O O6 0.985826 0.683789 0.799080
O O7 0.965222 0.673864 0.909683
O O8 0.817475 0.317475 0.650411
O O9 0.666504 0.362157 0.692395
O O10 0.791580 0.476547 0.691358
O O11 0.259886 0.759886 0.167723
O O12 0.181637 0.879163 0.102153
O O13 0.130707 0.860752 0.202128
O O14 0.190172 0.309829 0.051373
O O15 0.066426 0.230243 0.000000
O O16 0.008165 0.119976 0.266637
O O17 0.572611 0.927390 0.744076
O O18 0.406839 0.906839 0.720604
#
# Coordination Sequence:
#
# PCOD8314035 Si02
#       7
#    16  16  16  16  16  16  16
#     4   9  19  39  65  88 115 156 203 247 288 329
#     4  10  19  35  58  80 106 145 188 228 282 350
#     4  11  21  35  57  88 124 156 190 233 286 346
#     4  10  20  36  56  77 105 138 179 233 290 344
#     4  10  22  37  53  78 109 140 181 235 289 344
#     4  11  22  36  55  79 110 146 188 236 284 337
#     4   9  18  33  53  80 116 153 186 224 276 338
#
# _framework density 19.370381999999999
#
# number of rings (size 3 to 8) (size 9 to 14) (size 15 to 20)
#    0.000    2.000    1.429    3.000    0.000    3.143 
#    0.000    5.000    0.000    1.286    0.000    5.000 
#    0.000    0.000    0.000    0.000    0.000    0.000 
#
# Total GULP energy -1388374.217073 kJ/mol
# GULP energy per Si atom -12396.198367 kJ/mol
# Density = 1.932629 g / cm^3
# Si number density = 19.370382 Si / 1000 Ang^3
#
#
#
# Elastic Constant Matrix: (Units=GPa)
#
#
# Indices 1 2 3 4 5 6 
#
# 1 85.4440 30.4193 52.9237 0.0000 0.0000 0.0000
# 2 30.4193 85.4440 52.9237 0.0000 0.0000 0.0000
# 3 52.9237 52.9237 141.4604 0.0000 0.0000 0.0000
# 4 0.0000 0.0000 0.0000 29.9239 0.0000 0.0000
# 5 0.0000 0.0000 0.0000 0.0000 29.9239 0.0000
# 6 0.0000 0.0000 0.0000 0.0000 0.0000 26.6071
#
#
#
# Elastic Compliance Matrix: (Units=1/GPa)
#
#
# Indices 1 2 3 4 5 6 
#
# 1 0.015643 -0.002531 -0.004906 0.000000 0.000000 0.000000
# 2 -0.002531 0.015643 -0.004906 0.000000 0.000000 0.000000
# 3 -0.004906 -0.004906 0.010740 0.000000 0.000000 0.000000
# 4 0.000000 0.000000 0.000000 0.033418 0.000000 0.000000
# 5 0.000000 0.000000 0.000000 0.000000 0.033418 0.000000
# 6 0.000000 0.000000 0.000000 0.000000 0.000000 0.037584
#
#
# Mechanical properties :
#
#
# Convention : Reuss Voigt Hill
#
# Bulk Modulus (GPa) = 57.66359 64.98690 61.32524
# Shear Modulus (GPa) = 28.26283 29.02974 28.64628
#
# Velocity S-wave (km/s) = 3.82393 3.87546 3.84978
# Velocity P-wave (km/s) = 7.02354 7.32448 7.17559
#
# Compressibility (1/GPa) = 0.01734197
#
# Stress axis : x y z
#
# Youngs Moduli (GPa) = 63.92608 63.92608 93.11164
#
# Poissons Ratio (x) = 0.16177 0.45678
# Poissons Ratio (y) = 0.16177 0.45678
# Poissons Ratio (z) = 0.31360 0.31360
#
# Static dielectric constant tensor:
#      x y z
#    x 3.552170 0.000000 0.000000 
#    y 0.000000 3.552170 0.000000 
#    z 0.000000 0.000000 3.619000 
# 
# 
# High freq. dielectric constant tensor:
#      x y z
#    x 1.747280 0.000000 0.000000 
#    y 0.000000 1.747280 0.000000 
#    z 0.000000 0.000000 1.747020 
# 
# From -- ./inp_files/6175.got.cif
#   From: 2010.03.12/outbox.cif.g09.slc.cpg/sg127_4_cif.got.tgz:6175.got - 2010.04.06 17:03:15.
