data_PCOD8314227
_publ_section_title
;
Structure prediction by ZEFSAII (Michael W. Deem and Ramdas Pophale) SiO2 
 PCOD8314227
Probable space group: P 4/M B M
;
_chemical_formula_sum "Si O2"
_cell_formula_units_Z 64
_cell_length_a 19.696676
_cell_length_b 19.696676
_cell_length_c 9.133218
_cell_angle_alpha 90.000000
_cell_angle_beta 90.000000
_cell_angle_gamma 90.000000
_cell_volume 3543.314537
_symmetry_space_group_name_H-M "P 4/M B M"
_symmetry_group_IT_number 127
_symmetry_cell_setting 'tetragonal'
loop_
_space_group_symop_operation_xyz
x,y,z
-y,x,z
-x,-y,z
y,-x,z
1/2+x,1/2-y,-z
1/2-x,1/2+y,-z
1/2+y,1/2+x,-z
1/2-y,1/2-x,-z
-x,-y,-z
y,-x,-z
x,y,-z
-y,x,-z
1/2-x,1/2+y,z
1/2+x,1/2-y,z
1/2-y,1/2-x,z
1/2+y,1/2+x,z
loop_
_atom_site_type_symbol
_atom_site_label
_atom_site_fract_x
_atom_site_fract_y
_atom_site_fract_z
Si Si1 0.642025 0.251199 0.169964
Si Si2 0.891850 0.503722 0.659197
Si Si3 0.513323 0.766581 0.169565
Si Si4 0.350709 0.259041 0.672484
O O1 0.677209 0.177209 0.196873
O O2 0.562910 0.254639 0.218019
O O3 0.679001 0.307008 0.267079
O O4 0.648941 0.270976 0.000000
O O5 0.853664 0.499564 0.500000
O O6 0.953979 0.453979 0.656018
O O7 0.845941 0.482483 0.794979
O O8 0.920134 0.579866 0.682308
O O9 0.574248 0.731965 0.259288
O O10 0.526221 0.752668 0.000000
O O11 0.357327 0.266697 0.500000
O O12 0.312777 0.187224 0.711811
#
# Coordination Sequence:
#
# PCOD8314227 Si02
#       4
#    16  16  16  16
#     4   9  19  36  55  76 104 136 172 214 258 306
#     4   9  18  31  45  65  98 137 172 206 245 293
#     4  11  21  32  51  77 103 133 169 211 260 310
#     4  10  21  36  54  77 105 138 176 215 256 305
#
# _framework density 18.062184999999999
#
# number of rings (size 3 to 8) (size 9 to 14) (size 15 to 20)
#    0.000    2.250    0.000    3.750    0.000    8.500 
#    0.000    3.750    0.000    0.750    0.000    5.250 
#    0.000    0.000    0.000    0.000    0.000    0.000 
#
# Total GULP energy -792887.731271 kJ/mol
# GULP energy per Si atom -12388.870801 kJ/mol
# Density = 1.802108 g / cm^3
# Si number density = 18.062185 Si / 1000 Ang^3
#
#
#
# Elastic Constant Matrix: (Units=GPa)
#
#
# Indices 1 2 3 4 5 6 
#
# 1 110.8118 46.1480 56.1913 0.0000 0.0000 0.0000
# 2 46.1480 110.8118 56.1913 0.0000 0.0000 0.0000
# 3 56.1913 56.1913 79.4809 0.0000 0.0000 0.0000
# 4 0.0000 0.0000 0.0000 25.3231 0.0000 0.0000
# 5 0.0000 0.0000 0.0000 0.0000 25.3231 0.0000
# 6 0.0000 0.0000 0.0000 0.0000 0.0000 16.4760
#
#
#
# Elastic Compliance Matrix: (Units=1/GPa)
#
#
# Indices 1 2 3 4 5 6 
#
# 1 0.014183 -0.001281 -0.009121 0.000000 0.000000 0.000000
# 2 -0.001281 0.014183 -0.009121 0.000000 0.000000 0.000000
# 3 -0.009121 -0.009121 0.025479 0.000000 0.000000 0.000000
# 4 0.000000 0.000000 0.000000 0.039490 0.000000 0.000000
# 5 0.000000 0.000000 0.000000 0.000000 0.039490 0.000000
# 6 0.000000 0.000000 0.000000 0.000000 0.000000 0.060694
#
#
# Mechanical properties :
#
#
# Convention : Reuss Voigt Hill
#
# Bulk Modulus (GPa) = 67.58034 68.68506 68.13270
# Shear Modulus (GPa) = 21.05266 22.92937 21.99102
#
# Velocity S-wave (km/s) = 3.41774 3.56683 3.49308
# Velocity P-wave (km/s) = 7.28500 7.42109 7.35336
#
# Compressibility (1/GPa) = 0.01479720
#
# Stress axis : x y z
#
# Youngs Moduli (GPa) = 70.50557 70.50557 39.24813
#
# Poissons Ratio (x) = 0.09034 0.35800
# Poissons Ratio (y) = 0.09034 0.35800
# Poissons Ratio (z) = 0.64311 0.64311
#
# Static dielectric constant tensor:
#      x y z
#    x 3.284220 0.000000 0.000000 
#    y 0.000000 3.284220 0.000000 
#    z 0.000000 0.000000 3.473130 
# 
# 
# High freq. dielectric constant tensor:
#      x y z
#    x 1.685100 0.000000 0.000000 
#    y 0.000000 1.685100 0.000000 
#    z 0.000000 0.000000 1.706370 
# 
# From -- ./inp_files/1379.got.cif
#   From: 2010.03.12/outbox.cif.g09.slc.cpg/sg127_1_cif.got.tgz:1379.got - 2010.04.06 17:03:15.
