data_PCOD8314678
_publ_section_title
;
Structure prediction by ZEFSAII (Michael W. Deem and Ramdas Pophale) SiO2 
 PCOD8314678
Probable space group: P 4/M N C
;
_chemical_formula_sum "Si O2"
_cell_formula_units_Z 80
_cell_length_a 22.759405
_cell_length_b 22.759405
_cell_length_c 9.365141
_cell_angle_alpha 90.000000
_cell_angle_beta 90.000000
_cell_angle_gamma 90.000000
_cell_volume 4851.054219
_symmetry_space_group_name_H-M "P 4/M N C"
_symmetry_group_IT_number 128
_symmetry_cell_setting 'tetragonal'
loop_
_space_group_symop_operation_xyz
x,y,z
-y,x,z
-x,-y,z
y,-x,z
1/2+x,1/2-y,1/2-z
1/2-x,1/2+y,1/2-z
1/2+y,1/2+x,1/2-z
1/2-y,1/2-x,1/2-z
-x,-y,-z
y,-x,-z
x,y,-z
-y,x,-z
1/2-x,1/2+y,1/2+z
1/2+x,1/2-y,1/2+z
1/2-y,1/2-x,1/2+z
1/2+y,1/2+x,1/2+z
loop_
_atom_site_type_symbol
_atom_site_label
_atom_site_fract_x
_atom_site_fract_y
_atom_site_fract_z
Si Si1 0.907956 0.520703 0.500000
Si Si2 0.877236 0.707629 0.663983
Si Si3 0.300539 0.286166 0.831829
Si Si4 0.999456 0.672913 0.755729
Si Si5 0.376575 0.210180 0.333373
Si Si6 0.905049 0.475208 0.000000
O O1 0.870748 0.534601 0.639011
O O2 0.922805 0.451461 0.500000
O O3 0.963097 0.562462 0.500000
O O4 0.842529 0.657472 0.750000
O O5 0.869555 0.688920 0.500000
O O6 0.851114 0.773294 0.690697
O O7 0.946604 0.713669 0.698660
O O8 0.257252 0.242749 0.750000
O O9 0.361392 0.272429 0.747778
O O10 0.306843 0.271687 0.000000
O O11 0.052362 0.707860 0.829966
O O12 0.031740 0.635434 0.635757
O O13 0.343629 0.156372 0.250000
O O14 0.357071 0.210464 0.500000
#
# Coordination Sequence:
#
# PCOD8314678 Si02
#       6
#     8  16  16  16  16   8
#     4  11  22  36  44  66  92 134 176 211 240 280
#     4  10  21  35  52  73  97 128 166 207 255 300
#     4   9  18  33  53  73  93 121 159 205 255 306
#     4  12  23  33  49  71  96 130 169 214 247 291
#     4  11  22  35  51  72  97 128 167 208 255 299
#     4  11  22  34  50  60  94 134 176 209 246 274
#
# _framework density 16.49126
#
# number of rings (size 3 to 8) (size 9 to 14) (size 15 to 20)
#    0.000    1.400    2.000    6.000    4.200    2.400 
#    0.000    0.000    0.000    0.000    0.000    0.000 
#    0.000    0.800    0.000    6.200    0.000    1.600 
#
# Total GULP energy -991200.432789 kJ/mol
# GULP energy per Si atom -12390.005410 kJ/mol
# Density = 1.645373 g / cm^3
# Si number density = 16.491260 Si / 1000 Ang^3
#
#
#
# Elastic Constant Matrix: (Units=GPa)
#
#
# Indices 1 2 3 4 5 6 
#
# 1 63.7178 41.4991 26.6982 0.0000 0.0000 0.0000
# 2 41.4991 63.7194 26.6962 0.0000 0.0000 0.0000
# 3 26.6982 26.6962 118.2949 0.0000 0.0000 0.0000
# 4 0.0000 0.0000 0.0000 22.9628 0.0000 0.0000
# 5 0.0000 0.0000 0.0000 0.0000 22.9628 0.0000
# 6 0.0000 0.0000 0.0000 0.0000 0.0000 16.3174
#
#
#
# Elastic Compliance Matrix: (Units=1/GPa)
#
#
# Indices 1 2 3 4 5 6 
#
# 1 0.027870 -0.017136 -0.002423 0.000000 0.000000 0.000000
# 2 -0.017136 0.027869 -0.002422 0.000000 0.000000 0.000000
# 3 -0.002423 -0.002422 0.009547 0.000000 0.000000 0.000000
# 4 0.000000 0.000000 0.000000 0.043549 0.000000 0.000000
# 5 0.000000 0.000000 0.000000 0.000000 0.043549 0.000000
# 6 0.000000 0.000000 0.000000 0.000000 0.000000 0.061284
#
#
# Mechanical properties :
#
#
# Convention : Reuss Voigt Hill
#
# Bulk Modulus (GPa) = 46.89514 48.39100 47.64307
# Shear Modulus (GPa) = 18.88670 22.50453 20.69561
#
# Velocity S-wave (km/s) = 3.38783 3.69810 3.54636
# Velocity P-wave (km/s) = 6.61826 6.90230 6.76177
#
# Compressibility (1/GPa) = 0.02132417
#
# Stress axis : x y z
#
# Youngs Moduli (GPa) = 35.88091 35.88246 104.74702
#
# Poissons Ratio (x) = 0.61488 0.25379
# Poissons Ratio (y) = 0.61486 0.25368
# Poissons Ratio (z) = 0.08693 0.08690
#
# Static dielectric constant tensor:
#      x y z
#    x 3.294590 0.000000 0.000000 
#    y 0.000000 3.294560 0.000000 
#    z 0.000000 0.000000 3.387310 
# 
# 
# High freq. dielectric constant tensor:
#      x y z
#    x 1.605720 0.000000 0.000000 
#    y 0.000000 1.605720 0.000000 
#    z 0.000000 0.000000 1.662500 
# 
# From -- ./inp_files/1390.got.cif
#   From: 2010.03.12/outbox.cif.g09.slc.cpg/sg128_1_cif.got.tgz:1390.got - 2010.04.06 17:11:05.
