data_PCOD8314916
_publ_section_title
;
Structure prediction by ZEFSAII (Michael W. Deem and Ramdas Pophale) SiO2 
 PCOD8314916
Probable space group: P 4/N M M
;
_chemical_formula_sum "Si O2"
_cell_formula_units_Z 112
_cell_length_a 18.074623
_cell_length_b 18.074623
_cell_length_c 22.295363
_cell_angle_alpha 90.000000
_cell_angle_beta 90.000000
_cell_angle_gamma 90.000000
_cell_volume 7283.716653
_symmetry_space_group_name_H-M "P 4/N M M"
_symmetry_group_IT_number 129
_symmetry_cell_setting 'tetragonal'
loop_
_space_group_symop_operation_xyz
x,y,z
1/2-y,x,z
1/2-x,1/2-y,z
y,1/2-x,z
1/2+x,-y,-z
-x,1/2+y,-z
1/2+y,1/2+x,-z
-y,-x,-z
-x,-y,-z
1/2+y,-x,-z
1/2+x,1/2+y,-z
-y,1/2+x,-z
1/2-x,y,z
x,1/2-y,z
1/2-y,1/2-x,z
y,x,z
loop_
_atom_site_type_symbol
_atom_site_label
_atom_site_fract_x
_atom_site_fract_y
_atom_site_fract_z
Si Si1 0.835942 0.334528 0.134453
Si Si2 0.833875 0.949790 0.855639
Si Si3 0.049806 0.333563 0.442702
Si Si4 0.427468 0.667731 0.755285
Si Si5 0.952587 0.069264 0.069521
Si Si6 0.070978 0.548466 0.357556
Si Si7 0.930411 0.334060 0.541430
O O1 0.750000 0.346712 0.122439
O O2 0.859665 0.250000 0.113385
O O3 0.852991 0.340499 0.205321
O O4 0.877620 0.402809 0.101710
O O5 0.750000 0.931465 0.870132
O O6 0.873336 0.873336 0.839095
O O7 0.844263 0.003327 0.799086
O O8 0.868549 0.986258 0.915400
O O9 0.063497 0.250000 0.423201
O O10 0.128822 0.371179 0.452528
O O11 0.006158 0.371805 0.389028
O O12 0.006296 0.340458 0.504921
O O13 0.430761 0.750000 0.726131
O O14 0.426320 0.604704 0.705356
O O15 0.934321 0.065680 0.000000
O O16 0.989013 0.989013 0.089992
O O17 0.058597 0.620865 0.397620
O O18 0.992757 0.507244 0.347491
O O19 0.864193 0.364193 0.500000
O O20 0.911283 0.250000 0.558418
#
# Coordination Sequence:
#
# PCOD8314916 Si02
#       7
#    16  16  16  16  16  16  16
#     4   9  18  31  46  66  92 119 147 183 224 262
#     4   9  17  29  44  62  86 114 143 176 209 243
#     4   9  17  29  44  62  84 107 133 167 205 247
#     4   9  17  29  43  60  85 114 142 173 211 254
#     4   9  17  29  45  65  89 118 149 178 212 256
#     4  10  18  28  45  64  81 109 145 175 208 251
#     4   9  18  31  44  60  83 108 136 172 211 251
#
# _framework density 15.376765000000001
#
# number of rings (size 3 to 8) (size 9 to 14) (size 15 to 20)
#    0.000    2.857    0.000    2.571    0.000    5.000 
#    0.000    0.714    0.000    0.000    0.000    2.000 
#    0.000    0.286    0.000    0.857    0.000    0.571 
#
# Total GULP energy -1387931.777727 kJ/mol
# GULP energy per Si atom -12392.248015 kJ/mol
# Density = 1.534177 g / cm^3
# Si number density = 15.376765 Si / 1000 Ang^3
#
#
#
# Elastic Constant Matrix: (Units=GPa)
#
#
# Indices 1 2 3 4 5 6 
#
# 1 80.5473 39.7588 27.0643 0.0000 0.0000 0.0000
# 2 39.7588 80.5472 27.0643 0.0000 0.0000 0.0000
# 3 27.0643 27.0643 71.9051 0.0000 0.0000 0.0000
# 4 0.0000 0.0000 0.0000 15.6630 0.0000 0.0000
# 5 0.0000 0.0000 0.0000 0.0000 15.6627 0.0000
# 6 0.0000 0.0000 0.0000 0.0000 0.0000 23.0405
#
#
#
# Elastic Compliance Matrix: (Units=1/GPa)
#
#
# Indices 1 2 3 4 5 6 
#
# 1 0.017262 -0.007255 -0.003766 0.000000 0.000000 0.000000
# 2 -0.007255 0.017262 -0.003766 0.000000 0.000000 0.000000
# 3 -0.003766 -0.003766 0.016743 0.000000 0.000000 0.000000
# 4 0.000000 0.000000 0.000000 0.063845 0.000000 0.000000
# 5 0.000000 0.000000 0.000000 0.000000 0.063846 0.000000
# 6 0.000000 0.000000 0.000000 0.000000 0.000000 0.043402
#
#
# Mechanical properties :
#
#
# Convention : Reuss Voigt Hill
#
# Bulk Modulus (GPa) = 46.10362 46.75271 46.42817
# Shear Modulus (GPa) = 19.29278 20.14738 19.72008
#
# Velocity S-wave (km/s) = 3.54598 3.62366 3.58503
# Velocity P-wave (km/s) = 6.84200 6.92666 6.88446
#
# Compressibility (1/GPa) = 0.02169027
#
# Stress axis : x y z
#
# Youngs Moduli (GPa) = 57.93158 57.93150 59.72814
#
# Poissons Ratio (x) = 0.42029 0.22496
# Poissons Ratio (y) = 0.42029 0.22496
# Poissons Ratio (z) = 0.21820 0.21820
#
# Static dielectric constant tensor:
#      x y z
#    x 3.027830 0.000000 0.000000 
#    y 0.000000 3.027830 0.000000 
#    z 0.000000 0.000000 2.806640 
# 
# 
# High freq. dielectric constant tensor:
#      x y z
#    x 1.585640 0.000000 0.000000 
#    y 0.000000 1.585640 0.000000 
#    z 0.000000 0.000000 1.577200 
# 
# From -- ./inp_files/6706.got.cif
#   From: 2010.03.12/outbox.cif.g09.slc.cpg/sg129_4_cif.got.tgz:6706.got - 2010.04.06 17:19:44.
