data_PCOD8314285
_publ_section_title
;
Structure prediction by ZEFSAII (Michael W. Deem and Ramdas Pophale) SiO2 
 PCOD8314285
Probable space group: P 4/M B M
;
_chemical_formula_sum "Si O2"
_cell_formula_units_Z 104
_cell_length_a 26.201391
_cell_length_b 26.201391
_cell_length_c 7.678559
_cell_angle_alpha 90.000000
_cell_angle_beta 90.000000
_cell_angle_gamma 90.000000
_cell_volume 5271.429733
_symmetry_space_group_name_H-M "P 4/M B M"
_symmetry_group_IT_number 127
_symmetry_cell_setting 'tetragonal'
loop_
_space_group_symop_operation_xyz
x,y,z
-y,x,z
-x,-y,z
y,-x,z
1/2+x,1/2-y,-z
1/2-x,1/2+y,-z
1/2+y,1/2+x,-z
1/2-y,1/2-x,-z
-x,-y,-z
y,-x,-z
x,y,-z
-y,x,-z
1/2-x,1/2+y,z
1/2+x,1/2-y,z
1/2-y,1/2-x,z
1/2+y,1/2+x,z
loop_
_atom_site_type_symbol
_atom_site_label
_atom_site_fract_x
_atom_site_fract_y
_atom_site_fract_z
Si Si1 0.673234 0.746026 0.300348
Si Si2 0.204201 0.862693 0.295950
Si Si3 0.811831 0.609617 0.802556
Si Si4 0.224859 0.496607 0.209071
Si Si5 0.403677 0.174405 0.195575
Si Si6 0.028564 0.163372 0.700677
Si Si7 0.085202 0.994789 0.000000
O O1 0.655522 0.750047 0.500000
O O2 0.729414 0.770587 0.276201
O O3 0.673466 0.687483 0.236884
O O4 0.632265 0.776047 0.186319
O O5 0.215807 0.861912 0.500000
O O6 0.258328 0.860699 0.200052
O O7 0.171429 0.912324 0.244346
O O8 0.856455 0.643546 0.709666
O O9 0.802866 0.554134 0.715075
O O10 0.828626 0.601101 0.000000
O O11 0.190867 0.543263 0.285729
O O12 0.282682 0.500767 0.279034
O O13 0.227352 0.496645 0.000000
O O14 0.372897 0.127104 0.289033
O O15 0.415956 0.157337 0.000000
O O16 0.023405 0.144946 0.500000
O O17 0.005511 0.120280 0.826738
O O18 0.047319 0.946472 0.000000
#
# Coordination Sequence:
#
# PCOD8314285 Si02
#       7
#    16  16  16  16  16  16   8
#     4   9  17  29  44  66 101 137 168 210 264 324
#     4   9  18  31  49  75 105 136 168 210 267 330
#     4   9  17  28  46  72 100 135 177 220 269 326
#     4   9  17  33  54  76 108 145 182 229 279 326
#     4   9  18  31  47  70 100 138 182 221 264 321
#     4  10  21  39  62  87 112 142 185 231 278 331
#     4  11  26  46  64  84 112 146 186 233 284 330
#
# _framework density 19.728992999999999
#
# number of rings (size 3 to 8) (size 9 to 14) (size 15 to 20)
#    0.000    2.692    0.769    0.462    1.077    4.000 
#    0.000    3.846    0.000    0.462    0.000    3.231 
#    0.000    0.000    0.000   11.538    0.000   12.000 
#
# Total GULP energy -1288720.085810 kJ/mol
# GULP energy per Si atom -12391.539287 kJ/mol
# Density = 1.968409 g / cm^3
# Si number density = 19.728993 Si / 1000 Ang^3
#
#
#
# Elastic Constant Matrix: (Units=GPa)
#
#
# Indices 1 2 3 4 5 6 
#
# 1 108.2578 56.7628 19.4232 0.0000 0.0000 0.0000
# 2 56.7628 108.2578 19.4232 0.0000 0.0000 0.0000
# 3 19.4232 19.4232 51.9627 0.0000 0.0000 0.0000
# 4 0.0000 0.0000 0.0000 10.1070 0.0000 0.0000
# 5 0.0000 0.0000 0.0000 0.0000 10.1070 0.0000
# 6 0.0000 0.0000 0.0000 0.0000 0.0000 26.5355
#
#
#
# Elastic Compliance Matrix: (Units=1/GPa)
#
#
# Indices 1 2 3 4 5 6 
#
# 1 0.013032 -0.006387 -0.002484 0.000000 0.000000 0.000000
# 2 -0.006387 0.013032 -0.002484 0.000000 0.000000 0.000000
# 3 -0.002484 -0.002484 0.021101 0.000000 0.000000 0.000000
# 4 0.000000 0.000000 0.000000 0.098941 0.000000 0.000000
# 5 0.000000 0.000000 0.000000 0.000000 0.098941 0.000000
# 6 0.000000 0.000000 0.000000 0.000000 0.000000 0.037685
#
#
# Mechanical properties :
#
#
# Convention : Reuss Voigt Hill
#
# Bulk Modulus (GPa) = 40.89028 51.07742 45.98385
# Shear Modulus (GPa) = 15.94420 20.87453 18.40936
#
# Velocity S-wave (km/s) = 2.84590 3.25632 3.05800
# Velocity P-wave (km/s) = 5.61871 6.33118 5.98555
#
# Compressibility (1/GPa) = 0.02445569
#
# Stress axis : x y z
#
# Youngs Moduli (GPa) = 76.73457 76.73457 47.39042
#
# Poissons Ratio (x) = 0.49014 0.11770
# Poissons Ratio (y) = 0.49014 0.11770
# Poissons Ratio (z) = 0.19058 0.19058
#
# Static dielectric constant tensor:
#      x y z
#    x 3.702510 0.000000 0.000000 
#    y 0.000000 3.702510 0.000000 
#    z 0.000000 0.000000 3.381780 
# 
# 
# High freq. dielectric constant tensor:
#      x y z
#    x 1.756650 0.000000 0.000000 
#    y 0.000000 1.756650 0.000000 
#    z 0.000000 0.000000 1.755810 
# 
# From -- ./inp_files/2271.got.cif
#   From: 2010.03.12/outbox.cif.g09.slc.cpg/sg127_2_cif.got.tgz:2271.got - 2010.04.06 17:03:15.
