data_PCOD8314335
_publ_section_title
;
Structure prediction by ZEFSAII (Michael W. Deem and Ramdas Pophale) SiO2 
 PCOD8314335
Probable space group: P 4/M B M
;
_chemical_formula_sum "Si O2"
_cell_formula_units_Z 112
_cell_length_a 14.354783
_cell_length_b 14.354783
_cell_length_c 26.595498
_cell_angle_alpha 90.000000
_cell_angle_beta 90.000000
_cell_angle_gamma 90.000000
_cell_volume 5480.262865
_symmetry_space_group_name_H-M "P 4/M B M"
_symmetry_group_IT_number 127
_symmetry_cell_setting 'tetragonal'
loop_
_space_group_symop_operation_xyz
x,y,z
-y,x,z
-x,-y,z
y,-x,z
1/2+x,1/2-y,-z
1/2-x,1/2+y,-z
1/2+y,1/2+x,-z
1/2-y,1/2-x,-z
-x,-y,-z
y,-x,-z
x,y,-z
-y,x,-z
1/2-x,1/2+y,z
1/2+x,1/2-y,z
1/2-y,1/2-x,z
1/2+y,1/2+x,z
loop_
_atom_site_type_symbol
_atom_site_label
_atom_site_fract_x
_atom_site_fract_y
_atom_site_fract_z
Si Si1 0.372072 0.282424 0.800632
Si Si2 0.735341 0.387507 0.398923
Si Si3 0.127715 0.082663 0.302425
Si Si4 0.333189 0.316127 0.909273
Si Si5 0.228641 0.491166 0.055817
Si Si6 0.246108 0.405463 0.441418
Si Si7 0.856002 0.504891 0.158906
O O1 0.296173 0.203828 0.787712
O O2 0.387128 0.348913 0.753930
O O3 0.341377 0.341987 0.849780
O O4 0.474037 0.237721 0.813052
O O5 0.832257 0.332257 0.406493
O O6 0.703668 0.376992 0.340962
O O7 0.653115 0.341002 0.432121
O O8 0.751489 0.495395 0.413155
O O9 0.027302 0.126661 0.312192
O O10 0.285302 0.214699 0.913314
O O11 0.273392 0.390244 0.938828
O O12 0.432864 0.309896 0.936130
O O13 0.151125 0.503873 0.098464
O O14 0.184868 0.499947 0.000000
O O15 0.238109 0.427302 0.500000
O O16 0.156891 0.343110 0.423431
O O17 0.889160 0.610841 0.172968
O O18 0.935791 0.435791 0.176973
#
# Coordination Sequence:
#
# PCOD8314335 Si02
#       7
#    16  16  16  16  16  16  16
#     4   9  20  39  59  82 111 150 193 238 300 362
#     4  11  22  41  65  93 133 175 214 264 321 373
#     4  11  23  39  61  90 122 157 204 259 309 364
#     4  10  23  40  58  82 113 147 187 235 286 348
#     4  11  22  36  56  80 110 148 185 228 286 348
#     4  10  22  40  65  98 132 174 225 267 311 368
#     4   9  19  36  56  80 110 143 187 241 290 349
#
# _framework density 20.436975
#
# number of rings (size 3 to 8) (size 9 to 14) (size 15 to 20)
#    0.000    1.857    1.429    3.000    4.000    4.571 
#    0.000    4.286    0.000    1.714    0.000    0.000 
#    0.000    0.000    0.000    0.000    0.000    0.000 
#
# Total GULP energy -1388207.076945 kJ/mol
# GULP energy per Si atom -12394.706044 kJ/mol
# Density = 2.039046 g / cm^3
# Si number density = 20.436975 Si / 1000 Ang^3
#
#
#
# Elastic Constant Matrix: (Units=GPa)
#
#
# Indices 1 2 3 4 5 6 
#
# 1 76.8748 29.0327 15.6185 0.0000 0.0000 0.0000
# 2 29.0327 76.8748 15.6185 0.0000 0.0000 0.0000
# 3 15.6185 15.6185 87.6755 0.0000 0.0000 0.0000
# 4 0.0000 0.0000 0.0000 24.6862 0.0000 0.0000
# 5 0.0000 0.0000 0.0000 0.0000 24.6862 0.0000
# 6 0.0000 0.0000 0.0000 0.0000 0.0000 16.1275
#
#
#
# Elastic Compliance Matrix: (Units=1/GPa)
#
#
# Indices 1 2 3 4 5 6 
#
# 1 0.015434 -0.005468 -0.001775 0.000000 0.000000 0.000000
# 2 -0.005468 0.015434 -0.001775 0.000000 0.000000 0.000000
# 3 -0.001775 -0.001775 0.012038 0.000000 0.000000 0.000000
# 4 0.000000 0.000000 0.000000 0.040508 0.000000 0.000000
# 5 0.000000 0.000000 0.000000 0.000000 0.040508 0.000000
# 6 0.000000 0.000000 0.000000 0.000000 0.000000 0.062006
#
#
# Mechanical properties :
#
#
# Convention : Reuss Voigt Hill
#
# Bulk Modulus (GPa) = 40.21134 40.21828 40.21481
# Shear Modulus (GPa) = 23.55649 25.17702 24.36675
#
# Velocity S-wave (km/s) = 3.39874 3.51370 3.45670
# Velocity P-wave (km/s) = 5.92625 6.01526 5.97092
#
# Compressibility (1/GPa) = 0.02486861
#
# Stress axis : x y z
#
# Youngs Moduli (GPa) = 64.79216 64.79216 83.06885
#
# Poissons Ratio (x) = 0.35429 0.14747
# Poissons Ratio (y) = 0.35429 0.14747
# Poissons Ratio (z) = 0.11503 0.11503
#
# Static dielectric constant tensor:
#      x y z
#    x 3.727650 0.000000 0.000000 
#    y 0.000000 3.727650 0.000000 
#    z 0.000000 0.000000 3.602930 
# 
# 
# High freq. dielectric constant tensor:
#      x y z
#    x 1.797570 0.000000 0.000000 
#    y 0.000000 1.797570 0.000000 
#    z 0.000000 0.000000 1.791020 
# 
# From -- ./inp_files/6181.got.cif
#   From: 2010.03.12/outbox.cif.g09.slc.cpg/sg127_4_cif.got.tgz:6181.got - 2010.04.06 17:03:15.
