data_PCOD8314574
_publ_section_title
;
Structure prediction by ZEFSAII (Michael W. Deem and Ramdas Pophale) SiO2 
 PCOD8314574
Probable space group: P 4/M N C
;
_chemical_formula_sum "Si O2"
_cell_formula_units_Z 96
_cell_length_a 16.940913
_cell_length_b 16.940913
_cell_length_c 17.522918
_cell_angle_alpha 90.000000
_cell_angle_beta 90.000000
_cell_angle_gamma 90.000000
_cell_volume 5028.981673
_symmetry_space_group_name_H-M "P 4/M N C"
_symmetry_group_IT_number 128
_symmetry_cell_setting 'tetragonal'
loop_
_space_group_symop_operation_xyz
x,y,z
-y,x,z
-x,-y,z
y,-x,z
1/2+x,1/2-y,1/2-z
1/2-x,1/2+y,1/2-z
1/2+y,1/2+x,1/2-z
1/2-y,1/2-x,1/2-z
-x,-y,-z
y,-x,-z
x,y,-z
-y,x,-z
1/2-x,1/2+y,1/2+z
1/2+x,1/2-y,1/2+z
1/2-y,1/2-x,1/2+z
1/2+y,1/2+x,1/2+z
loop_
_atom_site_type_symbol
_atom_site_label
_atom_site_fract_x
_atom_site_fract_y
_atom_site_fract_z
Si Si1 0.659618 0.351547 0.586566
Si Si2 0.320562 0.725132 0.814271
Si Si3 0.601878 0.574806 0.726824
Si Si4 0.020520 0.587515 0.910227
Si Si5 0.323708 0.160332 0.160821
Si Si6 0.862679 0.665921 0.915186
O O1 0.662276 0.386576 0.500000
O O2 0.587299 0.386476 0.635687
O O3 0.738824 0.374210 0.633649
O O4 0.645832 0.259028 0.582529
O O5 0.271427 0.771427 0.750000
O O6 0.383283 0.667921 0.777036
O O7 0.253997 0.675738 0.862871
O O8 0.367455 0.789557 0.865198
O O9 0.516521 0.608648 0.748259
O O10 0.106225 0.610229 0.877817
O O11 0.000000 0.500000 0.882553
O O12 0.948271 0.642731 0.880441
O O13 0.028399 0.594162 0.000000
O O14 0.342679 0.157322 0.250000
O O15 0.855443 0.629179 0.000000
#
# Coordination Sequence:
#
# PCOD8314574 Si02
#       6
#    16  16  16  16  16  16
#     4  10  20  35  58  83 111 152 195 241 287 344
#     4  10  19  39  58  84 115 152 202 243 288 355
#     4  11  24  39  57  85 121 158 195 247 303 351
#     4  10  22  38  54  84 125 156 188 239 298 353
#     4  10  19  35  55  81 113 148 197 238 284 347
#     4   9  19  36  59  85 115 153 194 234 290 351
#
# _framework density 19.089352000000002
#
# number of rings (size 3 to 8) (size 9 to 14) (size 15 to 20)
#    0.000    2.000    5.000    0.500    2.333    3.000 
#    3.000    0.833    0.000    1.000    0.000    1.167 
#    0.000    0.000    0.000    0.000    0.000    0.000 
#
# Total GULP energy -1189525.766453 kJ/mol
# GULP energy per Si atom -12390.893401 kJ/mol
# Density = 1.904590 g / cm^3
# Si number density = 19.089352 Si / 1000 Ang^3
#
#
#
# Elastic Constant Matrix: (Units=GPa)
#
#
# Indices 1 2 3 4 5 6 
#
# 1 68.1003 44.4576 43.5943 0.0000 0.0000 0.0000
# 2 44.4576 68.1004 43.5943 0.0000 0.0000 0.0000
# 3 43.5943 43.5943 71.9020 0.0000 0.0000 0.0000
# 4 0.0000 0.0000 0.0000 26.9935 0.0000 0.0000
# 5 0.0000 0.0000 0.0000 0.0000 26.9934 0.0000
# 6 0.0000 0.0000 0.0000 0.0000 0.0000 36.9117
#
#
#
# Elastic Compliance Matrix: (Units=1/GPa)
#
#
# Indices 1 2 3 4 5 6 
#
# 1 0.029524 -0.012772 -0.010157 0.000000 0.000000 0.000000
# 2 -0.012772 0.029524 -0.010157 0.000000 0.000000 0.000000
# 3 -0.010157 -0.010157 0.026224 0.000000 0.000000 0.000000
# 4 0.000000 0.000000 0.000000 0.037046 0.000000 0.000000
# 5 0.000000 0.000000 0.000000 0.000000 0.037046 0.000000
# 6 0.000000 0.000000 0.000000 0.000000 0.000000 0.027092
#
#
# Mechanical properties :
#
#
# Convention : Reuss Voigt Hill
#
# Bulk Modulus (GPa) = 52.35381 52.37721 52.36551
# Shear Modulus (GPa) = 19.30551 23.27682 21.29117
#
# Velocity S-wave (km/s) = 3.18358 3.49572 3.34330
# Velocity P-wave (km/s) = 6.40303 6.61747 6.51113
#
# Compressibility (1/GPa) = 0.01910081
#
# Stress axis : x y z
#
# Youngs Moduli (GPa) = 33.87074 33.87076 38.13338
#
# Poissons Ratio (x) = 0.43261 0.38731
# Poissons Ratio (y) = 0.43261 0.38731
# Poissons Ratio (z) = 0.34401 0.34401
#
# Static dielectric constant tensor:
#      x y z
#    x 3.582830 0.000000 0.000000 
#    y 0.000000 3.582830 0.000000 
#    z 0.000000 0.000000 3.728970 
# 
# 
# High freq. dielectric constant tensor:
#      x y z
#    x 1.736250 0.000000 0.000000 
#    y 0.000000 1.736250 0.000000 
#    z 0.000000 0.000000 1.729430 
# 
# From -- ./inp_files/4793.got.cif
#   From: 2010.03.12/outbox.cif.g09.slc.cpg/sg128_3_cif.got.tgz:4793.got - 2010.04.06 17:11:05.
