data_PCOD8314549
_publ_section_title
;
Structure prediction by ZEFSAII (Michael W. Deem and Ramdas Pophale) SiO2 
 PCOD8314549
Probable space group: P 4/M N C
;
_chemical_formula_sum "Si O2"
_cell_formula_units_Z 120
_cell_length_a 27.945154
_cell_length_b 27.945154
_cell_length_c 8.319249
_cell_angle_alpha 90.000000
_cell_angle_beta 90.000000
_cell_angle_gamma 90.000000
_cell_volume 6496.764699
_symmetry_space_group_name_H-M "P 4/M N C"
_symmetry_group_IT_number 128
_symmetry_cell_setting 'tetragonal'
loop_
_space_group_symop_operation_xyz
x,y,z
-y,x,z
-x,-y,z
y,-x,z
1/2+x,1/2-y,1/2-z
1/2-x,1/2+y,1/2-z
1/2+y,1/2+x,1/2-z
1/2-y,1/2-x,1/2-z
-x,-y,-z
y,-x,-z
x,y,-z
-y,x,-z
1/2-x,1/2+y,1/2+z
1/2+x,1/2-y,1/2+z
1/2-y,1/2-x,1/2+z
1/2+y,1/2+x,1/2+z
loop_
_atom_site_type_symbol
_atom_site_label
_atom_site_fract_x
_atom_site_fract_y
_atom_site_fract_z
Si Si1 0.780482 0.650339 0.314319
Si Si2 0.844049 0.904220 0.318881
Si Si3 0.764880 0.058663 0.682918
Si Si4 0.947893 0.875775 0.312425
Si Si5 0.798963 0.812496 0.189686
Si Si6 0.512684 0.422037 0.500000
Si Si7 0.543082 0.741614 0.313478
Si Si8 0.205375 0.635781 0.687300
O O1 0.832182 0.667819 0.250000
O O2 0.782214 0.658172 0.500000
O O3 0.768584 0.595242 0.279848
O O4 0.739178 0.685375 0.243102
O O5 0.828986 0.916503 0.500000
O O6 0.901035 0.909267 0.296463
O O7 0.832836 0.849618 0.279324
O O8 0.813882 0.940785 0.208556
O O9 0.755280 0.070809 0.500000
O O10 0.820651 0.064545 0.725899
O O11 0.746976 0.005212 0.719517
O O12 0.968081 0.880149 0.500000
O O13 0.983510 0.892042 0.168587
O O14 0.744075 0.823681 0.235139
O O15 0.807705 0.818303 0.000000
O O16 0.554553 0.460953 0.500000
O O17 0.533819 0.750435 0.500000
O O18 0.584482 0.777087 0.243166
O O19 0.153533 0.653533 0.750000
O O20 0.201740 0.629024 0.500000
#
# Coordination Sequence:
#
# PCOD8314549 Si02
#       8
#    16  16  16  16  16   8  16  16
#     4  11  22  35  54  78 110 150 186 223 271 328
#     4  10  19  32  51  78 107 135 172 223 280 332
#     4  11  23  39  56  81 111 141 185 233 281 332
#     4  10  24  39  60  87 109 136 181 240 294 353
#     4   9  18  31  48  73 104 141 178 213 258 319
#     4  11  28  46  62  82 104 144 190 238 312 367
#     4  10  22  36  54  79 107 141 182 228 272 332
#     4   9  18  32  49  75 108 141 176 215 263 321
#
# _framework density 18.470732000000002
#
# number of rings (size 3 to 8) (size 9 to 14) (size 15 to 20)
#    0.000    1.933    1.333    2.800    5.600    3.733 
#    0.000    0.667    0.000    0.000    0.000    0.000 
#    0.000    0.533    0.000    5.600    0.000    3.067 
#
# Total GULP energy -1487218.166350 kJ/mol
# GULP energy per Si atom -12393.484720 kJ/mol
# Density = 1.842869 g / cm^3
# Si number density = 18.470732 Si / 1000 Ang^3
#
#
#
# Elastic Constant Matrix: (Units=GPa)
#
#
# Indices 1 2 3 4 5 6 
#
# 1 74.5014 46.0506 16.3547 0.0000 0.0000 0.0000
# 2 46.0506 74.5054 16.3547 0.0000 0.0000 0.0000
# 3 16.3547 16.3547 46.0046 0.0000 0.0000 0.0000
# 4 0.0000 0.0000 0.0000 24.0965 0.0000 0.0000
# 5 0.0000 0.0000 0.0000 0.0000 24.0961 0.0000
# 6 0.0000 0.0000 0.0000 0.0000 0.0000 22.9371
#
#
#
# Elastic Compliance Matrix: (Units=1/GPa)
#
#
# Indices 1 2 3 4 5 6 
#
# 1 0.022164 -0.012983 -0.003264 0.000000 0.000000 0.000000
# 2 -0.012983 0.022163 -0.003263 0.000000 0.000000 0.000000
# 3 -0.003264 -0.003263 0.024057 0.000000 0.000000 0.000000
# 4 0.000000 0.000000 0.000000 0.041500 0.000000 0.000000
# 5 0.000000 0.000000 0.000000 0.000000 0.041501 0.000000
# 6 0.000000 0.000000 0.000000 0.000000 0.000000 0.043597
#
#
# Mechanical properties :
#
#
# Convention : Reuss Voigt Hill
#
# Bulk Modulus (GPa) = 34.05557 39.17016 36.61286
# Shear Modulus (GPa) = 20.50948 21.97605 21.24276
#
# Velocity S-wave (km/s) = 3.33585 3.45306 3.39496
# Velocity P-wave (km/s) = 5.77190 6.09514 5.93572
#
# Compressibility (1/GPa) = 0.02936377
#
# Stress axis : x y z
#
# Youngs Moduli (GPa) = 45.11841 45.12110 41.56716
#
# Poissons Ratio (x) = 0.58579 0.13567
# Poissons Ratio (y) = 0.58576 0.13565
# Poissons Ratio (z) = 0.14726 0.14725
#
# Static dielectric constant tensor:
#      x y z
#    x 3.795470 0.000000 0.000000 
#    y 0.000000 3.795470 0.000000 
#    z 0.000000 0.000000 3.444660 
# 
# 
# High freq. dielectric constant tensor:
#      x y z
#    x 1.691360 0.000000 0.000000 
#    y 0.000000 1.691360 0.000000 
#    z 0.000000 0.000000 1.725100 
# 
# From -- ./inp_files/1773.got.cif
#   From: 2010.03.12/outbox.cif.g09.slc.cpg/sg128_1_cif.got.tgz:1773.got - 2010.04.06 17:11:05.
