data_PCOD8314708
_publ_section_title
;
Structure prediction by ZEFSAII (Michael W. Deem and Ramdas Pophale) SiO2 
 PCOD8314708
Probable space group: P 4/M N C
;
_chemical_formula_sum "Si O2"
_cell_formula_units_Z 80
_cell_length_a 12.459988
_cell_length_b 12.459988
_cell_length_c 26.990651
_cell_angle_alpha 90.000000
_cell_angle_beta 90.000000
_cell_angle_gamma 90.000000
_cell_volume 4190.333682
_symmetry_space_group_name_H-M "P 4/M N C"
_symmetry_group_IT_number 128
_symmetry_cell_setting 'tetragonal'
loop_
_space_group_symop_operation_xyz
x,y,z
-y,x,z
-x,-y,z
y,-x,z
1/2+x,1/2-y,1/2-z
1/2-x,1/2+y,1/2-z
1/2+y,1/2+x,1/2-z
1/2-y,1/2-x,1/2-z
-x,-y,-z
y,-x,-z
x,y,-z
-y,x,-z
1/2-x,1/2+y,1/2+z
1/2+x,1/2-y,1/2+z
1/2-y,1/2-x,1/2+z
1/2+y,1/2+x,1/2+z
loop_
_atom_site_type_symbol
_atom_site_label
_atom_site_fract_x
_atom_site_fract_y
_atom_site_fract_z
Si Si1 0.371298 0.790247 0.443860
Si Si2 0.971104 0.172695 0.188546
Si Si3 0.493692 0.835429 0.768208
Si Si4 0.100669 0.723358 0.092300
Si Si5 0.873654 0.503300 0.120349
O O1 0.332530 0.808480 0.500000
O O2 0.499565 0.771399 0.444821
O O3 0.313918 0.685554 0.421775
O O4 0.338599 0.894994 0.412313
O O5 0.972393 0.223595 0.243116
O O6 0.950138 0.262739 0.147185
O O7 0.087045 0.121757 0.181081
O O8 0.578567 0.921434 0.750000
O O9 0.492091 0.814182 0.826893
O O10 0.375885 0.875885 0.750000
O O11 0.157462 0.606252 0.091181
O O12 0.000000 0.500000 0.130523
#
# Coordination Sequence:
#
# PCOD8314708 Si02
#       5
#    16  16  16  16  16
#     4  11  24  39  60  89 120 160 206 255 310 362
#     4  11  23  37  54  84 125 159 187 239 307 369
#     4  11  19  34  58  86 112 149 198 236 284 357
#     4  11  21  38  61  85 120 159 200 249 310 370
#     4  10  21  38  60  88 119 153 204 255 299 361
#
# _framework density 19.091559
#
# number of rings (size 3 to 8) (size 9 to 14) (size 15 to 20)
#    0.000    1.200    6.000    1.800    0.000    7.200 
#    0.000    1.000    0.000    0.600    0.000    1.400 
#    0.000    0.000    0.000    0.000    0.000    0.000 
#
# Total GULP energy -992035.268322 kJ/mol
# GULP energy per Si atom -12400.440854 kJ/mol
# Density = 1.904811 g / cm^3
# Si number density = 19.091559 Si / 1000 Ang^3
#
#
#
# Elastic Constant Matrix: (Units=GPa)
#
#
# Indices 1 2 3 4 5 6 
#
# 1 84.4889 33.6469 35.5751 0.0000 0.0000 0.0000
# 2 33.6469 84.4884 35.5756 0.0000 0.0000 0.0000
# 3 35.5751 35.5756 128.8124 0.0000 0.0000 0.0000
# 4 0.0000 0.0000 0.0000 23.2849 0.0000 0.0000
# 5 0.0000 0.0000 0.0000 0.0000 23.2843 0.0000
# 6 0.0000 0.0000 0.0000 0.0000 0.0000 4.9246
#
#
#
# Elastic Compliance Matrix: (Units=1/GPa)
#
#
# Indices 1 2 3 4 5 6 
#
# 1 0.014911 -0.004758 -0.002804 0.000000 0.000000 0.000000
# 2 -0.004758 0.014911 -0.002804 0.000000 0.000000 0.000000
# 3 -0.002804 -0.002804 0.009312 0.000000 0.000000 0.000000
# 4 0.000000 0.000000 0.000000 0.042946 0.000000 0.000000
# 5 0.000000 0.000000 0.000000 0.000000 0.042947 0.000000
# 6 0.000000 0.000000 0.000000 0.000000 0.000000 0.203061
#
#
# Mechanical properties :
#
#
# Convention : Reuss Voigt Hill
#
# Bulk Modulus (GPa) = 54.33982 56.37612 55.35797
# Shear Modulus (GPa) = 14.08624 23.16490 18.62557
#
# Velocity S-wave (km/s) = 2.71924 3.48711 3.12684
# Velocity P-wave (km/s) = 6.19545 6.76806 6.48808
#
# Compressibility (1/GPa) = 0.01840271
#
# Stress axis : x y z
#
# Youngs Moduli (GPa) = 67.06338 67.06269 107.38603
#
# Poissons Ratio (x) = 0.31905 0.30113
# Poissons Ratio (y) = 0.31906 0.30115
# Poissons Ratio (z) = 0.18806 0.18807
#
# Static dielectric constant tensor:
#      x y z
#    x 3.508320 0.000000 0.000000 
#    y 0.000000 3.508310 0.000000 
#    z 0.000000 0.000000 3.502520 
# 
# 
# High freq. dielectric constant tensor:
#      x y z
#    x 1.729580 0.000000 0.000000 
#    y 0.000000 1.729580 0.000000 
#    z 0.000000 0.000000 1.744600 
# 
# From -- ./inp_files/7176.got.cif
#   From: 2010.03.12/outbox.cif.g09.slc.cpg/sg128_4_cif.got.tgz:7176.got - 2010.04.06 17:11:05.
