data_PCOD8314245
_publ_section_title
;
Structure prediction by ZEFSAII (Michael W. Deem and Ramdas Pophale) SiO2 
 PCOD8314245
Probable space group: P 4/M B M
;
_chemical_formula_sum "Si O2"
_cell_formula_units_Z 104
_cell_length_a 18.671710
_cell_length_b 18.671710
_cell_length_c 14.726674
_cell_angle_alpha 90.000000
_cell_angle_beta 90.000000
_cell_angle_gamma 90.000000
_cell_volume 5134.200919
_symmetry_space_group_name_H-M "P 4/M B M"
_symmetry_group_IT_number 127
_symmetry_cell_setting 'tetragonal'
loop_
_space_group_symop_operation_xyz
x,y,z
-y,x,z
-x,-y,z
y,-x,z
1/2+x,1/2-y,-z
1/2-x,1/2+y,-z
1/2+y,1/2+x,-z
1/2-y,1/2-x,-z
-x,-y,-z
y,-x,-z
x,y,-z
-y,x,-z
1/2-x,1/2+y,z
1/2+x,1/2-y,z
1/2-y,1/2-x,z
1/2+y,1/2+x,z
loop_
_atom_site_type_symbol
_atom_site_label
_atom_site_fract_x
_atom_site_fract_y
_atom_site_fract_z
Si Si1 0.275820 0.655422 0.218358
Si Si2 0.180443 0.203560 0.401974
Si Si3 0.822948 0.562116 0.398895
Si Si4 0.023861 0.115112 0.801200
Si Si5 0.752592 0.626707 0.103197
Si Si6 0.262182 0.997837 0.232607
Si Si7 0.473646 0.615339 0.000000
O O1 0.211490 0.711490 0.214837
O O2 0.310956 0.648027 0.319188
O O3 0.339553 0.681782 0.151842
O O4 0.244256 0.577796 0.190697
O O5 0.165693 0.165080 0.500000
O O6 0.254563 0.245438 0.409984
O O7 0.118792 0.260559 0.380338
O O8 0.816486 0.528172 0.500000
O O9 0.899814 0.600186 0.389205
O O10 0.814636 0.501994 0.320451
O O11 0.027910 0.182174 0.733463
O O12 0.032818 0.154892 0.901758
O O13 0.944847 0.082692 0.787166
O O14 0.813643 0.686358 0.099208
O O15 0.787919 0.559461 0.157077
O O16 0.729552 0.604436 0.000000
O O17 0.417159 0.552228 0.000000
#
# Coordination Sequence:
#
# PCOD8314245 Si02
#       7
#    16  16  16  16  16  16   8
#     4  10  21  37  55  82 119 149 175 223 288 336
#     4   8  14  29  54  78 103 139 178 216 264 322
#     4   9  18  34  57  81 105 138 183 233 276 318
#     4   9  18  30  43  66 104 142 175 212 261 316
#     4  10  22  40  58  77 107 147 190 234 277 327
#     4  12  21  31  55  85 106 137 185 233 271 333
#     4   7  12  26  42  56  84 130 170 205 244 298
#
# _framework density 20.256318
#
# number of rings (size 3 to 8) (size 9 to 14) (size 15 to 20)
#    0.000    2.538    1.538    3.231    1.077    1.231 
#    2.769    0.000    0.000    1.846    0.000    3.231 
#    0.000    0.000    0.000    0.000    0.000    0.000 
#
# Total GULP energy -1288377.556592 kJ/mol
# GULP energy per Si atom -12388.245736 kJ/mol
# Density = 2.021021 g / cm^3
# Si number density = 20.256318 Si / 1000 Ang^3
#
#
#
# Elastic Constant Matrix: (Units=GPa)
#
#
# Indices 1 2 3 4 5 6 
#
# 1 51.7811 -5.0569 24.4601 0.0000 0.0000 0.0000
# 2 -5.0569 51.7811 24.4601 0.0000 0.0000 0.0000
# 3 24.4601 24.4601 104.5318 0.0000 0.0000 0.0000
# 4 0.0000 0.0000 0.0000 24.8993 0.0000 0.0000
# 5 0.0000 0.0000 0.0000 0.0000 24.8993 0.0000
# 6 0.0000 0.0000 0.0000 0.0000 0.0000 11.1084
#
#
#
# Elastic Compliance Matrix: (Units=1/GPa)
#
#
# Indices 1 2 3 4 5 6 
#
# 1 0.022970 0.005377 -0.006633 0.000000 0.000000 0.000000
# 2 0.005377 0.022970 -0.006633 0.000000 0.000000 0.000000
# 3 -0.006633 -0.006633 0.012671 0.000000 0.000000 0.000000
# 4 0.000000 0.000000 0.000000 0.040162 0.000000 0.000000
# 5 0.000000 0.000000 0.000000 0.000000 0.040162 0.000000
# 6 0.000000 0.000000 0.000000 0.000000 0.000000 0.090022
#
#
# Mechanical properties :
#
#
# Convention : Reuss Voigt Hill
#
# Bulk Modulus (GPa) = 23.34685 32.86896 28.10791
# Shear Modulus (GPa) = 19.30395 23.13009 21.21702
#
# Velocity S-wave (km/s) = 3.09039 3.38282 3.23991
# Velocity P-wave (km/s) = 4.92796 5.61424 5.28226
#
# Compressibility (1/GPa) = 0.04283233
#
# Stress axis : x y z
#
# Youngs Moduli (GPa) = 43.53422 43.53422 78.92215
#
# Poissons Ratio (x) = -0.23407 0.52350
# Poissons Ratio (y) = -0.23407 0.52350
# Poissons Ratio (z) = 0.28877 0.28877
#
# Static dielectric constant tensor:
#      x y z
#    x 3.504880 0.000000 0.000000 
#    y 0.000000 3.504880 0.000000 
#    z 0.000000 0.000000 4.067900 
# 
# 
# High freq. dielectric constant tensor:
#      x y z
#    x 1.772630 0.000000 0.000000 
#    y 0.000000 1.772630 0.000000 
#    z 0.000000 0.000000 1.791580 
# 
# From -- ./inp_files/4589.got.cif
#   From: 2010.03.12/outbox.cif.g09.slc.cpg/sg127_3_cif.got.tgz:4589.got - 2010.04.06 17:03:15.
