data_PCOD8314182
_publ_section_title
;
Structure prediction by ZEFSAII (Michael W. Deem and Ramdas Pophale) SiO2 
 PCOD8314182
Probable space group: P 4/M B M
;
_chemical_formula_sum "Si O2"
_cell_formula_units_Z 96
_cell_length_a 24.589362
_cell_length_b 24.589362
_cell_length_c 8.655799
_cell_angle_alpha 90.000000
_cell_angle_beta 90.000000
_cell_angle_gamma 90.000000
_cell_volume 5233.613947
_symmetry_space_group_name_H-M "P 4/M B M"
_symmetry_group_IT_number 127
_symmetry_cell_setting 'tetragonal'
loop_
_space_group_symop_operation_xyz
x,y,z
-y,x,z
-x,-y,z
y,-x,z
1/2+x,1/2-y,-z
1/2-x,1/2+y,-z
1/2+y,1/2+x,-z
1/2-y,1/2-x,-z
-x,-y,-z
y,-x,-z
x,y,-z
-y,x,-z
1/2-x,1/2+y,z
1/2+x,1/2-y,z
1/2-y,1/2-x,z
1/2+y,1/2+x,z
loop_
_atom_site_type_symbol
_atom_site_label
_atom_site_fract_x
_atom_site_fract_y
_atom_site_fract_z
Si Si1 0.327412 0.016943 0.820726
Si Si2 0.909308 0.677022 0.676806
Si Si3 0.302202 0.411757 0.321595
Si Si4 0.385818 0.114182 0.316751
Si Si5 0.146507 0.808916 0.179123
Si Si6 0.712638 0.467173 0.320475
Si Si7 0.703608 0.796393 0.681629
O O1 0.373319 0.057255 0.762735
O O2 0.276083 0.027739 0.712064
O O3 0.347314 0.955566 0.789248
O O4 0.313338 0.026065 0.000000
O O5 0.927954 0.668708 0.500000
O O6 0.853365 0.646635 0.713632
O O7 0.898938 0.739683 0.712660
O O8 0.316816 0.401432 0.500000
O O9 0.335153 0.370011 0.217128
O O10 0.315814 0.474881 0.277176
O O11 0.391095 0.108905 0.500000
O O12 0.340955 0.159046 0.269047
O O13 0.083065 0.809713 0.223516
O O14 0.183728 0.762726 0.259657
O O15 0.152148 0.797267 0.000000
O O16 0.704337 0.453987 0.500000
O O17 0.708669 0.791332 0.500000
#
# Coordination Sequence:
#
# PCOD8314182 Si02
#       7
#    16  16  16   8  16  16   8
#     4  11  21  33  53  80 109 140 178 232 287 332
#     4   9  19  37  58  78 104 146 193 229 267 327
#     4   9  20  37  59  84 111 149 192 227 266 328
#     4  11  21  35  56  78 104 146 188 229 272 331
#     4  12  24  36  56  88 122 148 179 232 289 333
#     4  10  20  38  60  80 107 150 194 225 264 330
#     4  11  23  37  57  80 113 154 190 227 272 332
#
# _framework density 18.342966000000001
#
# number of rings (size 3 to 8) (size 9 to 14) (size 15 to 20)
#    0.000    1.667    1.667    5.000    1.167    4.333 
#    0.000    0.417    0.000    3.000    0.000    3.500 
#    0.000    0.000    0.000    0.000    0.000    0.000 
#
# Total GULP energy -1190225.728794 kJ/mol
# GULP energy per Si atom -12398.184675 kJ/mol
# Density = 1.830122 g / cm^3
# Si number density = 18.342966 Si / 1000 Ang^3
#
#
#
# Elastic Constant Matrix: (Units=GPa)
#
#
# Indices 1 2 3 4 5 6 
#
# 1 91.0934 56.1381 34.7472 0.0000 0.0000 0.0000
# 2 56.1381 91.0928 34.7462 0.0000 0.0000 0.0000
# 3 34.7472 34.7462 78.3533 0.0000 0.0000 0.0000
# 4 0.0000 0.0000 0.0000 18.9652 0.0000 0.0000
# 5 0.0000 0.0000 0.0000 0.0000 18.9652 0.0000
# 6 0.0000 0.0000 0.0000 0.0000 0.0000 26.3999
#
#
#
# Elastic Compliance Matrix: (Units=1/GPa)
#
#
# Indices 1 2 3 4 5 6 
#
# 1 0.018599 -0.010009 -0.003810 0.000000 0.000000 0.000000
# 2 -0.010009 0.018599 -0.003809 0.000000 0.000000 0.000000
# 3 -0.003810 -0.003809 0.016141 0.000000 0.000000 0.000000
# 4 0.000000 0.000000 0.000000 0.052728 0.000000 0.000000
# 5 0.000000 0.000000 0.000000 0.000000 0.052728 0.000000
# 6 0.000000 0.000000 0.000000 0.000000 0.000000 0.037879
#
#
# Mechanical properties :
#
#
# Convention : Reuss Voigt Hill
#
# Bulk Modulus (GPa) = 55.29753 56.86694 56.08223
# Shear Modulus (GPa) = 21.01208 21.85993 21.43601
#
# Velocity S-wave (km/s) = 3.38821 3.45590 3.42222
# Velocity P-wave (km/s) = 6.74674 6.85519 6.80118
#
# Compressibility (1/GPa) = 0.01808399
#
# Stress axis : x y z
#
# Youngs Moduli (GPa) = 53.76579 53.76598 61.95279
#
# Poissons Ratio (x) = 0.53815 0.23601
# Poissons Ratio (y) = 0.53815 0.23599
# Poissons Ratio (z) = 0.20482 0.20480
#
# Static dielectric constant tensor:
#      x y z
#    x 3.501440 0.000000 0.000000 
#    y 0.000000 3.501440 0.000000 
#    z 0.000000 0.000000 3.382590 
# 
# 
# High freq. dielectric constant tensor:
#      x y z
#    x 1.702910 0.000000 0.000000 
#    y 0.000000 1.702910 0.000000 
#    z 0.000000 0.000000 1.715510 
# 
# From -- ./inp_files/2110.got.cif
#   From: 2010.03.12/outbox.cif.g09.slc.cpg/sg127_2_cif.got.tgz:2110.got - 2010.04.06 17:03:15.
