data_PCOD8314771
_publ_section_title
;
Structure prediction by ZEFSAII (Michael W. Deem and Ramdas Pophale) SiO2 
 PCOD8314771
Probable space group: P 4/M N C
;
_chemical_formula_sum "Si O2"
_cell_formula_units_Z 96
_cell_length_a 14.132019
_cell_length_b 14.132019
_cell_length_c 22.857106
_cell_angle_alpha 90.000000
_cell_angle_beta 90.000000
_cell_angle_gamma 90.000000
_cell_volume 4564.883177
_symmetry_space_group_name_H-M "P 4/M N C"
_symmetry_group_IT_number 128
_symmetry_cell_setting 'tetragonal'
loop_
_space_group_symop_operation_xyz
x,y,z
-y,x,z
-x,-y,z
y,-x,z
1/2+x,1/2-y,1/2-z
1/2-x,1/2+y,1/2-z
1/2+y,1/2+x,1/2-z
1/2-y,1/2-x,1/2-z
-x,-y,-z
y,-x,-z
x,y,-z
-y,x,-z
1/2-x,1/2+y,1/2+z
1/2+x,1/2-y,1/2+z
1/2-y,1/2-x,1/2+z
1/2+y,1/2+x,1/2+z
loop_
_atom_site_type_symbol
_atom_site_label
_atom_site_fract_x
_atom_site_fract_y
_atom_site_fract_z
Si Si1 0.533611 0.895165 0.067123
Si Si2 0.219865 0.395350 0.146076
Si Si3 0.042739 0.147023 0.744055
Si Si4 0.252813 0.586406 0.567220
Si Si5 0.715977 0.600097 0.366962
Si Si6 0.597569 0.380590 0.933624
O O1 0.482601 0.823206 0.110290
O O2 0.644909 0.883276 0.077495
O O3 0.500000 0.000000 0.082797
O O4 0.506658 0.870451 0.000000
O O5 0.258609 0.431449 0.208256
O O6 0.143115 0.314350 0.156075
O O7 0.306588 0.350326 0.108491
O O8 0.047884 0.166957 0.812855
O O9 0.936615 0.115633 0.727695
O O10 0.282541 0.600167 0.500000
O O11 0.264776 0.476021 0.582559
O O12 0.318261 0.649484 0.608222
O O13 0.630419 0.486146 0.920283
O O14 0.621770 0.353900 0.000000
#
# Coordination Sequence:
#
# PCOD8314771 Si02
#       6
#    16  16  16  16  16  16
#     4  10  22  43  67  97 141 180 213 268 343 412
#     4  12  24  39  67  99 131 179 225 271 332 422
#     4  11  25  47  70  92 130 180 225 286 349 397
#     4  11  25  44  72 104 133 178 227 282 347 407
#     4  12  25  46  69  97 137 173 234 293 336 400
#     4   9  19  35  55  87 131 172 216 273 329 393
#
# _framework density 21.030110000000001
#
# number of rings (size 3 to 8) (size 9 to 14) (size 15 to 20)
#    0.000    1.167    3.333    3.000    4.667    3.667 
#    0.000    1.667    0.000    0.000    0.000    0.000 
#    0.000    0.000    0.000    0.000    0.000    0.000 
#
# Total GULP energy -1190777.020461 kJ/mol
# GULP energy per Si atom -12403.927296 kJ/mol
# Density = 2.098224 g / cm^3
# Si number density = 21.030110 Si / 1000 Ang^3
#
#
#
# Elastic Constant Matrix: (Units=GPa)
#
#
# Indices 1 2 3 4 5 6 
#
# 1 84.8577 32.8925 35.6626 0.0000 0.0000 0.0000
# 2 32.8925 84.8577 35.6626 0.0000 0.0000 0.0000
# 3 35.6626 35.6626 100.1488 0.0000 0.0000 0.0000
# 4 0.0000 0.0000 0.0000 37.0678 0.0000 0.0000
# 5 0.0000 0.0000 0.0000 0.0000 37.0678 0.0000
# 6 0.0000 0.0000 0.0000 0.0000 0.0000 35.5373
#
#
#
# Elastic Compliance Matrix: (Units=1/GPa)
#
#
# Indices 1 2 3 4 5 6 
#
# 1 0.015036 -0.004208 -0.003856 0.000000 0.000000 0.000000
# 2 -0.004208 0.015036 -0.003856 0.000000 0.000000 0.000000
# 3 -0.003856 -0.003856 0.012731 0.000000 0.000000 0.000000
# 4 0.000000 0.000000 0.000000 0.026978 0.000000 0.000000
# 5 0.000000 0.000000 0.000000 0.000000 0.026978 0.000000
# 6 0.000000 0.000000 0.000000 0.000000 0.000000 0.028139
#
#
# Mechanical properties :
#
#
# Convention : Reuss Voigt Hill
#
# Bulk Modulus (GPa) = 52.73110 53.14440 52.93775
# Shear Modulus (GPa) = 32.24598 32.97769 32.61183
#
# Velocity S-wave (km/s) = 3.92002 3.96424 3.94219
# Velocity P-wave (km/s) = 6.75405 6.80287 6.77851
#
# Compressibility (1/GPa) = 0.01896414
#
# Stress axis : x y z
#
# Youngs Moduli (GPa) = 66.50737 66.50737 78.54676
#
# Poissons Ratio (x) = 0.27985 0.30287
# Poissons Ratio (y) = 0.27985 0.30287
# Poissons Ratio (z) = 0.25644 0.25644
#
# Static dielectric constant tensor:
#      x y z
#    x 3.803620 0.000000 0.000000 
#    y 0.000000 3.803620 0.000000 
#    z 0.000000 0.000000 3.708180 
# 
# 
# High freq. dielectric constant tensor:
#      x y z
#    x 1.827690 0.000000 0.000000 
#    y 0.000000 1.827690 0.000000 
#    z 0.000000 0.000000 1.823360 
# 
# From -- ./inp_files/5720.got.cif
#   From: 2010.03.12/outbox.cif.g09.slc.cpg/sg128_3_cif.got.tgz:5720.got - 2010.04.06 17:11:05.
