data_PCOD8314439
_publ_section_title
;
Structure prediction by ZEFSAII (Michael W. Deem and Ramdas Pophale) SiO2 
 PCOD8314439
Probable space group: P 4/M B M
;
_chemical_formula_sum "Si O2"
_cell_formula_units_Z 96
_cell_length_a 14.775858
_cell_length_b 14.775858
_cell_length_c 21.131385
_cell_angle_alpha 90.000000
_cell_angle_beta 90.000000
_cell_angle_gamma 90.000000
_cell_volume 4613.530331
_symmetry_space_group_name_H-M "P 4/M B M"
_symmetry_group_IT_number 127
_symmetry_cell_setting 'tetragonal'
loop_
_space_group_symop_operation_xyz
x,y,z
-y,x,z
-x,-y,z
y,-x,z
1/2+x,1/2-y,-z
1/2-x,1/2+y,-z
1/2+y,1/2+x,-z
1/2-y,1/2-x,-z
-x,-y,-z
y,-x,-z
x,y,-z
-y,x,-z
1/2-x,1/2+y,z
1/2+x,1/2-y,z
1/2-y,1/2-x,z
1/2+y,1/2+x,z
loop_
_atom_site_type_symbol
_atom_site_label
_atom_site_fract_x
_atom_site_fract_y
_atom_site_fract_z
Si Si1 0.632547 0.427493 0.753227
Si Si2 0.451711 0.268786 0.120474
Si Si3 0.758915 0.002413 0.427667
Si Si4 0.287251 0.357541 0.929096
Si Si5 0.833136 0.180012 0.371915
Si Si6 0.570404 0.929597 0.424693
Si Si7 0.075588 0.575588 0.926293
O O1 0.620894 0.535373 0.751345
O O2 0.694940 0.407897 0.814215
O O3 0.687703 0.383106 0.695526
O O4 0.382036 0.303947 0.067357
O O5 0.553437 0.305450 0.112736
O O6 0.459859 0.161513 0.112773
O O7 0.751715 0.036869 0.500000
O O8 0.824737 0.915304 0.423202
O O9 0.666936 0.960670 0.399152
O O10 0.782205 0.085314 0.381863
O O11 0.207563 0.292438 0.901567
O O12 0.260314 0.387342 0.000000
O O13 0.763098 0.263098 0.381821
O O14 0.572446 0.927555 0.500000
O O15 0.500000 0.000000 0.396945
O O16 0.000000 0.500000 0.921649
O O17 0.097287 0.597287 0.000000
#
# Coordination Sequence:
#
# PCOD8314439 Si02
#       7
#    16  16  16  16  16   8   8
#     4  11  24  46  67  89 126 174 225 279 336 401
#     4  12  23  41  66  95 130 174 226 278 335 403
#     4  11  23  40  66 102 138 173 219 279 347 420
#     4  11  23  39  62  96 134 170 215 276 342 408
#     4  12  25  43  69  98 134 179 230 282 342 413
#     4   9  18  36  61  91 133 176 212 259 329 408
#     4  11  24  44  69 101 143 186 227 278 349 423
#
# _framework density 20.808358999999999
#
# number of rings (size 3 to 8) (size 9 to 14) (size 15 to 20)
#    0.000    0.833    5.000    3.000    1.167    3.667 
#    0.000    1.667    0.000    1.000    0.000    0.000 
#    0.000    0.000    0.000    0.000    0.000    0.000 
#
# Total GULP energy -1189934.246571 kJ/mol
# GULP energy per Si atom -12395.148402 kJ/mol
# Density = 2.076100 g / cm^3
# Si number density = 20.808359 Si / 1000 Ang^3
#
#
#
# Elastic Constant Matrix: (Units=GPa)
#
#
# Indices 1 2 3 4 5 6 
#
# 1 117.1315 43.2057 38.9725 0.0000 0.0000 0.0000
# 2 43.2057 117.1316 38.9725 0.0000 0.0000 0.0000
# 3 38.9725 38.9725 90.9337 0.0000 0.0000 0.0000
# 4 0.0000 0.0000 0.0000 28.0706 0.0000 0.0000
# 5 0.0000 0.0000 0.0000 0.0000 28.0707 0.0000
# 6 0.0000 0.0000 0.0000 0.0000 0.0000 35.9186
#
#
#
# Elastic Compliance Matrix: (Units=1/GPa)
#
#
# Indices 1 2 3 4 5 6 
#
# 1 0.010703 -0.002824 -0.003376 0.000000 0.000000 0.000000
# 2 -0.002824 0.010703 -0.003376 0.000000 0.000000 0.000000
# 3 -0.003376 -0.003376 0.013891 0.000000 0.000000 0.000000
# 4 0.000000 0.000000 0.000000 0.035624 0.000000 0.000000
# 5 0.000000 0.000000 0.000000 0.000000 0.035624 0.000000
# 6 0.000000 0.000000 0.000000 0.000000 0.000000 0.027841
#
#
# Mechanical properties :
#
#
# Convention : Reuss Voigt Hill
#
# Bulk Modulus (GPa) = 61.95083 63.05535 62.50309
# Shear Modulus (GPa) = 31.46209 32.01505 31.73857
#
# Velocity S-wave (km/s) = 3.89265 3.92671 3.90972
# Velocity P-wave (km/s) = 7.07392 7.13635 7.10520
#
# Compressibility (1/GPa) = 0.01614183
#
# Stress axis : x y z
#
# Youngs Moduli (GPa) = 93.43468 93.43466 71.98797
#
# Poissons Ratio (x) = 0.26390 0.24307
# Poissons Ratio (y) = 0.26390 0.24307
# Poissons Ratio (z) = 0.31548 0.31548
#
# Static dielectric constant tensor:
#      x y z
#    x 3.863740 0.000000 0.000000 
#    y 0.000000 3.863740 0.000000 
#    z 0.000000 0.000000 3.552590 
# 
# 
# High freq. dielectric constant tensor:
#      x y z
#    x 1.824910 0.000000 0.000000 
#    y 0.000000 1.824910 0.000000 
#    z 0.000000 0.000000 1.793100 
# 
# From -- ./inp_files/5819.got.cif
#   From: 2010.03.12/outbox.cif.g09.slc.cpg/sg127_3_cif.got.tgz:5819.got - 2010.04.06 17:03:15.
