data_PCOD8314537
_publ_section_title
;
Structure prediction by ZEFSAII (Michael W. Deem and Ramdas Pophale) SiO2 
 PCOD8314537
Probable space group: P 4/M N C
;
_chemical_formula_sum "Si O2"
_cell_formula_units_Z 96
_cell_length_a 17.001158
_cell_length_b 17.001158
_cell_length_c 15.899602
_cell_angle_alpha 90.000000
_cell_angle_beta 90.000000
_cell_angle_gamma 90.000000
_cell_volume 4595.610998
_symmetry_space_group_name_H-M "P 4/M N C"
_symmetry_group_IT_number 128
_symmetry_cell_setting 'tetragonal'
loop_
_space_group_symop_operation_xyz
x,y,z
-y,x,z
-x,-y,z
y,-x,z
1/2+x,1/2-y,1/2-z
1/2-x,1/2+y,1/2-z
1/2+y,1/2+x,1/2-z
1/2-y,1/2-x,1/2-z
-x,-y,-z
y,-x,-z
x,y,-z
-y,x,-z
1/2-x,1/2+y,1/2+z
1/2+x,1/2-y,1/2+z
1/2-y,1/2-x,1/2+z
1/2+y,1/2+x,1/2+z
loop_
_atom_site_type_symbol
_atom_site_label
_atom_site_fract_x
_atom_site_fract_y
_atom_site_fract_z
Si Si1 0.506949 0.622703 0.128987
Si Si2 0.217053 0.562531 0.092487
Si Si3 0.140901 0.840516 0.902197
Si Si4 0.924636 0.687704 0.295874
Si Si5 0.268030 0.284922 0.900445
Si Si6 0.509599 0.319109 0.689912
O O1 0.426993 0.582047 0.098902
O O2 0.509278 0.705349 0.082899
O O3 0.510605 0.627490 0.229962
O O4 0.163354 0.505223 0.151829
O O5 0.246475 0.647460 0.129362
O O6 0.177663 0.573441 0.000000
O O7 0.221831 0.798473 0.877071
O O8 0.137373 0.931017 0.873175
O O9 0.069647 0.795012 0.858047
O O10 0.126356 0.836081 0.000000
O O11 0.888451 0.611549 0.250000
O O12 0.863375 0.741509 0.350437
O O13 0.950815 0.738486 0.217161
O O14 0.271126 0.302748 0.000000
#
# Coordination Sequence:
#
# PCOD8314537 Si02
#       6
#    16  16  16  16  16  16
#     4  10  19  31  50  78 118 157 186 228 284 348
#     4  10  21  36  57  84 117 154 198 248 296 350
#     4  11  23  39  60  86 120 159 198 243 293 356
#     4  11  22  36  60  90 120 156 198 245 297 351
#     4  10  22  41  62  88 119 158 205 248 299 354
#     4  11  21  37  57  86 120 154 198 237 289 351
#
# _framework density 20.889498
#
# number of rings (size 3 to 8) (size 9 to 14) (size 15 to 20)
#    0.000    1.500    3.333    3.000    2.333    2.333 
#    0.000    1.667    0.000    2.000    0.000    3.500 
#    0.000    0.000    0.000    0.000    0.000    0.000 
#
# Total GULP energy -1189403.594100 kJ/mol
# GULP energy per Si atom -12389.620772 kJ/mol
# Density = 2.084195 g / cm^3
# Si number density = 20.889498 Si / 1000 Ang^3
#
#
#
# Elastic Constant Matrix: (Units=GPa)
#
#
# Indices 1 2 3 4 5 6 
#
# 1 48.1476 -14.3336 18.5418 0.0000 0.0000 0.0000
# 2 -14.3336 48.1478 18.5419 0.0000 0.0000 0.0000
# 3 18.5418 18.5419 71.5275 0.0000 0.0000 0.0000
# 4 0.0000 0.0000 0.0000 33.1823 0.0000 0.0000
# 5 0.0000 0.0000 0.0000 0.0000 33.1824 0.0000
# 6 0.0000 0.0000 0.0000 0.0000 0.0000 9.1049
#
#
#
# Elastic Compliance Matrix: (Units=1/GPa)
#
#
# Indices 1 2 3 4 5 6 
#
# 1 0.028663 0.012658 -0.010711 0.000000 0.000000 0.000000
# 2 0.012658 0.028663 -0.010711 0.000000 0.000000 0.000000
# 3 -0.010711 -0.010711 0.019534 0.000000 0.000000 0.000000
# 4 0.000000 0.000000 0.000000 0.030137 0.000000 0.000000
# 5 0.000000 0.000000 0.000000 0.000000 0.030136 0.000000
# 6 0.000000 0.000000 0.000000 0.000000 0.000000 0.109831
#
#
# Mechanical properties :
#
#
# Convention : Reuss Voigt Hill
#
# Bulk Modulus (GPa) = 16.85500 23.70256 20.27878
# Shear Modulus (GPa) = 17.58891 24.76544 21.17718
#
# Velocity S-wave (km/s) = 2.90487 3.44691 3.18743
# Velocity P-wave (km/s) = 4.39741 5.21659 4.82442
#
# Compressibility (1/GPa) = 0.05932957
#
# Stress axis : x y z
#
# Youngs Moduli (GPa) = 34.88849 34.88865 51.19283
#
# Poissons Ratio (x) = -0.44162 0.54835
# Poissons Ratio (y) = -0.44161 0.54835
# Poissons Ratio (z) = 0.37370 0.37371
#
# Static dielectric constant tensor:
#      x y z
#    x 3.797820 0.000000 0.000000 
#    y 0.000000 3.797820 0.000000 
#    z 0.000000 0.000000 3.835640 
# 
# 
# High freq. dielectric constant tensor:
#      x y z
#    x 1.804050 0.000000 0.000000 
#    y 0.000000 1.804050 0.000000 
#    z 0.000000 0.000000 1.820950 
# 
# From -- ./inp_files/4747.got.cif
#   From: 2010.03.12/outbox.cif.g09.slc.cpg/sg128_3_cif.got.tgz:4747.got - 2010.04.06 17:11:05.
