data_PCOD8314559
_publ_section_title
;
Structure prediction by ZEFSAII (Michael W. Deem and Ramdas Pophale) SiO2 
 PCOD8314559
Probable space group: P 4/M N C
;
_chemical_formula_sum "Si O2"
_cell_formula_units_Z 72
_cell_length_a 20.808756
_cell_length_b 20.808756
_cell_length_c 8.054662
_cell_angle_alpha 90.000000
_cell_angle_beta 90.000000
_cell_angle_gamma 90.000000
_cell_volume 3487.703493
_symmetry_space_group_name_H-M "P 4/M N C"
_symmetry_group_IT_number 128
_symmetry_cell_setting 'tetragonal'
loop_
_space_group_symop_operation_xyz
x,y,z
-y,x,z
-x,-y,z
y,-x,z
1/2+x,1/2-y,1/2-z
1/2-x,1/2+y,1/2-z
1/2+y,1/2+x,1/2-z
1/2-y,1/2-x,1/2-z
-x,-y,-z
y,-x,-z
x,y,-z
-y,x,-z
1/2-x,1/2+y,1/2+z
1/2+x,1/2-y,1/2+z
1/2-y,1/2-x,1/2+z
1/2+y,1/2+x,1/2+z
loop_
_atom_site_type_symbol
_atom_site_label
_atom_site_fract_x
_atom_site_fract_y
_atom_site_fract_z
Si Si1 0.410110 0.335207 0.692706
Si Si2 0.164792 0.233047 0.812036
Si Si3 0.433550 0.419459 0.000000
Si Si4 0.240574 0.476497 0.302650
Si Si5 0.497595 0.099961 0.305451
O O1 0.421090 0.358789 0.500000
O O2 0.338357 0.304853 0.707093
O O3 0.465355 0.286804 0.753982
O O4 0.407562 0.392331 0.825463
O O5 0.215080 0.284921 0.750000
O O6 0.093221 0.237926 0.728846
O O7 0.152297 0.251151 0.000000
O O8 0.508776 0.409967 0.000000
O O9 0.240329 0.475807 0.500000
O O10 0.170535 0.493161 0.228131
O O11 0.556258 0.056258 0.250000
O O12 0.498064 0.104891 0.500000
O O13 0.429592 0.070409 0.250000
#
# Coordination Sequence:
#
# PCOD8314559 Si02
#       5
#    16  16   8  16  16
#     4  10  22  42  63  87 124 164 202 255 312 368
#     4  10  21  37  61  88 119 158 202 251 307 366
#     4  11  24  40  62  94 122 153 204 254 304 370
#     4   9  19  37  58  83 114 156 201 244 303 369
#     4  10  19  33  52  77 113 148 194 248 299 365
#
# _framework density 20.643957
#
# number of rings (size 3 to 8) (size 9 to 14) (size 15 to 20)
#    0.000    2.111    0.000    3.333    1.556    3.556 
#    6.000    1.111    0.000    0.000    0.000    0.000 
#    0.000    0.000    0.000    0.000    0.000    0.000 
#
# Total GULP energy -892124.462122 kJ/mol
# GULP energy per Si atom -12390.617529 kJ/mol
# Density = 2.059697 g / cm^3
# Si number density = 20.643957 Si / 1000 Ang^3
#
#
#
# Elastic Constant Matrix: (Units=GPa)
#
#
# Indices 1 2 3 4 5 6 
#
# 1 135.4490 49.9395 23.4579 0.0000 0.0000 0.0000
# 2 49.9395 135.4611 23.4430 0.0000 0.0000 0.0000
# 3 23.4579 23.4430 65.6621 0.0000 0.0000 0.0000
# 4 0.0000 0.0000 0.0000 22.2559 0.0000 0.0000
# 5 0.0000 0.0000 0.0000 0.0000 22.2558 0.0000
# 6 0.0000 0.0000 0.0000 0.0000 0.0000 37.8596
#
#
#
# Elastic Compliance Matrix: (Units=1/GPa)
#
#
# Indices 1 2 3 4 5 6 
#
# 1 0.008812 -0.002882 -0.002119 0.000000 0.000000 0.000000
# 2 -0.002882 0.008811 -0.002116 0.000000 0.000000 0.000000
# 3 -0.002119 -0.002116 0.016742 0.000000 0.000000 0.000000
# 4 0.000000 0.000000 0.000000 0.044932 0.000000 0.000000
# 5 0.000000 0.000000 0.000000 0.000000 0.044932 0.000000
# 6 0.000000 0.000000 0.000000 0.000000 0.000000 0.026413
#
#
# Mechanical properties :
#
#
# Convention : Reuss Voigt Hill
#
# Bulk Modulus (GPa) = 49.67565 58.91699 54.29632
# Shear Modulus (GPa) = 29.13954 32.45636 30.79795
#
# Velocity S-wave (km/s) = 3.76111 3.96940 3.86665
# Velocity P-wave (km/s) = 6.55565 7.04341 6.80390
#
# Compressibility (1/GPa) = 0.02013059
#
# Stress axis : x y z
#
# Youngs Moduli (GPa) = 113.47519 113.49549 59.72960
#
# Poissons Ratio (x) = 0.32710 0.12659
# Poissons Ratio (y) = 0.32704 0.12639
# Poissons Ratio (z) = 0.24049 0.24017
#
# Static dielectric constant tensor:
#      x y z
#    x 4.361720 0.000000 0.000000 
#    y 0.000000 4.361780 0.000000 
#    z 0.000000 0.000000 3.773860 
# 
# 
# High freq. dielectric constant tensor:
#      x y z
#    x 1.811420 0.000000 0.000000 
#    y 0.000000 1.811420 0.000000 
#    z 0.000000 0.000000 1.795770 
# 
# From -- ./inp_files/1169.got.cif
#   From: 2010.03.12/outbox.cif.g09.slc.cpg/sg128_1_cif.got.tgz:1169.got - 2010.04.06 17:11:05.
