data_PCOD8314626
_publ_section_title
;
Structure prediction by ZEFSAII (Michael W. Deem and Ramdas Pophale) SiO2 
 PCOD8314626
Probable space group: P 4/M N C
;
_chemical_formula_sum "Si O2"
_cell_formula_units_Z 96
_cell_length_a 14.503792
_cell_length_b 14.503792
_cell_length_c 22.418992
_cell_angle_alpha 90.000000
_cell_angle_beta 90.000000
_cell_angle_gamma 90.000000
_cell_volume 4716.058762
_symmetry_space_group_name_H-M "P 4/M N C"
_symmetry_group_IT_number 128
_symmetry_cell_setting 'tetragonal'
loop_
_space_group_symop_operation_xyz
x,y,z
-y,x,z
-x,-y,z
y,-x,z
1/2+x,1/2-y,1/2-z
1/2-x,1/2+y,1/2-z
1/2+y,1/2+x,1/2-z
1/2-y,1/2-x,1/2-z
-x,-y,-z
y,-x,-z
x,y,-z
-y,x,-z
1/2-x,1/2+y,1/2+z
1/2+x,1/2-y,1/2+z
1/2-y,1/2-x,1/2+z
1/2+y,1/2+x,1/2+z
loop_
_atom_site_type_symbol
_atom_site_label
_atom_site_fract_x
_atom_site_fract_y
_atom_site_fract_z
Si Si1 0.775325 0.650143 0.434478
Si Si2 0.153649 0.727703 0.860464
Si Si3 0.982616 0.395412 0.928879
Si Si4 0.300071 0.431465 0.066870
Si Si5 0.140017 0.049655 0.778309
Si Si6 0.692672 0.411176 0.147191
O O1 0.738247 0.623038 0.500000
O O2 0.686860 0.682381 0.396994
O O3 0.828234 0.563718 0.405599
O O4 0.848112 0.730860 0.440240
O O5 0.108757 0.649304 0.901832
O O6 0.084500 0.766174 0.810143
O O7 0.243163 0.675630 0.834021
O O8 0.000000 0.500000 0.905682
O O9 0.974854 0.396738 0.000000
O O10 0.253673 0.513236 0.106266
O O11 0.386220 0.394406 0.105146
O O12 0.327554 0.465811 0.000000
O O13 0.155885 0.045457 0.707851
O O14 0.055393 0.116664 0.796634
#
# Coordination Sequence:
#
# PCOD8314626 Si02
#       6
#    16  16  16  16  16  16
#     4   9  19  35  55  85 120 152 194 246 296 360
#     4  11  22  36  60  85 113 155 204 245 299 361
#     4  10  20  36  60  88 123 159 194 247 313 371
#     4  10  20  34  57  88 119 153 190 235 299 366
#     4  11  23  41  61  80 112 153 204 251 296 347
#     4  11  21  37  56  81 118 151 191 245 293 359
#
# _framework density 20.355982000000001
#
# number of rings (size 3 to 8) (size 9 to 14) (size 15 to 20)
#    0.000    1.667    1.667    3.500    0.000    3.667 
#    0.000    0.833    0.000    3.000    0.000    7.000 
#    0.000    0.000    0.000    0.000    0.000    0.000 
#
# Total GULP energy -1189906.769806 kJ/mol
# GULP energy per Si atom -12394.862185 kJ/mol
# Density = 2.030965 g / cm^3
# Si number density = 20.355982 Si / 1000 Ang^3
#
#
#
# Elastic Constant Matrix: (Units=GPa)
#
#
# Indices 1 2 3 4 5 6 
#
# 1 77.5092 23.1299 32.7862 0.0000 0.0000 0.0000
# 2 23.1299 77.5092 32.7862 0.0000 0.0000 0.0000
# 3 32.7862 32.7862 80.9718 0.0000 0.0000 0.0000
# 4 0.0000 0.0000 0.0000 19.6800 0.0000 0.0000
# 5 0.0000 0.0000 0.0000 0.0000 19.6800 0.0000
# 6 0.0000 0.0000 0.0000 0.0000 0.0000 28.5820
#
#
#
# Elastic Compliance Matrix: (Units=1/GPa)
#
#
# Indices 1 2 3 4 5 6 
#
# 1 0.015943 -0.002446 -0.005465 0.000000 0.000000 0.000000
# 2 -0.002446 0.015943 -0.005465 0.000000 0.000000 0.000000
# 3 -0.005465 -0.005465 0.016776 0.000000 0.000000 0.000000
# 4 0.000000 0.000000 0.000000 0.050813 0.000000 0.000000
# 5 0.000000 0.000000 0.000000 0.000000 0.050813 0.000000
# 6 0.000000 0.000000 0.000000 0.000000 0.000000 0.034987
#
#
# Mechanical properties :
#
#
# Convention : Reuss Voigt Hill
#
# Bulk Modulus (GPa) = 45.64176 45.93274 45.78725
# Shear Modulus (GPa) = 22.79650 23.40758 23.10204
#
# Velocity S-wave (km/s) = 3.35011 3.39471 3.37248
# Velocity P-wave (km/s) = 6.11840 6.16272 6.14060
#
# Compressibility (1/GPa) = 0.02190976
#
# Stress axis : x y z
#
# Youngs Moduli (GPa) = 62.72193 62.72193 59.60963
#
# Poissons Ratio (x) = 0.15342 0.32578
# Poissons Ratio (y) = 0.15342 0.32578
# Poissons Ratio (z) = 0.34279 0.34279
#
# Static dielectric constant tensor:
#      x y z
#    x 3.710020 0.000000 0.000000 
#    y 0.000000 3.710020 0.000000 
#    z 0.000000 0.000000 3.689740 
# 
# 
# High freq. dielectric constant tensor:
#      x y z
#    x 1.793430 0.000000 0.000000 
#    y 0.000000 1.793430 0.000000 
#    z 0.000000 0.000000 1.783040 
# 
# From -- ./inp_files/5745.got.cif
#   From: 2010.03.12/outbox.cif.g09.slc.cpg/sg128_3_cif.got.tgz:5745.got - 2010.04.06 17:11:05.
