data_PCOD8314878
_publ_section_title
;
Structure prediction by ZEFSAII (Michael W. Deem and Ramdas Pophale) SiO2 
 PCOD8314878
Probable space group: P 4/N M M
;
_chemical_formula_sum "Si O2"
_cell_formula_units_Z 104
_cell_length_a 27.149903
_cell_length_b 27.149903
_cell_length_c 8.924069
_cell_angle_alpha 90.000000
_cell_angle_beta 90.000000
_cell_angle_gamma 90.000000
_cell_volume 6578.085048
_symmetry_space_group_name_H-M "P 4/N M M"
_symmetry_group_IT_number 129
_symmetry_cell_setting 'tetragonal'
loop_
_space_group_symop_operation_xyz
x,y,z
1/2-y,x,z
1/2-x,1/2-y,z
y,1/2-x,z
1/2+x,-y,-z
-x,1/2+y,-z
1/2+y,1/2+x,-z
-y,-x,-z
-x,-y,-z
1/2+y,-x,-z
1/2+x,1/2+y,-z
-y,1/2+x,-z
1/2-x,y,z
x,1/2-y,z
1/2-y,1/2-x,z
y,x,z
loop_
_atom_site_type_symbol
_atom_site_label
_atom_site_fract_x
_atom_site_fract_y
_atom_site_fract_z
Si Si1 0.021986 0.398935 0.202681
Si Si2 0.842843 0.444464 0.203518
Si Si3 0.195641 0.990195 0.069451
Si Si4 0.162140 0.807008 0.164945
Si Si5 0.096880 0.804137 0.707563
Si Si6 0.880974 0.041988 0.519567
Si Si7 0.935819 0.435819 0.000000
O O1 0.074634 0.425367 0.207893
O O2 0.028531 0.344453 0.132591
O O3 0.004681 0.389984 0.373860
O O4 0.985848 0.431550 0.097194
O O5 0.811056 0.394723 0.215709
O O6 0.855983 0.471210 0.360535
O O7 0.893253 0.430387 0.121391
O O8 0.811674 0.484076 0.108555
O O9 0.250000 0.011039 0.103961
O O10 0.187188 0.935745 0.141791
O O11 0.178874 0.750000 0.184543
O O12 0.193452 0.844442 0.267152
O O13 0.173549 0.826452 0.000000
O O14 0.084611 0.750000 0.642609
O O15 0.082869 0.845740 0.591039
O O16 0.934532 0.065469 0.500000
#
# Coordination Sequence:
#
# PCOD8314878 Si02
#       7
#    16  16  16  16  16  16   8
#     4  10  20  33  51  76 101 126 156 194 243 296
#     4  11  18  32  49  67  86 120 162 200 238 292
#     4   9  18  34  55  72  91 121 160 198 233 280
#     4  12  21  30  45  63  83 109 155 215 270 306
#     4  10  20  34  47  60  82 115 156 204 255 301
#     4  11  20  34  47  64  93 125 154 196 246 305
#     4  10  17  32  52  68  93 120 154 200 240 287
#
# _framework density 15.810071000000001
#
# number of rings (size 3 to 8) (size 9 to 14) (size 15 to 20)
#    0.000    1.538    5.385    2.077    0.000    2.615 
#    0.000    0.769    0.000    0.000    0.000    0.000 
#    0.000    0.308    0.000    0.000    0.000    0.923 
#
# Total GULP energy -1288885.274484 kJ/mol
# GULP energy per Si atom -12393.127639 kJ/mol
# Density = 1.577409 g / cm^3
# Si number density = 15.810071 Si / 1000 Ang^3
#
#
#
# Elastic Constant Matrix: (Units=GPa)
#
#
# Indices 1 2 3 4 5 6 
#
# 1 71.0902 46.3918 25.9691 0.0000 0.0000 0.0000
# 2 46.3918 71.0915 25.9693 0.0000 0.0000 0.0000
# 3 25.9691 25.9693 90.9150 0.0000 0.0000 0.0000
# 4 0.0000 0.0000 0.0000 10.4730 0.0000 0.0000
# 5 0.0000 0.0000 0.0000 0.0000 10.4731 0.0000
# 6 0.0000 0.0000 0.0000 0.0000 0.0000 19.8094
#
#
#
# Elastic Compliance Matrix: (Units=1/GPa)
#
#
# Indices 1 2 3 4 5 6 
#
# 1 0.025115 -0.015373 -0.002783 0.000000 0.000000 0.000000
# 2 -0.015373 0.025115 -0.002783 0.000000 0.000000 0.000000
# 3 -0.002783 -0.002783 0.012589 0.000000 0.000000 0.000000
# 4 0.000000 0.000000 0.000000 0.095484 0.000000 0.000000
# 5 0.000000 0.000000 0.000000 0.000000 0.095483 0.000000
# 6 0.000000 0.000000 0.000000 0.000000 0.000000 0.050481
#
#
# Mechanical properties :
#
#
# Convention : Reuss Voigt Hill
#
# Bulk Modulus (GPa) = 47.75038 47.75079 47.75059
# Shear Modulus (GPa) = 14.15935 17.13552 15.64743
#
# Velocity S-wave (km/s) = 2.99589 3.29574 3.14938
# Velocity P-wave (km/s) = 6.49886 6.68961 6.59492
#
# Compressibility (1/GPa) = 0.02094224
#
# Stress axis : x y z
#
# Youngs Moduli (GPa) = 39.81684 39.81757 79.43417
#
# Poissons Ratio (x) = 0.61210 0.22105
# Poissons Ratio (y) = 0.61209 0.22105
# Poissons Ratio (z) = 0.11080 0.11080
#
# Static dielectric constant tensor:
#      x y z
#    x 2.776080 0.000000 0.000000 
#    y 0.000000 2.776080 0.000000 
#    z 0.000000 0.000000 3.251300 
# 
# 
# High freq. dielectric constant tensor:
#      x y z
#    x 1.570100 0.000000 0.000000 
#    y 0.000000 1.570100 0.000000 
#    z 0.000000 0.000000 1.614680 
# 
# From -- ./inp_files/2853.got.cif
#   From: 2010.03.12/outbox.cif.g09.slc.cpg/sg129_2_cif.got.tgz:2853.got - 2010.04.06 17:19:44.
