data_PCOD8314370
_publ_section_title
;
Structure prediction by ZEFSAII (Michael W. Deem and Ramdas Pophale) SiO2 
 PCOD8314370
Probable space group: P 4/M B M
;
_chemical_formula_sum "Si O2"
_cell_formula_units_Z 56
_cell_length_a 21.329203
_cell_length_b 21.329203
_cell_length_c 7.612732
_cell_angle_alpha 90.000000
_cell_angle_beta 90.000000
_cell_angle_gamma 90.000000
_cell_volume 3463.297476
_symmetry_space_group_name_H-M "P 4/M B M"
_symmetry_group_IT_number 127
_symmetry_cell_setting 'tetragonal'
loop_
_space_group_symop_operation_xyz
x,y,z
-y,x,z
-x,-y,z
y,-x,z
1/2+x,1/2-y,-z
1/2-x,1/2+y,-z
1/2+y,1/2+x,-z
1/2-y,1/2-x,-z
-x,-y,-z
y,-x,-z
x,y,-z
-y,x,-z
1/2-x,1/2+y,z
1/2+x,1/2-y,z
1/2-y,1/2-x,z
1/2+y,1/2+x,z
loop_
_atom_site_type_symbol
_atom_site_label
_atom_site_fract_x
_atom_site_fract_y
_atom_site_fract_z
Si Si1 0.799040 0.805542 0.500000
Si Si2 0.683230 0.004733 0.803220
Si Si3 0.739338 0.136415 0.798792
Si Si4 0.947733 0.552268 0.301729
Si Si5 0.406199 0.199883 0.500000
O O1 0.743200 0.756801 0.500000
O O2 0.840769 0.795966 0.674656
O O3 0.768310 0.874195 0.500000
O O4 0.695878 0.947870 0.673275
O O5 0.725861 0.064289 0.752225
O O6 0.611352 0.025436 0.800678
O O7 0.699162 0.981774 0.000000
O O8 0.676229 0.176229 0.761646
O O9 0.760943 0.144682 0.000000
O O10 0.928598 0.571403 0.500000
O O11 0.000000 0.500000 0.305475
O O12 0.356966 0.143035 0.500000
#
# Coordination Sequence:
#
# PCOD8314370 Si02
#       5
#     8  16  16   8   8
#     4   9  19  32  49  66  89 126 161 201 246 285
#     4  11  21  33  50  70  96 129 167 207 242 279
#     4   9  17  31  51  72  88 113 162 213 247 276
#     4  11  21  31  45  68  99 135 172 203 233 274
#     4  11  23  35  44  67 102 138 169 189 234 298
#
# _framework density 16.169561000000002
#
# number of rings (size 3 to 8) (size 9 to 14) (size 15 to 20)
#    0.000    1.857    2.857    2.143    0.000    4.000 
#    0.000    2.857    0.000    0.000    0.000    0.000 
#    0.000    9.143    0.000   25.143    0.000    0.000 
#
# Total GULP energy -694436.125735 kJ/mol
# GULP energy per Si atom -12400.645102 kJ/mol
# Density = 1.613276 g / cm^3
# Si number density = 16.169561 Si / 1000 Ang^3
#
#
#
# Elastic Constant Matrix: (Units=GPa)
#
#
# Indices 1 2 3 4 5 6 
#
# 1 59.0524 77.6118 58.9819 0.0000 0.0000 0.0000
# 2 77.6118 59.0532 58.9844 0.0000 0.0000 0.0000
# 3 58.9819 58.9844 121.4690 0.0000 0.0000 0.0000
# 4 0.0000 0.0000 0.0000 11.9778 0.0000 0.0000
# 5 0.0000 0.0000 0.0000 0.0000 11.9812 0.0000
# 6 0.0000 0.0000 0.0000 0.0000 0.0000 31.2209
#
#
#
# Elastic Compliance Matrix: (Units=1/GPa)
#
#
# Indices 1 2 3 4 5 6 
#
# 1 -0.020642 0.033240 -0.006118 0.000000 0.000000 0.000000
# 2 0.033240 -0.020643 -0.006116 0.000000 0.000000 0.000000
# 3 -0.006118 -0.006116 0.014173 0.000000 0.000000 0.000000
# 4 0.000000 0.000000 0.000000 0.083488 0.000000 0.000000
# 5 0.000000 0.000000 0.000000 0.000000 0.083464 0.000000
# 6 0.000000 0.000000 0.000000 0.000000 0.000000 0.032030
#
#
# Mechanical properties :
#
#
# Convention : Reuss Voigt Hill
#
# Bulk Modulus (GPa) = 67.11551 70.08119 68.59835
# Shear Modulus (GPa) = 37.08505 13.96908 25.52706
#
# Velocity S-wave (km/s) = 4.79426 2.94243 3.97761
# Velocity P-wave (km/s) = 8.49964 7.41481 7.97569
#
# Compressibility (1/GPa) = 0.01489969
#
# Stress axis : x y z
#
# Youngs Moduli (GPa) = -48.44495 -48.44254 70.55583
#
# Poissons Ratio (x) = 1.61022 0.43165
# Poissons Ratio (y) = 1.61030 0.43154
# Poissons Ratio (z) = -0.29638 -0.29629
#
# Static dielectric constant tensor:
#      x y z
#    x 2.949620 0.000000 0.000000 
#    y 0.000000 2.949610 0.000000 
#    z 0.000000 0.000000 3.326050 
# 
# 
# High freq. dielectric constant tensor:
#      x y z
#    x 1.594060 0.000000 0.000000 
#    y 0.000000 1.594060 0.000000 
#    z 0.000000 0.000000 1.643550 
# 
# From -- ./inp_files/1322.got.cif
#   From: 2010.03.12/outbox.cif.g09.slc.cpg/sg127_1_cif.got.tgz:1322.got - 2010.04.06 17:03:15.
