data_PCOD8314067
_publ_section_title
;
Structure prediction by ZEFSAII (Michael W. Deem and Ramdas Pophale) SiO2 
 PCOD8314067
Probable space group: P 4/M B M
;
_chemical_formula_sum "Si O2"
_cell_formula_units_Z 96
_cell_length_a 23.854692
_cell_length_b 23.854692
_cell_length_c 9.511950
_cell_angle_alpha 90.000000
_cell_angle_beta 90.000000
_cell_angle_gamma 90.000000
_cell_volume 5412.740243
_symmetry_space_group_name_H-M "P 4/M B M"
_symmetry_group_IT_number 127
_symmetry_cell_setting 'tetragonal'
loop_
_space_group_symop_operation_xyz
x,y,z
-y,x,z
-x,-y,z
y,-x,z
1/2+x,1/2-y,-z
1/2-x,1/2+y,-z
1/2+y,1/2+x,-z
1/2-y,1/2-x,-z
-x,-y,-z
y,-x,-z
x,y,-z
-y,x,-z
1/2-x,1/2+y,z
1/2+x,1/2-y,z
1/2-y,1/2-x,z
1/2+y,1/2+x,z
loop_
_atom_site_type_symbol
_atom_site_label
_atom_site_fract_x
_atom_site_fract_y
_atom_site_fract_z
Si Si1 0.719623 0.690286 0.162579
Si Si2 0.984274 0.286999 0.665732
Si Si3 0.794766 0.063123 0.834728
Si Si4 0.000032 0.411737 0.666794
Si Si5 0.143716 0.734336 0.338318
Si Si6 0.417744 0.467852 0.166769
O O1 0.777000 0.723001 0.202151
O O2 0.727082 0.625311 0.200493
O O3 0.667248 0.714385 0.247973
O O4 0.704494 0.697941 0.000000
O O5 0.996051 0.281468 0.500000
O O6 0.999858 0.348637 0.724519
O O7 0.920032 0.275874 0.703216
O O8 0.020656 0.242807 0.749018
O O9 0.858471 0.055750 0.779080
O O10 0.790136 0.049780 0.000000
O O11 0.995207 0.410250 0.500000
O O12 0.946785 0.446785 0.725928
O O13 0.057560 0.442441 0.713640
O O14 0.150165 0.751444 0.500000
O O15 0.177450 0.677450 0.304815
O O16 0.468390 0.428012 0.221537
O O17 0.418305 0.467615 0.000000
#
# Coordination Sequence:
#
# PCOD8314067 Si02
#       6
#    16  16  16  16  16  16
#     4   9  19  35  52  72 100 133 169 209 251 295
#     4  10  20  32  48  75 106 131 160 205 253 296
#     4  10  21  33  50  74  99 133 168 202 245 299
#     4   8  14  27  49  74  98 128 168 209 244 282
#     4   9  18  33  53  75  99 131 168 207 253 299
#     4   8  15  29  49  71  91 115 157 210 250 281
#
# _framework density 17.735934
#
# number of rings (size 3 to 8) (size 9 to 14) (size 15 to 20)
#    0.000    3.000    0.000    1.500    2.333    4.000 
#    0.000    0.000    0.000    1.500    0.000    2.333 
#    0.000    0.000    0.000    0.000    0.000    0.000 
#
# Total GULP energy -1190136.899367 kJ/mol
# GULP energy per Si atom -12397.259368 kJ/mol
# Density = 1.769557 g / cm^3
# Si number density = 17.735934 Si / 1000 Ang^3
#
#
#
# Elastic Constant Matrix: (Units=GPa)
#
#
# Indices 1 2 3 4 5 6 
#
# 1 113.0814 77.0747 38.3169 0.0000 0.0000 0.0000
# 2 77.0747 113.0814 38.3169 0.0000 0.0000 0.0000
# 3 38.3169 38.3169 34.0664 0.0000 0.0000 0.0000
# 4 0.0000 0.0000 0.0000 23.4490 0.0000 0.0000
# 5 0.0000 0.0000 0.0000 0.0000 23.4490 0.0000
# 6 0.0000 0.0000 0.0000 0.0000 0.0000 23.8424
#
#
#
# Elastic Compliance Matrix: (Units=1/GPa)
#
#
# Indices 1 2 3 4 5 6 
#
# 1 0.018696 -0.009077 -0.010819 0.000000 0.000000 0.000000
# 2 -0.009077 0.018696 -0.010819 0.000000 0.000000 0.000000
# 3 -0.010819 -0.010819 0.053693 0.000000 0.000000 0.000000
# 4 0.000000 0.000000 0.000000 0.042646 0.000000 0.000000
# 5 0.000000 0.000000 0.000000 0.000000 0.042646 0.000000
# 6 0.000000 0.000000 0.000000 0.000000 0.000000 0.041942
#
#
# Mechanical properties :
#
#
# Convention : Reuss Voigt Hill
#
# Bulk Modulus (GPa) = 33.72239 63.07182 48.39711
# Shear Modulus (GPa) = 17.26324 21.24948 19.25636
#
# Velocity S-wave (km/s) = 3.12324 3.46512 3.29861
# Velocity P-wave (km/s) = 5.66225 7.18667 6.46951
#
# Compressibility (1/GPa) = 0.02965389
#
# Stress axis : x y z
#
# Youngs Moduli (GPa) = 53.48792 53.48792 18.62453
#
# Poissons Ratio (x) = 0.48550 0.20150
# Poissons Ratio (y) = 0.48550 0.20150
# Poissons Ratio (z) = 0.57870 0.57870
#
# Static dielectric constant tensor:
#      x y z
#    x 3.490700 0.000000 0.000000 
#    y 0.000000 3.490700 0.000000 
#    z 0.000000 0.000000 2.928650 
# 
# 
# High freq. dielectric constant tensor:
#      x y z
#    x 1.693330 0.000000 0.000000 
#    y 0.000000 1.693330 0.000000 
#    z 0.000000 0.000000 1.643610 
# 
# From -- ./inp_files/1948.got.cif
#   From: 2010.03.12/outbox.cif.g09.slc.cpg/sg127_1_cif.got.tgz:1948.got - 2010.04.06 17:03:15.
