data_PCOD8314815
_publ_section_title
;
Structure prediction by ZEFSAII (Michael W. Deem and Ramdas Pophale) SiO2 
 PCOD8314815
Probable space group: P 4/M N C
;
_chemical_formula_sum "Si O2"
_cell_formula_units_Z 112
_cell_length_a 14.797856
_cell_length_b 14.797856
_cell_length_c 28.707670
_cell_angle_alpha 90.000000
_cell_angle_beta 90.000000
_cell_angle_gamma 90.000000
_cell_volume 6286.306311
_symmetry_space_group_name_H-M "P 4/M N C"
_symmetry_group_IT_number 128
_symmetry_cell_setting 'tetragonal'
loop_
_space_group_symop_operation_xyz
x,y,z
-y,x,z
-x,-y,z
y,-x,z
1/2+x,1/2-y,1/2-z
1/2-x,1/2+y,1/2-z
1/2+y,1/2+x,1/2-z
1/2-y,1/2-x,1/2-z
-x,-y,-z
y,-x,-z
x,y,-z
-y,x,-z
1/2-x,1/2+y,1/2+z
1/2+x,1/2-y,1/2+z
1/2-y,1/2-x,1/2+z
1/2+y,1/2+x,1/2+z
loop_
_atom_site_type_symbol
_atom_site_label
_atom_site_fract_x
_atom_site_fract_y
_atom_site_fract_z
Si Si1 0.078033 0.129002 0.685529
Si Si2 0.889847 0.707282 0.054470
Si Si3 0.947935 0.414527 0.945581
Si Si4 0.720801 0.614902 0.093188
Si Si5 0.872909 0.076914 0.786160
Si Si6 0.578225 0.372345 0.386830
Si Si7 0.424640 0.253325 0.945580
O O1 0.121151 0.196575 0.647833
O O2 0.104234 0.172339 0.736564
O O3 0.969986 0.121824 0.679710
O O4 0.824266 0.640553 0.082942
O O5 0.880400 0.809017 0.073242
O O6 0.992549 0.674859 0.063671
O O7 0.864319 0.704942 0.000000
O O8 0.847050 0.404347 0.924501
O O9 0.000000 0.500000 0.922894
O O10 0.937200 0.432956 0.000000
O O11 0.660027 0.683294 0.063850
O O12 0.702414 0.512639 0.077520
O O13 0.828021 0.104167 0.835871
O O14 0.970231 0.121037 0.786243
O O15 0.621869 0.470404 0.392640
O O16 0.442691 0.247280 0.000000
#
# Coordination Sequence:
#
# PCOD8314815 Si02
#       7
#    16  16  16  16  16  16  16
#     4   9  16  30  51  78 107 138 172 213 264 320
#     4  11  23  36  52  76 106 141 185 226 257 317
#     4   9  18  36  55  67  91 139 188 217 247 299
#     4  12  22  34  50  79 111 142 184 223 268 313
#     4   7  12  27  53  76 100 132 166 209 267 332
#     4   9  19  36  56  80 105 130 166 223 291 336
#     4  11  22  35  51  73 108 148 182 221 265 313
#
# _framework density 17.816504999999999
#
# number of rings (size 3 to 8) (size 9 to 14) (size 15 to 20)
#    0.000    2.286    2.857    3.000    2.000    0.857 
#    0.000    2.143    0.000    0.000    0.000    1.000 
#    0.000    0.000    0.000    0.000    0.000    0.000 
#
# Total GULP energy -1387704.402832 kJ/mol
# GULP energy per Si atom -12390.217882 kJ/mol
# Density = 1.777595 g / cm^3
# Si number density = 17.816505 Si / 1000 Ang^3
#
#
#
# Elastic Constant Matrix: (Units=GPa)
#
#
# Indices 1 2 3 4 5 6 
#
# 1 58.3352 19.7773 22.0156 0.0000 0.0000 0.0000
# 2 19.7773 58.3352 22.0156 0.0000 0.0000 0.0000
# 3 22.0156 22.0156 80.3316 0.0000 0.0000 0.0000
# 4 0.0000 0.0000 0.0000 19.6923 0.0000 0.0000
# 5 0.0000 0.0000 0.0000 0.0000 19.6923 0.0000
# 6 0.0000 0.0000 0.0000 0.0000 0.0000 19.8653
#
#
#
# Elastic Compliance Matrix: (Units=1/GPa)
#
#
# Indices 1 2 3 4 5 6 
#
# 1 0.020538 -0.005397 -0.004150 0.000000 0.000000 0.000000
# 2 -0.005397 0.020538 -0.004150 0.000000 0.000000 0.000000
# 3 -0.004150 -0.004150 0.014723 0.000000 0.000000 0.000000
# 4 0.000000 0.000000 0.000000 0.050781 0.000000 0.000000
# 5 0.000000 0.000000 0.000000 0.000000 0.050781 0.000000
# 6 0.000000 0.000000 0.000000 0.000000 0.000000 0.050339
#
#
# Mechanical properties :
#
#
# Convention : Reuss Voigt Hill
#
# Bulk Modulus (GPa) = 35.20279 36.06879 35.63579
# Shear Modulus (GPa) = 20.44471 20.72952 20.58712
#
# Velocity S-wave (km/s) = 3.39117 3.41471 3.40296
# Velocity P-wave (km/s) = 5.92747 5.98628 5.95695
#
# Compressibility (1/GPa) = 0.02840684
#
# Stress axis : x y z
#
# Youngs Moduli (GPa) = 48.69005 48.69005 67.92164
#
# Poissons Ratio (x) = 0.26278 0.28185
# Poissons Ratio (y) = 0.26278 0.28185
# Poissons Ratio (z) = 0.20204 0.20204
#
# Static dielectric constant tensor:
#      x y z
#    x 3.133370 0.000000 0.000000 
#    y 0.000000 3.133370 0.000000 
#    z 0.000000 0.000000 3.500890 
# 
# 
# High freq. dielectric constant tensor:
#      x y z
#    x 1.671070 0.000000 0.000000 
#    y 0.000000 1.671070 0.000000 
#    z 0.000000 0.000000 1.683000 
# 
# From -- ./inp_files/6906.got.cif
#   From: 2010.03.12/outbox.cif.g09.slc.cpg/sg128_4_cif.got.tgz:6906.got - 2010.04.06 17:11:05.
