data_PCOD8314284
_publ_section_title
;
Structure prediction by ZEFSAII (Michael W. Deem and Ramdas Pophale) SiO2 
 PCOD8314284
Probable space group: P 4/M B M
;
_chemical_formula_sum "Si O2"
_cell_formula_units_Z 52
_cell_length_a 18.928082
_cell_length_b 18.928082
_cell_length_c 7.344806
_cell_angle_alpha 90.000000
_cell_angle_beta 90.000000
_cell_angle_gamma 90.000000
_cell_volume 2631.440452
_symmetry_space_group_name_H-M "P 4/M B M"
_symmetry_group_IT_number 127
_symmetry_cell_setting 'tetragonal'
loop_
_space_group_symop_operation_xyz
x,y,z
-y,x,z
-x,-y,z
y,-x,z
1/2+x,1/2-y,-z
1/2-x,1/2+y,-z
1/2+y,1/2+x,-z
1/2-y,1/2-x,-z
-x,-y,-z
y,-x,-z
x,y,-z
-y,x,-z
1/2-x,1/2+y,z
1/2+x,1/2-y,z
1/2-y,1/2-x,z
1/2+y,1/2+x,z
loop_
_atom_site_type_symbol
_atom_site_label
_atom_site_fract_x
_atom_site_fract_y
_atom_site_fract_z
Si Si1 0.302936 0.197065 0.289092
Si Si2 0.824717 0.565021 0.000000
Si Si3 0.609775 0.484779 0.283995
Si Si4 0.282724 0.782724 0.000000
Si Si5 0.536956 0.766927 0.713803
O O1 0.287503 0.212498 0.500000
O O2 0.288661 0.116275 0.237836
O O3 0.251365 0.248636 0.179421
O O4 0.816275 0.517970 0.180781
O O5 0.904811 0.595190 0.000000
O O6 0.770108 0.632007 0.000000
O O7 0.578691 0.559459 0.213965
O O8 0.611324 0.483051 0.500000
O O9 0.688007 0.473876 0.208230
O O10 0.521082 0.773859 0.500000
#
# Coordination Sequence:
#
# PCOD8314284 Si02
#       5
#     8   8  16   4  16
#     4  10  22  40  66  94 122 170 213 259 325 374
#     4  10  25  40  58  90 118 161 206 253 314 360
#     4   8  15  28  50  81 114 151 190 236 301 368
#     4  10  24  40  60  91 129 158 206 268 306 384
#     4  10  21  39  62  86 122 162 207 259 312 377
#
# _framework density 19.761040000000001
#
# number of rings (size 3 to 8) (size 9 to 14) (size 15 to 20)
#    0.462    2.154    0.000    1.846    4.308    1.846 
#    0.000    1.538    0.000    4.615    0.000    0.000 
#    0.000    0.000    0.000    0.000    0.000    0.000 
#
# Total GULP energy -644603.306373 kJ/mol
# GULP energy per Si atom -12396.217430 kJ/mol
# Density = 1.971606 g / cm^3
# Si number density = 19.761040 Si / 1000 Ang^3
#
#
#
# Elastic Constant Matrix: (Units=GPa)
#
#
# Indices 1 2 3 4 5 6 
#
# 1 78.2743 4.5166 26.9128 0.0000 0.0000 0.0000
# 2 4.5166 78.2747 26.9129 0.0000 0.0000 0.0000
# 3 26.9128 26.9129 83.1447 0.0000 0.0000 0.0000
# 4 0.0000 0.0000 0.0000 20.0983 0.0000 0.0000
# 5 0.0000 0.0000 0.0000 0.0000 20.0980 0.0000
# 6 0.0000 0.0000 0.0000 0.0000 0.0000 34.0306
#
#
#
# Elastic Compliance Matrix: (Units=1/GPa)
#
#
# Indices 1 2 3 4 5 6 
#
# 1 0.014428 0.000870 -0.004952 0.000000 0.000000 0.000000
# 2 0.000870 0.014428 -0.004952 0.000000 0.000000 0.000000
# 3 -0.004952 -0.004952 0.015233 0.000000 0.000000 0.000000
# 4 0.000000 0.000000 0.000000 0.049755 0.000000 0.000000
# 5 0.000000 0.000000 0.000000 0.000000 0.049756 0.000000
# 6 0.000000 0.000000 0.000000 0.000000 0.000000 0.029385
#
#
# Mechanical properties :
#
#
# Convention : Reuss Voigt Hill
#
# Bulk Modulus (GPa) = 38.42940 39.59757 39.01349
# Shear Modulus (GPa) = 25.03426 26.93548 25.98487
#
# Velocity S-wave (km/s) = 3.56314 3.69597 3.63016
# Velocity P-wave (km/s) = 6.03467 6.18832 6.11198
#
# Compressibility (1/GPa) = 0.02602174
#
# Stress axis : x y z
#
# Youngs Moduli (GPa) = 69.31006 69.31040 65.64768
#
# Poissons Ratio (x) = -0.06030 0.32507
# Poissons Ratio (y) = -0.06030 0.32507
# Poissons Ratio (z) = 0.34320 0.34321
#
# Static dielectric constant tensor:
#      x y z
#    x 3.672910 0.000000 0.000000 
#    y 0.000000 3.672900 0.000000 
#    z 0.000000 0.000000 3.367930 
# 
# 
# High freq. dielectric constant tensor:
#      x y z
#    x 1.765780 0.000000 0.000000 
#    y 0.000000 1.765780 0.000000 
#    z 0.000000 0.000000 1.769470 
# 
# From -- ./inp_files/1010.got.cif
#   From: 2010.03.12/outbox.cif.g09.slc.cpg/sg127_1_cif.got.tgz:1010.got - 2010.04.06 17:03:15.
