data_PCOD8314794
_publ_section_title
;
Structure prediction by ZEFSAII (Michael W. Deem and Ramdas Pophale) SiO2 
 PCOD8314794
Probable space group: P 4/M N C
;
_chemical_formula_sum "Si O2"
_cell_formula_units_Z 96
_cell_length_a 23.271415
_cell_length_b 23.271415
_cell_length_c 10.247384
_cell_angle_alpha 90.000000
_cell_angle_beta 90.000000
_cell_angle_gamma 90.000000
_cell_volume 5549.560532
_symmetry_space_group_name_H-M "P 4/M N C"
_symmetry_group_IT_number 128
_symmetry_cell_setting 'tetragonal'
loop_
_space_group_symop_operation_xyz
x,y,z
-y,x,z
-x,-y,z
y,-x,z
1/2+x,1/2-y,1/2-z
1/2-x,1/2+y,1/2-z
1/2+y,1/2+x,1/2-z
1/2-y,1/2-x,1/2-z
-x,-y,-z
y,-x,-z
x,y,-z
-y,x,-z
1/2-x,1/2+y,1/2+z
1/2+x,1/2-y,1/2+z
1/2-y,1/2-x,1/2+z
1/2+y,1/2+x,1/2+z
loop_
_atom_site_type_symbol
_atom_site_label
_atom_site_fract_x
_atom_site_fract_y
_atom_site_fract_z
Si Si1 0.930198 0.065010 0.500000
Si Si2 0.430052 0.142030 0.647887
Si Si3 0.563364 0.726291 0.651094
Si Si4 0.928175 0.060466 0.000000
Si Si5 0.375789 0.380489 0.747248
Si Si6 0.863262 0.564695 0.648829
Si Si7 0.431572 0.732092 0.347521
O O1 0.899873 0.092814 0.622527
O O2 0.997148 0.080120 0.500000
O O3 0.395288 0.104713 0.750000
O O4 0.411483 0.126201 0.500000
O O5 0.416726 0.208669 0.675267
O O6 0.496942 0.129233 0.666425
O O7 0.570537 0.709135 0.500000
O O8 0.604817 0.685818 0.736950
O O9 0.497215 0.718364 0.693677
O O10 0.899257 0.082612 0.129168
O O11 0.993053 0.080484 0.000000
O O12 0.306493 0.387899 0.739114
O O13 0.905123 0.594878 0.750000
O O14 0.878831 0.582251 0.500000
O O15 0.798232 0.583194 0.681352
O O16 0.423222 0.718534 0.500000
#
# Coordination Sequence:
#
# PCOD8314794 Si02
#       7
#     8  16  16   8  16  16  16
#     4  11  24  36  44  66 109 146 172 222 289 326
#     4   9  19  36  57  82 112 140 169 212 264 316
#     4   9  17  32  54  78 103 136 180 225 263 303
#     4  11  20  28  48  78  97 124 180 234 263 296
#     4  12  20  33  53  72 103 142 181 219 263 314
#     4   9  19  36  57  82 112 140 169 212 264 316
#     4   9  17  32  54  78 103 136 180 225 263 303
#
# _framework density 17.298666000000001
#
# number of rings (size 3 to 8) (size 9 to 14) (size 15 to 20)
#    0.000    2.167    1.667    5.000    0.000    2.333 
#    3.000    2.500    0.000    0.000    0.000    0.000 
#    0.000    0.000    0.000    0.000    0.000    0.000 
#
# Total GULP energy -1190302.130730 kJ/mol
# GULP energy per Si atom -12398.980528 kJ/mol
# Density = 1.725929 g / cm^3
# Si number density = 17.298666 Si / 1000 Ang^3
#
#
#
# Elastic Constant Matrix: (Units=GPa)
#
#
# Indices 1 2 3 4 5 6 
#
# 1 72.7789 43.3431 49.1337 0.0000 0.0000 0.0000
# 2 43.3431 72.7879 49.1348 0.0000 0.0000 0.0000
# 3 49.1337 49.1348 110.9641 0.0000 0.0000 0.0000
# 4 0.0000 0.0000 0.0000 33.3542 0.0000 0.0000
# 5 0.0000 0.0000 0.0000 0.0000 33.3539 0.0000
# 6 0.0000 0.0000 0.0000 0.0000 0.0000 30.8234
#
#
#
# Elastic Compliance Matrix: (Units=1/GPa)
#
#
# Indices 1 2 3 4 5 6 
#
# 1 0.023871 -0.010098 -0.006099 0.000000 0.000000 0.000000
# 2 -0.010098 0.023867 -0.006097 0.000000 0.000000 0.000000
# 3 -0.006099 -0.006097 0.014412 0.000000 0.000000 0.000000
# 4 0.000000 0.000000 0.000000 0.029981 0.000000 0.000000
# 5 0.000000 0.000000 0.000000 0.000000 0.029982 0.000000
# 6 0.000000 0.000000 0.000000 0.000000 0.000000 0.032443
#
#
# Mechanical properties :
#
#
# Convention : Reuss Voigt Hill
#
# Bulk Modulus (GPa) = 56.93648 59.97266 58.45457
# Shear Modulus (GPa) = 24.39046 27.16758 25.77902
#
# Velocity S-wave (km/s) = 3.75902 3.96725 3.86454
# Velocity P-wave (km/s) = 7.19900 7.46523 7.33332
#
# Compressibility (1/GPa) = 0.01756343
#
# Stress axis : x y z
#
# Youngs Moduli (GPa) = 41.89155 41.89819 69.38569
#
# Poissons Ratio (x) = 0.42308 0.42316
# Poissons Ratio (y) = 0.42301 0.42306
# Poissons Ratio (z) = 0.25548 0.25546
#
# Static dielectric constant tensor:
#      x y z
#    x 3.239620 0.000000 0.000000 
#    y 0.000000 3.239620 0.000000 
#    z 0.000000 0.000000 3.037630 
# 
# 
# High freq. dielectric constant tensor:
#      x y z
#    x 1.663840 0.000000 0.000000 
#    y 0.000000 1.663840 0.000000 
#    z 0.000000 0.000000 1.657240 
# 
# From -- ./inp_files/1541.got.cif
#   From: 2010.03.12/outbox.cif.g09.slc.cpg/sg128_1_cif.got.tgz:1541.got - 2010.04.06 17:11:05.
