data_PCOD8314167
_publ_section_title
;
Structure prediction by ZEFSAII (Michael W. Deem and Ramdas Pophale) SiO2 
 PCOD8314167
Probable space group: P 4/M B M
;
_chemical_formula_sum "Si O2"
_cell_formula_units_Z 72
_cell_length_a 15.629721
_cell_length_b 15.629721
_cell_length_c 14.559160
_cell_angle_alpha 90.000000
_cell_angle_beta 90.000000
_cell_angle_gamma 90.000000
_cell_volume 3556.630677
_symmetry_space_group_name_H-M "P 4/M B M"
_symmetry_group_IT_number 127
_symmetry_cell_setting 'tetragonal'
loop_
_space_group_symop_operation_xyz
x,y,z
-y,x,z
-x,-y,z
y,-x,z
1/2+x,1/2-y,-z
1/2-x,1/2+y,-z
1/2+y,1/2+x,-z
1/2-y,1/2-x,-z
-x,-y,-z
y,-x,-z
x,y,-z
-y,x,-z
1/2-x,1/2+y,z
1/2+x,1/2-y,z
1/2-y,1/2-x,z
1/2+y,1/2+x,z
loop_
_atom_site_type_symbol
_atom_site_label
_atom_site_fract_x
_atom_site_fract_y
_atom_site_fract_z
Si Si1 0.599088 0.760624 0.399391
Si Si2 0.424760 0.382077 0.101671
Si Si3 0.189691 0.830100 0.252249
Si Si4 0.829399 0.528573 0.252807
Si Si5 0.071240 0.571240 0.895021
O O1 0.562353 0.733714 0.500000
O O2 0.678250 0.821751 0.415430
O O3 0.635414 0.675605 0.347248
O O4 0.528349 0.812536 0.342131
O O5 0.525050 0.384324 0.117993
O O6 0.380726 0.318662 0.172847
O O7 0.403233 0.349128 0.000000
O O8 0.247865 0.747865 0.242291
O O9 0.243623 0.916201 0.238697
O O10 0.910166 0.589835 0.274041
O O11 0.849259 0.469979 0.162734
O O12 0.000000 0.500000 0.905924
O O13 0.098902 0.598902 0.000000
#
# Coordination Sequence:
#
# PCOD8314167 Si02
#       5
#    16  16  16  16   8
#     4  10  21  37  56  79 112 148 187 240 297 348
#     4   9  18  34  56  78 102 139 187 234 276 326
#     4  10  21  35  54  79 114 150 183 228 288 352
#     4  10  20  36  59  86 115 153 198 239 291 354
#     4   9  18  34  57  85 117 151 190 235 285 340
#
# _framework density 20.243877999999999
#
# number of rings (size 3 to 8) (size 9 to 14) (size 15 to 20)
#    0.000    2.333    1.111    2.000    0.000    2.667 
#    0.000    6.667    0.000    0.000    0.000    4.667 
#    0.000    0.000    0.000    0.000    0.000    0.000 
#
# Total GULP energy -892204.261766 kJ/mol
# GULP energy per Si atom -12391.725858 kJ/mol
# Density = 2.019780 g / cm^3
# Si number density = 20.243878 Si / 1000 Ang^3
#
#
#
# Elastic Constant Matrix: (Units=GPa)
#
#
# Indices 1 2 3 4 5 6 
#
# 1 47.1226 20.2094 49.2480 0.0000 0.0000 0.0000
# 2 20.2094 47.1226 49.2480 0.0000 0.0000 0.0000
# 3 49.2480 49.2480 186.7934 0.0000 0.0000 0.0000
# 4 0.0000 0.0000 0.0000 23.0728 0.0000 0.0000
# 5 0.0000 0.0000 0.0000 0.0000 23.0728 0.0000
# 6 0.0000 0.0000 0.0000 0.0000 0.0000 23.9891
#
#
#
# Elastic Compliance Matrix: (Units=1/GPa)
#
#
# Indices 1 2 3 4 5 6 
#
# 1 0.030666 -0.006490 -0.006374 0.000000 0.000000 0.000000
# 2 -0.006490 0.030666 -0.006374 0.000000 0.000000 0.000000
# 3 -0.006374 -0.006374 0.008714 0.000000 0.000000 0.000000
# 4 0.000000 0.000000 0.000000 0.043341 0.000000 0.000000
# 5 0.000000 0.000000 0.000000 0.000000 0.043341 0.000000
# 6 0.000000 0.000000 0.000000 0.000000 0.000000 0.041686
#
#
# Mechanical properties :
#
#
# Convention : Reuss Voigt Hill
#
# Bulk Modulus (GPa) = 31.67526 57.60548 44.64037
# Shear Modulus (GPa) = 20.20900 24.84916 22.52908
#
# Velocity S-wave (km/s) = 3.16298 3.50736 3.33961
# Velocity P-wave (km/s) = 5.38703 6.70221 6.08028
#
# Compressibility (1/GPa) = 0.03157038
#
# Stress axis : x y z
#
# Youngs Moduli (GPa) = 32.60916 32.60916 114.75152
#
# Poissons Ratio (x) = 0.21165 0.73142
# Poissons Ratio (y) = 0.21165 0.73142
# Poissons Ratio (z) = 0.20785 0.20785
#
# Static dielectric constant tensor:
#      x y z
#    x 3.725970 0.000000 0.000000 
#    y 0.000000 3.725970 0.000000 
#    z 0.000000 0.000000 4.054270 
# 
# 
# High freq. dielectric constant tensor:
#      x y z
#    x 1.784700 0.000000 0.000000 
#    y 0.000000 1.784700 0.000000 
#    z 0.000000 0.000000 1.791930 
# 
# From -- ./inp_files/3204.got.cif
#   From: 2010.03.12/outbox.cif.g09.slc.cpg/sg127_2_cif.got.tgz:3204.got - 2010.04.06 17:03:15.
