data_PCOD8314352
_publ_section_title
;
Structure prediction by ZEFSAII (Michael W. Deem and Ramdas Pophale) SiO2 
 PCOD8314352
Probable space group: P 4/M B M
;
_chemical_formula_sum "Si O2"
_cell_formula_units_Z 112
_cell_length_a 22.318266
_cell_length_b 22.318266
_cell_length_c 13.077542
_cell_angle_alpha 90.000000
_cell_angle_beta 90.000000
_cell_angle_gamma 90.000000
_cell_volume 6513.989022
_symmetry_space_group_name_H-M "P 4/M B M"
_symmetry_group_IT_number 127
_symmetry_cell_setting 'tetragonal'
loop_
_space_group_symop_operation_xyz
x,y,z
-y,x,z
-x,-y,z
y,-x,z
1/2+x,1/2-y,-z
1/2-x,1/2+y,-z
1/2+y,1/2+x,-z
1/2-y,1/2-x,-z
-x,-y,-z
y,-x,-z
x,y,-z
-y,x,-z
1/2-x,1/2+y,z
1/2+x,1/2-y,z
1/2-y,1/2-x,z
1/2+y,1/2+x,z
loop_
_atom_site_type_symbol
_atom_site_label
_atom_site_fract_x
_atom_site_fract_y
_atom_site_fract_z
Si Si1 0.853444 0.857247 0.242316
Si Si2 0.701865 0.450084 0.384641
Si Si3 0.265176 0.136723 0.115847
Si Si4 0.447736 0.580789 0.118972
Si Si5 0.457046 0.860158 0.381221
Si Si6 0.922443 0.324942 0.703050
Si Si7 0.730716 0.584935 0.617407
O O1 0.844097 0.915725 0.312186
O O2 0.798176 0.847145 0.166448
O O3 0.913771 0.866795 0.178028
O O4 0.863781 0.798742 0.312290
O O5 0.680456 0.439907 0.500000
O O6 0.768753 0.423084 0.373606
O O7 0.701753 0.520323 0.357199
O O8 0.302017 0.197984 0.115405
O O9 0.300394 0.085733 0.180695
O O10 0.256140 0.112559 0.000000
O O11 0.418244 0.517264 0.149004
O O12 0.439979 0.592822 0.000000
O O13 0.477428 0.860256 0.500000
O O14 0.418521 0.918521 0.354070
O O15 0.515343 0.861226 0.308224
O O16 0.417041 0.801497 0.359454
O O17 0.867430 0.367430 0.671862
O O18 0.719003 0.602478 0.500000
#
# Coordination Sequence:
#
# PCOD8314352 Si02
#       7
#    16  16  16  16  16  16  16
#     4  11  18  28  49  70  85 116 162 195 220 272
#     4   9  18  30  43  65  97 125 151 190 234 273
#     4   9  19  34  49  68  94 120 150 195 245 280
#     4   9  18  31  45  64  90 114 141 187 240 279
#     4   9  18  32  49  71 101 132 157 186 229 281
#     4   9  17  30  50  72  93 122 158 195 236 281
#     4   9  18  31  45  64  94 128 155 183 226 276
#
# _framework density 17.193764999999999
#
# number of rings (size 3 to 8) (size 9 to 14) (size 15 to 20)
#    0.000    2.714    0.000    3.429    0.000    2.000 
#    0.000    0.714    0.000    6.429    0.000    8.000 
#    0.000    0.000    0.000    0.000    0.000    0.000 
#
# Total GULP energy -1388605.375689 kJ/mol
# GULP energy per Si atom -12398.262283 kJ/mol
# Density = 1.715463 g / cm^3
# Si number density = 17.193765 Si / 1000 Ang^3
#
#
#
# Elastic Constant Matrix: (Units=GPa)
#
#
# Indices 1 2 3 4 5 6 
#
# 1 57.2778 23.9585 37.1666 0.0000 0.0000 0.0000
# 2 23.9585 57.2778 37.1666 0.0000 0.0000 0.0000
# 3 37.1666 37.1666 85.1478 0.0000 0.0000 0.0000
# 4 0.0000 0.0000 0.0000 25.5764 0.0000 0.0000
# 5 0.0000 0.0000 0.0000 0.0000 25.5764 0.0000
# 6 0.0000 0.0000 0.0000 0.0000 0.0000 26.6381
#
#
#
# Elastic Compliance Matrix: (Units=1/GPa)
#
#
# Indices 1 2 3 4 5 6 
#
# 1 0.025254 -0.004758 -0.008946 0.000000 0.000000 0.000000
# 2 -0.004758 0.025254 -0.008946 0.000000 0.000000 0.000000
# 3 -0.008946 -0.008946 0.019554 0.000000 0.000000 0.000000
# 4 0.000000 0.000000 0.000000 0.039099 0.000000 0.000000
# 5 0.000000 0.000000 0.000000 0.000000 0.039099 0.000000
# 6 0.000000 0.000000 0.000000 0.000000 0.000000 0.037540
#
#
# Mechanical properties :
#
#
# Convention : Reuss Voigt Hill
#
# Bulk Modulus (GPa) = 40.38653 44.03188 42.20920
# Shear Modulus (GPa) = 20.88939 22.31897 21.60418
#
# Velocity S-wave (km/s) = 3.48938 3.60680 3.54858
# Velocity P-wave (km/s) = 6.30670 6.55821 6.43368
#
# Compressibility (1/GPa) = 0.02476073
#
# Stress axis : x y z
#
# Youngs Moduli (GPa) = 39.59722 39.59722 51.13942
#
# Poissons Ratio (x) = 0.18842 0.45751
# Poissons Ratio (y) = 0.18842 0.45751
# Poissons Ratio (z) = 0.35425 0.35425
#
# Static dielectric constant tensor:
#      x y z
#    x 3.091730 0.000000 0.000000 
#    y 0.000000 3.091730 0.000000 
#    z 0.000000 0.000000 3.200910 
# 
# 
# High freq. dielectric constant tensor:
#      x y z
#    x 1.655080 0.000000 0.000000 
#    y 0.000000 1.655080 0.000000 
#    z 0.000000 0.000000 1.657220 
# 
# From -- ./inp_files/3759.got.cif
#   From: 2010.03.12/outbox.cif.g09.slc.cpg/sg127_2_cif.got.tgz:3759.got - 2010.04.06 17:03:15.
