data_PCOD8314210
_publ_section_title
;
Structure prediction by ZEFSAII (Michael W. Deem and Ramdas Pophale) SiO2 
 PCOD8314210
Probable space group: P 4/M B M
;
_chemical_formula_sum "Si O2"
_cell_formula_units_Z 96
_cell_length_a 14.472532
_cell_length_b 14.472532
_cell_length_c 23.159322
_cell_angle_alpha 90.000000
_cell_angle_beta 90.000000
_cell_angle_gamma 90.000000
_cell_volume 4850.816857
_symmetry_space_group_name_H-M "P 4/M B M"
_symmetry_group_IT_number 127
_symmetry_cell_setting 'tetragonal'
loop_
_space_group_symop_operation_xyz
x,y,z
-y,x,z
-x,-y,z
y,-x,z
1/2+x,1/2-y,-z
1/2-x,1/2+y,-z
1/2+y,1/2+x,-z
1/2-y,1/2-x,-z
-x,-y,-z
y,-x,-z
x,y,-z
-y,x,-z
1/2-x,1/2+y,z
1/2+x,1/2-y,z
1/2-y,1/2-x,z
1/2+y,1/2+x,z
loop_
_atom_site_type_symbol
_atom_site_label
_atom_site_fract_x
_atom_site_fract_y
_atom_site_fract_z
Si Si1 0.994195 0.351772 0.838407
Si Si2 0.244084 0.896784 0.249943
Si Si3 0.397679 0.742635 0.618023
Si Si4 0.098142 0.114129 0.152407
Si Si5 0.410012 0.756663 0.063769
Si Si6 0.747291 0.396907 0.431962
O O1 0.064188 0.435813 0.839797
O O2 0.015321 0.290341 0.781922
O O3 0.004613 0.294132 0.897644
O O4 0.889539 0.389539 0.833968
O O5 0.308507 0.808507 0.247317
O O6 0.221936 0.922120 0.315544
O O7 0.151834 0.868928 0.214763
O O8 0.335539 0.835539 0.609750
O O9 0.343061 0.653315 0.594391
O O10 0.496339 0.756193 0.587025
O O11 0.138271 0.171851 0.098220
O O12 0.989016 0.129092 0.147111
O O13 0.334766 0.834766 0.056583
O O14 0.445272 0.726274 0.000000
O O15 0.734441 0.394569 0.500000
O O16 0.839897 0.339897 0.413670
#
# Coordination Sequence:
#
# PCOD8314210 Si02
#       6
#    16  16  16  16  16  16
#     4   8  14  27  48  74 104 135 168 213 270 326
#     4   9  19  36  56  79 108 142 179 225 281 334
#     4  10  22  39  61  89 122 161 205 252 301 360
#     4  10  21  35  53  76 104 139 177 222 274 329
#     4   9  18  34  54  74 101 138 179 224 275 330
#     4  10  22  40  62  90 124 161 201 248 302 358
#
# _framework density 19.790482000000001
#
# number of rings (size 3 to 8) (size 9 to 14) (size 15 to 20)
#    0.000    2.667    0.000    2.000    2.333    3.333 
#    0.000   12.500    0.000    0.000    0.000    0.000 
#    0.000    0.000    0.000    0.000    0.000    0.000 
#
# Total GULP energy -1189576.064314 kJ/mol
# GULP energy per Si atom -12391.417337 kJ/mol
# Density = 1.974544 g / cm^3
# Si number density = 19.790482 Si / 1000 Ang^3
#
#
#
# Elastic Constant Matrix: (Units=GPa)
#
#
# Indices 1 2 3 4 5 6 
#
# 1 77.8773 34.0199 38.7217 0.0000 0.0000 0.0000
# 2 34.0199 77.8773 38.7217 0.0000 0.0000 0.0000
# 3 38.7217 38.7217 151.3018 0.0000 0.0000 0.0000
# 4 0.0000 0.0000 0.0000 16.9046 0.0000 0.0000
# 5 0.0000 0.0000 0.0000 0.0000 16.9046 0.0000
# 6 0.0000 0.0000 0.0000 0.0000 0.0000 -21.8711
#
#
#
# Elastic Compliance Matrix: (Units=1/GPa)
#
#
# Indices 1 2 3 4 5 6 
#
# 1 0.016831 -0.005970 -0.002779 0.000000 0.000000 0.000000
# 2 -0.005970 0.016831 -0.002779 0.000000 0.000000 0.000000
# 3 -0.002779 -0.002779 0.008032 0.000000 0.000000 0.000000
# 4 0.000000 0.000000 0.000000 0.059155 0.000000 0.000000
# 5 0.000000 0.000000 0.000000 0.000000 0.059155 0.000000
# 6 0.000000 0.000000 0.000000 0.000000 0.000000 -0.045722
#
#
# Mechanical properties :
#
#
# Convention : Reuss Voigt Hill
#
# Bulk Modulus (GPa) = 53.66239 58.88700 56.27469
# Shear Modulus (GPa) = 34.83051 15.42716 25.12884
#
# Velocity S-wave (km/s) = 4.19974 2.79502 3.56721
# Velocity P-wave (km/s) = 7.11978 6.34319 6.74267
#
# Compressibility (1/GPa) = 0.01863503
#
# Stress axis : x y z
#
# Youngs Moduli (GPa) = 59.41492 59.41492 124.50276
#
# Poissons Ratio (x) = 0.35473 0.34605
# Poissons Ratio (y) = 0.35473 0.34605
# Poissons Ratio (z) = 0.16514 0.16514
#
# Static dielectric constant tensor:
#      x y z
#    x 3.646170 0.000000 0.000000 
#    y 0.000000 3.646170 0.000000 
#    z 0.000000 0.000000 4.132650 
# 
# 
# High freq. dielectric constant tensor:
#      x y z
#    x 1.766150 0.000000 0.000000 
#    y 0.000000 1.766150 0.000000 
#    z 0.000000 0.000000 1.778000 
# 
# From -- ./inp_files/5796.got.cif
#   From: 2010.03.12/outbox.cif.g09.slc.cpg/sg127_3_cif.got.tgz:5796.got - 2010.04.06 17:03:15.
