data_PCOD8314580
_publ_section_title
;
Structure prediction by ZEFSAII (Michael W. Deem and Ramdas Pophale) SiO2 
 PCOD8314580
Probable space group: P 4/M N C
;
_chemical_formula_sum "Si O2"
_cell_formula_units_Z 96
_cell_length_a 15.959028
_cell_length_b 15.959028
_cell_length_c 21.261520
_cell_angle_alpha 90.000000
_cell_angle_beta 90.000000
_cell_angle_gamma 90.000000
_cell_volume 5415.108748
_symmetry_space_group_name_H-M "P 4/M N C"
_symmetry_group_IT_number 128
_symmetry_cell_setting 'tetragonal'
loop_
_space_group_symop_operation_xyz
x,y,z
-y,x,z
-x,-y,z
y,-x,z
1/2+x,1/2-y,1/2-z
1/2-x,1/2+y,1/2-z
1/2+y,1/2+x,1/2-z
1/2-y,1/2-x,1/2-z
-x,-y,-z
y,-x,-z
x,y,-z
-y,x,-z
1/2-x,1/2+y,1/2+z
1/2+x,1/2-y,1/2+z
1/2-y,1/2-x,1/2+z
1/2+y,1/2+x,1/2+z
loop_
_atom_site_type_symbol
_atom_site_label
_atom_site_fract_x
_atom_site_fract_y
_atom_site_fract_z
Si Si1 0.586816 0.848567 0.928581
Si Si2 0.175468 0.161258 0.223185
Si Si3 0.009590 0.247123 0.245152
Si Si4 0.419778 0.812207 0.126282
Si Si5 0.405521 0.997587 0.836047
Si Si6 0.760047 0.783558 0.357706
O O1 0.488811 0.821968 0.928509
O O2 0.638237 0.772609 0.897305
O O3 0.600648 0.936562 0.893191
O O4 0.616560 0.860745 0.000000
O O5 0.178109 0.062509 0.235990
O O6 0.211779 0.199187 0.286998
O O7 0.222125 0.182101 0.157052
O O8 0.085233 0.201180 0.210723
O O9 0.030755 0.267039 0.317077
O O10 0.979669 0.336311 0.216089
O O11 0.383906 0.903398 0.143381
O O12 0.339001 0.757707 0.105143
O O13 0.500000 0.000000 0.807884
#
# Coordination Sequence:
#
# PCOD8314580 Si02
#       6
#    16  16  16  16  16  16
#     4  11  23  37  54  77 109 151 193 228 268 315
#     4  10  20  32  58  81 113 137 179 222 280 340
#     4  11  19  35  54  87 112 144 174 222 285 340
#     4  10  21  35  55  81 111 141 179 229 277 335
#     4  10  21  32  53  82 115 140 174 222 283 335
#     4  10  19  36  54  81 107 145 179 228 274 327
#
# _framework density 17.728176000000001
#
# number of rings (size 3 to 8) (size 9 to 14) (size 15 to 20)
#    0.000    1.667    5.000    0.500    0.000    8.667 
#    0.000    0.000    0.000    0.500    0.000    1.167 
#    0.000    1.333    0.000    0.000    0.000    0.000 
#
# Total GULP energy -1189450.057186 kJ/mol
# GULP energy per Si atom -12390.104762 kJ/mol
# Density = 1.768783 g / cm^3
# Si number density = 17.728176 Si / 1000 Ang^3
#
#
#
# Elastic Constant Matrix: (Units=GPa)
#
#
# Indices 1 2 3 4 5 6 
#
# 1 66.5194 52.1895 14.8038 0.0000 0.0000 0.0000
# 2 52.1895 66.5194 14.8038 0.0000 0.0000 0.0000
# 3 14.8038 14.8038 45.5747 0.0000 0.0000 0.0000
# 4 0.0000 0.0000 0.0000 9.5761 0.0000 0.0000
# 5 0.0000 0.0000 0.0000 0.0000 9.5761 0.0000
# 6 0.0000 0.0000 0.0000 0.0000 0.0000 35.4249
#
#
#
# Elastic Compliance Matrix: (Units=1/GPa)
#
#
# Indices 1 2 3 4 5 6 
#
# 1 0.039475 -0.030309 -0.002978 0.000000 0.000000 0.000000
# 2 -0.030309 0.039475 -0.002978 0.000000 0.000000 0.000000
# 3 -0.002978 -0.002978 0.023876 0.000000 0.000000 0.000000
# 4 0.000000 0.000000 0.000000 0.104426 0.000000 0.000000
# 5 0.000000 0.000000 0.000000 0.000000 0.104426 0.000000
# 6 0.000000 0.000000 0.000000 0.000000 0.000000 0.028229
#
#
# Mechanical properties :
#
#
# Convention : Reuss Voigt Hill
#
# Bulk Modulus (GPa) = 33.00394 38.02305 35.51349
# Shear Modulus (GPa) = 11.83332 17.36987 14.60159
#
# Velocity S-wave (km/s) = 2.58638 3.13355 2.87302
# Velocity P-wave (km/s) = 5.25131 5.88104 5.57507
#
# Compressibility (1/GPa) = 0.03029941
#
# Stress axis : x y z
#
# Youngs Moduli (GPa) = 25.33225 25.33225 41.88244
#
# Poissons Ratio (x) = 0.76779 0.12471
# Poissons Ratio (y) = 0.76779 0.12471
# Poissons Ratio (z) = 0.07543 0.07543
#
# Static dielectric constant tensor:
#      x y z
#    x 3.457740 0.000000 0.000000 
#    y 0.000000 3.457740 0.000000 
#    z 0.000000 0.000000 2.949540 
# 
# 
# High freq. dielectric constant tensor:
#      x y z
#    x 1.689200 0.000000 0.000000 
#    y 0.000000 1.689200 0.000000 
#    z 0.000000 0.000000 1.645730 
# 
# From -- ./inp_files/5736.got.cif
#   From: 2010.03.12/outbox.cif.g09.slc.cpg/sg128_3_cif.got.tgz:5736.got - 2010.04.06 17:11:05.
