data_PCOD8314818
_publ_section_title
;
Structure prediction by ZEFSAII (Michael W. Deem and Ramdas Pophale) SiO2 
 PCOD8314818
Probable space group: P 4/M N C
;
_chemical_formula_sum "Si O2"
_cell_formula_units_Z 112
_cell_length_a 14.639473
_cell_length_b 14.639473
_cell_length_c 27.750794
_cell_angle_alpha 90.000000
_cell_angle_beta 90.000000
_cell_angle_gamma 90.000000
_cell_volume 5947.388375
_symmetry_space_group_name_H-M "P 4/M N C"
_symmetry_group_IT_number 128
_symmetry_cell_setting 'tetragonal'
loop_
_space_group_symop_operation_xyz
x,y,z
-y,x,z
-x,-y,z
y,-x,z
1/2+x,1/2-y,1/2-z
1/2-x,1/2+y,1/2-z
1/2+y,1/2+x,1/2-z
1/2-y,1/2-x,1/2-z
-x,-y,-z
y,-x,-z
x,y,-z
-y,x,-z
1/2-x,1/2+y,1/2+z
1/2+x,1/2-y,1/2+z
1/2-y,1/2-x,1/2+z
1/2+y,1/2+x,1/2+z
loop_
_atom_site_type_symbol
_atom_site_label
_atom_site_fract_x
_atom_site_fract_y
_atom_site_fract_z
Si Si1 0.054832 0.361342 0.553369
Si Si2 0.421612 0.752975 0.856770
Si Si3 0.631648 0.424471 0.279746
Si Si4 0.055488 0.414671 0.806079
Si Si5 0.593838 0.790179 0.655167
Si Si6 0.614887 0.721533 0.819488
Si Si7 0.946967 0.358899 0.945448
O O1 0.078331 0.328180 0.500000
O O2 0.077186 0.276014 0.586869
O O3 0.116803 0.448505 0.566598
O O4 0.949016 0.386310 0.557907
O O5 0.405104 0.845063 0.827698
O O6 0.514876 0.704490 0.841058
O O7 0.338744 0.684914 0.849478
O O8 0.623027 0.533666 0.278001
O O9 0.684964 0.393610 0.328314
O O10 0.692559 0.386253 0.236121
O O11 0.069041 0.430960 0.750000
O O12 0.000000 0.500000 0.829377
O O13 0.998632 0.324070 0.818536
O O14 0.673594 0.855762 0.674965
O O15 0.587542 0.790705 0.596648
O O16 0.938281 0.317155 0.000000
#
# Coordination Sequence:
#
# PCOD8314818 Si02
#       7
#    16  16  16  16  16  16  16
#     4   9  17  34  60  91 122 156 194 243 317 378
#     4  12  23  40  59  88 119 168 202 257 298 369
#     4  11  26  45  60  82 125 175 205 240 303 378
#     4  11  22  35  57  86 122 150 189 253 322 353
#     4  12  23  38  62  96 121 151 210 265 302 364
#     4  12  25  40  62  86 123 164 219 247 303 360
#     4   9  17  33  61  92 124 155 190 250 322 376
#
# _framework density 18.831795
#
# number of rings (size 3 to 8) (size 9 to 14) (size 15 to 20)
#    0.000    1.143    5.714    2.143    4.000    0.286 
#    0.000    1.429    0.000    0.857    0.000    2.000 
#    0.000    0.000    0.000    0.000    0.000    0.000 
#
# Total GULP energy -1388923.300945 kJ/mol
# GULP energy per Si atom -12401.100901 kJ/mol
# Density = 1.878893 g / cm^3
# Si number density = 18.831795 Si / 1000 Ang^3
#
#
#
# Elastic Constant Matrix: (Units=GPa)
#
#
# Indices 1 2 3 4 5 6 
#
# 1 62.8156 28.1836 33.0144 0.0000 0.0000 0.0000
# 2 28.1836 62.8155 33.0143 0.0000 0.0000 0.0000
# 3 33.0144 33.0143 129.0412 0.0000 0.0000 0.0000
# 4 0.0000 0.0000 0.0000 24.4511 0.0000 0.0000
# 5 0.0000 0.0000 0.0000 0.0000 24.4511 0.0000
# 6 0.0000 0.0000 0.0000 0.0000 0.0000 22.7185
#
#
#
# Elastic Compliance Matrix: (Units=1/GPa)
#
#
# Indices 1 2 3 4 5 6 
#
# 1 0.021185 -0.007690 -0.003452 0.000000 0.000000 0.000000
# 2 -0.007690 0.021185 -0.003452 0.000000 0.000000 0.000000
# 3 -0.003452 -0.003452 0.009516 0.000000 0.000000 0.000000
# 4 0.000000 0.000000 0.000000 0.040898 0.000000 0.000000
# 5 0.000000 0.000000 0.000000 0.000000 0.040898 0.000000
# 6 0.000000 0.000000 0.000000 0.000000 0.000000 0.044017
#
#
# Mechanical properties :
#
#
# Convention : Reuss Voigt Hill
#
# Bulk Modulus (GPa) = 44.06304 49.23299 46.64802
# Shear Modulus (GPa) = 23.31508 25.02149 24.16828
#
# Velocity S-wave (km/s) = 3.52244 3.64906 3.58631
# Velocity P-wave (km/s) = 6.32396 6.62982 6.47870
#
# Compressibility (1/GPa) = 0.02269476
#
# Stress axis : x y z
#
# Youngs Moduli (GPa) = 47.20407 47.20404 105.08615
#
# Poissons Ratio (x) = 0.36302 0.36280
# Poissons Ratio (y) = 0.36302 0.36280
# Poissons Ratio (z) = 0.16297 0.16297
#
# Static dielectric constant tensor:
#      x y z
#    x 3.362530 0.000000 0.000000 
#    y 0.000000 3.362530 0.000000 
#    z 0.000000 0.000000 4.524470 
# 
# 
# High freq. dielectric constant tensor:
#      x y z
#    x 1.718050 0.000000 0.000000 
#    y 0.000000 1.718050 0.000000 
#    z 0.000000 0.000000 1.737610 
# 
# From -- ./inp_files/6888.got.cif
#   From: 2010.03.12/outbox.cif.g09.slc.cpg/sg128_4_cif.got.tgz:6888.got - 2010.04.06 17:11:05.
