data_PCOD8314318
_publ_section_title
;
Structure prediction by ZEFSAII (Michael W. Deem and Ramdas Pophale) SiO2 
 PCOD8314318
Probable space group: P 4/M B M
;
_chemical_formula_sum "Si O2"
_cell_formula_units_Z 112
_cell_length_a 14.488757
_cell_length_b 14.488757
_cell_length_c 28.582214
_cell_angle_alpha 90.000000
_cell_angle_beta 90.000000
_cell_angle_gamma 90.000000
_cell_volume 6000.094961
_symmetry_space_group_name_H-M "P 4/M B M"
_symmetry_group_IT_number 127
_symmetry_cell_setting 'tetragonal'
loop_
_space_group_symop_operation_xyz
x,y,z
-y,x,z
-x,-y,z
y,-x,z
1/2+x,1/2-y,-z
1/2-x,1/2+y,-z
1/2+y,1/2+x,-z
1/2-y,1/2-x,-z
-x,-y,-z
y,-x,-z
x,y,-z
-y,x,-z
1/2-x,1/2+y,z
1/2+x,1/2-y,z
1/2-y,1/2-x,z
1/2+y,1/2+x,z
loop_
_atom_site_type_symbol
_atom_site_label
_atom_site_fract_x
_atom_site_fract_y
_atom_site_fract_z
Si Si1 0.147610 0.968063 0.210133
Si Si2 0.258678 0.899811 0.871996
Si Si3 0.245612 0.105026 0.555015
Si Si4 0.160948 0.816201 0.949631
Si Si5 0.484588 0.167306 0.948510
Si Si6 0.600204 0.255233 0.404050
Si Si7 0.645439 0.544087 0.684462
O O1 0.230855 0.957193 0.173653
O O2 0.184538 0.952401 0.262732
O O3 0.069505 0.891779 0.201804
O O4 0.304051 0.804051 0.854096
O O5 0.169618 0.884809 0.905641
O O6 0.336134 0.946864 0.904885
O O7 0.230703 0.108841 0.500000
O O8 0.338484 0.161517 0.569477
O O9 0.155998 0.155466 0.577185
O O10 0.255648 0.997726 0.569487
O O11 0.244160 0.744160 0.946967
O O12 0.064495 0.765646 0.945717
O O13 0.166193 0.868539 0.000000
O O14 0.415847 0.084154 0.941154
O O15 0.532142 0.157471 0.000000
O O16 0.662177 0.162177 0.409551
O O17 0.574773 0.272135 0.349721
O O18 0.560290 0.612884 0.675429
#
# Coordination Sequence:
#
# PCOD8314318 Si02
#       7
#    16  16  16  16  16  16  16
#     4   9  19  35  55  76 100 130 167 215 267 317
#     4  11  20  29  46  71  99 126 159 203 251 305
#     4  10  22  38  56  86 125 160 200 245 290 345
#     4   8  15  28  44  62  86 118 155 194 238 289
#     4   9  18  32  48  66  92 127 164 201 245 304
#     4  11  21  35  59  86 117 159 203 246 292 344
#     4   9  17  34  58  81 105 135 178 234 290 334
#
# _framework density 18.666371999999999
#
# number of rings (size 3 to 8) (size 9 to 14) (size 15 to 20)
#    0.000    2.429    1.429    3.429    0.000    3.143 
#    0.000    2.143    0.000    1.714    0.000    8.000 
#    0.000    0.000    0.000    0.000    0.000    0.000 
#
# Total GULP energy -1387486.564514 kJ/mol
# GULP energy per Si atom -12388.272897 kJ/mol
# Density = 1.862389 g / cm^3
# Si number density = 18.666372 Si / 1000 Ang^3
#
#
#
# Elastic Constant Matrix: (Units=GPa)
#
#
# Indices 1 2 3 4 5 6 
#
# 1 74.0707 33.2297 36.7275 0.0000 0.0000 0.0000
# 2 33.2297 74.0707 36.7275 0.0000 0.0000 0.0000
# 3 36.7275 36.7275 123.1309 0.0000 0.0000 0.0000
# 4 0.0000 0.0000 0.0000 -286.2686 0.0000 0.0000
# 5 0.0000 0.0000 0.0000 0.0000 -286.2686 0.0000
# 6 0.0000 0.0000 0.0000 0.0000 0.0000 27.1256
#
#
#
# Elastic Compliance Matrix: (Units=1/GPa)
#
#
# Indices 1 2 3 4 5 6 
#
# 1 0.018098 -0.006387 -0.003493 0.000000 0.000000 0.000000
# 2 -0.006387 0.018098 -0.003493 0.000000 0.000000 0.000000
# 3 -0.003493 -0.003493 0.010205 0.000000 0.000000 0.000000
# 4 0.000000 0.000000 0.000000 -0.003493 0.000000 0.000000
# 5 0.000000 0.000000 0.000000 0.000000 -0.003493 0.000000
# 6 0.000000 0.000000 0.000000 0.000000 0.000000 0.036866
#
#
# Mechanical properties :
#
#
# Convention : Reuss Voigt Hill
#
# Bulk Modulus (GPa) = 50.87861 53.84908 52.36384
# Shear Modulus (GPa) = 45.62924 -98.10980 -26.24028
#
# Velocity S-wave (km/s) = 4.94951 -7.25767 -3.75340
# Velocity P-wave (km/s) = 7.74465 6.42813 3.05440
#
# Compressibility (1/GPa) = 0.01965463
#
# Stress axis : x y z
#
# Youngs Moduli (GPa) = 55.25459 55.25459 97.98824
#
# Poissons Ratio (x) = 0.35292 0.34229
# Poissons Ratio (y) = 0.35292 0.34229
# Poissons Ratio (z) = 0.19301 0.19301
#
# Static dielectric constant tensor:
#      x y z
#    x 3.352440 0.000000 0.000000 
#    y 0.000000 3.352440 0.000000 
#    z 0.000000 0.000000 3.520280 
# 
# 
# High freq. dielectric constant tensor:
#      x y z
#    x 1.712090 0.000000 0.000000 
#    y 0.000000 1.712090 0.000000 
#    z 0.000000 0.000000 1.726510 
# 
# From -- ./inp_files/6406.got.cif
#   From: 2010.03.12/outbox.cif.g09.slc.cpg/sg127_4_cif.got.tgz:6406.got - 2010.04.06 17:03:15.
