data_PCOD8314723
_publ_section_title
;
Structure prediction by ZEFSAII (Michael W. Deem and Ramdas Pophale) SiO2 
 PCOD8314723
Probable space group: P 4/M N C
;
_chemical_formula_sum "Si O2"
_cell_formula_units_Z 64
_cell_length_a 11.657007
_cell_length_b 11.657007
_cell_length_c 22.397810
_cell_angle_alpha 90.000000
_cell_angle_beta 90.000000
_cell_angle_gamma 90.000000
_cell_volume 3043.544603
_symmetry_space_group_name_H-M "P 4/M N C"
_symmetry_group_IT_number 128
_symmetry_cell_setting 'tetragonal'
loop_
_space_group_symop_operation_xyz
x,y,z
-y,x,z
-x,-y,z
y,-x,z
1/2+x,1/2-y,1/2-z
1/2-x,1/2+y,1/2-z
1/2+y,1/2+x,1/2-z
1/2-y,1/2-x,1/2-z
-x,-y,-z
y,-x,-z
x,y,-z
-y,x,-z
1/2-x,1/2+y,1/2+z
1/2+x,1/2-y,1/2+z
1/2-y,1/2-x,1/2+z
1/2+y,1/2+x,1/2+z
loop_
_atom_site_type_symbol
_atom_site_label
_atom_site_fract_x
_atom_site_fract_y
_atom_site_fract_z
Si Si1 0.209552 0.309267 0.932186
Si Si2 0.084733 0.169779 0.832947
Si Si3 0.364890 0.864890 0.750000
Si Si4 0.500000 0.000000 0.155872
Si Si5 0.572717 0.833809 0.932379
O O1 0.119594 0.246162 0.889593
O O2 0.212698 0.444822 0.920883
O O3 0.338263 0.266782 0.917973
O O4 0.174105 0.279730 0.000000
O O5 0.116921 0.233809 0.770782
O O6 0.948923 0.152423 0.834774
O O7 0.445861 0.898161 0.805358
O O8 0.405034 0.059146 0.112538
O O9 0.587675 0.879155 0.000000
#
# Coordination Sequence:
#
# PCOD8314723 Si02
#       5
#    16  16   8   8  16
#     4  10  22  40  65  98 131 171 212 264 323 383
#     4  11  25  46  66  92 129 166 211 267 322 383
#     4  11  24  42  66  91 120 172 218 257 314 376
#     4  11  21  40  64  94 125 169 214 266 308 379
#     4  10  21  39  65  97 133 170 216 264 323 382
#
# _framework density 21.028113999999999
#
# number of rings (size 3 to 8) (size 9 to 14) (size 15 to 20)
#    0.000    1.500    2.500    1.875    0.000    5.500 
#    0.000    3.750    0.000    0.000    0.000    0.000 
#    0.000    0.000    0.000    0.000    0.000    0.000 
#
# Total GULP energy -793492.063015 kJ/mol
# GULP energy per Si atom -12398.313485 kJ/mol
# Density = 2.098025 g / cm^3
# Si number density = 21.028114 Si / 1000 Ang^3
#
#
#
# Elastic Constant Matrix: (Units=GPa)
#
#
# Indices 1 2 3 4 5 6 
#
# 1 129.9552 56.0297 67.3888 0.0000 0.0000 0.0000
# 2 56.0297 129.9552 67.3888 0.0000 0.0000 0.0000
# 3 67.3888 67.3888 139.5117 0.0000 0.0000 0.0000
# 4 0.0000 0.0000 0.0000 34.1749 0.0000 0.0000
# 5 0.0000 0.0000 0.0000 0.0000 34.1749 0.0000
# 6 0.0000 0.0000 0.0000 0.0000 0.0000 28.4931
#
#
#
# Elastic Compliance Matrix: (Units=1/GPa)
#
#
# Indices 1 2 3 4 5 6 
#
# 1 0.010900 -0.002627 -0.003996 0.000000 0.000000 0.000000
# 2 -0.002627 0.010900 -0.003996 0.000000 0.000000 0.000000
# 3 -0.003996 -0.003996 0.011028 0.000000 0.000000 0.000000
# 4 0.000000 0.000000 0.000000 0.029261 0.000000 0.000000
# 5 0.000000 0.000000 0.000000 0.000000 0.029261 0.000000
# 6 0.000000 0.000000 0.000000 0.000000 0.000000 0.035096
#
#
# Mechanical properties :
#
#
# Convention : Reuss Voigt Hill
#
# Bulk Modulus (GPa) = 86.28449 86.78187 86.53318
# Shear Modulus (GPa) = 32.99286 33.27621 33.13453
#
# Velocity S-wave (km/s) = 3.96534 3.98233 3.97385
# Velocity P-wave (km/s) = 7.87955 7.90597 7.89277
#
# Compressibility (1/GPa) = 0.01158957
#
# Stress axis : x y z
#
# Youngs Moduli (GPa) = 91.74477 91.74477 90.67704
#
# Poissons Ratio (x) = 0.24104 0.36233
# Poissons Ratio (y) = 0.24104 0.36233
# Poissons Ratio (z) = 0.36660 0.36660
#
# Static dielectric constant tensor:
#      x y z
#    x 3.897380 0.000000 0.000000 
#    y 0.000000 3.897380 0.000000 
#    z 0.000000 0.000000 4.126050 
# 
# 
# High freq. dielectric constant tensor:
#      x y z
#    x 1.824320 0.000000 0.000000 
#    y 0.000000 1.824320 0.000000 
#    z 0.000000 0.000000 1.837220 
# 
# From -- ./inp_files/6260.got.cif
#   From: 2010.03.12/outbox.cif.g09.slc.cpg/sg128_4_cif.got.tgz:6260.got - 2010.04.06 17:11:05.
