data_PCOD8314219
_publ_section_title
;
Structure prediction by ZEFSAII (Michael W. Deem and Ramdas Pophale) SiO2 
 PCOD8314219
Probable space group: P 4/M B M
;
_chemical_formula_sum "Si O2"
_cell_formula_units_Z 88
_cell_length_a 15.649288
_cell_length_b 15.649288
_cell_length_c 15.738700
_cell_angle_alpha 90.000000
_cell_angle_beta 90.000000
_cell_angle_gamma 90.000000
_cell_volume 3854.411012
_symmetry_space_group_name_H-M "P 4/M B M"
_symmetry_group_IT_number 127
_symmetry_cell_setting 'tetragonal'
loop_
_space_group_symop_operation_xyz
x,y,z
-y,x,z
-x,-y,z
y,-x,z
1/2+x,1/2-y,-z
1/2-x,1/2+y,-z
1/2+y,1/2+x,-z
1/2-y,1/2-x,-z
-x,-y,-z
y,-x,-z
x,y,-z
-y,x,-z
1/2-x,1/2+y,z
1/2+x,1/2-y,z
1/2-y,1/2-x,z
1/2+y,1/2+x,z
loop_
_atom_site_type_symbol
_atom_site_label
_atom_site_fract_x
_atom_site_fract_y
_atom_site_fract_z
Si Si1 0.134726 0.503572 0.154352
Si Si2 0.503257 0.142058 0.500000
Si Si3 0.183771 0.826055 0.266637
Si Si4 0.618057 0.261869 0.907615
Si Si5 0.307025 0.053703 0.673139
Si Si6 0.938185 0.873317 0.406262
O O1 0.058639 0.441362 0.129146
O O2 0.219111 0.476624 0.102161
O O3 0.154152 0.492120 0.254622
O O4 0.101609 0.601609 0.135181
O O5 0.429568 0.070433 0.500000
O O6 0.496647 0.204377 0.416658
O O7 0.594797 0.094797 0.500000
O O8 0.266961 0.766961 0.276089
O O9 0.174151 0.862196 0.170221
O O10 0.096156 0.778222 0.289052
O O11 0.192134 0.905399 0.332890
O O12 0.686591 0.186591 0.904106
O O13 0.621220 0.308599 0.000000
O O14 0.371427 0.128574 0.650190
O O15 0.916577 0.836501 0.500000
O O16 0.038056 0.887694 0.394850
#
# Coordination Sequence:
#
# PCOD8314219 Si02
#       6
#    16   8  16  16  16  16
#     4   9  17  31  54  83 115 150 190 238 295 365
#     4   9  16  28  48  74 112 161 201 233 279 340
#     4  10  21  35  57  86 116 153 193 242 298 353
#     4   9  19  36  55  76 109 152 193 238 298 361
#     4   9  18  30  47  76 114 155 195 234 280 345
#     4   9  20  39  62  85 110 149 195 237 283 339
#
# _framework density 22.830985999999999
#
# number of rings (size 3 to 8) (size 9 to 14) (size 15 to 20)
#    0.000    2.818    0.000    1.091    3.818    2.909 
#    0.000    2.727    0.000    3.273    0.000    1.273 
#    0.000    0.000    0.000    0.000    0.000    0.000 
#
# Total GULP energy -1090354.915943 kJ/mol
# GULP energy per Si atom -12390.396772 kJ/mol
# Density = 2.277902 g / cm^3
# Si number density = 22.830986 Si / 1000 Ang^3
#
#
#
# Elastic Constant Matrix: (Units=GPa)
#
#
# Indices 1 2 3 4 5 6 
#
# 1 35.1427 24.4450 56.3478 0.0000 0.0000 0.0000
# 2 24.4450 35.1426 56.3478 0.0000 0.0000 0.0000
# 3 56.3478 56.3478 205.6255 0.0000 0.0000 0.0000
# 4 0.0000 0.0000 0.0000 28.6996 0.0000 0.0000
# 5 0.0000 0.0000 0.0000 0.0000 28.6995 0.0000
# 6 0.0000 0.0000 0.0000 0.0000 0.0000 28.5048
#
#
#
# Elastic Compliance Matrix: (Units=1/GPa)
#
#
# Indices 1 2 3 4 5 6 
#
# 1 0.064157 -0.029321 -0.009546 0.000000 0.000000 0.000000
# 2 -0.029321 0.064157 -0.009546 0.000000 0.000000 0.000000
# 3 -0.009546 -0.009546 0.010095 0.000000 0.000000 0.000000
# 4 0.000000 0.000000 0.000000 0.034844 0.000000 0.000000
# 5 0.000000 0.000000 0.000000 0.000000 0.034844 0.000000
# 6 0.000000 0.000000 0.000000 0.000000 0.000000 0.035082
#
#
# Mechanical properties :
#
#
# Convention : Reuss Voigt Hill
#
# Bulk Modulus (GPa) = 24.04825 61.13246 42.59035
# Shear Modulus (GPa) = 14.12960 26.43214 20.28087
#
# Velocity S-wave (km/s) = 2.49042 3.40624 2.98368
# Velocity P-wave (km/s) = 4.33885 6.50416 5.52855
#
# Compressibility (1/GPa) = 0.04158307
#
# Stress axis : x y z
#
# Youngs Moduli (GPa) = 15.58669 15.58665 99.05714
#
# Poissons Ratio (x) = 0.45701 0.94563
# Poissons Ratio (y) = 0.45701 0.94563
# Poissons Ratio (z) = 0.14880 0.14880
#
# Static dielectric constant tensor:
#      x y z
#    x 3.989980 0.000000 0.000000 
#    y 0.000000 3.989980 0.000000 
#    z 0.000000 0.000000 4.377980 
# 
# 
# High freq. dielectric constant tensor:
#      x y z
#    x 1.881440 0.000000 0.000000 
#    y 0.000000 1.881440 0.000000 
#    z 0.000000 0.000000 1.904390 
# 
# From -- ./inp_files/4392.got.cif
#   From: 2010.03.12/outbox.cif.g09.slc.cpg/sg127_3_cif.got.tgz:4392.got - 2010.04.06 17:03:15.
