data_PCOD8314584
_publ_section_title
;
Structure prediction by ZEFSAII (Michael W. Deem and Ramdas Pophale) SiO2 
 PCOD8314584
Probable space group: P 4/M N C
;
_chemical_formula_sum "Si O2"
_cell_formula_units_Z 96
_cell_length_a 16.136340
_cell_length_b 16.136340
_cell_length_c 19.291476
_cell_angle_alpha 90.000000
_cell_angle_beta 90.000000
_cell_angle_gamma 90.000000
_cell_volume 5023.142852
_symmetry_space_group_name_H-M "P 4/M N C"
_symmetry_group_IT_number 128
_symmetry_cell_setting 'tetragonal'
loop_
_space_group_symop_operation_xyz
x,y,z
-y,x,z
-x,-y,z
y,-x,z
1/2+x,1/2-y,1/2-z
1/2-x,1/2+y,1/2-z
1/2+y,1/2+x,1/2-z
1/2-y,1/2-x,1/2-z
-x,-y,-z
y,-x,-z
x,y,-z
-y,x,-z
1/2-x,1/2+y,1/2+z
1/2+x,1/2-y,1/2+z
1/2-y,1/2-x,1/2+z
1/2+y,1/2+x,1/2+z
loop_
_atom_site_type_symbol
_atom_site_label
_atom_site_fract_x
_atom_site_fract_y
_atom_site_fract_z
Si Si1 0.457298 0.278037 0.421551
Si Si2 0.719810 0.889925 0.296655
Si Si3 0.458601 0.372863 0.287226
Si Si4 0.588971 0.031648 0.677728
Si Si5 0.217402 0.723686 0.577790
Si Si6 0.618735 0.176823 0.419956
O O1 0.469567 0.312186 0.500000
O O2 0.450677 0.355020 0.369370
O O3 0.375532 0.222050 0.416754
O O4 0.533700 0.221038 0.397797
O O5 0.684894 0.815107 0.250000
O O6 0.793367 0.936026 0.257687
O O7 0.755229 0.851625 0.368296
O O8 0.647475 0.953450 0.313344
O O9 0.552591 0.396937 0.268748
O O10 0.579711 0.079711 0.750000
O O11 0.630252 0.092689 0.622501
O O12 0.500000 0.000000 0.650663
O O13 0.191146 0.750587 0.500000
O O14 0.306381 0.761464 0.597320
O O15 0.616955 0.151972 0.500000
#
# Coordination Sequence:
#
# PCOD8314584 Si02
#       6
#    16  16  16  16  16  16
#     4  10  19  36  60  89 126 161 195 240 295 360
#     4  12  23  40  64  90 118 163 203 247 312 364
#     4  11  25  41  59  90 125 159 208 254 294 359
#     4  11  22  38  58  88 128 154 193 253 303 356
#     4  10  22  39  59  88 120 155 204 249 295 367
#     4  10  22  38  61  90 120 158 205 248 295 363
#
# _framework density 19.111540000000002
#
# number of rings (size 3 to 8) (size 9 to 14) (size 15 to 20)
#    0.000    1.333    3.333    3.000    2.333    3.667 
#    0.000    0.833    0.000    0.000    0.000    1.167 
#    0.000    0.000    0.000    0.000    0.000    0.000 
#
# Total GULP energy -1190843.557129 kJ/mol
# GULP energy per Si atom -12404.620387 kJ/mol
# Density = 1.906804 g / cm^3
# Si number density = 19.111540 Si / 1000 Ang^3
#
#
#
# Elastic Constant Matrix: (Units=GPa)
#
#
# Indices 1 2 3 4 5 6 
#
# 1 77.5340 50.4350 51.9692 0.0000 0.0000 0.0000
# 2 50.4350 77.5338 51.9690 0.0000 0.0000 0.0000
# 3 51.9692 51.9690 98.3476 0.0000 0.0000 0.0000
# 4 0.0000 0.0000 0.0000 31.3677 0.0000 0.0000
# 5 0.0000 0.0000 0.0000 0.0000 31.3675 0.0000
# 6 0.0000 0.0000 0.0000 0.0000 0.0000 23.7568
#
#
#
# Elastic Compliance Matrix: (Units=1/GPa)
#
#
# Indices 1 2 3 4 5 6 
#
# 1 0.025296 -0.011606 -0.007234 0.000000 0.000000 0.000000
# 2 -0.011606 0.025296 -0.007234 0.000000 0.000000 0.000000
# 3 -0.007234 -0.007234 0.017813 0.000000 0.000000 0.000000
# 4 0.000000 0.000000 0.000000 0.031880 0.000000 0.000000
# 5 0.000000 0.000000 0.000000 0.000000 0.031880 0.000000
# 6 0.000000 0.000000 0.000000 0.000000 0.000000 0.042093
#
#
# Mechanical properties :
#
#
# Convention : Reuss Voigt Hill
#
# Bulk Modulus (GPa) = 61.51211 62.46241 61.98726
# Shear Modulus (GPa) = 21.56790 23.90121 22.73455
#
# Velocity S-wave (km/s) = 3.36300 3.54024 3.45276
# Velocity P-wave (km/s) = 6.88007 7.03314 6.95703
#
# Compressibility (1/GPa) = 0.01625696
#
# Stress axis : x y z
#
# Youngs Moduli (GPa) = 39.53198 39.53196 56.13760
#
# Poissons Ratio (x) = 0.45880 0.40611
# Poissons Ratio (y) = 0.45880 0.40611
# Poissons Ratio (z) = 0.28598 0.28598
#
# Static dielectric constant tensor:
#      x y z
#    x 3.408200 0.000000 0.000000 
#    y 0.000000 3.408200 0.000000 
#    z 0.000000 0.000000 3.645910 
# 
# 
# High freq. dielectric constant tensor:
#      x y z
#    x 1.738130 0.000000 0.000000 
#    y 0.000000 1.738130 0.000000 
#    z 0.000000 0.000000 1.746500 
# 
# From -- ./inp_files/5730.got.cif
#   From: 2010.03.12/outbox.cif.g09.slc.cpg/sg128_3_cif.got.tgz:5730.got - 2010.04.06 17:11:05.
