data_PCOD8314237
_publ_section_title
;
Structure prediction by ZEFSAII (Michael W. Deem and Ramdas Pophale) SiO2 
 PCOD8314237
Probable space group: P 4/M B M
;
_chemical_formula_sum "Si O2"
_cell_formula_units_Z 96
_cell_length_a 21.778242
_cell_length_b 21.778242
_cell_length_c 11.428556
_cell_angle_alpha 90.000000
_cell_angle_beta 90.000000
_cell_angle_gamma 90.000000
_cell_volume 5420.470678
_symmetry_space_group_name_H-M "P 4/M B M"
_symmetry_group_IT_number 127
_symmetry_cell_setting 'tetragonal'
loop_
_space_group_symop_operation_xyz
x,y,z
-y,x,z
-x,-y,z
y,-x,z
1/2+x,1/2-y,-z
1/2-x,1/2+y,-z
1/2+y,1/2+x,-z
1/2-y,1/2-x,-z
-x,-y,-z
y,-x,-z
x,y,-z
-y,x,-z
1/2-x,1/2+y,z
1/2+x,1/2-y,z
1/2-y,1/2-x,z
1/2+y,1/2+x,z
loop_
_atom_site_type_symbol
_atom_site_label
_atom_site_fract_x
_atom_site_fract_y
_atom_site_fract_z
Si Si1 0.198163 0.479231 0.290804
Si Si2 0.008699 0.835127 0.248377
Si Si3 0.395887 0.999719 0.500000
Si Si4 0.503149 0.396553 0.000000
Si Si5 0.853395 0.742804 0.634649
Si Si6 0.611463 0.375895 0.364798
Si Si7 0.405278 0.000641 0.136545
O O1 0.263372 0.513365 0.282690
O O2 0.150967 0.501826 0.390676
O O3 0.209408 0.406467 0.293099
O O4 0.165457 0.495651 0.169829
O O5 0.073909 0.863155 0.277825
O O6 0.959529 0.865648 0.334837
O O7 0.994039 0.851551 0.113058
O O8 0.437755 0.937755 0.500000
O O9 0.440127 0.059874 0.500000
O O10 0.562431 0.441280 0.000000
O O11 0.872002 0.733525 0.500000
O O12 0.788040 0.711961 0.664917
O O13 0.849336 0.814662 0.663491
O O14 0.617609 0.395495 0.500000
O O15 0.444832 0.944832 0.193498
O O16 0.435198 0.064803 0.180309
O O17 0.410308 0.995905 0.000000
#
# Coordination Sequence:
#
# PCOD8314237 Si02
#       7
#    16  16   8   8  16  16  16
#     4  11  21  32  55  82 115 145 185 232 283 342
#     4  11  23  38  58  86 112 150 187 241 290 346
#     4  11  22  36  58  90 126 159 192 242 302 351
#     4  11  22  42  64  84 110 145 202 248 308 363
#     4   9  17  32  53  78 108 147 185 218 267 338
#     4  10  21  36  57  85 118 147 181 229 293 354
#     4   9  18  33  51  72 101 139 184 229 271 317
#
# _framework density 17.710639
#
# number of rings (size 3 to 8) (size 9 to 14) (size 15 to 20)
#    0.000    1.833    2.500    3.000    3.500    1.667 
#    0.000    2.500    0.000    0.000    0.000    0.000 
#    0.000    0.000    0.000    0.000    0.000    0.000 
#
# Total GULP energy -1189787.702729 kJ/mol
# GULP energy per Si atom -12393.621903 kJ/mol
# Density = 1.767033 g / cm^3
# Si number density = 17.710639 Si / 1000 Ang^3
#
#
#
# Elastic Constant Matrix: (Units=GPa)
#
#
# Indices 1 2 3 4 5 6 
#
# 1 95.9019 49.8644 25.2885 0.0000 0.0000 0.0000
# 2 49.8644 95.9018 25.2884 0.0000 0.0000 0.0000
# 3 25.2885 25.2884 60.0285 0.0000 0.0000 0.0000
# 4 0.0000 0.0000 0.0000 26.5390 0.0000 0.0000
# 5 0.0000 0.0000 0.0000 0.0000 26.5387 0.0000
# 6 0.0000 0.0000 0.0000 0.0000 0.0000 21.0881
#
#
#
# Elastic Compliance Matrix: (Units=1/GPa)
#
#
# Indices 1 2 3 4 5 6 
#
# 1 0.014878 -0.006843 -0.003385 0.000000 0.000000 0.000000
# 2 -0.006843 0.014878 -0.003385 0.000000 0.000000 0.000000
# 3 -0.003385 -0.003385 0.019511 0.000000 0.000000 0.000000
# 4 0.000000 0.000000 0.000000 0.037680 0.000000 0.000000
# 5 0.000000 0.000000 0.000000 0.000000 0.037681 0.000000
# 6 0.000000 0.000000 0.000000 0.000000 0.000000 0.047420
#
#
# Mechanical properties :
#
#
# Convention : Reuss Voigt Hill
#
# Bulk Modulus (GPa) = 45.37040 50.30166 47.83603
# Shear Modulus (GPa) = 24.19887 24.92588 24.56238
#
# Velocity S-wave (km/s) = 3.70042 3.75560 3.72811
# Velocity P-wave (km/s) = 6.62802 6.87529 6.75279
#
# Compressibility (1/GPa) = 0.02204080
#
# Stress axis : x y z
#
# Youngs Moduli (GPa) = 67.21287 67.21282 51.25404
#
# Poissons Ratio (x) = 0.45996 0.17349
# Poissons Ratio (y) = 0.45996 0.17349
# Poissons Ratio (z) = 0.22751 0.22750
#
# Static dielectric constant tensor:
#      x y z
#    x 3.318400 0.000000 0.000000 
#    y 0.000000 3.318400 0.000000 
#    z 0.000000 0.000000 3.266010 
# 
# 
# High freq. dielectric constant tensor:
#      x y z
#    x 1.681390 0.000000 0.000000 
#    y 0.000000 1.681390 0.000000 
#    z 0.000000 0.000000 1.682760 
# 
# From -- ./inp_files/3620.got.cif
#   From: 2010.03.12/outbox.cif.g09.slc.cpg/sg127_2_cif.got.tgz:3620.got - 2010.04.06 17:03:15.
