data_PCOD8314969
_publ_section_title
;
Structure prediction by ZEFSAII (Michael W. Deem and Ramdas Pophale) SiO2 
 PCOD8314969
Probable space group: P 4/N M M
;
_chemical_formula_sum "Si O2"
_cell_formula_units_Z 128
_cell_length_a 24.917272
_cell_length_b 24.917272
_cell_length_c 11.858986
_cell_angle_alpha 90.000000
_cell_angle_beta 90.000000
_cell_angle_gamma 90.000000
_cell_volume 7362.893902
_symmetry_space_group_name_H-M "P 4/N M M"
_symmetry_group_IT_number 129
_symmetry_cell_setting 'tetragonal'
loop_
_space_group_symop_operation_xyz
x,y,z
1/2-y,x,z
1/2-x,1/2-y,z
y,1/2-x,z
1/2+x,-y,-z
-x,1/2+y,-z
1/2+y,1/2+x,-z
-y,-x,-z
-x,-y,-z
1/2+y,-x,-z
1/2+x,1/2+y,-z
-y,1/2+x,-z
1/2-x,y,z
x,1/2-y,z
1/2-y,1/2-x,z
y,x,z
loop_
_atom_site_type_symbol
_atom_site_label
_atom_site_fract_x
_atom_site_fract_y
_atom_site_fract_z
Si Si1 0.127997 0.041403 0.500580
Si Si2 0.909341 0.998859 0.272307
Si Si3 0.400199 0.311821 0.325729
Si Si4 0.688772 0.356203 0.105658
Si Si5 0.039761 0.622838 0.042007
Si Si6 0.889702 0.189733 0.283599
Si Si7 0.060242 0.899470 0.610792
Si Si8 0.497760 0.189104 0.155930
O O1 0.071733 0.071733 0.498866
O O2 0.134242 0.016700 0.628019
O O3 0.175978 0.079662 0.455211
O O4 0.126860 0.997973 0.399691
O O5 0.957189 0.957189 0.272577
O O6 0.882820 0.000290 0.149333
O O7 0.933213 0.059031 0.286417
O O8 0.381988 0.250000 0.321671
O O9 0.349308 0.349308 0.296074
O O10 0.446767 0.323693 0.234412
O O11 0.750000 0.364933 0.139817
O O12 0.664205 0.413450 0.074012
O O13 0.660178 0.326874 0.208564
O O14 0.683739 0.316262 0.000000
O O15 0.066642 0.566642 0.000000
O O16 0.000413 0.647556 0.947538
O O17 0.882062 0.250000 0.328882
O O18 0.894390 0.147343 0.385628
O O19 0.945985 0.181702 0.220027
O O20 0.065373 0.934628 0.500000
O O21 0.493751 0.250000 0.110494
#
# Coordination Sequence:
#
# PCOD8314969 Si02
#       8
#    16  16  16  16  16  16  16  16
#     4   9  18  32  53  78 104 136 175 213 252 310
#     4  10  20  33  50  75 108 142 175 212 262 319
#     4  10  21  37  60  87 112 140 177 220 271 332
#     4  11  21  34  51  71  94 129 177 231 280 319
#     4  11  20  33  50  75 112 143 181 227 273 321
#     4  11  20  33  51  71  98 132 174 224 270 320
#     4  10  18  32  51  72 100 130 170 216 261 309
#     4  10  19  34  54  75 104 142 178 217 266 323
#
# _framework density 17.38447
#
# number of rings (size 3 to 8) (size 9 to 14) (size 15 to 20)
#    0.000    1.750    5.000    1.125    0.000    3.250 
#    0.000    1.875    0.000    0.000    0.000    0.000 
#    0.000    0.000    0.000    3.750    0.000    0.000 
#
# Total GULP energy -1586001.466712 kJ/mol
# GULP energy per Si atom -12390.636459 kJ/mol
# Density = 1.734490 g / cm^3
# Si number density = 17.384470 Si / 1000 Ang^3
#
#
#
# Elastic Constant Matrix: (Units=GPa)
#
#
# Indices 1 2 3 4 5 6 
#
# 1 86.6802 35.2595 35.9684 0.0000 0.0000 0.0000
# 2 35.2595 86.6778 35.9673 0.0000 0.0000 0.0000
# 3 35.9684 35.9673 76.9570 0.0000 0.0000 0.0000
# 4 0.0000 0.0000 0.0000 162.3740 0.0000 0.0000
# 5 0.0000 0.0000 0.0000 0.0000 161.9070 0.0000
# 6 0.0000 0.0000 0.0000 0.0000 0.0000 19.2224
#
#
#
# Elastic Compliance Matrix: (Units=1/GPa)
#
#
# Indices 1 2 3 4 5 6 
#
# 1 0.015385 -0.004063 -0.005292 0.000000 0.000000 0.000000
# 2 -0.004063 0.015385 -0.005292 0.000000 0.000000 0.000000
# 3 -0.005292 -0.005292 0.017941 0.000000 0.000000 0.000000
# 4 0.000000 0.000000 0.000000 0.006159 0.000000 0.000000
# 5 0.000000 0.000000 0.000000 0.000000 0.006176 0.000000
# 6 0.000000 0.000000 0.000000 0.000000 0.000000 0.052023
#
#
# Mechanical properties :
#
#
# Convention : Reuss Voigt Hill
#
# Bulk Modulus (GPa) = 51.49714 51.63393 51.56553
# Shear Modulus (GPa) = 33.59419 78.24199 55.91809
#
# Velocity S-wave (km/s) = 4.40070 6.71599 5.67762
# Velocity P-wave (km/s) = 7.45040 9.48183 8.52682
#
# Compressibility (1/GPa) = 0.01941856
#
# Stress axis : x y z
#
# Youngs Moduli (GPa) = 64.99755 64.99635 55.73835
#
# Poissons Ratio (x) = 0.26405 0.29497
# Poissons Ratio (y) = 0.26406 0.29496
# Poissons Ratio (z) = 0.34397 0.34396
#
# Static dielectric constant tensor:
#      x y z
#    x 3.177850 0.000000 0.000000 
#    y 0.000000 3.177850 0.000000 
#    z 0.000000 0.000000 3.331490 
# 
# 
# High freq. dielectric constant tensor:
#      x y z
#    x 1.659260 0.000000 0.000000 
#    y 0.000000 1.659260 0.000000 
#    z 0.000000 0.000000 1.664040 
# 
# From -- ./inp_files/4234.got.cif
#   From: 2010.03.12/outbox.cif.g09.slc.cpg/sg129_3_cif.got.tgz:4234.got - 2010.04.06 17:19:44.
