data_PCOD8314938
_publ_section_title
;
Structure prediction by ZEFSAII (Michael W. Deem and Ramdas Pophale) SiO2 
 PCOD8314938
Probable space group: P 4/N M M
;
_chemical_formula_sum "Si O2"
_cell_formula_units_Z 104
_cell_length_a 17.507419
_cell_length_b 17.507419
_cell_length_c 19.553007
_cell_angle_alpha 90.000000
_cell_angle_beta 90.000000
_cell_angle_gamma 90.000000
_cell_volume 5993.186702
_symmetry_space_group_name_H-M "P 4/N M M"
_symmetry_group_IT_number 129
_symmetry_cell_setting 'tetragonal'
loop_
_space_group_symop_operation_xyz
x,y,z
1/2-y,x,z
1/2-x,1/2-y,z
y,1/2-x,z
1/2+x,-y,-z
-x,1/2+y,-z
1/2+y,1/2+x,-z
-y,-x,-z
-x,-y,-z
1/2+y,-x,-z
1/2+x,1/2+y,-z
-y,1/2+x,-z
1/2-x,y,z
x,1/2-y,z
1/2-y,1/2-x,z
y,x,z
loop_
_atom_site_type_symbol
_atom_site_label
_atom_site_fract_x
_atom_site_fract_y
_atom_site_fract_z
Si Si1 0.058757 0.934406 0.393372
Si Si2 0.164122 0.892889 0.276490
Si Si3 0.909052 0.090949 0.000000
Si Si4 0.548032 0.831706 0.790673
Si Si5 0.656732 0.531540 0.504710
Si Si6 0.836542 0.546706 0.943593
Si Si7 0.338570 0.665608 0.868351
O O1 0.100803 0.883334 0.335387
O O2 0.014448 0.871149 0.437920
O O3 0.125632 0.980721 0.432427
O O4 0.995933 0.995933 0.365816
O O5 0.250000 0.861010 0.295206
O O6 0.131250 0.853770 0.207344
O O7 0.170564 0.982789 0.265040
O O8 0.882576 0.130434 0.930748
O O9 0.890384 0.001708 0.993933
O O10 0.590637 0.750000 0.793988
O O11 0.606522 0.893479 0.764081
O O12 0.514219 0.848205 0.866502
O O13 0.750000 0.539662 0.506779
O O14 0.615604 0.615604 0.506156
O O15 0.750000 0.543344 0.969278
O O16 0.865760 0.634241 0.945633
O O17 0.250000 0.672310 0.880880
O O18 0.377161 0.750000 0.870609
#
# Coordination Sequence:
#
# PCOD8314938 Si02
#       7
#    16  16   8  16  16  16  16
#     4   9  18  32  51  74 100 134 170 202 243 295
#     4  10  18  30  47  68  96 130 166 204 246 292
#     4  12  19  33  52  70  96 125 164 214 261 304
#     4   9  17  29  44  64  91 122 157 196 238 287
#     4   9  18  33  53  78 105 133 168 205 244 292
#     4  10  20  33  49  70  95 125 161 201 249 301
#     4  10  20  31  45  67  95 129 165 204 257 313
#
# _framework density 17.353038999999999
#
# number of rings (size 3 to 8) (size 9 to 14) (size 15 to 20)
#    0.000    2.308    1.538    3.462    0.000    1.692 
#    0.000    1.538    0.000    7.385    0.000    2.154 
#    0.000    0.000    0.000    3.846    0.000    0.154 
#
# Total GULP energy -1288427.206406 kJ/mol
# GULP energy per Si atom -12388.723139 kJ/mol
# Density = 1.731354 g / cm^3
# Si number density = 17.353039 Si / 1000 Ang^3
#
#
#
# Elastic Constant Matrix: (Units=GPa)
#
#
# Indices 1 2 3 4 5 6 
#
# 1 63.8018 25.3722 14.7768 0.0000 0.0000 0.0000
# 2 25.3722 63.8012 14.7773 0.0000 0.0000 0.0000
# 3 14.7768 14.7773 70.0594 0.0000 0.0000 0.0000
# 4 0.0000 0.0000 0.0000 20.3277 0.0000 0.0000
# 5 0.0000 0.0000 0.0000 0.0000 20.3277 0.0000
# 6 0.0000 0.0000 0.0000 0.0000 0.0000 20.7388
#
#
#
# Elastic Compliance Matrix: (Units=1/GPa)
#
#
# Indices 1 2 3 4 5 6 
#
# 1 0.019039 -0.006982 -0.002543 0.000000 0.000000 0.000000
# 2 -0.006982 0.019039 -0.002543 0.000000 0.000000 0.000000
# 3 -0.002543 -0.002543 0.015346 0.000000 0.000000 0.000000
# 4 0.000000 0.000000 0.000000 0.049194 0.000000 0.000000
# 5 0.000000 0.000000 0.000000 0.000000 0.049194 0.000000
# 6 0.000000 0.000000 0.000000 0.000000 0.000000 0.048219
#
#
# Mechanical properties :
#
#
# Convention : Reuss Voigt Hill
#
# Bulk Modulus (GPa) = 34.14378 34.16835 34.15607
# Shear Modulus (GPa) = 21.37377 21.79458 21.58418
#
# Velocity S-wave (km/s) = 3.51337 3.54779 3.53062
# Velocity P-wave (km/s) = 6.01473 6.04278 6.02878
#
# Compressibility (1/GPa) = 0.02928791
#
# Stress axis : x y z
#
# Youngs Moduli (GPa) = 52.52315 52.52240 65.16191
#
# Poissons Ratio (x) = 0.36674 0.16570
# Poissons Ratio (y) = 0.36674 0.16572
# Poissons Ratio (z) = 0.13356 0.13357
#
# Static dielectric constant tensor:
#      x y z
#    x 3.257500 0.000000 0.000000 
#    y 0.000000 3.257510 0.000000 
#    z 0.000000 0.000000 3.177980 
# 
# 
# High freq. dielectric constant tensor:
#      x y z
#    x 1.662070 0.000000 0.000000 
#    y 0.000000 1.662070 0.000000 
#    z 0.000000 0.000000 1.659980 
# 
# From -- ./inp_files/5848.got.cif
#   From: 2010.03.12/outbox.cif.g09.slc.cpg/sg129_3_cif.got.tgz:5848.got - 2010.04.06 17:19:44.
