data_PCOD8314241
_publ_section_title
;
Structure prediction by ZEFSAII (Michael W. Deem and Ramdas Pophale) SiO2 
 PCOD8314241
Probable space group: P 4/M B M
;
_chemical_formula_sum "Si O2"
_cell_formula_units_Z 96
_cell_length_a 26.368333
_cell_length_b 26.368333
_cell_length_c 7.882108
_cell_angle_alpha 90.000000
_cell_angle_beta 90.000000
_cell_angle_gamma 90.000000
_cell_volume 5480.342873
_symmetry_space_group_name_H-M "P 4/M B M"
_symmetry_group_IT_number 127
_symmetry_cell_setting 'tetragonal'
loop_
_space_group_symop_operation_xyz
x,y,z
-y,x,z
-x,-y,z
y,-x,z
1/2+x,1/2-y,-z
1/2-x,1/2+y,-z
1/2+y,1/2+x,-z
1/2-y,1/2-x,-z
-x,-y,-z
y,-x,-z
x,y,-z
-y,x,-z
1/2-x,1/2+y,z
1/2+x,1/2-y,z
1/2-y,1/2-x,z
1/2+y,1/2+x,z
loop_
_atom_site_type_symbol
_atom_site_label
_atom_site_fract_x
_atom_site_fract_y
_atom_site_fract_z
Si Si1 0.869498 0.940809 0.189700
Si Si2 0.856320 0.724989 0.806282
Si Si3 0.451583 0.630432 0.313899
Si Si4 0.425415 0.255421 0.801624
Si Si5 0.357780 0.227663 0.500000
Si Si6 0.276480 0.307498 0.500000
Si Si7 0.759801 0.038232 0.808012
O O1 0.911858 0.897232 0.191214
O O2 0.814682 0.920496 0.251030
O O3 0.887926 0.990513 0.290490
O O4 0.861408 0.960242 0.000000
O O5 0.828542 0.671459 0.767363
O O6 0.839059 0.768248 0.673684
O O7 0.917122 0.717984 0.782187
O O8 0.844009 0.742818 0.000000
O O9 0.433415 0.614577 0.500000
O O10 0.448368 0.690947 0.300810
O O11 0.390362 0.223317 0.673587
O O12 0.483234 0.236747 0.763697
O O13 0.410194 0.245868 0.000000
O O14 0.318267 0.181734 0.500000
O O15 0.332014 0.283275 0.500000
O O16 0.237853 0.262148 0.500000
O O17 0.779495 0.036586 0.000000
#
# Coordination Sequence:
#
# PCOD8314241 Si02
#       7
#    16  16  16  16   8   8  16
#     4  10  21  37  51  68  96 130 168 214 264 312
#     4   9  18  32  51  75 105 137 167 203 250 306
#     4  11  22  32  50  73  93 124 170 219 262 308
#     4   9  21  37  54  74 101 133 168 211 256 304
#     4  11  24  37  54  76 101 133 175 218 252 299
#     4   9  20  33  44  70 104 131 168 207 248 292
#     4   9  19  34  51  74 101 132 167 203 251 307
#
# _framework density 17.517151999999999
#
# number of rings (size 3 to 8) (size 9 to 14) (size 15 to 20)
#    0.000    2.333    0.000    3.000    9.333    1.333 
#    0.000    3.333    0.000    0.000    0.000    0.000 
#    0.000    1.333    0.000    6.500    0.000    0.000 
#
# Total GULP energy -1189691.820103 kJ/mol
# GULP energy per Si atom -12392.623126 kJ/mol
# Density = 1.747728 g / cm^3
# Si number density = 17.517152 Si / 1000 Ang^3
#
#
#
# Elastic Constant Matrix: (Units=GPa)
#
#
# Indices 1 2 3 4 5 6 
#
# 1 83.6260 48.7625 37.9757 0.0000 0.0000 0.0000
# 2 48.7625 83.6248 37.9757 0.0000 0.0000 0.0000
# 3 37.9757 37.9757 93.0095 0.0000 0.0000 0.0000
# 4 0.0000 0.0000 0.0000 22.5682 0.0000 0.0000
# 5 0.0000 0.0000 0.0000 0.0000 22.5685 0.0000
# 6 0.0000 0.0000 0.0000 0.0000 0.0000 29.0822
#
#
#
# Elastic Compliance Matrix: (Units=1/GPa)
#
#
# Indices 1 2 3 4 5 6 
#
# 1 0.019274 -0.009410 -0.004027 0.000000 0.000000 0.000000
# 2 -0.009410 0.019274 -0.004028 0.000000 0.000000 0.000000
# 3 -0.004027 -0.004028 0.014040 0.000000 0.000000 0.000000
# 4 0.000000 0.000000 0.000000 0.044310 0.000000 0.000000
# 5 0.000000 0.000000 0.000000 0.000000 0.044310 0.000000
# 6 0.000000 0.000000 0.000000 0.000000 0.000000 0.034385
#
#
# Mechanical properties :
#
#
# Convention : Reuss Voigt Hill
#
# Bulk Modulus (GPa) = 56.62940 56.63202 56.63071
# Shear Modulus (GPa) = 23.10437 23.88022 23.49229
#
# Velocity S-wave (km/s) = 3.63568 3.69622 3.66608
# Velocity P-wave (km/s) = 7.07265 7.11447 7.09359
#
# Compressibility (1/GPa) = 0.01765867
#
# Stress axis : x y z
#
# Youngs Moduli (GPa) = 51.88389 51.88299 71.22275
#
# Poissons Ratio (x) = 0.48821 0.28685
# Poissons Ratio (y) = 0.48822 0.28686
# Poissons Ratio (z) = 0.20896 0.20896
#
# Static dielectric constant tensor:
#      x y z
#    x 3.096340 0.000000 0.000000 
#    y 0.000000 3.096330 0.000000 
#    z 0.000000 0.000000 3.383080 
# 
# 
# High freq. dielectric constant tensor:
#      x y z
#    x 1.650740 0.000000 0.000000 
#    y 0.000000 1.650740 0.000000 
#    z 0.000000 0.000000 1.694370 
# 
# From -- ./inp_files/2120.got.cif
#   From: 2010.03.12/outbox.cif.g09.slc.cpg/sg127_2_cif.got.tgz:2120.got - 2010.04.06 17:03:15.
