data_PCOD8314682
_publ_section_title
;
Structure prediction by ZEFSAII (Michael W. Deem and Ramdas Pophale) SiO2 
 PCOD8314682
Probable space group: P 4/M N C
;
_chemical_formula_sum "Si O2"
_cell_formula_units_Z 56
_cell_length_a 19.465602
_cell_length_b 19.465602
_cell_length_c 7.962820
_cell_angle_alpha 90.000000
_cell_angle_beta 90.000000
_cell_angle_gamma 90.000000
_cell_volume 3017.189429
_symmetry_space_group_name_H-M "P 4/M N C"
_symmetry_group_IT_number 128
_symmetry_cell_setting 'tetragonal'
loop_
_space_group_symop_operation_xyz
x,y,z
-y,x,z
-x,-y,z
y,-x,z
1/2+x,1/2-y,1/2-z
1/2-x,1/2+y,1/2-z
1/2+y,1/2+x,1/2-z
1/2-y,1/2-x,1/2-z
-x,-y,-z
y,-x,-z
x,y,-z
-y,x,-z
1/2-x,1/2+y,1/2+z
1/2+x,1/2-y,1/2+z
1/2-y,1/2-x,1/2+z
1/2+y,1/2+x,1/2+z
loop_
_atom_site_type_symbol
_atom_site_label
_atom_site_fract_x
_atom_site_fract_y
_atom_site_fract_z
Si Si1 0.732493 0.875861 0.192360
Si Si2 0.791884 0.006539 0.309918
Si Si3 0.111512 0.009044 0.000000
Si Si4 0.662029 0.267106 0.805408
O O1 0.666532 0.833469 0.250000
O O2 0.801862 0.830712 0.211880
O O3 0.734457 0.946585 0.299735
O O4 0.725019 0.896998 0.000000
O O5 0.822548 0.008190 0.500000
O O6 0.762065 0.081300 0.262607
O O7 0.847338 0.984482 0.172752
O O8 0.073639 0.937466 0.000000
O O9 0.694903 0.194903 0.750000
O O10 0.675958 0.279589 0.000000
#
# Coordination Sequence:
#
# PCOD8314682 Si02
#       4
#    16  16   8  16
#     4  11  21  35  58  84 114 149 193 243 291 348
#     4  11  23  38  57  84 117 153 194 242 291 343
#     4  11  24  38  56  82 114 159 198 232 286 351
#     4  10  21  35  57  84 114 149 192 244 292 346
#
# _framework density 18.560319
#
# number of rings (size 3 to 8) (size 9 to 14) (size 15 to 20)
#    0.000    1.286    1.429    6.857    4.000    3.429 
#    0.000    1.429    0.000    0.857    0.000    6.000 
#    0.000    0.000    0.000    0.000    0.000    0.000 
#
# Total GULP energy -694330.291069 kJ/mol
# GULP energy per Si atom -12398.755198 kJ/mol
# Density = 1.851807 g / cm^3
# Si number density = 18.560319 Si / 1000 Ang^3
#
#
#
# Elastic Constant Matrix: (Units=GPa)
#
#
# Indices 1 2 3 4 5 6 
#
# 1 72.0468 17.3354 4.3231 0.0000 0.0000 0.0000
# 2 17.3354 72.0434 4.3230 0.0000 0.0000 0.0000
# 3 4.3231 4.3230 99.1505 0.0000 0.0000 0.0000
# 4 0.0000 0.0000 0.0000 22.8879 0.0000 0.0000
# 5 0.0000 0.0000 0.0000 0.0000 22.8869 0.0000
# 6 0.0000 0.0000 0.0000 0.0000 0.0000 40.2672
#
#
#
# Elastic Compliance Matrix: (Units=1/GPa)
#
#
# Indices 1 2 3 4 5 6 
#
# 1 0.014757 -0.003521 -0.000490 0.000000 0.000000 0.000000
# 2 -0.003521 0.014757 -0.000490 0.000000 0.000000 0.000000
# 3 -0.000490 -0.000490 0.010128 0.000000 0.000000 0.000000
# 4 0.000000 0.000000 0.000000 0.043691 0.000000 0.000000
# 5 0.000000 0.000000 0.000000 0.000000 0.043693 0.000000
# 6 0.000000 0.000000 0.000000 0.000000 0.000000 0.024834
#
#
# Mechanical properties :
#
#
# Convention : Reuss Voigt Hill
#
# Bulk Modulus (GPa) = 32.63717 32.80040 32.71879
# Shear Modulus (GPa) = 29.22673 31.69234 30.45954
#
# Velocity S-wave (km/s) = 3.97254 4.13671 4.05546
# Velocity P-wave (km/s) = 6.21804 6.36610 6.29250
#
# Compressibility (1/GPa) = 0.03063991
#
# Stress axis : x y z
#
# Youngs Moduli (GPa) = 67.76651 67.76336 98.73232
#
# Poissons Ratio (x) = 0.23862 0.04837
# Poissons Ratio (y) = 0.23863 0.04837
# Poissons Ratio (z) = 0.03320 0.03320
#
# Static dielectric constant tensor:
#      x y z
#    x 3.489720 0.000000 0.000000 
#    y 0.000000 3.489720 0.000000 
#    z 0.000000 0.000000 3.620240 
# 
# 
# High freq. dielectric constant tensor:
#      x y z
#    x 1.708120 0.000000 0.000000 
#    y 0.000000 1.708120 0.000000 
#    z 0.000000 0.000000 1.744760 
# 
# From -- ./inp_files/776.got.cif
#   From: 2010.03.12/outbox.cif.g09.slc.cpg/sg128_1_cif.got.tgz:776.got - 2010.04.06 17:11:05.
