data_PCOD8314080
_publ_section_title
;
Structure prediction by ZEFSAII (Michael W. Deem and Ramdas Pophale) SiO2 
 PCOD8314080
Probable space group: P 4/M B M
;
_chemical_formula_sum "Si O2"
_cell_formula_units_Z 120
_cell_length_a 27.432117
_cell_length_b 27.432117
_cell_length_c 8.511571
_cell_angle_alpha 90.000000
_cell_angle_beta 90.000000
_cell_angle_gamma 90.000000
_cell_volume 6405.136287
_symmetry_space_group_name_H-M "P 4/M B M"
_symmetry_group_IT_number 127
_symmetry_cell_setting 'tetragonal'
loop_
_space_group_symop_operation_xyz
x,y,z
-y,x,z
-x,-y,z
y,-x,z
1/2+x,1/2-y,-z
1/2-x,1/2+y,-z
1/2+y,1/2+x,-z
1/2-y,1/2-x,-z
-x,-y,-z
y,-x,-z
x,y,-z
-y,x,-z
1/2-x,1/2+y,z
1/2+x,1/2-y,z
1/2-y,1/2-x,z
1/2+y,1/2+x,z
loop_
_atom_site_type_symbol
_atom_site_label
_atom_site_fract_x
_atom_site_fract_y
_atom_site_fract_z
Si Si1 0.872817 0.550636 0.685107
Si Si2 0.634749 0.942171 0.314485
Si Si3 0.271076 0.940878 0.181398
Si Si4 0.925556 0.024824 0.000000
Si Si5 0.052008 0.737025 0.817889
Si Si6 0.667202 0.407762 0.318176
Si Si7 0.377128 0.487979 0.673544
Si Si8 0.316947 0.396720 0.327156
O O1 0.878469 0.549095 0.500000
O O2 0.915002 0.584999 0.758315
O O3 0.877773 0.495869 0.754930
O O4 0.819987 0.572544 0.725452
O O5 0.629980 0.942856 0.500000
O O6 0.596926 0.903075 0.241950
O O7 0.689723 0.927346 0.270815
O O8 0.231062 0.898894 0.218915
O O9 0.252862 0.995499 0.228165
O O10 0.283681 0.938549 0.000000
O O11 0.900896 0.034657 0.168872
O O12 0.969103 0.061549 0.000000
O O13 0.086305 0.782618 0.775177
O O14 0.057120 0.726609 0.000000
O O15 0.679675 0.400997 0.500000
O O16 0.635026 0.455987 0.292844
O O17 0.636790 0.360668 0.255489
O O18 0.405222 0.484606 0.500000
O O19 0.330851 0.453451 0.654808
O O20 0.303422 0.376345 0.500000
#
# Coordination Sequence:
#
# PCOD8314080 Si02
#       8
#    16  16  16   8  16  16  16  16
#     4   9  18  33  55  82 113 147 179 213 254 305
#     4   9  18  33  55  82 113 147 179 213 254 305
#     4  10  20  33  51  77 106 139 179 222 267 316
#     4  11  24  36  48  68  96 136 178 220 277 344
#     4  10  20  33  51  77 106 139 179 222 267 316
#     4  10  20  33  52  76 101 134 176 224 277 329
#     4  10  21  37  53  72 100 134 175 227 285 338
#     4  10  20  33  52  76 101 134 176 224 277 329
#
# _framework density 18.734964000000002
#
# number of rings (size 3 to 8) (size 9 to 14) (size 15 to 20)
#    0.000    2.200    1.333    1.600    1.867    4.000 
#    0.000    2.000    0.000    0.800    0.000    9.333 
#    0.000    0.000    0.000    0.000    0.000    0.000 
#
# Total GULP energy -1486577.962504 kJ/mol
# GULP energy per Si atom -12388.149688 kJ/mol
# Density = 1.869232 g / cm^3
# Si number density = 18.734964 Si / 1000 Ang^3
#
#
#
# Elastic Constant Matrix: (Units=GPa)
#
#
# Indices 1 2 3 4 5 6 
#
# 1 83.5090 52.0281 17.0532 0.0000 0.0000 0.0000
# 2 52.0281 83.5090 17.0532 0.0000 0.0000 0.0000
# 3 17.0532 17.0532 56.7840 0.0000 0.0000 0.0000
# 4 0.0000 0.0000 0.0000 18.0220 0.0000 0.0000
# 5 0.0000 0.0000 0.0000 0.0000 18.0220 0.0000
# 6 0.0000 0.0000 0.0000 0.0000 0.0000 28.4328
#
#
#
# Elastic Compliance Matrix: (Units=1/GPa)
#
#
# Indices 1 2 3 4 5 6 
#
# 1 0.019873 -0.011892 -0.002397 0.000000 0.000000 0.000000
# 2 -0.011892 0.019873 -0.002397 0.000000 0.000000 0.000000
# 3 -0.002397 -0.002397 0.019050 0.000000 0.000000 0.000000
# 4 0.000000 0.000000 0.000000 0.055488 0.000000 0.000000
# 5 0.000000 0.000000 0.000000 0.000000 0.055488 0.000000
# 6 0.000000 0.000000 0.000000 0.000000 0.000000 0.035171
#
#
# Mechanical properties :
#
#
# Convention : Reuss Voigt Hill
#
# Bulk Modulus (GPa) = 39.33124 44.00791 41.66958
# Shear Modulus (GPa) = 20.26017 22.07319 21.16668
#
# Velocity S-wave (km/s) = 3.29205 3.43619 3.36489
# Velocity P-wave (km/s) = 5.95728 6.26769 6.11445
#
# Compressibility (1/GPa) = 0.02542508
#
# Stress axis : x y z
#
# Youngs Moduli (GPa) = 50.31887 50.31887 52.49275
#
# Poissons Ratio (x) = 0.59839 0.12582
# Poissons Ratio (y) = 0.59839 0.12582
# Poissons Ratio (z) = 0.12061 0.12061
#
# Static dielectric constant tensor:
#      x y z
#    x 3.370680 0.000000 0.000000 
#    y 0.000000 3.370680 0.000000 
#    z 0.000000 0.000000 -6.782670 
# 
# 
# High freq. dielectric constant tensor:
#      x y z
#    x 1.705870 0.000000 0.000000 
#    y 0.000000 1.705870 0.000000 
#    z 0.000000 0.000000 1.729390 
# 
# From -- ./inp_files/2404.got.cif
#   From: 2010.03.12/outbox.cif.g09.slc.cpg/sg127_2_cif.got.tgz:2404.got - 2010.04.06 17:03:15.
