data_PCOD8314117
_publ_section_title
;
Structure prediction by ZEFSAII (Michael W. Deem and Ramdas Pophale) SiO2 
 PCOD8314117
Probable space group: P 4/M B M
;
_chemical_formula_sum "Si O2"
_cell_formula_units_Z 96
_cell_length_a 18.597603
_cell_length_b 18.597603
_cell_length_c 12.899964
_cell_angle_alpha 90.000000
_cell_angle_beta 90.000000
_cell_angle_gamma 90.000000
_cell_volume 4461.721350
_symmetry_space_group_name_H-M "P 4/M B M"
_symmetry_group_IT_number 127
_symmetry_cell_setting 'tetragonal'
loop_
_space_group_symop_operation_xyz
x,y,z
-y,x,z
-x,-y,z
y,-x,z
1/2+x,1/2-y,-z
1/2-x,1/2+y,-z
1/2+y,1/2+x,-z
1/2-y,1/2-x,-z
-x,-y,-z
y,-x,-z
x,y,-z
-y,x,-z
1/2-x,1/2+y,z
1/2+x,1/2-y,z
1/2-y,1/2-x,z
1/2+y,1/2+x,z
loop_
_atom_site_type_symbol
_atom_site_label
_atom_site_fract_x
_atom_site_fract_y
_atom_site_fract_z
Si Si1 0.338797 0.952246 0.500000
Si Si2 0.830556 0.214745 0.708231
Si Si3 0.332360 0.718900 0.500000
Si Si4 0.438938 0.821732 0.115083
Si Si5 0.883851 0.012074 0.281546
Si Si6 0.224017 0.522461 0.308727
Si Si7 0.662966 0.604867 0.885282
O O1 0.417979 0.917979 0.500000
O O2 0.279547 0.891125 0.500000
O O3 0.330345 0.999827 0.601851
O O4 0.754806 0.254806 0.729988
O O5 0.826256 0.162356 0.607083
O O6 0.858224 0.168572 0.806383
O O7 0.891808 0.273378 0.688911
O O8 0.252409 0.752409 0.500000
O O9 0.385900 0.885900 0.148722
O O10 0.500806 0.812380 0.199930
O O11 0.393354 0.748850 0.111261
O O12 0.471800 0.836616 0.000000
O O13 0.803794 0.012402 0.331737
O O14 0.868663 0.028392 0.158492
O O15 0.937343 0.077867 0.312727
O O16 0.630991 0.618551 0.000000
#
# Coordination Sequence:
#
# PCOD8314117 Si02
#       7
#     8  16   8  16  16  16  16
#     4  11  23  38  63  90 114 148 191 245 300 349
#     4  11  22  38  59  83 115 152 196 248 297 343
#     4   9  19  36  60  82 103 141 187 234 290 337
#     4   9  18  34  57  82 109 145 192 248 297 339
#     4  10  20  36  55  81 122 165 198 230 276 344
#     4  11  22  37  57  85 118 152 197 240 288 356
#     4  10  20  34  55  84 116 152 197 241 289 344
#
# _framework density 21.516361
#
# number of rings (size 3 to 8) (size 9 to 14) (size 15 to 20)
#    0.000    1.833    1.667    3.500    0.000    3.667 
#    0.000    0.833    0.000    3.500    0.000    1.167 
#    0.000    0.000    0.000    0.000    0.000    0.000 
#
# Total GULP energy -1189341.211048 kJ/mol
# GULP energy per Si atom -12388.970948 kJ/mol
# Density = 2.146739 g / cm^3
# Si number density = 21.516361 Si / 1000 Ang^3
#
#
#
# Elastic Constant Matrix: (Units=GPa)
#
#
# Indices 1 2 3 4 5 6 
#
# 1 40.9628 -8.4056 5.1917 0.0000 0.0000 0.0000
# 2 -8.4056 40.9628 5.1917 0.0000 0.0000 0.0000
# 3 5.1917 5.1917 93.1667 0.0000 0.0000 0.0000
# 4 0.0000 0.0000 0.0000 12.9768 0.0000 0.0000
# 5 0.0000 0.0000 0.0000 0.0000 12.9768 0.0000
# 6 0.0000 0.0000 0.0000 0.0000 0.0000 33.0483
#
#
#
# Elastic Compliance Matrix: (Units=1/GPa)
#
#
# Indices 1 2 3 4 5 6 
#
# 1 0.025763 0.005508 -0.001743 0.000000 0.000000 0.000000
# 2 0.005508 0.025763 -0.001743 0.000000 0.000000 0.000000
# 3 -0.001743 -0.001743 0.010928 0.000000 0.000000 0.000000
# 4 0.000000 0.000000 0.000000 0.077061 0.000000 0.000000
# 5 0.000000 0.000000 0.000000 0.000000 0.077061 0.000000
# 6 0.000000 0.000000 0.000000 0.000000 0.000000 0.030259
#
#
# Mechanical properties :
#
#
# Convention : Reuss Voigt Hill
#
# Bulk Modulus (GPa) = 15.03777 19.89421 17.46599
# Shear Modulus (GPa) = 18.87105 23.34134 21.10619
#
# Velocity S-wave (km/s) = 2.96473 3.29723 3.13539
# Velocity P-wave (km/s) = 4.32708 4.87461 4.60898
#
# Compressibility (1/GPa) = 0.06649922
#
# Stress axis : x y z
#
# Youngs Moduli (GPa) = 38.81479 38.81479 91.51092
#
# Poissons Ratio (x) = -0.21377 0.15946
# Poissons Ratio (y) = -0.21377 0.15946
# Poissons Ratio (z) = 0.06764 0.06764
#
# Static dielectric constant tensor:
#      x y z
#    x 3.743580 0.000000 0.000000 
#    y 0.000000 3.743580 0.000000 
#    z 0.000000 0.000000 4.026880 
# 
# 
# High freq. dielectric constant tensor:
#      x y z
#    x 1.829290 0.000000 0.000000 
#    y 0.000000 1.829290 0.000000 
#    z 0.000000 0.000000 1.840450 
# 
# From -- ./inp_files/3621.got.cif
#   From: 2010.03.12/outbox.cif.g09.slc.cpg/sg127_2_cif.got.tgz:3621.got - 2010.04.06 17:03:15.
