data_PCOD8314429
_publ_section_title
;
Structure prediction by ZEFSAII (Michael W. Deem and Ramdas Pophale) SiO2 
 PCOD8314429
Probable space group: P 4/M B M
;
_chemical_formula_sum "Si O2"
_cell_formula_units_Z 96
_cell_length_a 23.566905
_cell_length_b 23.566905
_cell_length_c 9.155216
_cell_angle_alpha 90.000000
_cell_angle_beta 90.000000
_cell_angle_gamma 90.000000
_cell_volume 5084.797914
_symmetry_space_group_name_H-M "P 4/M B M"
_symmetry_group_IT_number 127
_symmetry_cell_setting 'tetragonal'
loop_
_space_group_symop_operation_xyz
x,y,z
-y,x,z
-x,-y,z
y,-x,z
1/2+x,1/2-y,-z
1/2-x,1/2+y,-z
1/2+y,1/2+x,-z
1/2-y,1/2-x,-z
-x,-y,-z
y,-x,-z
x,y,-z
-y,x,-z
1/2-x,1/2+y,z
1/2+x,1/2-y,z
1/2-y,1/2-x,z
1/2+y,1/2+x,z
loop_
_atom_site_type_symbol
_atom_site_label
_atom_site_fract_x
_atom_site_fract_y
_atom_site_fract_z
Si Si1 0.717938 0.308467 0.331083
Si Si2 0.860906 0.730341 0.829664
Si Si3 0.998745 0.592440 0.331961
Si Si4 0.936876 0.200243 0.328728
Si Si5 0.987965 0.707565 0.172951
Si Si6 0.965245 0.086130 0.168874
O O1 0.706548 0.297680 0.500000
O O2 0.774694 0.274694 0.279406
O O3 0.662331 0.286478 0.247849
O O4 0.724805 0.374463 0.296383
O O5 0.823414 0.676587 0.783490
O O6 0.923715 0.716986 0.776660
O O7 0.858528 0.742499 0.000000
O O8 0.994035 0.611627 0.500000
O O9 0.053282 0.553282 0.308998
O O10 0.942223 0.557778 0.285723
O O11 0.008173 0.646899 0.231465
O O12 0.950911 0.201160 0.500000
O O13 0.943409 0.136297 0.271627
O O14 0.978156 0.241134 0.242400
O O15 0.995742 0.708551 0.000000
O O16 0.030967 0.072785 0.202960
O O17 0.958464 0.103926 0.000000
#
# Coordination Sequence:
#
# PCOD8314429 Si02
#       6
#    16  16  16  16  16  16
#     4   9  20  39  59  79 107 145 187 230 278 333
#     4   9  19  36  58  83 110 142 182 231 281 329
#     4   9  19  37  60  85 115 153 194 237 289 345
#     4  11  24  38  56  85 117 152 194 240 289 342
#     4  11  23  37  55  84 118 152 191 235 285 341
#     4   9  20  40  63  85 112 149 190 234 292 356
#
# _framework density 18.879807
#
# number of rings (size 3 to 8) (size 9 to 14) (size 15 to 20)
#    0.000    2.333    0.000    2.500    2.333    5.333 
#    0.000    5.000    0.000    0.000    0.000    0.000 
#    0.000    0.000    0.000    0.000    0.000    0.000 
#
# Total GULP energy -1190598.318699 kJ/mol
# GULP energy per Si atom -12402.065820 kJ/mol
# Density = 1.883684 g / cm^3
# Si number density = 18.879807 Si / 1000 Ang^3
#
#
#
# Elastic Constant Matrix: (Units=GPa)
#
#
# Indices 1 2 3 4 5 6 
#
# 1 77.2946 48.6083 42.1735 0.0000 0.0000 0.0000
# 2 48.6083 77.2946 42.1735 0.0000 0.0000 0.0000
# 3 42.1735 42.1735 66.5087 0.0000 0.0000 0.0000
# 4 0.0000 0.0000 0.0000 227.8046 0.0000 0.0000
# 5 0.0000 0.0000 0.0000 0.0000 227.8046 0.0000
# 6 0.0000 0.0000 0.0000 0.0000 0.0000 21.9690
#
#
#
# Elastic Compliance Matrix: (Units=1/GPa)
#
#
# Indices 1 2 3 4 5 6 
#
# 1 0.024334 -0.010526 -0.008756 0.000000 0.000000 0.000000
# 2 -0.010526 0.024334 -0.008756 0.000000 0.000000 0.000000
# 3 -0.008756 -0.008756 0.026140 0.000000 0.000000 0.000000
# 4 0.000000 0.000000 0.000000 0.004390 0.000000 0.000000
# 5 0.000000 0.000000 0.000000 0.000000 0.004390 0.000000
# 6 0.000000 0.000000 0.000000 0.000000 0.000000 0.045519
#
#
# Mechanical properties :
#
#
# Convention : Reuss Voigt Hill
#
# Bulk Modulus (GPa) = 53.38164 54.11203 53.74684
# Shear Modulus (GPa) = 26.11961 101.39181 63.75571
#
# Velocity S-wave (km/s) = 3.72354 7.33624 5.81744
# Velocity P-wave (km/s) = 6.84267 10.02418 8.58214
#
# Compressibility (1/GPa) = 0.01873303
#
# Stress axis : x y z
#
# Youngs Moduli (GPa) = 41.09428 41.09428 38.25515
#
# Poissons Ratio (x) = 0.43254 0.33497
# Poissons Ratio (y) = 0.43254 0.33497
# Poissons Ratio (z) = 0.35983 0.35983
#
# Static dielectric constant tensor:
#      x y z
#    x 3.533090 0.000000 0.000000 
#    y 0.000000 3.533090 0.000000 
#    z 0.000000 0.000000 3.427390 
# 
# 
# High freq. dielectric constant tensor:
#      x y z
#    x 1.738460 0.000000 0.000000 
#    y 0.000000 1.738460 0.000000 
#    z 0.000000 0.000000 1.732780 
# 
# From -- ./inp_files/2024.got.cif
#   From: 2010.03.12/outbox.cif.g09.slc.cpg/sg127_2_cif.got.tgz:2024.got - 2010.04.06 17:03:15.
