data_PCOD8314801
_publ_section_title
;
Structure prediction by ZEFSAII (Michael W. Deem and Ramdas Pophale) SiO2 
 PCOD8314801
Probable space group: P 4/M N C
;
_chemical_formula_sum "Si O2"
_cell_formula_units_Z 64
_cell_length_a 14.683028
_cell_length_b 14.683028
_cell_length_c 13.999030
_cell_angle_alpha 90.000000
_cell_angle_beta 90.000000
_cell_angle_gamma 90.000000
_cell_volume 3018.069234
_symmetry_space_group_name_H-M "P 4/M N C"
_symmetry_group_IT_number 128
_symmetry_cell_setting 'tetragonal'
loop_
_space_group_symop_operation_xyz
x,y,z
-y,x,z
-x,-y,z
y,-x,z
1/2+x,1/2-y,1/2-z
1/2-x,1/2+y,1/2-z
1/2+y,1/2+x,1/2-z
1/2-y,1/2-x,1/2-z
-x,-y,-z
y,-x,-z
x,y,-z
-y,x,-z
1/2-x,1/2+y,1/2+z
1/2+x,1/2-y,1/2+z
1/2-y,1/2-x,1/2+z
1/2+y,1/2+x,1/2+z
loop_
_atom_site_type_symbol
_atom_site_label
_atom_site_fract_x
_atom_site_fract_y
_atom_site_fract_z
Si Si1 0.078063 0.231112 0.105667
Si Si2 0.391388 0.272460 0.306164
Si Si3 0.560076 0.081432 0.861556
Si Si4 0.604980 0.801635 0.891192
O O1 0.167102 0.190369 0.154623
O O2 0.088867 0.339780 0.095069
O O3 0.991868 0.194882 0.165697
O O4 0.068953 0.190117 0.000000
O O5 0.381209 0.275218 0.190586
O O6 0.383316 0.171987 0.355766
O O7 0.569838 0.069838 0.750000
O O8 0.501236 0.170737 0.886761
O O9 0.500000 0.000000 0.906842
O O10 0.629322 0.769666 0.000000
#
# Coordination Sequence:
#
# PCOD8314801 Si02
#       4
#    16  16  16  16
#     4  12  24  41  66  93 129 175 214 266 327 386
#     4  11  25  42  60  93 131 167 224 270 314 392
#     4  11  20  38  65 100 131 161 208 269 330 390
#     4  11  22  40  64  93 130 168 210 271 335 389
#
# _framework density 21.205611000000001
#
# number of rings (size 3 to 8) (size 9 to 14) (size 15 to 20)
#    0.000    0.750    5.000    4.500    3.500    1.500 
#    0.000    2.500    0.000    0.000    0.000    1.750 
#    0.000    0.000    0.000    0.000    0.000    0.000 
#
# Total GULP energy -793212.130189 kJ/mol
# GULP energy per Si atom -12393.939534 kJ/mol
# Density = 2.115735 g / cm^3
# Si number density = 21.205611 Si / 1000 Ang^3
#
#
#
# Elastic Constant Matrix: (Units=GPa)
#
#
# Indices 1 2 3 4 5 6 
#
# 1 68.7497 59.3563 36.2243 0.0000 0.0000 0.0000
# 2 59.3563 68.7497 36.2243 0.0000 0.0000 0.0000
# 3 36.2243 36.2243 215.1043 0.0000 0.0000 0.0000
# 4 0.0000 0.0000 0.0000 17.5829 0.0000 0.0000
# 5 0.0000 0.0000 0.0000 0.0000 17.5829 0.0000
# 6 0.0000 0.0000 0.0000 0.0000 0.0000 35.6059
#
#
#
# Elastic Compliance Matrix: (Units=1/GPa)
#
#
# Indices 1 2 3 4 5 6 
#
# 1 0.057543 -0.048915 -0.001453 0.000000 0.000000 0.000000
# 2 -0.048915 0.057543 -0.001453 0.000000 0.000000 0.000000
# 3 -0.001453 -0.001453 0.005138 0.000000 0.000000 0.000000
# 4 0.000000 0.000000 0.000000 0.056874 0.000000 0.000000
# 5 0.000000 0.000000 0.000000 0.000000 0.056874 0.000000
# 6 0.000000 0.000000 0.000000 0.000000 0.000000 0.028085
#
#
# Mechanical properties :
#
#
# Convention : Reuss Voigt Hill
#
# Bulk Modulus (GPa) = 60.30652 68.46820 64.38736
# Shear Modulus (GPa) = 13.46890 28.87424 21.17157
#
# Velocity S-wave (km/s) = 2.52297 3.69403 3.16317
# Velocity P-wave (km/s) = 6.08176 7.11002 6.61590
#
# Compressibility (1/GPa) = 0.01658195
#
# Stress axis : x y z
#
# Youngs Moduli (GPa) = 17.37835 17.37835 194.61814
#
# Poissons Ratio (x) = 0.85006 0.28277
# Poissons Ratio (y) = 0.85006 0.28277
# Poissons Ratio (z) = 0.02525 0.02525
#
# Static dielectric constant tensor:
#      x y z
#    x 3.643320 0.000000 0.000000 
#    y 0.000000 3.643320 0.000000 
#    z 0.000000 0.000000 4.053070 
# 
# 
# High freq. dielectric constant tensor:
#      x y z
#    x 1.807330 0.000000 0.000000 
#    y 0.000000 1.807330 0.000000 
#    z 0.000000 0.000000 1.852320 
# 
# From -- ./inp_files/3520.got.cif
#   From: 2010.03.12/outbox.cif.g09.slc.cpg/sg128_2_cif.got.tgz:3520.got - 2010.04.06 17:11:05.
