data_PCOD8314492
_publ_section_title
;
Structure prediction by ZEFSAII (Michael W. Deem and Ramdas Pophale) SiO2 
 PCOD8314492
Probable space group: P 4/M N C
;
_chemical_formula_sum "Si O2"
_cell_formula_units_Z 72
_cell_length_a 12.163752
_cell_length_b 12.163752
_cell_length_c 25.443903
_cell_angle_alpha 90.000000
_cell_angle_beta 90.000000
_cell_angle_gamma 90.000000
_cell_volume 3764.600063
_symmetry_space_group_name_H-M "P 4/M N C"
_symmetry_group_IT_number 128
_symmetry_cell_setting 'tetragonal'
loop_
_space_group_symop_operation_xyz
x,y,z
-y,x,z
-x,-y,z
y,-x,z
1/2+x,1/2-y,1/2-z
1/2-x,1/2+y,1/2-z
1/2+y,1/2+x,1/2-z
1/2-y,1/2-x,1/2-z
-x,-y,-z
y,-x,-z
x,y,-z
-y,x,-z
1/2-x,1/2+y,1/2+z
1/2+x,1/2-y,1/2+z
1/2-y,1/2-x,1/2+z
1/2+y,1/2+x,1/2+z
loop_
_atom_site_type_symbol
_atom_site_label
_atom_site_fract_x
_atom_site_fract_y
_atom_site_fract_z
Si Si1 0.169378 0.939228 0.500000
Si Si2 0.336055 0.055907 0.058396
Si Si3 0.429834 0.889715 0.306708
Si Si4 0.950622 0.659481 0.413010
Si Si5 0.516993 0.679117 0.647332
O O1 0.139474 0.066529 0.500000
O O2 0.233377 0.915410 0.445573
O O3 0.416401 0.143839 0.087612
O O4 0.398936 0.940898 0.055048
O O5 0.220567 0.037699 0.088002
O O6 0.309441 0.099090 0.000000
O O7 0.372848 0.872848 0.250000
O O8 0.339017 0.900247 0.353518
O O9 0.512368 0.786980 0.315706
O O10 0.500000 0.000000 0.307933
O O11 0.401878 0.617768 0.658438
#
# Coordination Sequence:
#
# PCOD8314492 Si02
#       5
#     8  16  16  16  16
#     4  11  24  37  52  84 126 165 206 257 310 362
#     4  10  17  32  57  84 110 149 193 232 287 364
#     4  10  20  40  64  89 114 153 210 259 296 368
#     4  10  17  36  57  81 115 151 194 254 299 356
#     4  10  22  39  56  85 126 157 188 247 314 362
#
# _framework density 19.125537999999999
#
# number of rings (size 3 to 8) (size 9 to 14) (size 15 to 20)
#    0.000    1.889    6.667    0.667    0.000    4.444 
#    4.000    1.111    0.000    2.667    0.000    0.000 
#    0.000    0.000    0.000    0.000    0.000    0.000 
#
# Total GULP energy -892102.198593 kJ/mol
# GULP energy per Si atom -12390.308314 kJ/mol
# Density = 1.908201 g / cm^3
# Si number density = 19.125538 Si / 1000 Ang^3
#
#
#
# Elastic Constant Matrix: (Units=GPa)
#
#
# Indices 1 2 3 4 5 6 
#
# 1 67.0242 5.4739 15.6470 0.0000 0.0000 0.0000
# 2 5.4739 67.0242 15.6470 0.0000 0.0000 0.0000
# 3 15.6470 15.6470 148.2930 0.0000 0.0000 0.0000
# 4 0.0000 0.0000 0.0000 15.1772 0.0000 0.0000
# 5 0.0000 0.0000 0.0000 0.0000 15.1772 0.0000
# 6 0.0000 0.0000 0.0000 0.0000 0.0000 14.6498
#
#
#
# Elastic Compliance Matrix: (Units=1/GPa)
#
#
# Indices 1 2 3 4 5 6 
#
# 1 0.015349 -0.000898 -0.001525 0.000000 0.000000 0.000000
# 2 -0.000898 0.015349 -0.001525 0.000000 0.000000 0.000000
# 3 -0.001525 -0.001525 0.007065 0.000000 0.000000 0.000000
# 4 0.000000 0.000000 0.000000 0.065888 0.000000 0.000000
# 5 0.000000 0.000000 0.000000 0.000000 0.065888 0.000000
# 6 0.000000 0.000000 0.000000 0.000000 0.000000 0.068260
#
#
# Mechanical properties :
#
#
# Convention : Reuss Voigt Hill
#
# Bulk Modulus (GPa) = 33.47941 39.54193 36.51067
# Shear Modulus (GPa) = 19.55790 25.37243 22.46517
#
# Velocity S-wave (km/s) = 3.20129 3.64624 3.43099
# Velocity P-wave (km/s) = 5.58636 6.20053 5.90144
#
# Compressibility (1/GPa) = 0.02986910
#
# Stress axis : x y z
#
# Youngs Moduli (GPa) = 65.14969 65.14969 141.53887
#
# Poissons Ratio (x) = 0.05848 0.21583
# Poissons Ratio (y) = 0.05848 0.21583
# Poissons Ratio (z) = 0.09934 0.09934
#
# Static dielectric constant tensor:
#      x y z
#    x 3.379940 0.000000 0.000000 
#    y 0.000000 3.379940 0.000000 
#    z 0.000000 0.000000 3.760990 
# 
# 
# High freq. dielectric constant tensor:
#      x y z
#    x 1.728760 0.000000 0.000000 
#    y 0.000000 1.728760 0.000000 
#    z 0.000000 0.000000 1.736230 
# 
# From -- ./inp_files/6788.got.cif
#   From: 2010.03.12/outbox.cif.g09.slc.cpg/sg128_4_cif.got.tgz:6788.got - 2010.04.06 17:11:05.
