data_PCOD8314513
_publ_section_title
;
Structure prediction by ZEFSAII (Michael W. Deem and Ramdas Pophale) SiO2 
 PCOD8314513
Probable space group: P 4/M N C
;
_chemical_formula_sum "Si O2"
_cell_formula_units_Z 64
_cell_length_a 21.595962
_cell_length_b 21.595962
_cell_length_c 7.581455
_cell_angle_alpha 90.000000
_cell_angle_beta 90.000000
_cell_angle_gamma 90.000000
_cell_volume 3535.881247
_symmetry_space_group_name_H-M "P 4/M N C"
_symmetry_group_IT_number 128
_symmetry_cell_setting 'tetragonal'
loop_
_space_group_symop_operation_xyz
x,y,z
-y,x,z
-x,-y,z
y,-x,z
1/2+x,1/2-y,1/2-z
1/2-x,1/2+y,1/2-z
1/2+y,1/2+x,1/2-z
1/2-y,1/2-x,1/2-z
-x,-y,-z
y,-x,-z
x,y,-z
-y,x,-z
1/2-x,1/2+y,1/2+z
1/2+x,1/2-y,1/2+z
1/2-y,1/2-x,1/2+z
1/2+y,1/2+x,1/2+z
loop_
_atom_site_type_symbol
_atom_site_label
_atom_site_fract_x
_atom_site_fract_y
_atom_site_fract_z
Si Si1 0.772259 0.534680 0.295251
Si Si2 0.636868 0.634714 0.000000
Si Si3 0.682772 0.499278 0.000000
Si Si4 0.728841 0.670285 0.702314
Si Si5 0.996587 0.402820 0.202189
O O1 0.762097 0.516662 0.500000
O O2 0.721692 0.499559 0.180081
O O3 0.769788 0.608688 0.268844
O O4 0.837204 0.511621 0.209648
O O5 0.668807 0.665803 0.828012
O O6 0.640617 0.560434 0.000000
O O7 0.563729 0.644710 0.000000
O O8 0.770474 0.729527 0.750000
O O9 0.706005 0.675568 0.500000
O O10 0.928279 0.428279 0.250000
O O11 0.046798 0.453203 0.250000
O O12 0.000677 0.388542 0.000000
#
# Coordination Sequence:
#
# PCOD8314513 Si02
#       5
#    16   8   8  16  16
#     4   9  20  34  53  80 107 143 180 226 276 321
#     4  10  22  39  58  90 108 152 180 229 284 330
#     4  10  22  39  62  77 112 136 182 230 284 340
#     4  10  18  33  58  85 115 140 183 231 273 325
#     4  10  19  29  45  70 104 144 187 220 256 309
#
# _framework density 18.100154
#
# number of rings (size 3 to 8) (size 9 to 14) (size 15 to 20)
#    0.000    2.250    1.250    2.250    3.500    1.250 
#    0.000    1.250    0.000    0.000    0.000    7.000 
#    0.000    0.000    0.000    0.000    0.000    0.000 
#
# Total GULP energy -793255.064368 kJ/mol
# GULP energy per Si atom -12394.610381 kJ/mol
# Density = 1.805896 g / cm^3
# Si number density = 18.100154 Si / 1000 Ang^3
#
#
#
# Elastic Constant Matrix: (Units=GPa)
#
#
# Indices 1 2 3 4 5 6 
#
# 1 105.3358 65.3289 40.9019 0.0000 0.0000 0.0000
# 2 65.3289 105.3306 40.8989 0.0000 0.0000 0.0000
# 3 40.9019 40.8989 105.3657 0.0000 0.0000 0.0000
# 4 0.0000 0.0000 0.0000 21.2826 0.0000 0.0000
# 5 0.0000 0.0000 0.0000 0.0000 21.2826 0.0000
# 6 0.0000 0.0000 0.0000 0.0000 0.0000 28.0914
#
#
#
# Elastic Compliance Matrix: (Units=1/GPa)
#
#
# Indices 1 2 3 4 5 6 
#
# 1 0.016098 -0.008899 -0.002795 0.000000 0.000000 0.000000
# 2 -0.008899 0.016098 -0.002794 0.000000 0.000000 0.000000
# 3 -0.002795 -0.002794 0.011660 0.000000 0.000000 0.000000
# 4 0.000000 0.000000 0.000000 0.046987 0.000000 0.000000
# 5 0.000000 0.000000 0.000000 0.000000 0.046987 0.000000
# 6 0.000000 0.000000 0.000000 0.000000 0.000000 0.035598
#
#
# Mechanical properties :
#
#
# Convention : Reuss Voigt Hill
#
# Bulk Modulus (GPa) = 67.20290 67.81017 67.50653
# Shear Modulus (GPa) = 24.11216 25.39150 24.75183
#
# Velocity S-wave (km/s) = 3.65383 3.74950 3.70197
# Velocity P-wave (km/s) = 7.41684 7.50268 7.45989
#
# Compressibility (1/GPa) = 0.01488031
#
# Stress axis : x y z
#
# Youngs Moduli (GPa) = 62.12005 62.11809 85.76160
#
# Poissons Ratio (x) = 0.55280 0.23968
# Poissons Ratio (y) = 0.55282 0.23963
# Poissons Ratio (z) = 0.17361 0.17357
#
# Static dielectric constant tensor:
#      x y z
#    x 3.127820 0.000000 0.000000 
#    y 0.000000 3.127830 0.000000 
#    z 0.000000 0.000000 3.630970 
# 
# 
# High freq. dielectric constant tensor:
#      x y z
#    x 1.683110 0.000000 0.000000 
#    y 0.000000 1.683110 0.000000 
#    z 0.000000 0.000000 1.719050 
# 
# From -- ./inp_files/1070.got.cif
#   From: 2010.03.12/outbox.cif.g09.slc.cpg/sg128_1_cif.got.tgz:1070.got - 2010.04.06 17:11:05.
