data_PCOD8314386
_publ_section_title
;
Structure prediction by ZEFSAII (Michael W. Deem and Ramdas Pophale) SiO2 
 PCOD8314386
Probable space group: P 4/M B M
;
_chemical_formula_sum "Si O2"
_cell_formula_units_Z 72
_cell_length_a 13.789446
_cell_length_b 13.789446
_cell_length_c 22.370427
_cell_angle_alpha 90.000000
_cell_angle_beta 90.000000
_cell_angle_gamma 90.000000
_cell_volume 4253.710319
_symmetry_space_group_name_H-M "P 4/M B M"
_symmetry_group_IT_number 127
_symmetry_cell_setting 'tetragonal'
loop_
_space_group_symop_operation_xyz
x,y,z
-y,x,z
-x,-y,z
y,-x,z
1/2+x,1/2-y,-z
1/2-x,1/2+y,-z
1/2+y,1/2+x,-z
1/2-y,1/2-x,-z
-x,-y,-z
y,-x,-z
x,y,-z
-y,x,-z
1/2-x,1/2+y,z
1/2+x,1/2-y,z
1/2-y,1/2-x,z
1/2+y,1/2+x,z
loop_
_atom_site_type_symbol
_atom_site_label
_atom_site_fract_x
_atom_site_fract_y
_atom_site_fract_z
Si Si1 0.898013 0.236379 0.125134
Si Si2 0.851497 0.062715 0.692158
Si Si3 0.256665 0.401943 0.186961
Si Si4 0.562419 0.352329 0.436926
Si Si5 0.053262 0.848384 0.000000
O O1 0.825358 0.325358 0.129953
O O2 0.851246 0.139639 0.153292
O O3 0.992137 0.265913 0.162359
O O4 0.925200 0.217666 0.056849
O O5 0.775589 0.094992 0.742185
O O6 0.800735 0.084286 0.626918
O O7 0.949383 0.124648 0.699190
O O8 0.163603 0.336398 0.173875
O O9 0.624089 0.449651 0.437350
O O10 0.586703 0.295033 0.500000
O O11 0.122305 0.941314 0.000000
#
# Coordination Sequence:
#
# PCOD8314386 Si02
#       5
#    16  16  16  16   8
#     4  11  23  39  57  79 109 139 168 210 258 308
#     4   9  15  25  46  71  97 131 169 214 263 308
#     4  11  22  35  54  77 104 138 176 217 261 307
#     4   7  10  17  32  60  95 127 160 200 253 312
#     4  11  21  36  62  87 106 134 170 213 256 298
#
# _framework density 16.926399
#
# number of rings (size 3 to 8) (size 9 to 14) (size 15 to 20)
#    0.000    2.333    4.444    2.333    0.000    0.889 
#    0.000    0.556    0.000    2.000    0.000    0.000 
#    0.000    0.889    0.000    2.000    0.000    0.000 
#
# Total GULP energy -892059.799731 kJ/mol
# GULP energy per Si atom -12389.719441 kJ/mol
# Density = 1.688787 g / cm^3
# Si number density = 16.926399 Si / 1000 Ang^3
#
#
#
# Elastic Constant Matrix: (Units=GPa)
#
#
# Indices 1 2 3 4 5 6 
#
# 1 53.8650 18.8335 19.2569 0.0000 0.0000 0.0000
# 2 18.8335 53.8650 19.2569 0.0000 0.0000 0.0000
# 3 19.2569 19.2569 138.0827 0.0000 0.0000 0.0000
# 4 0.0000 0.0000 0.0000 9.5022 0.0000 0.0000
# 5 0.0000 0.0000 0.0000 0.0000 9.5022 0.0000
# 6 0.0000 0.0000 0.0000 0.0000 0.0000 11.5521
#
#
#
# Elastic Compliance Matrix: (Units=1/GPa)
#
#
# Indices 1 2 3 4 5 6 
#
# 1 0.021699 -0.006846 -0.002071 0.000000 0.000000 0.000000
# 2 -0.006846 0.021699 -0.002071 0.000000 0.000000 0.000000
# 3 -0.002071 -0.002071 0.007820 0.000000 0.000000 0.000000
# 4 0.000000 0.000000 0.000000 0.105238 0.000000 0.000000
# 5 0.000000 0.000000 0.000000 0.000000 0.105238 0.000000
# 6 0.000000 0.000000 0.000000 0.000000 0.000000 0.086564
#
#
# Mechanical properties :
#
#
# Convention : Reuss Voigt Hill
#
# Bulk Modulus (GPa) = 34.19984 40.05639 37.12812
# Shear Modulus (GPa) = 13.15845 18.67569 15.91707
#
# Velocity S-wave (km/s) = 2.79120 3.32527 3.06987
# Velocity P-wave (km/s) = 5.53504 6.20158 5.87777
#
# Compressibility (1/GPa) = 0.02923990
#
# Stress axis : x y z
#
# Youngs Moduli (GPa) = 46.08454 46.08454 127.88087
#
# Poissons Ratio (x) = 0.31552 0.26489
# Poissons Ratio (y) = 0.31552 0.26489
# Poissons Ratio (z) = 0.09546 0.09546
#
# Static dielectric constant tensor:
#      x y z
#    x 2.797890 0.000000 0.000000 
#    y 0.000000 2.797890 0.000000 
#    z 0.000000 0.000000 3.776030 
# 
# 
# High freq. dielectric constant tensor:
#      x y z
#    x 1.614280 0.000000 0.000000 
#    y 0.000000 1.614280 0.000000 
#    z 0.000000 0.000000 1.687310 
# 
# From -- ./inp_files/5615.got.cif
#   From: 2010.03.12/outbox.cif.g09.slc.cpg/sg127_3_cif.got.tgz:5615.got - 2010.04.06 17:03:15.
