data_PCOD8314064
_publ_section_title
;
Structure prediction by ZEFSAII (Michael W. Deem and Ramdas Pophale) SiO2 
 PCOD8314064
Probable space group: P 4/M B M
;
_chemical_formula_sum "Si O2"
_cell_formula_units_Z 104
_cell_length_a 16.890922
_cell_length_b 16.890922
_cell_length_c 19.997384
_cell_angle_alpha 90.000000
_cell_angle_beta 90.000000
_cell_angle_gamma 90.000000
_cell_volume 5705.318567
_symmetry_space_group_name_H-M "P 4/M B M"
_symmetry_group_IT_number 127
_symmetry_cell_setting 'tetragonal'
loop_
_space_group_symop_operation_xyz
x,y,z
-y,x,z
-x,-y,z
y,-x,z
1/2+x,1/2-y,-z
1/2-x,1/2+y,-z
1/2+y,1/2+x,-z
1/2-y,1/2-x,-z
-x,-y,-z
y,-x,-z
x,y,-z
-y,x,-z
1/2-x,1/2+y,z
1/2+x,1/2-y,z
1/2-y,1/2-x,z
1/2+y,1/2+x,z
loop_
_atom_site_type_symbol
_atom_site_label
_atom_site_fract_x
_atom_site_fract_y
_atom_site_fract_z
Si Si1 0.808284 0.820562 0.818897
Si Si2 0.446516 0.186371 0.573235
Si Si3 0.560106 0.060106 0.421965
Si Si4 0.103857 0.076242 0.922454
Si Si5 0.086738 0.717095 0.286559
Si Si6 0.062461 0.307503 0.201245
Si Si7 0.496311 0.129226 0.073303
O O1 0.734561 0.765440 0.841082
O O2 0.830168 0.876900 0.880597
O O3 0.788242 0.873676 0.754335
O O4 0.881985 0.768293 0.796509
O O5 0.448978 0.230086 0.500000
O O6 0.387272 0.112729 0.566993
O O7 0.533745 0.150818 0.593869
O O8 0.419394 0.242843 0.634662
O O9 0.548690 0.048690 0.500000
O O10 0.500000 0.000000 0.383836
O O11 0.016554 0.108645 0.904764
O O12 0.122497 0.090630 0.000000
O O13 0.137605 0.637605 0.278802
O O14 0.999292 0.697935 0.260884
O O15 0.111802 0.388199 0.210458
O O16 0.015563 0.306809 0.130234
O O17 0.412257 0.087744 0.089384
O O18 0.563756 0.063756 0.071631
O O19 0.492941 0.171029 0.000000
#
# Coordination Sequence:
#
# PCOD8314064 Si02
#       7
#    16  16   8  16  16  16  16
#     4  10  21  35  48  68 102 138 167 196 239 303
#     4   8  14  25  43  68  96 126 159 196 242 293
#     4   7  10  18  34  60  92 118 143 183 233 279
#     4   9  18  34  57  79  94 116 160 216 261 291
#     4  10  20  32  49  72  98 128 164 205 248 297
#     4  10  20  32  48  70  98 133 167 202 250 301
#     4   8  14  26  44  65  89 119 159 202 237 278
#
# _framework density 18.228605999999999
#
# number of rings (size 3 to 8) (size 9 to 14) (size 15 to 20)
#    0.000    3.000    0.000    3.231    1.077    1.846 
#    0.000    2.308    0.000    1.846    0.000    2.154 
#    0.000    0.000    0.000    4.769    0.000    2.000 
#
# Total GULP energy -1288566.254259 kJ/mol
# GULP energy per Si atom -12390.060137 kJ/mol
# Density = 1.818712 g / cm^3
# Si number density = 18.228606 Si / 1000 Ang^3
#
#
#
# Elastic Constant Matrix: (Units=GPa)
#
#
# Indices 1 2 3 4 5 6 
#
# 1 61.9162 34.7113 57.2790 0.0000 0.0000 0.0000
# 2 34.7113 61.9162 57.2790 0.0000 0.0000 0.0000
# 3 57.2790 57.2790 152.5530 0.0000 0.0000 0.0000
# 4 0.0000 0.0000 0.0000 18.4373 0.0000 0.0000
# 5 0.0000 0.0000 0.0000 0.0000 18.4373 0.0000
# 6 0.0000 0.0000 0.0000 0.0000 0.0000 22.1013
#
#
#
# Elastic Compliance Matrix: (Units=1/GPa)
#
#
# Indices 1 2 3 4 5 6 
#
# 1 0.027705 -0.009053 -0.007003 0.000000 0.000000 0.000000
# 2 -0.009053 0.027705 -0.007003 0.000000 0.000000 0.000000
# 3 -0.007003 -0.007003 0.011814 0.000000 0.000000 0.000000
# 4 0.000000 0.000000 0.000000 0.054238 0.000000 0.000000
# 5 0.000000 0.000000 0.000000 0.000000 0.054238 0.000000
# 6 0.000000 0.000000 0.000000 0.000000 0.000000 0.045246
#
#
# Mechanical properties :
#
#
# Convention : Reuss Voigt Hill
#
# Bulk Modulus (GPa) = 47.38253 63.88045 55.63149
# Shear Modulus (GPa) = 18.24154 20.26958 19.25556
#
# Velocity S-wave (km/s) = 3.16683 3.33823 3.25366
# Velocity P-wave (km/s) = 6.27867 7.06955 6.68581
#
# Compressibility (1/GPa) = 0.02110483
#
# Stress axis : x y z
#
# Youngs Moduli (GPa) = 36.09471 36.09471 84.64524
#
# Poissons Ratio (x) = 0.32677 0.59278
# Poissons Ratio (y) = 0.32677 0.59278
# Poissons Ratio (z) = 0.25278 0.25278
#
# Static dielectric constant tensor:
#      x y z
#    x 3.197700 0.000000 0.000000 
#    y 0.000000 3.197700 0.000000 
#    z 0.000000 0.000000 3.574670 
# 
# 
# High freq. dielectric constant tensor:
#      x y z
#    x 1.678870 0.000000 0.000000 
#    y 0.000000 1.678870 0.000000 
#    z 0.000000 0.000000 1.706760 
# 
# From -- ./inp_files/5196.got.cif
#   From: 2010.03.12/outbox.cif.g09.slc.cpg/sg127_3_cif.got.tgz:5196.got - 2010.04.06 17:03:15.
