data_PCOD8314968
_publ_section_title
;
Structure prediction by ZEFSAII (Michael W. Deem and Ramdas Pophale) SiO2 
 PCOD8314968
Probable space group: P 4/N M M
;
_chemical_formula_sum "Si O2"
_cell_formula_units_Z 128
_cell_length_a 23.839164
_cell_length_b 23.839164
_cell_length_c 13.274318
_cell_angle_alpha 90.000000
_cell_angle_beta 90.000000
_cell_angle_gamma 90.000000
_cell_volume 7543.871117
_symmetry_space_group_name_H-M "P 4/N M M"
_symmetry_group_IT_number 129
_symmetry_cell_setting 'tetragonal'
loop_
_space_group_symop_operation_xyz
x,y,z
1/2-y,x,z
1/2-x,1/2-y,z
y,1/2-x,z
1/2+x,-y,-z
-x,1/2+y,-z
1/2+y,1/2+x,-z
-y,-x,-z
-x,-y,-z
1/2+y,-x,-z
1/2+x,1/2+y,-z
-y,1/2+x,-z
1/2-x,y,z
x,1/2-y,z
1/2-y,1/2-x,z
y,x,z
loop_
_atom_site_type_symbol
_atom_site_label
_atom_site_fract_x
_atom_site_fract_y
_atom_site_fract_z
Si Si1 0.608818 0.314196 0.562231
Si Si2 0.890614 0.397073 0.742582
Si Si3 0.813087 0.007142 0.002549
Si Si4 0.813434 0.474581 0.615397
Si Si5 0.312525 0.870378 0.087469
Si Si6 0.019607 0.926270 0.099291
Si Si7 0.599804 0.687948 0.874570
Si Si8 0.901072 0.687078 0.636392
O O1 0.662295 0.337706 0.500000
O O2 0.621948 0.250000 0.594735
O O3 0.592114 0.352479 0.657349
O O4 0.554868 0.317003 0.491785
O O5 0.854307 0.447402 0.696886
O O6 0.854207 0.360350 0.820139
O O7 0.942674 0.426521 0.799770
O O8 0.750000 0.000470 0.049217
O O9 0.861580 0.999740 0.086161
O O10 0.819766 0.066852 0.951231
O O11 0.824712 0.961590 0.916626
O O12 0.750000 0.471939 0.659688
O O13 0.831237 0.538520 0.594444
O O14 0.250000 0.858214 0.125563
O O15 0.326756 0.826756 0.000000
O O16 0.053996 0.946005 0.000000
O O17 0.966305 0.966305 0.117566
O O18 0.620187 0.750000 0.906002
O O19 0.644028 0.644028 0.920822
O O20 0.596376 0.682250 0.755849
O O21 0.885237 0.750000 0.602485
O O22 0.854356 0.645645 0.590752
#
# Coordination Sequence:
#
# PCOD8314968 Si02
#       8
#    16  16  16  16  16  16  16  16
#     4   9  20  36  56  76 100 132 170 217 264 310
#     4  11  19  34  52  75  98 132 171 211 259 308
#     4  10  18  32  50  67  93 132 173 211 245 295
#     4   9  18  34  52  73  98 128 168 207 249 304
#     4  11  21  34  49  69 101 133 168 208 250 299
#     4  11  22  35  50  75 107 138 172 217 265 308
#     4   9  17  27  42  67  95 127 164 199 241 292
#     4   9  17  28  46  71  98 127 158 193 236 291
#
# _framework density 16.967417000000001
#
# number of rings (size 3 to 8) (size 9 to 14) (size 15 to 20)
#    0.000    2.125    2.500    1.500    0.000    4.500 
#    0.000    1.875    0.000    2.250    0.000    0.000 
#    0.000    0.000    0.000    0.000    0.000    3.375 
#
# Total GULP energy -1586932.729369 kJ/mol
# GULP energy per Si atom -12397.911948 kJ/mol
# Density = 1.692880 g / cm^3
# Si number density = 16.967417 Si / 1000 Ang^3
#
#
#
# Elastic Constant Matrix: (Units=GPa)
#
#
# Indices 1 2 3 4 5 6 
#
# 1 94.8080 53.1469 29.4324 0.0000 0.0000 0.0000
# 2 53.1469 94.8087 29.4324 0.0000 0.0000 0.0000
# 3 29.4324 29.4324 57.7670 0.0000 0.0000 0.0000
# 4 0.0000 0.0000 0.0000 21.7913 0.0000 0.0000
# 5 0.0000 0.0000 0.0000 0.0000 21.7913 0.0000
# 6 0.0000 0.0000 0.0000 0.0000 0.0000 25.9131
#
#
#
# Elastic Compliance Matrix: (Units=1/GPa)
#
#
# Indices 1 2 3 4 5 6 
#
# 1 0.016240 -0.007763 -0.004319 0.000000 0.000000 0.000000
# 2 -0.007763 0.016240 -0.004319 0.000000 0.000000 0.000000
# 3 -0.004319 -0.004319 0.021712 0.000000 0.000000 0.000000
# 4 0.000000 0.000000 0.000000 0.045890 0.000000 0.000000
# 5 0.000000 0.000000 0.000000 0.000000 0.045890 0.000000
# 6 0.000000 0.000000 0.000000 0.000000 0.000000 0.038591
#
#
# Mechanical properties :
#
#
# Convention : Reuss Voigt Hill
#
# Bulk Modulus (GPa) = 46.75093 52.37857 49.56475
# Shear Modulus (GPa) = 22.27221 22.92394 22.59808
#
# Velocity S-wave (km/s) = 3.62698 3.67966 3.65341
# Velocity P-wave (km/s) = 6.71961 6.99931 6.86088
#
# Compressibility (1/GPa) = 0.02138995
#
# Stress axis : x y z
#
# Youngs Moduli (GPa) = 61.57574 61.57627 46.05724
#
# Poissons Ratio (x) = 0.47801 0.19893
# Poissons Ratio (y) = 0.47801 0.19893
# Poissons Ratio (z) = 0.26596 0.26595
#
# Static dielectric constant tensor:
#      x y z
#    x 3.366830 0.000000 0.000000 
#    y 0.000000 3.366830 0.000000 
#    z 0.000000 0.000000 2.961700 
# 
# 
# High freq. dielectric constant tensor:
#      x y z
#    x 1.658690 0.000000 0.000000 
#    y 0.000000 1.658690 0.000000 
#    z 0.000000 0.000000 1.621030 
# 
# From -- ./inp_files/4227.got.cif
#   From: 2010.03.12/outbox.cif.g09.slc.cpg/sg129_3_cif.got.tgz:4227.got - 2010.04.06 17:19:44.
