data_PCOD8314459
_publ_section_title
;
Structure prediction by ZEFSAII (Michael W. Deem and Ramdas Pophale) SiO2 
 PCOD8314459
Probable space group: P 4/M B M
;
_chemical_formula_sum "Si O2"
_cell_formula_units_Z 72
_cell_length_a 17.418886
_cell_length_b 17.418886
_cell_length_c 13.172753
_cell_angle_alpha 90.000000
_cell_angle_beta 90.000000
_cell_angle_gamma 90.000000
_cell_volume 3996.844962
_symmetry_space_group_name_H-M "P 4/M B M"
_symmetry_group_IT_number 127
_symmetry_cell_setting 'tetragonal'
loop_
_space_group_symop_operation_xyz
x,y,z
-y,x,z
-x,-y,z
y,-x,z
1/2+x,1/2-y,-z
1/2-x,1/2+y,-z
1/2+y,1/2+x,-z
1/2-y,1/2-x,-z
-x,-y,-z
y,-x,-z
x,y,-z
-y,x,-z
1/2-x,1/2+y,z
1/2+x,1/2-y,z
1/2-y,1/2-x,z
1/2+y,1/2+x,z
loop_
_atom_site_type_symbol
_atom_site_label
_atom_site_fract_x
_atom_site_fract_y
_atom_site_fract_z
Si Si1 0.731915 0.895467 0.111584
Si Si2 0.724213 0.648144 0.111737
Si Si3 0.023602 0.277395 0.730554
Si Si4 0.500743 0.378397 0.619909
Si Si5 0.935793 0.564208 0.620691
O O1 0.672148 0.827853 0.111148
O O2 0.815863 0.859683 0.136587
O O3 0.703366 0.954691 0.194735
O O4 0.734217 0.934754 0.000000
O O5 0.784368 0.715633 0.105247
O O6 0.749016 0.593716 0.202067
O O7 0.721100 0.607329 0.000000
O O8 0.999521 0.208628 0.657177
O O9 0.041154 0.353396 0.666163
O O10 0.576333 0.424621 0.658129
O O11 0.500893 0.375725 0.500000
O O12 0.927638 0.572363 0.500000
O O13 0.000000 0.500000 0.648333
#
# Coordination Sequence:
#
# PCOD8314459 Si02
#       5
#    16  16  16  16   8
#     4   9  19  34  52  77 110 140 170 215 266 321
#     4   9  18  33  51  77 109 137 169 213 267 319
#     4  12  19  34  57  81  99 145 188 223 266 336
#     4   9  19  35  55  81 110 137 172 225 284 336
#     4  11  26  42  53  73 109 149 192 247 295 316
#
# _framework density 18.014209000000001
#
# number of rings (size 3 to 8) (size 9 to 14) (size 15 to 20)
#    0.000    2.111    1.111    5.333    0.000    0.000 
#    0.000    0.000    0.000    2.667    0.000    9.333 
#    0.000    0.000    0.000    0.000    0.000    0.000 
#
# Total GULP energy -892207.312509 kJ/mol
# GULP energy per Si atom -12391.768229 kJ/mol
# Density = 1.797321 g / cm^3
# Si number density = 18.014209 Si / 1000 Ang^3
#
#
#
# Elastic Constant Matrix: (Units=GPa)
#
#
# Indices 1 2 3 4 5 6 
#
# 1 80.5022 22.1400 38.0978 0.0000 0.0000 0.0000
# 2 22.1400 80.5017 38.0974 0.0000 0.0000 0.0000
# 3 38.0978 38.0974 89.4973 0.0000 0.0000 0.0000
# 4 0.0000 0.0000 0.0000 36.2877 0.0000 0.0000
# 5 0.0000 0.0000 0.0000 0.0000 36.2877 0.0000
# 6 0.0000 0.0000 0.0000 0.0000 0.0000 22.7641
#
#
#
# Elastic Compliance Matrix: (Units=1/GPa)
#
#
# Indices 1 2 3 4 5 6 
#
# 1 0.015689 -0.001445 -0.006063 0.000000 0.000000 0.000000
# 2 -0.001445 0.015689 -0.006063 0.000000 0.000000 0.000000
# 3 -0.006063 -0.006063 0.016336 0.000000 0.000000 0.000000
# 4 0.000000 0.000000 0.000000 0.027558 0.000000 0.000000
# 5 0.000000 0.000000 0.000000 0.000000 0.027558 0.000000
# 6 0.000000 0.000000 0.000000 0.000000 0.000000 0.043929
#
#
# Mechanical properties :
#
#
# Convention : Reuss Voigt Hill
#
# Bulk Modulus (GPa) = 48.61517 49.68574 49.15045
# Shear Modulus (GPa) = 27.66127 29.21230 28.43678
#
# Velocity S-wave (km/s) = 3.92283 4.03131 3.97744
# Velocity P-wave (km/s) = 6.89665 7.02210 6.95966
#
# Compressibility (1/GPa) = 0.02056971
#
# Stress axis : x y z
#
# Youngs Moduli (GPa) = 63.73884 63.73871 61.21596
#
# Poissons Ratio (x) = 0.09213 0.37117
# Poissons Ratio (y) = 0.09213 0.37117
# Poissons Ratio (z) = 0.38647 0.38646
#
# Static dielectric constant tensor:
#      x y z
#    x 3.391690 0.000000 0.000000 
#    y 0.000000 3.391700 0.000000 
#    z 0.000000 0.000000 3.570290 
# 
# 
# High freq. dielectric constant tensor:
#      x y z
#    x 1.696540 0.000000 0.000000 
#    y 0.000000 1.696540 0.000000 
#    z 0.000000 0.000000 1.703440 
# 
# From -- ./inp_files/3175.got.cif
#   From: 2010.03.12/outbox.cif.g09.slc.cpg/sg127_2_cif.got.tgz:3175.got - 2010.04.06 17:03:15.
