data_PCOD8314681
_publ_section_title
;
Structure prediction by ZEFSAII (Michael W. Deem and Ramdas Pophale) SiO2 
 PCOD8314681
Probable space group: P 4/M N C
;
_chemical_formula_sum "Si O2"
_cell_formula_units_Z 120
_cell_length_a 16.272746
_cell_length_b 16.272746
_cell_length_c 24.737560
_cell_angle_alpha 90.000000
_cell_angle_beta 90.000000
_cell_angle_gamma 90.000000
_cell_volume 6550.561854
_symmetry_space_group_name_H-M "P 4/M N C"
_symmetry_group_IT_number 128
_symmetry_cell_setting 'tetragonal'
loop_
_space_group_symop_operation_xyz
x,y,z
-y,x,z
-x,-y,z
y,-x,z
1/2+x,1/2-y,1/2-z
1/2-x,1/2+y,1/2-z
1/2+y,1/2+x,1/2-z
1/2-y,1/2-x,1/2-z
-x,-y,-z
y,-x,-z
x,y,-z
-y,x,-z
1/2-x,1/2+y,1/2+z
1/2+x,1/2-y,1/2+z
1/2-y,1/2-x,1/2+z
1/2+y,1/2+x,1/2+z
loop_
_atom_site_type_symbol
_atom_site_label
_atom_site_fract_x
_atom_site_fract_y
_atom_site_fract_z
Si Si1 0.580852 0.385263 0.000000
Si Si2 0.308271 0.779776 0.312595
Si Si3 0.004556 0.131555 0.936959
Si Si4 0.111320 0.191356 0.386596
Si Si5 0.483742 0.367979 0.738716
Si Si6 0.824759 0.351480 0.311079
Si Si7 0.715640 0.442348 0.159064
Si Si8 0.509466 0.247827 0.349921
O O1 0.613151 0.480420 0.000000
O O2 0.619880 0.333246 0.949838
O O3 0.309901 0.809901 0.250000
O O4 0.262479 0.833247 0.359003
O O5 0.266170 0.689681 0.311837
O O6 0.402181 0.781029 0.330427
O O7 0.009769 0.223236 0.912006
O O8 0.921908 0.083678 0.919354
O O9 0.004414 0.146029 0.000000
O O10 0.132782 0.108392 0.354073
O O11 0.018046 0.220978 0.381270
O O12 0.570753 0.409549 0.748555
O O13 0.475096 0.291714 0.779726
O O14 0.481164 0.331544 0.679304
O O15 0.857819 0.357819 0.250000
O O16 0.887111 0.296949 0.346905
O O17 0.822453 0.441584 0.338274
#
# Coordination Sequence:
#
# PCOD8314681 Si02
#       8
#     8  16  16  16  16  16  16  16
#     4  11  22  38  66 104 133 161 207 258 319 397
#     4  10  23  39  58  89 124 163 207 258 312 372
#     4   9  18  33  55  82 111 140 180 243 309 359
#     4  11  22  38  61  88 128 165 199 249 311 374
#     4  11  20  27  49  87 116 145 190 242 310 386
#     4  10  21  35  56  83 119 155 195 250 311 367
#     4  11  20  34  56  85 121 161 193 243 308 374
#     4  12  21  36  57  78 112 162 201 251 294 361
#
# _framework density 18.319039
#
# number of rings (size 3 to 8) (size 9 to 14) (size 15 to 20)
#    0.000    1.400    4.000    3.600    1.867    1.333 
#    1.200    0.667    7.333    0.000    0.000    0.933 
#    0.000    0.000    0.000    0.000    0.000    0.000 
#
# Total GULP energy -1486947.303455 kJ/mol
# GULP energy per Si atom -12391.227529 kJ/mol
# Density = 1.827734 g / cm^3
# Si number density = 18.319039 Si / 1000 Ang^3
#
#
#
# Elastic Constant Matrix: (Units=GPa)
#
#
# Indices 1 2 3 4 5 6 
#
# 1 88.2529 31.0579 36.2807 0.0000 0.0000 0.0000
# 2 31.0579 88.2529 36.2807 0.0000 0.0000 0.0000
# 3 36.2807 36.2807 88.5947 0.0000 0.0000 0.0000
# 4 0.0000 0.0000 0.0000 25.7750 0.0000 0.0000
# 5 0.0000 0.0000 0.0000 0.0000 25.7750 0.0000
# 6 0.0000 0.0000 0.0000 0.0000 0.0000 66.3301
#
#
#
# Elastic Compliance Matrix: (Units=1/GPa)
#
#
# Indices 1 2 3 4 5 6 
#
# 1 0.014323 -0.003161 -0.004571 0.000000 0.000000 0.000000
# 2 -0.003161 0.014323 -0.004571 0.000000 0.000000 0.000000
# 3 -0.004571 -0.004571 0.015031 0.000000 0.000000 0.000000
# 4 0.000000 0.000000 0.000000 0.038797 0.000000 0.000000
# 5 0.000000 0.000000 0.000000 0.000000 0.038797 0.000000
# 6 0.000000 0.000000 0.000000 0.000000 0.000000 0.015076
#
#
# Mechanical properties :
#
#
# Convention : Reuss Voigt Hill
#
# Bulk Modulus (GPa) = 52.43667 52.48212 52.45939
# Shear Modulus (GPa) = 29.88480 34.34144 32.11312
#
# Velocity S-wave (km/s) = 4.04338 4.33440 4.19142
# Velocity P-wave (km/s) = 7.10527 7.33215 7.21960
#
# Compressibility (1/GPa) = 0.01907063
#
# Stress axis : x y z
#
# Youngs Moduli (GPa) = 69.81958 69.81958 66.52986
#
# Poissons Ratio (x) = 0.22073 0.30409
# Poissons Ratio (y) = 0.22073 0.30409
# Poissons Ratio (z) = 0.31912 0.31912
#
# Static dielectric constant tensor:
#      x y z
#    x 3.288770 0.000000 0.000000 
#    y 0.000000 3.288770 0.000000 
#    z 0.000000 0.000000 3.367370 
# 
# 
# High freq. dielectric constant tensor:
#      x y z
#    x 1.694510 0.000000 0.000000 
#    y 0.000000 1.694510 0.000000 
#    z 0.000000 0.000000 1.706500 
# 
# From -- ./inp_files/6025.got.cif
#   From: 2010.03.12/outbox.cif.g09.slc.cpg/sg128_4_cif.got.tgz:6025.got - 2010.04.06 17:11:05.
