data_PCOD8314616
_publ_section_title
;
Structure prediction by ZEFSAII (Michael W. Deem and Ramdas Pophale) SiO2 
 PCOD8314616
Probable space group: P 4/M N C
;
_chemical_formula_sum "Si O2"
_cell_formula_units_Z 96
_cell_length_a 27.169984
_cell_length_b 27.169984
_cell_length_c 7.578523
_cell_angle_alpha 90.000000
_cell_angle_beta 90.000000
_cell_angle_gamma 90.000000
_cell_volume 5594.526538
_symmetry_space_group_name_H-M "P 4/M N C"
_symmetry_group_IT_number 128
_symmetry_cell_setting 'tetragonal'
loop_
_space_group_symop_operation_xyz
x,y,z
-y,x,z
-x,-y,z
y,-x,z
1/2+x,1/2-y,1/2-z
1/2-x,1/2+y,1/2-z
1/2+y,1/2+x,1/2-z
1/2-y,1/2-x,1/2-z
-x,-y,-z
y,-x,-z
x,y,-z
-y,x,-z
1/2-x,1/2+y,1/2+z
1/2+x,1/2-y,1/2+z
1/2-y,1/2-x,1/2+z
1/2+y,1/2+x,1/2+z
loop_
_atom_site_type_symbol
_atom_site_label
_atom_site_fract_x
_atom_site_fract_y
_atom_site_fract_z
Si Si1 0.188301 0.889787 0.000000
Si Si2 0.212661 0.442724 0.500000
Si Si3 0.366948 0.555517 0.800418
Si Si4 0.444483 0.633052 0.199582
Si Si5 0.787339 0.442724 0.500000
Si Si6 0.443984 0.864772 0.200492
Si Si7 0.864772 0.443984 0.799508
Si Si8 0.188301 0.110213 0.000000
O O1 0.170181 0.915663 0.177021
O O2 0.246574 0.899224 0.000000
O O3 0.167189 0.832811 0.000000
O O4 0.232440 0.500000 0.500000
O O5 0.181223 0.432445 0.325281
O O6 0.421171 0.578829 0.787353
O O7 0.371423 0.500000 0.733971
O O8 0.329819 0.584338 0.677021
O O9 0.346441 0.558622 0.000000
O O10 0.441378 0.653559 0.000000
O O11 0.818777 0.432445 0.674719
O O12 0.746574 0.399224 0.500000
O O13 0.410971 0.910971 0.250000
O O14 0.500000 0.882192 0.227674
O O15 0.434028 0.847767 0.000000
O O16 0.910971 0.410971 0.750000
O O17 0.847767 0.434028 0.000000
#
# Coordination Sequence:
#
# PCOD8314616 Si02
#       8
#     8   8  16  16   8  16  16   8
#     4  10  20  34  51  70  96 130 174 225 271 307
#     4  10  20  34  53  78 106 138 177 218 261 308
#     4   9  17  28  43  65  93 125 161 204 257 317
#     4   9  17  28  43  65  93 125 161 204 257 317
#     4  10  20  34  53  78 106 138 177 218 261 308
#     4  10  20  34  54  82 112 143 174 203 244 301
#     4  10  20  34  54  82 112 143 174 203 244 301
#     4  10  20  34  51  70  96 130 174 225 271 307
#
# _framework density 17.159628999999999
#
# number of rings (size 3 to 8) (size 9 to 14) (size 15 to 20)
#    0.000    2.333    1.667    1.500    0.000    2.000 
#    0.000    6.667    0.000    4.000    0.000    0.000 
#    0.000    0.000    0.000    0.000    0.000    0.000 
#
# Total GULP energy -1189834.812551 kJ/mol
# GULP energy per Si atom -12394.112631 kJ/mol
# Density = 1.712057 g / cm^3
# Si number density = 17.159629 Si / 1000 Ang^3
#
#
#
# Elastic Constant Matrix: (Units=GPa)
#
#
# Indices 1 2 3 4 5 6 
#
# 1 101.0999 61.3034 46.9596 0.0000 0.0000 0.0000
# 2 61.3034 101.0999 46.9596 0.0000 0.0000 0.0000
# 3 46.9596 46.9596 115.9367 0.0000 0.0000 0.0000
# 4 0.0000 0.0000 0.0000 19.3476 0.0000 0.0000
# 5 0.0000 0.0000 0.0000 0.0000 19.3476 0.0000
# 6 0.0000 0.0000 0.0000 0.0000 0.0000 28.4371
#
#
#
# Elastic Compliance Matrix: (Units=1/GPa)
#
#
# Indices 1 2 3 4 5 6 
#
# 1 0.016584 -0.008543 -0.003257 0.000000 0.000000 0.000000
# 2 -0.008543 0.016584 -0.003257 0.000000 0.000000 0.000000
# 3 -0.003257 -0.003257 0.011264 0.000000 0.000000 0.000000
# 4 0.000000 0.000000 0.000000 0.051686 0.000000 0.000000
# 5 0.000000 0.000000 0.000000 0.000000 0.051686 0.000000
# 6 0.000000 0.000000 0.000000 0.000000 0.000000 0.035165
#
#
# Mechanical properties :
#
#
# Convention : Reuss Voigt Hill
#
# Bulk Modulus (GPa) = 69.84217 69.84243 69.84230
# Shear Modulus (GPa) = 22.95077 24.28737 23.61907
#
# Velocity S-wave (km/s) = 3.66113 3.76623 3.71405
# Velocity P-wave (km/s) = 7.65909 7.72675 7.69299
#
# Compressibility (1/GPa) = 0.01431800
#
# Stress axis : x y z
#
# Youngs Moduli (GPa) = 60.29747 60.29747 88.77955
#
# Poissons Ratio (x) = 0.51514 0.28915
# Poissons Ratio (y) = 0.51514 0.28915
# Poissons Ratio (z) = 0.19639 0.19639
#
# Static dielectric constant tensor:
#      x y z
#    x 3.081510 0.000000 0.000000 
#    y 0.000000 3.081510 0.000000 
#    z 0.000000 0.000000 3.634760 
# 
# 
# High freq. dielectric constant tensor:
#      x y z
#    x 1.640240 0.000000 0.000000 
#    y 0.000000 1.640240 0.000000 
#    z 0.000000 0.000000 1.689440 
# 
# From -- ./inp_files/1579.got.cif
#   From: 2010.03.12/outbox.cif.g09.slc.cpg/sg128_1_cif.got.tgz:1579.got - 2010.04.06 17:11:05.
