data_PCOD8314946
_publ_section_title
;
Structure prediction by ZEFSAII (Michael W. Deem and Ramdas Pophale) SiO2 
 PCOD8314946
Probable space group: P 4/N M M
;
_chemical_formula_sum "Si O2"
_cell_formula_units_Z 96
_cell_length_a 18.515035
_cell_length_b 18.515035
_cell_length_c 15.742405
_cell_angle_alpha 90.000000
_cell_angle_beta 90.000000
_cell_angle_gamma 90.000000
_cell_volume 5396.599091
_symmetry_space_group_name_H-M "P 4/N M M"
_symmetry_group_IT_number 129
_symmetry_cell_setting 'tetragonal'
loop_
_space_group_symop_operation_xyz
x,y,z
1/2-y,x,z
1/2-x,1/2-y,z
y,1/2-x,z
1/2+x,-y,-z
-x,1/2+y,-z
1/2+y,1/2+x,-z
-y,-x,-z
-x,-y,-z
1/2+y,-x,-z
1/2+x,1/2+y,-z
-y,1/2+x,-z
1/2-x,y,z
x,1/2-y,z
1/2-y,1/2-x,z
y,x,z
loop_
_atom_site_type_symbol
_atom_site_label
_atom_site_fract_x
_atom_site_fract_y
_atom_site_fract_z
Si Si1 0.666685 0.951123 0.166147
Si Si2 0.497665 0.381685 0.500492
Si Si3 0.668109 0.403087 0.750697
Si Si4 0.898251 0.334177 0.916113
Si Si5 0.829797 0.949853 0.676276
Si Si6 0.039579 0.830212 0.325546
O O1 0.750000 0.924521 0.168089
O O2 0.616067 0.883934 0.139911
O O3 0.657133 0.015953 0.098448
O O4 0.640756 0.980209 0.258559
O O5 0.563924 0.436077 0.500000
O O6 0.423359 0.423359 0.515681
O O7 0.491695 0.337875 0.413251
O O8 0.507652 0.328426 0.579912
O O9 0.750000 0.379665 0.728161
O O10 0.646674 0.371068 0.841023
O O11 0.661908 0.490468 0.750535
O O12 0.613620 0.375237 0.677988
O O13 0.876740 0.250000 0.922829
O O14 0.876859 0.376859 0.000000
O O15 0.750000 0.914793 0.679368
O O16 0.888039 0.888039 0.691121
O O17 0.059825 0.750000 0.295500
#
# Coordination Sequence:
#
# PCOD8314946 Si02
#       6
#    16  16  16  16  16  16
#     4   9  19  34  52  77 106 136 172 213 260 310
#     4  10  18  30  50  73  97 132 177 220 260 305
#     4  10  20  33  50  74 103 135 170 206 250 309
#     4  10  21  36  56  82 108 136 170 210 254 306
#     4  10  21  36  54  76 102 135 177 223 266 309
#     4  10  19  31  49  72 102 137 173 216 258 301
#
# _framework density 17.788981
#
# number of rings (size 3 to 8) (size 9 to 14) (size 15 to 20)
#    0.000    2.167    1.667    3.000    0.000    5.500 
#    0.000    0.000    0.000    0.000    0.000    2.333 
#    0.000    5.333    0.000    0.000    0.000    0.000 
#
# Total GULP energy -1190101.150839 kJ/mol
# GULP energy per Si atom -12396.886988 kJ/mol
# Density = 1.774849 g / cm^3
# Si number density = 17.788981 Si / 1000 Ang^3
#
#
#
# Elastic Constant Matrix: (Units=GPa)
#
#
# Indices 1 2 3 4 5 6 
#
# 1 102.5262 60.3456 28.6676 0.0000 0.0000 0.0000
# 2 60.3456 102.5259 28.6670 0.0000 0.0000 0.0000
# 3 28.6676 28.6670 68.3544 0.0000 0.0000 0.0000
# 4 0.0000 0.0000 0.0000 21.0969 0.0000 0.0000
# 5 0.0000 0.0000 0.0000 0.0000 21.0970 0.0000
# 6 0.0000 0.0000 0.0000 0.0000 0.0000 26.8180
#
#
#
# Elastic Compliance Matrix: (Units=1/GPa)
#
#
# Indices 1 2 3 4 5 6 
#
# 1 0.015455 -0.008252 -0.003021 0.000000 0.000000 0.000000
# 2 -0.008252 0.015455 -0.003021 0.000000 0.000000 0.000000
# 3 -0.003021 -0.003021 0.017164 0.000000 0.000000 0.000000
# 4 0.000000 0.000000 0.000000 0.047400 0.000000 0.000000
# 5 0.000000 0.000000 0.000000 0.000000 0.047400 0.000000
# 6 0.000000 0.000000 0.000000 0.000000 0.000000 0.037288
#
#
# Mechanical properties :
#
#
# Convention : Reuss Voigt Hill
#
# Bulk Modulus (GPa) = 51.31848 56.52965 53.92406
# Shear Modulus (GPa) = 23.22913 24.18415 23.70664
#
# Velocity S-wave (km/s) = 3.61753 3.69114 3.65452
# Velocity P-wave (km/s) = 6.80880 7.07198 6.94164
#
# Compressibility (1/GPa) = 0.01948616
#
# Stress axis : x y z
#
# Youngs Moduli (GPa) = 64.70194 64.70206 58.26282
#
# Poissons Ratio (x) = 0.53393 0.17602
# Poissons Ratio (y) = 0.53393 0.17601
# Poissons Ratio (z) = 0.19547 0.19546
#
# Static dielectric constant tensor:
#      x y z
#    x 3.230960 0.000000 0.000000 
#    y 0.000000 3.230950 0.000000 
#    z 0.000000 0.000000 3.224530 
# 
# 
# High freq. dielectric constant tensor:
#      x y z
#    x 1.685980 0.000000 0.000000 
#    y 0.000000 1.685980 0.000000 
#    z 0.000000 0.000000 1.676310 
# 
# From -- ./inp_files/5650.got.cif
#   From: 2010.03.12/outbox.cif.g09.slc.cpg/sg129_3_cif.got.tgz:5650.got - 2010.04.06 17:19:44.
