data_PCOD8314224
_publ_section_title
;
Structure prediction by ZEFSAII (Michael W. Deem and Ramdas Pophale) SiO2 
 PCOD8314224
Probable space group: P 4/M B M
;
_chemical_formula_sum "Si O2"
_cell_formula_units_Z 88
_cell_length_a 16.542505
_cell_length_b 16.542505
_cell_length_c 16.484895
_cell_angle_alpha 90.000000
_cell_angle_beta 90.000000
_cell_angle_gamma 90.000000
_cell_volume 4511.165232
_symmetry_space_group_name_H-M "P 4/M B M"
_symmetry_group_IT_number 127
_symmetry_cell_setting 'tetragonal'
loop_
_space_group_symop_operation_xyz
x,y,z
-y,x,z
-x,-y,z
y,-x,z
1/2+x,1/2-y,-z
1/2-x,1/2+y,-z
1/2+y,1/2+x,-z
1/2-y,1/2-x,-z
-x,-y,-z
y,-x,-z
x,y,-z
-y,x,-z
1/2-x,1/2+y,z
1/2+x,1/2-y,z
1/2-y,1/2-x,z
1/2+y,1/2+x,z
loop_
_atom_site_type_symbol
_atom_site_label
_atom_site_fract_x
_atom_site_fract_y
_atom_site_fract_z
Si Si1 0.741822 0.885263 0.302955
Si Si2 0.448671 0.383865 0.404341
Si Si3 0.326053 0.955189 0.325572
Si Si4 0.369126 0.001940 0.500000
Si Si5 0.852544 0.774540 0.211075
Si Si6 0.878849 0.051117 0.906210
O O1 0.685362 0.814639 0.338244
O O2 0.800138 0.913738 0.374137
O O3 0.794559 0.850914 0.228761
O O4 0.685531 0.961243 0.274897
O O5 0.540554 0.395327 0.372172
O O6 0.447231 0.382830 0.500000
O O7 0.414410 0.914410 0.310717
O O8 0.315439 0.980464 0.420482
O O9 0.256244 0.893899 0.295098
O O10 0.446051 0.946051 0.500000
O O11 0.405313 0.094688 0.500000
O O12 0.798942 0.701059 0.174148
O O13 0.919128 0.802593 0.146292
O O14 0.957914 0.104010 0.885356
O O15 0.855964 0.061224 0.000000
#
# Coordination Sequence:
#
# PCOD8314224 Si02
#       6
#    16  16  16   8  16  16
#     4  11  22  34  51  76 105 137 177 228 282 330
#     4   9  19  36  54  70  93 130 176 221 270 332
#     4  10  21  37  54  73 103 144 189 235 279 333
#     4   9  18  34  54  72  94 133 187 235 270 309
#     4  10  21  36  53  79 113 146 179 221 278 333
#     4   9  18  34  59  88 113 140 177 220 267 329
#
# _framework density 19.507155000000001
#
# number of rings (size 3 to 8) (size 9 to 14) (size 15 to 20)
#    0.000    2.273    0.000    3.818    1.273    1.818 
#    1.636    1.818    0.000    0.000    0.000    0.000 
#    0.000    0.000    0.000   50.000    0.000    0.000 
#
# Total GULP energy -1090428.574355 kJ/mol
# GULP energy per Si atom -12391.233799 kJ/mol
# Density = 1.946276 g / cm^3
# Si number density = 19.507155 Si / 1000 Ang^3
#
#
#
# Elastic Constant Matrix: (Units=GPa)
#
#
# Indices 1 2 3 4 5 6 
#
# 1 96.3769 48.8971 39.5191 0.0000 0.0000 0.0000
# 2 48.8971 96.3768 39.5191 0.0000 0.0000 0.0000
# 3 39.5191 39.5191 67.2881 0.0000 0.0000 0.0000
# 4 0.0000 0.0000 0.0000 25.8764 0.0000 0.0000
# 5 0.0000 0.0000 0.0000 0.0000 25.8765 0.0000
# 6 0.0000 0.0000 0.0000 0.0000 0.0000 37.0938
#
#
#
# Elastic Compliance Matrix: (Units=1/GPa)
#
#
# Indices 1 2 3 4 5 6 
#
# 1 0.015589 -0.005473 -0.005941 0.000000 0.000000 0.000000
# 2 -0.005473 0.015589 -0.005941 0.000000 0.000000 0.000000
# 3 -0.005941 -0.005941 0.021840 0.000000 0.000000 0.000000
# 4 0.000000 0.000000 0.000000 0.038645 0.000000 0.000000
# 5 0.000000 0.000000 0.000000 0.000000 0.038645 0.000000
# 6 0.000000 0.000000 0.000000 0.000000 0.000000 0.026959
#
#
# Mechanical properties :
#
#
# Convention : Reuss Voigt Hill
#
# Bulk Modulus (GPa) = 54.62336 57.32362 55.97349
# Shear Modulus (GPa) = 25.24237 26.57644 25.90941
#
# Velocity S-wave (km/s) = 3.60113 3.69507 3.64840
# Velocity P-wave (km/s) = 6.73449 6.90322 6.81938
#
# Compressibility (1/GPa) = 0.01830719
#
# Stress axis : x y z
#
# Youngs Moduli (GPa) = 64.14871 64.14859 45.78718
#
# Poissons Ratio (x) = 0.35108 0.27203
# Poissons Ratio (y) = 0.35108 0.27203
# Poissons Ratio (z) = 0.38112 0.38112
#
# Static dielectric constant tensor:
#      x y z
#    x 3.805730 0.000000 0.000000 
#    y 0.000000 3.805730 0.000000 
#    z 0.000000 0.000000 3.139840 
# 
# 
# High freq. dielectric constant tensor:
#      x y z
#    x 1.768510 0.000000 0.000000 
#    y 0.000000 1.768510 0.000000 
#    z 0.000000 0.000000 1.712370 
# 
# From -- ./inp_files/4418.got.cif
#   From: 2010.03.12/outbox.cif.g09.slc.cpg/sg127_3_cif.got.tgz:4418.got - 2010.04.06 17:03:15.
