data_PCOD8314075
_publ_section_title
;
Structure prediction by ZEFSAII (Michael W. Deem and Ramdas Pophale) SiO2 
 PCOD8314075
Probable space group: P 4/M B M
;
_chemical_formula_sum "Si O2"
_cell_formula_units_Z 72
_cell_length_a 21.294886
_cell_length_b 21.294886
_cell_length_c 9.055353
_cell_angle_alpha 90.000000
_cell_angle_beta 90.000000
_cell_angle_gamma 90.000000
_cell_volume 4106.350573
_symmetry_space_group_name_H-M "P 4/M B M"
_symmetry_group_IT_number 127
_symmetry_cell_setting 'tetragonal'
loop_
_space_group_symop_operation_xyz
x,y,z
-y,x,z
-x,-y,z
y,-x,z
1/2+x,1/2-y,-z
1/2-x,1/2+y,-z
1/2+y,1/2+x,-z
1/2-y,1/2-x,-z
-x,-y,-z
y,-x,-z
x,y,-z
-y,x,-z
1/2-x,1/2+y,z
1/2+x,1/2-y,z
1/2-y,1/2-x,z
1/2+y,1/2+x,z
loop_
_atom_site_type_symbol
_atom_site_label
_atom_site_fract_x
_atom_site_fract_y
_atom_site_fract_z
Si Si1 0.724545 0.877380 0.166976
Si Si2 0.319382 0.467324 0.673639
Si Si3 0.682592 0.997668 0.674830
Si Si4 0.394462 0.349021 0.324145
Si Si5 0.550463 0.050463 0.675158
O O1 0.686920 0.813081 0.168756
O O2 0.683437 0.930451 0.247318
O O3 0.788379 0.862358 0.253381
O O4 0.738997 0.899264 0.000000
O O5 0.325388 0.462169 0.500000
O O6 0.245793 0.464092 0.719758
O O7 0.350602 0.532644 0.726312
O O8 0.358684 0.409718 0.742211
O O9 0.680737 0.986069 0.500000
O O10 0.620747 0.034426 0.730615
O O11 0.388768 0.343774 0.500000
O O12 0.548298 0.048298 0.500000
O O13 0.500000 0.000000 0.738515
#
# Coordination Sequence:
#
# PCOD8314075 Si02
#       5
#    16  16  16  16   8
#     4  10  20  33  48  68  94 125 163 203 239 275
#     4   8  15  28  47  72  98 122 152 194 237 283
#     4   9  17  31  50  72  99 127 158 197 241 288
#     4   9  17  31  50  72  96 123 156 193 240 291
#     4   9  16  26  45  73  99 127 161 195 235 282
#
# _framework density 17.533816999999999
#
# number of rings (size 3 to 8) (size 9 to 14) (size 15 to 20)
#    0.000    3.000    0.000    2.667    0.000    3.111 
#    2.000    7.222    0.000    2.000    0.000    6.222 
#    0.000    0.000    0.000    0.000    0.000    0.000 
#
# Total GULP energy -892478.069874 kJ/mol
# GULP energy per Si atom -12395.528748 kJ/mol
# Density = 1.749391 g / cm^3
# Si number density = 17.533817 Si / 1000 Ang^3
#
#
#
# Elastic Constant Matrix: (Units=GPa)
#
#
# Indices 1 2 3 4 5 6 
#
# 1 130.1936 94.4862 26.6811 0.0000 0.0000 0.0000
# 2 94.4862 130.1936 26.6811 0.0000 0.0000 0.0000
# 3 26.6811 26.6811 38.8206 0.0000 0.0000 0.0000
# 4 0.0000 0.0000 0.0000 9.6242 0.0000 0.0000
# 5 0.0000 0.0000 0.0000 0.0000 9.6242 0.0000
# 6 0.0000 0.0000 0.0000 0.0000 0.0000 34.7583
#
#
#
# Elastic Compliance Matrix: (Units=1/GPa)
#
#
# Indices 1 2 3 4 5 6 
#
# 1 0.016662 -0.011343 -0.003656 0.000000 0.000000 0.000000
# 2 -0.011343 0.016662 -0.003656 0.000000 0.000000 0.000000
# 3 -0.003656 -0.003656 0.030785 0.000000 0.000000 0.000000
# 4 0.000000 0.000000 0.000000 0.103905 0.000000 0.000000
# 5 0.000000 0.000000 0.000000 0.000000 0.103905 0.000000
# 6 0.000000 0.000000 0.000000 0.000000 0.000000 0.028770
#
#
# Mechanical properties :
#
#
# Convention : Reuss Voigt Hill
#
# Bulk Modulus (GPa) = 37.31376 66.10048 51.70712
# Shear Modulus (GPa) = 14.41206 20.89196 17.65201
#
# Velocity S-wave (km/s) = 2.87009 3.45559 3.17636
# Velocity P-wave (km/s) = 5.68423 7.32818 6.55792
#
# Compressibility (1/GPa) = 0.02679977
#
# Stress axis : x y z
#
# Youngs Moduli (GPa) = 60.01605 60.01605 32.48379
#
# Poissons Ratio (x) = 0.68077 0.11875
# Poissons Ratio (y) = 0.68077 0.11875
# Poissons Ratio (z) = 0.21940 0.21940
#
# Static dielectric constant tensor:
#      x y z
#    x 3.458980 0.000000 0.000000 
#    y 0.000000 3.458980 0.000000 
#    z 0.000000 0.000000 2.961650 
# 
# 
# High freq. dielectric constant tensor:
#      x y z
#    x 1.678480 0.000000 0.000000 
#    y 0.000000 1.678480 0.000000 
#    z 0.000000 0.000000 1.641980 
# 
# From -- ./inp_files/1596.got.cif
#   From: 2010.03.12/outbox.cif.g09.slc.cpg/sg127_1_cif.got.tgz:1596.got - 2010.04.06 17:03:15.
