data_PCOD8314356
_publ_section_title
;
Structure prediction by ZEFSAII (Michael W. Deem and Ramdas Pophale) SiO2 
 PCOD8314356
Probable space group: P 4/M B M
;
_chemical_formula_sum "Si O2"
_cell_formula_units_Z 48
_cell_length_a 13.881130
_cell_length_b 13.881130
_cell_length_c 11.467208
_cell_angle_alpha 90.000000
_cell_angle_beta 90.000000
_cell_angle_gamma 90.000000
_cell_volume 2209.567804
_symmetry_space_group_name_H-M "P 4/M B M"
_symmetry_group_IT_number 127
_symmetry_cell_setting 'tetragonal'
loop_
_space_group_symop_operation_xyz
x,y,z
-y,x,z
-x,-y,z
y,-x,z
1/2+x,1/2-y,-z
1/2-x,1/2+y,-z
1/2+y,1/2+x,-z
1/2-y,1/2-x,-z
-x,-y,-z
y,-x,-z
x,y,-z
-y,x,-z
1/2-x,1/2+y,z
1/2+x,1/2-y,z
1/2-y,1/2-x,z
1/2+y,1/2+x,z
loop_
_atom_site_type_symbol
_atom_site_label
_atom_site_fract_x
_atom_site_fract_y
_atom_site_fract_z
Si Si1 0.404149 0.374098 0.744900
Si Si2 0.420308 0.079693 0.697040
Si Si3 0.697670 0.802331 0.137609
Si Si4 0.828487 0.174285 0.500000
Si Si5 0.980963 0.667545 0.500000
O O1 0.517822 0.366628 0.773974
O O2 0.334519 0.303644 0.818892
O O3 0.396253 0.345009 0.609563
O O4 0.380168 0.119833 0.818014
O O5 0.459156 0.171389 0.620758
O O6 0.500000 0.000000 0.729874
O O7 0.697574 0.802427 0.000000
O O8 0.781977 0.281977 0.500000
O O9 0.743117 0.100838 0.500000
O O10 0.940701 0.559300 0.500000
#
# Coordination Sequence:
#
# PCOD8314356 Si02
#       5
#    16   8   8   8   8
#     4  11  25  46  72 102 140 181 227 285 351 422
#     4   9  18  37  63  99 142 174 211 274 345 416
#     4  12  27  46  68  97 132 183 246 292 338 402
#     4  11  19  36  67 104 139 170 210 273 347 418
#     4   8  16  30  60 101 138 170 202 254 347 430
#
# _framework density 21.723707000000001
#
# number of rings (size 3 to 8) (size 9 to 14) (size 15 to 20)
#    0.000    1.667    1.667    4.000    0.000    5.667 
#    3.000    1.667    0.000    0.000    0.000    1.167 
#    0.000    0.000    0.000    0.000    0.000    0.000 
#
# Total GULP energy -594762.154201 kJ/mol
# GULP energy per Si atom -12390.878213 kJ/mol
# Density = 2.167426 g / cm^3
# Si number density = 21.723707 Si / 1000 Ang^3
#
#
#
# Elastic Constant Matrix: (Units=GPa)
#
#
# Indices 1 2 3 4 5 6 
#
# 1 138.4491 82.2107 49.8812 0.0000 0.0000 0.0000
# 2 82.2107 138.4500 49.8812 0.0000 0.0000 0.0000
# 3 49.8812 49.8812 157.5134 0.0000 0.0000 0.0000
# 4 0.0000 0.0000 0.0000 -800.8767 0.0000 0.0000
# 5 0.0000 0.0000 0.0000 0.0000 -793.3127 0.0000
# 6 0.0000 0.0000 0.0000 0.0000 0.0000 52.3233
#
#
#
# Elastic Compliance Matrix: (Units=1/GPa)
#
#
# Indices 1 2 3 4 5 6 
#
# 1 0.011535 -0.006246 -0.001675 0.000000 0.000000 0.000000
# 2 -0.006246 0.011535 -0.001675 0.000000 0.000000 0.000000
# 3 -0.001675 -0.001675 0.007410 0.000000 0.000000 0.000000
# 4 0.000000 0.000000 0.000000 -0.001249 0.000000 0.000000
# 5 0.000000 0.000000 0.000000 0.000000 -0.001261 0.000000
# 6 0.000000 0.000000 0.000000 0.000000 0.000000 0.019112
#
#
# Mechanical properties :
#
#
# Convention : Reuss Voigt Hill
#
# Bulk Modulus (GPa) = 88.59020 88.70653 88.64836
# Shear Modulus (GPa) = 71.39049 -291.54392 -110.07671
#
# Velocity S-wave (km/s) = 5.73884 -11.59727 -7.12610
# Velocity P-wave (km/s) = 9.20768 11.76463 5.17808
#
# Compressibility (1/GPa) = 0.01128793
#
# Stress axis : x y z
#
# Youngs Moduli (GPa) = 86.69075 86.69145 134.96171
#
# Poissons Ratio (x) = 0.54148 0.22606
# Poissons Ratio (y) = 0.54148 0.22605
# Poissons Ratio (z) = 0.14520 0.14520
#
# Static dielectric constant tensor:
#      x y z
#    x 4.287770 0.000000 0.000000 
#    y 0.000000 4.287760 0.000000 
#    z 0.000000 0.000000 3.339030 
# 
# 
# High freq. dielectric constant tensor:
#      x y z
#    x 1.878180 0.000000 0.000000 
#    y 0.000000 1.878180 0.000000 
#    z 0.000000 0.000000 1.811110 
# 
# From -- ./inp_files/2808.got.cif
#   From: 2010.03.12/outbox.cif.g09.slc.cpg/sg127_2_cif.got.tgz:2808.got - 2010.04.06 17:03:15.
