data_PCOD8314137
_publ_section_title
;
Structure prediction by ZEFSAII (Michael W. Deem and Ramdas Pophale) SiO2 
 PCOD8314137
Probable space group: P 4/M B M
;
_chemical_formula_sum "Si O2"
_cell_formula_units_Z 96
_cell_length_a 14.063263
_cell_length_b 14.063263
_cell_length_c 24.284267
_cell_angle_alpha 90.000000
_cell_angle_beta 90.000000
_cell_angle_gamma 90.000000
_cell_volume 4802.829799
_symmetry_space_group_name_H-M "P 4/M B M"
_symmetry_group_IT_number 127
_symmetry_cell_setting 'tetragonal'
loop_
_space_group_symop_operation_xyz
x,y,z
-y,x,z
-x,-y,z
y,-x,z
1/2+x,1/2-y,-z
1/2-x,1/2+y,-z
1/2+y,1/2+x,-z
1/2-y,1/2-x,-z
-x,-y,-z
y,-x,-z
x,y,-z
-y,x,-z
1/2-x,1/2+y,z
1/2+x,1/2-y,z
1/2-y,1/2-x,z
1/2+y,1/2+x,z
loop_
_atom_site_type_symbol
_atom_site_label
_atom_site_fract_x
_atom_site_fract_y
_atom_site_fract_z
Si Si1 0.850837 0.500880 0.108295
Si Si2 0.736819 0.609882 0.613602
Si Si3 0.869055 0.082022 0.280119
Si Si4 0.135014 0.791414 0.940465
Si Si5 0.631723 0.284729 0.834941
Si Si6 0.595178 0.749687 0.563874
O O1 0.917215 0.582786 0.079998
O O2 0.777659 0.456629 0.064630
O O3 0.792126 0.547631 0.158067
O O4 0.917542 0.417542 0.133383
O O5 0.834854 0.665147 0.602991
O O6 0.708060 0.623720 0.677593
O O7 0.652553 0.652672 0.576020
O O8 0.753654 0.500519 0.599074
O O9 0.846169 0.107257 0.217564
O O10 0.970251 0.128824 0.291580
O O11 0.231028 0.731028 0.941551
O O12 0.145498 0.863675 0.888868
O O13 0.124626 0.844216 0.000000
O O14 0.732988 0.232988 0.826362
O O15 0.568212 0.752475 0.500000
O O16 0.660160 0.839841 0.580684
#
# Coordination Sequence:
#
# PCOD8314137 Si02
#       6
#    16  16  16  16  16  16
#     4   9  18  33  53  78 107 139 181 231 283 346
#     4  11  22  40  63  91 127 167 210 257 307 357
#     4  11  22  38  59  83 113 151 202 256 301 357
#     4   9  18  32  50  75 108 143 181 229 287 353
#     4  10  20  35  55  80 109 147 189 233 295 360
#     4  10  22  40  64  96 131 168 209 251 301 364
#
# _framework density 19.988215
#
# number of rings (size 3 to 8) (size 9 to 14) (size 15 to 20)
#    0.000    2.000    1.667    2.000    0.000    2.667 
#    0.000    6.667    0.000    2.000    0.000    3.500 
#    0.000    0.000    0.000    0.000    0.000    0.000 
#
# Total GULP energy -1190042.984174 kJ/mol
# GULP energy per Si atom -12396.281085 kJ/mol
# Density = 1.994272 g / cm^3
# Si number density = 19.988215 Si / 1000 Ang^3
#
#
#
# Elastic Constant Matrix: (Units=GPa)
#
#
# Indices 1 2 3 4 5 6 
#
# 1 137.4586 -9.9204 32.0408 0.0000 0.0000 0.0000
# 2 -9.9204 137.4586 32.0408 0.0000 0.0000 0.0000
# 3 32.0408 32.0408 110.8306 0.0000 0.0000 0.0000
# 4 0.0000 0.0000 0.0000 27.2637 0.0000 0.0000
# 5 0.0000 0.0000 0.0000 0.0000 27.2637 0.0000
# 6 0.0000 0.0000 0.0000 0.0000 0.0000 61.8359
#
#
#
# Elastic Compliance Matrix: (Units=1/GPa)
#
#
# Indices 1 2 3 4 5 6 
#
# 1 0.007979 0.001194 -0.002652 0.000000 0.000000 0.000000
# 2 0.001194 0.007979 -0.002652 0.000000 0.000000 0.000000
# 3 -0.002652 -0.002652 0.010556 0.000000 0.000000 0.000000
# 4 0.000000 0.000000 0.000000 0.036679 0.000000 0.000000
# 5 0.000000 0.000000 0.000000 0.000000 0.036679 0.000000
# 6 0.000000 0.000000 0.000000 0.000000 0.000000 0.016172
#
#
# Mechanical properties :
#
#
# Convention : Reuss Voigt Hill
#
# Bulk Modulus (GPa) = 54.66034 54.89671 54.77852
# Shear Modulus (GPa) = 38.35470 45.37844 41.86657
#
# Velocity S-wave (km/s) = 4.38524 4.76989 4.58160
# Velocity P-wave (km/s) = 7.28327 7.60658 7.44668
#
# Compressibility (1/GPa) = 0.01829480
#
# Stress axis : x y z
#
# Youngs Moduli (GPa) = 125.32509 125.32509 94.73169
#
# Poissons Ratio (x) = -0.14964 0.25123
# Poissons Ratio (y) = -0.14964 0.25123
# Poissons Ratio (z) = 0.33236 0.33236
#
# Static dielectric constant tensor:
#      x y z
#    x 3.651470 0.000000 0.000000 
#    y 0.000000 3.651470 0.000000 
#    z 0.000000 0.000000 3.552300 
# 
# 
# High freq. dielectric constant tensor:
#      x y z
#    x 1.777180 0.000000 0.000000 
#    y 0.000000 1.777180 0.000000 
#    z 0.000000 0.000000 1.769520 
# 
# From -- ./inp_files/5756.got.cif
#   From: 2010.03.12/outbox.cif.g09.slc.cpg/sg127_3_cif.got.tgz:5756.got - 2010.04.06 17:03:15.
