data_PCOD8314852
_publ_section_title
;
Structure prediction by ZEFSAII (Michael W. Deem and Ramdas Pophale) SiO2 
 PCOD8314852
Probable space group: P 4/M N C
;
_chemical_formula_sum "Si O2"
_cell_formula_units_Z 128
_cell_length_a 18.203968
_cell_length_b 18.203968
_cell_length_c 26.937191
_cell_angle_alpha 90.000000
_cell_angle_beta 90.000000
_cell_angle_gamma 90.000000
_cell_volume 8926.566250
_symmetry_space_group_name_H-M "P 4/M N C"
_symmetry_group_IT_number 128
_symmetry_cell_setting 'tetragonal'
loop_
_space_group_symop_operation_xyz
x,y,z
-y,x,z
-x,-y,z
y,-x,z
1/2+x,1/2-y,1/2-z
1/2-x,1/2+y,1/2-z
1/2+y,1/2+x,1/2-z
1/2-y,1/2-x,1/2-z
-x,-y,-z
y,-x,-z
x,y,-z
-y,x,-z
1/2-x,1/2+y,1/2+z
1/2+x,1/2-y,1/2+z
1/2-y,1/2-x,1/2+z
1/2+y,1/2+x,1/2+z
loop_
_atom_site_type_symbol
_atom_site_label
_atom_site_fract_x
_atom_site_fract_y
_atom_site_fract_z
Si Si1 0.723322 0.159797 0.643103
Si Si2 0.159989 0.417126 0.705429
Si Si3 0.796551 0.084576 0.443084
Si Si4 0.417886 0.302059 0.767889
Si Si5 0.703450 0.415425 0.056915
Si Si6 0.417885 0.697940 0.767889
Si Si7 0.082874 0.659987 0.794571
Si Si8 0.276678 0.159796 0.356897
O O1 0.637687 0.156777 0.658379
O O2 0.732007 0.121911 0.589375
O O3 0.769764 0.111444 0.681030
O O4 0.757120 0.242881 0.642868
O O5 0.105357 0.394644 0.750000
O O6 0.242592 0.413133 0.724630
O O7 0.139676 0.499999 0.688255
O O8 0.771476 0.092116 0.500000
O O9 0.873427 0.126574 0.433314
O O10 0.808432 0.000000 0.428104
O O11 0.370967 0.370966 0.749721
O O12 0.500000 0.329493 0.776838
O O13 0.413134 0.242590 0.724631
O O14 0.388558 0.269764 0.818970
O O15 0.767994 0.378091 0.089375
O O16 0.728524 0.407885 0.000000
O O17 0.105354 0.605354 0.750000
O O18 0.137687 0.656775 0.841621
#
# Coordination Sequence:
#
# PCOD8314852 Si02
#       8
#    16  16  16  16  16  16  16  16
#     4   9  16  27  42  57  75 101 130 158 189 224
#     4   9  17  28  41  57  76  98 127 162 195 226
#     4   9  17  28  42  60  80 102 128 156 186 221
#     4   9  16  25  38  57  80 104 128 153 184 224
#     4   9  17  28  42  60  80 102 128 156 186 221
#     4   9  16  25  38  57  80 104 128 153 184 224
#     4   9  17  28  41  57  76  98 127 162 195 226
#     4   9  16  27  42  57  75 101 130 158 189 224
#
# _framework density 14.339221
#
# number of rings (size 3 to 8) (size 9 to 14) (size 15 to 20)
#    0.000    3.000    0.000    1.500    0.000    4.750 
#    0.000    1.250    0.000    5.250    0.000    1.750 
#    0.000    0.000    0.000    0.000    0.000    0.000 
#
# Total GULP energy -1586670.791953 kJ/mol
# GULP energy per Si atom -12395.865562 kJ/mol
# Density = 1.430658 g / cm^3
# Si number density = 14.339221 Si / 1000 Ang^3
#
#
#
# Elastic Constant Matrix: (Units=GPa)
#
#
# Indices 1 2 3 4 5 6 
#
# 1 99.2535 50.5020 35.6172 0.0000 0.0000 0.0000
# 2 50.5020 99.2530 35.6173 0.0000 0.0000 0.0000
# 3 35.6172 35.6173 64.1467 0.0000 0.0000 0.0000
# 4 0.0000 0.0000 0.0000 17.0336 0.0000 0.0000
# 5 0.0000 0.0000 0.0000 0.0000 17.0336 0.0000
# 6 0.0000 0.0000 0.0000 0.0000 0.0000 15.7175
#
#
#
# Elastic Compliance Matrix: (Units=1/GPa)
#
#
# Indices 1 2 3 4 5 6 
#
# 1 0.014793 -0.005719 -0.005038 0.000000 0.000000 0.000000
# 2 -0.005719 0.014793 -0.005038 0.000000 0.000000 0.000000
# 3 -0.005038 -0.005038 0.021184 0.000000 0.000000 0.000000
# 4 0.000000 0.000000 0.000000 0.058707 0.000000 0.000000
# 5 0.000000 0.000000 0.000000 0.000000 0.058707 0.000000
# 6 0.000000 0.000000 0.000000 0.000000 0.000000 0.063623
#
#
# Mechanical properties :
#
#
# Convention : Reuss Voigt Hill
#
# Bulk Modulus (GPa) = 52.14002 56.23624 54.18813
# Shear Modulus (GPa) = 18.53267 19.35140 18.94204
#
# Velocity S-wave (km/s) = 3.59896 3.67760 3.63849
# Velocity P-wave (km/s) = 7.32876 7.57209 7.45142
#
# Compressibility (1/GPa) = 0.01917913
#
# Stress axis : x y z
#
# Youngs Moduli (GPa) = 67.59870 67.59817 47.20454
#
# Poissons Ratio (x) = 0.38660 0.23783
# Poissons Ratio (y) = 0.38660 0.23784
# Poissons Ratio (z) = 0.34059 0.34059
#
# Static dielectric constant tensor:
#      x y z
#    x 2.849100 0.000000 0.000000 
#    y 0.000000 2.849100 0.000000 
#    z 0.000000 0.000000 2.693360 
# 
# 
# High freq. dielectric constant tensor:
#      x y z
#    x 1.541290 0.000000 0.000000 
#    y 0.000000 1.541290 0.000000 
#    z 0.000000 0.000000 1.525230 
# 
# From -- ./inp_files/6616.got.cif
#   From: 2010.03.12/outbox.cif.g09.slc.cpg/sg128_4_cif.got.tgz:6616.got - 2010.04.06 17:11:05.
