data_PCOD8314885
_publ_section_title
;
Structure prediction by ZEFSAII (Michael W. Deem and Ramdas Pophale) SiO2 
 PCOD8314885
Probable space group: P 4/N M M
;
_chemical_formula_sum "Si O2"
_cell_formula_units_Z 80
_cell_length_a 19.834217
_cell_length_b 19.834217
_cell_length_c 13.782352
_cell_angle_alpha 90.000000
_cell_angle_beta 90.000000
_cell_angle_gamma 90.000000
_cell_volume 5421.924408
_symmetry_space_group_name_H-M "P 4/N M M"
_symmetry_group_IT_number 129
_symmetry_cell_setting 'tetragonal'
loop_
_space_group_symop_operation_xyz
x,y,z
1/2-y,x,z
1/2-x,1/2-y,z
y,1/2-x,z
1/2+x,-y,-z
-x,1/2+y,-z
1/2+y,1/2+x,-z
-y,-x,-z
-x,-y,-z
1/2+y,-x,-z
1/2+x,1/2+y,-z
-y,1/2+x,-z
1/2-x,y,z
x,1/2-y,z
1/2-y,1/2-x,z
y,x,z
loop_
_atom_site_type_symbol
_atom_site_label
_atom_site_fract_x
_atom_site_fract_y
_atom_site_fract_z
Si Si1 0.074980 0.961556 0.898085
Si Si2 0.422682 0.971081 0.298202
Si Si3 0.326002 0.567790 0.459864
Si Si4 0.174712 0.064181 0.824537
Si Si5 0.028939 0.367155 0.618598
O O1 0.054509 0.909620 0.812142
O O2 0.146534 0.997374 0.878153
O O3 0.078203 0.921798 0.000000
O O4 0.019267 0.019267 0.899742
O O5 0.354331 0.963267 0.359484
O O6 0.478442 0.924191 0.345650
O O7 0.452029 0.047972 0.299965
O O8 0.369905 0.630096 0.500000
O O9 0.250000 0.593639 0.441867
O O10 0.322872 0.506578 0.536527
O O11 0.250000 0.078033 0.862978
O O12 0.128994 0.128994 0.848840
O O13 0.178393 0.050951 0.709280
O O14 0.094830 0.405171 0.575124
#
# Coordination Sequence:
#
# PCOD8314885 Si02
#       5
#    16  16  16  16  16
#     4   8  14  26  43  59  75  98 129 165 202 234
#     4   8  14  25  41  59  76  94 122 164 205 231
#     4  10  18  26  37  54  79 108 133 157 189 232
#     4   9  16  25  38  58  82 105 129 156 191 240
#     4   8  14  25  41  58  74  96 128 163 195 226
#
# _framework density 14.754909
#
# number of rings (size 3 to 8) (size 9 to 14) (size 15 to 20)
#    0.000    3.400    0.000    3.600    0.000    2.800 
#    0.000    1.000    0.000    0.000    0.000    0.000 
#    0.000    5.600    0.000    0.000    0.000    4.000 
#
# Total GULP energy -991276.851205 kJ/mol
# GULP energy per Si atom -12390.960640 kJ/mol
# Density = 1.472133 g / cm^3
# Si number density = 14.754909 Si / 1000 Ang^3
#
#
#
# Elastic Constant Matrix: (Units=GPa)
#
#
# Indices 1 2 3 4 5 6 
#
# 1 70.3673 30.1153 35.4037 0.0000 0.0000 0.0000
# 2 30.1153 70.3668 35.4041 0.0000 0.0000 0.0000
# 3 35.4037 35.4041 97.2986 0.0000 0.0000 0.0000
# 4 0.0000 0.0000 0.0000 9.8157 0.0000 0.0000
# 5 0.0000 0.0000 0.0000 0.0000 9.8158 0.0000
# 6 0.0000 0.0000 0.0000 0.0000 0.0000 9.6285
#
#
#
# Elastic Compliance Matrix: (Units=1/GPa)
#
#
# Indices 1 2 3 4 5 6 
#
# 1 0.019114 -0.005730 -0.004870 0.000000 0.000000 0.000000
# 2 -0.005730 0.019114 -0.004870 0.000000 0.000000 0.000000
# 3 -0.004870 -0.004870 0.013822 0.000000 0.000000 0.000000
# 4 0.000000 0.000000 0.000000 0.101877 0.000000 0.000000
# 5 0.000000 0.000000 0.000000 0.000000 0.101877 0.000000
# 6 0.000000 0.000000 0.000000 0.000000 0.000000 0.103858
#
#
# Mechanical properties :
#
#
# Convention : Reuss Voigt Hill
#
# Bulk Modulus (GPa) = 47.37216 48.87543 48.12379
# Shear Modulus (GPa) = 12.57427 14.99264 13.78346
#
# Velocity S-wave (km/s) = 2.92243 3.19111 3.05972
# Velocity P-wave (km/s) = 6.60024 6.83918 6.72077
#
# Compressibility (1/GPa) = 0.02110945
#
# Stress axis : x y z
#
# Youngs Moduli (GPa) = 52.31890 52.31814 72.35027
#
# Poissons Ratio (x) = 0.29978 0.35233
# Poissons Ratio (y) = 0.29979 0.35235
# Poissons Ratio (z) = 0.25478 0.25479
#
# Static dielectric constant tensor:
#      x y z
#    x 2.664670 0.000000 0.000000 
#    y 0.000000 2.664670 0.000000 
#    z 0.000000 0.000000 3.195320 
# 
# 
# High freq. dielectric constant tensor:
#      x y z
#    x 1.537570 0.000000 0.000000 
#    y 0.000000 1.537570 0.000000 
#    z 0.000000 0.000000 1.557800 
# 
# From -- ./inp_files/4573.got.cif
#   From: 2010.03.12/outbox.cif.g09.slc.cpg/sg129_3_cif.got.tgz:4573.got - 2010.04.06 17:19:44.
