data_PCOD8314029
_publ_section_title
;
Structure prediction by ZEFSAII (Michael W. Deem and Ramdas Pophale) SiO2 
 PCOD8314029
Probable space group: P 4/M B M
;
_chemical_formula_sum "Si O2"
_cell_formula_units_Z 96
_cell_length_a 15.856356
_cell_length_b 15.856356
_cell_length_c 19.063407
_cell_angle_alpha 90.000000
_cell_angle_beta 90.000000
_cell_angle_gamma 90.000000
_cell_volume 4792.998530
_symmetry_space_group_name_H-M "P 4/M B M"
_symmetry_group_IT_number 127
_symmetry_cell_setting 'tetragonal'
loop_
_space_group_symop_operation_xyz
x,y,z
-y,x,z
-x,-y,z
y,-x,z
1/2+x,1/2-y,-z
1/2-x,1/2+y,-z
1/2+y,1/2+x,-z
1/2-y,1/2-x,-z
-x,-y,-z
y,-x,-z
x,y,-z
-y,x,-z
1/2-x,1/2+y,z
1/2+x,1/2-y,z
1/2-y,1/2-x,z
1/2+y,1/2+x,z
loop_
_atom_site_type_symbol
_atom_site_label
_atom_site_fract_x
_atom_site_fract_y
_atom_site_fract_z
Si Si1 0.758082 0.602695 0.581238
Si Si2 0.363177 0.004521 0.680806
Si Si3 0.610539 0.585864 0.324498
Si Si4 0.168545 0.465393 0.166285
Si Si5 0.304433 0.331558 0.809477
Si Si6 0.104741 0.741346 0.922972
O O1 0.756366 0.578741 0.500000
O O2 0.814716 0.685285 0.595491
O O3 0.794334 0.521287 0.622910
O O4 0.663089 0.620156 0.608342
O O5 0.433162 0.933162 0.683201
O O6 0.320844 0.010299 0.757684
O O7 0.405494 0.094507 0.661058
O O8 0.515162 0.616831 0.326183
O O9 0.654428 0.624715 0.256927
O O10 0.075997 0.424004 0.159420
O O11 0.239498 0.395394 0.155191
O O12 0.178530 0.532912 0.104884
O O13 0.254351 0.245649 0.787519
O O14 0.378401 0.315362 0.866565
O O15 0.191287 0.691287 0.931015
O O16 0.079084 0.777247 0.000000
#
# Coordination Sequence:
#
# PCOD8314029 Si02
#       6
#    16  16  16  16  16  16
#     4  10  21  39  62  88 122 160 197 242 297 356
#     4   9  17  31  54  86 121 155 194 237 284 343
#     4  11  23  39  61  87 115 151 198 248 295 349
#     4  10  19  34  58  85 115 156 201 242 294 357
#     4  10  20  37  61  84 112 151 198 247 293 351
#     4  10  22  37  54  84 122 155 192 242 297 354
#
# _framework density 20.029216000000002
#
# number of rings (size 3 to 8) (size 9 to 14) (size 15 to 20)
#    0.000    2.000    1.667    2.000    0.000    3.000 
#    0.000    5.833    0.000    0.000    0.000    3.500 
#    0.000    0.000    0.000    0.000    0.000    0.000 
#
# Total GULP energy -1190184.679153 kJ/mol
# GULP energy per Si atom -12397.757075 kJ/mol
# Density = 1.998363 g / cm^3
# Si number density = 20.029216 Si / 1000 Ang^3
#
#
#
# Elastic Constant Matrix: (Units=GPa)
#
#
# Indices 1 2 3 4 5 6 
#
# 1 84.5530 32.4002 54.5724 0.0000 0.0000 0.0000
# 2 32.4002 84.5530 54.5724 0.0000 0.0000 0.0000
# 3 54.5724 54.5724 144.2087 0.0000 0.0000 0.0000
# 4 0.0000 0.0000 0.0000 25.6229 0.0000 0.0000
# 5 0.0000 0.0000 0.0000 0.0000 25.6229 0.0000
# 6 0.0000 0.0000 0.0000 0.0000 0.0000 22.9395
#
#
#
# Elastic Compliance Matrix: (Units=1/GPa)
#
#
# Indices 1 2 3 4 5 6 
#
# 1 0.016197 -0.002978 -0.005002 0.000000 0.000000 0.000000
# 2 -0.002978 0.016197 -0.005002 0.000000 0.000000 0.000000
# 3 -0.005002 -0.005002 0.010720 0.000000 0.000000 0.000000
# 4 0.000000 0.000000 0.000000 0.039028 0.000000 0.000000
# 5 0.000000 0.000000 0.000000 0.000000 0.039028 0.000000
# 6 0.000000 0.000000 0.000000 0.000000 0.000000 0.043593
#
#
# Mechanical properties :
#
#
# Convention : Reuss Voigt Hill
#
# Bulk Modulus (GPa) = 58.31368 66.26720 62.29044
# Shear Modulus (GPa) = 25.45268 26.28837 25.87053
#
# Velocity S-wave (km/s) = 3.56866 3.62678 3.59784
# Velocity P-wave (km/s) = 6.79397 7.12005 6.95892
#
# Compressibility (1/GPa) = 0.01714863
#
# Stress axis : x y z
#
# Youngs Moduli (GPa) = 61.74138 61.74138 93.27994
#
# Poissons Ratio (x) = 0.18386 0.46662
# Poissons Ratio (y) = 0.18386 0.46662
# Poissons Ratio (z) = 0.30885 0.30885
#
# Static dielectric constant tensor:
#      x y z
#    x 3.692900 0.000000 0.000000 
#    y 0.000000 3.692900 0.000000 
#    z 0.000000 0.000000 3.737040 
# 
# 
# High freq. dielectric constant tensor:
#      x y z
#    x 1.774660 0.000000 0.000000 
#    y 0.000000 1.774660 0.000000 
#    z 0.000000 0.000000 1.774500 
# 
# From -- ./inp_files/5768.got.cif
#   From: 2010.03.12/outbox.cif.g09.slc.cpg/sg127_3_cif.got.tgz:5768.got - 2010.04.06 17:03:15.
