data_PCOD8314392
_publ_section_title
;
Structure prediction by ZEFSAII (Michael W. Deem and Ramdas Pophale) SiO2 
 PCOD8314392
Probable space group: P 4/M B M
;
_chemical_formula_sum "Si O2"
_cell_formula_units_Z 96
_cell_length_a 21.187439
_cell_length_b 21.187439
_cell_length_c 13.793956
_cell_angle_alpha 90.000000
_cell_angle_beta 90.000000
_cell_angle_gamma 90.000000
_cell_volume 6192.211288
_symmetry_space_group_name_H-M "P 4/M B M"
_symmetry_group_IT_number 127
_symmetry_cell_setting 'tetragonal'
loop_
_space_group_symop_operation_xyz
x,y,z
-y,x,z
-x,-y,z
y,-x,z
1/2+x,1/2-y,-z
1/2-x,1/2+y,-z
1/2+y,1/2+x,-z
1/2-y,1/2-x,-z
-x,-y,-z
y,-x,-z
x,y,-z
-y,x,-z
1/2-x,1/2+y,z
1/2+x,1/2-y,z
1/2-y,1/2-x,z
1/2+y,1/2+x,z
loop_
_atom_site_type_symbol
_atom_site_label
_atom_site_fract_x
_atom_site_fract_y
_atom_site_fract_z
Si Si1 0.092350 0.690857 0.115258
Si Si2 0.629332 0.032895 0.114703
Si Si3 0.905236 0.042767 0.608174
Si Si4 0.633603 0.233812 0.888824
Si Si5 0.918928 0.849150 0.199950
Si Si6 0.171604 0.053772 0.114007
O O1 0.159191 0.659191 0.147367
O O2 0.084062 0.762429 0.153822
O O3 0.036277 0.645464 0.156699
O O4 0.086749 0.692537 0.000000
O O5 0.563502 0.063502 0.155602
O O6 0.686451 0.078728 0.143186
O O7 0.623360 0.029672 0.000000
O O8 0.878449 0.054879 0.500000
O O9 0.853573 0.065029 0.686110
O O10 0.969098 0.081815 0.623560
O O11 0.701700 0.201700 0.875898
O O12 0.631971 0.294123 0.818429
O O13 0.624459 0.255673 0.000000
O O14 0.888499 0.914616 0.165084
O O15 0.979978 0.831427 0.137043
O O16 0.166296 0.064401 0.000000
#
# Coordination Sequence:
#
# PCOD8314392 Si02
#       6
#    16  16  16  16  16  16
#     4   9  17  29  42  58  86 123 162 198 226 258
#     4   8  13  23  40  60  82 113 153 194 232 265
#     4   9  18  34  52  71  93 116 152 202 249 294
#     4   9  17  29  45  65  94 132 165 189 222 279
#     4  12  20  32  49  68  93 124 160 196 237 286
#     4  11  22  31  42  65  96 129 159 193 229 272
#
# _framework density 15.503347
#
# number of rings (size 3 to 8) (size 9 to 14) (size 15 to 20)
#    0.000    2.333    3.333    3.000    0.000    1.333 
#    0.000    4.167    0.000    0.500    0.000    0.000 
#    0.000    0.667    0.000    0.000    0.000    5.667 
#
# Total GULP energy -1189769.362956 kJ/mol
# GULP energy per Si atom -12393.430864 kJ/mol
# Density = 1.546806 g / cm^3
# Si number density = 15.503347 Si / 1000 Ang^3
#
#
#
# Elastic Constant Matrix: (Units=GPa)
#
#
# Indices 1 2 3 4 5 6 
#
# 1 100.1360 -2.9044 21.0887 0.0000 0.0000 0.0000
# 2 -2.9044 100.1360 21.0887 0.0000 0.0000 0.0000
# 3 21.0887 21.0887 56.0659 0.0000 0.0000 0.0000
# 4 0.0000 0.0000 0.0000 12.1952 0.0000 0.0000
# 5 0.0000 0.0000 0.0000 0.0000 12.1952 0.0000
# 6 0.0000 0.0000 0.0000 0.0000 0.0000 24.2206
#
#
#
# Elastic Compliance Matrix: (Units=1/GPa)
#
#
# Indices 1 2 3 4 5 6 
#
# 1 0.010997 0.001293 -0.004623 0.000000 0.000000 0.000000
# 2 0.001293 0.010997 -0.004623 0.000000 0.000000 0.000000
# 3 -0.004623 -0.004623 0.021314 0.000000 0.000000 0.000000
# 4 0.000000 0.000000 0.000000 0.082000 0.000000 0.000000
# 5 0.000000 0.000000 0.000000 0.000000 0.082000 0.000000
# 6 0.000000 0.000000 0.000000 0.000000 0.000000 0.041287
#
#
# Mechanical properties :
#
#
# Convention : Reuss Voigt Hill
#
# Bulk Modulus (GPa) = 36.49279 37.20934 36.85107
# Shear Modulus (GPa) = 18.27250 24.19319 21.23285
#
# Velocity S-wave (km/s) = 3.43682 3.95462 3.70478
# Velocity P-wave (km/s) = 6.27206 6.70112 6.49014
#
# Compressibility (1/GPa) = 0.02740267
#
# Stress axis : x y z
#
# Youngs Moduli (GPa) = 90.93007 90.93007 46.91801
#
# Poissons Ratio (x) = -0.11753 0.21689
# Poissons Ratio (y) = -0.11753 0.21689
# Poissons Ratio (z) = 0.42035 0.42035
#
# Static dielectric constant tensor:
#      x y z
#    x 3.152940 0.000000 0.000000 
#    y 0.000000 3.152940 0.000000 
#    z 0.000000 0.000000 2.519540 
# 
# 
# High freq. dielectric constant tensor:
#      x y z
#    x 1.598110 0.000000 0.000000 
#    y 0.000000 1.598110 0.000000 
#    z 0.000000 0.000000 1.526330 
# 
# From -- ./inp_files/3564.got.cif
#   From: 2010.03.12/outbox.cif.g09.slc.cpg/sg127_2_cif.got.tgz:3564.got - 2010.04.06 17:03:15.
