data_PCOD8314751
_publ_section_title
;
Structure prediction by ZEFSAII (Michael W. Deem and Ramdas Pophale) SiO2 
 PCOD8314751
Probable space group: P 4/M N C
;
_chemical_formula_sum "Si O2"
_cell_formula_units_Z 72
_cell_length_a 13.778272
_cell_length_b 13.778272
_cell_length_c 19.047020
_cell_angle_alpha 90.000000
_cell_angle_beta 90.000000
_cell_angle_gamma 90.000000
_cell_volume 3615.901120
_symmetry_space_group_name_H-M "P 4/M N C"
_symmetry_group_IT_number 128
_symmetry_cell_setting 'tetragonal'
loop_
_space_group_symop_operation_xyz
x,y,z
-y,x,z
-x,-y,z
y,-x,z
1/2+x,1/2-y,1/2-z
1/2-x,1/2+y,1/2-z
1/2+y,1/2+x,1/2-z
1/2-y,1/2-x,1/2-z
-x,-y,-z
y,-x,-z
x,y,-z
-y,x,-z
1/2-x,1/2+y,1/2+z
1/2+x,1/2-y,1/2+z
1/2-y,1/2-x,1/2+z
1/2+y,1/2+x,1/2+z
loop_
_atom_site_type_symbol
_atom_site_label
_atom_site_fract_x
_atom_site_fract_y
_atom_site_fract_z
Si Si1 0.253705 0.103776 0.584209
Si Si2 0.756882 0.102318 0.812151
Si Si3 0.891594 0.753907 0.349177
Si Si4 0.841478 0.989197 0.000000
Si Si5 0.242465 0.092119 0.130548
O O1 0.263467 0.092175 0.500000
O O2 0.155941 0.162761 0.601998
O O3 0.341916 0.164452 0.617326
O O4 0.256227 0.000611 0.622960
O O5 0.782642 0.125778 0.731664
O O6 0.663051 0.150138 0.850476
O O7 0.849091 0.143861 0.854610
O O8 0.739857 0.986319 0.808401
O O9 0.772319 0.981640 0.933621
O O10 0.910576 0.896243 0.000000
#
# Coordination Sequence:
#
# PCOD8314751 Si02
#       5
#    16  16  16   8  16
#     4  11  23  41  62  86 119 159 202 248 297 350
#     4  10  22  39  62  88 122 151 196 246 295 361
#     4  10  23  42  61  87 114 159 202 247 298 345
#     4  11  20  34  56  91 123 152 190 235 311 366
#     4  11  21  37  61  89 120 156 188 244 301 354
#
# _framework density 19.912050000000001
#
# number of rings (size 3 to 8) (size 9 to 14) (size 15 to 20)
#    0.000    1.444    3.333    2.000    0.000    4.444 
#    2.000    6.667    0.000    0.000    0.000    0.000 
#    0.000    0.000    0.000    0.000    0.000    0.000 
#
# Total GULP energy -892038.340372 kJ/mol
# GULP energy per Si atom -12389.421394 kJ/mol
# Density = 1.986673 g / cm^3
# Si number density = 19.912050 Si / 1000 Ang^3
#
#
#
# Elastic Constant Matrix: (Units=GPa)
#
#
# Indices 1 2 3 4 5 6 
#
# 1 124.4085 43.6302 27.8626 0.0000 0.0000 0.0000
# 2 43.6302 124.4085 27.8626 0.0000 0.0000 0.0000
# 3 27.8626 27.8626 74.4594 0.0000 0.0000 0.0000
# 4 0.0000 0.0000 0.0000 29.8041 0.0000 0.0000
# 5 0.0000 0.0000 0.0000 0.0000 29.8041 0.0000
# 6 0.0000 0.0000 0.0000 0.0000 0.0000 38.4055
#
#
#
# Elastic Compliance Matrix: (Units=1/GPa)
#
#
# Indices 1 2 3 4 5 6 
#
# 1 0.009587 -0.002793 -0.002542 0.000000 0.000000 0.000000
# 2 -0.002793 0.009587 -0.002542 0.000000 0.000000 0.000000
# 3 -0.002542 -0.002542 0.015333 0.000000 0.000000 0.000000
# 4 0.000000 0.000000 0.000000 0.033552 0.000000 0.000000
# 5 0.000000 0.000000 0.000000 0.000000 0.033552 0.000000
# 6 0.000000 0.000000 0.000000 0.000000 0.000000 0.026038
#
#
# Mechanical properties :
#
#
# Convention : Reuss Voigt Hill
#
# Bulk Modulus (GPa) = 53.32865 57.99860 55.66362
# Shear Modulus (GPa) = 33.41024 34.53080 33.97052
#
# Velocity S-wave (km/s) = 4.10065 4.16885 4.13489
# Velocity P-wave (km/s) = 7.01860 7.23623 7.12824
#
# Compressibility (1/GPa) = 0.01875165
#
# Stress axis : x y z
#
# Youngs Moduli (GPa) = 104.30977 104.30977 65.21955
#
# Poissons Ratio (x) = 0.29131 0.16581
# Poissons Ratio (y) = 0.29131 0.16581
# Poissons Ratio (z) = 0.26519 0.26519
#
# Static dielectric constant tensor:
#      x y z
#    x 3.558410 0.000000 0.000000 
#    y 0.000000 3.558410 0.000000 
#    z 0.000000 0.000000 3.746190 
# 
# 
# High freq. dielectric constant tensor:
#      x y z
#    x 1.773930 0.000000 0.000000 
#    y 0.000000 1.773930 0.000000 
#    z 0.000000 0.000000 1.792360 
# 
# From -- ./inp_files/4560.got.cif
#   From: 2010.03.12/outbox.cif.g09.slc.cpg/sg128_3_cif.got.tgz:4560.got - 2010.04.06 17:11:05.
