data_PCOD8314408
_publ_section_title
;
Structure prediction by ZEFSAII (Michael W. Deem and Ramdas Pophale) SiO2 
 PCOD8314408
Probable space group: P 4/M B M
;
_chemical_formula_sum "Si O2"
_cell_formula_units_Z 104
_cell_length_a 14.167138
_cell_length_b 14.167138
_cell_length_c 27.763052
_cell_angle_alpha 90.000000
_cell_angle_beta 90.000000
_cell_angle_gamma 90.000000
_cell_volume 5572.261064
_symmetry_space_group_name_H-M "P 4/M B M"
_symmetry_group_IT_number 127
_symmetry_cell_setting 'tetragonal'
loop_
_space_group_symop_operation_xyz
x,y,z
-y,x,z
-x,-y,z
y,-x,z
1/2+x,1/2-y,-z
1/2-x,1/2+y,-z
1/2+y,1/2+x,-z
1/2-y,1/2-x,-z
-x,-y,-z
y,-x,-z
x,y,-z
-y,x,-z
1/2-x,1/2+y,z
1/2+x,1/2-y,z
1/2-y,1/2-x,z
1/2+y,1/2+x,z
loop_
_atom_site_type_symbol
_atom_site_label
_atom_site_fract_x
_atom_site_fract_y
_atom_site_fract_z
Si Si1 0.864139 0.921785 0.791965
Si Si2 0.546345 0.351759 0.445699
Si Si3 0.904694 0.751576 0.646718
Si Si4 0.428813 0.928813 0.943676
Si Si5 0.164880 0.819363 0.109035
Si Si6 0.236836 0.108125 0.693967
Si Si7 0.226519 0.990893 0.943939
O O1 0.811694 0.885887 0.839688
O O2 0.797773 0.889004 0.748739
O O3 0.965733 0.872413 0.789556
O O4 0.615975 0.439327 0.436802
O O5 0.558548 0.313302 0.500000
O O6 0.571219 0.266724 0.409551
O O7 0.844385 0.655616 0.653690
O O8 0.845635 0.843111 0.662981
O O9 0.001273 0.744307 0.676885
O O10 0.325067 0.950034 0.927649
O O11 0.500000 0.000000 0.916807
O O12 0.440969 0.940969 0.000000
O O13 0.266383 0.766383 0.109630
O O14 0.160688 0.928391 0.091006
O O15 0.100700 0.769593 0.068665
O O16 0.334303 0.165698 0.689183
O O17 0.200962 0.975409 0.000000
#
# Coordination Sequence:
#
# PCOD8314408 Si02
#       7
#    16  16  16   8  16  16  16
#     4  11  22  40  65  89 115 153 196 245 301 359
#     4   9  17  31  55  87 124 166 213 264 311 356
#     4  11  22  36  61  92 122 164 209 253 313 368
#     4   9  18  36  58  82 112 147 193 239 277 328
#     4  12  24  41  62  86 122 159 193 239 299 356
#     4  11  23  40  63  91 120 153 201 256 308 367
#     4  11  23  38  60  88 117 153 196 238 284 346
#
# _framework density 18.663876999999999
#
# number of rings (size 3 to 8) (size 9 to 14) (size 15 to 20)
#    0.000    1.308    5.385    1.846    0.000    2.769 
#    0.000    0.769    1.692    0.462    0.000    1.077 
#    0.000    0.000    0.000    0.000    0.000    0.000 
#
# Total GULP energy -1289121.710862 kJ/mol
# GULP energy per Si atom -12395.401066 kJ/mol
# Density = 1.862140 g / cm^3
# Si number density = 18.663877 Si / 1000 Ang^3
#
#
#
# Elastic Constant Matrix: (Units=GPa)
#
#
# Indices 1 2 3 4 5 6 
#
# 1 81.2419 33.5903 40.7366 0.0000 0.0000 0.0000
# 2 33.5903 81.2419 40.7366 0.0000 0.0000 0.0000
# 3 40.7366 40.7366 124.1122 0.0000 0.0000 0.0000
# 4 0.0000 0.0000 0.0000 25.0941 0.0000 0.0000
# 5 0.0000 0.0000 0.0000 0.0000 25.0941 0.0000
# 6 0.0000 0.0000 0.0000 0.0000 0.0000 24.7219
#
#
#
# Elastic Compliance Matrix: (Units=1/GPa)
#
#
# Indices 1 2 3 4 5 6 
#
# 1 0.016169 -0.004817 -0.003726 0.000000 0.000000 0.000000
# 2 -0.004817 0.016169 -0.003726 0.000000 0.000000 0.000000
# 3 -0.003726 -0.003726 0.010503 0.000000 0.000000 0.000000
# 4 0.000000 0.000000 0.000000 0.039850 0.000000 0.000000
# 5 0.000000 0.000000 0.000000 0.000000 0.039850 0.000000
# 6 0.000000 0.000000 0.000000 0.000000 0.000000 0.040450
#
#
# Mechanical properties :
#
#
# Convention : Reuss Voigt Hill
#
# Bulk Modulus (GPa) = 54.63555 57.41365 56.02460
# Shear Modulus (GPa) = 25.82252 26.41751 26.12001
#
# Velocity S-wave (km/s) = 3.72365 3.76631 3.74504
# Velocity P-wave (km/s) = 6.91552 7.05281 6.98450
#
# Compressibility (1/GPa) = 0.01830310
#
# Stress axis : x y z
#
# Youngs Moduli (GPa) = 61.84749 61.84749 95.20965
#
# Poissons Ratio (x) = 0.29791 0.35475
# Poissons Ratio (y) = 0.29791 0.35475
# Poissons Ratio (z) = 0.23044 0.23044
#
# Static dielectric constant tensor:
#      x y z
#    x 2.573050 0.000000 0.000000 
#    y 0.000000 2.573050 0.000000 
#    z 0.000000 0.000000 3.411070 
# 
# 
# High freq. dielectric constant tensor:
#      x y z
#    x 1.719270 0.000000 0.000000 
#    y 0.000000 1.719270 0.000000 
#    z 0.000000 0.000000 1.728410 
# 
# From -- ./inp_files/6202.got.cif
#   From: 2010.03.12/outbox.cif.g09.slc.cpg/sg127_4_cif.got.tgz:6202.got - 2010.04.06 17:03:15.
