data_PCOD8314586
_publ_section_title
;
Structure prediction by ZEFSAII (Michael W. Deem and Ramdas Pophale) SiO2 
 PCOD8314586
Probable space group: P 4/M N C
;
_chemical_formula_sum "Si O2"
_cell_formula_units_Z 80
_cell_length_a 14.083704
_cell_length_b 14.083704
_cell_length_c 19.096341
_cell_angle_alpha 90.000000
_cell_angle_beta 90.000000
_cell_angle_gamma 90.000000
_cell_volume 3787.772955
_symmetry_space_group_name_H-M "P 4/M N C"
_symmetry_group_IT_number 128
_symmetry_cell_setting 'tetragonal'
loop_
_space_group_symop_operation_xyz
x,y,z
-y,x,z
-x,-y,z
y,-x,z
1/2+x,1/2-y,1/2-z
1/2-x,1/2+y,1/2-z
1/2+y,1/2+x,1/2-z
1/2-y,1/2-x,1/2-z
-x,-y,-z
y,-x,-z
x,y,-z
-y,x,-z
1/2-x,1/2+y,1/2+z
1/2+x,1/2-y,1/2+z
1/2-y,1/2-x,1/2+z
1/2+y,1/2+x,1/2+z
loop_
_atom_site_type_symbol
_atom_site_label
_atom_site_fract_x
_atom_site_fract_y
_atom_site_fract_z
Si Si1 0.781451 0.502924 0.748030
Si Si2 0.596975 0.386470 0.416763
Si Si3 0.686343 0.679485 0.215593
Si Si4 0.426736 0.922877 0.639318
Si Si5 0.716853 0.209111 0.579218
O O1 0.740301 0.397927 0.752978
O O2 0.688148 0.569758 0.759898
O O3 0.835539 0.515844 0.674639
O O4 0.859911 0.520443 0.807366
O O5 0.632726 0.489297 0.389210
O O6 0.593806 0.384510 0.500000
O O7 0.668370 0.305388 0.390488
O O8 0.784538 0.715463 0.250000
O O9 0.694545 0.687252 0.130715
O O10 0.360608 0.876079 0.579605
O O11 0.500000 0.000000 0.606807
O O12 0.755044 0.220930 0.500000
#
# Coordination Sequence:
#
# PCOD8314586 Si02
#       5
#    16  16  16  16  16
#     4  10  20  37  62  88 119 157 204 258 314 376
#     4   8  15  29  48  71 108 154 190 229 292 365
#     4  11  21  40  61  87 119 161 207 256 314 372
#     4  10  19  37  58  88 119 161 206 256 315 367
#     4  10  21  37  56  86 125 159 203 259 315 373
#
# _framework density 21.12059
#
# number of rings (size 3 to 8) (size 9 to 14) (size 15 to 20)
#    0.000    2.200    4.000    3.000    0.000    4.000 
#    0.000    4.000    0.000    0.000    0.000    5.600 
#    0.000    0.000    0.000    0.000    0.000    0.000 
#
# Total GULP energy -991555.170945 kJ/mol
# GULP energy per Si atom -12394.439637 kJ/mol
# Density = 2.107252 g / cm^3
# Si number density = 21.120590 Si / 1000 Ang^3
#
#
#
# Elastic Constant Matrix: (Units=GPa)
#
#
# Indices 1 2 3 4 5 6 
#
# 1 70.1668 23.0685 5.3245 0.0000 0.0000 0.0000
# 2 23.0685 70.1664 5.3239 0.0000 0.0000 0.0000
# 3 5.3245 5.3239 53.5763 0.0000 0.0000 0.0000
# 4 0.0000 0.0000 0.0000 16.7877 0.0000 0.0000
# 5 0.0000 0.0000 0.0000 0.0000 16.7876 0.0000
# 6 0.0000 0.0000 0.0000 0.0000 0.0000 41.1916
#
#
#
# Elastic Compliance Matrix: (Units=1/GPa)
#
#
# Indices 1 2 3 4 5 6 
#
# 1 0.016040 -0.005192 -0.001078 0.000000 0.000000 0.000000
# 2 -0.005192 0.016041 -0.001078 0.000000 0.000000 0.000000
# 3 -0.001078 -0.001078 0.018879 0.000000 0.000000 0.000000
# 4 0.000000 0.000000 0.000000 0.059568 0.000000 0.000000
# 5 0.000000 0.000000 0.000000 0.000000 0.059568 0.000000
# 6 0.000000 0.000000 0.000000 0.000000 0.000000 0.024277
#
#
# Mechanical properties :
#
#
# Convention : Reuss Voigt Hill
#
# Bulk Modulus (GPa) = 27.57540 29.03817 28.30679
# Shear Modulus (GPa) = 22.60844 25.63289 24.12067
#
# Velocity S-wave (km/s) = 3.27532 3.48752 3.38308
# Velocity P-wave (km/s) = 5.23336 5.47683 5.35648
#
# Compressibility (1/GPa) = 0.03626421
#
# Stress axis : x y z
#
# Youngs Moduli (GPa) = 62.34234 62.34204 52.96825
#
# Poissons Ratio (x) = 0.32367 0.05711
# Poissons Ratio (y) = 0.32367 0.05710
# Poissons Ratio (z) = 0.06722 0.06720
#
# Static dielectric constant tensor:
#      x y z
#    x 3.808890 0.000000 0.000000 
#    y 0.000000 3.808880 0.000000 
#    z 0.000000 0.000000 3.520640 
# 
# 
# High freq. dielectric constant tensor:
#      x y z
#    x 1.819590 0.000000 0.000000 
#    y 0.000000 1.819590 0.000000 
#    z 0.000000 0.000000 1.806360 
# 
# From -- ./inp_files/5528.got.cif
#   From: 2010.03.12/outbox.cif.g09.slc.cpg/sg128_3_cif.got.tgz:5528.got - 2010.04.06 17:11:05.
