data_PCOD8314034
_publ_section_title
;
Structure prediction by ZEFSAII (Michael W. Deem and Ramdas Pophale) SiO2 
 PCOD8314034
Probable space group: P 4/M B M
;
_chemical_formula_sum "Si O2"
_cell_formula_units_Z 96
_cell_length_a 15.461749
_cell_length_b 15.461749
_cell_length_c 21.822133
_cell_angle_alpha 90.000000
_cell_angle_beta 90.000000
_cell_angle_gamma 90.000000
_cell_volume 5216.923111
_symmetry_space_group_name_H-M "P 4/M B M"
_symmetry_group_IT_number 127
_symmetry_cell_setting 'tetragonal'
loop_
_space_group_symop_operation_xyz
x,y,z
-y,x,z
-x,-y,z
y,-x,z
1/2+x,1/2-y,-z
1/2-x,1/2+y,-z
1/2+y,1/2+x,-z
1/2-y,1/2-x,-z
-x,-y,-z
y,-x,-z
x,y,-z
-y,x,-z
1/2-x,1/2+y,z
1/2+x,1/2-y,z
1/2-y,1/2-x,z
1/2+y,1/2+x,z
loop_
_atom_site_type_symbol
_atom_site_label
_atom_site_fract_x
_atom_site_fract_y
_atom_site_fract_z
Si Si1 0.815923 0.171413 0.427175
Si Si2 0.072678 0.572678 0.069040
Si Si3 0.249337 0.511516 0.612394
Si Si4 0.457818 0.634735 0.929482
Si Si5 0.950990 0.691290 0.862626
Si Si6 0.504126 0.132232 0.500000
Si Si7 0.359927 0.999009 0.730802
O O1 0.820899 0.156741 0.500000
O O2 0.750126 0.250126 0.411211
O O3 0.788345 0.083403 0.394357
O O4 0.910647 0.184110 0.398314
O O5 0.157634 0.536636 0.102536
O O6 0.000000 0.500000 0.071873
O O7 0.097790 0.597790 0.000000
O O8 0.179012 0.525465 0.560541
O O9 0.208267 0.522928 0.678931
O O10 0.393481 0.555853 0.915480
O O11 0.429918 0.712545 0.885239
O O12 0.449040 0.664043 0.000000
O O13 0.868962 0.631039 0.877855
O O14 0.969737 0.692929 0.790410
O O15 0.607943 0.107943 0.500000
O O16 0.457714 0.042287 0.500000
O O17 0.418022 0.081979 0.747724
O O18 0.421184 0.921184 0.707399
#
# Coordination Sequence:
#
# PCOD8314034 Si02
#       7
#    16   8  16  16  16   8  16
#     4  11  22  39  61  87 121 151 187 245 297 347
#     4   9  16  28  52  84 118 151 177 218 292 355
#     4  12  23  38  59  84 114 157 195 235 293 354
#     4   9  19  38  61  83 115 160 201 239 288 343
#     4  10  19  35  57  86 120 151 188 241 297 345
#     4  11  20  32  56  87 110 136 188 247 298 345
#     4  10  20  37  59  83 116 153 194 245 299 354
#
# _framework density 18.401651000000001
#
# number of rings (size 3 to 8) (size 9 to 14) (size 15 to 20)
#    0.000    1.667    2.500    4.000    0.000    2.667 
#    4.500    0.833    0.000    0.000    0.000    0.000 
#    0.000    0.000    0.000    0.000    0.000    0.000 
#
# Total GULP energy -1190299.273644 kJ/mol
# GULP energy per Si atom -12398.950767 kJ/mol
# Density = 1.835977 g / cm^3
# Si number density = 18.401651 Si / 1000 Ang^3
#
#
#
# Elastic Constant Matrix: (Units=GPa)
#
#
# Indices 1 2 3 4 5 6 
#
# 1 87.6849 31.7445 34.4180 0.0000 0.0000 0.0000
# 2 31.7445 87.6863 34.4184 0.0000 0.0000 0.0000
# 3 34.4180 34.4184 94.2355 0.0000 0.0000 0.0000
# 4 0.0000 0.0000 0.0000 29.7336 0.0000 0.0000
# 5 0.0000 0.0000 0.0000 0.0000 29.7335 0.0000
# 6 0.0000 0.0000 0.0000 0.0000 0.0000 23.1656
#
#
#
# Elastic Compliance Matrix: (Units=1/GPa)
#
#
# Indices 1 2 3 4 5 6 
#
# 1 0.014241 -0.003635 -0.003874 0.000000 0.000000 0.000000
# 2 -0.003635 0.014241 -0.003874 0.000000 0.000000 0.000000
# 3 -0.003874 -0.003874 0.013441 0.000000 0.000000 0.000000
# 4 0.000000 0.000000 0.000000 0.033632 0.000000 0.000000
# 5 0.000000 0.000000 0.000000 0.000000 0.033632 0.000000
# 6 0.000000 0.000000 0.000000 0.000000 0.000000 0.043167
#
#
# Mechanical properties :
#
#
# Convention : Reuss Voigt Hill
#
# Bulk Modulus (GPa) = 52.19655 52.30761 52.25208
# Shear Modulus (GPa) = 27.54743 27.79493 27.67118
#
# Velocity S-wave (km/s) = 3.87332 3.89068 3.88201
# Velocity P-wave (km/s) = 6.95918 6.97642 6.96780
#
# Compressibility (1/GPa) = 0.01915835
#
# Stress axis : x y z
#
# Youngs Moduli (GPa) = 70.22004 70.22110 74.39777
#
# Poissons Ratio (x) = 0.25526 0.28819
# Poissons Ratio (y) = 0.25526 0.28819
# Poissons Ratio (z) = 0.27200 0.27201
#
# Static dielectric constant tensor:
#      x y z
#    x 3.356440 0.000000 0.000000 
#    y 0.000000 3.356440 0.000000 
#    z 0.000000 0.000000 3.332740 
# 
# 
# High freq. dielectric constant tensor:
#      x y z
#    x 1.708390 0.000000 0.000000 
#    y 0.000000 1.708390 0.000000 
#    z 0.000000 0.000000 1.710150 
# 
# From -- ./inp_files/6128.got.cif
#   From: 2010.03.12/outbox.cif.g09.slc.cpg/sg127_4_cif.got.tgz:6128.got - 2010.04.06 17:03:15.
