data_PCOD8314257
_publ_section_title
;
Structure prediction by ZEFSAII (Michael W. Deem and Ramdas Pophale) SiO2 
 PCOD8314257
Probable space group: P 4/M B M
;
_chemical_formula_sum "Si O2"
_cell_formula_units_Z 72
_cell_length_a 13.819694
_cell_length_b 13.819694
_cell_length_c 20.300228
_cell_angle_alpha 90.000000
_cell_angle_beta 90.000000
_cell_angle_gamma 90.000000
_cell_volume 3877.017572
_symmetry_space_group_name_H-M "P 4/M B M"
_symmetry_group_IT_number 127
_symmetry_cell_setting 'tetragonal'
loop_
_space_group_symop_operation_xyz
x,y,z
-y,x,z
-x,-y,z
y,-x,z
1/2+x,1/2-y,-z
1/2-x,1/2+y,-z
1/2+y,1/2+x,-z
1/2-y,1/2-x,-z
-x,-y,-z
y,-x,-z
x,y,-z
-y,x,-z
1/2-x,1/2+y,z
1/2+x,1/2-y,z
1/2-y,1/2-x,z
1/2+y,1/2+x,z
loop_
_atom_site_type_symbol
_atom_site_label
_atom_site_fract_x
_atom_site_fract_y
_atom_site_fract_z
Si Si1 0.760376 0.099732 0.076028
Si Si2 0.549606 0.347411 0.500000
Si Si3 0.257156 0.599019 0.295288
Si Si4 0.740504 0.398708 0.857953
Si Si5 0.899105 0.762313 0.362916
O O1 0.671481 0.171481 0.087016
O O2 0.858261 0.147059 0.103916
O O3 0.734559 0.004558 0.116449
O O4 0.776277 0.073923 0.000000
O O5 0.620681 0.438567 0.500000
O O6 0.569248 0.280562 0.562566
O O7 0.161732 0.661732 0.309628
O O8 0.284331 0.599375 0.218842
O O9 0.348671 0.641545 0.334574
O O10 0.235762 0.491118 0.318850
O O11 0.833605 0.333605 0.873391
O O12 0.828282 0.671719 0.358879
#
# Coordination Sequence:
#
# PCOD8314257 Si02
#       5
#    16   8  16  16  16
#     4  10  21  37  57  82 113 149 190 235 285 342
#     4  11  21  38  62  89 118 150 196 241 280 334
#     4  10  22  38  59  86 115 149 192 236 287 348
#     4  10  21  38  58  83 115 150 188 237 288 340
#     4  11  22  39  61  85 118 154 189 238 290 335
#
# _framework density 18.570975000000001
#
# number of rings (size 3 to 8) (size 9 to 14) (size 15 to 20)
#    0.000    1.667    2.222    2.333    0.000    5.778 
#    0.000    7.222    0.000    1.333    0.000    0.000 
#    0.000    0.000    0.000    0.000    0.000    0.000 
#
# Total GULP energy -893267.026107 kJ/mol
# GULP energy per Si atom -12406.486474 kJ/mol
# Density = 1.852871 g / cm^3
# Si number density = 18.570975 Si / 1000 Ang^3
#
#
#
# Elastic Constant Matrix: (Units=GPa)
#
#
# Indices 1 2 3 4 5 6 
#
# 1 93.3100 20.9622 25.1842 0.0000 0.0000 0.0000
# 2 20.9622 93.3100 25.1842 0.0000 0.0000 0.0000
# 3 25.1842 25.1842 67.7516 0.0000 0.0000 0.0000
# 4 0.0000 0.0000 0.0000 33.6576 0.0000 0.0000
# 5 0.0000 0.0000 0.0000 0.0000 33.6576 0.0000
# 6 0.0000 0.0000 0.0000 0.0000 0.0000 14.8501
#
#
#
# Elastic Compliance Matrix: (Units=1/GPa)
#
#
# Indices 1 2 3 4 5 6 
#
# 1 0.012144 -0.001678 -0.003890 0.000000 0.000000 0.000000
# 2 -0.001678 0.012144 -0.003890 0.000000 0.000000 0.000000
# 3 -0.003890 -0.003890 0.017652 0.000000 0.000000 0.000000
# 4 0.000000 0.000000 0.000000 0.029711 0.000000 0.000000
# 5 0.000000 0.000000 0.000000 0.000000 0.029711 0.000000
# 6 0.000000 0.000000 0.000000 0.000000 0.000000 0.067340
#
#
# Mechanical properties :
#
#
# Convention : Reuss Voigt Hill
#
# Bulk Modulus (GPa) = 43.43599 44.11477 43.77538
# Shear Modulus (GPa) = 25.60254 28.63577 27.11915
#
# Velocity S-wave (km/s) = 3.71702 3.93104 3.82553
# Velocity P-wave (km/s) = 6.47006 6.66411 6.56780
#
# Compressibility (1/GPa) = 0.02302238
#
# Stress axis : x y z
#
# Youngs Moduli (GPa) = 82.34554 82.34554 56.65101
#
# Poissons Ratio (x) = 0.13819 0.22039
# Poissons Ratio (y) = 0.13819 0.22039
# Poissons Ratio (z) = 0.32035 0.32035
#
# Static dielectric constant tensor:
#      x y z
#    x 3.363350 0.000000 0.000000 
#    y 0.000000 3.363350 0.000000 
#    z 0.000000 0.000000 3.564920 
# 
# 
# High freq. dielectric constant tensor:
#      x y z
#    x 1.720960 0.000000 0.000000 
#    y 0.000000 1.720960 0.000000 
#    z 0.000000 0.000000 1.740100 
# 
# From -- ./inp_files/4955.got.cif
#   From: 2010.03.12/outbox.cif.g09.slc.cpg/sg127_3_cif.got.tgz:4955.got - 2010.04.06 17:03:15.
