data_PCOD8314022
_publ_section_title
;
Structure prediction by ZEFSAII (Michael W. Deem and Ramdas Pophale) SiO2 
 PCOD8314022
Probable space group: P 4/M B M
;
_chemical_formula_sum "Si O2"
_cell_formula_units_Z 96
_cell_length_a 24.442248
_cell_length_b 24.442248
_cell_length_c 8.925348
_cell_angle_alpha 90.000000
_cell_angle_beta 90.000000
_cell_angle_gamma 90.000000
_cell_volume 5332.212527
_symmetry_space_group_name_H-M "P 4/M B M"
_symmetry_group_IT_number 127
_symmetry_cell_setting 'tetragonal'
loop_
_space_group_symop_operation_xyz
x,y,z
-y,x,z
-x,-y,z
y,-x,z
1/2+x,1/2-y,-z
1/2-x,1/2+y,-z
1/2+y,1/2+x,-z
1/2-y,1/2-x,-z
-x,-y,-z
y,-x,-z
x,y,-z
-y,x,-z
1/2-x,1/2+y,z
1/2+x,1/2-y,z
1/2-y,1/2-x,z
1/2+y,1/2+x,z
loop_
_atom_site_type_symbol
_atom_site_label
_atom_site_fract_x
_atom_site_fract_y
_atom_site_fract_z
Si Si1 0.403974 0.180867 0.823574
Si Si2 0.664400 0.009557 0.667315
Si Si3 0.191877 0.854144 0.176490
Si Si4 0.377253 0.877253 0.678952
Si Si5 0.210853 0.289148 0.320677
Si Si6 0.030538 0.207837 0.331674
Si Si7 0.802592 0.922110 0.175252
O O1 0.349556 0.150445 0.763714
O O2 0.456973 0.148465 0.764036
O O3 0.403449 0.242910 0.765582
O O4 0.406161 0.178939 0.000000
O O5 0.641782 0.000821 0.500000
O O6 0.637379 0.063032 0.741875
O O7 0.728727 0.018025 0.664669
O O8 0.230532 0.809031 0.256800
O O9 0.200268 0.915273 0.234413
O O10 0.128339 0.842053 0.212255
O O11 0.203866 0.850880 0.000000
O O12 0.375935 0.875935 0.500000
O O13 0.333324 0.833324 0.736552
O O14 0.214579 0.285422 0.500000
O O15 0.039854 0.185174 0.500000
O O16 0.977608 0.177643 0.258827
O O17 0.801071 0.935868 0.000000
#
# Coordination Sequence:
#
# PCOD8314022 Si02
#       7
#    16  16  16   8   8  16  16
#     4   9  18  33  51  69  96 134 173 216 261 304
#     4   9  17  31  50  70  95 131 173 214 260 312
#     4  11  22  35  55  83 114 145 179 221 271 326
#     4   9  16  31  50  70  99 134 168 213 266 308
#     4  11  21  35  53  78 114 147 178 222 273 320
#     4  10  19  34  56  78 106 141 178 220 265 320
#     4   9  20  36  55  78 107 142 179 218 261 320
#
# _framework density 18.003782999999999
#
# number of rings (size 3 to 8) (size 9 to 14) (size 15 to 20)
#    0.000    2.333    1.667    1.250    1.167    2.333 
#    0.000    0.833    0.000    3.000    0.000    3.500 
#    0.000    0.000    0.000    0.000    0.000    0.000 
#
# Total GULP energy -1190015.010493 kJ/mol
# GULP energy per Si atom -12395.989693 kJ/mol
# Density = 1.796281 g / cm^3
# Si number density = 18.003783 Si / 1000 Ang^3
#
#
#
# Elastic Constant Matrix: (Units=GPa)
#
#
# Indices 1 2 3 4 5 6 
#
# 1 71.6129 29.5084 35.2769 0.0000 0.0000 0.0000
# 2 29.5084 71.6126 35.2766 0.0000 0.0000 0.0000
# 3 35.2769 35.2766 60.4950 0.0000 0.0000 0.0000
# 4 0.0000 0.0000 0.0000 26.0284 0.0000 0.0000
# 5 0.0000 0.0000 0.0000 0.0000 26.0284 0.0000
# 6 0.0000 0.0000 0.0000 0.0000 0.0000 25.0669
#
#
#
# Elastic Compliance Matrix: (Units=1/GPa)
#
#
# Indices 1 2 3 4 5 6 
#
# 1 0.020212 -0.003539 -0.009722 0.000000 0.000000 0.000000
# 2 -0.003539 0.020212 -0.009722 0.000000 0.000000 0.000000
# 3 -0.009722 -0.009722 0.027869 0.000000 0.000000 0.000000
# 4 0.000000 0.000000 0.000000 0.038420 0.000000 0.000000
# 5 0.000000 0.000000 0.000000 0.000000 0.038420 0.000000
# 6 0.000000 0.000000 0.000000 0.000000 0.000000 0.039893
#
#
# Mechanical properties :
#
#
# Convention : Reuss Voigt Hill
#
# Bulk Modulus (GPa) = 44.79309 44.87160 44.83234
# Shear Modulus (GPa) = 20.97019 22.33530 21.65274
#
# Velocity S-wave (km/s) = 3.41657 3.52602 3.47173
# Velocity P-wave (km/s) = 6.36378 6.44629 6.40517
#
# Compressibility (1/GPa) = 0.02232487
#
# Stress axis : x y z
#
# Youngs Moduli (GPa) = 49.47670 49.47672 35.88189
#
# Poissons Ratio (x) = 0.17510 0.34886
# Poissons Ratio (y) = 0.17510 0.34885
# Poissons Ratio (z) = 0.48103 0.48103
#
# Static dielectric constant tensor:
#      x y z
#    x 3.420300 0.000000 0.000000 
#    y 0.000000 3.420300 0.000000 
#    z 0.000000 0.000000 3.373600 
# 
# 
# High freq. dielectric constant tensor:
#      x y z
#    x 1.687250 0.000000 0.000000 
#    y 0.000000 1.687250 0.000000 
#    z 0.000000 0.000000 1.691590 
# 
# From -- ./inp_files/2095.got.cif
#   From: 2010.03.12/outbox.cif.g09.slc.cpg/sg127_2_cif.got.tgz:2095.got - 2010.04.06 17:03:15.
