data_PCOD8314854
_publ_section_title
;
Structure prediction by ZEFSAII (Michael W. Deem and Ramdas Pophale) SiO2 
 PCOD8314854
Probable space group: P 4/N M M
;
_chemical_formula_sum "Si O2"
_cell_formula_units_Z 112
_cell_length_a 21.359123
_cell_length_b 21.359123
_cell_length_c 17.742837
_cell_angle_alpha 90.000000
_cell_angle_beta 90.000000
_cell_angle_gamma 90.000000
_cell_volume 8094.497555
_symmetry_space_group_name_H-M "P 4/N M M"
_symmetry_group_IT_number 129
_symmetry_cell_setting 'tetragonal'
loop_
_space_group_symop_operation_xyz
x,y,z
1/2-y,x,z
1/2-x,1/2-y,z
y,1/2-x,z
1/2+x,-y,-z
-x,1/2+y,-z
1/2+y,1/2+x,-z
-y,-x,-z
-x,-y,-z
1/2+y,-x,-z
1/2+x,1/2+y,-z
-y,1/2+x,-z
1/2-x,y,z
x,1/2-y,z
1/2-y,1/2-x,z
y,x,z
loop_
_atom_site_type_symbol
_atom_site_label
_atom_site_fract_x
_atom_site_fract_y
_atom_site_fract_z
Si Si1 0.502029 0.821769 0.066133
Si Si2 0.250000 0.824441 0.162825
Si Si3 0.447197 0.822448 0.287138
Si Si4 0.323322 0.631575 0.574952
Si Si5 0.087896 0.990839 0.059489
Si Si6 0.627342 0.116523 0.144518
Si Si7 0.924789 0.677086 0.214175
Si Si8 0.323714 0.750000 0.669017
O O1 0.510979 0.750000 0.049207
O O2 0.430523 0.834574 0.090607
O O3 0.548943 0.842963 0.132589
O O4 0.520370 0.855355 0.988326
O O5 0.250000 0.750000 0.157870
O O6 0.186771 0.850347 0.124177
O O7 0.250000 0.851796 0.247463
O O8 0.432980 0.750000 0.267382
O O9 0.430569 0.836077 0.374898
O O10 0.402191 0.861860 0.231737
O O11 0.520448 0.837166 0.275034
O O12 0.366402 0.633599 0.500000
O O13 0.250000 0.637813 0.552451
O O14 0.346437 0.688996 0.625491
O O15 0.111721 0.946735 0.127050
O O16 0.047276 0.952725 0.000000
O O17 0.046633 0.046633 0.095621
O O18 0.905273 0.750000 0.216520
O O19 0.864424 0.635576 0.234528
O O20 0.250000 0.750000 0.676855
#
# Coordination Sequence:
#
# PCOD8314854 Si02
#       8
#    16   8  16  16  16  16  16   8
#     4   9  17  29  44  58  78 100 129 165 203 249
#     4  11  18  26  38  54  84 117 138 166 203 239
#     4   9  17  28  40  57  80 108 138 166 197 240
#     4  10  16  23  36  57  82 108 139 172 198 220
#     4   9  18  30  42  55  72  98 136 176 205 232
#     4  10  18  26  39  56  77 109 142 169 195 233
#     4   9  17  29  46  65  80 100 126 160 207 254
#     4   9  16  22  34  54  78 107 139 170 201 223
#
# _framework density 13.836558999999999
#
# number of rings (size 3 to 8) (size 9 to 14) (size 15 to 20)
#    0.000    2.571    2.143    2.571    1.000    3.571 
#    0.000    0.000    0.000    0.429    0.000    0.000 
#    0.000    0.000    0.000    0.000    0.000    0.000 
#
# Total GULP energy -1388214.955297 kJ/mol
# GULP energy per Si atom -12394.776387 kJ/mol
# Density = 1.380507 g / cm^3
# Si number density = 13.836559 Si / 1000 Ang^3
#
#
#
# Elastic Constant Matrix: (Units=GPa)
#
#
# Indices 1 2 3 4 5 6 
#
# 1 67.3231 47.6528 33.8282 0.0000 0.0000 0.0000
# 2 47.6528 67.3232 33.8283 0.0000 0.0000 0.0000
# 3 33.8282 33.8283 65.3613 0.0000 0.0000 0.0000
# 4 0.0000 0.0000 0.0000 12.9771 0.0000 0.0000
# 5 0.0000 0.0000 0.0000 0.0000 12.9765 0.0000
# 6 0.0000 0.0000 0.0000 0.0000 0.0000 22.6142
#
#
#
# Elastic Compliance Matrix: (Units=1/GPa)
#
#
# Indices 1 2 3 4 5 6 
#
# 1 0.031672 -0.019166 -0.006473 0.000000 0.000000 0.000000
# 2 -0.019166 0.031672 -0.006473 0.000000 0.000000 0.000000
# 3 -0.006473 -0.006473 0.022000 0.000000 0.000000 0.000000
# 4 0.000000 0.000000 0.000000 0.077059 0.000000 0.000000
# 5 0.000000 0.000000 0.000000 0.000000 0.077062 0.000000
# 6 0.000000 0.000000 0.000000 0.000000 0.000000 0.044220
#
#
# Mechanical properties :
#
#
# Convention : Reuss Voigt Hill
#
# Bulk Modulus (GPa) = 47.34565 47.84734 47.59650
# Shear Modulus (GPa) = 14.08657 15.36011 14.72334
#
# Velocity S-wave (km/s) = 3.19418 3.33545 3.26558
# Velocity P-wave (km/s) = 6.92068 7.03485 6.97800
#
# Compressibility (1/GPa) = 0.02112127
#
# Stress axis : x y z
#
# Youngs Moduli (GPa) = 31.57353 31.57358 45.45536
#
# Poissons Ratio (x) = 0.60513 0.29422
# Poissons Ratio (y) = 0.60513 0.29422
# Poissons Ratio (z) = 0.20437 0.20437
#
# Static dielectric constant tensor:
#      x y z
#    x 2.661260 0.000000 0.000000 
#    y 0.000000 2.661260 0.000000 
#    z 0.000000 0.000000 2.709920 
# 
# 
# High freq. dielectric constant tensor:
#      x y z
#    x 1.507990 0.000000 0.000000 
#    y 0.000000 1.507990 0.000000 
#    z 0.000000 0.000000 1.507330 
# 
# From -- ./inp_files/6050.got.cif
#   From: 2010.03.12/outbox.cif.g09.slc.cpg/sg129_4_cif.got.tgz:6050.got - 2010.04.06 17:19:44.
