data_PCOD8314336
_publ_section_title
;
Structure prediction by ZEFSAII (Michael W. Deem and Ramdas Pophale) SiO2 
 PCOD8314336
Probable space group: P 4/M B M
;
_chemical_formula_sum "Si O2"
_cell_formula_units_Z 96
_cell_length_a 14.264801
_cell_length_b 14.264801
_cell_length_c 23.492993
_cell_angle_alpha 90.000000
_cell_angle_beta 90.000000
_cell_angle_gamma 90.000000
_cell_volume 4780.461052
_symmetry_space_group_name_H-M "P 4/M B M"
_symmetry_group_IT_number 127
_symmetry_cell_setting 'tetragonal'
loop_
_space_group_symop_operation_xyz
x,y,z
-y,x,z
-x,-y,z
y,-x,z
1/2+x,1/2-y,-z
1/2-x,1/2+y,-z
1/2+y,1/2+x,-z
1/2-y,1/2-x,-z
-x,-y,-z
y,-x,-z
x,y,-z
-y,x,-z
1/2-x,1/2+y,z
1/2+x,1/2-y,z
1/2-y,1/2-x,z
1/2+y,1/2+x,z
loop_
_atom_site_type_symbol
_atom_site_label
_atom_site_fract_x
_atom_site_fract_y
_atom_site_fract_z
Si Si1 0.348854 0.004963 0.937487
Si Si2 0.601660 0.746407 0.432980
Si Si3 0.757035 0.105652 0.847534
Si Si4 0.947529 0.854415 0.732242
Si Si5 0.758946 0.102573 0.619586
Si Si6 0.108824 0.108632 0.062306
O O1 0.392946 0.107055 0.925846
O O2 0.429183 0.929183 0.940879
O O3 0.282195 0.980769 0.884914
O O4 0.297244 0.006123 0.000000
O O5 0.601587 0.731616 0.500000
O O6 0.660753 0.839248 0.415810
O O7 0.650107 0.654449 0.406135
O O8 0.495353 0.758470 0.412277
O O9 0.676897 0.176897 0.827319
O O10 0.808754 0.063644 0.793571
O O11 0.830974 0.160433 0.888709
O O12 0.918513 0.777646 0.685694
O O13 0.055666 0.881508 0.724875
O O14 0.666336 0.166336 0.612731
O O15 0.999257 0.129379 0.070626
O O16 0.142021 0.142772 0.000000
#
# Coordination Sequence:
#
# PCOD8314336 Si02
#       6
#    16  16  16  16  16  16
#     4   8  15  30  51  74 104 143 184 229 288 362
#     4  10  22  40  66 102 139 176 218 264 317 377
#     4  11  21  33  53  82 110 142 186 239 298 363
#     4  11  23  42  64  83 110 155 208 258 311 373
#     4  11  22  41  66  96 134 174 219 270 320 377
#     4   9  18  34  54  74 100 137 181 231 290 357
#
# _framework density 20.081745999999999
#
# number of rings (size 3 to 8) (size 9 to 14) (size 15 to 20)
#    0.000    2.000    1.667    3.500    0.000    4.000 
#    0.000    6.667    0.000    3.000    0.000    0.000 
#    0.000    0.000    0.000    0.000    0.000    0.000 
#
# Total GULP energy -1189774.550051 kJ/mol
# GULP energy per Si atom -12393.484896 kJ/mol
# Density = 2.003604 g / cm^3
# Si number density = 20.081746 Si / 1000 Ang^3
#
#
#
# Elastic Constant Matrix: (Units=GPa)
#
#
# Indices 1 2 3 4 5 6 
#
# 1 101.8414 41.4197 40.0751 0.0000 0.0000 0.0000
# 2 41.4197 101.8414 40.0751 0.0000 0.0000 0.0000
# 3 40.0751 40.0751 122.5785 0.0000 0.0000 0.0000
# 4 0.0000 0.0000 0.0000 17.2489 0.0000 0.0000
# 5 0.0000 0.0000 0.0000 0.0000 17.2489 0.0000
# 6 0.0000 0.0000 0.0000 0.0000 0.0000 17.4835
#
#
#
# Elastic Compliance Matrix: (Units=1/GPa)
#
#
# Indices 1 2 3 4 5 6 
#
# 1 0.012547 -0.004004 -0.002793 0.000000 0.000000 0.000000
# 2 -0.004004 0.012547 -0.002793 0.000000 0.000000 0.000000
# 3 -0.002793 -0.002793 0.009984 0.000000 0.000000 0.000000
# 4 0.000000 0.000000 0.000000 0.057975 0.000000 0.000000
# 5 0.000000 0.000000 0.000000 0.000000 0.057975 0.000000
# 6 0.000000 0.000000 0.000000 0.000000 0.000000 0.057197
#
#
# Mechanical properties :
#
#
# Convention : Reuss Voigt Hill
#
# Bulk Modulus (GPa) = 62.90044 63.26679 63.08361
# Shear Modulus (GPa) = 21.48669 24.04236 22.76452
#
# Velocity S-wave (km/s) = 3.27457 3.46385 3.37054
# Velocity P-wave (km/s) = 6.75924 6.89715 6.82854
#
# Compressibility (1/GPa) = 0.01589814
#
# Stress axis : x y z
#
# Youngs Moduli (GPa) = 79.70301 79.70301 100.15774
#
# Poissons Ratio (x) = 0.31911 0.27973
# Poissons Ratio (y) = 0.31911 0.27973
# Poissons Ratio (z) = 0.22261 0.22261
#
# Static dielectric constant tensor:
#      x y z
#    x 3.795990 0.000000 0.000000 
#    y 0.000000 3.795990 0.000000 
#    z 0.000000 0.000000 3.675390 
# 
# 
# High freq. dielectric constant tensor:
#      x y z
#    x 1.785370 0.000000 0.000000 
#    y 0.000000 1.785370 0.000000 
#    z 0.000000 0.000000 1.785430 
# 
# From -- ./inp_files/5770.got.cif
#   From: 2010.03.12/outbox.cif.g09.slc.cpg/sg127_3_cif.got.tgz:5770.got - 2010.04.06 17:03:15.
