data_PCOD8314407
_publ_section_title
;
Structure prediction by ZEFSAII (Michael W. Deem and Ramdas Pophale) SiO2 
 PCOD8314407
Probable space group: P 4/M B M
;
_chemical_formula_sum "Si O2"
_cell_formula_units_Z 96
_cell_length_a 15.609450
_cell_length_b 15.609450
_cell_length_c 20.411348
_cell_angle_alpha 90.000000
_cell_angle_beta 90.000000
_cell_angle_gamma 90.000000
_cell_volume 4973.325554
_symmetry_space_group_name_H-M "P 4/M B M"
_symmetry_group_IT_number 127
_symmetry_cell_setting 'tetragonal'
loop_
_space_group_symop_operation_xyz
x,y,z
-y,x,z
-x,-y,z
y,-x,z
1/2+x,1/2-y,-z
1/2-x,1/2+y,-z
1/2+y,1/2+x,-z
1/2-y,1/2-x,-z
-x,-y,-z
y,-x,-z
x,y,-z
-y,x,-z
1/2-x,1/2+y,z
1/2+x,1/2-y,z
1/2-y,1/2-x,z
1/2+y,1/2+x,z
loop_
_atom_site_type_symbol
_atom_site_label
_atom_site_fract_x
_atom_site_fract_y
_atom_site_fract_z
Si Si1 0.499558 0.867405 0.310730
Si Si2 0.310143 0.331505 0.388923
Si Si3 0.317007 0.675204 0.765583
Si Si4 0.989024 0.753946 0.803983
Si Si5 0.249854 0.519469 0.573148
Si Si6 0.359821 0.999432 0.074004
O O1 0.420776 0.920776 0.340684
O O2 0.462275 0.815732 0.249935
O O3 0.541873 0.818814 0.371328
O O4 0.572827 0.927174 0.280000
O O5 0.239635 0.260365 0.411994
O O6 0.314660 0.333058 0.311001
O O7 0.287009 0.425984 0.413014
O O8 0.403142 0.317385 0.421172
O O9 0.241986 0.741986 0.788460
O O10 0.405940 0.685163 0.805464
O O11 0.293881 0.577314 0.779714
O O12 0.002107 0.719133 0.876870
O O13 0.210289 0.520439 0.500000
O O14 0.412812 0.912812 0.085314
O O15 0.419241 0.080759 0.087671
O O16 0.323849 0.002451 0.000000
#
# Coordination Sequence:
#
# PCOD8314407 Si02
#       6
#    16  16  16  16  16  16
#     4  11  22  36  58  85 113 149 194 252 315 363
#     4  11  23  43  63  85 120 158 199 254 312 367
#     4  11  22  38  64  91 120 161 206 256 309 358
#     4  12  22  38  61  90 123 160 207 254 295 359
#     4  12  25  40  60  85 115 156 201 247 305 371
#     4   9  18  34  59  92 129 165 201 251 312 365
#
# _framework density 19.302980999999999
#
# number of rings (size 3 to 8) (size 9 to 14) (size 15 to 20)
#    0.000    1.000    3.333    5.000    0.000    5.333 
#    0.000    4.167    0.000    3.000    0.000    1.167 
#    0.000    0.000    0.000    0.000    0.000    0.000 
#
# Total GULP energy -1190036.034656 kJ/mol
# GULP energy per Si atom -12396.208694 kJ/mol
# Density = 1.925905 g / cm^3
# Si number density = 19.302981 Si / 1000 Ang^3
#
#
#
# Elastic Constant Matrix: (Units=GPa)
#
#
# Indices 1 2 3 4 5 6 
#
# 1 102.4368 31.3215 17.1887 0.0000 0.0000 0.0000
# 2 31.3215 102.4368 17.1887 0.0000 0.0000 0.0000
# 3 17.1887 17.1887 100.5941 0.0000 0.0000 0.0000
# 4 0.0000 0.0000 0.0000 27.9956 0.0000 0.0000
# 5 0.0000 0.0000 0.0000 0.0000 27.9956 0.0000
# 6 0.0000 0.0000 0.0000 0.0000 0.0000 15.6108
#
#
#
# Elastic Compliance Matrix: (Units=1/GPa)
#
#
# Indices 1 2 3 4 5 6 
#
# 1 0.010941 -0.003121 -0.001336 0.000000 0.000000 0.000000
# 2 -0.003121 0.010941 -0.001336 0.000000 0.000000 0.000000
# 3 -0.001336 -0.001336 0.010398 0.000000 0.000000 0.000000
# 4 0.000000 0.000000 0.000000 0.035720 0.000000 0.000000
# 5 0.000000 0.000000 0.000000 0.000000 0.035720 0.000000
# 6 0.000000 0.000000 0.000000 0.000000 0.000000 0.064058
#
#
# Mechanical properties :
#
#
# Convention : Reuss Voigt Hill
#
# Bulk Modulus (GPa) = 48.32756 48.54062 48.43409
# Shear Modulus (GPa) = 26.84409 30.30500 28.57455
#
# Velocity S-wave (km/s) = 3.73322 3.96658 3.85166
# Velocity P-wave (km/s) = 6.60857 6.79556 6.70272
#
# Compressibility (1/GPa) = 0.02069212
#
# Stress axis : x y z
#
# Youngs Moduli (GPa) = 91.40253 91.40253 96.17643
#
# Poissons Ratio (x) = 0.28527 0.12851
# Poissons Ratio (y) = 0.28527 0.12851
# Poissons Ratio (z) = 0.12213 0.12213
#
# Static dielectric constant tensor:
#      x y z
#    x 3.638980 0.000000 0.000000 
#    y 0.000000 3.638980 0.000000 
#    z 0.000000 0.000000 3.584420 
# 
# 
# High freq. dielectric constant tensor:
#      x y z
#    x 1.750830 0.000000 0.000000 
#    y 0.000000 1.750830 0.000000 
#    z 0.000000 0.000000 1.745850 
# 
# From -- ./inp_files/5804.got.cif
#   From: 2010.03.12/outbox.cif.g09.slc.cpg/sg127_3_cif.got.tgz:5804.got - 2010.04.06 17:03:15.
