data_PCOD8314309
_publ_section_title
;
Structure prediction by ZEFSAII (Michael W. Deem and Ramdas Pophale) SiO2 
 PCOD8314309
Probable space group: P 4/M B M
;
_chemical_formula_sum "Si O2"
_cell_formula_units_Z 56
_cell_length_a 12.167190
_cell_length_b 12.167190
_cell_length_c 17.916439
_cell_angle_alpha 90.000000
_cell_angle_beta 90.000000
_cell_angle_gamma 90.000000
_cell_volume 2652.358812
_symmetry_space_group_name_H-M "P 4/M B M"
_symmetry_group_IT_number 127
_symmetry_cell_setting 'tetragonal'
loop_
_space_group_symop_operation_xyz
x,y,z
-y,x,z
-x,-y,z
y,-x,z
1/2+x,1/2-y,-z
1/2-x,1/2+y,-z
1/2+y,1/2+x,-z
1/2-y,1/2-x,-z
-x,-y,-z
y,-x,-z
x,y,-z
-y,x,-z
1/2-x,1/2+y,z
1/2+x,1/2-y,z
1/2-y,1/2-x,z
1/2+y,1/2+x,z
loop_
_atom_site_type_symbol
_atom_site_label
_atom_site_fract_x
_atom_site_fract_y
_atom_site_fract_z
Si Si1 0.282626 0.607542 0.815807
Si Si2 0.755156 0.072382 0.916466
Si Si3 0.963677 0.172966 0.654426
Si Si4 0.589751 0.910250 0.588274
O O1 0.211548 0.711548 0.788406
O O2 0.209482 0.534089 0.872725
O O3 0.386994 0.643630 0.865302
O O4 0.316693 0.537312 0.743819
O O5 0.661593 0.161593 0.921301
O O6 0.794995 0.042130 0.000000
O O7 0.943095 0.289844 0.616580
O O8 0.084331 0.129255 0.630049
O O9 0.592277 0.907724 0.500000
O O10 0.500000 0.000000 0.616751
#
# Coordination Sequence:
#
# PCOD8314309 Si02
#       4
#    16  16  16   8
#     4  11  21  37  61  89 123 167 220 278 336 400
#     4  10  22  37  55  83 123 170 223 279 336 395
#     4  11  24  44  73 106 140 181 232 288 343 411
#     4  11  28  50  76 109 144 182 223 277 350 422
#
# _framework density 21.113282999999999
#
# number of rings (size 3 to 8) (size 9 to 14) (size 15 to 20)
#    0.000    1.286    4.286    0.857    2.000    5.143 
#    0.000    4.286    0.000    0.000    0.000    0.000 
#    0.000    0.000    0.000    0.000    0.000    0.000 
#
# Total GULP energy -694186.618228 kJ/mol
# GULP energy per Si atom -12396.189611 kJ/mol
# Density = 2.106523 g / cm^3
# Si number density = 21.113283 Si / 1000 Ang^3
#
#
#
# Elastic Constant Matrix: (Units=GPa)
#
#
# Indices 1 2 3 4 5 6 
#
# 1 125.6731 51.5075 45.5736 0.0000 0.0000 0.0000
# 2 51.5075 125.6728 45.5733 0.0000 0.0000 0.0000
# 3 45.5736 45.5733 85.1319 0.0000 0.0000 0.0000
# 4 0.0000 0.0000 0.0000 28.3619 0.0000 0.0000
# 5 0.0000 0.0000 0.0000 0.0000 28.3619 0.0000
# 6 0.0000 0.0000 0.0000 0.0000 0.0000 16.6043
#
#
#
# Elastic Compliance Matrix: (Units=1/GPa)
#
#
# Indices 1 2 3 4 5 6 
#
# 1 0.010636 -0.002847 -0.004170 0.000000 0.000000 0.000000
# 2 -0.002847 0.010636 -0.004170 0.000000 0.000000 0.000000
# 3 -0.004170 -0.004170 0.016211 0.000000 0.000000 0.000000
# 4 0.000000 0.000000 0.000000 0.035259 0.000000 0.000000
# 5 0.000000 0.000000 0.000000 0.000000 0.035259 0.000000
# 6 0.000000 0.000000 0.000000 0.000000 0.000000 0.060225
#
#
# Mechanical properties :
#
#
# Convention : Reuss Voigt Hill
#
# Bulk Modulus (GPa) = 66.18103 69.08738 67.63420
# Shear Modulus (GPa) = 25.55779 27.58720 26.57250
#
# Velocity S-wave (km/s) = 3.48301 3.61865 3.55148
# Velocity P-wave (km/s) = 6.89847 7.08892 6.99434
#
# Compressibility (1/GPa) = 0.01511007
#
# Stress axis : x y z
#
# Youngs Moduli (GPa) = 94.01892 94.01897 61.68759
#
# Poissons Ratio (x) = 0.26769 0.25722
# Poissons Ratio (y) = 0.26769 0.25721
# Poissons Ratio (z) = 0.39203 0.39202
#
# Static dielectric constant tensor:
#      x y z
#    x 3.798660 0.000000 0.000000 
#    y 0.000000 3.798660 0.000000 
#    z 0.000000 0.000000 3.887760 
# 
# 
# High freq. dielectric constant tensor:
#      x y z
#    x 1.827660 0.000000 0.000000 
#    y 0.000000 1.827660 0.000000 
#    z 0.000000 0.000000 1.829680 
# 
# From -- ./inp_files/5468.got.cif
#   From: 2010.03.12/outbox.cif.g09.slc.cpg/sg127_3_cif.got.tgz:5468.got - 2010.04.06 17:03:15.
