data_PCOD8314087
_publ_section_title
;
Structure prediction by ZEFSAII (Michael W. Deem and Ramdas Pophale) SiO2 
 PCOD8314087
Probable space group: P 4/M B M
;
_chemical_formula_sum "Si O2"
_cell_formula_units_Z 56
_cell_length_a 17.200867
_cell_length_b 17.200867
_cell_length_c 9.108497
_cell_angle_alpha 90.000000
_cell_angle_beta 90.000000
_cell_angle_gamma 90.000000
_cell_volume 2694.929418
_symmetry_space_group_name_H-M "P 4/M B M"
_symmetry_group_IT_number 127
_symmetry_cell_setting 'tetragonal'
loop_
_space_group_symop_operation_xyz
x,y,z
-y,x,z
-x,-y,z
y,-x,z
1/2+x,1/2-y,-z
1/2-x,1/2+y,-z
1/2+y,1/2+x,-z
1/2-y,1/2-x,-z
-x,-y,-z
y,-x,-z
x,y,-z
-y,x,-z
1/2-x,1/2+y,z
1/2+x,1/2-y,z
1/2-y,1/2-x,z
1/2+y,1/2+x,z
loop_
_atom_site_type_symbol
_atom_site_label
_atom_site_fract_x
_atom_site_fract_y
_atom_site_fract_z
Si Si1 0.720408 0.345528 0.327592
Si Si2 0.565730 0.065730 0.334489
Si Si3 0.081812 0.095705 0.829516
Si Si4 0.540774 0.829863 0.163802
O O1 0.720104 0.359807 0.500000
O O2 0.765757 0.265757 0.288148
O O3 0.632706 0.342998 0.264863
O O4 0.760664 0.419267 0.251840
O O5 0.589148 0.089148 0.500000
O O6 0.535852 0.142593 0.250704
O O7 0.500000 0.000000 0.338373
O O8 0.991964 0.107689 0.789212
O O9 0.096445 0.112084 0.000000
O O10 0.597767 0.902234 0.151013
O O11 0.517925 0.800877 0.000000
#
# Coordination Sequence:
#
# PCOD8314087 Si02
#       4
#    16   8  16  16
#     4  10  20  33  52  81 115 148 183 227 280 336
#     4   9  15  23  37  59  91 129 171 221 271 319
#     4   9  19  37  61  87 113 143 184 235 285 335
#     4   9  16  26  42  65  94 133 179 221 263 317
#
# _framework density 20.779765999999999
#
# number of rings (size 3 to 8) (size 9 to 14) (size 15 to 20)
#    0.000    2.714    0.000    3.000    0.000    8.000 
#    0.000    1.429    3.143    0.000    0.000    0.000 
#    0.000    0.000    0.000    0.000    0.000    0.000 
#
# Total GULP energy -694298.821145 kJ/mol
# GULP energy per Si atom -12398.193235 kJ/mol
# Density = 2.073247 g / cm^3
# Si number density = 20.779766 Si / 1000 Ang^3
#
#
#
# Elastic Constant Matrix: (Units=GPa)
#
#
# Indices 1 2 3 4 5 6 
#
# 1 59.2993 26.9655 36.2170 0.0000 0.0000 0.0000
# 2 26.9655 59.2993 36.2170 0.0000 0.0000 0.0000
# 3 36.2170 36.2170 121.9624 0.0000 0.0000 0.0000
# 4 0.0000 0.0000 0.0000 27.5573 0.0000 0.0000
# 5 0.0000 0.0000 0.0000 0.0000 27.5573 0.0000
# 6 0.0000 0.0000 0.0000 0.0000 0.0000 16.1629
#
#
#
# Elastic Compliance Matrix: (Units=1/GPa)
#
#
# Indices 1 2 3 4 5 6 
#
# 1 0.023185 -0.007742 -0.004586 0.000000 0.000000 0.000000
# 2 -0.007742 0.023185 -0.004586 0.000000 0.000000 0.000000
# 3 -0.004586 -0.004586 0.010923 0.000000 0.000000 0.000000
# 4 0.000000 0.000000 0.000000 0.036288 0.000000 0.000000
# 5 0.000000 0.000000 0.000000 0.000000 0.036288 0.000000
# 6 0.000000 0.000000 0.000000 0.000000 0.000000 0.061870
#
#
# Mechanical properties :
#
#
# Convention : Reuss Voigt Hill
#
# Bulk Modulus (GPa) = 42.61627 48.81775 45.71701
# Shear Modulus (GPa) = 21.42351 23.66626 22.54488
#
# Velocity S-wave (km/s) = 3.21437 3.37843 3.29742
# Velocity P-wave (km/s) = 5.85912 6.22594 6.04531
#
# Compressibility (1/GPa) = 0.02346521
#
# Stress axis : x y z
#
# Youngs Moduli (GPa) = 43.13125 43.13125 91.55208
#
# Poissons Ratio (x) = 0.33394 0.41983
# Poissons Ratio (y) = 0.33394 0.41983
# Poissons Ratio (z) = 0.19779 0.19779
#
# Static dielectric constant tensor:
#      x y z
#    x 3.537290 0.000000 0.000000 
#    y 0.000000 3.537290 0.000000 
#    z 0.000000 0.000000 3.833020 
# 
# 
# High freq. dielectric constant tensor:
#      x y z
#    x 1.792770 0.000000 0.000000 
#    y 0.000000 1.792770 0.000000 
#    z 0.000000 0.000000 1.818410 
# 
# From -- ./inp_files/1070.got.cif
#   From: 2010.03.12/outbox.cif.g09.slc.cpg/sg127_1_cif.got.tgz:1070.got - 2010.04.06 17:03:15.
