data_PCOD8314622
_publ_section_title
;
Structure prediction by ZEFSAII (Michael W. Deem and Ramdas Pophale) SiO2 
 PCOD8314622
Probable space group: P 4/M N C
;
_chemical_formula_sum "Si O2"
_cell_formula_units_Z 104
_cell_length_a 26.657418
_cell_length_b 26.657418
_cell_length_c 8.229607
_cell_angle_alpha 90.000000
_cell_angle_beta 90.000000
_cell_angle_gamma 90.000000
_cell_volume 5848.106327
_symmetry_space_group_name_H-M "P 4/M N C"
_symmetry_group_IT_number 128
_symmetry_cell_setting 'tetragonal'
loop_
_space_group_symop_operation_xyz
x,y,z
-y,x,z
-x,-y,z
y,-x,z
1/2+x,1/2-y,1/2-z
1/2-x,1/2+y,1/2-z
1/2+y,1/2+x,1/2-z
1/2-y,1/2-x,1/2-z
-x,-y,-z
y,-x,-z
x,y,-z
-y,x,-z
1/2-x,1/2+y,1/2+z
1/2+x,1/2-y,1/2+z
1/2-y,1/2-x,1/2+z
1/2+y,1/2+x,1/2+z
loop_
_atom_site_type_symbol
_atom_site_label
_atom_site_fract_x
_atom_site_fract_y
_atom_site_fract_z
Si Si1 0.870497 0.076514 0.685473
Si Si2 0.500242 0.922225 0.190619
Si Si3 0.956385 0.930909 0.000000
Si Si4 0.004603 0.789591 0.314249
Si Si5 0.366779 0.210529 0.690620
Si Si6 0.184529 0.524911 0.691535
Si Si7 0.320314 0.609214 0.311313
O O1 0.890114 0.064796 0.500000
O O2 0.907459 0.060553 0.829308
O O3 0.818088 0.047969 0.714648
O O4 0.864781 0.136562 0.703011
O O5 0.450993 0.950993 0.250000
O O6 0.497279 0.865879 0.255170
O O7 0.550845 0.949156 0.250000
O O8 0.500966 0.922130 0.000000
O O9 0.015488 0.931021 0.000000
O O10 0.021555 0.792017 0.500000
O O11 0.995136 0.732194 0.262145
O O12 0.049097 0.815877 0.212674
O O13 0.317488 0.182513 0.750000
O O14 0.369232 0.207204 0.500000
O O15 0.417807 0.185204 0.759904
O O16 0.364469 0.268536 0.744787
O O17 0.189262 0.524436 0.500000
O O18 0.332477 0.618793 0.500000
#
# Coordination Sequence:
#
# PCOD8314622 Si02
#       7
#    16  16   8  16  16  16  16
#     4  11  23  37  57  82 109 145 189 232 275 334
#     4  11  21  34  52  76 109 146 185 224 271 329
#     4  11  24  38  56  80 110 148 182 225 284 332
#     4  10  21  35  54  81 108 137 181 230 274 323
#     4   9  19  32  50  78 108 139 174 218 270 329
#     4  10  20  34  53  78 108 143 183 223 272 328
#     4  10  20  35  55  78 107 143 183 222 275 332
#
# _framework density 17.783534
#
# number of rings (size 3 to 8) (size 9 to 14) (size 15 to 20)
#    0.000    1.769    0.769    5.538    2.154    6.769 
#    0.000    0.769    0.000    0.923    0.000    2.154 
#    0.000    0.000    0.000    0.000    0.000    0.000 
#
# Total GULP energy -1289322.175838 kJ/mol
# GULP energy per Si atom -12397.328614 kJ/mol
# Density = 1.774306 g / cm^3
# Si number density = 17.783534 Si / 1000 Ang^3
#
#
#
# Elastic Constant Matrix: (Units=GPa)
#
#
# Indices 1 2 3 4 5 6 
#
# 1 126.9772 51.8778 26.9842 0.0000 0.0000 0.0000
# 2 51.8778 126.9820 26.9813 0.0000 0.0000 0.0000
# 3 26.9842 26.9813 60.7598 0.0000 0.0000 0.0000
# 4 0.0000 0.0000 0.0000 28.4053 0.0000 0.0000
# 5 0.0000 0.0000 0.0000 0.0000 28.4053 0.0000
# 6 0.0000 0.0000 0.0000 0.0000 0.0000 24.5103
#
#
#
# Elastic Compliance Matrix: (Units=1/GPa)
#
#
# Indices 1 2 3 4 5 6 
#
# 1 0.009886 -0.003430 -0.002868 0.000000 0.000000 0.000000
# 2 -0.003430 0.009885 -0.002867 0.000000 0.000000 0.000000
# 3 -0.002868 -0.002867 0.019005 0.000000 0.000000 0.000000
# 4 0.000000 0.000000 0.000000 0.035205 0.000000 0.000000
# 5 0.000000 0.000000 0.000000 0.000000 0.035205 0.000000
# 6 0.000000 0.000000 0.000000 0.000000 0.000000 0.040799
#
#
# Mechanical properties :
#
#
# Convention : Reuss Voigt Hill
#
# Bulk Modulus (GPa) = 48.90307 58.48950 53.69629
# Shear Modulus (GPa) = 28.55050 30.18924 29.36987
#
# Velocity S-wave (km/s) = 4.01115 4.12466 4.06830
# Velocity P-wave (km/s) = 7.00080 7.45955 7.23381
#
# Compressibility (1/GPa) = 0.02044861
#
# Stress axis : x y z
#
# Youngs Moduli (GPa) = 101.15311 101.15961 52.61849
#
# Poissons Ratio (x) = 0.34693 0.15089
# Poissons Ratio (y) = 0.34691 0.15084
# Poissons Ratio (z) = 0.29006 0.28999
#
# Static dielectric constant tensor:
#      x y z
#    x 3.070850 0.000000 0.000000 
#    y 0.000000 3.070840 0.000000 
#    z 0.000000 0.000000 3.460400 
# 
# 
# High freq. dielectric constant tensor:
#      x y z
#    x 1.676610 0.000000 0.000000 
#    y 0.000000 1.676610 0.000000 
#    z 0.000000 0.000000 1.707040 
# 
# From -- ./inp_files/1712.got.cif
#   From: 2010.03.12/outbox.cif.g09.slc.cpg/sg128_1_cif.got.tgz:1712.got - 2010.04.06 17:11:05.
