data_PCOD8314870
_publ_section_title
;
Structure prediction by ZEFSAII (Michael W. Deem and Ramdas Pophale) SiO2 
 PCOD8314870
Probable space group: P 4/N M M
;
_chemical_formula_sum "Si O2"
_cell_formula_units_Z 112
_cell_length_a 24.056223
_cell_length_b 24.056223
_cell_length_c 12.563562
_cell_angle_alpha 90.000000
_cell_angle_beta 90.000000
_cell_angle_gamma 90.000000
_cell_volume 7270.556761
_symmetry_space_group_name_H-M "P 4/N M M"
_symmetry_group_IT_number 129
_symmetry_cell_setting 'tetragonal'
loop_
_space_group_symop_operation_xyz
x,y,z
1/2-y,x,z
1/2-x,1/2-y,z
y,1/2-x,z
1/2+x,-y,-z
-x,1/2+y,-z
1/2+y,1/2+x,-z
-y,-x,-z
-x,-y,-z
1/2+y,-x,-z
1/2+x,1/2+y,-z
-y,1/2+x,-z
1/2-x,y,z
x,1/2-y,z
1/2-y,1/2-x,z
y,x,z
loop_
_atom_site_type_symbol
_atom_site_label
_atom_site_fract_x
_atom_site_fract_y
_atom_site_fract_z
Si Si1 0.315244 0.978850 0.969877
Si Si2 0.686786 0.902284 0.710723
Si Si3 0.685491 0.399079 0.213643
Si Si4 0.480968 0.684632 0.638907
Si Si5 0.813462 0.903144 0.961235
Si Si6 0.185333 0.599512 0.542377
Si Si7 0.593292 0.316014 0.166764
O O1 0.250000 0.983498 0.987954
O O2 0.331128 0.953476 0.855158
O O3 0.337967 0.938343 0.062045
O O4 0.338097 0.041782 0.980701
O O5 0.750000 0.889278 0.676520
O O6 0.650583 0.849418 0.676523
O O7 0.683192 0.914361 0.835809
O O8 0.661664 0.956309 0.650132
O O9 0.750000 0.384652 0.197720
O O10 0.671319 0.413388 0.335522
O O11 0.653202 0.345093 0.172059
O O12 0.485281 0.750000 0.654990
O O13 0.455118 0.667871 0.524930
O O14 0.441441 0.661941 0.732125
O O15 0.750000 0.889953 0.995393
O O16 0.850792 0.850792 0.995905
O O17 0.153139 0.653139 0.500000
O O18 0.250000 0.613153 0.524883
O O19 0.603158 0.250000 0.167282
#
# Coordination Sequence:
#
# PCOD8314870 Si02
#       7
#    16  16  16  16  16  16  16
#     4   9  17  30  45  63  89 121 155 182 214 267
#     4   9  16  27  46  72  97 119 145 177 217 267
#     4  10  20  30  43  65  88 116 155 197 236 267
#     4   9  16  28  45  64  86 119 156 181 211 268
#     4   9  16  27  46  71  97 121 143 174 216 264
#     4  10  19  30  44  64  88 116 152 193 235 272
#     4  10  17  28  46  64  86 119 152 187 229 272
#
# _framework density 15.404598
#
# number of rings (size 3 to 8) (size 9 to 14) (size 15 to 20)
#    0.000    2.571    2.857    0.429    0.000    0.714 
#    0.000    2.857    0.000    6.429    0.000    0.000 
#    0.000    0.000    0.000   11.143    0.000    0.286 
#
# Total GULP energy -1388445.050026 kJ/mol
# GULP energy per Si atom -12396.830804 kJ/mol
# Density = 1.536954 g / cm^3
# Si number density = 15.404598 Si / 1000 Ang^3
#
#
#
# Elastic Constant Matrix: (Units=GPa)
#
#
# Indices 1 2 3 4 5 6 
#
# 1 88.4771 55.3129 43.4682 0.0000 0.0000 0.0000
# 2 55.3129 88.4771 43.4682 0.0000 0.0000 0.0000
# 3 43.4682 43.4682 95.6170 0.0000 0.0000 0.0000
# 4 0.0000 0.0000 0.0000 15.4894 0.0000 0.0000
# 5 0.0000 0.0000 0.0000 0.0000 15.4894 0.0000
# 6 0.0000 0.0000 0.0000 0.0000 0.0000 7.9995
#
#
#
# Elastic Compliance Matrix: (Units=1/GPa)
#
#
# Indices 1 2 3 4 5 6 
#
# 1 0.019872 -0.010281 -0.004360 0.000000 0.000000 0.000000
# 2 -0.010281 0.019872 -0.004360 0.000000 0.000000 0.000000
# 3 -0.004360 -0.004360 0.014423 0.000000 0.000000 0.000000
# 4 0.000000 0.000000 0.000000 0.064560 0.000000 0.000000
# 5 0.000000 0.000000 0.000000 0.000000 0.064560 0.000000
# 6 0.000000 0.000000 0.000000 0.000000 0.000000 0.125007
#
#
# Mechanical properties :
#
#
# Convention : Reuss Voigt Hill
#
# Bulk Modulus (GPa) = 61.86609 61.89662 61.88136
# Shear Modulus (GPa) = 14.21727 16.48377 15.35052
#
# Velocity S-wave (km/s) = 3.04126 3.27472 3.16015
# Velocity P-wave (km/s) = 7.25123 7.38689 7.31938
#
# Compressibility (1/GPa) = 0.01616394
#
# Stress axis : x y z
#
# Youngs Moduli (GPa) = 50.32248 50.32248 69.33584
#
# Poissons Ratio (x) = 0.51737 0.30230
# Poissons Ratio (y) = 0.51737 0.30230
# Poissons Ratio (z) = 0.21941 0.21941
#
# Static dielectric constant tensor:
#      x y z
#    x 2.884150 0.000000 0.000000 
#    y 0.000000 2.884150 0.000000 
#    z 0.000000 0.000000 2.979020 
# 
# 
# High freq. dielectric constant tensor:
#      x y z
#    x 1.574500 0.000000 0.000000 
#    y 0.000000 1.574500 0.000000 
#    z 0.000000 0.000000 1.580660 
# 
# From -- ./inp_files/4060.got.cif
#   From: 2010.03.12/outbox.cif.g09.slc.cpg/sg129_3_cif.got.tgz:4060.got - 2010.04.06 17:19:44.
