data_PCOD8314696
_publ_section_title
;
Structure prediction by ZEFSAII (Michael W. Deem and Ramdas Pophale) SiO2 
 PCOD8314696
Probable space group: P 4/M N C
;
_chemical_formula_sum "Si O2"
_cell_formula_units_Z 96
_cell_length_a 22.695153
_cell_length_b 22.695153
_cell_length_c 10.472873
_cell_angle_alpha 90.000000
_cell_angle_beta 90.000000
_cell_angle_gamma 90.000000
_cell_volume 5394.262379
_symmetry_space_group_name_H-M "P 4/M N C"
_symmetry_group_IT_number 128
_symmetry_cell_setting 'tetragonal'
loop_
_space_group_symop_operation_xyz
x,y,z
-y,x,z
-x,-y,z
y,-x,z
1/2+x,1/2-y,1/2-z
1/2-x,1/2+y,1/2-z
1/2+y,1/2+x,1/2-z
1/2-y,1/2-x,1/2-z
-x,-y,-z
y,-x,-z
x,y,-z
-y,x,-z
1/2-x,1/2+y,1/2+z
1/2+x,1/2-y,1/2+z
1/2-y,1/2-x,1/2+z
1/2+y,1/2+x,1/2+z
loop_
_atom_site_type_symbol
_atom_site_label
_atom_site_fract_x
_atom_site_fract_y
_atom_site_fract_z
Si Si1 0.082223 0.950746 0.500000
Si Si2 0.508878 0.756372 0.853290
Si Si3 0.606421 0.169117 0.143035
Si Si4 0.643761 0.787951 0.851470
Si Si5 0.287386 0.331171 0.857095
Si Si6 0.587680 0.539766 0.500000
Si Si7 0.437747 0.655552 0.245821
O O1 0.080343 0.020179 0.500000
O O2 0.111515 0.929795 0.370610
O O3 0.459031 0.805688 0.826148
O O4 0.575238 0.775487 0.819962
O O5 0.493507 0.698924 0.770115
O O6 0.504207 0.736626 0.000000
O O7 0.619632 0.119632 0.250000
O O8 0.660009 0.216802 0.146882
O O9 0.605475 0.141261 0.000000
O O10 0.661720 0.838281 0.750000
O O11 0.687838 0.733385 0.824652
O O12 0.650116 0.808438 0.000000
O O13 0.310012 0.376169 0.750276
O O14 0.309403 0.348555 0.000000
O O15 0.528918 0.576964 0.500000
O O16 0.622996 0.557020 0.376865
#
# Coordination Sequence:
#
# PCOD8314696 Si02
#       7
#     8  16  16  16  16   8  16
#     4  11  22  30  52  80  98 136 198 243 259 307
#     4   9  19  36  59  82 106 138 181 229 274 319
#     4   9  17  33  53  79 110 139 172 217 266 318
#     4  10  21  37  57  84 112 142 174 219 275 325
#     4   9  18  33  56  82 107 139 179 226 266 315
#     4  11  26  40  46  66 114 160 186 233 289 319
#     4  11  20  37  55  75 105 144 191 227 279 316
#
# _framework density 17.796686999999999
#
# number of rings (size 3 to 8) (size 9 to 14) (size 15 to 20)
#    0.000    2.167    1.667    2.500    4.667    1.333 
#    9.000    0.000    0.000    0.500    0.000    3.500 
#    0.000    0.000    0.000    0.000    0.000    0.000 
#
# Total GULP energy -1189652.297609 kJ/mol
# GULP energy per Si atom -12392.211433 kJ/mol
# Density = 1.775618 g / cm^3
# Si number density = 17.796687 Si / 1000 Ang^3
#
#
#
# Elastic Constant Matrix: (Units=GPa)
#
#
# Indices 1 2 3 4 5 6 
#
# 1 43.6925 12.3918 25.4002 0.0000 0.0000 0.0000
# 2 12.3918 43.6892 25.3986 0.0000 0.0000 0.0000
# 3 25.4002 25.3986 110.4416 0.0000 0.0000 0.0000
# 4 0.0000 0.0000 0.0000 31.8341 0.0000 0.0000
# 5 0.0000 0.0000 0.0000 0.0000 31.8341 0.0000
# 6 0.0000 0.0000 0.0000 0.0000 0.0000 24.3343
#
#
#
# Elastic Compliance Matrix: (Units=1/GPa)
#
#
# Indices 1 2 3 4 5 6 
#
# 1 0.027235 -0.004714 -0.005180 0.000000 0.000000 0.000000
# 2 -0.004714 0.027237 -0.005180 0.000000 0.000000 0.000000
# 3 -0.005180 -0.005180 0.011437 0.000000 0.000000 0.000000
# 4 0.000000 0.000000 0.000000 0.031413 0.000000 0.000000
# 5 0.000000 0.000000 0.000000 0.000000 0.031413 0.000000
# 6 0.000000 0.000000 0.000000 0.000000 0.000000 0.041094
#
#
# Mechanical properties :
#
#
# Convention : Reuss Voigt Hill
#
# Bulk Modulus (GPa) = 27.96173 36.02272 31.99223
# Shear Modulus (GPa) = 23.59640 26.57602 25.08621
#
# Velocity S-wave (km/s) = 3.64522 3.86853 3.75854
# Velocity P-wave (km/s) = 5.78470 6.34344 6.07050
#
# Compressibility (1/GPa) = 0.03576316
#
# Stress axis : x y z
#
# Youngs Moduli (GPa) = 36.71704 36.71462 87.43528
#
# Poissons Ratio (x) = 0.17306 0.45289
# Poissons Ratio (y) = 0.17307 0.45289
# Poissons Ratio (z) = 0.19019 0.19017
#
# Static dielectric constant tensor:
#      x y z
#    x 3.186190 0.000000 0.000000 
#    y 0.000000 3.186200 0.000000 
#    z 0.000000 0.000000 3.195630 
# 
# 
# High freq. dielectric constant tensor:
#      x y z
#    x 1.676270 0.000000 0.000000 
#    y 0.000000 1.676270 0.000000 
#    z 0.000000 0.000000 1.683870 
# 
# From -- ./inp_files/1550.got.cif
#   From: 2010.03.12/outbox.cif.g09.slc.cpg/sg128_1_cif.got.tgz:1550.got - 2010.04.06 17:11:05.
