data_PCOD8314376
_publ_section_title
;
Structure prediction by ZEFSAII (Michael W. Deem and Ramdas Pophale) SiO2 
 PCOD8314376
Probable space group: P 4/M B M
;
_chemical_formula_sum "Si O2"
_cell_formula_units_Z 96
_cell_length_a 14.747004
_cell_length_b 14.747004
_cell_length_c 24.440017
_cell_angle_alpha 90.000000
_cell_angle_beta 90.000000
_cell_angle_gamma 90.000000
_cell_volume 5315.071360
_symmetry_space_group_name_H-M "P 4/M B M"
_symmetry_group_IT_number 127
_symmetry_cell_setting 'tetragonal'
loop_
_space_group_symop_operation_xyz
x,y,z
-y,x,z
-x,-y,z
y,-x,z
1/2+x,1/2-y,-z
1/2-x,1/2+y,-z
1/2+y,1/2+x,-z
1/2-y,1/2-x,-z
-x,-y,-z
y,-x,-z
x,y,-z
-y,x,-z
1/2-x,1/2+y,z
1/2+x,1/2-y,z
1/2-y,1/2-x,z
1/2+y,1/2+x,z
loop_
_atom_site_type_symbol
_atom_site_label
_atom_site_fract_x
_atom_site_fract_y
_atom_site_fract_z
Si Si1 0.356341 0.545671 0.500000
Si Si2 0.644457 0.000055 0.308907
Si Si3 0.242016 0.109917 0.393587
Si Si4 0.754028 0.105736 0.779924
Si Si5 0.894976 0.893178 0.305996
Si Si6 0.038910 0.145776 0.118195
Si Si7 0.144019 0.961679 0.000000
O O1 0.387576 0.441852 0.500000
O O2 0.294655 0.562293 0.552491
O O3 0.583225 0.083225 0.330751
O O4 0.705142 0.031881 0.258213
O O5 0.581834 0.918167 0.287069
O O6 0.705142 0.966433 0.359169
O O7 0.306655 0.193346 0.409562
O O8 0.157458 0.149298 0.358007
O O9 0.691302 0.191302 0.792649
O O10 0.845258 0.141411 0.749220
O O11 0.778406 0.057851 0.836731
O O12 0.001102 0.873587 0.307796
O O13 0.052012 0.195138 0.058306
O O14 0.937131 0.108885 0.125062
O O15 0.062730 0.891772 0.000000
#
# Coordination Sequence:
#
# PCOD8314376 Si02
#       7
#     8  16  16  16  16  16   8
#     4  11  25  44  60  81 113 147 176 209 264 331
#     4   9  20  39  59  78 107 145 182 221 268 318
#     4  11  22  40  62  84 107 138 182 224 265 314
#     4  11  21  33  50  79 110 140 183 225 266 318
#     4  11  21  35  53  77 109 144 173 210 271 326
#     4   9  17  31  50  75 104 138 178 223 272 325
#     4   7  12  26  49  70  96 137 181 217 262 323
#
# _framework density 18.061845000000002
#
# number of rings (size 3 to 8) (size 9 to 14) (size 15 to 20)
#    0.000    2.000    1.667    3.750    0.000    2.667 
#    0.000    1.667    0.000    2.000    0.000    1.750 
#    0.000    2.667    0.000    0.000    0.000    0.000 
#
# Total GULP energy -1189730.896787 kJ/mol
# GULP energy per Si atom -12393.030175 kJ/mol
# Density = 1.802074 g / cm^3
# Si number density = 18.061845 Si / 1000 Ang^3
#
#
#
# Elastic Constant Matrix: (Units=GPa)
#
#
# Indices 1 2 3 4 5 6 
#
# 1 96.0973 43.8098 58.2198 0.0000 0.0000 0.0000
# 2 43.8098 96.0973 58.2198 0.0000 0.0000 0.0000
# 3 58.2198 58.2198 162.4790 0.0000 0.0000 0.0000
# 4 0.0000 0.0000 0.0000 18.7146 0.0000 0.0000
# 5 0.0000 0.0000 0.0000 0.0000 18.7146 0.0000
# 6 0.0000 0.0000 0.0000 0.0000 0.0000 19.1587
#
#
#
# Elastic Compliance Matrix: (Units=1/GPa)
#
#
# Indices 1 2 3 4 5 6 
#
# 1 0.014655 -0.004470 -0.003649 0.000000 0.000000 0.000000
# 2 -0.004470 0.014655 -0.003649 0.000000 0.000000 0.000000
# 3 -0.003649 -0.003649 0.008770 0.000000 0.000000 0.000000
# 4 0.000000 0.000000 0.000000 0.053434 0.000000 0.000000
# 5 0.000000 0.000000 0.000000 0.000000 0.053434 0.000000
# 6 0.000000 0.000000 0.000000 0.000000 0.000000 0.052196
#
#
# Mechanical properties :
#
#
# Convention : Reuss Voigt Hill
#
# Bulk Modulus (GPa) = 68.76656 75.01916 71.89286
# Shear Modulus (GPa) = 22.17006 24.27918 23.22462
#
# Velocity S-wave (km/s) = 3.50730 3.67034 3.58975
# Velocity P-wave (km/s) = 7.38627 7.71924 7.55459
#
# Compressibility (1/GPa) = 0.01454195
#
# Stress axis : x y z
#
# Youngs Moduli (GPa) = 68.23611 68.23611 114.02469
#
# Poissons Ratio (x) = 0.30502 0.41613
# Poissons Ratio (y) = 0.30502 0.41613
# Poissons Ratio (z) = 0.24903 0.24903
#
# Static dielectric constant tensor:
#      x y z
#    x 3.325900 0.000000 0.000000 
#    y 0.000000 3.325900 0.000000 
#    z 0.000000 0.000000 3.546000 
# 
# 
# High freq. dielectric constant tensor:
#      x y z
#    x 1.690740 0.000000 0.000000 
#    y 0.000000 1.690740 0.000000 
#    z 0.000000 0.000000 1.700550 
# 
# From -- ./inp_files/5814.got.cif
#   From: 2010.03.12/outbox.cif.g09.slc.cpg/sg127_3_cif.got.tgz:5814.got - 2010.04.06 17:03:15.
