data_PCOD8314375
_publ_section_title
;
Structure prediction by ZEFSAII (Michael W. Deem and Ramdas Pophale) SiO2 
 PCOD8314375
Probable space group: P 4/M B M
;
_chemical_formula_sum "Si O2"
_cell_formula_units_Z 64
_cell_length_a 13.923358
_cell_length_b 13.923358
_cell_length_c 17.096722
_cell_angle_alpha 90.000000
_cell_angle_beta 90.000000
_cell_angle_gamma 90.000000
_cell_volume 3314.368783
_symmetry_space_group_name_H-M "P 4/M B M"
_symmetry_group_IT_number 127
_symmetry_cell_setting 'tetragonal'
loop_
_space_group_symop_operation_xyz
x,y,z
-y,x,z
-x,-y,z
y,-x,z
1/2+x,1/2-y,-z
1/2-x,1/2+y,-z
1/2+y,1/2+x,-z
1/2-y,1/2-x,-z
-x,-y,-z
y,-x,-z
x,y,-z
-y,x,-z
1/2-x,1/2+y,z
1/2+x,1/2-y,z
1/2-y,1/2-x,z
1/2+y,1/2+x,z
loop_
_atom_site_type_symbol
_atom_site_label
_atom_site_fract_x
_atom_site_fract_y
_atom_site_fract_z
Si Si1 0.702925 0.047498 0.805911
Si Si2 0.080088 0.580088 0.911933
Si Si3 0.636759 0.576190 0.088884
Si Si4 0.657431 0.501276 0.500000
Si Si5 0.001496 0.160402 0.330344
O O1 0.614283 0.114283 0.779566
O O2 0.779872 0.113055 0.853526
O O3 0.669620 0.962290 0.863830
O O4 0.751935 0.001227 0.729991
O O5 0.000000 0.500000 0.921130
O O6 0.112560 0.612560 0.000000
O O7 0.537223 0.627431 0.107154
O O8 0.668272 0.593954 0.000000
O O9 0.593023 0.594555 0.500000
O O10 0.712728 0.501822 0.583442
O O11 0.095309 0.093360 0.318957
#
# Coordination Sequence:
#
# PCOD8314375 Si02
#       5
#    16   8  16   8  16
#     4  11  21  33  50  74 102 135 174 213 253 302
#     4   9  20  38  54  65  91 139 183 217 253 296
#     4   9  18  34  53  71  95 127 163 210 268 314
#     4   7  12  26  53  81 102 133 170 199 242 309
#     4   9  17  33  56  81 108 135 166 208 257 306
#
# _framework density 19.309861000000001
#
# number of rings (size 3 to 8) (size 9 to 14) (size 15 to 20)
#    0.000    2.750    0.000    4.500    0.000    3.500 
#    9.000    0.625    0.000    0.750    0.000    2.625 
#    0.000    0.000    0.000    0.000    0.000    0.000 
#
# Total GULP energy -792905.173123 kJ/mol
# GULP energy per Si atom -12389.143330 kJ/mol
# Density = 1.926591 g / cm^3
# Si number density = 19.309861 Si / 1000 Ang^3
#
#
#
# Elastic Constant Matrix: (Units=GPa)
#
#
# Indices 1 2 3 4 5 6 
#
# 1 60.2713 4.6480 43.5804 0.0000 0.0000 0.0000
# 2 4.6480 60.2713 43.5804 0.0000 0.0000 0.0000
# 3 43.5804 43.5804 166.4903 0.0000 0.0000 0.0000
# 4 0.0000 0.0000 0.0000 27.0850 0.0000 0.0000
# 5 0.0000 0.0000 0.0000 0.0000 27.0850 0.0000
# 6 0.0000 0.0000 0.0000 0.0000 0.0000 15.0160
#
#
#
# Elastic Compliance Matrix: (Units=1/GPa)
#
#
# Indices 1 2 3 4 5 6 
#
# 1 0.020864 0.002886 -0.006217 0.000000 0.000000 0.000000
# 2 0.002886 0.020864 -0.006217 0.000000 0.000000 0.000000
# 3 -0.006217 -0.006217 0.009261 0.000000 0.000000 0.000000
# 4 0.000000 0.000000 0.000000 0.036921 0.000000 0.000000
# 5 0.000000 0.000000 0.000000 0.000000 0.036921 0.000000
# 6 0.000000 0.000000 0.000000 0.000000 0.000000 0.066596
#
#
# Mechanical properties :
#
#
# Convention : Reuss Voigt Hill
#
# Bulk Modulus (GPa) = 31.35333 52.29449 41.82391
# Shear Modulus (GPa) = 22.60870 26.85215 24.73042
#
# Velocity S-wave (km/s) = 3.42546 3.73311 3.58259
# Velocity P-wave (km/s) = 5.64954 6.76181 6.23054
#
# Compressibility (1/GPa) = 0.03189454
#
# Stress axis : x y z
#
# Youngs Moduli (GPa) = 47.92861 47.92861 107.97912
#
# Poissons Ratio (x) = -0.13834 0.67130
# Poissons Ratio (y) = -0.13834 0.67130
# Poissons Ratio (z) = 0.29797 0.29797
#
# Static dielectric constant tensor:
#      x y z
#    x 3.225880 0.000000 0.000000 
#    y 0.000000 3.225880 0.000000 
#    z 0.000000 0.000000 3.998820 
# 
# 
# High freq. dielectric constant tensor:
#      x y z
#    x 1.717520 0.000000 0.000000 
#    y 0.000000 1.717520 0.000000 
#    z 0.000000 0.000000 1.769600 
# 
# From -- ./inp_files/4875.got.cif
#   From: 2010.03.12/outbox.cif.g09.slc.cpg/sg127_3_cif.got.tgz:4875.got - 2010.04.06 17:03:15.
