data_PCOD8314125
_publ_section_title
;
Structure prediction by ZEFSAII (Michael W. Deem and Ramdas Pophale) SiO2 
 PCOD8314125
Probable space group: P 4/M B M
;
_chemical_formula_sum "Si O2"
_cell_formula_units_Z 88
_cell_length_a 15.845260
_cell_length_b 15.845260
_cell_length_c 19.684073
_cell_angle_alpha 90.000000
_cell_angle_beta 90.000000
_cell_angle_gamma 90.000000
_cell_volume 4942.124782
_symmetry_space_group_name_H-M "P 4/M B M"
_symmetry_group_IT_number 127
_symmetry_cell_setting 'tetragonal'
loop_
_space_group_symop_operation_xyz
x,y,z
-y,x,z
-x,-y,z
y,-x,z
1/2+x,1/2-y,-z
1/2-x,1/2+y,-z
1/2+y,1/2+x,-z
1/2-y,1/2-x,-z
-x,-y,-z
y,-x,-z
x,y,-z
-y,x,-z
1/2-x,1/2+y,z
1/2+x,1/2-y,z
1/2-y,1/2-x,z
1/2+y,1/2+x,z
loop_
_atom_site_type_symbol
_atom_site_label
_atom_site_fract_x
_atom_site_fract_y
_atom_site_fract_z
Si Si1 0.963716 0.136643 0.647831
Si Si2 0.595651 0.768000 0.242760
Si Si3 0.866633 0.964503 0.500000
Si Si4 0.687439 0.677376 0.873648
Si Si5 0.496889 0.862967 0.000000
Si Si6 0.591317 0.605195 0.000000
Si Si7 0.177410 0.459733 0.143283
O O1 0.945522 0.214714 0.696913
O O2 0.952127 0.179884 0.572534
O O3 0.058958 0.101592 0.658475
O O4 0.669940 0.830061 0.269600
O O5 0.629831 0.700396 0.189610
O O6 0.526117 0.824651 0.204469
O O7 0.941493 0.899055 0.500000
O O8 0.743953 0.756048 0.898809
O O9 0.628111 0.649615 0.934211
O O10 0.745479 0.602861 0.845620
O O11 0.505149 0.808907 0.069372
O O12 0.403042 0.903042 0.000000
O O13 0.567288 0.932712 0.000000
O O14 0.491805 0.617705 0.000000
O O15 0.087354 0.412647 0.144552
#
# Coordination Sequence:
#
# PCOD8314125 Si02
#       7
#    16  16   8  16   8   8  16
#     4   9  17  32  55  79 103 132 166 202 241 291
#     4  11  22  33  48  74 105 132 163 204 251 300
#     4   7  12  26  51  80 102 125 163 205 238 275
#     4  10  21  36  51  67  92 126 164 208 252 293
#     4   9  17  30  48  66  82 110 161 213 244 275
#     4  11  22  34  50  70  93 122 158 200 250 313
#     4  10  20  35  53  70  94 130 169 209 253 301
#
# _framework density 17.806104999999999
#
# number of rings (size 3 to 8) (size 9 to 14) (size 15 to 20)
#    0.000    2.273    0.000    4.636    0.000    3.273 
#    0.000    3.182    0.000    0.000    0.000    1.909 
#    0.000    1.455    0.000    0.000    0.000    0.000 
#
# Total GULP energy -1090646.291423 kJ/mol
# GULP energy per Si atom -12393.707857 kJ/mol
# Density = 1.776558 g / cm^3
# Si number density = 17.806105 Si / 1000 Ang^3
#
#
#
# Elastic Constant Matrix: (Units=GPa)
#
#
# Indices 1 2 3 4 5 6 
#
# 1 59.9230 24.0479 48.9730 0.0000 0.0000 0.0000
# 2 24.0479 59.9214 48.9732 0.0000 0.0000 0.0000
# 3 48.9730 48.9732 136.4549 0.0000 0.0000 0.0000
# 4 0.0000 0.0000 0.0000 18.1249 0.0000 0.0000
# 5 0.0000 0.0000 0.0000 0.0000 18.1278 0.0000
# 6 0.0000 0.0000 0.0000 0.0000 0.0000 26.4699
#
#
#
# Elastic Compliance Matrix: (Units=1/GPa)
#
#
# Indices 1 2 3 4 5 6 
#
# 1 0.024179 -0.003695 -0.007352 0.000000 0.000000 0.000000
# 2 -0.003695 0.024180 -0.007352 0.000000 0.000000 0.000000
# 3 -0.007352 -0.007352 0.012605 0.000000 0.000000 0.000000
# 4 0.000000 0.000000 0.000000 0.055173 0.000000 0.000000
# 5 0.000000 0.000000 0.000000 0.000000 0.055164 0.000000
# 6 0.000000 0.000000 0.000000 0.000000 0.000000 0.037779
#
#
# Mechanical properties :
#
#
# Convention : Reuss Voigt Hill
#
# Bulk Modulus (GPa) = 41.37835 55.58751 48.48293
# Shear Modulus (GPa) = 19.69015 21.49818 20.59417
#
# Velocity S-wave (km/s) = 3.32898 3.47846 3.40454
# Velocity P-wave (km/s) = 6.16967 6.88614 6.53773
#
# Compressibility (1/GPa) = 0.02416723
#
# Stress axis : x y z
#
# Youngs Moduli (GPa) = 41.35776 41.35601 79.33051
#
# Poissons Ratio (x) = 0.15282 0.58321
# Poissons Ratio (y) = 0.15283 0.58324
# Poissons Ratio (z) = 0.30405 0.30405
#
# Static dielectric constant tensor:
#      x y z
#    x 3.248720 0.000000 0.000000 
#    y 0.000000 3.248720 0.000000 
#    z 0.000000 0.000000 3.465970 
# 
# 
# High freq. dielectric constant tensor:
#      x y z
#    x 1.681050 0.000000 0.000000 
#    y 0.000000 1.681050 0.000000 
#    z 0.000000 0.000000 1.680420 
# 
# From -- ./inp_files/5722.got.cif
#   From: 2010.03.12/outbox.cif.g09.slc.cpg/sg127_3_cif.got.tgz:5722.got - 2010.04.06 17:03:15.
