data_PCOD8314838
_publ_section_title
;
Structure prediction by ZEFSAII (Michael W. Deem and Ramdas Pophale) SiO2 
 PCOD8314838
Probable space group: P 4/M N C
;
_chemical_formula_sum "Si O2"
_cell_formula_units_Z 48
_cell_length_a 7.913186
_cell_length_b 7.913186
_cell_length_c 33.459929
_cell_angle_alpha 90.000000
_cell_angle_beta 90.000000
_cell_angle_gamma 90.000000
_cell_volume 2095.210988
_symmetry_space_group_name_H-M "P 4/M N C"
_symmetry_group_IT_number 128
_symmetry_cell_setting 'tetragonal'
loop_
_space_group_symop_operation_xyz
x,y,z
-y,x,z
-x,-y,z
y,-x,z
1/2+x,1/2-y,1/2-z
1/2-x,1/2+y,1/2-z
1/2+y,1/2+x,1/2-z
1/2-y,1/2-x,1/2-z
-x,-y,-z
y,-x,-z
x,y,-z
-y,x,-z
1/2-x,1/2+y,1/2+z
1/2+x,1/2-y,1/2+z
1/2-y,1/2-x,1/2+z
1/2+y,1/2+x,1/2+z
loop_
_atom_site_type_symbol
_atom_site_label
_atom_site_fract_x
_atom_site_fract_y
_atom_site_fract_z
Si Si1 0.763108 0.594551 0.000000
Si Si2 0.265759 0.088071 0.788956
Si Si3 0.500000 0.000000 0.355600
Si Si4 0.409838 0.764750 0.421455
O O1 0.600236 0.713511 0.000000
O O2 0.877874 0.631576 0.961680
O O3 0.377501 0.122500 0.750000
O O4 0.106916 0.211218 0.789833
O O5 0.382236 0.119266 0.827796
O O6 0.622923 0.113635 0.383554
O O7 0.288129 0.605151 0.419502
#
# Coordination Sequence:
#
# PCOD8314838 Si02
#       4
#     8  16   8  16
#     4  11  24  43  66  95 132 174 222 277 338 405
#     4  11  24  44  70 100 137 182 229 278 338 408
#     4  12  23  39  64  96 134 170 220 279 333 394
#     4  11  24  42  66  95 130 177 228 278 337 405
#
# _framework density 22.909389999999998
#
# number of rings (size 3 to 8) (size 9 to 14) (size 15 to 20)
#    0.000    0.833    0.000    7.500    0.000    6.000 
#    0.000    0.000    0.000    4.000    0.000    0.000 
#    0.000    0.000    0.000    0.000    0.000    0.000 
#
# Total GULP energy -595386.733189 kJ/mol
# GULP energy per Si atom -12403.890275 kJ/mol
# Density = 2.285725 g / cm^3
# Si number density = 22.909390 Si / 1000 Ang^3
#
#
#
# Elastic Constant Matrix: (Units=GPa)
#
#
# Indices 1 2 3 4 5 6 
#
# 1 140.9183 56.5956 83.0702 0.0000 0.0000 0.0000
# 2 56.5956 140.9181 83.0703 0.0000 0.0000 0.0000
# 3 83.0702 83.0703 233.6794 0.0000 0.0000 0.0000
# 4 0.0000 0.0000 0.0000 44.2161 0.0000 0.0000
# 5 0.0000 0.0000 0.0000 0.0000 44.2161 0.0000
# 6 0.0000 0.0000 0.0000 0.0000 0.0000 36.8788
#
#
#
# Elastic Compliance Matrix: (Units=1/GPa)
#
#
# Indices 1 2 3 4 5 6 
#
# 1 0.009541 -0.002318 -0.002568 0.000000 0.000000 0.000000
# 2 -0.002318 0.009541 -0.002568 0.000000 0.000000 0.000000
# 3 -0.002568 -0.002568 0.006105 0.000000 0.000000 0.000000
# 4 0.000000 0.000000 0.000000 0.022616 0.000000 0.000000
# 5 0.000000 0.000000 0.000000 0.000000 0.022616 0.000000
# 6 0.000000 0.000000 0.000000 0.000000 0.000000 0.027116
#
#
# Mechanical properties :
#
#
# Convention : Reuss Voigt Hill
#
# Bulk Modulus (GPa) = 97.27716 106.77643 102.02680
# Shear Modulus (GPa) = 43.15239 44.58086 43.86662
#
# Velocity S-wave (km/s) = 4.34477 4.41609 4.38058
# Velocity P-wave (km/s) = 8.22941 8.52712 8.37959
#
# Compressibility (1/GPa) = 0.01027991
#
# Stress axis : x y z
#
# Youngs Moduli (GPa) = 104.81150 104.81134 163.80417
#
# Poissons Ratio (x) = 0.24298 0.42058
# Poissons Ratio (y) = 0.24298 0.42058
# Poissons Ratio (z) = 0.26911 0.26911
#
# Static dielectric constant tensor:
#      x y z
#    x 4.146070 0.000000 0.000000 
#    y 0.000000 4.146060 0.000000 
#    z 0.000000 0.000000 4.350160 
# 
# 
# High freq. dielectric constant tensor:
#      x y z
#    x 1.907630 0.000000 0.000000 
#    y 0.000000 1.907630 0.000000 
#    z 0.000000 0.000000 1.923290 
# 
# From -- ./inp_files/7034.got.cif
#   From: 2010.03.12/outbox.cif.g09.slc.cpg/sg128_4_cif.got.tgz:7034.got - 2010.04.06 17:11:05.
