data_PCOD8314999
_publ_section_title
;
Structure prediction by ZEFSAII (Michael W. Deem and Ramdas Pophale) SiO2 
 PCOD8314999
Probable space group: P 4/N M M
;
_chemical_formula_sum "Si O2"
_cell_formula_units_Z 80
_cell_length_a 14.176528
_cell_length_b 14.176528
_cell_length_c 25.287508
_cell_angle_alpha 90.000000
_cell_angle_beta 90.000000
_cell_angle_gamma 90.000000
_cell_volume 5082.130271
_symmetry_space_group_name_H-M "P 4/N M M"
_symmetry_group_IT_number 129
_symmetry_cell_setting 'tetragonal'
loop_
_space_group_symop_operation_xyz
x,y,z
1/2-y,x,z
1/2-x,1/2-y,z
y,1/2-x,z
1/2+x,-y,-z
-x,1/2+y,-z
1/2+y,1/2+x,-z
-y,-x,-z
-x,-y,-z
1/2+y,-x,-z
1/2+x,1/2+y,-z
-y,1/2+x,-z
1/2-x,y,z
x,1/2-y,z
1/2-y,1/2-x,z
y,x,z
loop_
_atom_site_type_symbol
_atom_site_label
_atom_site_fract_x
_atom_site_fract_y
_atom_site_fract_z
Si Si1 0.642857 0.008312 0.345210
Si Si2 0.359008 0.857786 0.251380
Si Si3 0.138125 0.854788 0.058523
Si Si4 0.014226 0.861576 0.847002
Si Si5 0.986646 0.359670 0.534214
O O1 0.750000 0.978862 0.335660
O O2 0.611014 0.089860 0.305168
O O3 0.627148 0.044311 0.404911
O O4 0.584715 0.915286 0.332695
O O5 0.250000 0.870787 0.263631
O O6 0.382292 0.750000 0.235383
O O7 0.390961 0.924538 0.203726
O O8 0.250000 0.847319 0.061940
O O9 0.095807 0.750000 0.069480
O O10 0.101462 0.928507 0.101881
O O11 0.108930 0.891070 0.000000
O O12 0.994584 0.750000 0.849124
O O13 0.914049 0.914049 0.844864
O O14 0.900740 0.400740 0.500000
O O15 0.003443 0.250000 0.520012
O O16 0.083627 0.416374 0.522330
#
# Coordination Sequence:
#
# PCOD8314999 Si02
#       5
#    16  16  16  16  16
#     4   9  17  29  45  65  89 114 139 169 207 253
#     4   9  17  29  45  64  84 106 136 175 215 250
#     4   8  14  26  44  64  84 104 129 167 212 250
#     4  10  19  29  42  60  83 112 142 170 202 241
#     4   9  18  31  46  66  91 118 148 181 217 258
#
# _framework density 15.741432
#
# number of rings (size 3 to 8) (size 9 to 14) (size 15 to 20)
#    0.000    3.000    0.000    1.800    0.000    4.400 
#    0.000    4.000    0.000    0.000    0.000    0.000 
#    0.000    8.400    0.000    0.800    0.000    0.200 
#
# Total GULP energy -991760.897317 kJ/mol
# GULP energy per Si atom -12397.011216 kJ/mol
# Density = 1.570560 g / cm^3
# Si number density = 15.741432 Si / 1000 Ang^3
#
#
#
# Elastic Constant Matrix: (Units=GPa)
#
#
# Indices 1 2 3 4 5 6 
#
# 1 76.1040 47.6954 57.6053 0.0000 0.0000 0.0000
# 2 47.6954 76.1040 57.6053 0.0000 0.0000 0.0000
# 3 57.6053 57.6053 110.8584 0.0000 0.0000 0.0000
# 4 0.0000 0.0000 0.0000 20.7957 0.0000 0.0000
# 5 0.0000 0.0000 0.0000 0.0000 20.7957 0.0000
# 6 0.0000 0.0000 0.0000 0.0000 0.0000 23.4197
#
#
#
# Elastic Compliance Matrix: (Units=1/GPa)
#
#
# Indices 1 2 3 4 5 6 
#
# 1 0.025421 -0.009780 -0.008128 0.000000 0.000000 0.000000
# 2 -0.009780 0.025421 -0.008128 0.000000 0.000000 0.000000
# 3 -0.008128 -0.008128 0.017467 0.000000 0.000000 0.000000
# 4 0.000000 0.000000 0.000000 0.048087 0.000000 0.000000
# 5 0.000000 0.000000 0.000000 0.000000 0.048087 0.000000
# 6 0.000000 0.000000 0.000000 0.000000 0.000000 0.042699
#
#
# Mechanical properties :
#
#
# Convention : Reuss Voigt Hill
#
# Bulk Modulus (GPa) = 61.57927 65.43097 63.50512
# Shear Modulus (GPa) = 18.89175 19.67956 19.28565
#
# Velocity S-wave (km/s) = 3.46805 3.53962 3.50401
# Velocity P-wave (km/s) = 7.43240 7.63947 7.53665
#
# Compressibility (1/GPa) = 0.01623923
#
# Stress axis : x y z
#
# Youngs Moduli (GPa) = 39.33748 39.33748 57.24952
#
# Poissons Ratio (x) = 0.38470 0.46531
# Poissons Ratio (y) = 0.38470 0.46531
# Poissons Ratio (z) = 0.31973 0.31973
#
# Static dielectric constant tensor:
#      x y z
#    x 2.876470 0.000000 0.000000 
#    y 0.000000 2.876470 0.000000 
#    z 0.000000 0.000000 3.271990 
# 
# 
# High freq. dielectric constant tensor:
#      x y z
#    x 1.587930 0.000000 0.000000 
#    y 0.000000 1.587930 0.000000 
#    z 0.000000 0.000000 1.616370 
# 
# From -- ./inp_files/6300.got.cif
#   From: 2010.03.12/outbox.cif.g09.slc.cpg/sg129_4_cif.got.tgz:6300.got - 2010.04.06 17:19:44.
