data_PCOD8314062
_publ_section_title
;
Structure prediction by ZEFSAII (Michael W. Deem and Ramdas Pophale) SiO2 
 PCOD8314062
Probable space group: P 4/M B M
;
_chemical_formula_sum "Si O2"
_cell_formula_units_Z 96
_cell_length_a 20.191348
_cell_length_b 20.191348
_cell_length_c 13.504626
_cell_angle_alpha 90.000000
_cell_angle_beta 90.000000
_cell_angle_gamma 90.000000
_cell_volume 5505.708186
_symmetry_space_group_name_H-M "P 4/M B M"
_symmetry_group_IT_number 127
_symmetry_cell_setting 'tetragonal'
loop_
_space_group_symop_operation_xyz
x,y,z
-y,x,z
-x,-y,z
y,-x,z
1/2+x,1/2-y,-z
1/2-x,1/2+y,-z
1/2+y,1/2+x,-z
1/2-y,1/2-x,-z
-x,-y,-z
y,-x,-z
x,y,-z
-y,x,-z
1/2-x,1/2+y,z
1/2+x,1/2-y,z
1/2-y,1/2-x,z
1/2+y,1/2+x,z
loop_
_atom_site_type_symbol
_atom_site_label
_atom_site_fract_x
_atom_site_fract_y
_atom_site_fract_z
Si Si1 0.913118 0.696931 0.888313
Si Si2 0.338014 0.268733 0.385812
Si Si3 0.001239 0.605588 0.231399
Si Si4 0.598291 0.543707 0.391432
Si Si5 0.099027 0.213139 0.707919
Si Si6 0.021884 0.712338 0.384443
O O1 0.848979 0.651022 0.881174
O O2 0.900165 0.760825 0.820005
O O3 0.978342 0.657118 0.853253
O O4 0.925119 0.721627 0.000000
O O5 0.335870 0.289137 0.500000
O O6 0.300566 0.199435 0.366253
O O7 0.296779 0.325904 0.329264
O O8 0.415587 0.259870 0.353388
O O9 0.059580 0.559580 0.187070
O O10 0.029040 0.643336 0.326988
O O11 0.938914 0.561087 0.265084
O O12 0.533034 0.586195 0.383253
O O13 0.631363 0.558014 0.500000
O O14 0.641581 0.565198 0.298195
O O15 0.051188 0.259072 0.640445
O O16 0.026655 0.696752 0.500000
#
# Coordination Sequence:
#
# PCOD8314062 Si02
#       6
#    16  16  16  16  16  16
#     4   9  19  35  52  70  92 119 157 208 260 303
#     4  10  20  32  47  70 102 138 170 200 242 300
#     4   9  18  32  51  75  99 126 163 204 249 305
#     4   9  17  29  47  73 103 131 158 190 231 281
#     4  11  19  30  50  72  93 124 167 212 248 287
#     4  10  20  32  47  71 106 142 170 200 243 296
#
# _framework density 17.436449
#
# number of rings (size 3 to 8) (size 9 to 14) (size 15 to 20)
#    0.000    2.333    0.000    4.000    0.000    5.000 
#    0.000    2.500    0.000    9.000    0.000    1.167 
#    0.000    0.000    0.000    0.000    0.000    0.000 
#
# Total GULP energy -1189496.263231 kJ/mol
# GULP energy per Si atom -12390.586075 kJ/mol
# Density = 1.739676 g / cm^3
# Si number density = 17.436449 Si / 1000 Ang^3
#
#
#
# Elastic Constant Matrix: (Units=GPa)
#
#
# Indices 1 2 3 4 5 6 
#
# 1 52.1158 53.1724 59.0055 0.0000 0.0000 0.0000
# 2 53.1724 52.1158 59.0055 0.0000 0.0000 0.0000
# 3 59.0055 59.0055 112.6887 0.0000 0.0000 0.0000
# 4 0.0000 0.0000 0.0000 22.1173 0.0000 0.0000
# 5 0.0000 0.0000 0.0000 0.0000 22.1173 0.0000
# 6 0.0000 0.0000 0.0000 0.0000 0.0000 13.9766
#
#
#
# Elastic Compliance Matrix: (Units=1/GPa)
#
#
# Indices 1 2 3 4 5 6 
#
# 1 -0.461707 0.484697 -0.012038 0.000000 0.000000 0.000000
# 2 0.484697 -0.461707 -0.012038 0.000000 0.000000 0.000000
# 3 -0.012038 -0.012038 0.021481 0.000000 0.000000 0.000000
# 4 0.000000 0.000000 0.000000 0.045214 0.000000 0.000000
# 5 0.000000 0.000000 0.000000 0.000000 0.045214 0.000000
# 6 0.000000 0.000000 0.000000 0.000000 0.000000 0.071548
#
#
# Mechanical properties :
#
#
# Convention : Reuss Voigt Hill
#
# Bulk Modulus (GPa) = 51.78894 62.14301 56.96597
# Shear Modulus (GPa) = -3.02158 14.69136 5.83489
#
# Velocity S-wave (km/s) = -1.31783 2.90585 1.83129
# Velocity P-wave (km/s) = 5.23932 6.85388 6.10025
#
# Compressibility (1/GPa) = 0.01930914
#
# Stress axis : x y z
#
# Youngs Moduli (GPa) = -2.16588 -2.16588 46.55308
#
# Poissons Ratio (x) = 1.04980 0.56042
# Poissons Ratio (y) = 1.04980 0.56042
# Poissons Ratio (z) = -0.02607 -0.02607
#
# Static dielectric constant tensor:
#      x y z
#    x 3.382880 0.000000 0.000000 
#    y 0.000000 3.382880 0.000000 
#    z 0.000000 0.000000 3.049430 
# 
# 
# High freq. dielectric constant tensor:
#      x y z
#    x 1.682150 0.000000 0.000000 
#    y 0.000000 1.682150 0.000000 
#    z 0.000000 0.000000 1.633480 
# 
# From -- ./inp_files/3512.got.cif
#   From: 2010.03.12/outbox.cif.g09.slc.cpg/sg127_2_cif.got.tgz:3512.got - 2010.04.06 17:03:15.
