data_PCOD8314666
_publ_section_title
;
Structure prediction by ZEFSAII (Michael W. Deem and Ramdas Pophale) SiO2 
 PCOD8314666
Probable space group: P 4/M N C
;
_chemical_formula_sum "Si O2"
_cell_formula_units_Z 96
_cell_length_a 23.706892
_cell_length_b 23.706892
_cell_length_c 8.590237
_cell_angle_alpha 90.000000
_cell_angle_beta 90.000000
_cell_angle_gamma 90.000000
_cell_volume 4827.856894
_symmetry_space_group_name_H-M "P 4/M N C"
_symmetry_group_IT_number 128
_symmetry_cell_setting 'tetragonal'
loop_
_space_group_symop_operation_xyz
x,y,z
-y,x,z
-x,-y,z
y,-x,z
1/2+x,1/2-y,1/2-z
1/2-x,1/2+y,1/2-z
1/2+y,1/2+x,1/2-z
1/2-y,1/2-x,1/2-z
-x,-y,-z
y,-x,-z
x,y,-z
-y,x,-z
1/2-x,1/2+y,1/2+z
1/2+x,1/2-y,1/2+z
1/2-y,1/2-x,1/2+z
1/2+y,1/2+x,1/2+z
loop_
_atom_site_type_symbol
_atom_site_label
_atom_site_fract_x
_atom_site_fract_y
_atom_site_fract_z
Si Si1 0.274432 0.307745 0.817172
Si Si2 0.134318 0.717483 0.684564
Si Si3 0.702785 0.565925 0.817716
Si Si4 0.706206 0.985124 0.181455
Si Si5 0.000364 0.585204 0.683178
Si Si6 0.530242 0.413151 0.680231
O O1 0.215230 0.284771 0.750000
O O2 0.325640 0.268359 0.759936
O O3 0.286972 0.370479 0.758897
O O4 0.269592 0.305624 0.000000
O O5 0.158718 0.658718 0.750000
O O6 0.127618 0.713578 0.500000
O O7 0.074750 0.729320 0.762542
O O8 0.744475 0.528799 0.715734
O O9 0.638395 0.548579 0.788164
O O10 0.716122 0.558772 0.000000
O O11 0.650545 0.002626 0.274582
O O12 0.692099 0.984100 0.000000
O O13 0.057285 0.557285 0.750000
O O14 0.000957 0.577632 0.500000
O O15 0.945091 0.554910 0.750000
O O16 0.570673 0.465814 0.718776
O O17 0.535989 0.396067 0.500000
#
# Coordination Sequence:
#
# PCOD8314666 Si02
#       6
#    16  16  16  16  16  16
#     4   9  21  40  62  86 116 153 195 241 294 352
#     4  10  20  38  62  90 120 154 196 247 299 354
#     4  11  24  40  59  89 123 159 202 252 305 362
#     4  12  25  40  58  87 121 160 202 248 300 356
#     4  11  22  40  64  91 122 160 201 249 300 360
#     4   9  20  40  63  89 121 157 200 249 302 365
#
# _framework density 19.884599999999999
#
# number of rings (size 3 to 8) (size 9 to 14) (size 15 to 20)
#    0.000    1.667    0.000    5.500    2.333    3.333 
#    0.000    2.500    0.000    0.000    0.000    0.000 
#    0.000    0.000    0.000    0.000    0.000    0.000 
#
# Total GULP energy -1190898.869152 kJ/mol
# GULP energy per Si atom -12405.196554 kJ/mol
# Density = 1.983934 g / cm^3
# Si number density = 19.884600 Si / 1000 Ang^3
#
#
#
# Elastic Constant Matrix: (Units=GPa)
#
#
# Indices 1 2 3 4 5 6 
#
# 1 130.8672 55.3720 32.7716 0.0000 0.0000 0.0000
# 2 55.3720 130.8643 32.7760 0.0000 0.0000 0.0000
# 3 32.7716 32.7760 95.0655 0.0000 0.0000 0.0000
# 4 0.0000 0.0000 0.0000 33.0339 0.0000 0.0000
# 5 0.0000 0.0000 0.0000 0.0000 33.0343 0.0000
# 6 0.0000 0.0000 0.0000 0.0000 0.0000 27.6201
#
#
#
# Elastic Compliance Matrix: (Units=1/GPa)
#
#
# Indices 1 2 3 4 5 6 
#
# 1 0.009678 -0.003568 -0.002106 0.000000 0.000000 0.000000
# 2 -0.003568 0.009679 -0.002107 0.000000 0.000000 0.000000
# 3 -0.002106 -0.002107 0.011972 0.000000 0.000000 0.000000
# 4 0.000000 0.000000 0.000000 0.030272 0.000000 0.000000
# 5 0.000000 0.000000 0.000000 0.000000 0.030272 0.000000
# 6 0.000000 0.000000 0.000000 0.000000 0.000000 0.036206
#
#
# Mechanical properties :
#
#
# Convention : Reuss Voigt Hill
#
# Bulk Modulus (GPa) = 63.42526 66.51513 64.97020
# Shear Modulus (GPa) = 33.58057 34.46280 34.02168
#
# Velocity S-wave (km/s) = 4.11393 4.16762 4.14086
# Velocity P-wave (km/s) = 7.38456 7.52874 7.45700
#
# Compressibility (1/GPa) = 0.01576659
#
# Stress axis : x y z
#
# Youngs Moduli (GPa) = 103.32388 103.31876 83.53054
#
# Poissons Ratio (x) = 0.36860 0.17595
# Poissons Ratio (y) = 0.36862 0.17601
# Poissons Ratio (z) = 0.21764 0.21771
#
# Static dielectric constant tensor:
#      x y z
#    x 3.663980 0.000000 0.000000 
#    y 0.000000 3.663990 0.000000 
#    z 0.000000 0.000000 3.575750 
# 
# 
# High freq. dielectric constant tensor:
#      x y z
#    x 1.781230 0.000000 0.000000 
#    y 0.000000 1.781230 0.000000 
#    z 0.000000 0.000000 1.781440 
# 
# From -- ./inp_files/1467.got.cif
#   From: 2010.03.12/outbox.cif.g09.slc.cpg/sg128_1_cif.got.tgz:1467.got - 2010.04.06 17:11:05.
