data_PCOD8314103
_publ_section_title
;
Structure prediction by ZEFSAII (Michael W. Deem and Ramdas Pophale) SiO2 
 PCOD8314103
Probable space group: P 4/M B M
;
_chemical_formula_sum "Si O2"
_cell_formula_units_Z 96
_cell_length_a 23.755006
_cell_length_b 23.755006
_cell_length_c 9.157584
_cell_angle_alpha 90.000000
_cell_angle_beta 90.000000
_cell_angle_gamma 90.000000
_cell_volume 5167.627491
_symmetry_space_group_name_H-M "P 4/M B M"
_symmetry_group_IT_number 127
_symmetry_cell_setting 'tetragonal'
loop_
_space_group_symop_operation_xyz
x,y,z
-y,x,z
-x,-y,z
y,-x,z
1/2+x,1/2-y,-z
1/2-x,1/2+y,-z
1/2+y,1/2+x,-z
1/2-y,1/2-x,-z
-x,-y,-z
y,-x,-z
x,y,-z
-y,x,-z
1/2-x,1/2+y,z
1/2+x,1/2-y,z
1/2-y,1/2-x,z
1/2+y,1/2+x,z
loop_
_atom_site_type_symbol
_atom_site_label
_atom_site_fract_x
_atom_site_fract_y
_atom_site_fract_z
Si Si1 0.559834 0.849954 0.669602
Si Si2 0.551437 0.141371 0.828201
Si Si3 0.778976 0.945059 0.328108
Si Si4 0.558935 0.269149 0.829951
Si Si5 0.637408 0.364435 0.167054
Si Si6 0.924075 0.051890 0.659413
O O1 0.545701 0.855511 0.500000
O O2 0.615910 0.884091 0.712423
O O3 0.507390 0.876297 0.755803
O O4 0.569779 0.785154 0.713321
O O5 0.600153 0.100153 0.769920
O O6 0.567890 0.204699 0.781770
O O7 0.544052 0.135842 0.000000
O O8 0.789209 0.949124 0.500000
O O9 0.815015 0.892106 0.268192
O O10 0.795673 0.005785 0.259338
O O11 0.619937 0.299209 0.800199
O O12 0.542912 0.274436 0.000000
O O13 0.577178 0.392130 0.202543
O O14 0.655233 0.373671 0.000000
O O15 0.899296 0.070068 0.500000
O O16 0.985819 0.077372 0.671548
#
# Coordination Sequence:
#
# PCOD8314103 Si02
#       6
#    16  16  16  16  16  16
#     4   9  19  36  56  78 105 135 165 200 246 299
#     4   9  18  34  56  80 106 135 166 202 245 295
#     4  10  20  34  53  74  98 132 171 210 252 297
#     4   9  19  35  52  72 101 135 170 209 252 298
#     4  11  21  31  46  69  96 129 169 209 250 295
#     4   9  18  31  45  63  89 121 159 206 257 303
#
# _framework density 18.577190999999999
#
# number of rings (size 3 to 8) (size 9 to 14) (size 15 to 20)
#    0.000    2.500    0.000    2.500    0.000    6.333 
#    0.000    3.333    0.000    1.000    0.000    0.000 
#    0.000    0.000    0.000    0.000    0.000    0.000 
#
# Total GULP energy -1189752.266472 kJ/mol
# GULP energy per Si atom -12393.252776 kJ/mol
# Density = 1.853491 g / cm^3
# Si number density = 18.577191 Si / 1000 Ang^3
#
#
#
# Elastic Constant Matrix: (Units=GPa)
#
#
# Indices 1 2 3 4 5 6 
#
# 1 74.2382 43.6710 35.3383 0.0000 0.0000 0.0000
# 2 43.6710 74.2382 35.3383 0.0000 0.0000 0.0000
# 3 35.3383 35.3383 58.0333 0.0000 0.0000 0.0000
# 4 0.0000 0.0000 0.0000 27.0874 0.0000 0.0000
# 5 0.0000 0.0000 0.0000 0.0000 27.0874 0.0000
# 6 0.0000 0.0000 0.0000 0.0000 0.0000 36.5186
#
#
#
# Elastic Compliance Matrix: (Units=1/GPa)
#
#
# Indices 1 2 3 4 5 6 
#
# 1 0.023035 -0.009679 -0.008133 0.000000 0.000000 0.000000
# 2 -0.009679 0.023035 -0.008133 0.000000 0.000000 0.000000
# 3 -0.008133 -0.008133 0.027136 0.000000 0.000000 0.000000
# 4 0.000000 0.000000 0.000000 0.036918 0.000000 0.000000
# 5 0.000000 0.000000 0.000000 0.000000 0.036918 0.000000
# 6 0.000000 0.000000 0.000000 0.000000 0.000000 0.027383
#
#
# Mechanical properties :
#
#
# Convention : Reuss Voigt Hill
#
# Bulk Modulus (GPa) = 46.91155 48.35610 47.63383
# Shear Modulus (GPa) = 21.42045 24.28281 22.85163
#
# Velocity S-wave (km/s) = 3.39934 3.61935 3.51107
# Velocity P-wave (km/s) = 6.38079 6.59944 6.49103
#
# Compressibility (1/GPa) = 0.02131671
#
# Stress axis : x y z
#
# Youngs Moduli (GPa) = 43.41136 43.41136 36.85098
#
# Poissons Ratio (x) = 0.42019 0.29971
# Poissons Ratio (y) = 0.42019 0.29971
# Poissons Ratio (z) = 0.35306 0.35306
#
# Static dielectric constant tensor:
#      x y z
#    x 3.490960 0.000000 0.000000 
#    y 0.000000 3.490960 0.000000 
#    z 0.000000 0.000000 3.423090 
# 
# 
# High freq. dielectric constant tensor:
#      x y z
#    x 1.713420 0.000000 0.000000 
#    y 0.000000 1.713420 0.000000 
#    z 0.000000 0.000000 1.720600 
# 
# From -- ./inp_files/2013.got.cif
#   From: 2010.03.12/outbox.cif.g09.slc.cpg/sg127_2_cif.got.tgz:2013.got - 2010.04.06 17:03:15.
