data_PCOD8314347
_publ_section_title
;
Structure prediction by ZEFSAII (Michael W. Deem and Ramdas Pophale) SiO2 
 PCOD8314347
Probable space group: P 4/M B M
;
_chemical_formula_sum "Si O2"
_cell_formula_units_Z 72
_cell_length_a 20.525589
_cell_length_b 20.525589
_cell_length_c 8.114585
_cell_angle_alpha 90.000000
_cell_angle_beta 90.000000
_cell_angle_gamma 90.000000
_cell_volume 3418.673068
_symmetry_space_group_name_H-M "P 4/M B M"
_symmetry_group_IT_number 127
_symmetry_cell_setting 'tetragonal'
loop_
_space_group_symop_operation_xyz
x,y,z
-y,x,z
-x,-y,z
y,-x,z
1/2+x,1/2-y,-z
1/2-x,1/2+y,-z
1/2+y,1/2+x,-z
1/2-y,1/2-x,-z
-x,-y,-z
y,-x,-z
x,y,-z
-y,x,-z
1/2-x,1/2+y,z
1/2+x,1/2-y,z
1/2-y,1/2-x,z
1/2+y,1/2+x,z
loop_
_atom_site_type_symbol
_atom_site_label
_atom_site_fract_x
_atom_site_fract_y
_atom_site_fract_z
Si Si1 0.593212 0.333723 0.184303
Si Si2 0.562765 0.414685 0.500000
Si Si3 0.341143 0.261907 0.188137
Si Si4 0.755670 0.485040 0.315122
Si Si5 0.394835 0.998892 0.810366
O O1 0.587580 0.385759 0.328812
O O2 0.667177 0.306440 0.201424
O O3 0.538444 0.278058 0.198139
O O4 0.585546 0.365033 0.000000
O O5 0.590897 0.486130 0.500000
O O6 0.291985 0.208016 0.266269
O O7 0.410799 0.263188 0.276997
O O8 0.354793 0.243033 0.000000
O O9 0.732322 0.500573 0.500000
O O10 0.832709 0.494951 0.304915
O O11 0.429720 0.929720 0.779391
O O12 0.443445 0.056556 0.761852
O O13 0.373396 0.005503 0.000000
#
# Coordination Sequence:
#
# PCOD8314347 Si02
#       5
#    16   8  16  16  16
#     4  11  24  43  66  93 129 171 215 268 328 388
#     4  11  24  42  65  94 126 159 205 262 320 388
#     4  10  23  43  67  95 128 172 225 275 328 394
#     4  12  24  38  61  94 130 170 217 270 330 399
#     4   9  19  37  60  86 120 165 216 268 323 389
#
# _framework density 21.060803
#
# number of rings (size 3 to 8) (size 9 to 14) (size 15 to 20)
#    0.000    1.444    1.111    4.667    1.556    7.556 
#    0.000    4.444    0.000    0.000    0.000    0.000 
#    0.000    0.000    0.000    0.000    0.000    0.000 
#
# Total GULP energy -892609.419432 kJ/mol
# GULP energy per Si atom -12397.353048 kJ/mol
# Density = 2.101287 g / cm^3
# Si number density = 21.060803 Si / 1000 Ang^3
#
#
#
# Elastic Constant Matrix: (Units=GPa)
#
#
# Indices 1 2 3 4 5 6 
#
# 1 126.3344 37.9144 35.4442 0.0000 0.0000 0.0000
# 2 37.9144 126.3344 35.4442 0.0000 0.0000 0.0000
# 3 35.4442 35.4442 123.7613 0.0000 0.0000 0.0000
# 4 0.0000 0.0000 0.0000 17.2643 0.0000 0.0000
# 5 0.0000 0.0000 0.0000 0.0000 17.2643 0.0000
# 6 0.0000 0.0000 0.0000 0.0000 0.0000 33.5858
#
#
#
# Elastic Compliance Matrix: (Units=1/GPa)
#
#
# Indices 1 2 3 4 5 6 
#
# 1 0.009128 -0.002181 -0.001990 0.000000 0.000000 0.000000
# 2 -0.002181 0.009128 -0.001990 0.000000 0.000000 0.000000
# 3 -0.001990 -0.001990 0.009220 0.000000 0.000000 0.000000
# 4 0.000000 0.000000 0.000000 0.057923 0.000000 0.000000
# 5 0.000000 0.000000 0.000000 0.000000 0.057923 0.000000
# 6 0.000000 0.000000 0.000000 0.000000 0.000000 0.029775
#
#
# Mechanical properties :
#
#
# Convention : Reuss Voigt Hill
#
# Bulk Modulus (GPa) = 65.98304 66.00397 65.99350
# Shear Modulus (GPa) = 26.25089 31.46469 28.85779
#
# Velocity S-wave (km/s) = 3.53432 3.86941 3.70565
# Velocity P-wave (km/s) = 6.93203 7.16735 7.05067
#
# Compressibility (1/GPa) = 0.01515541
#
# Stress axis : x y z
#
# Youngs Moduli (GPa) = 109.54910 109.54910 108.46390
#
# Poissons Ratio (x) = 0.23896 0.21580
# Poissons Ratio (y) = 0.23896 0.21580
# Poissons Ratio (z) = 0.21795 0.21795
#
# Static dielectric constant tensor:
#      x y z
#    x 3.854200 0.000000 0.000000 
#    y 0.000000 3.854200 0.000000 
#    z 0.000000 0.000000 4.042150 
# 
# 
# High freq. dielectric constant tensor:
#      x y z
#    x 1.827910 0.000000 0.000000 
#    y 0.000000 1.827910 0.000000 
#    z 0.000000 0.000000 1.827140 
# 
# From -- ./inp_files/1581.got.cif
#   From: 2010.03.12/outbox.cif.g09.slc.cpg/sg127_1_cif.got.tgz:1581.got - 2010.04.06 17:03:15.
