data_PCOD8314646
_publ_section_title
;
Structure prediction by ZEFSAII (Michael W. Deem and Ramdas Pophale) SiO2 
 PCOD8314646
Probable space group: P 4/M N C
;
_chemical_formula_sum "Si O2"
_cell_formula_units_Z 112
_cell_length_a 14.559921
_cell_length_b 14.559921
_cell_length_c 26.547989
_cell_angle_alpha 90.000000
_cell_angle_beta 90.000000
_cell_angle_gamma 90.000000
_cell_volume 5627.942688
_symmetry_space_group_name_H-M "P 4/M N C"
_symmetry_group_IT_number 128
_symmetry_cell_setting 'tetragonal'
loop_
_space_group_symop_operation_xyz
x,y,z
-y,x,z
-x,-y,z
y,-x,z
1/2+x,1/2-y,1/2-z
1/2-x,1/2+y,1/2-z
1/2+y,1/2+x,1/2-z
1/2-y,1/2-x,1/2-z
-x,-y,-z
y,-x,-z
x,y,-z
-y,x,-z
1/2-x,1/2+y,1/2+z
1/2+x,1/2-y,1/2+z
1/2-y,1/2-x,1/2+z
1/2+y,1/2+x,1/2+z
loop_
_atom_site_type_symbol
_atom_site_label
_atom_site_fract_x
_atom_site_fract_y
_atom_site_fract_z
Si Si1 0.978183 0.729077 0.442907
Si Si2 0.529266 0.352376 0.148102
Si Si3 0.590443 0.186749 0.443451
Si Si4 0.336830 0.743011 0.208997
Si Si5 0.345731 0.115508 0.941891
Si Si6 0.380383 0.591467 0.278864
Si Si7 0.191628 0.191601 0.870193
O O1 0.992863 0.762265 0.500000
O O2 0.968810 0.820725 0.409756
O O3 0.887358 0.669836 0.437470
O O4 0.063275 0.667964 0.423875
O O5 0.606952 0.429516 0.159782
O O6 0.560838 0.266823 0.184037
O O7 0.592071 0.228821 0.500000
O O8 0.492762 0.138593 0.433406
O O9 0.608019 0.264483 0.401854
O O10 0.327185 0.827185 0.250000
O O11 0.315373 0.649965 0.241227
O O12 0.265708 0.754720 0.163611
O O13 0.260909 0.148521 0.909513
O O14 0.324392 0.138002 0.000000
O O15 0.372531 0.483926 0.268332
O O16 0.351953 0.611370 0.336324
#
# Coordination Sequence:
#
# PCOD8314646 Si02
#       7
#    16  16  16  16  16  16  16
#     4  10  21  36  57  83 117 158 202 240 283 349
#     4  11  22  37  58  88 123 158 194 240 301 360
#     4  10  20  36  57  82 115 154 193 237 288 345
#     4  10  21  36  56  80 111 147 192 237 292 348
#     4  10  21  36  57  85 118 156 195 237 289 351
#     4  10  21  37  58  82 110 144 183 234 293 353
#     4  11  20  36  57  86 113 144 192 240 291 342
#
# _framework density 19.900701000000002
#
# number of rings (size 3 to 8) (size 9 to 14) (size 15 to 20)
#    0.000    1.714    1.429    3.429    0.000    3.429 
#    0.000    0.714    0.000    0.000    0.000    9.000 
#    0.000    0.000    0.000    0.000    0.000    0.000 
#
# Total GULP energy -1388271.518812 kJ/mol
# GULP energy per Si atom -12395.281418 kJ/mol
# Density = 1.985541 g / cm^3
# Si number density = 19.900701 Si / 1000 Ang^3
#
#
#
# Elastic Constant Matrix: (Units=GPa)
#
#
# Indices 1 2 3 4 5 6 
#
# 1 65.1569 19.0286 33.1748 0.0000 0.0000 0.0000
# 2 19.0286 65.1569 33.1748 0.0000 0.0000 0.0000
# 3 33.1748 33.1748 93.3683 0.0000 0.0000 0.0000
# 4 0.0000 0.0000 0.0000 37.3196 0.0000 0.0000
# 5 0.0000 0.0000 0.0000 0.0000 37.3196 0.0000
# 6 0.0000 0.0000 0.0000 0.0000 0.0000 27.1520
#
#
#
# Elastic Compliance Matrix: (Units=1/GPa)
#
#
# Indices 1 2 3 4 5 6 
#
# 1 0.019089 -0.002590 -0.005862 0.000000 0.000000 0.000000
# 2 -0.002590 0.019089 -0.005862 0.000000 0.000000 0.000000
# 3 -0.005862 -0.005862 0.014876 0.000000 0.000000 0.000000
# 4 0.000000 0.000000 0.000000 0.026796 0.000000 0.000000
# 5 0.000000 0.000000 0.000000 0.000000 0.026796 0.000000
# 6 0.000000 0.000000 0.000000 0.000000 0.000000 0.036830
#
#
# Mechanical properties :
#
#
# Convention : Reuss Voigt Hill
#
# Bulk Modulus (GPa) = 40.94197 43.82647 42.38422
# Shear Modulus (GPa) = 27.74011 29.57852 28.65931
#
# Velocity S-wave (km/s) = 3.73758 3.85945 3.79900
# Velocity P-wave (km/s) = 6.26449 6.47540 6.37082
#
# Compressibility (1/GPa) = 0.02442481
#
# Stress axis : x y z
#
# Youngs Moduli (GPa) = 52.38703 52.38703 67.22213
#
# Poissons Ratio (x) = 0.13568 0.39407
# Poissons Ratio (y) = 0.13568 0.39407
# Poissons Ratio (z) = 0.30710 0.30710
#
# Static dielectric constant tensor:
#      x y z
#    x 3.578150 0.000000 0.000000 
#    y 0.000000 3.578150 0.000000 
#    z 0.000000 0.000000 3.974240 
# 
# 
# High freq. dielectric constant tensor:
#      x y z
#    x 1.762300 0.000000 0.000000 
#    y 0.000000 1.762300 0.000000 
#    z 0.000000 0.000000 1.799990 
# 
# From -- ./inp_files/6914.got.cif
#   From: 2010.03.12/outbox.cif.g09.slc.cpg/sg128_4_cif.got.tgz:6914.got - 2010.04.06 17:11:05.
