data_PCOD8314332
_publ_section_title
;
Structure prediction by ZEFSAII (Michael W. Deem and Ramdas Pophale) SiO2 
 PCOD8314332
Probable space group: P 4/M B M
;
_chemical_formula_sum "Si O2"
_cell_formula_units_Z 96
_cell_length_a 23.817896
_cell_length_b 23.817896
_cell_length_c 8.936405
_cell_angle_alpha 90.000000
_cell_angle_beta 90.000000
_cell_angle_gamma 90.000000
_cell_volume 5069.552583
_symmetry_space_group_name_H-M "P 4/M B M"
_symmetry_group_IT_number 127
_symmetry_cell_setting 'tetragonal'
loop_
_space_group_symop_operation_xyz
x,y,z
-y,x,z
-x,-y,z
y,-x,z
1/2+x,1/2-y,-z
1/2-x,1/2+y,-z
1/2+y,1/2+x,-z
1/2-y,1/2-x,-z
-x,-y,-z
y,-x,-z
x,y,-z
-y,x,-z
1/2-x,1/2+y,z
1/2+x,1/2-y,z
1/2-y,1/2-x,z
1/2+y,1/2+x,z
loop_
_atom_site_type_symbol
_atom_site_label
_atom_site_fract_x
_atom_site_fract_y
_atom_site_fract_z
Si Si1 0.480137 0.788067 0.822163
Si Si2 0.416753 0.536384 0.324751
Si Si3 0.430444 0.301578 0.822823
Si Si4 0.411344 0.000501 0.178096
Si Si5 0.144202 0.264671 0.828961
Si Si6 0.225683 0.183194 0.674231
O O1 0.519992 0.738519 0.763165
O O2 0.499422 0.848320 0.755341
O O3 0.417834 0.774477 0.765837
O O4 0.481313 0.791308 0.000000
O O5 0.427158 0.471486 0.280515
O O6 0.404975 0.541520 0.500000
O O7 0.364228 0.561468 0.237317
O O8 0.373847 0.272665 0.766269
O O9 0.429041 0.304562 0.000000
O O10 0.442791 0.057210 0.232977
O O11 0.446059 0.946059 0.234652
O O12 0.409388 0.999397 0.000000
O O13 0.176478 0.323523 0.818335
O O14 0.171558 0.218295 0.723519
O O15 0.144107 0.242477 0.000000
O O16 0.220342 0.169716 0.500000
O O17 0.282196 0.217805 0.711374
#
# Coordination Sequence:
#
# PCOD8314332 Si02
#       6
#    16  16  16  16  16  16
#     4   9  18  30  45  74 111 141 171 213 264 318
#     4   9  20  40  62  82 107 143 186 229 277 333
#     4  11  23  35  53  83 116 147 181 224 276 334
#     4   8  13  23  42  68 100 140 179 211 250 305
#     4   9  17  32  56  82 108 139 176 222 274 322
#     4  10  22  40  58  76 103 142 188 231 273 327
#
# _framework density 18.936582000000001
#
# number of rings (size 3 to 8) (size 9 to 14) (size 15 to 20)
#    0.000    2.667    0.000    2.500    2.333    4.333 
#    0.000    3.333    0.000    0.000    0.000    0.000 
#    0.000    0.000    0.000   17.000    0.000   15.333 
#
# Total GULP energy -1190332.531156 kJ/mol
# GULP energy per Si atom -12399.297200 kJ/mol
# Density = 1.889348 g / cm^3
# Si number density = 18.936582 Si / 1000 Ang^3
#
#
#
# Elastic Constant Matrix: (Units=GPa)
#
#
# Indices 1 2 3 4 5 6 
#
# 1 117.1572 53.3602 31.8751 0.0000 0.0000 0.0000
# 2 53.3602 117.1572 31.8751 0.0000 0.0000 0.0000
# 3 31.8751 31.8751 41.6671 0.0000 0.0000 0.0000
# 4 0.0000 0.0000 0.0000 19.4675 0.0000 0.0000
# 5 0.0000 0.0000 0.0000 0.0000 19.4675 0.0000
# 6 0.0000 0.0000 0.0000 0.0000 0.0000 21.4974
#
#
#
# Elastic Compliance Matrix: (Units=1/GPa)
#
#
# Indices 1 2 3 4 5 6 
#
# 1 0.011944 -0.003731 -0.006283 0.000000 0.000000 0.000000
# 2 -0.003731 0.011944 -0.006283 0.000000 0.000000 0.000000
# 3 -0.006283 -0.006283 0.033613 0.000000 0.000000 0.000000
# 4 0.000000 0.000000 0.000000 0.051368 0.000000 0.000000
# 5 0.000000 0.000000 0.000000 0.000000 0.051368 0.000000
# 6 0.000000 0.000000 0.000000 0.000000 0.000000 0.046517
#
#
# Mechanical properties :
#
#
# Convention : Reuss Voigt Hill
#
# Bulk Modulus (GPa) = 40.14936 56.68914 48.41925
# Shear Modulus (GPa) = 20.18969 22.67789 21.43379
#
# Velocity S-wave (km/s) = 3.26877 3.46435 3.36798
# Velocity P-wave (km/s) = 5.95773 6.78259 6.38350
#
# Compressibility (1/GPa) = 0.02490700
#
# Stress axis : x y z
#
# Youngs Moduli (GPa) = 83.72283 83.72283 29.75015
#
# Poissons Ratio (x) = 0.31233 0.18693
# Poissons Ratio (y) = 0.31233 0.18693
# Poissons Ratio (z) = 0.52606 0.52606
#
# Static dielectric constant tensor:
#      x y z
#    x 3.629700 0.000000 0.000000 
#    y 0.000000 3.629700 0.000000 
#    z 0.000000 0.000000 3.073110 
# 
# 
# High freq. dielectric constant tensor:
#      x y z
#    x 1.743570 0.000000 0.000000 
#    y 0.000000 1.743570 0.000000 
#    z 0.000000 0.000000 1.697730 
# 
# From -- ./inp_files/1955.got.cif
#   From: 2010.03.12/outbox.cif.g09.slc.cpg/sg127_1_cif.got.tgz:1955.got - 2010.04.06 17:03:15.
