data_PCOD8314721
_publ_section_title
;
Structure prediction by ZEFSAII (Michael W. Deem and Ramdas Pophale) SiO2 
 PCOD8314721
Probable space group: P 4/M N C
;
_chemical_formula_sum "Si O2"
_cell_formula_units_Z 72
_cell_length_a 20.753179
_cell_length_b 20.753179
_cell_length_c 7.968553
_cell_angle_alpha 90.000000
_cell_angle_beta 90.000000
_cell_angle_gamma 90.000000
_cell_volume 3432.011461
_symmetry_space_group_name_H-M "P 4/M N C"
_symmetry_group_IT_number 128
_symmetry_cell_setting 'tetragonal'
loop_
_space_group_symop_operation_xyz
x,y,z
-y,x,z
-x,-y,z
y,-x,z
1/2+x,1/2-y,1/2-z
1/2-x,1/2+y,1/2-z
1/2+y,1/2+x,1/2-z
1/2-y,1/2-x,1/2-z
-x,-y,-z
y,-x,-z
x,y,-z
-y,x,-z
1/2-x,1/2+y,1/2+z
1/2+x,1/2-y,1/2+z
1/2-y,1/2-x,1/2+z
1/2+y,1/2+x,1/2+z
loop_
_atom_site_type_symbol
_atom_site_label
_atom_site_fract_x
_atom_site_fract_y
_atom_site_fract_z
Si Si1 0.404533 0.335403 0.695603
Si Si2 0.158530 0.238722 0.809279
Si Si3 0.431061 0.421220 0.000000
Si Si4 0.242933 0.482829 0.307825
Si Si5 0.500379 0.101666 0.196531
O O1 0.416142 0.356679 0.500000
O O2 0.331358 0.308100 0.712982
O O3 0.404105 0.394692 0.823906
O O4 0.457499 0.284823 0.765242
O O5 0.206778 0.293223 0.750000
O O6 0.087095 0.242767 0.720765
O O7 0.144282 0.255029 0.000000
O O8 0.506193 0.409466 0.000000
O O9 0.263052 0.479112 0.500000
O O10 0.168932 0.501947 0.290633
O O11 0.564790 0.064790 0.250000
O O12 0.437672 0.062329 0.250000
O O13 0.500611 0.113599 0.000000
#
# Coordination Sequence:
#
# PCOD8314721 Si02
#       5
#    16  16   8  16  16
#     4  10  23  43  64  91 130 169 210 267 325 384
#     4  10  22  39  62  92 125 167 211 265 323 382
#     4  11  24  40  64  96 124 161 214 262 318 386
#     4  10  21  39  62  89 123 164 213 260 321 388
#     4  11  22  37  58  85 120 159 206 261 319 382
#
# _framework density 20.978952
#
# number of rings (size 3 to 8) (size 9 to 14) (size 15 to 20)
#    0.000    1.667    0.000    4.667    3.111    6.222 
#    0.000    3.333    0.000    0.000    0.000    0.000 
#    0.000    0.000    0.000    0.000    0.000    0.000 
#
# Total GULP energy -892273.083606 kJ/mol
# GULP energy per Si atom -12392.681717 kJ/mol
# Density = 2.093120 g / cm^3
# Si number density = 20.978952 Si / 1000 Ang^3
#
#
#
# Elastic Constant Matrix: (Units=GPa)
#
#
# Indices 1 2 3 4 5 6 
#
# 1 1073.9331 -917.8565 21.2361 0.0000 0.0000 0.0000
# 2 -917.8565 1073.9729 21.6362 0.0000 0.0000 0.0000
# 3 21.2361 21.6362 60.6351 0.0000 0.0000 0.0000
# 4 0.0000 0.0000 0.0000 25.0741 0.0000 0.0000
# 5 0.0000 0.0000 0.0000 0.0000 25.0739 0.0000
# 6 0.0000 0.0000 0.0000 0.0000 0.0000 30.8281
#
#
#
# Elastic Compliance Matrix: (Units=1/GPa)
#
#
# Indices 1 2 3 4 5 6 
#
# 1 0.003798 0.003297 -0.002507 0.000000 0.000000 0.000000
# 2 0.003297 0.003799 -0.002510 0.000000 0.000000 0.000000
# 3 -0.002507 -0.002510 0.018266 0.000000 0.000000 0.000000
# 4 0.000000 0.000000 0.000000 0.039882 0.000000 0.000000
# 5 0.000000 0.000000 0.000000 0.000000 0.039882 0.000000
# 6 0.000000 0.000000 0.000000 0.000000 0.000000 0.032438
#
#
# Mechanical properties :
#
#
# Convention : Reuss Voigt Hill
#
# Bulk Modulus (GPa) = 44.59770 50.95251 47.77511
# Shear Modulus (GPa) = 33.56173 221.76358 127.66265
#
# Velocity S-wave (km/s) = 4.00407 10.29258 7.80928
# Velocity P-wave (km/s) = 6.53308 12.86817 10.20468
#
# Compressibility (1/GPa) = 0.02242268
#
# Stress axis : x y z
#
# Youngs Moduli (GPa) = 263.28214 263.22214 54.74753
#
# Poissons Ratio (x) = -0.86773 0.13723
# Poissons Ratio (y) = -0.86793 0.13743
# Poissons Ratio (z) = 0.65993 0.66073
#
# Static dielectric constant tensor:
#      x y z
#    x 3.945610 0.000000 0.000000 
#    y 0.000000 3.945630 0.000000 
#    z 0.000000 0.000000 3.978960 
# 
# 
# High freq. dielectric constant tensor:
#      x y z
#    x 1.826470 0.000000 0.000000 
#    y 0.000000 1.826470 0.000000 
#    z 0.000000 0.000000 1.818480 
# 
# From -- ./inp_files/1170.got.cif
#   From: 2010.03.12/outbox.cif.g09.slc.cpg/sg128_1_cif.got.tgz:1170.got - 2010.04.06 17:11:05.
