data_PCOD8314491
_publ_section_title
;
Structure prediction by ZEFSAII (Michael W. Deem and Ramdas Pophale) SiO2 
 PCOD8314491
Probable space group: P 4/M N C
;
_chemical_formula_sum "Si O2"
_cell_formula_units_Z 64
_cell_length_a 12.865304
_cell_length_b 12.865304
_cell_length_c 18.541544
_cell_angle_alpha 90.000000
_cell_angle_beta 90.000000
_cell_angle_gamma 90.000000
_cell_volume 3068.923068
_symmetry_space_group_name_H-M "P 4/M N C"
_symmetry_group_IT_number 128
_symmetry_cell_setting 'tetragonal'
loop_
_space_group_symop_operation_xyz
x,y,z
-y,x,z
-x,-y,z
y,-x,z
1/2+x,1/2-y,1/2-z
1/2-x,1/2+y,1/2-z
1/2+y,1/2+x,1/2-z
1/2-y,1/2-x,1/2-z
-x,-y,-z
y,-x,-z
x,y,-z
-y,x,-z
1/2-x,1/2+y,1/2+z
1/2+x,1/2-y,1/2+z
1/2-y,1/2-x,1/2+z
1/2+y,1/2+x,1/2+z
loop_
_atom_site_type_symbol
_atom_site_label
_atom_site_fract_x
_atom_site_fract_y
_atom_site_fract_z
Si Si1 0.606102 0.196267 0.581764
Si Si2 0.701676 0.335761 0.080594
Si Si3 0.470490 0.773427 0.846858
Si Si4 0.170793 0.980354 0.800261
O O1 0.566162 0.175505 0.500000
O O2 0.719904 0.251795 0.580075
O O3 0.620933 0.087160 0.626065
O O4 0.525739 0.271142 0.622681
O O5 0.587013 0.327026 0.117048
O O6 0.776414 0.410732 0.126326
O O7 0.690433 0.380197 0.000000
O O8 0.467333 0.759212 0.760767
O O9 0.089962 0.885823 0.793308
#
# Coordination Sequence:
#
# PCOD8314491 Si02
#       4
#    16  16  16  16
#     4   9  20  34  49  72 103 139 174 211 251 296
#     4   9  17  29  50  78 106 132 158 198 258 315
#     4  10  17  31  51  78 107 130 160 204 259 312
#     4  11  21  34  52  76 103 137 175 213 253 297
#
# _framework density 20.854220999999999
#
# number of rings (size 3 to 8) (size 9 to 14) (size 15 to 20)
#    1.500    0.750    2.500    2.250    0.000    1.500 
#    0.000    2.500    0.000    1.500    0.000    8.750 
#    0.000    0.000    0.000    0.000    0.000    0.000 
#
# Total GULP energy -792911.497979 kJ/mol
# GULP energy per Si atom -12389.242156 kJ/mol
# Density = 2.080676 g / cm^3
# Si number density = 20.854221 Si / 1000 Ang^3
#
#
#
# Elastic Constant Matrix: (Units=GPa)
#
#
# Indices 1 2 3 4 5 6 
#
# 1 6.9406 -2.3384 7.3832 0.0000 0.0000 0.0000
# 2 -2.3384 6.9406 7.3832 0.0000 0.0000 0.0000
# 3 7.3832 7.3832 133.9653 0.0000 0.0000 0.0000
# 4 0.0000 0.0000 0.0000 26.9147 0.0000 0.0000
# 5 0.0000 0.0000 0.0000 0.0000 26.9147 0.0000
# 6 0.0000 0.0000 0.0000 0.0000 0.0000 21.8147
#
#
#
# Elastic Compliance Matrix: (Units=1/GPa)
#
#
# Indices 1 2 3 4 5 6 
#
# 1 0.185868 0.078098 -0.014548 0.000000 0.000000 0.000000
# 2 0.078098 0.185868 -0.014548 0.000000 0.000000 0.000000
# 3 -0.014548 -0.014548 0.009068 0.000000 0.000000 0.000000
# 4 0.000000 0.000000 0.000000 0.037154 0.000000 0.000000
# 5 0.000000 0.000000 0.000000 0.000000 0.037154 0.000000
# 6 0.000000 0.000000 0.000000 0.000000 0.000000 0.045841
#
#
# Mechanical properties :
#
#
# Convention : Reuss Voigt Hill
#
# Bulk Modulus (GPa) = 2.08852 19.18917 10.63884
# Shear Modulus (GPa) = 8.88806 24.15671 16.52239
#
# Velocity S-wave (km/s) = 2.06670 3.40716 2.81780
# Velocity P-wave (km/s) = 2.58818 4.96990 3.96223
#
# Compressibility (1/GPa) = 0.47880889
#
# Stress axis : x y z
#
# Youngs Moduli (GPa) = 5.38016 5.38016 110.27569
#
# Poissons Ratio (x) = -0.42018 1.60429
# Poissons Ratio (y) = -0.42018 1.60429
# Poissons Ratio (z) = 0.07827 0.07827
#
# Static dielectric constant tensor:
#      x y z
#    x 3.288020 0.000000 0.000000 
#    y 0.000000 3.288020 0.000000 
#    z 0.000000 0.000000 3.743380 
# 
# 
# High freq. dielectric constant tensor:
#      x y z
#    x 1.778570 0.000000 0.000000 
#    y 0.000000 1.778570 0.000000 
#    z 0.000000 0.000000 1.829000 
# 
# From -- ./inp_files/4458.got.cif
#   From: 2010.03.12/outbox.cif.g09.slc.cpg/sg128_3_cif.got.tgz:4458.got - 2010.04.06 17:11:05.
