data_PCOD8314656
_publ_section_title
;
Structure prediction by ZEFSAII (Michael W. Deem and Ramdas Pophale) SiO2 
 PCOD8314656
Probable space group: P 4/M N C
;
_chemical_formula_sum "Si O2"
_cell_formula_units_Z 116
_cell_length_a 27.019855
_cell_length_b 27.019855
_cell_length_c 8.640200
_cell_angle_alpha 90.000000
_cell_angle_beta 90.000000
_cell_angle_gamma 90.000000
_cell_volume 6307.972969
_symmetry_space_group_name_H-M "P 4/M N C"
_symmetry_group_IT_number 128
_symmetry_cell_setting 'tetragonal'
loop_
_space_group_symop_operation_xyz
x,y,z
-y,x,z
-x,-y,z
y,-x,z
1/2+x,1/2-y,1/2-z
1/2-x,1/2+y,1/2-z
1/2+y,1/2+x,1/2-z
1/2-y,1/2-x,1/2-z
-x,-y,-z
y,-x,-z
x,y,-z
-y,x,-z
1/2-x,1/2+y,1/2+z
1/2+x,1/2-y,1/2+z
1/2-y,1/2-x,1/2+z
1/2+y,1/2+x,1/2+z
loop_
_atom_site_type_symbol
_atom_site_label
_atom_site_fract_x
_atom_site_fract_y
_atom_site_fract_z
Si Si1 0.402907 0.331852 0.320096
Si Si2 0.000000 0.000000 0.747119
Si Si3 0.051819 0.627566 0.681116
Si Si4 0.137184 0.439806 0.816270
Si Si5 0.889158 0.990968 0.321299
Si Si6 0.334071 0.409519 0.179116
Si Si7 0.237794 0.558946 0.182223
Si Si8 0.952358 0.740187 0.181429
O O1 0.391329 0.337275 0.500000
O O2 0.456299 0.355100 0.283989
O O3 0.359512 0.358097 0.224609
O O4 0.403802 0.274146 0.271871
O O5 0.054546 0.021986 0.721993
O O6 0.084191 0.584191 0.750000
O O7 0.055508 0.623122 0.500000
O O8 0.071520 0.681607 0.733639
O O9 0.995088 0.621137 0.734133
O O10 0.096741 0.403260 0.750000
O O11 0.189702 0.426735 0.739041
O O12 0.141922 0.434767 0.000000
O O13 0.880612 0.976910 0.500000
O O14 0.873558 0.047131 0.285077
O O15 0.284996 0.415270 0.281797
O O16 0.318945 0.408715 0.000000
O O17 0.250318 0.502516 0.224735
O O18 0.245673 0.565056 0.000000
O O19 0.963813 0.737394 0.000000
#
# Coordination Sequence:
#
# PCOD8314656 Si02
#       8
#    16   4  16  16  16  16  16  16
#     4  12  24  35  51  77 107 139 184 242 293 335
#     4  12  21  36  53  70  97 144 193 222 277 356
#     4   9  20  36  58  87 120 154 189 226 269 325
#     4  10  21  38  59  88 122 158 192 225 268 326
#     4  11  21  34  52  70  97 140 186 229 280 346
#     4  11  22  36  55  75 103 145 188 234 288 346
#     4  10  20  37  57  79 109 149 192 232 280 340
#     4  11  21  35  57  84 111 144 188 240 287 333
#
# _framework density 18.389426
#
# number of rings (size 3 to 8) (size 9 to 14) (size 15 to 20)
#    0.000    1.379    2.759    5.172    0.000    4.138 
#    0.000    1.724    0.000    0.828    0.000    3.862 
#    0.000    0.000    0.000    0.000    0.000    0.000 
#
# Total GULP energy -1437035.740917 kJ/mol
# GULP energy per Si atom -12388.239146 kJ/mol
# Density = 1.834757 g / cm^3
# Si number density = 18.389426 Si / 1000 Ang^3
#
#
#
# Elastic Constant Matrix: (Units=GPa)
#
#
# Indices 1 2 3 4 5 6 
#
# 1 85.3479 55.0850 19.7334 0.0000 0.0000 0.0000
# 2 55.0850 85.3403 19.7641 0.0000 0.0000 0.0000
# 3 19.7334 19.7641 66.5589 0.0000 0.0000 0.0000
# 4 0.0000 0.0000 0.0000 133.3654 0.0000 0.0000
# 5 0.0000 0.0000 0.0000 0.0000 133.2907 0.0000
# 6 0.0000 0.0000 0.0000 0.0000 0.0000 22.9384
#
#
#
# Elastic Compliance Matrix: (Units=1/GPa)
#
#
# Indices 1 2 3 4 5 6 
#
# 1 0.020405 -0.012639 -0.002297 0.000000 0.000000 0.000000
# 2 -0.012639 0.020412 -0.002314 0.000000 0.000000 0.000000
# 3 -0.002297 -0.002314 0.016392 0.000000 0.000000 0.000000
# 4 0.000000 0.000000 0.000000 0.007498 0.000000 0.000000
# 5 0.000000 0.000000 0.000000 0.000000 0.007502 0.000000
# 6 0.000000 0.000000 0.000000 0.000000 0.000000 0.043595
#
#
# Mechanical properties :
#
#
# Convention : Reuss Voigt Hill
#
# Bulk Modulus (GPa) = 44.03337 47.37910 45.70624
# Shear Modulus (GPa) = 31.67066 67.42987 49.55026
#
# Velocity S-wave (km/s) = 4.15447 6.06196 5.19649
# Velocity P-wave (km/s) = 6.85636 8.64967 7.80469
#
# Compressibility (1/GPa) = 0.02271005
#
# Stress axis : x y z
#
# Youngs Moduli (GPa) = 49.00678 48.99085 61.00429
#
# Poissons Ratio (x) = 0.61921 0.14011
# Poissons Ratio (y) = 0.61941 0.14116
# Poissons Ratio (z) = 0.11255 0.11336
#
# Static dielectric constant tensor:
#      x y z
#    x 3.319730 0.000000 0.000000 
#    y 0.000000 3.319720 0.000000 
#    z 0.000000 0.000000 3.331110 
# 
# 
# High freq. dielectric constant tensor:
#      x y z
#    x 1.707530 0.000000 0.000000 
#    y 0.000000 1.707530 0.000000 
#    z 0.000000 0.000000 1.710250 
# 
# From -- ./inp_files/1765.got.cif
#   From: 2010.03.12/outbox.cif.g09.slc.cpg/sg128_1_cif.got.tgz:1765.got - 2010.04.06 17:11:05.
