data_PCOD8314009
_publ_section_title
;
Structure prediction by ZEFSAII (Michael W. Deem and Ramdas Pophale) SiO2 
 PCOD8314009
Probable space group: P 4/M B M
;
_chemical_formula_sum "Si O2"
_cell_formula_units_Z 72
_cell_length_a 20.336640
_cell_length_b 20.336640
_cell_length_c 10.328707
_cell_angle_alpha 90.000000
_cell_angle_beta 90.000000
_cell_angle_gamma 90.000000
_cell_volume 4271.735553
_symmetry_space_group_name_H-M "P 4/M B M"
_symmetry_group_IT_number 127
_symmetry_cell_setting 'tetragonal'
loop_
_space_group_symop_operation_xyz
x,y,z
-y,x,z
-x,-y,z
y,-x,z
1/2+x,1/2-y,-z
1/2-x,1/2+y,-z
1/2+y,1/2+x,-z
1/2-y,1/2-x,-z
-x,-y,-z
y,-x,-z
x,y,-z
-y,x,-z
1/2-x,1/2+y,z
1/2+x,1/2-y,z
1/2-y,1/2-x,z
1/2+y,1/2+x,z
loop_
_atom_site_type_symbol
_atom_site_label
_atom_site_fract_x
_atom_site_fract_y
_atom_site_fract_z
Si Si1 0.698599 0.308047 0.500000
Si Si2 0.703952 0.092087 0.500000
Si Si3 0.193127 0.197335 0.000000
Si Si4 0.198301 0.412290 0.000000
Si Si5 0.445996 0.054005 0.355864
Si Si6 0.314993 0.998220 0.254340
Si Si7 0.862593 0.251800 0.246480
O O1 0.750847 0.250847 0.500000
O O2 0.627682 0.274202 0.500000
O O3 0.708117 0.352098 0.626386
O O4 0.641916 0.141916 0.500000
O O5 0.703544 0.047174 0.374265
O O6 0.120341 0.228935 0.000000
O O7 0.204649 0.153175 0.126179
O O8 0.243546 0.256455 0.000000
O O9 0.190090 0.456609 0.874819
O O10 0.142958 0.357043 0.000000
O O11 0.421812 0.078189 0.500000
O O12 0.388441 0.023659 0.271422
O O13 0.500000 0.000000 0.379847
O O14 0.267998 0.060812 0.242380
O O15 0.818094 0.318094 0.246195
#
# Coordination Sequence:
#
# PCOD8314009 Si02
#       7
#     8   8   8   8   8  16  16
#     4   9  19  32  53  74  99 132 179 223 270 309
#     4  11  21  35  52  77 108 148 179 219 260 312
#     4   9  19  36  55  68  99 136 173 219 282 315
#     4  11  23  37  52  77 106 144 177 223 264 312
#     4  11  22  35  49  73 111 163 185 209 241 298
#     4  12  22  34  54  77 110 141 189 216 255 312
#     4  10  19  34  52  75 100 135 175 222 266 305
#
# _framework density 16.854977000000002
#
# number of rings (size 3 to 8) (size 9 to 14) (size 15 to 20)
#    0.000    1.444    2.222    4.667    0.000    4.000 
#    0.000    1.111    0.000    0.000    0.000    0.000 
#    0.000   62.222    0.000    0.000    0.000    0.000 
#
# Total GULP energy -892842.035491 kJ/mol
# GULP energy per Si atom -12400.583826 kJ/mol
# Density = 1.681661 g / cm^3
# Si number density = 16.854977 Si / 1000 Ang^3
#
#
#
# Elastic Constant Matrix: (Units=GPa)
#
#
# Indices 1 2 3 4 5 6 
#
# 1 -65.3366 232.3899 69.1797 0.0000 0.0000 0.0000
# 2 232.3899 -65.3512 69.1752 0.0000 0.0000 0.0000
# 3 69.1797 69.1752 181.8768 0.0000 0.0000 0.0000
# 4 0.0000 0.0000 0.0000 34.5890 0.0000 0.0000
# 5 0.0000 0.0000 0.0000 0.0000 34.5984 0.0000
# 6 0.0000 0.0000 0.0000 0.0000 0.0000 39.3765
#
#
#
# Elastic Compliance Matrix: (Units=1/GPa)
#
#
# Indices 1 2 3 4 5 6 
#
# 1 0.002691 0.006049 -0.003324 0.000000 0.000000 0.000000
# 2 0.006049 0.002690 -0.003324 0.000000 0.000000 0.000000
# 3 -0.003324 -0.003324 0.008027 0.000000 0.000000 0.000000
# 4 0.000000 0.000000 0.000000 0.028911 0.000000 0.000000
# 5 0.000000 0.000000 0.000000 0.000000 0.028903 0.000000
# 6 0.000000 0.000000 0.000000 0.000000 0.000000 0.025396
#
#
# Mechanical properties :
#
#
# Convention : Reuss Voigt Hill
#
# Bulk Modulus (GPa) = 81.90313 88.07539 84.98926
# Shear Modulus (GPa) = 49.07464 0.40908 24.74186
#
# Velocity S-wave (km/s) = 5.40176 0.49319 3.83551
# Velocity P-wave (km/s) = 9.35969 7.25897 8.37545
#
# Compressibility (1/GPa) = 0.01220955
#
# Stress axis : x y z
#
# Youngs Moduli (GPa) = 371.66561 371.71103 124.58102
#
# Poissons Ratio (x) = -2.24853 0.41412
# Poissons Ratio (y) = -2.24825 0.41412
# Poissons Ratio (z) = 1.23547 1.23560
#
# Static dielectric constant tensor:
#      x y z
#    x 3.186860 0.000000 0.000000 
#    y 0.000000 3.186860 0.000000 
#    z 0.000000 0.000000 3.203020 
# 
# 
# High freq. dielectric constant tensor:
#      x y z
#    x 1.635900 0.000000 0.000000 
#    y 0.000000 1.635900 0.000000 
#    z 0.000000 0.000000 1.672510 
# 
# From -- ./inp_files/1704.got.cif
#   From: 2010.03.12/outbox.cif.g09.slc.cpg/sg127_1_cif.got.tgz:1704.got - 2010.04.06 17:03:15.
