data_PCOD8314204
_publ_section_title
;
Structure prediction by ZEFSAII (Michael W. Deem and Ramdas Pophale) SiO2 
 PCOD8314204
Probable space group: P 4/M B M
;
_chemical_formula_sum "Si O2"
_cell_formula_units_Z 64
_cell_length_a 20.148057
_cell_length_b 20.148057
_cell_length_c 8.882296
_cell_angle_alpha 90.000000
_cell_angle_beta 90.000000
_cell_angle_gamma 90.000000
_cell_volume 3605.716552
_symmetry_space_group_name_H-M "P 4/M B M"
_symmetry_group_IT_number 127
_symmetry_cell_setting 'tetragonal'
loop_
_space_group_symop_operation_xyz
x,y,z
-y,x,z
-x,-y,z
y,-x,z
1/2+x,1/2-y,-z
1/2-x,1/2+y,-z
1/2+y,1/2+x,-z
1/2-y,1/2-x,-z
-x,-y,-z
y,-x,-z
x,y,-z
-y,x,-z
1/2-x,1/2+y,z
1/2+x,1/2-y,z
1/2-y,1/2-x,z
1/2+y,1/2+x,z
loop_
_atom_site_type_symbol
_atom_site_label
_atom_site_fract_x
_atom_site_fract_y
_atom_site_fract_z
Si Si1 0.819092 0.428126 0.176241
Si Si2 0.673312 0.066178 0.322363
Si Si3 0.319687 0.576415 0.679462
Si Si4 0.427751 0.677606 0.322952
O O1 0.874270 0.374270 0.215664
O O2 0.844908 0.497991 0.240453
O O3 0.751311 0.404125 0.253481
O O4 0.806875 0.435424 0.000000
O O5 0.669443 0.053472 0.500000
O O6 0.622386 0.122386 0.268478
O O7 0.747129 0.090060 0.275801
O O8 0.313888 0.580378 0.500000
O O9 0.374553 0.626687 0.747774
O O10 0.339829 0.502143 0.731914
O O11 0.423897 0.669107 0.500000
#
# Coordination Sequence:
#
# PCOD8314204 Si02
#       4
#    16  16  16  16
#     4  10  21  35  49  68  96 127 161 201 240 281
#     4   9  18  33  52  74  99 125 157 197 239 286
#     4   9  17  31  51  73  98 127 159 195 236 282
#     4   8  15  28  48  75 101 124 154 194 236 278
#
# _framework density 17.749593999999998
#
# number of rings (size 3 to 8) (size 9 to 14) (size 15 to 20)
#    0.000    3.000    0.000    2.250    0.000    4.500 
#    0.000   12.500    0.000    0.000    0.000    7.000 
#    0.000    0.000    0.000    0.000    0.000    0.000 
#
# Total GULP energy -793438.820023 kJ/mol
# GULP energy per Si atom -12397.481563 kJ/mol
# Density = 1.770919 g / cm^3
# Si number density = 17.749594 Si / 1000 Ang^3
#
#
#
# Elastic Constant Matrix: (Units=GPa)
#
#
# Indices 1 2 3 4 5 6 
#
# 1 145.6084 120.2287 40.1466 0.0000 0.0000 0.0000
# 2 120.2287 145.6084 40.1466 0.0000 0.0000 0.0000
# 3 40.1466 40.1466 34.7050 0.0000 0.0000 0.0000
# 4 0.0000 0.0000 0.0000 11.1487 0.0000 0.0000
# 5 0.0000 0.0000 0.0000 0.0000 11.1487 0.0000
# 6 0.0000 0.0000 0.0000 0.0000 0.0000 42.4258
#
#
#
# Elastic Compliance Matrix: (Units=1/GPa)
#
#
# Indices 1 2 3 4 5 6 
#
# 1 0.022592 -0.016810 -0.006688 0.000000 0.000000 0.000000
# 2 -0.016810 0.022592 -0.006688 0.000000 0.000000 0.000000
# 3 -0.006688 -0.006688 0.044289 0.000000 0.000000 0.000000
# 4 0.000000 0.000000 0.000000 0.089696 0.000000 0.000000
# 5 0.000000 0.000000 0.000000 0.000000 0.089696 0.000000
# 6 0.000000 0.000000 0.000000 0.000000 0.000000 0.023571
#
#
# Mechanical properties :
#
#
# Convention : Reuss Voigt Hill
#
# Bulk Modulus (GPa) = 34.36595 80.77398 57.56996
# Shear Modulus (GPa) = 13.79279 21.30466 17.54872
#
# Velocity S-wave (km/s) = 2.79063 3.46828 3.14774
# Velocity P-wave (km/s) = 5.45775 7.85143 6.76136
#
# Compressibility (1/GPa) = 0.02909857
#
# Stress axis : x y z
#
# Youngs Moduli (GPa) = 44.26405 44.26405 22.57917
#
# Poissons Ratio (x) = 0.74407 0.15102
# Poissons Ratio (y) = 0.74407 0.15102
# Poissons Ratio (z) = 0.29606 0.29606
#
# Static dielectric constant tensor:
#      x y z
#    x 3.512170 0.000000 0.000000 
#    y 0.000000 3.512170 0.000000 
#    z 0.000000 0.000000 2.996730 
# 
# 
# High freq. dielectric constant tensor:
#      x y z
#    x 1.691470 0.000000 0.000000 
#    y 0.000000 1.691470 0.000000 
#    z 0.000000 0.000000 1.656970 
# 
# From -- ./inp_files/1357.got.cif
#   From: 2010.03.12/outbox.cif.g09.slc.cpg/sg127_1_cif.got.tgz:1357.got - 2010.04.06 17:03:15.
