data_PCOD8314055
_publ_section_title
;
Structure prediction by ZEFSAII (Michael W. Deem and Ramdas Pophale) SiO2 
 PCOD8314055
Probable space group: P 4/M B M
;
_chemical_formula_sum "Si O2"
_cell_formula_units_Z 96
_cell_length_a 23.811845
_cell_length_b 23.811845
_cell_length_c 9.445109
_cell_angle_alpha 90.000000
_cell_angle_beta 90.000000
_cell_angle_gamma 90.000000
_cell_volume 5355.414227
_symmetry_space_group_name_H-M "P 4/M B M"
_symmetry_group_IT_number 127
_symmetry_cell_setting 'tetragonal'
loop_
_space_group_symop_operation_xyz
x,y,z
-y,x,z
-x,-y,z
y,-x,z
1/2+x,1/2-y,-z
1/2-x,1/2+y,-z
1/2+y,1/2+x,-z
1/2-y,1/2-x,-z
-x,-y,-z
y,-x,-z
x,y,-z
-y,x,-z
1/2-x,1/2+y,z
1/2+x,1/2-y,z
1/2-y,1/2-x,z
1/2+y,1/2+x,z
loop_
_atom_site_type_symbol
_atom_site_label
_atom_site_fract_x
_atom_site_fract_y
_atom_site_fract_z
Si Si1 0.000710 0.411631 0.831801
Si Si2 0.366105 0.224657 0.663086
Si Si3 0.183212 0.225721 0.662359
Si Si4 0.034424 0.081783 0.168301
Si Si5 0.298265 0.426020 0.832815
Si Si6 0.022629 0.711985 0.167081
O O1 0.057446 0.442555 0.776629
O O2 0.946350 0.446350 0.778386
O O3 0.997557 0.348440 0.772846
O O4 0.001486 0.410789 0.000000
O O5 0.384951 0.223102 0.500000
O O6 0.331443 0.168558 0.701033
O O7 0.328357 0.278874 0.693916
O O8 0.419540 0.229889 0.762348
O O9 0.163363 0.225521 0.500000
O O10 0.218094 0.281907 0.696039
O O11 0.129860 0.225230 0.762969
O O12 0.059177 0.139911 0.228329
O O13 0.970211 0.072784 0.221449
O O14 0.033760 0.083991 0.000000
O O15 0.257347 0.476435 0.790355
O O16 0.299609 0.416399 0.000000
O O17 0.032729 0.709852 0.000000
#
# Coordination Sequence:
#
# PCOD8314055 Si02
#       6
#    16  16  16  16  16  16
#     4   8  14  26  44  65  94 134 170 198 239 298
#     4   9  19  36  56  76 100 136 180 221 261 307
#     4   9  20  39  57  72  98 140 182 216 259 313
#     4   8  15  29  48  69  98 136 169 201 250 311
#     4  10  21  32  50  81 108 134 171 216 262 313
#     4  10  20  31  48  80 111 132 163 213 266 311
#
# _framework density 17.925784
#
# number of rings (size 3 to 8) (size 9 to 14) (size 15 to 20)
#    0.000    3.000    0.000    2.500    2.333    3.333 
#    0.000    3.333    0.000    0.500    0.000    3.500 
#    0.000    0.000    0.000    0.000    0.000    0.000 
#
# Total GULP energy -1190165.780704 kJ/mol
# GULP energy per Si atom -12397.560216 kJ/mol
# Density = 1.788498 g / cm^3
# Si number density = 17.925784 Si / 1000 Ang^3
#
#
#
# Elastic Constant Matrix: (Units=GPa)
#
#
# Indices 1 2 3 4 5 6 
#
# 1 128.8177 68.0595 41.2445 0.0000 0.0000 0.0000
# 2 68.0595 128.8177 41.2445 0.0000 0.0000 0.0000
# 3 41.2445 41.2445 30.2626 0.0000 0.0000 0.0000
# 4 0.0000 0.0000 0.0000 21.7920 0.0000 0.0000
# 5 0.0000 0.0000 0.0000 0.0000 21.7920 0.0000
# 6 0.0000 0.0000 0.0000 0.0000 0.0000 20.6218
#
#
#
# Elastic Compliance Matrix: (Units=1/GPa)
#
#
# Indices 1 2 3 4 5 6 
#
# 1 0.014150 -0.002309 -0.016138 0.000000 0.000000 0.000000
# 2 -0.002309 0.014150 -0.016138 0.000000 0.000000 0.000000
# 3 -0.016138 -0.016138 0.077032 0.000000 0.000000 0.000000
# 4 0.000000 0.000000 0.000000 0.045889 0.000000 0.000000
# 5 0.000000 0.000000 0.000000 0.000000 0.045889 0.000000
# 6 0.000000 0.000000 0.000000 0.000000 0.000000 0.048492
#
#
# Mechanical properties :
#
#
# Convention : Reuss Voigt Hill
#
# Bulk Modulus (GPa) = 27.65284 65.44390 46.54837
# Shear Modulus (GPa) = 15.29877 21.99776 18.64827
#
# Velocity S-wave (km/s) = 2.92456 3.50688 3.22887
# Velocity P-wave (km/s) = 5.18303 7.27909 6.31858
#
# Compressibility (1/GPa) = 0.03616266
#
# Stress axis : x y z
#
# Youngs Moduli (GPa) = 70.67265 70.67265 12.98165
#
# Poissons Ratio (x) = 0.16318 0.20949
# Poissons Ratio (y) = 0.16318 0.20949
# Poissons Ratio (z) = 1.14049 1.14049
#
# Static dielectric constant tensor:
#      x y z
#    x 3.476770 0.000000 0.000000 
#    y 0.000000 3.476770 0.000000 
#    z 0.000000 0.000000 2.875650 
# 
# 
# High freq. dielectric constant tensor:
#      x y z
#    x 1.701750 0.000000 0.000000 
#    y 0.000000 1.701750 0.000000 
#    z 0.000000 0.000000 1.649830 
# 
# From -- ./inp_files/1949.got.cif
#   From: 2010.03.12/outbox.cif.g09.slc.cpg/sg127_1_cif.got.tgz:1949.got - 2010.04.06 17:03:15.
