data_PCOD8314270
_publ_section_title
;
Structure prediction by ZEFSAII (Michael W. Deem and Ramdas Pophale) SiO2 
 PCOD8314270
Probable space group: P 4/M B M
;
_chemical_formula_sum "Si O2"
_cell_formula_units_Z 88
_cell_length_a 14.954368
_cell_length_b 14.954368
_cell_length_c 21.919658
_cell_angle_alpha 90.000000
_cell_angle_beta 90.000000
_cell_angle_gamma 90.000000
_cell_volume 4901.961558
_symmetry_space_group_name_H-M "P 4/M B M"
_symmetry_group_IT_number 127
_symmetry_cell_setting 'tetragonal'
loop_
_space_group_symop_operation_xyz
x,y,z
-y,x,z
-x,-y,z
y,-x,z
1/2+x,1/2-y,-z
1/2-x,1/2+y,-z
1/2+y,1/2+x,-z
1/2-y,1/2-x,-z
-x,-y,-z
y,-x,-z
x,y,-z
-y,x,-z
1/2-x,1/2+y,z
1/2+x,1/2-y,z
1/2-y,1/2-x,z
1/2+y,1/2+x,z
loop_
_atom_site_type_symbol
_atom_site_label
_atom_site_fract_x
_atom_site_fract_y
_atom_site_fract_z
Si Si1 0.606361 0.251672 0.256617
Si Si2 0.895320 0.103530 0.835107
Si Si3 0.038455 0.141762 0.500000
Si Si4 0.039059 0.143649 0.368096
Si Si5 0.356766 0.999274 0.158400
Si Si6 0.110242 0.757904 0.931203
O O1 0.689281 0.189281 0.273889
O O2 0.645932 0.337862 0.220054
O O3 0.557798 0.281081 0.318337
O O4 0.533442 0.199868 0.216017
O O5 0.864481 0.147869 0.898916
O O6 0.999204 0.124740 0.829679
O O7 0.052140 0.191942 0.434966
O O8 0.938650 0.107035 0.500000
O O9 0.938499 0.107624 0.360105
O O10 0.418693 0.918693 0.133082
O O11 0.417744 0.082257 0.180231
O O12 0.291333 0.029386 0.103980
O O13 0.198778 0.698778 0.930697
O O14 0.078220 0.777317 0.000000
#
# Coordination Sequence:
#
# PCOD8314270 Si02
#       6
#    16  16   8  16  16  16
#     4  11  21  34  52  78 106 135 173 216 260 302
#     4  11  22  37  54  72 100 136 171 207 254 312
#     4   7  12  26  49  74 102 137 173 207 242 293
#     4   9  17  31  52  78 106 137 173 209 252 303
#     4   9  19  37  58  77 100 131 170 218 263 306
#     4  10  21  38  58  78 100 128 166 214 267 317
#
# _framework density 17.951996999999999
#
# number of rings (size 3 to 8) (size 9 to 14) (size 15 to 20)
#    0.000    2.273    1.818    2.727    0.000    2.545 
#    0.000    3.182    0.000    0.000    0.000    1.909 
#    0.000    2.909    0.000    0.000    0.000    0.000 
#
# Total GULP energy -1090421.745084 kJ/mol
# GULP energy per Si atom -12391.156194 kJ/mol
# Density = 1.791114 g / cm^3
# Si number density = 17.951997 Si / 1000 Ang^3
#
#
#
# Elastic Constant Matrix: (Units=GPa)
#
#
# Indices 1 2 3 4 5 6 
#
# 1 69.9298 14.4280 35.6706 0.0000 0.0000 0.0000
# 2 14.4280 69.9298 35.6706 0.0000 0.0000 0.0000
# 3 35.6706 35.6706 141.0125 0.0000 0.0000 0.0000
# 4 0.0000 0.0000 0.0000 21.2429 0.0000 0.0000
# 5 0.0000 0.0000 0.0000 0.0000 21.2429 0.0000
# 6 0.0000 0.0000 0.0000 0.0000 0.0000 12.3326
#
#
#
# Elastic Compliance Matrix: (Units=1/GPa)
#
#
# Indices 1 2 3 4 5 6 
#
# 1 0.016549 -0.001469 -0.003815 0.000000 0.000000 0.000000
# 2 -0.001469 0.016549 -0.003815 0.000000 0.000000 0.000000
# 3 -0.003815 -0.003815 0.009022 0.000000 0.000000 0.000000
# 4 0.000000 0.000000 0.000000 0.047074 0.000000 0.000000
# 5 0.000000 0.000000 0.000000 0.000000 0.047074 0.000000
# 6 0.000000 0.000000 0.000000 0.000000 0.000000 0.081086
#
#
# Mechanical properties :
#
#
# Convention : Reuss Voigt Hill
#
# Bulk Modulus (GPa) = 41.80022 50.26784 46.03403
# Shear Modulus (GPa) = 20.53183 23.97057 22.25120
#
# Velocity S-wave (km/s) = 3.38554 3.65808 3.52445
# Velocity P-wave (km/s) = 6.21430 6.77526 6.50083
#
# Compressibility (1/GPa) = 0.02392332
#
# Stress axis : x y z
#
# Youngs Moduli (GPa) = 60.42694 60.42694 110.84603
#
# Poissons Ratio (x) = 0.08874 0.42285
# Poissons Ratio (y) = 0.08874 0.42285
# Poissons Ratio (z) = 0.23051 0.23051
#
# Static dielectric constant tensor:
#      x y z
#    x 3.271890 0.000000 0.000000 
#    y 0.000000 3.271890 0.000000 
#    z 0.000000 0.000000 3.594780 
# 
# 
# High freq. dielectric constant tensor:
#      x y z
#    x 1.683030 0.000000 0.000000 
#    y 0.000000 1.683030 0.000000 
#    z 0.000000 0.000000 1.694120 
# 
# From -- ./inp_files/5704.got.cif
#   From: 2010.03.12/outbox.cif.g09.slc.cpg/sg127_3_cif.got.tgz:5704.got - 2010.04.06 17:03:15.
