data_PCOD8314478
_publ_section_title
;
Structure prediction by ZEFSAII (Michael W. Deem and Ramdas Pophale) SiO2 
 PCOD8314478
Probable space group: P 4/M B M
;
_chemical_formula_sum "Si O2"
_cell_formula_units_Z 120
_cell_length_a 28.160562
_cell_length_b 28.160562
_cell_length_c 9.509828
_cell_angle_alpha 90.000000
_cell_angle_beta 90.000000
_cell_angle_gamma 90.000000
_cell_volume 7541.457669
_symmetry_space_group_name_H-M "P 4/M B M"
_symmetry_group_IT_number 127
_symmetry_cell_setting 'tetragonal'
loop_
_space_group_symop_operation_xyz
x,y,z
-y,x,z
-x,-y,z
y,-x,z
1/2+x,1/2-y,-z
1/2-x,1/2+y,-z
1/2+y,1/2+x,-z
1/2-y,1/2-x,-z
-x,-y,-z
y,-x,-z
x,y,-z
-y,x,-z
1/2-x,1/2+y,z
1/2+x,1/2-y,z
1/2-y,1/2-x,z
1/2+y,1/2+x,z
loop_
_atom_site_type_symbol
_atom_site_label
_atom_site_fract_x
_atom_site_fract_y
_atom_site_fract_z
Si Si1 0.960131 0.460131 0.153663
Si Si2 0.013638 0.695650 0.345043
Si Si3 0.122441 0.701402 0.335670
Si Si4 0.975433 0.862220 0.338415
Si Si5 0.005410 0.222255 0.843379
Si Si6 0.478451 0.904110 0.654498
Si Si7 0.606105 0.706310 0.160947
Si Si8 0.881356 0.916848 0.337318
O O1 0.915423 0.480542 0.234939
O O2 0.000000 0.500000 0.147480
O O3 0.943629 0.443629 0.000000
O O4 0.014487 0.719787 0.500000
O O5 0.068584 0.682581 0.307041
O O6 0.987413 0.728052 0.232810
O O7 0.976953 0.652154 0.346989
O O8 0.129492 0.714005 0.500000
O O9 0.160211 0.660211 0.290652
O O10 0.130721 0.749400 0.243212
O O11 0.973256 0.845931 0.500000
O O12 0.965269 0.817110 0.240709
O O13 0.027217 0.883005 0.301405
O O14 0.934720 0.900163 0.303726
O O15 0.949858 0.212509 0.841881
O O16 0.026137 0.225005 0.000000
O O17 0.493350 0.923113 0.500000
O O18 0.427692 0.927692 0.697020
O O19 0.613415 0.656569 0.244571
O O20 0.625896 0.703475 0.000000
O O21 0.867595 0.908437 0.500000
#
# Coordination Sequence:
#
# PCOD8314478 Si02
#       8
#     8  16  16  16  16  16  16  16
#     4   9  17  27  37  51  75 107 139 171 209 255
#     4   9  17  28  44  62  84 112 146 186 226 270
#     4   9  17  28  43  63  86 113 146 184 225 270
#     4   9  17  29  46  68  94 122 152 181 214 253
#     4   9  17  29  44  62  86 114 146 181 217 256
#     4   9  17  28  42  59  80 109 144 180 219 266
#     4   9  17  29  44  62  87 117 147 179 217 260
#     4   9  17  29  46  68  94 124 154 184 215 255
#
# _framework density 15.912042
#
# number of rings (size 3 to 8) (size 9 to 14) (size 15 to 20)
#    0.000    3.000    0.000    1.000    0.933    5.600 
#    0.000    1.333    0.000    0.000    0.000    4.667 
#    0.000    3.200    0.000    0.000    0.000    0.000 
#
# Total GULP energy -1486781.344936 kJ/mol
# GULP energy per Si atom -12389.844541 kJ/mol
# Density = 1.587583 g / cm^3
# Si number density = 15.912042 Si / 1000 Ang^3
#
#
#
# Elastic Constant Matrix: (Units=GPa)
#
#
# Indices 1 2 3 4 5 6 
#
# 1 75.1868 46.6800 47.0391 0.0000 0.0000 0.0000
# 2 46.6800 75.1868 47.0391 0.0000 0.0000 0.0000
# 3 47.0391 47.0391 102.7757 0.0000 0.0000 0.0000
# 4 0.0000 0.0000 0.0000 19.5783 0.0000 0.0000
# 5 0.0000 0.0000 0.0000 0.0000 19.5783 0.0000
# 6 0.0000 0.0000 0.0000 0.0000 0.0000 15.5596
#
#
#
# Elastic Compliance Matrix: (Units=1/GPa)
#
#
# Indices 1 2 3 4 5 6 
#
# 1 0.023884 -0.011195 -0.005808 0.000000 0.000000 0.000000
# 2 -0.011195 0.023884 -0.005808 0.000000 0.000000 0.000000
# 3 -0.005808 -0.005808 0.015046 0.000000 0.000000 0.000000
# 4 0.000000 0.000000 0.000000 0.051077 0.000000 0.000000
# 5 0.000000 0.000000 0.000000 0.000000 0.051077 0.000000
# 6 0.000000 0.000000 0.000000 0.000000 0.000000 0.064269
#
#
# Mechanical properties :
#
#
# Convention : Reuss Voigt Hill
#
# Bulk Modulus (GPa) = 58.16091 59.40731 58.78411
# Shear Modulus (GPa) = 17.81965 18.43599 18.12782
#
# Velocity S-wave (km/s) = 3.35010 3.40754 3.37894
# Velocity P-wave (km/s) = 7.18297 7.27308 7.22816
#
# Compressibility (1/GPa) = 0.01719368
#
# Stress axis : x y z
#
# Youngs Moduli (GPa) = 41.86865 41.86865 66.46269
#
# Poissons Ratio (x) = 0.46873 0.38599
# Poissons Ratio (y) = 0.46873 0.38599
# Poissons Ratio (z) = 0.24316 0.24316
#
# Static dielectric constant tensor:
#      x y z
#    x 2.841680 0.000000 0.000000 
#    y 0.000000 2.841680 0.000000 
#    z 0.000000 0.000000 3.367360 
# 
# 
# High freq. dielectric constant tensor:
#      x y z
#    x 1.584430 0.000000 0.000000 
#    y 0.000000 1.584430 0.000000 
#    z 0.000000 0.000000 1.620570 
# 
# From -- ./inp_files/2388.got.cif
#   From: 2010.03.12/outbox.cif.g09.slc.cpg/sg127_2_cif.got.tgz:2388.got - 2010.04.06 17:03:15.
