data_PCOD8314975
_publ_section_title
;
Structure prediction by ZEFSAII (Michael W. Deem and Ramdas Pophale) SiO2 
 PCOD8314975
Probable space group: P 4/N M M
;
_chemical_formula_sum "Si O2"
_cell_formula_units_Z 112
_cell_length_a 22.158986
_cell_length_b 22.158986
_cell_length_c 12.165601
_cell_angle_alpha 90.000000
_cell_angle_beta 90.000000
_cell_angle_gamma 90.000000
_cell_volume 5973.561439
_symmetry_space_group_name_H-M "P 4/N M M"
_symmetry_group_IT_number 129
_symmetry_cell_setting 'tetragonal'
loop_
_space_group_symop_operation_xyz
x,y,z
1/2-y,x,z
1/2-x,1/2-y,z
y,1/2-x,z
1/2+x,-y,-z
-x,1/2+y,-z
1/2+y,1/2+x,-z
-y,-x,-z
-x,-y,-z
1/2+y,-x,-z
1/2+x,1/2+y,-z
-y,1/2+x,-z
1/2-x,y,z
x,1/2-y,z
1/2-y,1/2-x,z
y,x,z
loop_
_atom_site_type_symbol
_atom_site_label
_atom_site_fract_x
_atom_site_fract_y
_atom_site_fract_z
Si Si1 0.009231 0.911675 0.855461
Si Si2 0.482088 0.623437 0.101125
Si Si3 0.181438 0.084486 0.548954
Si Si4 0.592337 0.684016 0.194758
Si Si5 0.544383 0.138910 0.516511
Si Si6 0.681919 0.071503 0.712480
Si Si7 0.181629 0.603565 0.740489
O O1 0.059143 0.964299 0.845650
O O2 0.018844 0.862133 0.759862
O O3 0.020661 0.877213 0.969711
O O4 0.943126 0.943126 0.846903
O O5 0.550201 0.637005 0.132934
O O6 0.438517 0.674801 0.151611
O O7 0.250000 0.086682 0.499712
O O8 0.145896 0.145896 0.516802
O O9 0.186057 0.075278 0.678284
O O10 0.142455 0.027947 0.504381
O O11 0.587181 0.750000 0.141199
O O12 0.660765 0.660765 0.180501
O O13 0.570347 0.070347 0.500000
O O14 0.571844 0.179944 0.419555
O O15 0.564688 0.165990 0.632624
O O16 0.750000 0.060187 0.753284
O O17 0.660575 0.137318 0.753993
O O18 0.250000 0.627177 0.734226
#
# Coordination Sequence:
#
# PCOD8314975 Si02
#       7
#    16  16  16  16  16  16  16
#     4  10  21  36  54  75 105 137 171 219 270 321
#     4  10  18  33  55  78 101 132 173 219 266 317
#     4  10  20  33  51  76 108 142 176 217 265 320
#     4  10  19  30  48  74 103 136 171 209 256 312
#     4  10  20  36  54  78 108 143 181 229 279 326
#     4  10  22  36  52  76 109 144 179 222 266 317
#     4  10  19  33  56  80 106 143 180 218 270 324
#
# _framework density 18.749283999999999
#
# number of rings (size 3 to 8) (size 9 to 14) (size 15 to 20)
#    0.000    2.000    1.429    3.429    0.000    2.571 
#    0.000    1.429    0.000    2.571    0.000    4.000 
#    0.000    0.286    0.000    0.286    0.000    0.286 
#
# Total GULP energy -1388323.180968 kJ/mol
# GULP energy per Si atom -12395.742687 kJ/mol
# Density = 1.870661 g / cm^3
# Si number density = 18.749284 Si / 1000 Ang^3
#
#
#
# Elastic Constant Matrix: (Units=GPa)
#
#
# Indices 1 2 3 4 5 6 
#
# 1 114.4319 69.7146 33.8551 0.0000 0.0000 0.0000
# 2 69.7146 114.4319 33.8551 0.0000 0.0000 0.0000
# 3 33.8551 33.8551 61.6485 0.0000 0.0000 0.0000
# 4 0.0000 0.0000 0.0000 18.4382 0.0000 0.0000
# 5 0.0000 0.0000 0.0000 0.0000 18.4382 0.0000
# 6 0.0000 0.0000 0.0000 0.0000 0.0000 15.5632
#
#
#
# Elastic Compliance Matrix: (Units=1/GPa)
#
#
# Indices 1 2 3 4 5 6 
#
# 1 0.014584 -0.007779 -0.003737 0.000000 0.000000 0.000000
# 2 -0.007779 0.014584 -0.003737 0.000000 0.000000 0.000000
# 3 -0.003737 -0.003737 0.020325 0.000000 0.000000 0.000000
# 4 0.000000 0.000000 0.000000 0.054235 0.000000 0.000000
# 5 0.000000 0.000000 0.000000 0.000000 0.054235 0.000000
# 6 0.000000 0.000000 0.000000 0.000000 0.000000 0.064254
#
#
# Mechanical properties :
#
#
# Convention : Reuss Voigt Hill
#
# Bulk Modulus (GPa) = 52.66744 62.81798 57.74271
# Shear Modulus (GPa) = 19.30123 20.69378 19.99750
#
# Velocity S-wave (km/s) = 3.21197 3.32582 3.26939
# Velocity P-wave (km/s) = 6.47356 6.95162 6.71685
#
# Compressibility (1/GPa) = 0.01898706
#
# Stress axis : x y z
#
# Youngs Moduli (GPa) = 68.57030 68.57030 49.20008
#
# Poissons Ratio (x) = 0.53342 0.18385
# Poissons Ratio (y) = 0.53342 0.18385
# Poissons Ratio (z) = 0.25623 0.25623
#
# Static dielectric constant tensor:
#      x y z
#    x 3.439210 0.000000 0.000000 
#    y 0.000000 3.439210 0.000000 
#    z 0.000000 0.000000 3.329670 
# 
# 
# High freq. dielectric constant tensor:
#      x y z
#    x 1.718950 0.000000 0.000000 
#    y 0.000000 1.718950 0.000000 
#    z 0.000000 0.000000 1.710000 
# 
# From -- ./inp_files/4067.got.cif
#   From: 2010.03.12/outbox.cif.g09.slc.cpg/sg129_3_cif.got.tgz:4067.got - 2010.04.06 17:19:44.
