data_PCOD8314587
_publ_section_title
;
Structure prediction by ZEFSAII (Michael W. Deem and Ramdas Pophale) SiO2 
 PCOD8314587
Probable space group: P 4/M N C
;
_chemical_formula_sum "Si O2"
_cell_formula_units_Z 88
_cell_length_a 11.899139
_cell_length_b 11.899139
_cell_length_c 29.539847
_cell_angle_alpha 90.000000
_cell_angle_beta 90.000000
_cell_angle_gamma 90.000000
_cell_volume 4182.532431
_symmetry_space_group_name_H-M "P 4/M N C"
_symmetry_group_IT_number 128
_symmetry_cell_setting 'tetragonal'
loop_
_space_group_symop_operation_xyz
x,y,z
-y,x,z
-x,-y,z
y,-x,z
1/2+x,1/2-y,1/2-z
1/2-x,1/2+y,1/2-z
1/2+y,1/2+x,1/2-z
1/2-y,1/2-x,1/2-z
-x,-y,-z
y,-x,-z
x,y,-z
-y,x,-z
1/2-x,1/2+y,1/2+z
1/2+x,1/2-y,1/2+z
1/2-y,1/2-x,1/2+z
1/2+y,1/2+x,1/2+z
loop_
_atom_site_type_symbol
_atom_site_label
_atom_site_fract_x
_atom_site_fract_y
_atom_site_fract_z
Si Si1 0.725011 0.006410 0.659807
Si Si2 0.150569 0.109800 0.127666
Si Si3 0.614022 0.818873 0.449680
Si Si4 0.444636 0.329685 0.930029
Si Si5 0.246013 0.217578 0.698981
Si Si6 0.500000 0.000000 0.605399
O O1 0.810013 0.948615 0.623955
O O2 0.718516 0.913808 0.699653
O O3 0.605126 0.026272 0.636956
O O4 0.768333 0.123016 0.678424
O O5 0.210867 0.147178 0.080799
O O6 0.215482 0.160401 0.170482
O O7 0.024735 0.155549 0.129305
O O8 0.576449 0.779811 0.500000
O O9 0.719419 0.902455 0.455424
O O10 0.515292 0.889414 0.425602
O O11 0.571250 0.360155 0.944520
O O12 0.239689 0.260311 0.750000
#
# Coordination Sequence:
#
# PCOD8314587 Si02
#       6
#    16  16  16  16  16   8
#     4  11  22  42  66  97 134 176 223 275 336 405
#     4  11  25  48  70  94 137 184 228 280 339 404
#     4  11  23  41  67 100 131 174 230 283 341 409
#     4  10  19  37  63  90 129 172 216 269 336 399
#     4  12  27  42  69 105 136 177 230 279 341 401
#     4  10  21  42  69  92 138 182 223 276 353 402
#
# _framework density 21.039883
#
# number of rings (size 3 to 8) (size 9 to 14) (size 15 to 20)
#    0.000    1.091    5.455    1.364    2.545    3.273 
#    0.000    1.818    0.000    0.000    0.000    0.000 
#    0.000    0.000    0.000    0.000    0.000    0.000 
#
# Total GULP energy -1091152.161848 kJ/mol
# GULP energy per Si atom -12399.456385 kJ/mol
# Density = 2.099200 g / cm^3
# Si number density = 21.039883 Si / 1000 Ang^3
#
#
#
# Elastic Constant Matrix: (Units=GPa)
#
#
# Indices 1 2 3 4 5 6 
#
# 1 127.8530 52.6894 47.0714 0.0000 0.0000 0.0000
# 2 52.6894 127.8526 47.0711 0.0000 0.0000 0.0000
# 3 47.0714 47.0711 137.7305 0.0000 0.0000 0.0000
# 4 0.0000 0.0000 0.0000 13.0902 0.0000 0.0000
# 5 0.0000 0.0000 0.0000 0.0000 13.0903 0.0000
# 6 0.0000 0.0000 0.0000 0.0000 0.0000 27.8255
#
#
#
# Elastic Compliance Matrix: (Units=1/GPa)
#
#
# Indices 1 2 3 4 5 6 
#
# 1 0.010022 -0.003282 -0.002303 0.000000 0.000000 0.000000
# 2 -0.003282 0.010022 -0.002303 0.000000 0.000000 0.000000
# 3 -0.002303 -0.002303 0.008835 0.000000 0.000000 0.000000
# 4 0.000000 0.000000 0.000000 0.076393 0.000000 0.000000
# 5 0.000000 0.000000 0.000000 0.000000 0.076392 0.000000
# 6 0.000000 0.000000 0.000000 0.000000 0.000000 0.035938
#
#
# Mechanical properties :
#
#
# Convention : Reuss Voigt Hill
#
# Bulk Modulus (GPa) = 76.32936 76.34442 76.33689
# Shear Modulus (GPa) = 21.03067 27.24151 24.13609
#
# Velocity S-wave (km/s) = 3.16502 3.60218 3.39065
# Velocity P-wave (km/s) = 7.05079 7.32566 7.18954
#
# Compressibility (1/GPa) = 0.01310112
#
# Stress axis : x y z
#
# Youngs Moduli (GPa) = 99.77885 99.77867 113.18557
#
# Poissons Ratio (x) = 0.32749 0.26072
# Poissons Ratio (y) = 0.32749 0.26072
# Poissons Ratio (z) = 0.22984 0.22984
#
# Static dielectric constant tensor:
#      x y z
#    x 3.913490 0.000000 0.000000 
#    y 0.000000 3.913490 0.000000 
#    z 0.000000 0.000000 3.702030 
# 
# 
# High freq. dielectric constant tensor:
#      x y z
#    x 1.832250 0.000000 0.000000 
#    y 0.000000 1.832250 0.000000 
#    z 0.000000 0.000000 1.812450 
# 
# From -- ./inp_files/7285.got.cif
#   From: 2010.03.12/outbox.cif.g09.slc.cpg/sg128_4_cif.got.tgz:7285.got - 2010.04.06 17:11:05.
