data_PCOD8314530
_publ_section_title
;
Structure prediction by ZEFSAII (Michael W. Deem and Ramdas Pophale) SiO2 
 PCOD8314530
Probable space group: P 4/M N C
;
_chemical_formula_sum "Si O2"
_cell_formula_units_Z 96
_cell_length_a 26.190932
_cell_length_b 26.190932
_cell_length_c 9.454990
_cell_angle_alpha 90.000000
_cell_angle_beta 90.000000
_cell_angle_gamma 90.000000
_cell_volume 6485.791450
_symmetry_space_group_name_H-M "P 4/M N C"
_symmetry_group_IT_number 128
_symmetry_cell_setting 'tetragonal'
loop_
_space_group_symop_operation_xyz
x,y,z
-y,x,z
-x,-y,z
y,-x,z
1/2+x,1/2-y,1/2-z
1/2-x,1/2+y,1/2-z
1/2+y,1/2+x,1/2-z
1/2-y,1/2-x,1/2-z
-x,-y,-z
y,-x,-z
x,y,-z
-y,x,-z
1/2-x,1/2+y,1/2+z
1/2+x,1/2-y,1/2+z
1/2-y,1/2-x,1/2+z
1/2+y,1/2+x,1/2+z
loop_
_atom_site_type_symbol
_atom_site_label
_atom_site_fract_x
_atom_site_fract_y
_atom_site_fract_z
Si Si1 0.847467 0.010427 0.266360
Si Si2 0.775389 0.343201 0.338179
Si Si3 0.243034 0.809757 0.840566
Si Si4 0.014144 0.083877 0.000000
Si Si5 0.918514 0.984296 0.500000
Si Si6 0.203957 0.086203 0.331968
Si Si7 0.326571 0.375399 0.840785
O O1 0.885035 0.976889 0.362941
O O2 0.801175 0.969813 0.256815
O O3 0.831066 0.063567 0.334764
O O4 0.877941 0.022733 0.126782
O O5 0.825065 0.325065 0.250000
O O6 0.789697 0.359270 0.500000
O O7 0.735568 0.297321 0.344911
O O8 0.752043 0.389922 0.249480
O O9 0.292270 0.792270 0.750000
O O10 0.218051 0.859039 0.766354
O O11 0.259839 0.824556 0.000000
O O12 0.058017 0.041226 0.000000
O O13 0.959460 0.940634 0.500000
O O14 0.215210 0.081518 0.500000
O O15 0.153441 0.120656 0.303203
O O16 0.310491 0.359906 0.000000
#
# Coordination Sequence:
#
# PCOD8314530 Si02
#       7
#    16  16  16   8   8  16  16
#     4  12  22  33  46  62  84 112 148 189 232 274
#     4   9  17  29  46  66  85 105 131 167 214 267
#     4   9  17  29  46  66  85 105 131 167 214 267
#     4  11  24  36  44  56  78 110 150 198 242 273
#     4  11  20  32  48  60  74 106 154 198 230 261
#     4  10  19  31  46  63  84 110 142 182 224 265
#     4  10  19  31  46  63  84 110 142 182 224 265
#
# _framework density 14.801584999999999
#
# number of rings (size 3 to 8) (size 9 to 14) (size 15 to 20)
#    0.000    1.833    1.667    4.000    2.333    5.333 
#    0.000    0.000    0.000    0.000    0.000    0.000 
#    0.000    0.000    0.000    0.000    0.000    0.833 
#
# Total GULP energy -1189907.031982 kJ/mol
# GULP energy per Si atom -12394.864916 kJ/mol
# Density = 1.476790 g / cm^3
# Si number density = 14.801585 Si / 1000 Ang^3
#
#
#
# Elastic Constant Matrix: (Units=GPa)
#
#
# Indices 1 2 3 4 5 6 
#
# 1 38.2949 23.2052 23.2179 0.0000 0.0000 0.0000
# 2 23.2052 38.2949 23.2179 0.0000 0.0000 0.0000
# 3 23.2179 23.2179 94.1073 0.0000 0.0000 0.0000
# 4 0.0000 0.0000 0.0000 24.4129 0.0000 0.0000
# 5 0.0000 0.0000 0.0000 0.0000 24.4129 0.0000
# 6 0.0000 0.0000 0.0000 0.0000 0.0000 29.9158
#
#
#
# Elastic Compliance Matrix: (Units=1/GPa)
#
#
# Indices 1 2 3 4 5 6 
#
# 1 0.043127 -0.023144 -0.004930 0.000000 0.000000 0.000000
# 2 -0.023144 0.043127 -0.004930 0.000000 0.000000 0.000000
# 3 -0.004930 -0.004930 0.013059 0.000000 0.000000 0.000000
# 4 0.000000 0.000000 0.000000 0.040962 0.000000 0.000000
# 5 0.000000 0.000000 0.000000 0.000000 0.040962 0.000000
# 6 0.000000 0.000000 0.000000 0.000000 0.000000 0.033427
#
#
# Mechanical properties :
#
#
# Convention : Reuss Voigt Hill
#
# Bulk Modulus (GPa) = 30.02662 34.44212 32.23437
# Shear Modulus (GPa) = 17.13667 22.48543 19.81105
#
# Velocity S-wave (km/s) = 3.40628 3.90182 3.66244
# Velocity P-wave (km/s) = 5.98335 6.60444 6.30155
#
# Compressibility (1/GPa) = 0.03330379
#
# Stress axis : x y z
#
# Youngs Moduli (GPa) = 23.18759 23.18759 76.57668
#
# Poissons Ratio (x) = 0.53665 0.37753
# Poissons Ratio (y) = 0.53665 0.37753
# Poissons Ratio (z) = 0.11432 0.11432
#
# Static dielectric constant tensor:
#      x y z
#    x 2.691800 0.000000 0.000000 
#    y 0.000000 2.691800 0.000000 
#    z 0.000000 0.000000 3.082670 
# 
# 
# High freq. dielectric constant tensor:
#      x y z
#    x 1.530930 0.000000 0.000000 
#    y 0.000000 1.530930 0.000000 
#    z 0.000000 0.000000 1.587180 
# 
# From -- ./inp_files/1567.got.cif
#   From: 2010.03.12/outbox.cif.g09.slc.cpg/sg128_1_cif.got.tgz:1567.got - 2010.04.06 17:11:05.
