data_PCOD8314511
_publ_section_title
;
Structure prediction by ZEFSAII (Michael W. Deem and Ramdas Pophale) SiO2 
 PCOD8314511
Probable space group: P 4/M N C
;
_chemical_formula_sum "Si O2"
_cell_formula_units_Z 104
_cell_length_a 19.173805
_cell_length_b 19.173805
_cell_length_c 15.666354
_cell_angle_alpha 90.000000
_cell_angle_beta 90.000000
_cell_angle_gamma 90.000000
_cell_volume 5759.496891
_symmetry_space_group_name_H-M "P 4/M N C"
_symmetry_group_IT_number 128
_symmetry_cell_setting 'tetragonal'
loop_
_space_group_symop_operation_xyz
x,y,z
-y,x,z
-x,-y,z
y,-x,z
1/2+x,1/2-y,1/2-z
1/2-x,1/2+y,1/2-z
1/2+y,1/2+x,1/2-z
1/2-y,1/2-x,1/2-z
-x,-y,-z
y,-x,-z
x,y,-z
-y,x,-z
1/2-x,1/2+y,1/2+z
1/2+x,1/2-y,1/2+z
1/2-y,1/2-x,1/2+z
1/2+y,1/2+x,1/2+z
loop_
_atom_site_type_symbol
_atom_site_label
_atom_site_fract_x
_atom_site_fract_y
_atom_site_fract_z
Si Si1 0.829571 0.416850 0.816482
Si Si2 0.588214 0.805843 0.000000
Si Si3 0.019501 0.113113 0.905835
Si Si4 0.564449 0.322167 0.754553
Si Si5 0.423604 0.829477 0.189786
Si Si6 0.290281 0.925325 0.500000
Si Si7 0.420937 0.332834 0.826988
Si Si8 0.645967 0.658897 0.000000
O O1 0.867142 0.367142 0.750000
O O2 0.846775 0.495955 0.791639
O O3 0.747620 0.401624 0.813464
O O4 0.853235 0.402208 0.915075
O O5 0.508751 0.772066 0.000000
O O6 0.645856 0.743916 0.000000
O O7 0.031021 0.176755 0.840175
O O8 0.944644 0.078757 0.891818
O O9 0.025036 0.145724 0.000000
O O10 0.596138 0.247562 0.777812
O O11 0.503819 0.342866 0.821450
O O12 0.624658 0.379940 0.754846
O O13 0.381481 0.881481 0.250000
O O14 0.407879 0.834097 0.087118
O O15 0.221989 0.876454 0.500000
O O16 0.395555 0.365041 0.916405
#
# Coordination Sequence:
#
# PCOD8314511 Si02
#       8
#    16   8  16  16  16   8  16   8
#     4   9  19  38  61  80 106 140 184 229 286 338
#     4   8  18  34  57  83 105 149 184 219 281 336
#     4   9  17  30  51  73 101 145 189 222 264 316
#     4  11  19  34  53  77 110 146 186 232 265 323
#     4  10  22  38  58  84 109 145 185 231 291 339
#     4  10  18  38  59  75 119 156 178 222 283 349
#     4  10  21  30  54  80 110 148 184 223 269 322
#     4  10  18  32  50  79 110 153 184 211 261 332
#
# _framework density 18.057131999999999
#
# number of rings (size 3 to 8) (size 9 to 14) (size 15 to 20)
#    0.000    2.308    3.077    1.385    0.000    1.231 
#    1.385    0.769    6.769    3.923    0.000    0.000 
#    0.000    0.000    0.000    0.000    0.000    0.000 
#
# Total GULP energy -1288693.955520 kJ/mol
# GULP energy per Si atom -12391.288034 kJ/mol
# Density = 1.801603 g / cm^3
# Si number density = 18.057132 Si / 1000 Ang^3
#
#
#
# Elastic Constant Matrix: (Units=GPa)
#
#
# Indices 1 2 3 4 5 6 
#
# 1 58.4117 47.1624 45.2256 0.0000 0.0000 0.0000
# 2 47.1624 58.4117 45.2256 0.0000 0.0000 0.0000
# 3 45.2256 45.2256 142.3396 0.0000 0.0000 0.0000
# 4 0.0000 0.0000 0.0000 30.4072 0.0000 0.0000
# 5 0.0000 0.0000 0.0000 0.0000 30.4072 0.0000
# 6 0.0000 0.0000 0.0000 0.0000 0.0000 29.8187
#
#
#
# Elastic Compliance Matrix: (Units=1/GPa)
#
#
# Indices 1 2 3 4 5 6 
#
# 1 0.050955 -0.037940 -0.004135 0.000000 0.000000 0.000000
# 2 -0.037940 0.050955 -0.004135 0.000000 0.000000 0.000000
# 3 -0.004135 -0.004135 0.009653 0.000000 0.000000 0.000000
# 4 0.000000 0.000000 0.000000 0.032887 0.000000 0.000000
# 5 0.000000 0.000000 0.000000 0.000000 0.032887 0.000000
# 6 0.000000 0.000000 0.000000 0.000000 0.000000 0.033536
#
#
# Mechanical properties :
#
#
# Convention : Reuss Voigt Hill
#
# Bulk Modulus (GPa) = 52.24082 59.37669 55.80875
# Shear Modulus (GPa) = 16.14599 26.22989 21.18794
#
# Velocity S-wave (km/s) = 2.99350 3.81544 3.42918
# Velocity P-wave (km/s) = 6.39857 7.23631 6.83030
#
# Compressibility (1/GPa) = 0.01914212
#
# Stress axis : x y z
#
# Youngs Moduli (GPa) = 19.62522 19.62522 103.59232
#
# Poissons Ratio (x) = 0.74458 0.42838
# Poissons Ratio (y) = 0.74458 0.42838
# Poissons Ratio (z) = 0.08115 0.08115
#
# Static dielectric constant tensor:
#      x y z
#    x 3.055640 0.000000 0.000000 
#    y 0.000000 3.055640 0.000000 
#    z 0.000000 0.000000 3.677770 
# 
# 
# High freq. dielectric constant tensor:
#      x y z
#    x 1.671610 0.000000 0.000000 
#    y 0.000000 1.671610 0.000000 
#    z 0.000000 0.000000 1.720540 
# 
# From -- ./inp_files/4924.got.cif
#   From: 2010.03.12/outbox.cif.g09.slc.cpg/sg128_3_cif.got.tgz:4924.got - 2010.04.06 17:11:05.
