data_PCOD8314404
_publ_section_title
;
Structure prediction by ZEFSAII (Michael W. Deem and Ramdas Pophale) SiO2 
 PCOD8314404
Probable space group: P 4/M B M
;
_chemical_formula_sum "Si O2"
_cell_formula_units_Z 96
_cell_length_a 14.209827
_cell_length_b 14.209827
_cell_length_c 25.390123
_cell_angle_alpha 90.000000
_cell_angle_beta 90.000000
_cell_angle_gamma 90.000000
_cell_volume 5126.752902
_symmetry_space_group_name_H-M "P 4/M B M"
_symmetry_group_IT_number 127
_symmetry_cell_setting 'tetragonal'
loop_
_space_group_symop_operation_xyz
x,y,z
-y,x,z
-x,-y,z
y,-x,z
1/2+x,1/2-y,-z
1/2-x,1/2+y,-z
1/2+y,1/2+x,-z
1/2-y,1/2-x,-z
-x,-y,-z
y,-x,-z
x,y,-z
-y,x,-z
1/2-x,1/2+y,z
1/2+x,1/2-y,z
1/2-y,1/2-x,z
1/2+y,1/2+x,z
loop_
_atom_site_type_symbol
_atom_site_label
_atom_site_fract_x
_atom_site_fract_y
_atom_site_fract_z
Si Si1 0.714656 0.366322 0.659454
Si Si2 0.922205 0.577796 0.440226
Si Si3 0.997859 0.652202 0.938290
Si Si4 0.846112 0.981447 0.877212
Si Si5 0.646906 0.456027 0.757745
Si Si6 0.634541 0.574292 0.500000
Si Si7 0.554456 0.271004 0.605459
O O1 0.812542 0.312542 0.648328
O O2 0.724285 0.414695 0.717465
O O3 0.627958 0.293065 0.652727
O O4 0.690421 0.451078 0.619181
O O5 0.892566 0.607435 0.500000
O O6 0.962198 0.662047 0.405339
O O7 0.000000 0.500000 0.444275
O O8 0.085091 0.585091 0.924697
O O9 0.017452 0.751564 0.910884
O O10 0.900722 0.599279 0.920180
O O11 0.992151 0.671973 0.000000
O O12 0.815019 0.960350 0.817273
O O13 0.919372 0.897347 0.889595
O O14 0.614405 0.561172 0.746456
O O15 0.537273 0.627287 0.500000
O O16 0.687855 0.602771 0.552938
#
# Coordination Sequence:
#
# PCOD8314404 Si02
#       7
#    16   8  16  16  16   8  16
#     4  12  24  37  60  86 112 146 189 240 292 346
#     4  11  24  42  60  78 118 163 185 219 290 368
#     4   9  19  36  57  83 119 165 211 249 290 347
#     4   9  19  35  57  88 120 152 193 250 304 350
#     4   9  18  36  60  82 108 143 186 233 286 347
#     4  11  22  35  56  87 113 134 176 237 293 344
#     4  12  23  39  59  87 112 142 189 235 286 350
#
# _framework density 18.725303
#
# number of rings (size 3 to 8) (size 9 to 14) (size 15 to 20)
#    0.000    1.667    5.000    2.000    0.000    2.333 
#    0.000    5.833    1.833    0.000    0.000    0.000 
#    0.000    0.000    0.000    0.000    0.000    0.000 
#
# Total GULP energy -1189295.404856 kJ/mol
# GULP energy per Si atom -12388.493801 kJ/mol
# Density = 1.868268 g / cm^3
# Si number density = 18.725303 Si / 1000 Ang^3
#
#
#
# Elastic Constant Matrix: (Units=GPa)
#
#
# Indices 1 2 3 4 5 6 
#
# 1 95.1396 24.9773 44.2748 0.0000 0.0000 0.0000
# 2 24.9773 95.1394 44.2748 0.0000 0.0000 0.0000
# 3 44.2748 44.2748 88.0459 0.0000 0.0000 0.0000
# 4 0.0000 0.0000 0.0000 30.2742 0.0000 0.0000
# 5 0.0000 0.0000 0.0000 0.0000 30.2742 0.0000
# 6 0.0000 0.0000 0.0000 0.0000 0.0000 27.5382
#
#
#
# Elastic Compliance Matrix: (Units=1/GPa)
#
#
# Indices 1 2 3 4 5 6 
#
# 1 0.013741 -0.000512 -0.006653 0.000000 0.000000 0.000000
# 2 -0.000512 0.013741 -0.006653 0.000000 0.000000 0.000000
# 3 -0.006653 -0.006653 0.018048 0.000000 0.000000 0.000000
# 4 0.000000 0.000000 0.000000 0.033031 0.000000 0.000000
# 5 0.000000 0.000000 0.000000 0.000000 0.033031 0.000000
# 6 0.000000 0.000000 0.000000 0.000000 0.000000 0.036313
#
#
# Mechanical properties :
#
#
# Convention : Reuss Voigt Hill
#
# Bulk Modulus (GPa) = 55.87529 56.15316 56.01423
# Shear Modulus (GPa) = 27.54732 28.60384 28.07558
#
# Velocity S-wave (km/s) = 3.83969 3.91263 3.87633
# Velocity P-wave (km/s) = 7.04002 7.10384 7.07200
#
# Compressibility (1/GPa) = 0.01789700
#
# Stress axis : x y z
#
# Youngs Moduli (GPa) = 72.77454 72.77435 55.40673
#
# Poissons Ratio (x) = 0.03723 0.36860
# Poissons Ratio (y) = 0.03723 0.36860
# Poissons Ratio (z) = 0.48414 0.48414
#
# Static dielectric constant tensor:
#      x y z
#    x 3.277810 0.000000 0.000000 
#    y 0.000000 3.277810 0.000000 
#    z 0.000000 0.000000 3.419860 
# 
# 
# High freq. dielectric constant tensor:
#      x y z
#    x 1.719430 0.000000 0.000000 
#    y 0.000000 1.719430 0.000000 
#    z 0.000000 0.000000 1.722690 
# 
# From -- ./inp_files/6361.got.cif
#   From: 2010.03.12/outbox.cif.g09.slc.cpg/sg127_4_cif.got.tgz:6361.got - 2010.04.06 17:03:15.
