data_PCOD8314056
_publ_section_title
;
Structure prediction by ZEFSAII (Michael W. Deem and Ramdas Pophale) SiO2 
 PCOD8314056
Probable space group: P 4/M B M
;
_chemical_formula_sum "Si O2"
_cell_formula_units_Z 96
_cell_length_a 23.981691
_cell_length_b 23.981691
_cell_length_c 8.986967
_cell_angle_alpha 90.000000
_cell_angle_beta 90.000000
_cell_angle_gamma 90.000000
_cell_volume 5168.597970
_symmetry_space_group_name_H-M "P 4/M B M"
_symmetry_group_IT_number 127
_symmetry_cell_setting 'tetragonal'
loop_
_space_group_symop_operation_xyz
x,y,z
-y,x,z
-x,-y,z
y,-x,z
1/2+x,1/2-y,-z
1/2-x,1/2+y,-z
1/2+y,1/2+x,-z
1/2-y,1/2-x,-z
-x,-y,-z
y,-x,-z
x,y,-z
-y,x,-z
1/2-x,1/2+y,z
1/2+x,1/2-y,z
1/2-y,1/2-x,z
1/2+y,1/2+x,z
loop_
_atom_site_type_symbol
_atom_site_label
_atom_site_fract_x
_atom_site_fract_y
_atom_site_fract_z
Si Si1 0.724392 0.314817 0.325713
Si Si2 0.856625 0.734253 0.829035
Si Si3 0.000578 0.587927 0.177103
Si Si4 0.929243 0.202011 0.176932
Si Si5 0.979860 0.710104 0.176770
Si Si6 0.966196 0.081651 0.176843
O O1 0.719013 0.324470 0.500000
O O2 0.779797 0.279797 0.284616
O O3 0.670009 0.282427 0.269995
O O4 0.727781 0.373504 0.244038
O O5 0.823514 0.676487 0.813475
O O6 0.918260 0.724493 0.765513
O O7 0.857197 0.754792 0.000000
O O8 0.946633 0.553368 0.233082
O O9 0.998890 0.650355 0.243553
O O10 0.056975 0.556975 0.232188
O O11 0.999847 0.589860 0.000000
O O12 0.941770 0.139764 0.239376
O O13 0.978871 0.241831 0.232325
O O14 0.923892 0.201748 0.000000
O O15 0.979082 0.706520 0.000000
O O16 0.030047 0.072197 0.232184
O O17 0.966606 0.083767 0.000000
#
# Coordination Sequence:
#
# PCOD8314056 Si02
#       6
#    16  16  16  16  16  16
#     4  10  22  39  54  69  97 137 175 211 255 305
#     4   9  17  31  54  80 104 132 168 212 255 295
#     4   8  13  22  37  59  94 138 170 193 235 295
#     4  10  20  31  51  79 103 131 166 209 254 301
#     4   9  17  27  43  74 107 130 159 205 253 294
#     4   8  15  28  47  72 101 132 163 198 245 301
#
# _framework density 18.573702000000001
#
# number of rings (size 3 to 8) (size 9 to 14) (size 15 to 20)
#    0.000    3.000    0.000    2.000    2.333    3.667 
#    0.000    2.500    0.000    0.000    0.000    1.167 
#    0.000    0.000    0.000   11.500    0.000   10.333 
#
# Total GULP energy -1190112.930800 kJ/mol
# GULP energy per Si atom -12397.009696 kJ/mol
# Density = 1.853143 g / cm^3
# Si number density = 18.573702 Si / 1000 Ang^3
#
#
#
# Elastic Constant Matrix: (Units=GPa)
#
#
# Indices 1 2 3 4 5 6 
#
# 1 139.0558 70.5247 26.8873 0.0000 0.0000 0.0000
# 2 70.5247 139.0558 26.8873 0.0000 0.0000 0.0000
# 3 26.8873 26.8873 20.9399 0.0000 0.0000 0.0000
# 4 0.0000 0.0000 0.0000 8.2452 0.0000 0.0000
# 5 0.0000 0.0000 0.0000 0.0000 8.2452 0.0000
# 6 0.0000 0.0000 0.0000 0.0000 0.0000 22.3686
#
#
#
# Elastic Compliance Matrix: (Units=1/GPa)
#
#
# Indices 1 2 3 4 5 6 
#
# 1 0.010854 -0.003738 -0.009137 0.000000 0.000000 0.000000
# 2 -0.003738 0.010854 -0.009137 0.000000 0.000000 0.000000
# 3 -0.009137 -0.009137 0.071220 0.000000 0.000000 0.000000
# 4 0.000000 0.000000 0.000000 0.121283 0.000000 0.000000
# 5 0.000000 0.000000 0.000000 0.000000 0.121283 0.000000
# 6 0.000000 0.000000 0.000000 0.000000 0.000000 0.044706
#
#
# Mechanical properties :
#
#
# Convention : Reuss Voigt Hill
#
# Bulk Modulus (GPa) = 20.44830 60.84999 40.64915
# Shear Modulus (GPa) = 11.35012 19.42193 15.38602
#
# Velocity S-wave (km/s) = 2.47470 3.23719 2.88128
# Velocity P-wave (km/s) = 4.38163 6.84142 5.74472
#
# Compressibility (1/GPa) = 0.04890382
#
# Stress axis : x y z
#
# Youngs Moduli (GPa) = 92.13320 92.13320 14.04109
#
# Poissons Ratio (x) = 0.34440 0.12829
# Poissons Ratio (y) = 0.34440 0.12829
# Poissons Ratio (z) = 0.84180 0.84180
#
# Static dielectric constant tensor:
#      x y z
#    x 3.638940 0.000000 0.000000 
#    y 0.000000 3.638940 0.000000 
#    z 0.000000 0.000000 2.813930 
# 
# 
# High freq. dielectric constant tensor:
#      x y z
#    x 1.729920 0.000000 0.000000 
#    y 0.000000 1.729920 0.000000 
#    z 0.000000 0.000000 1.654880 
# 
# From -- ./inp_files/1991.got.cif
#   From: 2010.03.12/outbox.cif.g09.slc.cpg/sg127_1_cif.got.tgz:1991.got - 2010.04.06 17:03:15.
