data_PCOD8314043
_publ_section_title
;
Structure prediction by ZEFSAII (Michael W. Deem and Ramdas Pophale) SiO2 
 PCOD8314043
Probable space group: P 4/M B M
;
_chemical_formula_sum "Si O2"
_cell_formula_units_Z 72
_cell_length_a 18.764072
_cell_length_b 18.764072
_cell_length_c 10.681633
_cell_angle_alpha 90.000000
_cell_angle_beta 90.000000
_cell_angle_gamma 90.000000
_cell_volume 3760.900414
_symmetry_space_group_name_H-M "P 4/M B M"
_symmetry_group_IT_number 127
_symmetry_cell_setting 'tetragonal'
loop_
_space_group_symop_operation_xyz
x,y,z
-y,x,z
-x,-y,z
y,-x,z
1/2+x,1/2-y,-z
1/2-x,1/2+y,-z
1/2+y,1/2+x,-z
1/2-y,1/2-x,-z
-x,-y,-z
y,-x,-z
x,y,-z
-y,x,-z
1/2-x,1/2+y,z
1/2+x,1/2-y,z
1/2-y,1/2-x,z
1/2+y,1/2+x,z
loop_
_atom_site_type_symbol
_atom_site_label
_atom_site_fract_x
_atom_site_fract_y
_atom_site_fract_z
Si Si1 0.101692 0.601692 0.358332
Si Si2 0.313646 0.186355 0.146482
Si Si3 0.687176 0.537280 0.250687
Si Si4 0.049480 0.335926 0.642180
Si Si5 0.333170 0.614953 0.140445
Si Si6 0.608730 0.543604 0.500000
O O1 0.126273 0.626273 0.500000
O O2 0.141641 0.641641 0.246461
O O3 0.113305 0.518124 0.341777
O O4 0.330783 0.269146 0.175537
O O5 0.332163 0.167838 0.000000
O O6 0.772157 0.543729 0.258650
O O7 0.665950 0.455772 0.224928
O O8 0.656797 0.591975 0.148129
O O9 0.654069 0.563963 0.379879
O O10 0.052859 0.306426 0.500000
O O11 0.119783 0.380217 0.675349
O O12 0.323039 0.587403 0.000000
O O13 0.539338 0.591682 0.500000
#
# Coordination Sequence:
#
# PCOD8314043 Si02
#       6
#     8   8  16  16  16   8
#     4  10  19  38  66  92 122 162 205 247 301 364
#     4  10  22  43  63  87 124 161 201 254 308 360
#     4  12  22  39  63  87 123 158 202 247 299 362
#     4  10  21  36  59  93 127 158 195 246 305 364
#     4  11  25  42  62  86 119 162 207 249 297 357
#     4  11  22  38  57  87 124 159 192 250 308 351
#
# _framework density 19.144349999999999
#
# number of rings (size 3 to 8) (size 9 to 14) (size 15 to 20)
#    0.000    1.222    5.556    1.000    1.556    1.778 
#    2.000    1.111    0.000    4.000    0.000    0.000 
#    0.000    0.000    0.000    0.000    0.000    0.000 
#
# Total GULP energy -892774.113540 kJ/mol
# GULP energy per Si atom -12399.640466 kJ/mol
# Density = 1.910078 g / cm^3
# Si number density = 19.144350 Si / 1000 Ang^3
#
#
#
# Elastic Constant Matrix: (Units=GPa)
#
#
# Indices 1 2 3 4 5 6 
#
# 1 115.0054 25.0035 16.0705 0.0000 0.0000 0.0000
# 2 25.0035 115.0054 16.0704 0.0000 0.0000 0.0000
# 3 16.0705 16.0704 56.5017 0.0000 0.0000 0.0000
# 4 0.0000 0.0000 0.0000 24.0296 0.0000 0.0000
# 5 0.0000 0.0000 0.0000 0.0000 24.0296 0.0000
# 6 0.0000 0.0000 0.0000 0.0000 0.0000 -26.7551
#
#
#
# Elastic Compliance Matrix: (Units=1/GPa)
#
#
# Indices 1 2 3 4 5 6 
#
# 1 0.009376 -0.001735 -0.002173 0.000000 0.000000 0.000000
# 2 -0.001735 0.009376 -0.002173 0.000000 0.000000 0.000000
# 3 -0.002173 -0.002173 0.018935 0.000000 0.000000 0.000000
# 4 0.000000 0.000000 0.000000 0.041615 0.000000 0.000000
# 5 0.000000 0.000000 0.000000 0.000000 0.041615 0.000000
# 6 0.000000 0.000000 0.000000 0.000000 0.000000 -0.037376
#
#
# Mechanical properties :
#
#
# Convention : Reuss Voigt Hill
#
# Bulk Modulus (GPa) = 39.17871 44.53346 41.85608
# Shear Modulus (GPa) = 47.97878 19.55204 33.76541
#
# Velocity S-wave (km/s) = 5.01159 3.19924 4.20423
# Velocity P-wave (km/s) = 7.34829 6.07941 6.74376
#
# Compressibility (1/GPa) = 0.02552407
#
# Stress axis : x y z
#
# Youngs Moduli (GPa) = 106.65405 106.65413 52.81249
#
# Poissons Ratio (x) = 0.18502 0.11478
# Poissons Ratio (y) = 0.18502 0.11478
# Poissons Ratio (z) = 0.23180 0.23180
#
# Static dielectric constant tensor:
#      x y z
#    x 3.445150 0.000000 0.000000 
#    y 0.000000 3.445150 0.000000 
#    z 0.000000 0.000000 3.444620 
# 
# 
# High freq. dielectric constant tensor:
#      x y z
#    x 1.747110 0.000000 0.000000 
#    y 0.000000 1.747110 0.000000 
#    z 0.000000 0.000000 1.739120 
# 
# From -- ./inp_files/1623.got.cif
#   From: 2010.03.12/outbox.cif.g09.slc.cpg/sg127_1_cif.got.tgz:1623.got - 2010.04.06 17:03:15.
