data_PCOD8314691
_publ_section_title
;
Structure prediction by ZEFSAII (Michael W. Deem and Ramdas Pophale) SiO2 
 PCOD8314691
Probable space group: P 4/M N C
;
_chemical_formula_sum "Si O2"
_cell_formula_units_Z 80
_cell_length_a 10.775295
_cell_length_b 10.775295
_cell_length_c 37.243228
_cell_angle_alpha 90.000000
_cell_angle_beta 90.000000
_cell_angle_gamma 90.000000
_cell_volume 4324.198816
_symmetry_space_group_name_H-M "P 4/M N C"
_symmetry_group_IT_number 128
_symmetry_cell_setting 'tetragonal'
loop_
_space_group_symop_operation_xyz
x,y,z
-y,x,z
-x,-y,z
y,-x,z
1/2+x,1/2-y,1/2-z
1/2-x,1/2+y,1/2-z
1/2+y,1/2+x,1/2-z
1/2-y,1/2-x,1/2-z
-x,-y,-z
y,-x,-z
x,y,-z
-y,x,-z
1/2-x,1/2+y,1/2+z
1/2+x,1/2-y,1/2+z
1/2-y,1/2-x,1/2+z
1/2+y,1/2+x,1/2+z
loop_
_atom_site_type_symbol
_atom_site_label
_atom_site_fract_x
_atom_site_fract_y
_atom_site_fract_z
Si Si1 0.804069 0.054788 0.039863
Si Si2 0.777483 0.732210 0.792201
Si Si3 0.621710 0.069477 0.895702
Si Si4 0.023182 0.648934 0.179208
Si Si5 0.573582 0.312379 0.851982
O O1 0.706572 0.086088 0.070112
O O2 0.915483 0.150201 0.044849
O O3 0.745904 0.071281 0.000000
O O4 0.761971 0.738030 0.750000
O O5 0.924747 0.736514 0.800012
O O6 0.732479 0.603527 0.811095
O O7 0.695277 0.842473 0.808765
O O8 0.677869 0.986671 0.863283
O O9 0.602768 0.207203 0.880645
O O10 0.500000 0.000000 0.909825
O O11 0.000000 0.500000 0.186002
O O12 0.658893 0.430864 0.858323
#
# Coordination Sequence:
#
# PCOD8314691 Si02
#       5
#    16  16  16  16  16
#     4   9  20  37  59  89 122 156 190 234 298 359
#     4  11  24  37  61  83 116 159 202 250 310 363
#     4  10  21  36  63  88 118 150 199 248 290 349
#     4  10  24  41  58  86 120 156 202 255 308 354
#     4  10  22  40  60  84 118 159 203 242 299 364
#
# _framework density 18.500537000000001
#
# number of rings (size 3 to 8) (size 9 to 14) (size 15 to 20)
#    0.000    2.000    0.000    4.200   14.000    0.800 
#    0.000    0.000    0.000    0.000    0.000    1.400 
#    0.000    0.000    0.000    0.000    0.000    0.000 
#
# Total GULP energy -991332.420143 kJ/mol
# GULP energy per Si atom -12391.655252 kJ/mol
# Density = 1.845843 g / cm^3
# Si number density = 18.500537 Si / 1000 Ang^3
#
#
#
# Elastic Constant Matrix: (Units=GPa)
#
#
# Indices 1 2 3 4 5 6 
#
# 1 89.8057 56.5352 59.0216 0.0000 0.0000 0.0000
# 2 56.5352 89.8058 59.0217 0.0000 0.0000 0.0000
# 3 59.0216 59.0217 141.5304 0.0000 0.0000 0.0000
# 4 0.0000 0.0000 0.0000 19.1766 0.0000 0.0000
# 5 0.0000 0.0000 0.0000 0.0000 19.1767 0.0000
# 6 0.0000 0.0000 0.0000 0.0000 0.0000 33.0595
#
#
#
# Elastic Compliance Matrix: (Units=1/GPa)
#
#
# Indices 1 2 3 4 5 6 
#
# 1 0.020177 -0.009880 -0.004294 0.000000 0.000000 0.000000
# 2 -0.009880 0.020177 -0.004294 0.000000 0.000000 0.000000
# 3 -0.004294 -0.004294 0.010647 0.000000 0.000000 0.000000
# 4 0.000000 0.000000 0.000000 0.052147 0.000000 0.000000
# 5 0.000000 0.000000 0.000000 0.000000 0.052146 0.000000
# 6 0.000000 0.000000 0.000000 0.000000 0.000000 0.030248
#
#
# Mechanical properties :
#
#
# Convention : Reuss Voigt Hill
#
# Bulk Modulus (GPa) = 71.09935 74.47766 72.78851
# Shear Modulus (GPa) = 22.01021 24.05346 23.03184
#
# Velocity S-wave (km/s) = 3.45295 3.60967 3.53218
# Velocity P-wave (km/s) = 7.37642 7.59720 7.48762
#
# Compressibility (1/GPa) = 0.01406483
#
# Stress axis : x y z
#
# Youngs Moduli (GPa) = 49.56156 49.56163 93.92168
#
# Poissons Ratio (x) = 0.48966 0.40332
# Poissons Ratio (y) = 0.48966 0.40332
# Poissons Ratio (z) = 0.21283 0.21283
#
# Static dielectric constant tensor:
#      x y z
#    x 3.537350 0.000000 0.000000 
#    y 0.000000 3.537350 0.000000 
#    z 0.000000 0.000000 3.359370 
# 
# 
# High freq. dielectric constant tensor:
#      x y z
#    x 1.721670 0.000000 0.000000 
#    y 0.000000 1.721670 0.000000 
#    z 0.000000 0.000000 1.709990 
# 
# From -- ./inp_files/7195.got.cif
#   From: 2010.03.12/outbox.cif.g09.slc.cpg/sg128_4_cif.got.tgz:7195.got - 2010.04.06 17:11:05.
