data_PCOD8314212
_publ_section_title
;
Structure prediction by ZEFSAII (Michael W. Deem and Ramdas Pophale) SiO2 
 PCOD8314212
Probable space group: P 4/M B M
;
_chemical_formula_sum "Si O2"
_cell_formula_units_Z 112
_cell_length_a 15.605188
_cell_length_b 15.605188
_cell_length_c 23.925285
_cell_angle_alpha 90.000000
_cell_angle_beta 90.000000
_cell_angle_gamma 90.000000
_cell_volume 5826.330682
_symmetry_space_group_name_H-M "P 4/M B M"
_symmetry_group_IT_number 127
_symmetry_cell_setting 'tetragonal'
loop_
_space_group_symop_operation_xyz
x,y,z
-y,x,z
-x,-y,z
y,-x,z
1/2+x,1/2-y,-z
1/2-x,1/2+y,-z
1/2+y,1/2+x,-z
1/2-y,1/2-x,-z
-x,-y,-z
y,-x,-z
x,y,-z
-y,x,-z
1/2-x,1/2+y,z
1/2+x,1/2-y,z
1/2-y,1/2-x,z
1/2+y,1/2+x,z
loop_
_atom_site_type_symbol
_atom_site_label
_atom_site_fract_x
_atom_site_fract_y
_atom_site_fract_z
Si Si1 0.093835 0.897072 0.632815
Si Si2 0.995414 0.361415 0.767530
Si Si3 0.495524 0.861078 0.355870
Si Si4 0.103557 0.905943 0.239844
Si Si5 0.100210 0.743562 0.563072
Si Si6 0.747796 0.609109 0.159837
Si Si7 0.369780 0.449746 0.935453
O O1 0.121189 0.879101 0.696498
O O2 0.139400 0.829345 0.591734
O O3 0.993746 0.881604 0.619928
O O4 0.901608 0.401608 0.782468
O O5 0.995974 0.317601 0.705786
O O6 0.061654 0.438347 0.763960
O O7 0.025185 0.293044 0.813452
O O8 0.562197 0.937804 0.359355
O O9 0.517368 0.790051 0.402355
O O10 0.400178 0.900178 0.366377
O O11 0.170890 0.857107 0.200015
O O12 0.006212 0.881660 0.226363
O O13 0.070377 0.762988 0.500000
O O14 0.174489 0.674489 0.564106
O O15 0.813862 0.686139 0.151239
O O16 0.711208 0.581457 0.100027
O O17 0.451924 0.391410 0.921118
O O18 0.344496 0.440155 0.000000
#
# Coordination Sequence:
#
# PCOD8314212 Si02
#       7
#    16  16  16  16  16  16  16
#     4   9  20  38  58  75  95 135 183 220 262 322
#     4   8  16  31  49  73 110 153 186 210 252 325
#     4   8  15  30  51  73 102 143 182 216 263 326
#     4   9  19  36  55  75 104 139 179 225 269 318
#     4  10  21  35  53  79 107 134 171 227 286 333
#     4  11  21  31  53  89 120 145 176 222 276 321
#     4   9  19  39  64  82 103 147 197 230 263 311
#
# _framework density 19.223075000000001
#
# number of rings (size 3 to 8) (size 9 to 14) (size 15 to 20)
#    0.000    2.857    0.000    3.000    4.000    2.857 
#    0.000    5.714    0.000    1.286    0.000    2.000 
#    0.000    0.000    0.000    0.000    0.000    0.000 
#
# Total GULP energy -1388125.345190 kJ/mol
# GULP energy per Si atom -12393.976296 kJ/mol
# Density = 1.917932 g / cm^3
# Si number density = 19.223075 Si / 1000 Ang^3
#
#
#
# Elastic Constant Matrix: (Units=GPa)
#
#
# Indices 1 2 3 4 5 6 
#
# 1 78.9897 23.0670 58.1689 0.0000 0.0000 0.0000
# 2 23.0670 78.9897 58.1689 0.0000 0.0000 0.0000
# 3 58.1689 58.1689 137.7628 0.0000 0.0000 0.0000
# 4 0.0000 0.0000 0.0000 31.8359 0.0000 0.0000
# 5 0.0000 0.0000 0.0000 0.0000 31.8359 0.0000
# 6 0.0000 0.0000 0.0000 0.0000 0.0000 12.7318
#
#
#
# Elastic Compliance Matrix: (Units=1/GPa)
#
#
# Indices 1 2 3 4 5 6 
#
# 1 0.018387 0.000505 -0.007977 0.000000 0.000000 0.000000
# 2 0.000505 0.018387 -0.007977 0.000000 0.000000 0.000000
# 3 -0.007977 -0.007977 0.013995 0.000000 0.000000 0.000000
# 4 0.000000 0.000000 0.000000 0.031411 0.000000 0.000000
# 5 0.000000 0.000000 0.000000 0.000000 0.031411 0.000000
# 6 0.000000 0.000000 0.000000 0.000000 0.000000 0.078544
#
#
# Mechanical properties :
#
#
# Convention : Reuss Voigt Hill
#
# Bulk Modulus (GPa) = 50.32464 63.83909 57.08187
# Shear Modulus (GPa) = 21.77181 25.70321 23.73751
#
# Velocity S-wave (km/s) = 3.36904 3.66061 3.51785
# Velocity P-wave (km/s) = 6.43196 7.15181 6.80142
#
# Compressibility (1/GPa) = 0.01987098
#
# Stress axis : x y z
#
# Youngs Moduli (GPa) = 54.38748 54.38748 71.45424
#
# Poissons Ratio (x) = -0.02745 0.56997
# Poissons Ratio (y) = -0.02745 0.56997
# Poissons Ratio (z) = 0.43383 0.43383
#
# Static dielectric constant tensor:
#      x y z
#    x 3.490150 0.000000 0.000000 
#    y 0.000000 3.490150 0.000000 
#    z 0.000000 0.000000 3.523280 
# 
# 
# High freq. dielectric constant tensor:
#      x y z
#    x 1.735190 0.000000 0.000000 
#    y 0.000000 1.735190 0.000000 
#    z 0.000000 0.000000 1.739840 
# 
# From -- ./inp_files/6185.got.cif
#   From: 2010.03.12/outbox.cif.g09.slc.cpg/sg127_4_cif.got.tgz:6185.got - 2010.04.06 17:03:15.
