data_PCOD8314108
_publ_section_title
;
Structure prediction by ZEFSAII (Michael W. Deem and Ramdas Pophale) SiO2 
 PCOD8314108
Probable space group: P 4/M B M
;
_chemical_formula_sum "Si O2"
_cell_formula_units_Z 80
_cell_length_a 17.775120
_cell_length_b 17.775120
_cell_length_c 14.393465
_cell_angle_alpha 90.000000
_cell_angle_beta 90.000000
_cell_angle_gamma 90.000000
_cell_volume 4547.685665
_symmetry_space_group_name_H-M "P 4/M B M"
_symmetry_group_IT_number 127
_symmetry_cell_setting 'tetragonal'
loop_
_space_group_symop_operation_xyz
x,y,z
-y,x,z
-x,-y,z
y,-x,z
1/2+x,1/2-y,-z
1/2-x,1/2+y,-z
1/2+y,1/2+x,-z
1/2-y,1/2-x,-z
-x,-y,-z
y,-x,-z
x,y,-z
-y,x,-z
1/2-x,1/2+y,z
1/2+x,1/2-y,z
1/2-y,1/2-x,z
1/2+y,1/2+x,z
loop_
_atom_site_type_symbol
_atom_site_label
_atom_site_fract_x
_atom_site_fract_y
_atom_site_fract_z
Si Si1 0.297605 0.075330 0.216455
Si Si2 0.698314 0.685099 0.797465
Si Si3 0.299150 0.923522 0.109190
Si Si4 0.135949 0.176684 0.602273
Si Si5 0.275940 0.530355 0.602355
O O1 0.365814 0.134187 0.210994
O O2 0.217734 0.114108 0.185475
O O3 0.289252 0.047513 0.322814
O O4 0.316170 0.005572 0.150324
O O5 0.753969 0.746032 0.841428
O O6 0.719118 0.607158 0.849627
O O7 0.716411 0.679542 0.686884
O O8 0.368208 0.868208 0.136402
O O9 0.290565 0.931508 0.000000
O O10 0.157877 0.210410 0.500000
O O11 0.155666 0.088904 0.605986
O O12 0.048385 0.184774 0.622904
O O13 0.237484 0.531446 0.500000
#
# Coordination Sequence:
#
# PCOD8314108 Si02
#       5
#    16  16  16  16  16
#     4  10  20  34  54  78 104 135 171 212 256 306
#     4   9  18  33  52  75 101 131 170 211 253 299
#     4  10  21  37  56  77 102 132 169 216 263 305
#     4   9  16  27  46  72 102 132 165 205 248 299
#     4   9  17  29  47  74 104 135 169 205 249 300
#
# _framework density 17.591365
#
# number of rings (size 3 to 8) (size 9 to 14) (size 15 to 20)
#    0.000    2.600    2.000    0.000    0.000    2.800 
#    0.000    9.000    0.000    1.200    0.000    2.800 
#    0.000    0.000    0.000    0.000    0.000    0.000 
#
# Total GULP energy -991059.399430 kJ/mol
# GULP energy per Si atom -12388.242493 kJ/mol
# Density = 1.755133 g / cm^3
# Si number density = 17.591365 Si / 1000 Ang^3
#
#
#
# Elastic Constant Matrix: (Units=GPa)
#
#
# Indices 1 2 3 4 5 6 
#
# 1 78.7287 41.5684 47.9977 0.0000 0.0000 0.0000
# 2 41.5684 78.7287 47.9977 0.0000 0.0000 0.0000
# 3 47.9977 47.9977 106.4430 0.0000 0.0000 0.0000
# 4 0.0000 0.0000 0.0000 25.8800 0.0000 0.0000
# 5 0.0000 0.0000 0.0000 0.0000 25.8800 0.0000
# 6 0.0000 0.0000 0.0000 0.0000 0.0000 18.9085
#
#
#
# Elastic Compliance Matrix: (Units=1/GPa)
#
#
# Indices 1 2 3 4 5 6 
#
# 1 0.019948 -0.006963 -0.005855 0.000000 0.000000 0.000000
# 2 -0.006963 0.019948 -0.005855 0.000000 0.000000 0.000000
# 3 -0.005855 -0.005855 0.014675 0.000000 0.000000 0.000000
# 4 0.000000 0.000000 0.000000 0.038640 0.000000 0.000000
# 5 0.000000 0.000000 0.000000 0.000000 0.038640 0.000000
# 6 0.000000 0.000000 0.000000 0.000000 0.000000 0.052886
#
#
# Mechanical properties :
#
#
# Convention : Reuss Voigt Hill
#
# Bulk Modulus (GPa) = 58.05719 59.89202 58.97460
# Shear Modulus (GPa) = 21.94666 22.55615 22.25141
#
# Velocity S-wave (km/s) = 3.53594 3.58471 3.56041
# Velocity P-wave (km/s) = 7.05304 7.15917 7.10630
#
# Compressibility (1/GPa) = 0.01722440
#
# Stress axis : x y z
#
# Youngs Moduli (GPa) = 50.13068 50.13068 68.14148
#
# Poissons Ratio (x) = 0.34904 0.39899
# Poissons Ratio (y) = 0.34904 0.39899
# Poissons Ratio (z) = 0.29353 0.29353
#
# Static dielectric constant tensor:
#      x y z
#    x 3.180920 0.000000 0.000000 
#    y 0.000000 3.180920 0.000000 
#    z 0.000000 0.000000 3.427150 
# 
# 
# High freq. dielectric constant tensor:
#      x y z
#    x 1.665140 0.000000 0.000000 
#    y 0.000000 1.665140 0.000000 
#    z 0.000000 0.000000 1.687090 
# 
# From -- ./inp_files/4213.got.cif
#   From: 2010.03.12/outbox.cif.g09.slc.cpg/sg127_3_cif.got.tgz:4213.got - 2010.04.06 17:03:15.
