data_PCOD8314803
_publ_section_title
;
Structure prediction by ZEFSAII (Michael W. Deem and Ramdas Pophale) SiO2 
 PCOD8314803
Probable space group: P 4/M N C
;
_chemical_formula_sum "Si O2"
_cell_formula_units_Z 80
_cell_length_a 16.148593
_cell_length_b 16.148593
_cell_length_c 14.812244
_cell_angle_alpha 90.000000
_cell_angle_beta 90.000000
_cell_angle_gamma 90.000000
_cell_volume 3862.693381
_symmetry_space_group_name_H-M "P 4/M N C"
_symmetry_group_IT_number 128
_symmetry_cell_setting 'tetragonal'
loop_
_space_group_symop_operation_xyz
x,y,z
-y,x,z
-x,-y,z
y,-x,z
1/2+x,1/2-y,1/2-z
1/2-x,1/2+y,1/2-z
1/2+y,1/2+x,1/2-z
1/2-y,1/2-x,1/2-z
-x,-y,-z
y,-x,-z
x,y,-z
-y,x,-z
1/2-x,1/2+y,1/2+z
1/2+x,1/2-y,1/2+z
1/2-y,1/2-x,1/2+z
1/2+y,1/2+x,1/2+z
loop_
_atom_site_type_symbol
_atom_site_label
_atom_site_fract_x
_atom_site_fract_y
_atom_site_fract_z
Si Si1 0.598059 0.407554 0.396673
Si Si2 0.845824 0.792276 0.250000
Si Si3 0.430273 0.069727 0.398088
Si Si4 0.901942 0.907553 0.603327
Si Si5 0.480387 0.842209 0.250000
O O1 0.614445 0.503124 0.373913
O O2 0.618124 0.388138 0.500000
O O3 0.658359 0.350355 0.337784
O O4 0.767175 0.732826 0.250000
O O5 0.841642 0.850353 0.337784
O O6 0.932622 0.743839 0.249999
O O7 0.403463 0.096537 0.500000
O O8 0.464914 0.148930 0.341675
O O9 0.500000 0.000000 0.405656
O O10 0.351069 0.035085 0.341676
O O11 0.881878 0.888137 0.500000
O O12 0.996877 0.885555 0.626087
O O13 0.417583 0.917583 0.250000
#
# Coordination Sequence:
#
# PCOD8314803 Si02
#       5
#    16  16  16  16  16
#     4   9  19  38  64  87 106 141 196 245 281 329
#     4  11  21  31  52  88 123 149 173 223 298 355
#     4   8  13  25  44  59  83 132 187 231 258 287
#     4   9  19  38  64  87 106 141 196 245 281 329
#     4   8  16  27  39  66 100 131 177 219 252 314
#
# _framework density 20.710937000000001
#
# number of rings (size 3 to 8) (size 9 to 14) (size 15 to 20)
#    0.000    3.000    0.000    3.600    0.000    4.000 
#    0.000    4.000   17.600    0.000    0.000    0.000 
#    0.000    0.000    0.000    0.000    0.000    0.000 
#
# Total GULP energy -991638.330122 kJ/mol
# GULP energy per Si atom -12395.479127 kJ/mol
# Density = 2.066380 g / cm^3
# Si number density = 20.710937 Si / 1000 Ang^3
#
#
#
# Elastic Constant Matrix: (Units=GPa)
#
#
# Indices 1 2 3 4 5 6 
#
# 1 59.0182 22.1901 43.2001 0.0000 0.0000 0.0000
# 2 22.1901 59.0189 43.2005 0.0000 0.0000 0.0000
# 3 43.2001 43.2005 168.0847 0.0000 0.0000 0.0000
# 4 0.0000 0.0000 0.0000 7.9610 0.0000 0.0000
# 5 0.0000 0.0000 0.0000 0.0000 7.9544 0.0000
# 6 0.0000 0.0000 0.0000 0.0000 0.0000 26.4884
#
#
#
# Elastic Compliance Matrix: (Units=1/GPa)
#
#
# Indices 1 2 3 4 5 6 
#
# 1 0.022051 -0.005102 -0.004356 0.000000 0.000000 0.000000
# 2 -0.005102 0.022051 -0.004356 0.000000 0.000000 0.000000
# 3 -0.004356 -0.004356 0.008189 0.000000 0.000000 0.000000
# 4 0.000000 0.000000 0.000000 0.125613 0.000000 0.000000
# 5 0.000000 0.000000 0.000000 0.000000 0.125716 0.000000
# 6 0.000000 0.000000 0.000000 0.000000 0.000000 0.037752
#
#
# Mechanical properties :
#
#
# Convention : Reuss Voigt Hill
#
# Bulk Modulus (GPa) = 40.54920 55.92258 48.23589
# Shear Modulus (GPa) = 13.25486 20.31616 16.78551
#
# Velocity S-wave (km/s) = 2.53255 3.13539 2.84996
# Velocity P-wave (km/s) = 5.30782 6.33780 5.84554
#
# Compressibility (1/GPa) = 0.02466140
#
# Stress axis : x y z
#
# Youngs Moduli (GPa) = 45.34976 45.35025 122.12231
#
# Poissons Ratio (x) = 0.23139 0.53197
# Poissons Ratio (y) = 0.23138 0.53197
# Poissons Ratio (z) = 0.19754 0.19755
#
# Static dielectric constant tensor:
#      x y z
#    x 3.499260 0.000000 0.000000 
#    y 0.000000 3.499260 0.000000 
#    z 0.000000 0.000000 3.892890 
# 
# 
# High freq. dielectric constant tensor:
#      x y z
#    x 1.788660 0.000000 0.000000 
#    y 0.000000 1.788660 0.000000 
#    z 0.000000 0.000000 1.819840 
# 
# From -- ./inp_files/3731.got.cif
#   From: 2010.03.12/outbox.cif.g09.slc.cpg/sg128_2_cif.got.tgz:3731.got - 2010.04.06 17:11:05.
