data_PCOD8314461
_publ_section_title
;
Structure prediction by ZEFSAII (Michael W. Deem and Ramdas Pophale) SiO2 
 PCOD8314461
Probable space group: P 4/M B M
;
_chemical_formula_sum "Si O2"
_cell_formula_units_Z 112
_cell_length_a 13.776837
_cell_length_b 13.776837
_cell_length_c 35.342364
_cell_angle_alpha 90.000000
_cell_angle_beta 90.000000
_cell_angle_gamma 90.000000
_cell_volume 6708.024431
_symmetry_space_group_name_H-M "P 4/M B M"
_symmetry_group_IT_number 127
_symmetry_cell_setting 'tetragonal'
loop_
_space_group_symop_operation_xyz
x,y,z
-y,x,z
-x,-y,z
y,-x,z
1/2+x,1/2-y,-z
1/2-x,1/2+y,-z
1/2+y,1/2+x,-z
1/2-y,1/2-x,-z
-x,-y,-z
y,-x,-z
x,y,-z
-y,x,-z
1/2-x,1/2+y,z
1/2+x,1/2-y,z
1/2-y,1/2-x,z
1/2+y,1/2+x,z
loop_
_atom_site_type_symbol
_atom_site_label
_atom_site_fract_x
_atom_site_fract_y
_atom_site_fract_z
Si Si1 0.838487 0.000002 0.878059
Si Si2 0.658470 0.499999 0.403157
Si Si3 0.157255 0.500000 0.263998
Si Si4 0.839708 0.000002 0.039890
Si Si5 0.341671 0.500002 0.683280
Si Si6 0.000002 0.657830 0.823613
Si Si7 0.841879 0.500001 0.456577
O O1 0.904549 0.095453 0.873302
O O2 0.784444 0.000002 0.919636
O O3 0.756409 0.000003 0.846768
O O4 0.595373 0.595371 0.411381
O O5 0.694876 0.499998 0.359928
O O6 0.749392 0.499997 0.430274
O O7 0.095411 0.404590 0.273612
O O8 0.251830 0.500003 0.289099
O O9 0.187186 0.500017 0.220216
O O10 0.095390 0.595390 0.273621
O O11 0.905187 0.905189 0.039446
O O12 0.777068 0.000002 0.000000
O O13 0.404630 0.404632 0.691420
O O14 0.095509 0.595509 0.833449
O O15 0.904486 0.595515 0.833440
O O16 0.807616 0.500025 0.500000
O O17 0.904608 0.404608 0.447872
O O18 0.904625 0.595376 0.447858
#
# Coordination Sequence:
#
# PCOD8314461 Si02
#       7
#    16  16  16  16  16  16  16
#     4   9  17  28  45  72  98 117 147 192 235 276
#     4   9  19  35  52  72 100 131 161 193 232 281
#     4   9  19  35  52  70  92 120 158 199 234 274
#     4   7  10  19  37  61  89 118 145 178 224 273
#     4   9  19  35  52  72 100 129 155 189 235 283
#     4   9  19  35  50  64  89 126 161 191 228 276
#     4   9  19  35  52  72 100 131 163 201 242 280
#
# _framework density 16.696421999999998
#
# number of rings (size 3 to 8) (size 9 to 14) (size 15 to 20)
#    0.000    3.286    0.000    3.429    0.000    4.571 
#    0.000   10.714    0.000    0.857    0.000    5.000 
#    0.000    0.000    0.000    0.000    0.000    0.000 
#
# Total GULP energy -1387761.496902 kJ/mol
# GULP energy per Si atom -12390.727651 kJ/mol
# Density = 1.665842 g / cm^3
# Si number density = 16.696422 Si / 1000 Ang^3
#
#
#
# Elastic Constant Matrix: (Units=GPa)
#
#
# Indices 1 2 3 4 5 6 
#
# 1 113.2051 43.3751 84.9669 0.0000 0.0000 0.0000
# 2 43.3751 113.2051 84.9669 0.0000 0.0000 0.0000
# 3 84.9669 84.9669 133.8211 0.0000 0.0000 0.0000
# 4 0.0000 0.0000 0.0000 50.3530 0.0000 0.0000
# 5 0.0000 0.0000 0.0000 0.0000 50.3530 0.0000
# 6 0.0000 0.0000 0.0000 0.0000 0.0000 8.6966
#
#
#
# Elastic Compliance Matrix: (Units=1/GPa)
#
#
# Indices 1 2 3 4 5 6 
#
# 1 0.017431 0.003110 -0.013042 0.000000 0.000000 0.000000
# 2 0.003110 0.017431 -0.013042 0.000000 0.000000 0.000000
# 3 -0.013042 -0.013042 0.024034 0.000000 0.000000 0.000000
# 4 0.000000 0.000000 0.000000 0.019860 0.000000 0.000000
# 5 0.000000 0.000000 0.000000 0.000000 0.019860 0.000000
# 6 0.000000 0.000000 0.000000 0.000000 0.000000 0.114988
#
#
# Mechanical properties :
#
#
# Convention : Reuss Voigt Hill
#
# Bulk Modulus (GPa) = 77.23315 87.42769 82.33042
# Shear Modulus (GPa) = 18.94907 31.67534 25.31221
#
# Velocity S-wave (km/s) = 3.37251 4.36033 3.89784
# Velocity P-wave (km/s) = 7.84365 8.82195 8.34714
#
# Compressibility (1/GPa) = 0.01294781
#
# Stress axis : x y z
#
# Youngs Moduli (GPa) = 57.37068 57.37068 41.60792
#
# Poissons Ratio (x) = -0.17842 0.54264
# Poissons Ratio (y) = -0.17842 0.54264
# Poissons Ratio (z) = 0.74822 0.74822
#
# Static dielectric constant tensor:
#      x y z
#    x 2.927370 0.000000 0.000000 
#    y 0.000000 2.927370 0.000000 
#    z 0.000000 0.000000 3.343410 
# 
# 
# High freq. dielectric constant tensor:
#      x y z
#    x 1.626870 0.000000 0.000000 
#    y 0.000000 1.626870 0.000000 
#    z 0.000000 0.000000 1.658980 
# 
# From -- ./inp_files/6657.got.cif
#   From: 2010.03.12/outbox.cif.g09.slc.cpg/sg127_4_cif.got.tgz:6657.got - 2010.04.06 17:03:15.
