data_PCOD8314700
_publ_section_title
;
Structure prediction by ZEFSAII (Michael W. Deem and Ramdas Pophale) SiO2 
 PCOD8314700
Probable space group: P 4/M N C
;
_chemical_formula_sum "Si O2"
_cell_formula_units_Z 96
_cell_length_a 14.697863
_cell_length_b 14.697863
_cell_length_c 22.348358
_cell_angle_alpha 90.000000
_cell_angle_beta 90.000000
_cell_angle_gamma 90.000000
_cell_volume 4827.852684
_symmetry_space_group_name_H-M "P 4/M N C"
_symmetry_group_IT_number 128
_symmetry_cell_setting 'tetragonal'
loop_
_space_group_symop_operation_xyz
x,y,z
-y,x,z
-x,-y,z
y,-x,z
1/2+x,1/2-y,1/2-z
1/2-x,1/2+y,1/2-z
1/2+y,1/2+x,1/2-z
1/2-y,1/2-x,1/2-z
-x,-y,-z
y,-x,-z
x,y,-z
-y,x,-z
1/2-x,1/2+y,1/2+z
1/2+x,1/2-y,1/2+z
1/2-y,1/2-x,1/2+z
1/2+y,1/2+x,1/2+z
loop_
_atom_site_type_symbol
_atom_site_label
_atom_site_fract_x
_atom_site_fract_y
_atom_site_fract_z
Si Si1 0.577139 0.067664 0.068405
Si Si2 0.233546 0.355523 0.143107
Si Si3 0.061350 0.133430 0.734527
Si Si4 0.269119 0.519065 0.567144
Si Si5 0.668120 0.638980 0.360523
Si Si6 0.599645 0.395158 0.929969
O O1 0.582912 0.156212 0.111124
O O2 0.500000 0.000000 0.092343
O O3 0.663895 0.003509 0.071406
O O4 0.559108 0.101020 0.000000
O O5 0.274728 0.403349 0.202229
O O6 0.192542 0.258230 0.159385
O O7 0.318456 0.336924 0.098656
O O8 0.074373 0.141094 0.805571
O O9 0.955942 0.119440 0.716077
O O10 0.295603 0.551122 0.500000
O O11 0.321709 0.425884 0.581986
O O12 0.288531 0.593383 0.618383
O O13 0.626539 0.496295 0.908758
O O14 0.609687 0.389335 0.000000
#
# Coordination Sequence:
#
# PCOD8314700 Si02
#       6
#    16  16  16  16  16  16
#     4   9  20  39  60  87 126 164 198 242 299 362
#     4  11  22  35  59  87 117 155 202 242 295 363
#     4  11  23  41  63  84 114 154 199 251 309 357
#     4  10  21  37  62  90 116 152 197 246 307 373
#     4  11  22  40  58  83 120 149 192 254 305 359
#     4   9  18  33  53  82 119 152 190 246 302 353
#
# _framework density 19.884618
#
# number of rings (size 3 to 8) (size 9 to 14) (size 15 to 20)
#    0.000    1.833    1.667    3.000    0.000    6.333 
#    0.000    4.167    0.000    4.000    0.000    0.000 
#    0.000    0.000    0.000    0.000    0.000    0.000 
#
# Total GULP energy -1189949.099283 kJ/mol
# GULP energy per Si atom -12395.303118 kJ/mol
# Density = 1.983936 g / cm^3
# Si number density = 19.884618 Si / 1000 Ang^3
#
#
#
# Elastic Constant Matrix: (Units=GPa)
#
#
# Indices 1 2 3 4 5 6 
#
# 1 79.8644 29.6761 31.2102 0.0000 0.0000 0.0000
# 2 29.6761 79.8644 31.2102 0.0000 0.0000 0.0000
# 3 31.2102 31.2102 89.5906 0.0000 0.0000 0.0000
# 4 0.0000 0.0000 0.0000 32.1338 0.0000 0.0000
# 5 0.0000 0.0000 0.0000 0.0000 32.1338 0.0000
# 6 0.0000 0.0000 0.0000 0.0000 0.0000 26.1215
#
#
#
# Elastic Compliance Matrix: (Units=1/GPa)
#
#
# Indices 1 2 3 4 5 6 
#
# 1 0.015658 -0.004267 -0.003968 0.000000 0.000000 0.000000
# 2 -0.004267 0.015658 -0.003968 0.000000 0.000000 0.000000
# 3 -0.003968 -0.003968 0.013926 0.000000 0.000000 0.000000
# 4 0.000000 0.000000 0.000000 0.031120 0.000000 0.000000
# 5 0.000000 0.000000 0.000000 0.000000 0.031120 0.000000
# 6 0.000000 0.000000 0.000000 0.000000 0.000000 0.038283
#
#
# Mechanical properties :
#
#
# Convention : Reuss Voigt Hill
#
# Bulk Modulus (GPa) = 47.99612 48.16805 48.08209
# Shear Modulus (GPa) = 28.23017 28.55934 28.39476
#
# Velocity S-wave (km/s) = 3.77198 3.79390 3.78296
# Velocity P-wave (km/s) = 6.56964 6.59302 6.58134
#
# Compressibility (1/GPa) = 0.02083502
#
# Stress axis : x y z
#
# Youngs Moduli (GPa) = 63.86704 63.86704 71.80578
#
# Poissons Ratio (x) = 0.27255 0.28492
# Poissons Ratio (y) = 0.27255 0.28492
# Poissons Ratio (z) = 0.25342 0.25342
#
# Static dielectric constant tensor:
#      x y z
#    x 3.596670 0.000000 0.000000 
#    y 0.000000 3.596670 0.000000 
#    z 0.000000 0.000000 3.615810 
# 
# 
# High freq. dielectric constant tensor:
#      x y z
#    x 1.769740 0.000000 0.000000 
#    y 0.000000 1.769740 0.000000 
#    z 0.000000 0.000000 1.782700 
# 
# From -- ./inp_files/5721.got.cif
#   From: 2010.03.12/outbox.cif.g09.slc.cpg/sg128_3_cif.got.tgz:5721.got - 2010.04.06 17:11:05.
