data_PCOD8314628
_publ_section_title
;
Structure prediction by ZEFSAII (Michael W. Deem and Ramdas Pophale) SiO2 
 PCOD8314628
Probable space group: P 4/M N C
;
_chemical_formula_sum "Si O2"
_cell_formula_units_Z 112
_cell_length_a 15.385326
_cell_length_b 15.385326
_cell_length_c 23.025219
_cell_angle_alpha 90.000000
_cell_angle_beta 90.000000
_cell_angle_gamma 90.000000
_cell_volume 5450.259436
_symmetry_space_group_name_H-M "P 4/M N C"
_symmetry_group_IT_number 128
_symmetry_cell_setting 'tetragonal'
loop_
_space_group_symop_operation_xyz
x,y,z
-y,x,z
-x,-y,z
y,-x,z
1/2+x,1/2-y,1/2-z
1/2-x,1/2+y,1/2-z
1/2+y,1/2+x,1/2-z
1/2-y,1/2-x,1/2-z
-x,-y,-z
y,-x,-z
x,y,-z
-y,x,-z
1/2-x,1/2+y,1/2+z
1/2+x,1/2-y,1/2+z
1/2-y,1/2-x,1/2+z
1/2+y,1/2+x,1/2+z
loop_
_atom_site_type_symbol
_atom_site_label
_atom_site_fract_x
_atom_site_fract_y
_atom_site_fract_z
Si Si1 0.430960 0.826071 0.936448
Si Si2 0.753321 0.106816 0.171987
Si Si3 0.403211 0.989327 0.142805
Si Si4 0.717414 0.688433 0.131915
Si Si5 0.131809 0.945627 0.933292
Si Si6 0.158761 0.625703 0.066909
Si Si7 0.412622 0.614037 0.226440
O O1 0.375345 0.741714 0.920621
O O2 0.531115 0.798272 0.933175
O O3 0.407936 0.904542 0.895598
O O4 0.406117 0.858297 0.000000
O O5 0.709413 0.201087 0.172995
O O6 0.790778 0.085708 0.107977
O O7 0.831515 0.113329 0.217121
O O8 0.677303 0.033767 0.186943
O O9 0.377127 0.068210 0.101258
O O10 0.500000 0.000000 0.172427
O O11 0.685735 0.777825 0.103849
O O12 0.649207 0.635030 0.169737
O O13 0.046365 0.888441 0.920565
O O14 0.161221 0.933041 0.000000
O O15 0.145056 0.658577 0.000000
O O16 0.379639 0.516040 0.227390
#
# Coordination Sequence:
#
# PCOD8314628 Si02
#       7
#    16  16  16  16  16  16  16
#     4   9  18  36  58  83 123 164 195 238 299 369
#     4  11  23  38  62  90 123 160 204 258 313 382
#     4   9  20  37  58  87 125 164 200 239 305 377
#     4  11  23  38  59  88 122 152 202 260 312 362
#     4   9  19  35  55  86 130 172 208 256 318 382
#     4  10  20  34  59  91 123 162 205 245 299 375
#     4  11  25  45  68  86 112 157 209 265 323 377
#
# _framework density 20.549479000000002
#
# number of rings (size 3 to 8) (size 9 to 14) (size 15 to 20)
#    0.000    2.000    0.000    3.429    4.000    6.286 
#    0.000    0.000    0.000    6.857    0.000    6.000 
#    0.000    0.000    0.000    0.000    0.000    0.000 
#
# Total GULP energy -1387993.555380 kJ/mol
# GULP energy per Si atom -12392.799602 kJ/mol
# Density = 2.050271 g / cm^3
# Si number density = 20.549479 Si / 1000 Ang^3
#
#
#
# Elastic Constant Matrix: (Units=GPa)
#
#
# Indices 1 2 3 4 5 6 
#
# 1 78.2405 29.1764 18.4624 0.0000 0.0000 0.0000
# 2 29.1764 78.2405 18.4624 0.0000 0.0000 0.0000
# 3 18.4624 18.4624 28.9659 0.0000 0.0000 0.0000
# 4 0.0000 0.0000 0.0000 19.3134 0.0000 0.0000
# 5 0.0000 0.0000 0.0000 0.0000 19.3134 0.0000
# 6 0.0000 0.0000 0.0000 0.0000 0.0000 33.2156
#
#
#
# Elastic Compliance Matrix: (Units=1/GPa)
#
#
# Indices 1 2 3 4 5 6 
#
# 1 0.016152 -0.004230 -0.007599 0.000000 0.000000 0.000000
# 2 -0.004230 0.016152 -0.007599 0.000000 0.000000 0.000000
# 3 -0.007599 -0.007599 0.044210 0.000000 0.000000 0.000000
# 4 0.000000 0.000000 0.000000 0.051778 0.000000 0.000000
# 5 0.000000 0.000000 0.000000 0.000000 0.051778 0.000000
# 6 0.000000 0.000000 0.000000 0.000000 0.000000 0.030106
#
#
# Mechanical properties :
#
#
# Convention : Reuss Voigt Hill
#
# Bulk Modulus (GPa) = 26.55442 35.29436 30.92439
# Shear Modulus (GPa) = 19.11448 22.32484 20.71966
#
# Velocity S-wave (km/s) = 3.05318 3.29963 3.17879
# Velocity P-wave (km/s) = 5.03780 5.63288 5.34363
#
# Compressibility (1/GPa) = 0.03765852
#
# Stress axis : x y z
#
# Youngs Moduli (GPa) = 61.91366 61.91366 22.61938
#
# Poissons Ratio (x) = 0.26189 0.17188
# Poissons Ratio (y) = 0.26189 0.17188
# Poissons Ratio (z) = 0.47046 0.47046
#
# Static dielectric constant tensor:
#      x y z
#    x 3.993480 0.000000 0.000000 
#    y 0.000000 3.993480 0.000000 
#    z 0.000000 0.000000 3.587410 
# 
# 
# High freq. dielectric constant tensor:
#      x y z
#    x 1.813560 0.000000 0.000000 
#    y 0.000000 1.813560 0.000000 
#    z 0.000000 0.000000 1.784720 
# 
# From -- ./inp_files/6442.got.cif
#   From: 2010.03.12/outbox.cif.g09.slc.cpg/sg128_4_cif.got.tgz:6442.got - 2010.04.06 17:11:05.
