data_PCOD8314118
_publ_section_title
;
Structure prediction by ZEFSAII (Michael W. Deem and Ramdas Pophale) SiO2 
 PCOD8314118
Probable space group: P 4/M B M
;
_chemical_formula_sum "Si O2"
_cell_formula_units_Z 120
_cell_length_a 26.173393
_cell_length_b 26.173393
_cell_length_c 8.835049
_cell_angle_alpha 90.000000
_cell_angle_beta 90.000000
_cell_angle_gamma 90.000000
_cell_volume 6052.419405
_symmetry_space_group_name_H-M "P 4/M B M"
_symmetry_group_IT_number 127
_symmetry_cell_setting 'tetragonal'
loop_
_space_group_symop_operation_xyz
x,y,z
-y,x,z
-x,-y,z
y,-x,z
1/2+x,1/2-y,-z
1/2-x,1/2+y,-z
1/2+y,1/2+x,-z
1/2-y,1/2-x,-z
-x,-y,-z
y,-x,-z
x,y,-z
-y,x,-z
1/2-x,1/2+y,z
1/2+x,1/2-y,z
1/2-y,1/2-x,z
1/2+y,1/2+x,z
loop_
_atom_site_type_symbol
_atom_site_label
_atom_site_fract_x
_atom_site_fract_y
_atom_site_fract_z
Si Si1 0.529683 0.115308 0.827322
Si Si2 0.461826 0.778864 0.320494
Si Si3 0.574608 0.374300 0.170526
Si Si4 0.291700 0.367434 0.323317
Si Si5 0.736427 0.428173 0.323279
Si Si6 0.320516 0.263977 0.173585
Si Si7 0.141346 0.037447 0.170563
Si Si8 0.043008 0.543008 0.670642
O O1 0.574152 0.074152 0.814500
O O2 0.548225 0.164048 0.734727
O O3 0.477499 0.093155 0.755892
O O4 0.518442 0.130250 0.000000
O O5 0.462194 0.775988 0.500000
O O6 0.412781 0.746047 0.260170
O O7 0.518302 0.761389 0.260152
O O8 0.613427 0.348162 0.286087
O O9 0.586926 0.434339 0.169130
O O10 0.518535 0.366819 0.235794
O O11 0.580214 0.351824 0.000000
O O12 0.282672 0.359317 0.500000
O O13 0.288844 0.311464 0.246960
O O14 0.747139 0.422634 0.500000
O O15 0.753359 0.374840 0.246506
O O16 0.676956 0.432461 0.286539
O O17 0.285372 0.214629 0.189615
O O18 0.331055 0.278851 0.000000
O O19 0.164517 0.036775 0.000000
O O20 0.058187 0.558187 0.500000
O O21 0.000000 0.500000 0.671314
#
# Coordination Sequence:
#
# PCOD8314118 Si02
#       8
#    16  16  16  16  16  16  16   8
#     4  10  21  37  59  88 120 154 194 241 292 349
#     4  10  23  40  59  89 123 158 199 247 304 364
#     4  10  20  34  55  84 117 155 196 237 288 349
#     4  11  22  38  61  87 117 154 199 247 298 356
#     4  11  22  39  62  87 118 156 201 249 298 357
#     4  11  25  44  64  89 122 159 204 255 309 370
#     4  10  20  34  56  85 118 158 198 239 292 351
#     4   9  17  33  59  85 113 153 191 225 277 345
#
# _framework density 19.826782000000001
#
# number of rings (size 3 to 8) (size 9 to 14) (size 15 to 20)
#    0.000    1.667    2.667    1.800    0.000    5.600 
#    1.200    4.000    0.000    0.000    0.000    1.867 
#    0.000    0.000    0.000    0.000    0.000    0.000 
#
# Total GULP energy -1487083.296652 kJ/mol
# GULP energy per Si atom -12392.360805 kJ/mol
# Density = 1.978166 g / cm^3
# Si number density = 19.826782 Si / 1000 Ang^3
#
#
#
# Elastic Constant Matrix: (Units=GPa)
#
#
# Indices 1 2 3 4 5 6 
#
# 1 82.2962 15.6544 25.4772 0.0000 0.0000 0.0000
# 2 15.6544 82.2962 25.4772 0.0000 0.0000 0.0000
# 3 25.4772 25.4772 54.8110 0.0000 0.0000 0.0000
# 4 0.0000 0.0000 0.0000 27.6252 0.0000 0.0000
# 5 0.0000 0.0000 0.0000 0.0000 27.6252 0.0000
# 6 0.0000 0.0000 0.0000 0.0000 0.0000 25.1015
#
#
#
# Elastic Compliance Matrix: (Units=1/GPa)
#
#
# Indices 1 2 3 4 5 6 
#
# 1 0.014235 -0.000770 -0.006259 0.000000 0.000000 0.000000
# 2 -0.000770 0.014235 -0.006259 0.000000 0.000000 0.000000
# 3 -0.006259 -0.006259 0.024063 0.000000 0.000000 0.000000
# 4 0.000000 0.000000 0.000000 0.036199 0.000000 0.000000
# 5 0.000000 0.000000 0.000000 0.000000 0.036199 0.000000
# 6 0.000000 0.000000 0.000000 0.000000 0.000000 0.039838
#
#
# Mechanical properties :
#
#
# Convention : Reuss Voigt Hill
#
# Bulk Modulus (GPa) = 38.52402 39.18010 38.85206
# Shear Modulus (GPa) = 25.00025 26.25670 25.62848
#
# Velocity S-wave (km/s) = 3.55481 3.64305 3.59920
# Velocity P-wave (km/s) = 6.02673 6.12371 6.07541
#
# Compressibility (1/GPa) = 0.02595783
#
# Stress axis : x y z
#
# Youngs Moduli (GPa) = 70.24762 70.24762 41.55761
#
# Poissons Ratio (x) = 0.05411 0.26010
# Poissons Ratio (y) = 0.05411 0.26010
# Poissons Ratio (z) = 0.43967 0.43967
#
# Static dielectric constant tensor:
#      x y z
#    x 3.628130 0.000000 0.000000 
#    y 0.000000 3.628130 0.000000 
#    z 0.000000 0.000000 3.605810 
# 
# 
# High freq. dielectric constant tensor:
#      x y z
#    x 1.771010 0.000000 0.000000 
#    y 0.000000 1.771010 0.000000 
#    z 0.000000 0.000000 1.770440 
# 
# From -- ./inp_files/2368.got.cif
#   From: 2010.03.12/outbox.cif.g09.slc.cpg/sg127_2_cif.got.tgz:2368.got - 2010.04.06 17:03:15.
