data_PCOD8314928
_publ_section_title
;
Structure prediction by ZEFSAII (Michael W. Deem and Ramdas Pophale) SiO2 
 PCOD8314928
Probable space group: P 4/N M M
;
_chemical_formula_sum "Si O2"
_cell_formula_units_Z 120
_cell_length_a 18.212046
_cell_length_b 18.212046
_cell_length_c 22.504960
_cell_angle_alpha 90.000000
_cell_angle_beta 90.000000
_cell_angle_gamma 90.000000
_cell_volume 7464.414065
_symmetry_space_group_name_H-M "P 4/N M M"
_symmetry_group_IT_number 129
_symmetry_cell_setting 'tetragonal'
loop_
_space_group_symop_operation_xyz
x,y,z
1/2-y,x,z
1/2-x,1/2-y,z
y,1/2-x,z
1/2+x,-y,-z
-x,1/2+y,-z
1/2+y,1/2+x,-z
-y,-x,-z
-x,-y,-z
1/2+y,-x,-z
1/2+x,1/2+y,-z
-y,1/2+x,-z
1/2-x,y,z
x,1/2-y,z
1/2-y,1/2-x,z
y,x,z
loop_
_atom_site_type_symbol
_atom_site_label
_atom_site_fract_x
_atom_site_fract_y
_atom_site_fract_z
Si Si1 0.451272 0.334340 0.124920
Si Si2 0.472330 0.908599 0.770829
Si Si3 0.164903 0.834480 0.176940
Si Si4 0.903464 0.333200 0.054488
Si Si5 0.165466 0.452900 0.458168
Si Si6 0.033947 0.915253 0.636115
Si Si7 0.670471 0.329530 0.500000
Si Si8 0.533116 0.331472 0.577960
O O1 0.428413 0.250000 0.122692
O O2 0.381014 0.381014 0.105230
O O3 0.476618 0.353620 0.191756
O O4 0.516433 0.353154 0.079469
O O5 0.387820 0.895904 0.792095
O O6 0.473881 0.883680 0.702354
O O7 0.507602 0.992399 0.777538
O O8 0.250000 0.855081 0.194469
O O9 0.147831 0.750000 0.194422
O O10 0.156324 0.843278 0.106163
O O11 0.901307 0.250000 0.030847
O O12 0.887035 0.387035 0.000000
O O13 0.250000 0.432247 0.451200
O O14 0.119961 0.380040 0.443118
O O15 0.148235 0.521137 0.413420
O O16 0.147419 0.476883 0.525678
O O17 0.109122 0.963337 0.630736
O O18 0.969856 0.969856 0.620294
O O19 0.750000 0.338961 0.530566
O O20 0.614598 0.336981 0.553221
O O21 0.515443 0.250000 0.603233
#
# Coordination Sequence:
#
# PCOD8314928 Si02
#       8
#    16  16  16  16  16  16   8  16
#     4   9  18  32  47  65  90 119 153 192 229 263
#     4   9  18  31  46  63  86 118 150 183 222 262
#     4   9  17  29  45  66  94 124 150 183 225 267
#     4   9  16  26  43  68  95 122 151 182 217 263
#     4  10  20  32  46  63  82 106 137 175 217 257
#     4  10  19  31  47  64  84 112 145 178 213 258
#     4   9  16  26  39  58  86 112 129 152 191 238
#     4  10  18  29  46  66  87 110 135 167 206 254
#
# _framework density 16.076280000000001
#
# number of rings (size 3 to 8) (size 9 to 14) (size 15 to 20)
#    0.000    2.600    1.333    2.000    0.000    3.867 
#    0.000    0.000    0.000    1.600    0.000    3.733 
#    0.000    0.267    0.000    2.933    0.000    0.000 
#
# Total GULP energy -1486672.210444 kJ/mol
# GULP energy per Si atom -12388.935087 kJ/mol
# Density = 1.603969 g / cm^3
# Si number density = 16.076280 Si / 1000 Ang^3
#
#
#
# Elastic Constant Matrix: (Units=GPa)
#
#
# Indices 1 2 3 4 5 6 
#
# 1 87.5299 46.3579 35.9410 0.0000 0.0000 0.0000
# 2 46.3579 87.5297 35.9412 0.0000 0.0000 0.0000
# 3 35.9410 35.9412 69.1789 0.0000 0.0000 0.0000
# 4 0.0000 0.0000 0.0000 15.9728 0.0000 0.0000
# 5 0.0000 0.0000 0.0000 0.0000 15.9727 0.0000
# 6 0.0000 0.0000 0.0000 0.0000 0.0000 23.8651
#
#
#
# Elastic Compliance Matrix: (Units=1/GPa)
#
#
# Indices 1 2 3 4 5 6 
#
# 1 0.017323 -0.006965 -0.005381 0.000000 0.000000 0.000000
# 2 -0.006965 0.017323 -0.005382 0.000000 0.000000 0.000000
# 3 -0.005381 -0.005382 0.020047 0.000000 0.000000 0.000000
# 4 0.000000 0.000000 0.000000 0.062606 0.000000 0.000000
# 5 0.000000 0.000000 0.000000 0.000000 0.062607 0.000000
# 6 0.000000 0.000000 0.000000 0.000000 0.000000 0.041902
#
#
# Mechanical properties :
#
#
# Convention : Reuss Voigt Hill
#
# Bulk Modulus (GPa) = 51.98182 53.41321 52.69752
# Shear Modulus (GPa) = 18.96255 19.56202 19.26229
#
# Velocity S-wave (km/s) = 3.43816 3.49209 3.46523
# Velocity P-wave (km/s) = 6.94017 7.03964 6.99008
#
# Compressibility (1/GPa) = 0.01923749
#
# Stress axis : x y z
#
# Youngs Moduli (GPa) = 57.72598 57.72562 49.88269
#
# Poissons Ratio (x) = 0.40206 0.26844
# Poissons Ratio (y) = 0.40207 0.26845
# Poissons Ratio (z) = 0.31065 0.31065
#
# Static dielectric constant tensor:
#      x y z
#    x 3.078880 0.000000 0.000000 
#    y 0.000000 3.078880 0.000000 
#    z 0.000000 0.000000 2.876420 
# 
# 
# High freq. dielectric constant tensor:
#      x y z
#    x 1.612220 0.000000 0.000000 
#    y 0.000000 1.612220 0.000000 
#    z 0.000000 0.000000 1.596980 
# 
# From -- ./inp_files/6805.got.cif
#   From: 2010.03.12/outbox.cif.g09.slc.cpg/sg129_4_cif.got.tgz:6805.got - 2010.04.06 17:19:44.
