data_PCOD8314528
_publ_section_title
;
Structure prediction by ZEFSAII (Michael W. Deem and Ramdas Pophale) SiO2 
 PCOD8314528
Probable space group: P 4/M N C
;
_chemical_formula_sum "Si O2"
_cell_formula_units_Z 112
_cell_length_a 25.035493
_cell_length_b 25.035493
_cell_length_c 10.068902
_cell_angle_alpha 90.000000
_cell_angle_beta 90.000000
_cell_angle_gamma 90.000000
_cell_volume 6310.945211
_symmetry_space_group_name_H-M "P 4/M N C"
_symmetry_group_IT_number 128
_symmetry_cell_setting 'tetragonal'
loop_
_space_group_symop_operation_xyz
x,y,z
-y,x,z
-x,-y,z
y,-x,z
1/2+x,1/2-y,1/2-z
1/2-x,1/2+y,1/2-z
1/2+y,1/2+x,1/2-z
1/2-y,1/2-x,1/2-z
-x,-y,-z
y,-x,-z
x,y,-z
-y,x,-z
1/2-x,1/2+y,1/2+z
1/2+x,1/2-y,1/2+z
1/2-y,1/2-x,1/2+z
1/2+y,1/2+x,1/2+z
loop_
_atom_site_type_symbol
_atom_site_label
_atom_site_fract_x
_atom_site_fract_y
_atom_site_fract_z
Si Si1 0.648920 0.918275 0.344653
Si Si2 0.027084 0.409408 0.649368
Si Si3 0.049359 0.764773 0.652894
Si Si4 0.393649 0.368056 0.152499
Si Si5 0.038128 0.921393 0.144174
Si Si6 0.933011 0.791882 0.656542
Si Si7 0.679482 0.114430 0.347598
O O1 0.629870 0.870131 0.250000
O O2 0.651251 0.900494 0.500000
O O3 0.707110 0.935267 0.288205
O O4 0.607496 0.966523 0.325797
O O5 0.043352 0.456649 0.750000
O O6 0.035181 0.431253 0.500000
O O7 0.062937 0.357321 0.673649
O O8 0.035069 0.754773 0.500000
O O9 0.101397 0.803559 0.668197
O O10 0.993731 0.788806 0.715738
O O11 0.445469 0.385270 0.233705
O O12 0.340694 0.396207 0.213099
O O13 0.401710 0.384695 0.000000
O O14 0.975858 0.929757 0.156835
O O15 0.051314 0.895283 0.000000
O O16 0.935416 0.799261 0.500000
O O17 0.901640 0.738650 0.695991
O O18 0.661919 0.161919 0.250000
O O19 0.677253 0.134469 0.500000
#
# Coordination Sequence:
#
# PCOD8314528 Si02
#       7
#    16  16  16  16  16  16  16
#     4  10  20  35  53  72  99 137 172 201 244 301
#     4   9  17  30  50  73  98 130 162 197 243 296
#     4   9  17  32  51  72 102 134 162 199 253 303
#     4  10  19  30  51  79  98 121 168 219 246 278
#     4   9  18  32  47  65  97 137 164 191 249 317
#     4   9  16  29  50  74 100 130 162 200 253 303
#     4   9  16  29  49  71  96 126 160 198 242 293
#
# _framework density 17.746945
#
# number of rings (size 3 to 8) (size 9 to 14) (size 15 to 20)
#    0.000    2.714    1.429    1.286    0.000    2.571 
#    0.000    4.286    0.000    1.714    0.000    0.000 
#    0.000    0.000    0.000    0.000    0.000    0.000 
#
# Total GULP energy -1387800.094855 kJ/mol
# GULP energy per Si atom -12391.072275 kJ/mol
# Density = 1.770655 g / cm^3
# Si number density = 17.746945 Si / 1000 Ang^3
#
#
#
# Elastic Constant Matrix: (Units=GPa)
#
#
# Indices 1 2 3 4 5 6 
#
# 1 74.4618 52.0465 30.4749 0.0000 0.0000 0.0000
# 2 52.0465 74.4628 30.4757 0.0000 0.0000 0.0000
# 3 30.4749 30.4757 58.3689 0.0000 0.0000 0.0000
# 4 0.0000 0.0000 0.0000 19.4983 0.0000 0.0000
# 5 0.0000 0.0000 0.0000 0.0000 19.4982 0.0000
# 6 0.0000 0.0000 0.0000 0.0000 0.0000 27.0885
#
#
#
# Elastic Compliance Matrix: (Units=1/GPa)
#
#
# Indices 1 2 3 4 5 6 
#
# 1 0.027586 -0.017025 -0.005514 0.000000 0.000000 0.000000
# 2 -0.017025 0.027586 -0.005514 0.000000 0.000000 0.000000
# 3 -0.005514 -0.005514 0.022890 0.000000 0.000000 0.000000
# 4 0.000000 0.000000 0.000000 0.051286 0.000000 0.000000
# 5 0.000000 0.000000 0.000000 0.000000 0.051287 0.000000
# 6 0.000000 0.000000 0.000000 0.000000 0.000000 0.036916
#
#
# Mechanical properties :
#
#
# Convention : Reuss Voigt Hill
#
# Bulk Modulus (GPa) = 45.54513 48.14307 46.84410
# Shear Modulus (GPa) = 17.79498 19.50343 18.64921
#
# Velocity S-wave (km/s) = 3.16999 3.31867 3.24518
# Velocity P-wave (km/s) = 6.25442 6.47080 6.36353
#
# Compressibility (1/GPa) = 0.02195625
#
# Stress axis : x y z
#
# Youngs Moduli (GPa) = 36.24981 36.24986 43.68628
#
# Poissons Ratio (x) = 0.61716 0.24088
# Poissons Ratio (y) = 0.61716 0.24091
# Poissons Ratio (z) = 0.19988 0.19990
#
# Static dielectric constant tensor:
#      x y z
#    x 3.296700 0.000000 0.000000 
#    y 0.000000 3.296700 0.000000 
#    z 0.000000 0.000000 3.134320 
# 
# 
# High freq. dielectric constant tensor:
#      x y z
#    x 1.679470 0.000000 0.000000 
#    y 0.000000 1.679470 0.000000 
#    z 0.000000 0.000000 1.658420 
# 
# From -- ./inp_files/2978.got.cif
#   From: 2010.03.12/outbox.cif.g09.slc.cpg/sg128_2_cif.got.tgz:2978.got - 2010.04.06 17:11:05.
