data_PCOD8314355
_publ_section_title
;
Structure prediction by ZEFSAII (Michael W. Deem and Ramdas Pophale) SiO2 
 PCOD8314355
Probable space group: P 4/M B M
;
_chemical_formula_sum "Si O2"
_cell_formula_units_Z 128
_cell_length_a 19.991147
_cell_length_b 19.991147
_cell_length_c 18.455470
_cell_angle_alpha 90.000000
_cell_angle_beta 90.000000
_cell_angle_gamma 90.000000
_cell_volume 7375.653995
_symmetry_space_group_name_H-M "P 4/M B M"
_symmetry_group_IT_number 127
_symmetry_cell_setting 'tetragonal'
loop_
_space_group_symop_operation_xyz
x,y,z
-y,x,z
-x,-y,z
y,-x,z
1/2+x,1/2-y,-z
1/2-x,1/2+y,-z
1/2+y,1/2+x,-z
1/2-y,1/2-x,-z
-x,-y,-z
y,-x,-z
x,y,-z
-y,x,-z
1/2-x,1/2+y,z
1/2+x,1/2-y,z
1/2-y,1/2-x,z
1/2+y,1/2+x,z
loop_
_atom_site_type_symbol
_atom_site_label
_atom_site_fract_x
_atom_site_fract_y
_atom_site_fract_z
Si Si1 0.003951 0.788238 0.081297
Si Si2 0.994621 0.890436 0.789953
Si Si3 0.757913 0.854140 0.862102
Si Si4 0.845608 0.243066 0.300688
Si Si5 0.266285 0.867335 0.296395
Si Si6 0.832393 0.910189 0.581017
Si Si7 0.757789 0.633133 0.870739
Si Si8 0.668144 0.544106 0.359715
O O1 0.937480 0.740988 0.086182
O O2 0.992212 0.846572 0.138291
O O3 0.075965 0.751679 0.094190
O O4 0.006352 0.817450 0.000000
O O5 0.930089 0.936800 0.791735
O O6 0.991789 0.849082 0.715990
O O7 0.691119 0.808882 0.873078
O O8 0.766249 0.877970 0.778611
O O9 0.822819 0.809752 0.885157
O O10 0.818540 0.318540 0.307946
O O11 0.784869 0.192393 0.308983
O O12 0.895550 0.231037 0.367430
O O13 0.340736 0.840736 0.316686
O O14 0.262801 0.888343 0.212910
O O15 0.243607 0.927102 0.349516
O O16 0.823573 0.880656 0.500000
O O17 0.899130 0.884184 0.619121
O O18 0.835234 0.990486 0.575967
O O19 0.821996 0.678005 0.893531
#
# Coordination Sequence:
#
# PCOD8314355 Si02
#       8
#    16  16  16  16  16  16  16  16
#     4  12  24  34  51  79 108 136 172 224 280 325
#     4  11  22  35  50  69  96 142 186 214 254 308
#     4   9  19  37  59  80 103 138 184 225 263 321
#     4   8  16  32  53  73  95 127 169 212 257 308
#     4   8  15  29  52  75  90 119 169 218 254 293
#     4  11  22  31  46  74 107 137 170 212 255 305
#     4   9  18  34  55  77 103 135 175 219 264 317
#     4  11  19  33  50  68 100 138 176 210 248 303
#
# _framework density 17.354393000000002
#
# number of rings (size 3 to 8) (size 9 to 14) (size 15 to 20)
#    0.000    2.125    2.500    3.375    1.750    3.000 
#    0.000    2.500    0.000    1.500    0.000    0.875 
#    0.000    0.500    0.000    1.125    0.000    0.000 
#
# Total GULP energy -1585886.889397 kJ/mol
# GULP energy per Si atom -12389.741323 kJ/mol
# Density = 1.731489 g / cm^3
# Si number density = 17.354393 Si / 1000 Ang^3
#
#
#
# Elastic Constant Matrix: (Units=GPa)
#
#
# Indices 1 2 3 4 5 6 
#
# 1 69.4630 32.9648 29.3089 0.0000 0.0000 0.0000
# 2 32.9648 69.4630 29.3089 0.0000 0.0000 0.0000
# 3 29.3089 29.3089 94.8601 0.0000 0.0000 0.0000
# 4 0.0000 0.0000 0.0000 10.1854 0.0000 0.0000
# 5 0.0000 0.0000 0.0000 0.0000 10.1854 0.0000
# 6 0.0000 0.0000 0.0000 0.0000 0.0000 29.1046
#
#
#
# Elastic Compliance Matrix: (Units=1/GPa)
#
#
# Indices 1 2 3 4 5 6 
#
# 1 0.019629 -0.007769 -0.003664 0.000000 0.000000 0.000000
# 2 -0.007769 0.019629 -0.003664 0.000000 0.000000 0.000000
# 3 -0.003664 -0.003664 0.012806 0.000000 0.000000 0.000000
# 4 0.000000 0.000000 0.000000 0.098179 0.000000 0.000000
# 5 0.000000 0.000000 0.000000 0.000000 0.098179 0.000000
# 6 0.000000 0.000000 0.000000 0.000000 0.000000 0.034359
#
#
# Mechanical properties :
#
#
# Convention : Reuss Voigt Hill
#
# Bulk Modulus (GPa) = 45.72742 46.32795 46.02768
# Shear Modulus (GPa) = 15.61191 19.37532 17.49361
#
# Velocity S-wave (km/s) = 3.00258 3.34496 3.17838
# Velocity P-wave (km/s) = 6.19895 6.45535 6.32845
#
# Compressibility (1/GPa) = 0.02186872
#
# Stress axis : x y z
#
# Youngs Moduli (GPa) = 50.94418 50.94418 78.08701
#
# Poissons Ratio (x) = 0.39580 0.28614
# Poissons Ratio (y) = 0.39580 0.28614
# Poissons Ratio (z) = 0.18668 0.18668
#
# Static dielectric constant tensor:
#      x y z
#    x 3.802810 0.000000 0.000000 
#    y 0.000000 3.802810 0.000000 
#    z 0.000000 0.000000 3.162390 
# 
# 
# High freq. dielectric constant tensor:
#      x y z
#    x 1.650050 0.000000 0.000000 
#    y 0.000000 1.650050 0.000000 
#    z 0.000000 0.000000 1.666410 
# 
# From -- ./inp_files/5425.got.cif
#   From: 2010.03.12/outbox.cif.g09.slc.cpg/sg127_3_cif.got.tgz:5425.got - 2010.04.06 17:03:15.
