data_PCOD8314781
_publ_section_title
;
Structure prediction by ZEFSAII (Michael W. Deem and Ramdas Pophale) SiO2 
 PCOD8314781
Probable space group: P 4/M N C
;
_chemical_formula_sum "Si O2"
_cell_formula_units_Z 80
_cell_length_a 12.345245
_cell_length_b 12.345245
_cell_length_c 26.042033
_cell_angle_alpha 90.000000
_cell_angle_beta 90.000000
_cell_angle_gamma 90.000000
_cell_volume 3968.937969
_symmetry_space_group_name_H-M "P 4/M N C"
_symmetry_group_IT_number 128
_symmetry_cell_setting 'tetragonal'
loop_
_space_group_symop_operation_xyz
x,y,z
-y,x,z
-x,-y,z
y,-x,z
1/2+x,1/2-y,1/2-z
1/2-x,1/2+y,1/2-z
1/2+y,1/2+x,1/2-z
1/2-y,1/2-x,1/2-z
-x,-y,-z
y,-x,-z
x,y,-z
-y,x,-z
1/2-x,1/2+y,1/2+z
1/2+x,1/2-y,1/2+z
1/2-y,1/2-x,1/2+z
1/2+y,1/2+x,1/2+z
loop_
_atom_site_type_symbol
_atom_site_label
_atom_site_fract_x
_atom_site_fract_y
_atom_site_fract_z
Si Si1 0.501990 0.878001 0.374966
Si Si2 0.067272 0.165482 0.557560
Si Si3 0.392485 0.775905 0.162029
Si Si4 0.170890 0.994132 0.939454
Si Si5 0.797586 0.373702 0.196127
O O1 0.403777 0.866276 0.334013
O O2 0.488228 0.793090 0.420401
O O3 0.614924 0.852396 0.347890
O O4 0.500000 0.000000 0.397892
O O5 0.086971 0.213011 0.500000
O O6 0.102046 0.250041 0.600977
O O7 0.941504 0.138638 0.564984
O O8 0.504964 0.750043 0.191041
O O9 0.300815 0.709333 0.190868
O O10 0.103069 0.889672 0.919776
O O11 0.174398 0.994772 0.000000
O O12 0.856716 0.356716 0.250000
#
# Coordination Sequence:
#
# PCOD8314781 Si02
#       5
#    16  16  16  16  16
#     4  10  23  39  59  88 123 162 200 249 316 375
#     4   9  17  33  60  94 128 162 208 267 321 373
#     4  11  22  41  67  90 131 165 210 263 312 379
#     4   9  18  36  62  87 117 161 207 254 298 350
#     4  11  26  42  64  91 120 167 211 260 317 373
#
# _framework density 20.156524999999998
#
# number of rings (size 3 to 8) (size 9 to 14) (size 15 to 20)
#    0.000    2.000    2.000    2.400    2.800    4.400 
#    0.000    4.000    0.000    0.000    0.000    0.000 
#    0.000    0.000    0.000    0.000    0.000    0.000 
#
# Total GULP energy -991983.912610 kJ/mol
# GULP energy per Si atom -12399.798908 kJ/mol
# Density = 2.011065 g / cm^3
# Si number density = 20.156525 Si / 1000 Ang^3
#
#
#
# Elastic Constant Matrix: (Units=GPa)
#
#
# Indices 1 2 3 4 5 6 
#
# 1 106.3214 58.8858 22.0624 0.0000 0.0000 0.0000
# 2 58.8858 106.3214 22.0624 0.0000 0.0000 0.0000
# 3 22.0624 22.0624 68.3023 0.0000 0.0000 0.0000
# 4 0.0000 0.0000 0.0000 23.2578 0.0000 0.0000
# 5 0.0000 0.0000 0.0000 0.0000 23.2578 0.0000
# 6 0.0000 0.0000 0.0000 0.0000 0.0000 25.4645
#
#
#
# Elastic Compliance Matrix: (Units=1/GPa)
#
#
# Indices 1 2 3 4 5 6 
#
# 1 0.013853 -0.007228 -0.002140 0.000000 0.000000 0.000000
# 2 -0.007228 0.013853 -0.002140 0.000000 0.000000 0.000000
# 3 -0.002140 -0.002140 0.016023 0.000000 0.000000 0.000000
# 4 0.000000 0.000000 0.000000 0.042996 0.000000 0.000000
# 5 0.000000 0.000000 0.000000 0.000000 0.042996 0.000000
# 6 0.000000 0.000000 0.000000 0.000000 0.000000 0.039270
#
#
# Mechanical properties :
#
#
# Convention : Reuss Voigt Hill
#
# Bulk Modulus (GPa) = 48.27885 54.10738 51.19312
# Shear Modulus (GPa) = 25.13675 26.25833 25.69754
#
# Velocity S-wave (km/s) = 3.53523 3.61324 3.57445
# Velocity P-wave (km/s) = 6.37713 6.65652 6.51832
#
# Compressibility (1/GPa) = 0.02071300
#
# Stress axis : x y z
#
# Youngs Moduli (GPa) = 72.18717 72.18717 62.40969
#
# Poissons Ratio (x) = 0.52179 0.13354
# Poissons Ratio (y) = 0.52179 0.13354
# Poissons Ratio (z) = 0.15447 0.15447
#
# Static dielectric constant tensor:
#      x y z
#    x 3.788530 0.000000 0.000000 
#    y 0.000000 3.788530 0.000000 
#    z 0.000000 0.000000 3.386500 
# 
# 
# High freq. dielectric constant tensor:
#      x y z
#    x 1.793660 0.000000 0.000000 
#    y 0.000000 1.793660 0.000000 
#    z 0.000000 0.000000 1.766080 
# 
# From -- ./inp_files/7151.got.cif
#   From: 2010.03.12/outbox.cif.g09.slc.cpg/sg128_4_cif.got.tgz:7151.got - 2010.04.06 17:11:05.
