data_PCOD8314423
_publ_section_title
;
Structure prediction by ZEFSAII (Michael W. Deem and Ramdas Pophale) SiO2 
 PCOD8314423
Probable space group: P 4/M B M
;
_chemical_formula_sum "Si O2"
_cell_formula_units_Z 72
_cell_length_a 15.064474
_cell_length_b 15.064474
_cell_length_c 19.208017
_cell_angle_alpha 90.000000
_cell_angle_beta 90.000000
_cell_angle_gamma 90.000000
_cell_volume 4359.036201
_symmetry_space_group_name_H-M "P 4/M B M"
_symmetry_group_IT_number 127
_symmetry_cell_setting 'tetragonal'
loop_
_space_group_symop_operation_xyz
x,y,z
-y,x,z
-x,-y,z
y,-x,z
1/2+x,1/2-y,-z
1/2-x,1/2+y,-z
1/2+y,1/2+x,-z
1/2-y,1/2-x,-z
-x,-y,-z
y,-x,-z
x,y,-z
-y,x,-z
1/2-x,1/2+y,z
1/2+x,1/2-y,z
1/2-y,1/2-x,z
1/2+y,1/2+x,z
loop_
_atom_site_type_symbol
_atom_site_label
_atom_site_fract_x
_atom_site_fract_y
_atom_site_fract_z
Si Si1 0.757645 0.024760 0.861730
Si Si2 0.354945 0.470976 0.275971
Si Si3 0.805395 0.838459 0.079844
Si Si4 0.471187 0.643823 0.426549
Si Si5 0.926228 0.573773 0.078888
O O1 0.778918 0.045931 0.781133
O O2 0.787287 0.925065 0.875519
O O3 0.811086 0.092532 0.910733
O O4 0.654194 0.033670 0.877291
O O5 0.431723 0.397648 0.267197
O O6 0.306119 0.461181 0.352143
O O7 0.741985 0.758016 0.105268
O O8 0.786460 0.861444 0.000000
O O9 0.397986 0.567962 0.427111
O O10 0.459973 0.699738 0.500000
O O11 0.000000 0.500000 0.072305
O O12 0.897134 0.602867 0.000000
#
# Coordination Sequence:
#
# PCOD8314423 Si02
#       5
#    16  16  16  16   8
#     4  12  21  35  54  75 101 130 165 208 264 310
#     4   9  16  27  42  70 107 134 156 193 247 301
#     4  11  23  37  52  72  98 129 170 215 256 308
#     4   7  10  18  35  59  93 135 166 184 218 284
#     4  11  24  42  58  70  91 132 182 222 251 289
#
# _framework density 16.517413000000001
#
# number of rings (size 3 to 8) (size 9 to 14) (size 15 to 20)
#    0.000    2.111    3.333    4.667    0.000    2.222 
#    0.000    1.111    0.000    0.000    0.000    0.778 
#    0.000    6.222    0.000    0.000    0.000    0.000 
#
# Total GULP energy -891955.278036 kJ/mol
# GULP energy per Si atom -12388.267751 kJ/mol
# Density = 1.647982 g / cm^3
# Si number density = 16.517413 Si / 1000 Ang^3
#
#
#
# Elastic Constant Matrix: (Units=GPa)
#
#
# Indices 1 2 3 4 5 6 
#
# 1 62.2328 3.8805 33.9919 0.0000 0.0000 0.0000
# 2 3.8805 62.2327 33.9920 0.0000 0.0000 0.0000
# 3 33.9919 33.9920 119.6139 0.0000 0.0000 0.0000
# 4 0.0000 0.0000 0.0000 21.8177 0.0000 0.0000
# 5 0.0000 0.0000 0.0000 0.0000 21.8174 0.0000
# 6 0.0000 0.0000 0.0000 0.0000 0.0000 17.3573
#
#
#
# Elastic Compliance Matrix: (Units=1/GPa)
#
#
# Indices 1 2 3 4 5 6 
#
# 1 0.019254 0.002117 -0.006073 0.000000 0.000000 0.000000
# 2 0.002117 0.019254 -0.006073 0.000000 0.000000 0.000000
# 3 -0.006073 -0.006073 0.011812 0.000000 0.000000 0.000000
# 4 0.000000 0.000000 0.000000 0.045834 0.000000 0.000000
# 5 0.000000 0.000000 0.000000 0.000000 0.045835 0.000000
# 6 0.000000 0.000000 0.000000 0.000000 0.000000 0.057613
#
#
# Mechanical properties :
#
#
# Convention : Reuss Voigt Hill
#
# Bulk Modulus (GPa) = 33.04625 43.08979 38.06802
# Shear Modulus (GPa) = 21.76301 23.67948 22.72125
#
# Velocity S-wave (km/s) = 3.63379 3.79041 3.71292
# Velocity P-wave (km/s) = 6.13647 6.73056 6.44037
#
# Compressibility (1/GPa) = 0.03026062
#
# Stress axis : x y z
#
# Youngs Moduli (GPa) = 51.93760 51.93742 84.66008
#
# Poissons Ratio (x) = -0.10993 0.51415
# Poissons Ratio (y) = -0.10993 0.51415
# Poissons Ratio (z) = 0.31542 0.31542
#
# Static dielectric constant tensor:
#      x y z
#    x 2.601200 0.000000 0.000000 
#    y 0.000000 2.601190 0.000000 
#    z 0.000000 0.000000 3.678260 
# 
# 
# High freq. dielectric constant tensor:
#      x y z
#    x 1.603310 0.000000 0.000000 
#    y 0.000000 1.603310 0.000000 
#    z 0.000000 0.000000 1.652360 
# 
# From -- ./inp_files/4951.got.cif
#   From: 2010.03.12/outbox.cif.g09.slc.cpg/sg127_3_cif.got.tgz:4951.got - 2010.04.06 17:03:15.
