data_PCOD8314453
_publ_section_title
;
Structure prediction by ZEFSAII (Michael W. Deem and Ramdas Pophale) SiO2 
 PCOD8314453
Probable space group: P 4/M B M
;
_chemical_formula_sum "Si O2"
_cell_formula_units_Z 88
_cell_length_a 12.424485
_cell_length_b 12.424485
_cell_length_c 28.553841
_cell_angle_alpha 90.000000
_cell_angle_beta 90.000000
_cell_angle_gamma 90.000000
_cell_volume 4407.794402
_symmetry_space_group_name_H-M "P 4/M B M"
_symmetry_group_IT_number 127
_symmetry_cell_setting 'tetragonal'
loop_
_space_group_symop_operation_xyz
x,y,z
-y,x,z
-x,-y,z
y,-x,z
1/2+x,1/2-y,-z
1/2-x,1/2+y,-z
1/2+y,1/2+x,-z
1/2-y,1/2-x,-z
-x,-y,-z
y,-x,-z
x,y,-z
-y,x,-z
1/2-x,1/2+y,z
1/2+x,1/2-y,z
1/2-y,1/2-x,z
1/2+y,1/2+x,z
loop_
_atom_site_type_symbol
_atom_site_label
_atom_site_fract_x
_atom_site_fract_y
_atom_site_fract_z
Si Si1 0.521611 0.677634 0.349194
Si Si2 0.981280 0.176828 0.000000
Si Si3 0.176763 0.982310 0.824634
Si Si4 0.478648 0.323478 0.549373
Si Si5 0.174431 0.501107 0.263016
Si Si6 0.999346 0.674227 0.087915
O O1 0.407786 0.617689 0.343115
O O2 0.528865 0.737354 0.400520
O O3 0.535463 0.769677 0.311090
O O4 0.969279 0.247975 0.045915
O O5 0.882861 0.094649 0.000000
O O6 0.116462 0.095235 0.828603
O O7 0.236208 0.975324 0.775364
O O8 0.260512 0.967639 0.866237
O O9 0.591742 0.382991 0.548912
O O10 0.470227 0.254679 0.500000
O O11 0.105635 0.394366 0.272055
O O12 0.098729 0.598729 0.245684
O O13 0.898457 0.601544 0.072270
O O14 0.101428 0.601428 0.100583
#
# Coordination Sequence:
#
# PCOD8314453 Si02
#       6
#    16   8  16  16  16  16
#     4   9  17  30  51  79 106 133 171 218 267 321
#     4  11  24  41  62  90 122 157 200 243 280 322
#     4  11  24  41  62  88 114 141 179 226 275 329
#     4   7  10  19  39  69 102 131 161 205 261 315
#     4  11  24  39  54  75 105 142 183 223 266 321
#     4  11  24  41  62  90 122 155 192 231 274 327
#
# _framework density 19.964632999999999
#
# number of rings (size 3 to 8) (size 9 to 14) (size 15 to 20)
#    0.000    2.091    0.000    5.455    0.000   13.091 
#    0.000    0.000    0.000    1.091    0.000    6.364 
#    0.000    0.000    0.000    0.000    0.000    0.000 
#
# Total GULP energy -1090728.886984 kJ/mol
# GULP energy per Si atom -12394.646443 kJ/mol
# Density = 1.991919 g / cm^3
# Si number density = 19.964633 Si / 1000 Ang^3
#
#
#
# Elastic Constant Matrix: (Units=GPa)
#
#
# Indices 1 2 3 4 5 6 
#
# 1 65.6980 10.0901 10.0432 0.0000 0.0000 0.0000
# 2 10.0901 65.6980 10.0432 0.0000 0.0000 0.0000
# 3 10.0432 10.0432 119.0809 0.0000 0.0000 0.0000
# 4 0.0000 0.0000 0.0000 41.8492 0.0000 0.0000
# 5 0.0000 0.0000 0.0000 0.0000 41.8492 0.0000
# 6 0.0000 0.0000 0.0000 0.0000 0.0000 11.9768
#
#
#
# Elastic Compliance Matrix: (Units=1/GPa)
#
#
# Indices 1 2 3 4 5 6 
#
# 1 0.015740 -0.002243 -0.001138 0.000000 0.000000 0.000000
# 2 -0.002243 0.015740 -0.001138 0.000000 0.000000 0.000000
# 3 -0.001138 -0.001138 0.008590 0.000000 0.000000 0.000000
# 4 0.000000 0.000000 0.000000 0.023895 0.000000 0.000000
# 5 0.000000 0.000000 0.000000 0.000000 0.023895 0.000000
# 6 0.000000 0.000000 0.000000 0.000000 0.000000 0.083495
#
#
# Mechanical properties :
#
#
# Convention : Reuss Voigt Hill
#
# Bulk Modulus (GPa) = 32.22763 34.53667 33.38215
# Shear Modulus (GPa) = 26.21404 33.82174 30.01789
#
# Velocity S-wave (km/s) = 3.62750 4.12039 3.88177
# Velocity P-wave (km/s) = 5.80710 6.32244 6.07024
#
# Compressibility (1/GPa) = 0.03102927
#
# Stress axis : x y z
#
# Youngs Moduli (GPa) = 63.53357 63.53357 116.41916
#
# Poissons Ratio (x) = 0.14253 0.13252
# Poissons Ratio (y) = 0.14253 0.13252
# Poissons Ratio (z) = 0.07232 0.07232
#
# Static dielectric constant tensor:
#      x y z
#    x 3.468900 0.000000 0.000000 
#    y 0.000000 3.468900 0.000000 
#    z 0.000000 0.000000 12.034060 
# 
# 
# High freq. dielectric constant tensor:
#      x y z
#    x 1.760680 0.000000 0.000000 
#    y 0.000000 1.760680 0.000000 
#    z 0.000000 0.000000 1.806580 
# 
# From -- ./inp_files/6537.got.cif
#   From: 2010.03.12/outbox.cif.g09.slc.cpg/sg127_4_cif.got.tgz:6537.got - 2010.04.06 17:03:15.
