data_PCOD8314179
_publ_section_title
;
Structure prediction by ZEFSAII (Michael W. Deem and Ramdas Pophale) SiO2 
 PCOD8314179
Probable space group: P 4/M B M
;
_chemical_formula_sum "Si O2"
_cell_formula_units_Z 72
_cell_length_a 14.135658
_cell_length_b 14.135658
_cell_length_c 17.905297
_cell_angle_alpha 90.000000
_cell_angle_beta 90.000000
_cell_angle_gamma 90.000000
_cell_volume 3577.779635
_symmetry_space_group_name_H-M "P 4/M B M"
_symmetry_group_IT_number 127
_symmetry_cell_setting 'tetragonal'
loop_
_space_group_symop_operation_xyz
x,y,z
-y,x,z
-x,-y,z
y,-x,z
1/2+x,1/2-y,-z
1/2-x,1/2+y,-z
1/2+y,1/2+x,-z
1/2-y,1/2-x,-z
-x,-y,-z
y,-x,-z
x,y,-z
-y,x,-z
1/2-x,1/2+y,z
1/2+x,1/2-y,z
1/2-y,1/2-x,z
1/2+y,1/2+x,z
loop_
_atom_site_type_symbol
_atom_site_label
_atom_site_fract_x
_atom_site_fract_y
_atom_site_fract_z
Si Si1 0.554948 0.354246 0.219001
Si Si2 0.420865 0.079136 0.691029
Si Si3 0.777828 0.564680 0.357182
Si Si4 0.779646 0.563438 0.915021
Si Si5 0.420727 0.079274 0.142057
Si Si6 0.543743 0.350374 0.500000
O O1 0.620127 0.445401 0.228918
O O2 0.584047 0.278670 0.281306
O O3 0.574615 0.311128 0.137532
O O4 0.463431 0.168612 0.646926
O O5 0.390012 0.109989 0.774443
O O6 0.500000 0.000000 0.699531
O O7 0.851404 0.648597 0.368618
O O8 0.708873 0.563480 0.426574
O O9 0.852415 0.647586 0.897294
O O10 0.829718 0.461999 0.900761
O O11 0.743936 0.567310 0.000000
O O12 0.500000 0.000000 0.144663
O O13 0.615874 0.436585 0.500000
#
# Coordination Sequence:
#
# PCOD8314179 Si02
#       6
#    16   8  16  16   8   8
#     4  11  24  42  61  84 123 172 208 242 306 376
#     4   9  18  34  64  94 125 157 187 251 319 362
#     4  11  22  43  68  97 126 155 204 260 308 357
#     4  10  20  37  61  90 122 156 205 264 312 360
#     4   9  15  32  60  90 122 157 193 243 320 371
#     4  11  25  47  66  89 134 175 202 239 297 368
#
# _framework density 20.124212
#
# number of rings (size 3 to 8) (size 9 to 14) (size 15 to 20)
#    0.000    1.667    2.222    2.667    0.000    4.444 
#   16.000    2.778    0.000    0.000    0.000    0.000 
#    0.000    0.000    0.000    0.000    0.000    0.000 
#
# Total GULP energy -893013.676509 kJ/mol
# GULP energy per Si atom -12402.967729 kJ/mol
# Density = 2.007841 g / cm^3
# Si number density = 20.124212 Si / 1000 Ang^3
#
#
#
# Elastic Constant Matrix: (Units=GPa)
#
#
# Indices 1 2 3 4 5 6 
#
# 1 62.7130 64.4680 52.1062 0.0000 0.0000 0.0000
# 2 64.4680 62.7130 52.1062 0.0000 0.0000 0.0000
# 3 52.1062 52.1062 134.0441 0.0000 0.0000 0.0000
# 4 0.0000 0.0000 0.0000 33.4495 0.0000 0.0000
# 5 0.0000 0.0000 0.0000 0.0000 33.4495 0.0000
# 6 0.0000 0.0000 0.0000 0.0000 0.0000 -6.9152
#
#
#
# Elastic Compliance Matrix: (Units=1/GPa)
#
#
# Indices 1 2 3 4 5 6 
#
# 1 -0.279138 0.290676 -0.004485 0.000000 0.000000 0.000000
# 2 0.290676 -0.279138 -0.004485 0.000000 0.000000 0.000000
# 3 -0.004485 -0.004485 0.010947 0.000000 0.000000 0.000000
# 4 0.000000 0.000000 0.000000 0.029896 0.000000 0.000000
# 5 0.000000 0.000000 0.000000 0.000000 0.029896 0.000000
# 6 0.000000 0.000000 0.000000 0.000000 0.000000 -0.144609
#
#
# Mechanical properties :
#
#
# Convention : Reuss Voigt Hill
#
# Bulk Modulus (GPa) = 62.17875 66.31455 64.24665
# Shear Modulus (GPa) = -4.20098 18.04940 6.92421
#
# Velocity S-wave (km/s) = -1.44640 2.99808 1.85693
# Velocity P-wave (km/s) = 5.30803 6.70886 6.04913
#
# Compressibility (1/GPa) = 0.01608266
#
# Stress axis : x y z
#
# Youngs Moduli (GPa) = -3.58246 -3.58246 91.34825
#
# Poissons Ratio (x) = 1.04133 0.40970
# Poissons Ratio (y) = 1.04133 0.40970
# Poissons Ratio (z) = -0.01607 -0.01607
#
# Static dielectric constant tensor:
#      x y z
#    x 3.670460 0.000000 0.000000 
#    y 0.000000 3.670460 0.000000 
#    z 0.000000 0.000000 3.839520 
# 
# 
# High freq. dielectric constant tensor:
#      x y z
#    x 1.781550 0.000000 0.000000 
#    y 0.000000 1.781550 0.000000 
#    z 0.000000 0.000000 1.793190 
# 
# From -- ./inp_files/5002.got.cif
#   From: 2010.03.12/outbox.cif.g09.slc.cpg/sg127_3_cif.got.tgz:5002.got - 2010.04.06 17:03:15.
