data_PCOD8314555
_publ_section_title
;
Structure prediction by ZEFSAII (Michael W. Deem and Ramdas Pophale) SiO2 
 PCOD8314555
Probable space group: P 4/M N C
;
_chemical_formula_sum "Si O2"
_cell_formula_units_Z 120
_cell_length_a 29.765044
_cell_length_b 29.765044
_cell_length_c 8.416809
_cell_angle_alpha 90.000000
_cell_angle_beta 90.000000
_cell_angle_gamma 90.000000
_cell_volume 7456.937958
_symmetry_space_group_name_H-M "P 4/M N C"
_symmetry_group_IT_number 128
_symmetry_cell_setting 'tetragonal'
loop_
_space_group_symop_operation_xyz
x,y,z
-y,x,z
-x,-y,z
y,-x,z
1/2+x,1/2-y,1/2-z
1/2-x,1/2+y,1/2-z
1/2+y,1/2+x,1/2-z
1/2-y,1/2-x,1/2-z
-x,-y,-z
y,-x,-z
x,y,-z
-y,x,-z
1/2-x,1/2+y,1/2+z
1/2+x,1/2-y,1/2+z
1/2-y,1/2-x,1/2+z
1/2+y,1/2+x,1/2+z
loop_
_atom_site_type_symbol
_atom_site_label
_atom_site_fract_x
_atom_site_fract_y
_atom_site_fract_z
Si Si1 0.429018 0.481831 0.500000
Si Si2 0.266402 0.567022 0.189407
Si Si3 0.724303 0.710222 0.185311
Si Si4 0.500740 0.614062 0.174973
Si Si5 0.098478 0.862035 0.318179
Si Si6 0.215865 0.972276 0.324249
Si Si7 0.152691 0.718431 0.312458
Si Si8 0.807848 0.118609 0.817694
O O1 0.467731 0.445904 0.500000
O O2 0.403089 0.474677 0.332329
O O3 0.313010 0.587992 0.256118
O O4 0.257041 0.515586 0.249745
O O5 0.226778 0.601085 0.243868
O O6 0.270876 0.564211 0.000000
O O7 0.772227 0.727774 0.250000
O O8 0.684138 0.741379 0.256023
O O9 0.716854 0.658411 0.225654
O O10 0.724978 0.715755 0.000000
O O11 0.554383 0.606682 0.197512
O O12 0.491170 0.666097 0.160800
O O13 0.486543 0.592533 0.000000
O O14 0.114171 0.857191 0.500000
O O15 0.139711 0.885878 0.228179
O O16 0.233898 0.959418 0.500000
O O17 0.218219 0.928089 0.216064
O O18 0.170334 0.670334 0.250000
O O19 0.154476 0.718308 0.500000
O O20 0.803604 0.130046 0.000000
#
# Coordination Sequence:
#
# PCOD8314555 Si02
#       8
#     8  16  16  16  16  16  16  16
#     4  11  26  40  50  62  84 108 138 186 244 302
#     4   8  14  30  48  62  83 113 146 182 224 266
#     4  10  19  33  50  68  97 125 151 188 226 271
#     4   9  21  37  55  69  83 110 145 186 242 292
#     4   9  17  32  49  65  84 111 145 185 229 277
#     4   9  19  34  50  66  85 113 149 188 228 272
#     4   9  16  27  45  66  88 115 145 179 219 269
#     4  12  23  30  45  73  95 118 151 186 230 282
#
# _framework density 16.092396000000001
#
# number of rings (size 3 to 8) (size 9 to 14) (size 15 to 20)
#    0.000    2.467    1.333    3.200    3.733    1.067 
#    0.000    1.333    0.000    0.000    0.000    0.000 
#    0.000    0.000    0.000    0.000    0.000    0.667 
#
# Total GULP energy -1486663.107545 kJ/mol
# GULP energy per Si atom -12388.859230 kJ/mol
# Density = 1.605577 g / cm^3
# Si number density = 16.092396 Si / 1000 Ang^3
#
#
#
# Elastic Constant Matrix: (Units=GPa)
#
#
# Indices 1 2 3 4 5 6 
#
# 1 43.0775 20.7511 6.9097 0.0000 0.0000 0.0000
# 2 20.7511 43.0820 6.9097 0.0000 0.0000 0.0000
# 3 6.9097 6.9097 57.0586 0.0000 0.0000 0.0000
# 4 0.0000 0.0000 0.0000 16.3551 0.0000 0.0000
# 5 0.0000 0.0000 0.0000 0.0000 16.3549 0.0000
# 6 0.0000 0.0000 0.0000 0.0000 0.0000 30.8843
#
#
#
# Elastic Compliance Matrix: (Units=1/GPa)
#
#
# Indices 1 2 3 4 5 6 
#
# 1 0.030439 -0.014349 -0.001948 0.000000 0.000000 0.000000
# 2 -0.014349 0.030435 -0.001948 0.000000 0.000000 0.000000
# 3 -0.001948 -0.001948 0.017998 0.000000 0.000000 0.000000
# 4 0.000000 0.000000 0.000000 0.061143 0.000000 0.000000
# 5 0.000000 0.000000 0.000000 0.000000 0.061144 0.000000
# 6 0.000000 0.000000 0.000000 0.000000 0.000000 0.032379
#
#
# Mechanical properties :
#
#
# Convention : Reuss Voigt Hill
#
# Bulk Modulus (GPa) = 23.59544 23.59547 23.59545
# Shear Modulus (GPa) = 17.59606 19.96203 18.77905
#
# Velocity S-wave (km/s) = 3.31031 3.52584 3.41977
# Velocity P-wave (km/s) = 5.41342 5.59194 5.50340
#
# Compressibility (1/GPa) = 0.04238107
#
# Stress axis : x y z
#
# Youngs Moduli (GPa) = 32.85310 32.85660 55.56261
#
# Poissons Ratio (x) = 0.47145 0.10826
# Poissons Ratio (y) = 0.47140 0.10824
# Poissons Ratio (z) = 0.06401 0.06401
#
# Static dielectric constant tensor:
#      x y z
#    x 2.984250 0.000000 0.000000 
#    y 0.000000 2.984250 0.000000 
#    z 0.000000 0.000000 3.117020 
# 
# 
# High freq. dielectric constant tensor:
#      x y z
#    x 1.583830 0.000000 0.000000 
#    y 0.000000 1.583830 0.000000 
#    z 0.000000 0.000000 1.616640 
# 
# From -- ./inp_files/1811.got.cif
#   From: 2010.03.12/outbox.cif.g09.slc.cpg/sg128_1_cif.got.tgz:1811.got - 2010.04.06 17:11:05.
