data_PCOD8314991
_publ_section_title
;
Structure prediction by ZEFSAII (Michael W. Deem and Ramdas Pophale) SiO2 
 PCOD8314991
Probable space group: P 4/N M M
;
_chemical_formula_sum "Si O2"
_cell_formula_units_Z 96
_cell_length_a 14.008739
_cell_length_b 14.008739
_cell_length_c 31.110516
_cell_angle_alpha 90.000000
_cell_angle_beta 90.000000
_cell_angle_gamma 90.000000
_cell_volume 6105.276006
_symmetry_space_group_name_H-M "P 4/N M M"
_symmetry_group_IT_number 129
_symmetry_cell_setting 'tetragonal'
loop_
_space_group_symop_operation_xyz
x,y,z
1/2-y,x,z
1/2-x,1/2-y,z
y,1/2-x,z
1/2+x,-y,-z
-x,1/2+y,-z
1/2+y,1/2+x,-z
-y,-x,-z
-x,-y,-z
1/2+y,-x,-z
1/2+x,1/2+y,-z
-y,1/2+x,-z
1/2-x,y,z
x,1/2-y,z
1/2-y,1/2-x,z
y,x,z
loop_
_atom_site_type_symbol
_atom_site_label
_atom_site_fract_x
_atom_site_fract_y
_atom_site_fract_z
Si Si1 0.355655 0.635985 0.045218
Si Si2 0.640848 0.486856 0.627160
Si Si3 0.643076 0.364017 0.137578
Si Si4 0.140064 0.515277 0.471000
Si Si5 0.136951 0.516508 0.216983
Si Si6 0.644108 0.137060 0.296577
O O1 0.250000 0.591969 0.047576
O O2 0.350390 0.750000 0.041972
O O3 0.406631 0.609359 0.090725
O O4 0.403043 0.596958 0.000000
O O5 0.750000 0.513413 0.637260
O O6 0.582455 0.582455 0.636490
O O7 0.627665 0.451776 0.578305
O O8 0.604490 0.402846 0.658393
O O9 0.750000 0.400562 0.148822
O O10 0.645391 0.250000 0.135041
O O11 0.570421 0.397875 0.174058
O O12 0.101523 0.601523 0.500000
O O13 0.250000 0.494951 0.482370
O O14 0.081828 0.418173 0.480360
O O15 0.250000 0.498420 0.217757
O O16 0.085811 0.414190 0.219156
O O17 0.101721 0.580152 0.256969
O O18 0.750000 0.091479 0.293582
O O19 0.652919 0.250000 0.294570
#
# Coordination Sequence:
#
# PCOD8314991 Si02
#       6
#    16  16  16  16  16  16
#     4   7   9  14  27  49  74  97 122 153 192 239
#     4   9  17  29  45  66  92 119 145 173 206 248
#     4   8  13  22  37  56  77 101 129 162 201 242
#     4   9  18  31  46  66  92 121 154 190 225 263
#     4  10  19  29  41  57  79 107 137 168 200 238
#     4   9  17  29  44  61  81 104 131 165 204 243
#
# _framework density 15.724105
#
# number of rings (size 3 to 8) (size 9 to 14) (size 15 to 20)
#    0.000    3.333    0.000    2.500    0.000    3.333 
#    0.000    3.333    0.000    3.500    0.000    0.000 
#    0.000   15.667    0.000    0.000    0.000    1.000 
#
# Total GULP energy -1189260.671799 kJ/mol
# GULP energy per Si atom -12388.131998 kJ/mol
# Density = 1.568832 g / cm^3
# Si number density = 15.724105 Si / 1000 Ang^3
#
#
#
# Elastic Constant Matrix: (Units=GPa)
#
#
# Indices 1 2 3 4 5 6 
#
# 1 63.2215 32.9401 47.7071 0.0000 0.0000 0.0000
# 2 32.9401 63.2216 47.7071 0.0000 0.0000 0.0000
# 3 47.7071 47.7071 125.6689 0.0000 0.0000 0.0000
# 4 0.0000 0.0000 0.0000 13.1481 0.0000 0.0000
# 5 0.0000 0.0000 0.0000 0.0000 13.1481 0.0000
# 6 0.0000 0.0000 0.0000 0.0000 0.0000 12.0307
#
#
#
# Elastic Compliance Matrix: (Units=1/GPa)
#
#
# Indices 1 2 3 4 5 6 
#
# 1 0.024853 -0.008170 -0.006333 0.000000 0.000000 0.000000
# 2 -0.008170 0.024853 -0.006333 0.000000 0.000000 0.000000
# 3 -0.006333 -0.006333 0.012766 0.000000 0.000000 0.000000
# 4 0.000000 0.000000 0.000000 0.076056 0.000000 0.000000
# 5 0.000000 0.000000 0.000000 0.000000 0.076057 0.000000
# 6 0.000000 0.000000 0.000000 0.000000 0.000000 0.083121
#
#
# Mechanical properties :
#
#
# Convention : Reuss Voigt Hill
#
# Bulk Modulus (GPa) = 48.07902 56.53562 52.30732
# Shear Modulus (GPa) = 14.43778 15.91590 15.17684
#
# Velocity S-wave (km/s) = 3.03346 3.18496 3.11013
# Velocity P-wave (km/s) = 6.55074 7.03975 6.79964
#
# Compressibility (1/GPa) = 0.02079909
#
# Stress axis : x y z
#
# Youngs Moduli (GPa) = 40.23582 40.23591 78.33263
#
# Poissons Ratio (x) = 0.32873 0.49611
# Poissons Ratio (y) = 0.32873 0.49611
# Poissons Ratio (z) = 0.25483 0.25483
#
# Static dielectric constant tensor:
#      x y z
#    x 2.693590 0.000000 0.000000 
#    y 0.000000 2.693590 0.000000 
#    z 0.000000 0.000000 3.497160 
# 
# 
# High freq. dielectric constant tensor:
#      x y z
#    x 1.562340 0.000000 0.000000 
#    y 0.000000 1.562340 0.000000 
#    z 0.000000 0.000000 1.631580 
# 
# From -- ./inp_files/7860.got.cif
#   From: 2010.03.12/outbox.cif.g09.slc.cpg/sg129_4_cif.got.tgz:7860.got - 2010.04.06 17:19:44.
