data_PCOD8314433
_publ_section_title
;
Structure prediction by ZEFSAII (Michael W. Deem and Ramdas Pophale) SiO2 
 PCOD8314433
Probable space group: P 4/M B M
;
_chemical_formula_sum "Si O2"
_cell_formula_units_Z 96
_cell_length_a 23.704386
_cell_length_b 23.704386
_cell_length_c 8.900365
_cell_angle_alpha 90.000000
_cell_angle_beta 90.000000
_cell_angle_gamma 90.000000
_cell_volume 5001.096542
_symmetry_space_group_name_H-M "P 4/M B M"
_symmetry_group_IT_number 127
_symmetry_cell_setting 'tetragonal'
loop_
_space_group_symop_operation_xyz
x,y,z
-y,x,z
-x,-y,z
y,-x,z
1/2+x,1/2-y,-z
1/2-x,1/2+y,-z
1/2+y,1/2+x,-z
1/2-y,1/2-x,-z
-x,-y,-z
y,-x,-z
x,y,-z
-y,x,-z
1/2-x,1/2+y,z
1/2+x,1/2-y,z
1/2-y,1/2-x,z
1/2+y,1/2+x,z
loop_
_atom_site_type_symbol
_atom_site_label
_atom_site_fract_x
_atom_site_fract_y
_atom_site_fract_z
Si Si1 0.591680 0.000683 0.672974
Si Si2 0.016224 0.291922 0.175682
Si Si3 0.631718 0.224646 0.330267
Si Si4 0.936245 0.201379 0.677847
Si Si5 0.188230 0.776107 0.321402
Si Si6 0.031179 0.913480 0.826411
O O1 0.609848 0.008070 0.500000
O O2 0.556229 0.943772 0.694424
O O3 0.554395 0.054395 0.723624
O O4 0.646786 0.995076 0.773694
O O5 0.081138 0.283289 0.215569
O O6 0.981651 0.243247 0.255717
O O7 0.007310 0.286086 0.000000
O O8 0.609360 0.235572 0.500000
O O9 0.667976 0.167976 0.328809
O O10 0.668572 0.277178 0.270750
O O11 0.937375 0.205860 0.500000
O O12 0.874979 0.219739 0.742087
O O13 0.949607 0.137563 0.722641
O O14 0.188572 0.774170 0.500000
O O15 0.219580 0.719580 0.259703
O O16 0.966567 0.928958 0.789707
O O17 0.037050 0.896040 0.000000
#
# Coordination Sequence:
#
# PCOD8314433 Si02
#       6
#    16  16  16  16  16  16
#     4   9  19  38  63  87 112 148 194 242 292 343
#     4  12  25  37  52  82 121 157 191 231 286 346
#     4   9  18  36  62  87 112 144 185 237 291 338
#     4  11  23  37  58  87 115 150 199 247 287 336
#     4   8  17  36  60  84 109 140 182 234 287 334
#     4   9  20  40  62  84 116 155 188 228 295 365
#
# _framework density 19.195789999999999
#
# number of rings (size 3 to 8) (size 9 to 14) (size 15 to 20)
#    0.000    2.333    0.000    4.500    2.333    4.333 
#    0.000    4.167    0.000    3.500    0.000    0.000 
#    0.000    0.000    0.000    0.000    0.000    0.000 
#
# Total GULP energy -1190477.082067 kJ/mol
# GULP energy per Si atom -12400.802938 kJ/mol
# Density = 1.915210 g / cm^3
# Si number density = 19.195790 Si / 1000 Ang^3
#
#
#
# Elastic Constant Matrix: (Units=GPa)
#
#
# Indices 1 2 3 4 5 6 
#
# 1 130.0442 15.2622 40.1299 0.0000 0.0000 0.0000
# 2 15.2622 130.0442 40.1299 0.0000 0.0000 0.0000
# 3 40.1299 40.1299 73.9347 0.0000 0.0000 0.0000
# 4 0.0000 0.0000 0.0000 18.6357 0.0000 0.0000
# 5 0.0000 0.0000 0.0000 0.0000 18.6357 0.0000
# 6 0.0000 0.0000 0.0000 0.0000 0.0000 19.1080
#
#
#
# Elastic Compliance Matrix: (Units=1/GPa)
#
#
# Indices 1 2 3 4 5 6 
#
# 1 0.009270 0.000558 -0.005335 0.000000 0.000000 0.000000
# 2 0.000558 0.009270 -0.005335 0.000000 0.000000 0.000000
# 3 -0.005335 -0.005335 0.019317 0.000000 0.000000 0.000000
# 4 0.000000 0.000000 0.000000 0.053660 0.000000 0.000000
# 5 0.000000 0.000000 0.000000 0.000000 0.053660 0.000000
# 6 0.000000 0.000000 0.000000 0.000000 0.000000 0.052334
#
#
# Mechanical properties :
#
#
# Convention : Reuss Voigt Hill
#
# Bulk Modulus (GPa) = 56.70575 58.34080 57.52328
# Shear Modulus (GPa) = 22.36006 27.17596 24.76801
#
# Velocity S-wave (km/s) = 3.41668 3.76669 3.59595
# Velocity P-wave (km/s) = 6.72085 7.02679 6.87552
#
# Compressibility (1/GPa) = 0.01763490
#
# Stress axis : x y z
#
# Youngs Moduli (GPa) = 107.87004 107.87004 51.76894
#
# Poissons Ratio (x) = -0.06022 0.27617
# Poissons Ratio (y) = -0.06022 0.27617
# Poissons Ratio (z) = 0.57546 0.57546
#
# Static dielectric constant tensor:
#      x y z
#    x 3.647290 0.000000 0.000000 
#    y 0.000000 3.647290 0.000000 
#    z 0.000000 0.000000 3.279200 
# 
# 
# High freq. dielectric constant tensor:
#      x y z
#    x 1.755110 0.000000 0.000000 
#    y 0.000000 1.755110 0.000000 
#    z 0.000000 0.000000 1.722610 
# 
# From -- ./inp_files/2022.got.cif
#   From: 2010.03.12/outbox.cif.g09.slc.cpg/sg127_2_cif.got.tgz:2022.got - 2010.04.06 17:03:15.
