data_PCOD8314551
_publ_section_title
;
Structure prediction by ZEFSAII (Michael W. Deem and Ramdas Pophale) SiO2 
 PCOD8314551
Probable space group: P 4/M N C
;
_chemical_formula_sum "Si O2"
_cell_formula_units_Z 96
_cell_length_a 16.524778
_cell_length_b 16.524778
_cell_length_c 18.945352
_cell_angle_alpha 90.000000
_cell_angle_beta 90.000000
_cell_angle_gamma 90.000000
_cell_volume 5173.374835
_symmetry_space_group_name_H-M "P 4/M N C"
_symmetry_group_IT_number 128
_symmetry_cell_setting 'tetragonal'
loop_
_space_group_symop_operation_xyz
x,y,z
-y,x,z
-x,-y,z
y,-x,z
1/2+x,1/2-y,1/2-z
1/2-x,1/2+y,1/2-z
1/2+y,1/2+x,1/2-z
1/2-y,1/2-x,1/2-z
-x,-y,-z
y,-x,-z
x,y,-z
-y,x,-z
1/2-x,1/2+y,1/2+z
1/2+x,1/2-y,1/2+z
1/2-y,1/2-x,1/2+z
1/2+y,1/2+x,1/2+z
loop_
_atom_site_type_symbol
_atom_site_label
_atom_site_fract_x
_atom_site_fract_y
_atom_site_fract_z
Si Si1 0.810113 0.494570 0.421234
Si Si2 0.615999 0.762184 0.214202
Si Si3 0.377197 0.993552 0.224973
Si Si4 0.199782 0.694783 0.578095
Si Si5 0.825608 0.125005 0.079956
Si Si6 0.078752 0.895665 0.214123
O O1 0.844815 0.514043 0.500000
O O2 0.875328 0.511271 0.360109
O O3 0.786857 0.401258 0.414681
O O4 0.732388 0.549383 0.404920
O O5 0.687005 0.812996 0.250000
O O6 0.527020 0.794092 0.239510
O O7 0.631503 0.769823 0.130334
O O8 0.624897 0.668921 0.236523
O O9 0.403122 0.903122 0.250000
O O10 0.444883 0.055118 0.250000
O O11 0.169190 0.718663 0.500000
O O12 0.291600 0.726356 0.592110
O O13 0.902592 0.121492 0.131886
O O14 0.859737 0.123316 0.000000
O O15 0.984351 0.888340 0.231811
#
# Coordination Sequence:
#
# PCOD8314551 Si02
#       6
#    16  16  16  16  16  16
#     4  10  19  34  54  80 117 153 185 230 285 341
#     4  11  19  38  58  80 113 147 188 234 284 333
#     4  10  19  34  54  80 109 147 189 230 281 342
#     4  10  19  34  56  79 109 150 189 229 281 343
#     4  10  19  32  53  82 117 152 185 221 273 341
#     4  11  23  37  55  83 116 150 190 231 276 332
#
# _framework density 18.556550999999999
#
# number of rings (size 3 to 8) (size 9 to 14) (size 15 to 20)
#    0.000    1.667    5.000    2.000    0.000    2.000 
#    6.000    3.333    0.000    1.000    0.000    1.167 
#    0.000    0.000    0.000    0.000    0.000    0.000 
#
# Total GULP energy -1189627.358583 kJ/mol
# GULP energy per Si atom -12391.951652 kJ/mol
# Density = 1.851432 g / cm^3
# Si number density = 18.556551 Si / 1000 Ang^3
#
#
#
# Elastic Constant Matrix: (Units=GPa)
#
#
# Indices 1 2 3 4 5 6 
#
# 1 73.4057 41.3926 59.2572 0.0000 0.0000 0.0000
# 2 41.3926 73.4041 59.2579 0.0000 0.0000 0.0000
# 3 59.2572 59.2579 152.7570 0.0000 0.0000 0.0000
# 4 0.0000 0.0000 0.0000 5.5103 0.0000 0.0000
# 5 0.0000 0.0000 0.0000 0.0000 5.5420 0.0000
# 6 0.0000 0.0000 0.0000 0.0000 0.0000 18.4347
#
#
#
# Elastic Compliance Matrix: (Units=1/GPa)
#
#
# Indices 1 2 3 4 5 6 
#
# 1 0.022884 -0.008354 -0.005636 0.000000 0.000000 0.000000
# 2 -0.008354 0.022885 -0.005637 0.000000 0.000000 0.000000
# 3 -0.005636 -0.005637 0.010919 0.000000 0.000000 0.000000
# 4 0.000000 0.000000 0.000000 0.181480 0.000000 0.000000
# 5 0.000000 0.000000 0.000000 0.000000 0.180440 0.000000
# 6 0.000000 0.000000 0.000000 0.000000 0.000000 0.054246
#
#
# Mechanical properties :
#
#
# Convention : Reuss Voigt Hill
#
# Bulk Modulus (GPa) = 57.36103 68.82023 63.09063
# Shear Modulus (GPa) = 9.65404 15.20800 12.43102
#
# Velocity S-wave (km/s) = 2.28337 2.86588 2.59105
# Velocity P-wave (km/s) = 6.15876 6.93674 6.55929
#
# Compressibility (1/GPa) = 0.01743344
#
# Stress axis : x y z
#
# Youngs Moduli (GPa) = 43.69960 43.69770 91.58044
#
# Poissons Ratio (x) = 0.36505 0.51617
# Poissons Ratio (y) = 0.36507 0.51622
# Poissons Ratio (z) = 0.24630 0.24631
#
# Static dielectric constant tensor:
#      x y z
#    x 3.532090 0.000000 0.000000 
#    y 0.000000 3.532090 0.000000 
#    z 0.000000 0.000000 3.672630 
# 
# 
# High freq. dielectric constant tensor:
#      x y z
#    x 1.700680 0.000000 0.000000 
#    y 0.000000 1.700680 0.000000 
#    z 0.000000 0.000000 1.720570 
# 
# From -- ./inp_files/4798.got.cif
#   From: 2010.03.12/outbox.cif.g09.slc.cpg/sg128_3_cif.got.tgz:4798.got - 2010.04.06 17:11:05.
