data_PCOD8314295
_publ_section_title
;
Structure prediction by ZEFSAII (Michael W. Deem and Ramdas Pophale) SiO2 
 PCOD8314295
Probable space group: P 4/M B M
;
_chemical_formula_sum "Si O2"
_cell_formula_units_Z 72
_cell_length_a 13.953142
_cell_length_b 13.953142
_cell_length_c 19.447956
_cell_angle_alpha 90.000000
_cell_angle_beta 90.000000
_cell_angle_gamma 90.000000
_cell_volume 3786.325892
_symmetry_space_group_name_H-M "P 4/M B M"
_symmetry_group_IT_number 127
_symmetry_cell_setting 'tetragonal'
loop_
_space_group_symop_operation_xyz
x,y,z
-y,x,z
-x,-y,z
y,-x,z
1/2+x,1/2-y,-z
1/2-x,1/2+y,-z
1/2+y,1/2+x,-z
1/2-y,1/2-x,-z
-x,-y,-z
y,-x,-z
x,y,-z
-y,x,-z
1/2-x,1/2+y,z
1/2+x,1/2-y,z
1/2-y,1/2-x,z
1/2+y,1/2+x,z
loop_
_atom_site_type_symbol
_atom_site_label
_atom_site_fract_x
_atom_site_fract_y
_atom_site_fract_z
Si Si1 0.576724 0.076724 0.694850
Si Si2 0.716852 0.019818 0.811594
Si Si3 0.383474 0.396885 0.620383
Si Si4 0.689596 0.189596 0.423346
Si Si5 0.422854 0.922854 0.925533
Si Si6 0.662404 0.682903 0.764149
O O1 0.522377 0.154003 0.741779
O O2 0.628493 0.128493 0.631264
O O3 0.500000 0.000000 0.666090
O O4 0.773781 0.921388 0.810095
O O5 0.657951 0.023702 0.881458
O O6 0.783881 0.112309 0.815739
O O7 0.491647 0.365963 0.599659
O O8 0.303572 0.331086 0.583702
O O9 0.376293 0.381075 0.701797
O O10 0.658516 0.158516 0.500000
O O11 0.500000 0.000000 0.944298
O O12 0.383964 0.883964 0.000000
O O13 0.734878 0.765123 0.736444
#
# Coordination Sequence:
#
# PCOD8314295 Si02
#       6
#     8  16  16   8   8  16
#     4  11  20  40  60  86 120 155 208 263 305 366
#     4  11  21  35  61  95 120 159 203 253 307 357
#     4  11  22  40  65  91 120 163 208 256 321 389
#     4  12  25  44  61  87 127 165 210 266 326 378
#     4  10  21  42  62  85 128 170 208 247 297 358
#     4  12  19  33  60  93 125 149 199 259 302 358
#
# _framework density 19.015796000000002
#
# number of rings (size 3 to 8) (size 9 to 14) (size 15 to 20)
#    0.000    0.778    7.778    2.667    0.000    1.556 
#    2.000    2.222    0.000    0.000    0.000    1.556 
#    0.000    0.000    0.000    0.000    0.000    0.000 
#
# Total GULP energy -892639.553274 kJ/mol
# GULP energy per Si atom -12397.771573 kJ/mol
# Density = 1.897251 g / cm^3
# Si number density = 19.015796 Si / 1000 Ang^3
#
#
#
# Elastic Constant Matrix: (Units=GPa)
#
#
# Indices 1 2 3 4 5 6 
#
# 1 115.4476 69.7311 35.2691 0.0000 0.0000 0.0000
# 2 69.7311 115.4476 35.2691 0.0000 0.0000 0.0000
# 3 35.2691 35.2691 114.6456 0.0000 0.0000 0.0000
# 4 0.0000 0.0000 0.0000 20.2992 0.0000 0.0000
# 5 0.0000 0.0000 0.0000 0.0000 20.2992 0.0000
# 6 0.0000 0.0000 0.0000 0.0000 0.0000 44.5808
#
#
#
# Elastic Compliance Matrix: (Units=1/GPa)
#
#
# Indices 1 2 3 4 5 6 
#
# 1 0.013995 -0.007878 -0.001882 0.000000 0.000000 0.000000
# 2 -0.007878 0.013995 -0.001882 0.000000 0.000000 0.000000
# 3 -0.001882 -0.001882 0.009880 0.000000 0.000000 0.000000
# 4 0.000000 0.000000 0.000000 0.049263 0.000000 0.000000
# 5 0.000000 0.000000 0.000000 0.000000 0.049263 0.000000
# 6 0.000000 0.000000 0.000000 0.000000 0.000000 0.022431
#
#
# Mechanical properties :
#
#
# Convention : Reuss Voigt Hill
#
# Bulk Modulus (GPa) = 68.55358 69.56437 69.05897
# Shear Modulus (GPa) = 26.74151 30.72059 28.73105
#
# Velocity S-wave (km/s) = 3.75411 4.02373 3.89125
# Velocity P-wave (km/s) = 7.41082 7.63210 7.52227
#
# Compressibility (1/GPa) = 0.01458713
#
# Stress axis : x y z
#
# Youngs Moduli (GPa) = 71.45166 71.45166 101.21095
#
# Poissons Ratio (x) = 0.56293 0.19046
# Poissons Ratio (y) = 0.56293 0.19046
# Poissons Ratio (z) = 0.13446 0.13446
#
# Static dielectric constant tensor:
#      x y z
#    x 3.717680 0.000000 0.000000 
#    y 0.000000 3.717680 0.000000 
#    z 0.000000 0.000000 3.220290 
# 
# 
# High freq. dielectric constant tensor:
#      x y z
#    x 1.747810 0.000000 0.000000 
#    y 0.000000 1.747810 0.000000 
#    z 0.000000 0.000000 1.707350 
# 
# From -- ./inp_files/4994.got.cif
#   From: 2010.03.12/outbox.cif.g09.slc.cpg/sg127_3_cif.got.tgz:4994.got - 2010.04.06 17:03:15.
