data_PCOD8314882
_publ_section_title
;
Structure prediction by ZEFSAII (Michael W. Deem and Ramdas Pophale) SiO2 
 PCOD8314882
Probable space group: P 4/N M M
;
_chemical_formula_sum "Si O2"
_cell_formula_units_Z 96
_cell_length_a 21.445629
_cell_length_b 21.445629
_cell_length_c 15.156428
_cell_angle_alpha 90.000000
_cell_angle_beta 90.000000
_cell_angle_gamma 90.000000
_cell_volume 6970.668632
_symmetry_space_group_name_H-M "P 4/N M M"
_symmetry_group_IT_number 129
_symmetry_cell_setting 'tetragonal'
loop_
_space_group_symop_operation_xyz
x,y,z
1/2-y,x,z
1/2-x,1/2-y,z
y,1/2-x,z
1/2+x,-y,-z
-x,1/2+y,-z
1/2+y,1/2+x,-z
-y,-x,-z
-x,-y,-z
1/2+y,-x,-z
1/2+x,1/2+y,-z
-y,1/2+x,-z
1/2-x,y,z
x,1/2-y,z
1/2-y,1/2-x,z
y,x,z
loop_
_atom_site_type_symbol
_atom_site_label
_atom_site_fract_x
_atom_site_fract_y
_atom_site_fract_z
Si Si1 0.089962 0.513756 0.437058
Si Si2 0.037911 0.934631 0.271764
Si Si3 0.422113 0.322154 0.885753
Si Si4 0.179672 0.419095 0.502779
Si Si5 0.918339 0.022649 0.078427
Si Si6 0.034255 0.318596 0.692585
O O1 0.072185 0.572185 0.500000
O O2 0.090567 0.534532 0.333937
O O3 0.157079 0.485202 0.461432
O O4 0.040241 0.459760 0.455244
O O5 0.060364 0.927206 0.170608
O O6 0.022032 0.867405 0.312400
O O7 0.974541 0.974541 0.275670
O O8 0.416604 0.250000 0.916765
O O9 0.361274 0.361274 0.918117
O O10 0.486345 0.351901 0.925459
O O11 0.424427 0.328304 0.780060
O O12 0.250000 0.408001 0.471022
O O13 0.138590 0.361410 0.467370
O O14 0.173957 0.421039 0.608556
O O15 0.926594 0.073407 0.000000
O O16 0.971023 0.971023 0.069999
O O17 0.003380 0.250000 0.693282
#
# Coordination Sequence:
#
# PCOD8314882 Si02
#       6
#    16  16  16  16  16  16
#     4   9  15  23  37  54  72  94 123 158 196 228
#     4   9  14  22  37  54  73  96 123 156 196 233
#     4   9  16  24  35  52  77 107 134 157 182 219
#     4  10  18  26  36  51  75 106 137 165 192 225
#     4   8  14  24  38  55  74  95 122 157 198 236
#     4   9  15  22  33  52  78 105 132 156 183 221
#
# _framework density 13.771993
#
# number of rings (size 3 to 8) (size 9 to 14) (size 15 to 20)
#    0.000    3.000    1.667    2.500    0.000    0.333 
#    0.000    0.000    0.000    4.000    0.000    0.000 
#    0.000    2.667    0.000   21.333    0.000    0.333 
#
# Total GULP energy -1189542.449568 kJ/mol
# GULP energy per Si atom -12391.067183 kJ/mol
# Density = 1.374065 g / cm^3
# Si number density = 13.771993 Si / 1000 Ang^3
#
#
#
# Elastic Constant Matrix: (Units=GPa)
#
#
# Indices 1 2 3 4 5 6 
#
# 1 60.7660 46.1453 32.1653 0.0000 0.0000 0.0000
# 2 46.1453 60.7657 32.1652 0.0000 0.0000 0.0000
# 3 32.1653 32.1652 62.6071 0.0000 0.0000 0.0000
# 4 0.0000 0.0000 0.0000 14.8961 0.0000 0.0000
# 5 0.0000 0.0000 0.0000 0.0000 14.8962 0.0000
# 6 0.0000 0.0000 0.0000 0.0000 0.0000 14.9101
#
#
#
# Elastic Compliance Matrix: (Units=1/GPa)
#
#
# Indices 1 2 3 4 5 6 
#
# 1 0.040968 -0.027429 -0.006956 0.000000 0.000000 0.000000
# 2 -0.027429 0.040968 -0.006956 0.000000 0.000000 0.000000
# 3 -0.006956 -0.006956 0.023120 0.000000 0.000000 0.000000
# 4 0.000000 0.000000 0.000000 0.067132 0.000000 0.000000
# 5 0.000000 0.000000 0.000000 0.000000 0.067131 0.000000
# 6 0.000000 0.000000 0.000000 0.000000 0.000000 0.067068
#
#
# Mechanical properties :
#
#
# Convention : Reuss Voigt Hill
#
# Bulk Modulus (GPa) = 44.69357 45.01005 44.85181
# Shear Modulus (GPa) = 12.60949 13.85134 13.23041
#
# Velocity S-wave (km/s) = 3.02915 3.17481 3.10284
# Velocity P-wave (km/s) = 6.69009 6.79651 6.74351
#
# Compressibility (1/GPa) = 0.02237458
#
# Stress axis : x y z
#
# Youngs Moduli (GPa) = 24.40942 24.40930 43.25269
#
# Poissons Ratio (x) = 0.66952 0.30086
# Poissons Ratio (y) = 0.66952 0.30086
# Poissons Ratio (z) = 0.16979 0.16979
#
# Static dielectric constant tensor:
#      x y z
#    x 2.615330 0.000000 0.000000 
#    y 0.000000 2.615330 0.000000 
#    z 0.000000 0.000000 2.804120 
# 
# 
# High freq. dielectric constant tensor:
#      x y z
#    x 1.496950 0.000000 0.000000 
#    y 0.000000 1.496950 0.000000 
#    z 0.000000 0.000000 1.512230 
# 
# From -- ./inp_files/4919.got.cif
#   From: 2010.03.12/outbox.cif.g09.slc.cpg/sg129_3_cif.got.tgz:4919.got - 2010.04.06 17:19:44.
