data_PCOD8314093
_publ_section_title
;
Structure prediction by ZEFSAII (Michael W. Deem and Ramdas Pophale) SiO2 
 PCOD8314093
Probable space group: P 4/M B M
;
_chemical_formula_sum "Si O2"
_cell_formula_units_Z 72
_cell_length_a 19.058718
_cell_length_b 19.058718
_cell_length_c 9.948855
_cell_angle_alpha 90.000000
_cell_angle_beta 90.000000
_cell_angle_gamma 90.000000
_cell_volume 3613.769678
_symmetry_space_group_name_H-M "P 4/M B M"
_symmetry_group_IT_number 127
_symmetry_cell_setting 'tetragonal'
loop_
_space_group_symop_operation_xyz
x,y,z
-y,x,z
-x,-y,z
y,-x,z
1/2+x,1/2-y,-z
1/2-x,1/2+y,-z
1/2+y,1/2+x,-z
1/2-y,1/2-x,-z
-x,-y,-z
y,-x,-z
x,y,-z
-y,x,-z
1/2-x,1/2+y,z
1/2+x,1/2-y,z
1/2-y,1/2-x,z
1/2+y,1/2+x,z
loop_
_atom_site_type_symbol
_atom_site_label
_atom_site_fract_x
_atom_site_fract_y
_atom_site_fract_z
Si Si1 0.441421 0.941421 0.845341
Si Si2 0.809404 0.116025 0.651562
Si Si3 0.261486 0.128591 0.342299
Si Si4 0.109087 0.964866 0.853751
Si Si5 0.815811 0.522845 0.346560
O O1 0.375988 0.972528 0.763893
O O2 0.500000 0.000000 0.849906
O O3 0.420850 0.920850 0.000000
O O4 0.837873 0.110316 0.500000
O O5 0.833966 0.190351 0.715745
O O6 0.838530 0.051092 0.735146
O O7 0.726582 0.097093 0.656633
O O8 0.257790 0.139961 0.500000
O O9 0.328208 0.171793 0.283677
O O10 0.269160 0.046146 0.307093
O O11 0.044246 0.913101 0.838342
O O12 0.144444 0.953069 0.000000
O O13 0.844984 0.512491 0.500000
#
# Coordination Sequence:
#
# PCOD8314093 Si02
#       5
#     8  16  16  16  16
#     4  11  25  43  63  87 117 153 199 256 307 348
#     4  10  20  33  55  85 114 145 189 241 293 349
#     4   9  18  33  54  81 116 153 189 236 297 359
#     4   9  18  32  49  71 105 151 195 232 279 339
#     4  10  21  37  61  90 118 154 198 241 296 365
#
# _framework density 19.923794999999998
#
# number of rings (size 3 to 8) (size 9 to 14) (size 15 to 20)
#    0.000    2.333    0.000    3.000    1.556    5.333 
#    0.000    2.222    0.000    1.333    0.000    0.000 
#    0.000    0.000    0.000    0.000    0.000    0.000 
#
# Total GULP energy -891956.246843 kJ/mol
# GULP energy per Si atom -12388.281206 kJ/mol
# Density = 1.987845 g / cm^3
# Si number density = 19.923795 Si / 1000 Ang^3
#
#
#
# Elastic Constant Matrix: (Units=GPa)
#
#
# Indices 1 2 3 4 5 6 
#
# 1 76.0844 50.7760 34.2118 0.0000 0.0000 0.0000
# 2 50.7760 76.0844 34.2118 0.0000 0.0000 0.0000
# 3 34.2118 34.2118 94.0609 0.0000 0.0000 0.0000
# 4 0.0000 0.0000 0.0000 15.4703 0.0000 0.0000
# 5 0.0000 0.0000 0.0000 0.0000 15.4703 0.0000
# 6 0.0000 0.0000 0.0000 0.0000 0.0000 36.4265
#
#
#
# Elastic Compliance Matrix: (Units=1/GPa)
#
#
# Indices 1 2 3 4 5 6 
#
# 1 0.024660 -0.014853 -0.003567 0.000000 0.000000 0.000000
# 2 -0.014853 0.024660 -0.003567 0.000000 0.000000 0.000000
# 3 -0.003567 -0.003567 0.013226 0.000000 0.000000 0.000000
# 4 0.000000 0.000000 0.000000 0.064640 0.000000 0.000000
# 5 0.000000 0.000000 0.000000 0.000000 0.064640 0.000000
# 6 0.000000 0.000000 0.000000 0.000000 0.000000 0.027453
#
#
# Mechanical properties :
#
#
# Convention : Reuss Voigt Hill
#
# Bulk Modulus (GPa) = 53.84516 53.84765 53.84640
# Shear Modulus (GPa) = 18.55691 21.94211 20.24951
#
# Velocity S-wave (km/s) = 3.05519 3.32219 3.19148
# Velocity P-wave (km/s) = 6.28727 6.46540 6.37696
#
# Compressibility (1/GPa) = 0.01857177
#
# Stress axis : x y z
#
# Youngs Moduli (GPa) = 40.55229 40.55229 75.60837
#
# Poissons Ratio (x) = 0.60232 0.26968
# Poissons Ratio (y) = 0.60232 0.26968
# Poissons Ratio (z) = 0.14464 0.14464
#
# Static dielectric constant tensor:
#      x y z
#    x 3.666280 0.000000 0.000000 
#    y 0.000000 3.666280 0.000000 
#    z 0.000000 0.000000 3.539550 
# 
# 
# High freq. dielectric constant tensor:
#      x y z
#    x 1.775580 0.000000 0.000000 
#    y 0.000000 1.775580 0.000000 
#    z 0.000000 0.000000 1.751600 
# 
# From -- ./inp_files/1586.got.cif
#   From: 2010.03.12/outbox.cif.g09.slc.cpg/sg127_1_cif.got.tgz:1586.got - 2010.04.06 17:03:15.
