data_PCOD8314787
_publ_section_title
;
Structure prediction by ZEFSAII (Michael W. Deem and Ramdas Pophale) SiO2 
 PCOD8314787
Probable space group: P 4/M N C
;
_chemical_formula_sum "Si O2"
_cell_formula_units_Z 72
_cell_length_a 11.230721
_cell_length_b 11.230721
_cell_length_c 26.554456
_cell_angle_alpha 90.000000
_cell_angle_beta 90.000000
_cell_angle_gamma 90.000000
_cell_volume 3349.289482
_symmetry_space_group_name_H-M "P 4/M N C"
_symmetry_group_IT_number 128
_symmetry_cell_setting 'tetragonal'
loop_
_space_group_symop_operation_xyz
x,y,z
-y,x,z
-x,-y,z
y,-x,z
1/2+x,1/2-y,1/2-z
1/2-x,1/2+y,1/2-z
1/2+y,1/2+x,1/2-z
1/2-y,1/2-x,1/2-z
-x,-y,-z
y,-x,-z
x,y,-z
-y,x,-z
1/2-x,1/2+y,1/2+z
1/2+x,1/2-y,1/2+z
1/2-y,1/2-x,1/2+z
1/2+y,1/2+x,1/2+z
loop_
_atom_site_type_symbol
_atom_site_label
_atom_site_fract_x
_atom_site_fract_y
_atom_site_fract_z
Si Si1 0.631198 0.646399 0.401629
Si Si2 0.841065 0.359022 0.331202
Si Si3 0.500000 0.000000 0.590224
Si Si4 0.954878 0.192421 0.742926
Si Si5 0.656892 0.043398 0.500000
Si Si6 0.730392 0.777151 0.000000
O O1 0.489762 0.665630 0.394736
O O2 0.696464 0.723847 0.358079
O O3 0.667303 0.698238 0.454560
O O4 0.908066 0.433029 0.374061
O O5 0.929020 0.256172 0.310667
O O6 0.792655 0.440676 0.285687
O O7 0.414464 0.927496 0.551694
O O8 0.087334 0.142057 0.747279
O O9 0.767351 0.133335 0.500000
O O10 0.692418 0.906894 0.500000
#
# Coordination Sequence:
#
# PCOD8314787 Si02
#       6
#    16  16   8  16   8   8
#     4  11  23  40  66 101 135 172 229 289 344 401
#     4  11  23  41  70  94 128 179 217 273 344 399
#     4  11  24  45  64 104 132 175 214 289 326 398
#     4  10  24  44  63  95 134 171 221 279 333 399
#     4  11  26  45  68  94 146 171 226 274 339 396
#     4  12  24  44  66  98 130 191 218 285 334 407
#
# _framework density 21.497095000000002
#
# number of rings (size 3 to 8) (size 9 to 14) (size 15 to 20)
#    0.000    1.111    2.222    3.333    3.111   11.778 
#    0.000    0.000    0.000    0.000    0.000    0.000 
#    0.000    0.000    0.000    0.000    0.000    0.000 
#
# Total GULP energy -892445.423334 kJ/mol
# GULP energy per Si atom -12395.075324 kJ/mol
# Density = 2.144817 g / cm^3
# Si number density = 21.497095 Si / 1000 Ang^3
#
#
#
# Elastic Constant Matrix: (Units=GPa)
#
#
# Indices 1 2 3 4 5 6 
#
# 1 62.4699 40.5367 39.6826 0.0000 0.0000 0.0000
# 2 40.5367 62.4699 39.6826 0.0000 0.0000 0.0000
# 3 39.6826 39.6826 143.3560 0.0000 0.0000 0.0000
# 4 0.0000 0.0000 0.0000 18.0507 0.0000 0.0000
# 5 0.0000 0.0000 0.0000 0.0000 18.0507 0.0000
# 6 0.0000 0.0000 0.0000 0.0000 0.0000 27.7156
#
#
#
# Elastic Compliance Matrix: (Units=1/GPa)
#
#
# Indices 1 2 3 4 5 6 
#
# 1 0.028967 -0.016627 -0.003416 0.000000 0.000000 0.000000
# 2 -0.016627 0.028967 -0.003416 0.000000 0.000000 0.000000
# 3 -0.003416 -0.003416 0.008867 0.000000 0.000000 0.000000
# 4 0.000000 0.000000 0.000000 0.055399 0.000000 0.000000
# 5 0.000000 0.000000 0.000000 0.000000 0.055399 0.000000
# 6 0.000000 0.000000 0.000000 0.000000 0.000000 0.036081
#
#
# Mechanical properties :
#
#
# Convention : Reuss Voigt Hill
#
# Bulk Modulus (GPa) = 50.29346 56.45550 53.37448
# Shear Modulus (GPa) = 18.71091 22.65633 20.68362
#
# Velocity S-wave (km/s) = 2.95344 3.24994 3.10523
# Velocity P-wave (km/s) = 5.92256 6.35624 6.14323
#
# Compressibility (1/GPa) = 0.01988330
#
# Stress axis : x y z
#
# Youngs Moduli (GPa) = 34.52260 34.52260 112.78105
#
# Poissons Ratio (x) = 0.57399 0.38524
# Poissons Ratio (y) = 0.57399 0.38524
# Poissons Ratio (z) = 0.11792 0.11792
#
# Static dielectric constant tensor:
#      x y z
#    x 4.006820 0.000000 0.000000 
#    y 0.000000 4.006820 0.000000 
#    z 0.000000 0.000000 4.253760 
# 
# 
# High freq. dielectric constant tensor:
#      x y z
#    x 1.841420 0.000000 0.000000 
#    y 0.000000 1.841420 0.000000 
#    z 0.000000 0.000000 1.865490 
# 
# From -- ./inp_files/6803.got.cif
#   From: 2010.03.12/outbox.cif.g09.slc.cpg/sg128_4_cif.got.tgz:6803.got - 2010.04.06 17:11:05.
