data_PCOD8314041
_publ_section_title
;
Structure prediction by ZEFSAII (Michael W. Deem and Ramdas Pophale) SiO2 
 PCOD8314041
Probable space group: P 4/M B M
;
_chemical_formula_sum "Si O2"
_cell_formula_units_Z 120
_cell_length_a 20.125430
_cell_length_b 20.125430
_cell_length_c 14.989673
_cell_angle_alpha 90.000000
_cell_angle_beta 90.000000
_cell_angle_gamma 90.000000
_cell_volume 6071.311215
_symmetry_space_group_name_H-M "P 4/M B M"
_symmetry_group_IT_number 127
_symmetry_cell_setting 'tetragonal'
loop_
_space_group_symop_operation_xyz
x,y,z
-y,x,z
-x,-y,z
y,-x,z
1/2+x,1/2-y,-z
1/2-x,1/2+y,-z
1/2+y,1/2+x,-z
1/2-y,1/2-x,-z
-x,-y,-z
y,-x,-z
x,y,-z
-y,x,-z
1/2-x,1/2+y,z
1/2+x,1/2-y,z
1/2-y,1/2-x,z
1/2+y,1/2+x,z
loop_
_atom_site_type_symbol
_atom_site_label
_atom_site_fract_x
_atom_site_fract_y
_atom_site_fract_z
Si Si1 0.652086 0.042131 0.317621
Si Si2 0.063334 0.915502 0.648205
Si Si3 0.801804 0.411696 0.240926
Si Si4 0.546351 0.692566 0.099543
Si Si5 0.866168 0.090694 0.829468
Si Si6 0.745809 0.651797 0.282589
Si Si7 0.106924 0.503572 0.500000
Si Si8 0.711099 0.360387 0.399371
O O1 0.586441 0.086441 0.296533
O O2 0.719224 0.084910 0.316895
O O3 0.657240 0.980824 0.248814
O O4 0.651521 0.008918 0.414292
O O5 0.076225 0.913336 0.754453
O O6 0.098830 0.857050 0.595959
O O7 0.986878 0.908162 0.619897
O O8 0.852404 0.352404 0.215884
O O9 0.749318 0.421950 0.161616
O O10 0.764289 0.394627 0.333479
O O11 0.598497 0.631473 0.091429
O O12 0.477913 0.664293 0.138440
O O13 0.534597 0.720953 0.000000
O O14 0.806811 0.135726 0.792745
O O15 0.800898 0.699103 0.237970
O O16 0.712733 0.691277 0.364980
O O17 0.078897 0.578897 0.500000
O O18 0.045748 0.454253 0.500000
O O19 0.740710 0.356068 0.500000
#
# Coordination Sequence:
#
# PCOD8314041 Si02
#       8
#    16  16  16  16  16  16   8  16
#     4  10  22  40  64  91 120 161 209 261 315 366
#     4  10  19  36  61  85 121 167 209 255 305 359
#     4  12  25  43  65  91 126 167 208 258 319 379
#     4  12  25  42  66  97 128 162 206 256 314 377
#     4  11  20  40  63  93 127 159 196 255 309 372
#     4  10  21  38  63  88 122 167 211 252 305 372
#     4   9  18  34  56  88 122 150 197 260 313 361
#     4  11  25  39  59  90 129 171 215 259 307 371
#
# _framework density 19.765087999999999
#
# number of rings (size 3 to 8) (size 9 to 14) (size 15 to 20)
#    0.000    1.267    5.333    1.200    3.733    2.933 
#    0.000    1.333    0.000    2.400    0.000    0.933 
#    0.000    0.000    0.000    0.000    0.000    0.000 
#
# Total GULP energy -1487408.916518 kJ/mol
# GULP energy per Si atom -12395.074304 kJ/mol
# Density = 1.972010 g / cm^3
# Si number density = 19.765088 Si / 1000 Ang^3
#
#
#
# Elastic Constant Matrix: (Units=GPa)
#
#
# Indices 1 2 3 4 5 6 
#
# 1 75.8834 75.5355 31.0309 0.0000 0.0000 0.0000
# 2 75.5355 75.8837 31.0309 0.0000 0.0000 0.0000
# 3 31.0309 31.0309 102.9205 0.0000 0.0000 0.0000
# 4 0.0000 0.0000 0.0000 11.4531 0.0000 0.0000
# 5 0.0000 0.0000 0.0000 0.0000 11.4536 0.0000
# 6 0.0000 0.0000 0.0000 0.0000 0.0000 42.2068
#
#
#
# Elastic Compliance Matrix: (Units=1/GPa)
#
#
# Indices 1 2 3 4 5 6 
#
# 1 1.440542 -1.433004 -0.002272 0.000000 0.000000 0.000000
# 2 -1.433004 1.440536 -0.002271 0.000000 0.000000 0.000000
# 3 -0.002272 -0.002271 0.011086 0.000000 0.000000 0.000000
# 4 0.000000 0.000000 0.000000 0.087313 0.000000 0.000000
# 5 0.000000 0.000000 0.000000 0.000000 0.087308 0.000000
# 6 0.000000 0.000000 0.000000 0.000000 0.000000 0.023693
#
#
# Mechanical properties :
#
#
# Convention : Reuss Voigt Hill
#
# Bulk Modulus (GPa) = 58.58498 58.87582 58.73040
# Shear Modulus (GPa) = 0.83734 20.82872 10.83303
#
# Velocity S-wave (km/s) = 0.65159 3.24977 2.34367
# Velocity P-wave (km/s) = 5.50192 6.62826 6.09118
#
# Compressibility (1/GPa) = 0.01706922
#
# Stress axis : x y z
#
# Youngs Moduli (GPa) = 0.69418 0.69419 90.20193
#
# Poissons Ratio (x) = 0.99477 0.20498
# Poissons Ratio (y) = 0.99477 0.20489
# Poissons Ratio (z) = 0.00158 0.00158
#
# Static dielectric constant tensor:
#      x y z
#    x 3.736140 0.000000 0.000000 
#    y 0.000000 3.736140 0.000000 
#    z 0.000000 0.000000 3.406390 
# 
# 
# High freq. dielectric constant tensor:
#      x y z
#    x 1.782700 0.000000 0.000000 
#    y 0.000000 1.782700 0.000000 
#    z 0.000000 0.000000 1.737390 
# 
# From -- ./inp_files/4672.got.cif
#   From: 2010.03.12/outbox.cif.g09.slc.cpg/sg127_3_cif.got.tgz:4672.got - 2010.04.06 17:03:15.
