data_PCOD8314229
_publ_section_title
;
Structure prediction by ZEFSAII (Michael W. Deem and Ramdas Pophale) SiO2 
 PCOD8314229
Probable space group: P 4/M B M
;
_chemical_formula_sum "Si O2"
_cell_formula_units_Z 120
_cell_length_a 26.494543
_cell_length_b 26.494543
_cell_length_c 8.919239
_cell_angle_alpha 90.000000
_cell_angle_beta 90.000000
_cell_angle_gamma 90.000000
_cell_volume 6260.956222
_symmetry_space_group_name_H-M "P 4/M B M"
_symmetry_group_IT_number 127
_symmetry_cell_setting 'tetragonal'
loop_
_space_group_symop_operation_xyz
x,y,z
-y,x,z
-x,-y,z
y,-x,z
1/2+x,1/2-y,-z
1/2-x,1/2+y,-z
1/2+y,1/2+x,-z
1/2-y,1/2-x,-z
-x,-y,-z
y,-x,-z
x,y,-z
-y,x,-z
1/2-x,1/2+y,z
1/2+x,1/2-y,z
1/2-y,1/2-x,z
1/2+y,1/2+x,z
loop_
_atom_site_type_symbol
_atom_site_label
_atom_site_fract_x
_atom_site_fract_y
_atom_site_fract_z
Si Si1 0.541905 0.958096 0.823706
Si Si2 0.588158 0.766843 0.823408
Si Si3 0.268580 0.684907 0.334196
Si Si4 0.513171 0.692729 0.673479
Si Si5 0.420425 0.502682 0.321893
Si Si6 0.025260 0.648699 0.322671
Si Si7 0.246954 0.337483 0.833326
Si Si8 0.435481 0.778051 0.330093
O O1 0.523617 0.905957 0.751465
O O2 0.500000 0.000000 0.787735
O O3 0.549549 0.950452 0.000000
O O4 0.645418 0.756254 0.778680
O O5 0.556103 0.718697 0.771841
O O6 0.571207 0.818426 0.742647
O O7 0.583374 0.774540 0.000000
O O8 0.278360 0.661502 0.500000
O O9 0.231551 0.731551 0.348267
O O10 0.321839 0.705136 0.268672
O O11 0.530761 0.692243 0.500000
O O12 0.504641 0.636626 0.739388
O O13 0.461510 0.723643 0.690053
O O14 0.448385 0.451775 0.264850
O O15 0.419275 0.501890 0.500000
O O16 0.033321 0.643715 0.500000
O O17 0.973287 0.677119 0.282851
O O18 0.206564 0.293437 0.835007
O O19 0.219203 0.387157 0.774271
O O20 0.267285 0.348018 0.000000
O O21 0.417725 0.786040 0.500000
#
# Coordination Sequence:
#
# PCOD8314229 Si02
#       8
#     8  16  16  16  16  16  16  16
#     4  11  25  43  63  91 125 155 189 239 297 351
#     4  11  22  36  56  82 114 147 183 230 287 344
#     4  10  21  37  57  80 108 143 183 225 272 329
#     4   9  18  33  52  77 108 142 185 230 272 328
#     4   8  14  26  47  76 107 140 182 232 282 329
#     4  10  22  41  63  86 114 151 197 239 281 343
#     4  10  21  36  54  79 111 145 182 226 276 330
#     4   9  19  35  55  80 109 145 189 234 279 331
#
# _framework density 19.166401
#
# number of rings (size 3 to 8) (size 9 to 14) (size 15 to 20)
#    0.000    2.333    0.000    3.800    0.933    6.400 
#    0.000    5.333    0.000    0.800    0.000    0.933 
#    0.000    0.000    0.000    0.000    0.000    0.000 
#
# Total GULP energy -1488014.328068 kJ/mol
# GULP energy per Si atom -12400.119401 kJ/mol
# Density = 1.912278 g / cm^3
# Si number density = 19.166401 Si / 1000 Ang^3
#
#
#
# Elastic Constant Matrix: (Units=GPa)
#
#
# Indices 1 2 3 4 5 6 
#
# 1 113.4421 34.1292 46.8740 0.0000 0.0000 0.0000
# 2 34.1292 113.4422 46.8739 0.0000 0.0000 0.0000
# 3 46.8740 46.8739 107.2776 0.0000 0.0000 0.0000
# 4 0.0000 0.0000 0.0000 22.3524 0.0000 0.0000
# 5 0.0000 0.0000 0.0000 0.0000 22.3524 0.0000
# 6 0.0000 0.0000 0.0000 0.0000 0.0000 13.5104
#
#
#
# Elastic Compliance Matrix: (Units=1/GPa)
#
#
# Indices 1 2 3 4 5 6 
#
# 1 0.010994 -0.001614 -0.004099 0.000000 0.000000 0.000000
# 2 -0.001614 0.010994 -0.004099 0.000000 0.000000 0.000000
# 3 -0.004099 -0.004099 0.012903 0.000000 0.000000 0.000000
# 4 0.000000 0.000000 0.000000 0.044738 0.000000 0.000000
# 5 0.000000 0.000000 0.000000 0.000000 0.044738 0.000000
# 6 0.000000 0.000000 0.000000 0.000000 0.000000 0.074017
#
#
# Mechanical properties :
#
#
# Convention : Reuss Voigt Hill
#
# Bulk Modulus (GPa) = 65.49113 65.54623 65.51868
# Shear Modulus (GPa) = 22.41183 25.39536 23.90360
#
# Velocity S-wave (km/s) = 3.42326 3.64400 3.53535
# Velocity P-wave (km/s) = 7.06179 7.20956 7.13605
#
# Compressibility (1/GPa) = 0.01526924
#
# Stress axis : x y z
#
# Youngs Moduli (GPa) = 90.95716 90.95736 77.49991
#
# Poissons Ratio (x) = 0.14682 0.31764
# Poissons Ratio (y) = 0.14682 0.31764
# Poissons Ratio (z) = 0.37279 0.37279
#
# Static dielectric constant tensor:
#      x y z
#    x 3.520300 0.000000 0.000000 
#    y 0.000000 3.520300 0.000000 
#    z 0.000000 0.000000 3.533100 
# 
# 
# High freq. dielectric constant tensor:
#      x y z
#    x 1.744100 0.000000 0.000000 
#    y 0.000000 1.744100 0.000000 
#    z 0.000000 0.000000 1.737140 
# 
# From -- ./inp_files/2392.got.cif
#   From: 2010.03.12/outbox.cif.g09.slc.cpg/sg127_2_cif.got.tgz:2392.got - 2010.04.06 17:03:15.
