data_PCOD8314830
_publ_section_title
;
Structure prediction by ZEFSAII (Michael W. Deem and Ramdas Pophale) SiO2 
 PCOD8314830
Probable space group: P 4/M N C
;
_chemical_formula_sum "Si O2"
_cell_formula_units_Z 48
_cell_length_a 9.522426
_cell_length_b 9.522426
_cell_length_c 25.724637
_cell_angle_alpha 90.000000
_cell_angle_beta 90.000000
_cell_angle_gamma 90.000000
_cell_volume 2332.622540
_symmetry_space_group_name_H-M "P 4/M N C"
_symmetry_group_IT_number 128
_symmetry_cell_setting 'tetragonal'
loop_
_space_group_symop_operation_xyz
x,y,z
-y,x,z
-x,-y,z
y,-x,z
1/2+x,1/2-y,1/2-z
1/2-x,1/2+y,1/2-z
1/2+y,1/2+x,1/2-z
1/2-y,1/2-x,1/2-z
-x,-y,-z
y,-x,-z
x,y,-z
-y,x,-z
1/2-x,1/2+y,1/2+z
1/2+x,1/2-y,1/2+z
1/2-y,1/2-x,1/2+z
1/2+y,1/2+x,1/2+z
loop_
_atom_site_type_symbol
_atom_site_label
_atom_site_fract_x
_atom_site_fract_y
_atom_site_fract_z
Si Si1 0.123266 0.801591 0.710455
Si Si2 0.626811 0.145657 0.441415
Si Si3 0.643725 0.829426 0.901506
O O1 0.191471 0.691471 0.750000
O O2 0.160215 0.741015 0.654298
O O3 0.955287 0.808515 0.718214
O O4 0.567246 0.135684 0.500000
O O5 0.730816 0.275566 0.437675
O O6 0.498221 0.160049 0.400731
O O7 0.712991 0.004983 0.426756
#
# Coordination Sequence:
#
# PCOD8314830 Si02
#       3
#    16  16  16
#     4  11  26  46  70 100 132 176 225 277 342 403
#     4  11  23  41  66  97 136 180 222 271 335 396
#     4  11  23  42  65  97 135 173 225 276 328 401
#
# _framework density 20.577698999999999
#
# number of rings (size 3 to 8) (size 9 to 14) (size 15 to 20)
#    0.000    1.000    3.333    4.000    4.667    2.000 
#    0.000    3.333    0.000    0.000    0.000    0.000 
#    0.000    0.000    0.000    0.000    0.000    0.000 
#
# Total GULP energy -595227.907851 kJ/mol
# GULP energy per Si atom -12400.581414 kJ/mol
# Density = 2.053086 g / cm^3
# Si number density = 20.577699 Si / 1000 Ang^3
#
#
#
# Elastic Constant Matrix: (Units=GPa)
#
#
# Indices 1 2 3 4 5 6 
#
# 1 108.6413 82.6737 50.2054 0.0000 0.0000 0.0000
# 2 82.6737 108.6413 50.2054 0.0000 0.0000 0.0000
# 3 50.2054 50.2054 118.1224 0.0000 0.0000 0.0000
# 4 0.0000 0.0000 0.0000 33.9031 0.0000 0.0000
# 5 0.0000 0.0000 0.0000 0.0000 33.9031 0.0000
# 6 0.0000 0.0000 0.0000 0.0000 0.0000 46.7470
#
#
#
# Elastic Compliance Matrix: (Units=1/GPa)
#
#
# Indices 1 2 3 4 5 6 
#
# 1 0.022619 -0.015891 -0.002859 0.000000 0.000000 0.000000
# 2 -0.015891 0.022619 -0.002859 0.000000 0.000000 0.000000
# 3 -0.002859 -0.002859 0.010897 0.000000 0.000000 0.000000
# 4 0.000000 0.000000 0.000000 0.029496 0.000000 0.000000
# 5 0.000000 0.000000 0.000000 0.000000 0.029496 0.000000
# 6 0.000000 0.000000 0.000000 0.000000 0.000000 0.021392
#
#
# Mechanical properties :
#
#
# Convention : Reuss Voigt Hill
#
# Bulk Modulus (GPa) = 77.43475 77.95264 77.69370
# Shear Modulus (GPa) = 27.16781 33.06537 30.11659
#
# Velocity S-wave (km/s) = 3.63747 4.01291 3.82979
# Velocity P-wave (km/s) = 7.44001 7.70945 7.57593
#
# Compressibility (1/GPa) = 0.01291410
#
# Stress axis : x y z
#
# Youngs Moduli (GPa) = 44.21143 44.21143 91.77234
#
# Poissons Ratio (x) = 0.70256 0.26242
# Poissons Ratio (y) = 0.70256 0.26242
# Poissons Ratio (z) = 0.12642 0.12642
#
# Static dielectric constant tensor:
#      x y z
#    x 3.752430 0.000000 0.000000 
#    y 0.000000 3.752430 0.000000 
#    z 0.000000 0.000000 3.634920 
# 
# 
# High freq. dielectric constant tensor:
#      x y z
#    x 1.811630 0.000000 0.000000 
#    y 0.000000 1.811630 0.000000 
#    z 0.000000 0.000000 1.804000 
# 
# From -- ./inp_files/6982.got.cif
#   From: 2010.03.12/outbox.cif.g09.slc.cpg/sg128_4_cif.got.tgz:6982.got - 2010.04.06 17:11:05.
