data_PCOD8314399
_publ_section_title
;
Structure prediction by ZEFSAII (Michael W. Deem and Ramdas Pophale) SiO2 
 PCOD8314399
Probable space group: P 4/M B M
;
_chemical_formula_sum "Si O2"
_cell_formula_units_Z 96
_cell_length_a 23.885991
_cell_length_b 23.885991
_cell_length_c 8.873663
_cell_angle_alpha 90.000000
_cell_angle_beta 90.000000
_cell_angle_gamma 90.000000
_cell_volume 5062.784711
_symmetry_space_group_name_H-M "P 4/M B M"
_symmetry_group_IT_number 127
_symmetry_cell_setting 'tetragonal'
loop_
_space_group_symop_operation_xyz
x,y,z
-y,x,z
-x,-y,z
y,-x,z
1/2+x,1/2-y,-z
1/2-x,1/2+y,-z
1/2+y,1/2+x,-z
1/2-y,1/2-x,-z
-x,-y,-z
y,-x,-z
x,y,-z
-y,x,-z
1/2-x,1/2+y,z
1/2+x,1/2-y,z
1/2-y,1/2-x,z
1/2+y,1/2+x,z
loop_
_atom_site_type_symbol
_atom_site_label
_atom_site_fract_x
_atom_site_fract_y
_atom_site_fract_z
Si Si1 0.134212 0.721029 0.821542
Si Si2 0.796880 0.071158 0.677958
Si Si3 0.032256 0.082707 0.320933
Si Si4 0.792420 0.490052 0.178028
Si Si5 0.000968 0.591179 0.673470
Si Si6 0.687401 0.279361 0.174808
O O1 0.167889 0.667889 0.753753
O O2 0.071700 0.721117 0.757430
O O3 0.165766 0.777883 0.775968
O O4 0.133598 0.715414 0.000000
O O5 0.796523 0.065388 0.500000
O O6 0.858423 0.055322 0.743775
O O7 0.778532 0.133162 0.722264
O O8 0.751309 0.030268 0.744995
O O9 0.032936 0.084085 0.500000
O O10 0.968421 0.071852 0.264415
O O11 0.855495 0.506189 0.220265
O O12 0.785348 0.494105 0.000000
O O13 0.004292 0.610228 0.500000
O O14 0.056782 0.556782 0.718041
O O15 0.947010 0.552991 0.700529
O O16 0.723712 0.223712 0.205501
O O17 0.670048 0.282335 0.000000
#
# Coordination Sequence:
#
# PCOD8314399 Si02
#       6
#    16  16  16  16  16  16
#     4   8  16  33  57  82 106 137 177 223 273 320
#     4  11  23  35  54  83 113 146 183 229 276 323
#     4   8  16  33  55  78 106 142 181 222 273 331
#     4  11  22  35  54  82 114 147 183 223 268 326
#     4   9  19  37  59  82 111 146 182 226 279 326
#     4   9  19  38  60  78 103 142 183 221 268 327
#
# _framework density 18.961895999999999
#
# number of rings (size 3 to 8) (size 9 to 14) (size 15 to 20)
#    0.000    2.667    0.000    3.500    2.333    2.333 
#    0.000    1.667    0.000    2.000    0.000    4.667 
#    0.000    0.000    0.000    0.000    0.000    0.000 
#
# Total GULP energy -1190226.421042 kJ/mol
# GULP energy per Si atom -12398.191886 kJ/mol
# Density = 1.891874 g / cm^3
# Si number density = 18.961896 Si / 1000 Ang^3
#
#
#
# Elastic Constant Matrix: (Units=GPa)
#
#
# Indices 1 2 3 4 5 6 
#
# 1 143.1925 74.0635 39.2959 0.0000 0.0000 0.0000
# 2 74.0635 143.1925 39.2959 0.0000 0.0000 0.0000
# 3 39.2959 39.2959 49.0159 0.0000 0.0000 0.0000
# 4 0.0000 0.0000 0.0000 6.2132 0.0000 0.0000
# 5 0.0000 0.0000 0.0000 0.0000 6.2132 0.0000
# 6 0.0000 0.0000 0.0000 0.0000 0.0000 24.0438
#
#
#
# Elastic Compliance Matrix: (Units=1/GPa)
#
#
# Indices 1 2 3 4 5 6 
#
# 1 0.010474 -0.003991 -0.005197 0.000000 0.000000 0.000000
# 2 -0.003991 0.010474 -0.005197 0.000000 0.000000 0.000000
# 3 -0.005197 -0.005197 0.028735 0.000000 0.000000 0.000000
# 4 0.000000 0.000000 0.000000 0.160948 0.000000 0.000000
# 5 0.000000 0.000000 0.000000 0.000000 0.160948 0.000000
# 6 0.000000 0.000000 0.000000 0.000000 0.000000 0.041591
#
#
# Mechanical properties :
#
#
# Convention : Reuss Voigt Hill
#
# Bulk Modulus (GPa) = 47.82080 71.19018 59.50549
# Shear Modulus (GPa) = 11.13802 19.47707 15.30754
#
# Velocity S-wave (km/s) = 2.42624 3.20842 2.84435
# Velocity P-wave (km/s) = 5.75526 7.16594 6.49899
#
# Compressibility (1/GPa) = 0.02091140
#
# Stress axis : x y z
#
# Youngs Moduli (GPa) = 95.47116 95.47116 34.80074
#
# Poissons Ratio (x) = 0.38106 0.18087
# Poissons Ratio (y) = 0.38106 0.18087
# Poissons Ratio (z) = 0.49620 0.49620
#
# Static dielectric constant tensor:
#      x y z
#    x 3.697910 0.000000 0.000000 
#    y 0.000000 3.697910 0.000000 
#    z 0.000000 0.000000 3.111420 
# 
# 
# High freq. dielectric constant tensor:
#      x y z
#    x 1.745650 0.000000 0.000000 
#    y 0.000000 1.745650 0.000000 
#    z 0.000000 0.000000 1.704200 
# 
# From -- ./inp_files/2003.got.cif
#   From: 2010.03.12/outbox.cif.g09.slc.cpg/sg127_2_cif.got.tgz:2003.got - 2010.04.06 17:03:15.
