data_PCOD8314488
_publ_section_title
;
Structure prediction by ZEFSAII (Michael W. Deem and Ramdas Pophale) SiO2 
 PCOD8314488
Probable space group: P 4/M N C
;
_chemical_formula_sum "Si O2"
_cell_formula_units_Z 112
_cell_length_a 17.579930
_cell_length_b 17.579930
_cell_length_c 23.600358
_cell_angle_alpha 90.000000
_cell_angle_beta 90.000000
_cell_angle_gamma 90.000000
_cell_volume 7293.783597
_symmetry_space_group_name_H-M "P 4/M N C"
_symmetry_group_IT_number 128
_symmetry_cell_setting 'tetragonal'
loop_
_space_group_symop_operation_xyz
x,y,z
-y,x,z
-x,-y,z
y,-x,z
1/2+x,1/2-y,1/2-z
1/2-x,1/2+y,1/2-z
1/2+y,1/2+x,1/2-z
1/2-y,1/2-x,1/2-z
-x,-y,-z
y,-x,-z
x,y,-z
-y,x,-z
1/2-x,1/2+y,1/2+z
1/2+x,1/2-y,1/2+z
1/2-y,1/2-x,1/2+z
1/2+y,1/2+x,1/2+z
loop_
_atom_site_type_symbol
_atom_site_label
_atom_site_fract_x
_atom_site_fract_y
_atom_site_fract_z
Si Si1 0.456994 0.384394 0.231569
Si Si2 0.184813 0.733017 0.809564
Si Si3 0.664073 0.668241 0.159473
Si Si4 0.280298 0.523721 0.329918
Si Si5 0.902732 0.075925 0.565243
Si Si6 0.760307 0.622455 0.261555
Si Si7 0.125122 0.997049 0.935619
O O1 0.543447 0.403452 0.219054
O O2 0.419869 0.322867 0.189080
O O3 0.451628 0.356677 0.296361
O O4 0.188127 0.688127 0.750000
O O5 0.246196 0.694647 0.852016
O O6 0.099567 0.728059 0.835088
O O7 0.210754 0.820096 0.800005
O O8 0.658431 0.624420 0.100163
O O9 0.719674 0.619168 0.200343
O O10 0.236683 0.458760 0.293482
O O11 0.303694 0.495126 0.392419
O O12 0.884346 0.089856 0.500000
O O13 0.987303 0.104373 0.580579
O O14 0.845660 0.654340 0.250000
O O15 0.076524 0.073141 0.925103
O O16 0.156657 0.996199 0.000000
#
# Coordination Sequence:
#
# PCOD8314488 Si02
#       7
#    16  16  16  16  16  16  16
#     4  11  18  22  39  74  94 109 145 180 223 285
#     4   9  18  30  41  67  95 119 154 189 246 281
#     4  10  17  29  41  62  97 125 148 186 224 279
#     4  12  17  30  48  64  90 126 157 197 232 279
#     4   9  18  30  44  66  98 129 149 174 220 282
#     4   9  19  31  44  67  96 120 150 191 243 282
#     4   9  18  29  41  64  98 128 150 182 231 284
#
# _framework density 15.355542
#
# number of rings (size 3 to 8) (size 9 to 14) (size 15 to 20)
#    0.000    2.429    4.286    3.429    0.000    2.286 
#    0.000    0.714    0.000    3.857    0.000    0.000 
#    0.000    0.000    0.000   13.857    0.000    0.286 
#
# Total GULP energy -1387709.108609 kJ/mol
# GULP energy per Si atom -12390.259898 kJ/mol
# Density = 1.532059 g / cm^3
# Si number density = 15.355542 Si / 1000 Ang^3
#
#
#
# Elastic Constant Matrix: (Units=GPa)
#
#
# Indices 1 2 3 4 5 6 
#
# 1 86.2802 29.7353 37.2185 0.0000 0.0000 0.0000
# 2 29.7353 86.2816 37.2193 0.0000 0.0000 0.0000
# 3 37.2185 37.2193 76.7064 0.0000 0.0000 0.0000
# 4 0.0000 0.0000 0.0000 22.3555 0.0000 0.0000
# 5 0.0000 0.0000 0.0000 0.0000 22.3555 0.0000
# 6 0.0000 0.0000 0.0000 0.0000 0.0000 14.2769
#
#
#
# Elastic Compliance Matrix: (Units=1/GPa)
#
#
# Indices 1 2 3 4 5 6 
#
# 1 0.015100 -0.002584 -0.006073 0.000000 0.000000 0.000000
# 2 -0.002584 0.015100 -0.006073 0.000000 0.000000 0.000000
# 3 -0.006073 -0.006073 0.018930 0.000000 0.000000 0.000000
# 4 0.000000 0.000000 0.000000 0.044732 0.000000 0.000000
# 5 0.000000 0.000000 0.000000 0.000000 0.044732 0.000000
# 6 0.000000 0.000000 0.000000 0.000000 0.000000 0.070043
#
#
# Mechanical properties :
#
#
# Convention : Reuss Voigt Hill
#
# Bulk Modulus (GPa) = 50.83798 50.84604 50.84201
# Shear Modulus (GPa) = 20.43699 21.47060 20.95380
#
# Velocity S-wave (km/s) = 3.65213 3.74335 3.69802
# Velocity P-wave (km/s) = 7.13885 7.20194 7.17047
#
# Compressibility (1/GPa) = 0.01967033
#
# Stress axis : x y z
#
# Youngs Moduli (GPa) = 66.22321 66.22378 52.82626
#
# Poissons Ratio (x) = 0.17115 0.32080
# Poissons Ratio (y) = 0.17115 0.32081
# Poissons Ratio (z) = 0.40216 0.40217
#
# Static dielectric constant tensor:
#      x y z
#    x 2.873920 0.000000 0.000000 
#    y 0.000000 2.873920 0.000000 
#    z 0.000000 0.000000 2.812660 
# 
# 
# High freq. dielectric constant tensor:
#      x y z
#    x 1.564830 0.000000 0.000000 
#    y 0.000000 1.564830 0.000000 
#    z 0.000000 0.000000 1.575180 
# 
# From -- ./inp_files/6564.got.cif
#   From: 2010.03.12/outbox.cif.g09.slc.cpg/sg128_4_cif.got.tgz:6564.got - 2010.04.06 17:11:05.
