data_PCOD8314798
_publ_section_title
;
Structure prediction by ZEFSAII (Michael W. Deem and Ramdas Pophale) SiO2 
 PCOD8314798
Probable space group: P 4/M N C
;
_chemical_formula_sum "Si O2"
_cell_formula_units_Z 104
_cell_length_a 17.524747
_cell_length_b 17.524747
_cell_length_c 16.705511
_cell_angle_alpha 90.000000
_cell_angle_beta 90.000000
_cell_angle_gamma 90.000000
_cell_volume 5130.542369
_symmetry_space_group_name_H-M "P 4/M N C"
_symmetry_group_IT_number 128
_symmetry_cell_setting 'tetragonal'
loop_
_space_group_symop_operation_xyz
x,y,z
-y,x,z
-x,-y,z
y,-x,z
1/2+x,1/2-y,1/2-z
1/2-x,1/2+y,1/2-z
1/2+y,1/2+x,1/2-z
1/2-y,1/2-x,1/2-z
-x,-y,-z
y,-x,-z
x,y,-z
-y,x,-z
1/2-x,1/2+y,1/2+z
1/2+x,1/2-y,1/2+z
1/2-y,1/2-x,1/2+z
1/2+y,1/2+x,1/2+z
loop_
_atom_site_type_symbol
_atom_site_label
_atom_site_fract_x
_atom_site_fract_y
_atom_site_fract_z
Si Si1 0.587635 0.007811 0.093148
Si Si2 0.719654 0.519809 0.790489
Si Si3 0.136259 0.335602 0.338873
Si Si4 0.105368 0.932887 0.500000
Si Si5 0.626635 0.645366 0.157357
Si Si6 0.763915 0.261462 0.593698
Si Si7 0.807712 0.400977 0.315942
O O1 0.632231 0.932491 0.119611
O O2 0.500000 0.000000 0.116677
O O3 0.621160 0.077632 0.142076
O O4 0.598877 0.022663 0.000000
O O5 0.787484 0.556728 0.844800
O O6 0.660992 0.462776 0.834874
O O7 0.664826 0.594049 0.770312
O O8 0.755820 0.470973 0.717716
O O9 0.170074 0.329926 0.250000
O O10 0.202951 0.306456 0.397986
O O11 0.148439 0.903139 0.421620
O O12 0.022657 0.895358 0.500000
O O13 0.665865 0.727464 0.146135
O O14 0.783467 0.272045 0.500000
O O15 0.750875 0.343773 0.635851
O O16 0.857251 0.357251 0.250000
#
# Coordination Sequence:
#
# PCOD8314798 Si02
#       7
#    16  16  16   8  16  16  16
#     4  11  25  42  62  92 128 163 206 263 324 385
#     4  11  24  38  61  91 122 164 213 261 309 375
#     4  11  23  43  65  91 123 170 214 263 321 387
#     4  11  20  34  56  84 126 167 199 249 316 387
#     4  11  22  38  58  90 126 162 206 258 314 381
#     4  11  24  39  62  93 127 164 209 266 328 391
#     4  12  23  40  64  91 121 166 215 264 314 379
#
# _framework density 20.270761
#
# number of rings (size 3 to 8) (size 9 to 14) (size 15 to 20)
#    0.000    0.846    5.385    2.308    2.154    0.308 
#    1.385    0.000    0.000    0.000    0.000    0.000 
#    0.000    1.231    0.000    0.000    0.000    0.000 
#
# Total GULP energy -1288634.001807 kJ/mol
# GULP energy per Si atom -12390.711556 kJ/mol
# Density = 2.022462 g / cm^3
# Si number density = 20.270761 Si / 1000 Ang^3
#
#
#
# Elastic Constant Matrix: (Units=GPa)
#
#
# Indices 1 2 3 4 5 6 
#
# 1 106.5086 38.6206 41.3824 0.0000 0.0000 0.0000
# 2 38.6206 106.5086 41.3824 0.0000 0.0000 0.0000
# 3 41.3824 41.3824 56.4213 0.0000 0.0000 0.0000
# 4 0.0000 0.0000 0.0000 29.5148 0.0000 0.0000
# 5 0.0000 0.0000 0.0000 0.0000 29.5148 0.0000
# 6 0.0000 0.0000 0.0000 0.0000 0.0000 37.6140
#
#
#
# Elastic Compliance Matrix: (Units=1/GPa)
#
#
# Indices 1 2 3 4 5 6 
#
# 1 0.013287 -0.001443 -0.008688 0.000000 0.000000 0.000000
# 2 -0.001443 0.013287 -0.008688 0.000000 0.000000 0.000000
# 3 -0.008688 -0.008688 0.030468 0.000000 0.000000 0.000000
# 4 0.000000 0.000000 0.000000 0.033881 0.000000 0.000000
# 5 0.000000 0.000000 0.000000 0.000000 0.033881 0.000000
# 6 0.000000 0.000000 0.000000 0.000000 0.000000 0.026586
#
#
# Mechanical properties :
#
#
# Convention : Reuss Voigt Hill
#
# Bulk Modulus (GPa) = 51.52813 56.91214 54.22014
# Shear Modulus (GPa) = 25.57599 29.19894 27.38746
#
# Velocity S-wave (km/s) = 3.55592 3.79944 3.67969
# Velocity P-wave (km/s) = 6.50650 6.88365 6.69773
#
# Compressibility (1/GPa) = 0.01940688
#
# Stress axis : x y z
#
# Youngs Moduli (GPa) = 75.25879 75.25879 32.82161
#
# Poissons Ratio (x) = 0.10857 0.28514
# Poissons Ratio (y) = 0.10857 0.28514
# Poissons Ratio (z) = 0.65382 0.65382
#
# Static dielectric constant tensor:
#      x y z
#    x 3.772460 0.000000 0.000000 
#    y 0.000000 3.772460 0.000000 
#    z 0.000000 0.000000 3.528330 
# 
# 
# High freq. dielectric constant tensor:
#      x y z
#    x 1.799920 0.000000 0.000000 
#    y 0.000000 1.799920 0.000000 
#    z 0.000000 0.000000 1.770340 
# 
# From -- ./inp_files/4885.got.cif
#   From: 2010.03.12/outbox.cif.g09.slc.cpg/sg128_3_cif.got.tgz:4885.got - 2010.04.06 17:11:05.
