data_PCOD8314441
_publ_section_title
;
Structure prediction by ZEFSAII (Michael W. Deem and Ramdas Pophale) SiO2 
 PCOD8314441
Probable space group: P 4/M B M
;
_chemical_formula_sum "Si O2"
_cell_formula_units_Z 48
_cell_length_a 11.702673
_cell_length_b 11.702673
_cell_length_c 16.881356
_cell_angle_alpha 90.000000
_cell_angle_beta 90.000000
_cell_angle_gamma 90.000000
_cell_volume 2311.944842
_symmetry_space_group_name_H-M "P 4/M B M"
_symmetry_group_IT_number 127
_symmetry_cell_setting 'tetragonal'
loop_
_space_group_symop_operation_xyz
x,y,z
-y,x,z
-x,-y,z
y,-x,z
1/2+x,1/2-y,-z
1/2-x,1/2+y,-z
1/2+y,1/2+x,-z
1/2-y,1/2-x,-z
-x,-y,-z
y,-x,-z
x,y,-z
-y,x,-z
1/2-x,1/2+y,z
1/2+x,1/2-y,z
1/2-y,1/2-x,z
1/2+y,1/2+x,z
loop_
_atom_site_type_symbol
_atom_site_label
_atom_site_fract_x
_atom_site_fract_y
_atom_site_fract_z
Si Si1 0.968430 0.814673 0.000000
Si Si2 0.595120 0.904881 0.408815
Si Si3 0.682905 0.001520 0.156853
Si Si4 0.315763 0.528934 0.312219
O O1 0.951101 0.739486 0.077668
O O2 0.869261 0.907227 0.000000
O O3 0.620854 0.879147 0.500000
O O4 0.548694 0.790228 0.369406
O O5 0.500000 0.000000 0.397064
O O6 0.610302 0.889699 0.135299
O O7 0.600786 0.100786 0.191976
O O8 0.777922 0.966964 0.220797
O O9 0.370882 0.405952 0.329336
#
# Coordination Sequence:
#
# PCOD8314441 Si02
#       4
#     8   8  16  16
#     4  11  24  39  56  86 128 173 224 278 329 387
#     4  11  26  46  72 102 136 176 219 274 342 410
#     4  11  23  39  63  93 129 171 224 276 333 393
#     4  11  25  44  70 102 136 177 225 277 334 401
#
# _framework density 20.761742000000002
#
# number of rings (size 3 to 8) (size 9 to 14) (size 15 to 20)
#    0.000    1.000    1.667    4.000    4.667   10.667 
#    0.000    1.667    0.000    0.000    0.000    0.000 
#    0.000    0.000    0.000    0.000    0.000    0.000 
#
# Total GULP energy -595517.665122 kJ/mol
# GULP energy per Si atom -12406.618023 kJ/mol
# Density = 2.071449 g / cm^3
# Si number density = 20.761742 Si / 1000 Ang^3
#
#
#
# Elastic Constant Matrix: (Units=GPa)
#
#
# Indices 1 2 3 4 5 6 
#
# 1 113.4851 40.8305 50.1646 0.0000 0.0000 0.0000
# 2 40.8305 113.4854 50.1646 0.0000 0.0000 0.0000
# 3 50.1646 50.1646 145.8542 0.0000 0.0000 0.0000
# 4 0.0000 0.0000 0.0000 -10.4795 0.0000 0.0000
# 5 0.0000 0.0000 0.0000 0.0000 -10.4850 0.0000
# 6 0.0000 0.0000 0.0000 0.0000 0.0000 19.7289
#
#
#
# Elastic Compliance Matrix: (Units=1/GPa)
#
#
# Indices 1 2 3 4 5 6 
#
# 1 0.011055 -0.002709 -0.002871 0.000000 0.000000 0.000000
# 2 -0.002709 0.011055 -0.002871 0.000000 0.000000 0.000000
# 3 -0.002871 -0.002871 0.008831 0.000000 0.000000 0.000000
# 4 0.000000 0.000000 0.000000 -0.095424 0.000000 0.000000
# 5 0.000000 0.000000 0.000000 0.000000 -0.095374 0.000000
# 6 0.000000 0.000000 0.000000 0.000000 0.000000 0.050687
#
#
# Mechanical properties :
#
#
# Convention : Reuss Voigt Hill
#
# Bulk Modulus (GPa) = 71.21867 72.79377 72.00622
# Shear Modulus (GPa) = -57.08424 15.19720 -20.94352
#
# Velocity S-wave (km/s) = -5.24925 2.70845 -3.17954
# Velocity P-wave (km/s) = 1.53693 6.70213 4.61283
#
# Compressibility (1/GPa) = 0.01404126
#
# Stress axis : x y z
#
# Youngs Moduli (GPa) = 90.45521 90.45550 113.23938
#
# Poissons Ratio (x) = 0.24500 0.32508
# Poissons Ratio (y) = 0.24500 0.32508
# Poissons Ratio (z) = 0.25967 0.25967
#
# Static dielectric constant tensor:
#      x y z
#    x 3.905590 0.000000 0.000000 
#    y 0.000000 3.905590 0.000000 
#    z 0.000000 0.000000 3.699100 
# 
# 
# High freq. dielectric constant tensor:
#      x y z
#    x 1.828380 0.000000 0.000000 
#    y 0.000000 1.828380 0.000000 
#    z 0.000000 0.000000 1.808940 
# 
# From -- ./inp_files/4796.got.cif
#   From: 2010.03.12/outbox.cif.g09.slc.cpg/sg127_3_cif.got.tgz:4796.got - 2010.04.06 17:03:15.
