data_PCOD8314556
_publ_section_title
;
Structure prediction by ZEFSAII (Michael W. Deem and Ramdas Pophale) SiO2 
 PCOD8314556
Probable space group: P 4/M N C
;
_chemical_formula_sum "Si O2"
_cell_formula_units_Z 96
_cell_length_a 25.580893
_cell_length_b 25.580893
_cell_length_c 8.427031
_cell_angle_alpha 90.000000
_cell_angle_beta 90.000000
_cell_angle_gamma 90.000000
_cell_volume 5514.498130
_symmetry_space_group_name_H-M "P 4/M N C"
_symmetry_group_IT_number 128
_symmetry_cell_setting 'tetragonal'
loop_
_space_group_symop_operation_xyz
x,y,z
-y,x,z
-x,-y,z
y,-x,z
1/2+x,1/2-y,1/2-z
1/2-x,1/2+y,1/2-z
1/2+y,1/2+x,1/2-z
1/2-y,1/2-x,1/2-z
-x,-y,-z
y,-x,-z
x,y,-z
-y,x,-z
1/2-x,1/2+y,1/2+z
1/2+x,1/2-y,1/2+z
1/2-y,1/2-x,1/2+z
1/2+y,1/2+x,1/2+z
loop_
_atom_site_type_symbol
_atom_site_label
_atom_site_fract_x
_atom_site_fract_y
_atom_site_fract_z
Si Si1 0.739687 0.841656 0.312224
Si Si2 0.880197 0.051539 0.817790
Si Si3 0.745224 0.453921 0.316589
Si Si4 0.940636 0.769219 0.313561
Si Si5 0.366795 0.550773 0.817066
Si Si6 0.757868 0.177730 0.686456
O O1 0.690852 0.809148 0.250000
O O2 0.739716 0.844028 0.500000
O O3 0.730253 0.900291 0.249380
O O4 0.793724 0.811944 0.254004
O O5 0.818469 0.048255 0.797531
O O6 0.897525 0.099798 0.709628
O O7 0.902730 0.997634 0.743770
O O8 0.897079 0.058392 0.000000
O O9 0.759414 0.459178 0.500000
O O10 0.766345 0.507857 0.229193
O O11 0.683824 0.445674 0.291204
O O12 0.941228 0.782539 0.500000
O O13 0.882977 0.749846 0.260967
O O14 0.350180 0.545232 0.000000
O O15 0.707379 0.207379 0.750000
O O16 0.757237 0.181600 0.500000
#
# Coordination Sequence:
#
# PCOD8314556 Si02
#       6
#    16  16  16  16  16  16
#     4  10  19  33  51  74 102 133 166 205 248 298
#     4  11  21  33  47  65  85 111 149 195 239 282
#     4  11  21  33  49  71  95 125 161 200 241 285
#     4  10  19  33  50  70  95 127 160 194 237 289
#     4  11  21  34  48  63  84 115 151 191 238 287
#     4   9  19  32  50  73  99 129 163 199 243 291
#
# _framework density 17.408656000000001
#
# number of rings (size 3 to 8) (size 9 to 14) (size 15 to 20)
#    0.000    1.667    0.000    8.500    0.000    3.667 
#    0.000    1.667    0.000    0.000    0.000    0.000 
#    0.000    0.667    0.000    7.000    0.000    3.833 
#
# Total GULP energy -1189259.529034 kJ/mol
# GULP energy per Si atom -12388.120094 kJ/mol
# Density = 1.736903 g / cm^3
# Si number density = 17.408656 Si / 1000 Ang^3
#
#
#
# Elastic Constant Matrix: (Units=GPa)
#
#
# Indices 1 2 3 4 5 6 
#
# 1 99.4505 14.2965 21.4119 0.0000 0.0000 0.0000
# 2 14.2965 99.4505 21.4119 0.0000 0.0000 0.0000
# 3 21.4119 21.4119 74.0705 0.0000 0.0000 0.0000
# 4 0.0000 0.0000 0.0000 25.7815 0.0000 0.0000
# 5 0.0000 0.0000 0.0000 0.0000 25.7815 0.0000
# 6 0.0000 0.0000 0.0000 0.0000 0.0000 22.1546
#
#
#
# Elastic Compliance Matrix: (Units=1/GPa)
#
#
# Indices 1 2 3 4 5 6 
#
# 1 0.010804 -0.000939 -0.002852 0.000000 0.000000 0.000000
# 2 -0.000939 0.010804 -0.002852 0.000000 0.000000 0.000000
# 3 -0.002852 -0.002852 0.015149 0.000000 0.000000 0.000000
# 4 0.000000 0.000000 0.000000 0.038787 0.000000 0.000000
# 5 0.000000 0.000000 0.000000 0.000000 0.038787 0.000000
# 6 0.000000 0.000000 0.000000 0.000000 0.000000 0.045137
#
#
# Mechanical properties :
#
#
# Convention : Reuss Voigt Hill
#
# Bulk Modulus (GPa) = 42.60295 43.02358 42.81327
# Shear Modulus (GPa) = 27.68861 29.13361 28.41111
#
# Velocity S-wave (km/s) = 3.99244 4.09530 4.04420
# Velocity P-wave (km/s) = 6.76596 6.86509 6.81571
#
# Compressibility (1/GPa) = 0.02347255
#
# Stress axis : x y z
#
# Youngs Moduli (GPa) = 92.55614 92.55614 66.00925
#
# Poissons Ratio (x) = 0.08693 0.18824
# Poissons Ratio (y) = 0.08693 0.18824
# Poissons Ratio (z) = 0.26395 0.26395
#
# Static dielectric constant tensor:
#      x y z
#    x 3.238250 0.000000 0.000000 
#    y 0.000000 3.238250 0.000000 
#    z 0.000000 0.000000 3.188990 
# 
# 
# High freq. dielectric constant tensor:
#      x y z
#    x 1.648720 0.000000 0.000000 
#    y 0.000000 1.648720 0.000000 
#    z 0.000000 0.000000 1.683910 
# 
# From -- ./inp_files/1510.got.cif
#   From: 2010.03.12/outbox.cif.g09.slc.cpg/sg128_1_cif.got.tgz:1510.got - 2010.04.06 17:11:05.
