data_PCOD8314775
_publ_section_title
;
Structure prediction by ZEFSAII (Michael W. Deem and Ramdas Pophale) SiO2 
 PCOD8314775
Probable space group: P 4/M N C
;
_chemical_formula_sum "Si O2"
_cell_formula_units_Z 88
_cell_length_a 11.491253
_cell_length_b 11.491253
_cell_length_c 36.055308
_cell_angle_alpha 90.000000
_cell_angle_beta 90.000000
_cell_angle_gamma 90.000000
_cell_volume 4761.063599
_symmetry_space_group_name_H-M "P 4/M N C"
_symmetry_group_IT_number 128
_symmetry_cell_setting 'tetragonal'
loop_
_space_group_symop_operation_xyz
x,y,z
-y,x,z
-x,-y,z
y,-x,z
1/2+x,1/2-y,1/2-z
1/2-x,1/2+y,1/2-z
1/2+y,1/2+x,1/2-z
1/2-y,1/2-x,1/2-z
-x,-y,-z
y,-x,-z
x,y,-z
-y,x,-z
1/2-x,1/2+y,1/2+z
1/2+x,1/2-y,1/2+z
1/2-y,1/2-x,1/2+z
1/2+y,1/2+x,1/2+z
loop_
_atom_site_type_symbol
_atom_site_label
_atom_site_fract_x
_atom_site_fract_y
_atom_site_fract_z
Si Si1 0.515048 0.687187 0.736130
Si Si2 0.345623 0.816322 0.360046
Si Si3 0.781445 0.409506 0.659162
Si Si4 0.823673 0.072521 0.500000
Si Si5 0.498794 0.864639 0.199848
Si Si6 0.926277 0.820120 0.419496
O O1 0.394829 0.623518 0.745382
O O2 0.522334 0.721722 0.693325
O O3 0.518425 0.800509 0.761474
O O4 0.303484 0.682787 0.359853
O O5 0.484912 0.815339 0.368958
O O6 0.324892 0.879360 0.320177
O O7 0.278605 0.889530 0.390906
O O8 0.894740 0.337308 0.671974
O O9 0.761879 0.098006 0.460416
O O10 0.938164 0.148255 0.500000
O O11 0.500000 0.000000 0.209083
O O12 0.062456 0.850728 0.414002
#
# Coordination Sequence:
#
# PCOD8314775 Si02
#       6
#    16  16  16   8  16  16
#     4  11  22  38  56  72  97 135 181 230 272 334
#     4  11  22  36  55  76 106 143 183 223 268 330
#     4  11  22  38  53  71 104 138 178 226 275 331
#     4   7  12  26  52  86 118 147 172 206 265 327
#     4  10  23  37  53  78 100 130 173 230 292 331
#     4   9  17  32  57  88 119 145 176 219 269 324
#
# _framework density 18.483266
#
# number of rings (size 3 to 8) (size 9 to 14) (size 15 to 20)
#    0.000    1.909    1.818    3.818    0.000    5.455 
#    0.000    1.818    0.000    1.091    0.000    9.545 
#    0.000    1.455    0.000    0.000    0.000    0.000 
#
# Total GULP energy -1090627.610302 kJ/mol
# GULP energy per Si atom -12393.495572 kJ/mol
# Density = 1.844120 g / cm^3
# Si number density = 18.483266 Si / 1000 Ang^3
#
#
#
# Elastic Constant Matrix: (Units=GPa)
#
#
# Indices 1 2 3 4 5 6 
#
# 1 79.6501 22.7828 35.4662 0.0000 0.0000 0.0000
# 2 22.7828 79.6501 35.4662 0.0000 0.0000 0.0000
# 3 35.4662 35.4662 86.6203 0.0000 0.0000 0.0000
# 4 0.0000 0.0000 0.0000 20.0800 0.0000 0.0000
# 5 0.0000 0.0000 0.0000 0.0000 20.0800 0.0000
# 6 0.0000 0.0000 0.0000 0.0000 0.0000 18.1982
#
#
#
# Elastic Compliance Matrix: (Units=1/GPa)
#
#
# Indices 1 2 3 4 5 6 
#
# 1 0.015605 -0.001979 -0.005579 0.000000 0.000000 0.000000
# 2 -0.001979 0.015605 -0.005579 0.000000 0.000000 0.000000
# 3 -0.005579 -0.005579 0.016113 0.000000 0.000000 0.000000
# 4 0.000000 0.000000 0.000000 0.049801 0.000000 0.000000
# 5 0.000000 0.000000 0.000000 0.000000 0.049801 0.000000
# 6 0.000000 0.000000 0.000000 0.000000 0.000000 0.054950
#
#
# Mechanical properties :
#
#
# Convention : Reuss Voigt Hill
#
# Bulk Modulus (GPa) = 47.50864 48.15012 47.82938
# Shear Modulus (GPa) = 21.26146 21.81866 21.54006
#
# Velocity S-wave (km/s) = 3.39530 3.43950 3.41747
# Velocity P-wave (km/s) = 6.41328 6.47154 6.44247
#
# Compressibility (1/GPa) = 0.02104880
#
# Stress axis : x y z
#
# Youngs Moduli (GPa) = 64.08075 64.08075 62.06073
#
# Poissons Ratio (x) = 0.12685 0.34624
# Poissons Ratio (y) = 0.12685 0.34624
# Poissons Ratio (z) = 0.35751 0.35751
#
# Static dielectric constant tensor:
#      x y z
#    x 3.499380 0.000000 0.000000 
#    y 0.000000 3.499380 0.000000 
#    z 0.000000 0.000000 3.370120 
# 
# 
# High freq. dielectric constant tensor:
#      x y z
#    x 1.715370 0.000000 0.000000 
#    y 0.000000 1.715370 0.000000 
#    z 0.000000 0.000000 1.686070 
# 
# From -- ./inp_files/7272.got.cif
#   From: 2010.03.12/outbox.cif.g09.slc.cpg/sg128_4_cif.got.tgz:7272.got - 2010.04.06 17:11:05.
