data_PCOD8314829
_publ_section_title
;
Structure prediction by ZEFSAII (Michael W. Deem and Ramdas Pophale) SiO2 
 PCOD8314829
Probable space group: P 4/M N C
;
_chemical_formula_sum "Si O2"
_cell_formula_units_Z 116
_cell_length_a 18.096950
_cell_length_b 18.096950
_cell_length_c 15.940988
_cell_angle_alpha 90.000000
_cell_angle_beta 90.000000
_cell_angle_gamma 90.000000
_cell_volume 5220.667182
_symmetry_space_group_name_H-M "P 4/M N C"
_symmetry_group_IT_number 128
_symmetry_cell_setting 'tetragonal'
loop_
_space_group_symop_operation_xyz
x,y,z
-y,x,z
-x,-y,z
y,-x,z
1/2+x,1/2-y,1/2-z
1/2-x,1/2+y,1/2-z
1/2+y,1/2+x,1/2-z
1/2-y,1/2-x,1/2-z
-x,-y,-z
y,-x,-z
x,y,-z
-y,x,-z
1/2-x,1/2+y,1/2+z
1/2+x,1/2-y,1/2+z
1/2-y,1/2-x,1/2+z
1/2+y,1/2+x,1/2+z
loop_
_atom_site_type_symbol
_atom_site_label
_atom_site_fract_x
_atom_site_fract_y
_atom_site_fract_z
Si Si1 0.352312 1.000000 0.352437
Si Si2 0.000000 0.500000 0.750000
Si Si3 0.083301 0.083300 0.400191
Si Si4 0.201615 0.798385 0.399763
Si Si5 0.275647 1.000000 0.814654
Si Si6 0.658344 0.139441 0.906263
Si Si7 0.878902 1.000000 0.096718
Si Si8 0.841656 0.360559 0.593737
O O1 0.350714 0.070504 0.412219
O O2 0.428525 1.000000 0.305229
O O3 0.284071 1.000000 0.285943
O O4 0.350714 0.929496 0.412219
O O5 0.085698 0.085698 0.500000
O O6 0.142289 0.142288 0.362675
O O7 0.000000 0.103595 0.369566
O O8 0.197862 0.802137 0.500000
O O9 0.283993 0.813269 0.366836
O O10 0.186731 0.716006 0.366836
O O11 0.316826 0.927493 0.848269
O O12 0.190262 0.000000 0.841034
O O13 0.316826 0.072507 0.848269
O O14 0.689382 0.125864 0.000000
O O15 0.927139 0.072861 0.114818
O O16 0.852162 0.000000 0.000000
O O17 0.810619 0.374137 0.500000
#
# Coordination Sequence:
#
# PCOD8314829 Si02
#       8
#    16   4  16  16  16  16  16  16
#     4  12  23  43  62  88 126 173 208 252 309 377
#     4  12  20  44  62  72 124 156 214 252 296 372
#     4   8  14  27  50  79 112 152 193 238 299 361
#     4   9  21  36  56  91 127 153 198 261 312 361
#     4  12  23  40  63  95 129 164 206 260 325 379
#     4  11  23  40  64  94 124 164 212 260 312 373
#     4   9  20  40  67  95 122 160 210 264 320 375
#     4  11  23  40  64  94 124 164 212 260 312 373
#
# _framework density 22.219383000000001
#
# number of rings (size 3 to 8) (size 9 to 14) (size 15 to 20)
#    0.000    1.655    2.759    2.483    3.862    0.000 
#    2.483    3.448    0.000    0.000    0.000    0.000 
#    0.000    0.000    0.000    0.000    0.000    0.000 
#
# Total GULP energy -1438221.523606 kJ/mol
# GULP energy per Si atom -12398.461410 kJ/mol
# Density = 2.216881 g / cm^3
# Si number density = 22.219383 Si / 1000 Ang^3
#
#
#
# Elastic Constant Matrix: (Units=GPa)
#
#
# Indices 1 2 3 4 5 6 
#
# 1 153.3871 45.3827 7.5570 0.0000 0.0000 0.0000
# 2 45.3827 153.3871 7.5570 0.0000 0.0000 0.0000
# 3 7.5570 7.5570 35.9388 0.0000 0.0000 0.0000
# 4 0.0000 0.0000 0.0000 11.1489 0.0000 0.0000
# 5 0.0000 0.0000 0.0000 0.0000 11.1489 0.0000
# 6 0.0000 0.0000 0.0000 0.0000 0.0000 29.8057
#
#
#
# Elastic Compliance Matrix: (Units=1/GPa)
#
#
# Indices 1 2 3 4 5 6 
#
# 1 0.007186 -0.002073 -0.001075 0.000000 0.000000 0.000000
# 2 -0.002073 0.007186 -0.001075 0.000000 0.000000 0.000000
# 3 -0.001075 -0.001075 0.028277 0.000000 0.000000 0.000000
# 4 0.000000 0.000000 0.000000 0.089695 0.000000 0.000000
# 5 0.000000 0.000000 0.000000 0.000000 0.089695 0.000000
# 6 0.000000 0.000000 0.000000 0.000000 0.000000 0.033551
#
#
# Mechanical properties :
#
#
# Convention : Reuss Voigt Hill
#
# Bulk Modulus (GPa) = 29.23778 51.52294 40.38036
# Shear Modulus (GPa) = 18.15297 29.23511 23.69404
#
# Velocity S-wave (km/s) = 2.86140 3.63126 3.26907
# Velocity P-wave (km/s) = 4.90959 6.38905 5.69755
#
# Compressibility (1/GPa) = 0.03420232
#
# Stress axis : x y z
#
# Youngs Moduli (GPa) = 139.16363 139.16363 35.36418
#
# Poissons Ratio (x) = 0.28850 0.03802
# Poissons Ratio (y) = 0.28850 0.03802
# Poissons Ratio (z) = 0.14961 0.14961
#
# Static dielectric constant tensor:
#      x y z
#    x 4.198050 0.000000 0.000000 
#    y 0.000000 4.198050 0.000000 
#    z 0.000000 0.000000 3.549210 
# 
# 
# High freq. dielectric constant tensor:
#      x y z
#    x 1.885990 0.000000 0.000000 
#    y 0.000000 1.885990 0.000000 
#    z 0.000000 0.000000 1.843610 
# 
# From -- ./inp_files/4959.got.cif
#   From: 2010.03.12/outbox.cif.g09.slc.cpg/sg128_3_cif.got.tgz:4959.got - 2010.04.06 17:11:05.
