data_PCOD8314942
_publ_section_title
;
Structure prediction by ZEFSAII (Michael W. Deem and Ramdas Pophale) SiO2 
 PCOD8314942
Probable space group: P 4/N M M
;
_chemical_formula_sum "Si O2"
_cell_formula_units_Z 112
_cell_length_a 19.859587
_cell_length_b 19.859587
_cell_length_c 17.376640
_cell_angle_alpha 90.000000
_cell_angle_beta 90.000000
_cell_angle_gamma 90.000000
_cell_volume 6853.402348
_symmetry_space_group_name_H-M "P 4/N M M"
_symmetry_group_IT_number 129
_symmetry_cell_setting 'tetragonal'
loop_
_space_group_symop_operation_xyz
x,y,z
1/2-y,x,z
1/2-x,1/2-y,z
y,1/2-x,z
1/2+x,-y,-z
-x,1/2+y,-z
1/2+y,1/2+x,-z
-y,-x,-z
-x,-y,-z
1/2+y,-x,-z
1/2+x,1/2+y,-z
-y,1/2+x,-z
1/2-x,y,z
x,1/2-y,z
1/2-y,1/2-x,z
y,x,z
loop_
_atom_site_type_symbol
_atom_site_label
_atom_site_fract_x
_atom_site_fract_y
_atom_site_fract_z
Si Si1 0.574599 0.172335 0.602994
Si Si2 0.504482 0.391137 0.019104
Si Si3 0.490313 0.601008 0.257763
Si Si4 0.108335 0.997239 0.188956
Si Si5 0.437632 0.327341 0.881449
Si Si6 0.056433 0.673337 0.571264
Si Si7 0.327320 0.436666 0.326428
O O1 0.595272 0.250000 0.619466
O O2 0.522418 0.146466 0.666970
O O3 0.540785 0.165698 0.519088
O O4 0.640187 0.125354 0.600840
O O5 0.447956 0.447956 0.014820
O O6 0.511424 0.359019 0.104410
O O7 0.576691 0.423310 0.000000
O O8 0.485312 0.334690 0.956572
O O9 0.540972 0.540972 0.281252
O O10 0.418890 0.572352 0.226107
O O11 0.522100 0.647898 0.192859
O O12 0.164473 0.032721 0.241172
O O13 0.042213 0.042213 0.180007
O O14 0.417657 0.250000 0.870974
O O15 0.368799 0.368799 0.891484
O O16 0.064533 0.750000 0.596728
O O17 0.991454 0.642552 0.614121
O O18 0.250000 0.419164 0.342305
O O19 0.368086 0.368086 0.336714
#
# Coordination Sequence:
#
# PCOD8314942 Si02
#       7
#    16  16  16  16  16  16  16
#     4  10  19  31  49  73 100 128 163 207 249 296
#     4   9  15  27  47  69  92 119 154 198 243 282
#     4  10  18  30  48  72  99 127 161 202 250 296
#     4   9  16  28  48  71  94 121 155 199 249 291
#     4  10  20  32  48  71 100 133 167 202 241 290
#     4   9  19  33  48  70  99 131 164 199 248 303
#     4  10  20  34  51  71  98 130 164 203 245 293
#
# _framework density 16.342248000000001
#
# number of rings (size 3 to 8) (size 9 to 14) (size 15 to 20)
#    0.000    2.429    2.857    0.429    0.000    1.714 
#    0.000    2.857    0.000    0.000    0.000    4.000 
#    0.000    4.857    0.000    0.000    0.000    0.000 
#
# Total GULP energy -1388402.368244 kJ/mol
# GULP energy per Si atom -12396.449716 kJ/mol
# Density = 1.630505 g / cm^3
# Si number density = 16.342248 Si / 1000 Ang^3
#
#
#
# Elastic Constant Matrix: (Units=GPa)
#
#
# Indices 1 2 3 4 5 6 
#
# 1 77.3103 44.1566 41.6117 0.0000 0.0000 0.0000
# 2 44.1566 77.3106 41.6117 0.0000 0.0000 0.0000
# 3 41.6117 41.6117 111.4779 0.0000 0.0000 0.0000
# 4 0.0000 0.0000 0.0000 21.6256 0.0000 0.0000
# 5 0.0000 0.0000 0.0000 0.0000 21.6257 0.0000
# 6 0.0000 0.0000 0.0000 0.0000 0.0000 16.3567
#
#
#
# Elastic Compliance Matrix: (Units=1/GPa)
#
#
# Indices 1 2 3 4 5 6 
#
# 1 0.020612 -0.009550 -0.004129 0.000000 0.000000 0.000000
# 2 -0.009550 0.020612 -0.004129 0.000000 0.000000 0.000000
# 3 -0.004129 -0.004129 0.012053 0.000000 0.000000 0.000000
# 4 0.000000 0.000000 0.000000 0.046241 0.000000 0.000000
# 5 0.000000 0.000000 0.000000 0.000000 0.046241 0.000000
# 6 0.000000 0.000000 0.000000 0.000000 0.000000 0.061137
#
#
# Mechanical properties :
#
#
# Convention : Reuss Voigt Hill
#
# Bulk Modulus (GPa) = 56.62461 57.87320 57.24890
# Shear Modulus (GPa) = 20.12880 21.16953 20.64916
#
# Velocity S-wave (km/s) = 3.51337 3.60305 3.55849
# Velocity P-wave (km/s) = 7.15422 7.26632 7.21049
#
# Compressibility (1/GPa) = 0.01766017
#
# Stress axis : x y z
#
# Youngs Moduli (GPa) = 48.51524 48.51542 82.96757
#
# Poissons Ratio (x) = 0.46334 0.34258
# Poissons Ratio (y) = 0.46334 0.34258
# Poissons Ratio (z) = 0.20032 0.20032
#
# Static dielectric constant tensor:
#      x y z
#    x 2.892920 0.000000 0.000000 
#    y 0.000000 2.892920 0.000000 
#    z 0.000000 0.000000 3.321500 
# 
# 
# High freq. dielectric constant tensor:
#      x y z
#    x 1.608250 0.000000 0.000000 
#    y 0.000000 1.608250 0.000000 
#    z 0.000000 0.000000 1.644660 
# 
# From -- ./inp_files/6045.got.cif
#   From: 2010.03.12/outbox.cif.g09.slc.cpg/sg129_4_cif.got.tgz:6045.got - 2010.04.06 17:19:44.
