data_PCOD8314205
_publ_section_title
;
Structure prediction by ZEFSAII (Michael W. Deem and Ramdas Pophale) SiO2 
 PCOD8314205
Probable space group: P 4/M B M
;
_chemical_formula_sum "Si O2"
_cell_formula_units_Z 72
_cell_length_a 20.679225
_cell_length_b 20.679225
_cell_length_c 9.160289
_cell_angle_alpha 90.000000
_cell_angle_beta 90.000000
_cell_angle_gamma 90.000000
_cell_volume 3917.217560
_symmetry_space_group_name_H-M "P 4/M B M"
_symmetry_group_IT_number 127
_symmetry_cell_setting 'tetragonal'
loop_
_space_group_symop_operation_xyz
x,y,z
-y,x,z
-x,-y,z
y,-x,z
1/2+x,1/2-y,-z
1/2-x,1/2+y,-z
1/2+y,1/2+x,-z
1/2-y,1/2-x,-z
-x,-y,-z
y,-x,-z
x,y,-z
-y,x,-z
1/2-x,1/2+y,z
1/2+x,1/2-y,z
1/2-y,1/2-x,z
1/2+y,1/2+x,z
loop_
_atom_site_type_symbol
_atom_site_label
_atom_site_fract_x
_atom_site_fract_y
_atom_site_fract_z
Si Si1 0.681058 0.959442 0.327434
Si Si2 0.946316 0.446316 0.163796
Si Si3 0.231785 0.922611 0.673497
Si Si4 0.313973 0.186028 0.671457
Si Si5 0.407651 0.456673 0.326252
Si Si6 0.788094 0.711907 0.674606
O O1 0.668999 0.963038 0.500000
O O2 0.614499 0.976050 0.248239
O O3 0.704009 0.887288 0.281138
O O4 0.732851 0.012114 0.274306
O O5 0.000000 0.500000 0.159818
O O6 0.925977 0.425977 0.000000
O O7 0.230412 0.919454 0.500000
O O8 0.158488 0.925599 0.735690
O O9 0.268530 0.859118 0.734305
O O10 0.307695 0.192306 0.500000
O O11 0.263388 0.236613 0.740567
O O12 0.468959 0.414846 0.271464
O O13 0.405650 0.457046 0.500000
O O14 0.787693 0.712308 0.500000
#
# Coordination Sequence:
#
# PCOD8314205 Si02
#       6
#    16   8  16   8  16   8
#     4   9  18  31  48  71  94 121 156 193 234 276
#     4  10  21  35  51  69  89 119 156 193 236 282
#     4   9  17  25  38  60  90 123 152 189 235 280
#     4   8  15  27  41  59  87 120 153 187 227 275
#     4   8  14  23  35  54  84 124 161 189 227 281
#     4   9  17  25  35  58  90 122 153 187 232 281
#
# _framework density 18.380393999999999
#
# number of rings (size 3 to 8) (size 9 to 14) (size 15 to 20)
#    0.000    3.222    0.000    1.667    4.667    0.889 
#    0.000    0.000    0.000    0.000    0.000    6.222 
#    0.000    0.000    0.000    2.444    0.000    2.222 
#
# Total GULP energy -892302.346926 kJ/mol
# GULP energy per Si atom -12393.088152 kJ/mol
# Density = 1.833856 g / cm^3
# Si number density = 18.380394 Si / 1000 Ang^3
#
#
#
# Elastic Constant Matrix: (Units=GPa)
#
#
# Indices 1 2 3 4 5 6 
#
# 1 140.9466 92.7383 7.5617 0.0000 0.0000 0.0000
# 2 92.7383 140.9466 7.5616 0.0000 0.0000 0.0000
# 3 7.5617 7.5616 16.8906 0.0000 0.0000 0.0000
# 4 0.0000 0.0000 0.0000 2.8585 0.0000 0.0000
# 5 0.0000 0.0000 0.0000 0.0000 2.8585 0.0000
# 6 0.0000 0.0000 0.0000 0.0000 0.0000 35.9499
#
#
#
# Elastic Compliance Matrix: (Units=1/GPa)
#
#
# Indices 1 2 3 4 5 6 
#
# 1 0.012575 -0.008168 -0.001973 0.000000 0.000000 0.000000
# 2 -0.008168 0.012575 -0.001973 0.000000 0.000000 0.000000
# 3 -0.001973 -0.001973 0.060971 0.000000 0.000000 0.000000
# 4 0.000000 0.000000 0.000000 0.349833 0.000000 0.000000
# 5 0.000000 0.000000 0.000000 0.000000 0.349828 0.000000
# 6 0.000000 0.000000 0.000000 0.000000 0.000000 0.027816
#
#
# Mechanical properties :
#
#
# Convention : Reuss Voigt Hill
#
# Bulk Modulus (GPa) = 16.15687 57.16746 36.66217
# Shear Modulus (GPa) = 5.82440 21.06154 13.44297
#
# Velocity S-wave (km/s) = 1.78205 3.38874 2.70733
# Velocity P-wave (km/s) = 3.61159 6.81772 5.45550
#
# Compressibility (1/GPa) = 0.06189318
#
# Stress axis : x y z
#
# Youngs Moduli (GPa) = 79.52199 79.52204 16.40124
#
# Poissons Ratio (x) = 0.64955 0.03236
# Poissons Ratio (y) = 0.64955 0.03236
# Poissons Ratio (z) = 0.15689 0.15689
#
# Static dielectric constant tensor:
#      x y z
#    x 3.731950 0.000000 0.000000 
#    y 0.000000 3.731940 0.000000 
#    z 0.000000 0.000000 2.701300 
# 
# 
# High freq. dielectric constant tensor:
#      x y z
#    x 1.722850 0.000000 0.000000 
#    y 0.000000 1.722850 0.000000 
#    z 0.000000 0.000000 1.626060 
# 
# From -- ./inp_files/1660.got.cif
#   From: 2010.03.12/outbox.cif.g09.slc.cpg/sg127_1_cif.got.tgz:1660.got - 2010.04.06 17:03:15.
