data_PCOD8314297
_publ_section_title
;
Structure prediction by ZEFSAII (Michael W. Deem and Ramdas Pophale) SiO2 
 PCOD8314297
Probable space group: P 4/M B M
;
_chemical_formula_sum "Si O2"
_cell_formula_units_Z 88
_cell_length_a 15.365560
_cell_length_b 15.365560
_cell_length_c 20.746968
_cell_angle_alpha 90.000000
_cell_angle_beta 90.000000
_cell_angle_gamma 90.000000
_cell_volume 4898.368151
_symmetry_space_group_name_H-M "P 4/M B M"
_symmetry_group_IT_number 127
_symmetry_cell_setting 'tetragonal'
loop_
_space_group_symop_operation_xyz
x,y,z
-y,x,z
-x,-y,z
y,-x,z
1/2+x,1/2-y,-z
1/2-x,1/2+y,-z
1/2+y,1/2+x,-z
1/2-y,1/2-x,-z
-x,-y,-z
y,-x,-z
x,y,-z
-y,x,-z
1/2-x,1/2+y,z
1/2+x,1/2-y,z
1/2-y,1/2-x,z
1/2+y,1/2+x,z
loop_
_atom_site_type_symbol
_atom_site_label
_atom_site_fract_x
_atom_site_fract_y
_atom_site_fract_z
Si Si1 0.143113 0.012814 0.427807
Si Si2 0.004632 0.637166 0.200668
Si Si3 0.678194 0.320849 0.248226
Si Si4 0.940582 0.868393 0.000000
Si Si5 0.500004 0.736310 0.301786
Si Si6 0.389375 0.749000 0.119335
O O1 0.182117 0.016245 0.500000
O O2 0.077319 0.092415 0.416882
O O3 0.223359 0.021372 0.377568
O O4 0.941618 0.558383 0.186753
O O5 0.990269 0.664864 0.276094
O O6 0.978456 0.713873 0.151431
O O7 0.104080 0.604080 0.189119
O O8 0.752257 0.252257 0.272885
O O9 0.589775 0.312831 0.288822
O O10 0.704314 0.420533 0.257105
O O11 0.661907 0.306291 0.172775
O O12 0.915595 0.813472 0.062137
O O13 0.043022 0.886178 0.000000
O O14 0.327428 0.827428 0.094439
#
# Coordination Sequence:
#
# PCOD8314297 Si02
#       6
#    16  16  16   8  16  16
#     4   9  17  30  48  75 110 145 182 218 265 333
#     4   9  19  36  58  81 105 141 187 233 278 320
#     4  10  22  34  53  85 111 139 186 232 278 334
#     4  11  25  40  54  79 115 151 180 209 270 349
#     4  11  18  32  55  80 114 140 176 230 286 328
#     4   9  20  40  59  78 108 142 181 233 274 318
#
# _framework density 17.965167000000001
#
# number of rings (size 3 to 8) (size 9 to 14) (size 15 to 20)
#    0.000    2.273    1.818    3.000    5.091    0.364 
#    0.000    1.364    0.000    7.636    0.000    1.273 
#    0.000    0.000    0.000    0.000    0.000    0.000 
#
# Total GULP energy -1090240.425521 kJ/mol
# GULP energy per Si atom -12389.095745 kJ/mol
# Density = 1.792428 g / cm^3
# Si number density = 17.965167 Si / 1000 Ang^3
#
#
#
# Elastic Constant Matrix: (Units=GPa)
#
#
# Indices 1 2 3 4 5 6 
#
# 1 77.9425 30.6577 45.7425 0.0000 0.0000 0.0000
# 2 30.6577 77.9425 45.7425 0.0000 0.0000 0.0000
# 3 45.7425 45.7425 130.0003 0.0000 0.0000 0.0000
# 4 0.0000 0.0000 0.0000 -15.9444 0.0000 0.0000
# 5 0.0000 0.0000 0.0000 0.0000 -15.9444 0.0000
# 6 0.0000 0.0000 0.0000 0.0000 0.0000 18.7238
#
#
#
# Elastic Compliance Matrix: (Units=1/GPa)
#
#
# Indices 1 2 3 4 5 6 
#
# 1 0.017118 -0.004031 -0.004605 0.000000 0.000000 0.000000
# 2 -0.004031 0.017118 -0.004605 0.000000 0.000000 0.000000
# 3 -0.004605 -0.004605 0.010933 0.000000 0.000000 0.000000
# 4 0.000000 0.000000 0.000000 -0.062718 0.000000 0.000000
# 5 0.000000 0.000000 0.000000 0.000000 -0.062718 0.000000
# 6 0.000000 0.000000 0.000000 0.000000 0.000000 0.053408
#
#
# Mechanical properties :
#
#
# Convention : Reuss Voigt Hill
#
# Bulk Modulus (GPa) = 53.51110 58.90787 56.20949
# Shear Modulus (GPa) = 854.48273 8.28314 431.38294
#
# Velocity S-wave (km/s) = 21.83267 2.14958 15.51268
# Velocity P-wave (km/s) = 25.79544 6.24677 18.76735
#
# Compressibility (1/GPa) = 0.01868771
#
# Stress axis : x y z
#
# Youngs Moduli (GPa) = 58.41840 58.41840 91.46677
#
# Poissons Ratio (x) = 0.23546 0.42120
# Poissons Ratio (y) = 0.23546 0.42120
# Poissons Ratio (z) = 0.26901 0.26901
#
# Static dielectric constant tensor:
#      x y z
#    x 3.547100 0.000000 0.000000 
#    y 0.000000 3.547100 0.000000 
#    z 0.000000 0.000000 3.252800 
# 
# 
# High freq. dielectric constant tensor:
#      x y z
#    x 1.693420 0.000000 0.000000 
#    y 0.000000 1.693420 0.000000 
#    z 0.000000 0.000000 1.681250 
# 
# From -- ./inp_files/5697.got.cif
#   From: 2010.03.12/outbox.cif.g09.slc.cpg/sg127_3_cif.got.tgz:5697.got - 2010.04.06 17:03:15.
