data_PCOD8314101
_publ_section_title
;
Structure prediction by ZEFSAII (Michael W. Deem and Ramdas Pophale) SiO2 
 PCOD8314101
Probable space group: P 4/M B M
;
_chemical_formula_sum "Si O2"
_cell_formula_units_Z 96
_cell_length_a 22.815534
_cell_length_b 22.815534
_cell_length_c 9.132946
_cell_angle_alpha 90.000000
_cell_angle_beta 90.000000
_cell_angle_gamma 90.000000
_cell_volume 4754.142178
_symmetry_space_group_name_H-M "P 4/M B M"
_symmetry_group_IT_number 127
_symmetry_cell_setting 'tetragonal'
loop_
_space_group_symop_operation_xyz
x,y,z
-y,x,z
-x,-y,z
y,-x,z
1/2+x,1/2-y,-z
1/2-x,1/2+y,-z
1/2+y,1/2+x,-z
1/2-y,1/2-x,-z
-x,-y,-z
y,-x,-z
x,y,-z
-y,x,-z
1/2-x,1/2+y,z
1/2+x,1/2-y,z
1/2-y,1/2-x,z
1/2+y,1/2+x,z
loop_
_atom_site_type_symbol
_atom_site_label
_atom_site_fract_x
_atom_site_fract_y
_atom_site_fract_z
Si Si1 0.887562 0.289976 0.338299
Si Si2 0.408771 0.707166 0.325772
Si Si3 0.412279 0.468398 0.326188
Si Si4 0.176524 0.415126 0.832004
Si Si5 0.965229 0.373369 0.165382
Si Si6 0.809649 0.211051 0.833452
O O1 0.904066 0.265812 0.500000
O O2 0.833432 0.333432 0.350696
O O3 0.942934 0.322683 0.271907
O O4 0.869787 0.236914 0.232238
O O5 0.408061 0.708514 0.500000
O O6 0.445707 0.650796 0.267172
O O7 0.435050 0.768088 0.265243
O O8 0.343458 0.706612 0.265685
O O9 0.465073 0.425441 0.271410
O O10 0.411408 0.467384 0.500000
O O11 0.145722 0.354279 0.780411
O O12 0.125963 0.464789 0.818723
O O13 0.197565 0.408376 0.000000
O O14 0.936580 0.436580 0.207076
O O15 0.946598 0.356795 0.000000
O O16 0.756972 0.256972 0.824724
O O17 0.821219 0.191673 0.000000
#
# Coordination Sequence:
#
# PCOD8314101 Si02
#       6
#    16  16  16  16  16  16
#     4   9  17  30  50  77 107 137 173 221 274 326
#     4  11  22  34  54  84 111 139 180 227 276 330
#     4   8  16  34  58  82 109 139 171 211 261 319
#     4  10  22  39  56  76 107 147 188 230 277 329
#     4   9  18  34  56  80 106 139 182 231 281 331
#     4  10  20  34  52  74 106 150 193 230 273 326
#
# _framework density 20.192917000000001
#
# number of rings (size 3 to 8) (size 9 to 14) (size 15 to 20)
#    0.000    2.500    0.000    2.500    0.000    7.667 
#    0.000    3.333    0.000    3.000    0.000    8.167 
#    0.000    0.000    0.000    0.000    0.000    0.000 
#
# Total GULP energy -1189782.718755 kJ/mol
# GULP energy per Si atom -12393.569987 kJ/mol
# Density = 2.014696 g / cm^3
# Si number density = 20.192917 Si / 1000 Ang^3
#
#
#
# Elastic Constant Matrix: (Units=GPa)
#
#
# Indices 1 2 3 4 5 6 
#
# 1 99.8690 48.1524 40.2503 0.0000 0.0000 0.0000
# 2 48.1524 99.8690 40.2503 0.0000 0.0000 0.0000
# 3 40.2503 40.2503 80.3522 0.0000 0.0000 0.0000
# 4 0.0000 0.0000 0.0000 23.7324 0.0000 0.0000
# 5 0.0000 0.0000 0.0000 0.0000 23.7324 0.0000
# 6 0.0000 0.0000 0.0000 0.0000 0.0000 26.7677
#
#
#
# Elastic Compliance Matrix: (Units=1/GPa)
#
#
# Indices 1 2 3 4 5 6 
#
# 1 0.014311 -0.005025 -0.004651 0.000000 0.000000 0.000000
# 2 -0.005025 0.014311 -0.004651 0.000000 0.000000 0.000000
# 3 -0.004651 -0.004651 0.017105 0.000000 0.000000 0.000000
# 4 0.000000 0.000000 0.000000 0.042136 0.000000 0.000000
# 5 0.000000 0.000000 0.000000 0.000000 0.042136 0.000000
# 6 0.000000 0.000000 0.000000 0.000000 0.000000 0.037359
#
#
# Mechanical properties :
#
#
# Convention : Reuss Voigt Hill
#
# Bulk Modulus (GPa) = 58.57977 59.71070 59.14524
# Shear Modulus (GPa) = 24.78881 24.94232 24.86556
#
# Velocity S-wave (km/s) = 3.50751 3.51836 3.51294
# Velocity P-wave (km/s) = 6.74363 6.79260 6.76816
#
# Compressibility (1/GPa) = 0.01707074
#
# Stress axis : x y z
#
# Youngs Moduli (GPa) = 69.87753 69.87753 58.46230
#
# Poissons Ratio (x) = 0.35116 0.27192
# Poissons Ratio (y) = 0.35116 0.27192
# Poissons Ratio (z) = 0.32502 0.32502
#
# Static dielectric constant tensor:
#      x y z
#    x 3.718160 0.000000 0.000000 
#    y 0.000000 3.718160 0.000000 
#    z 0.000000 0.000000 3.801830 
# 
# 
# High freq. dielectric constant tensor:
#      x y z
#    x 1.783260 0.000000 0.000000 
#    y 0.000000 1.783260 0.000000 
#    z 0.000000 0.000000 1.770110 
# 
# From -- ./inp_files/2043.got.cif
#   From: 2010.03.12/outbox.cif.g09.slc.cpg/sg127_2_cif.got.tgz:2043.got - 2010.04.06 17:03:15.
