data_PCOD8314747
_publ_section_title
;
Structure prediction by ZEFSAII (Michael W. Deem and Ramdas Pophale) SiO2 
 PCOD8314747
Probable space group: P 4/M N C
;
_chemical_formula_sum "Si O2"
_cell_formula_units_Z 88
_cell_length_a 14.284473
_cell_length_b 14.284473
_cell_length_c 21.944691
_cell_angle_alpha 90.000000
_cell_angle_beta 90.000000
_cell_angle_gamma 90.000000
_cell_volume 4477.730126
_symmetry_space_group_name_H-M "P 4/M N C"
_symmetry_group_IT_number 128
_symmetry_cell_setting 'tetragonal'
loop_
_space_group_symop_operation_xyz
x,y,z
-y,x,z
-x,-y,z
y,-x,z
1/2+x,1/2-y,1/2-z
1/2-x,1/2+y,1/2-z
1/2+y,1/2+x,1/2-z
1/2-y,1/2-x,1/2-z
-x,-y,-z
y,-x,-z
x,y,-z
-y,x,-z
1/2-x,1/2+y,1/2+z
1/2+x,1/2-y,1/2+z
1/2-y,1/2-x,1/2+z
1/2+y,1/2+x,1/2+z
loop_
_atom_site_type_symbol
_atom_site_label
_atom_site_fract_x
_atom_site_fract_y
_atom_site_fract_z
Si Si1 0.890495 0.490870 0.071334
Si Si2 0.386929 0.398188 0.789464
Si Si3 0.852416 0.031881 0.500000
Si Si4 0.377698 0.591254 0.349282
Si Si5 0.826464 0.284374 0.931645
Si Si6 0.376966 0.744004 0.895569
O O1 0.853338 0.388130 0.092807
O O2 0.847369 0.577007 0.112359
O O3 0.000000 0.500000 0.083110
O O4 0.865400 0.506092 0.000000
O O5 0.492790 0.370894 0.804480
O O6 0.374853 0.364035 0.720316
O O7 0.309156 0.351011 0.832555
O O8 0.798621 0.039378 0.563662
O O9 0.928403 0.111755 0.500000
O O10 0.371896 0.481287 0.363954
O O11 0.296028 0.634182 0.388640
O O12 0.716472 0.262323 0.935185
O O13 0.867371 0.273472 0.000000
#
# Coordination Sequence:
#
# PCOD8314747 Si02
#       6
#    16  16   8  16  16  16
#     4  10  22  39  57  86 133 173 204 254 318 382
#     4   9  18  35  60  89 118 152 194 248 312 370
#     4  11  20  30  51  84 124 151 185 252 310 358
#     4   9  21  41  62  87 117 149 204 267 310 358
#     4  11  23  37  61  89 119 165 214 251 308 382
#     4  12  21  35  58  87 123 158 205 250 304 379
#
# _framework density 19.652813999999999
#
# number of rings (size 3 to 8) (size 9 to 14) (size 15 to 20)
#    0.000    1.727    1.818    4.364    2.545    2.909 
#    0.000    0.909    0.000    0.000    0.000    0.000 
#    0.000    0.000    0.000    0.000    0.000    0.000 
#
# Total GULP energy -1090211.390552 kJ/mol
# GULP energy per Si atom -12388.765802 kJ/mol
# Density = 1.960808 g / cm^3
# Si number density = 19.652814 Si / 1000 Ang^3
#
#
#
# Elastic Constant Matrix: (Units=GPa)
#
#
# Indices 1 2 3 4 5 6 
#
# 1 98.0486 37.3789 37.4032 0.0000 0.0000 0.0000
# 2 37.3789 98.0486 37.4032 0.0000 0.0000 0.0000
# 3 37.4032 37.4032 75.0444 0.0000 0.0000 0.0000
# 4 0.0000 0.0000 0.0000 31.6271 0.0000 0.0000
# 5 0.0000 0.0000 0.0000 0.0000 31.6271 0.0000
# 6 0.0000 0.0000 0.0000 0.0000 0.0000 36.3206
#
#
#
# Elastic Compliance Matrix: (Units=1/GPa)
#
#
# Indices 1 2 3 4 5 6 
#
# 1 0.013336 -0.003147 -0.005078 0.000000 0.000000 0.000000
# 2 -0.003147 0.013336 -0.005078 0.000000 0.000000 0.000000
# 3 -0.005078 -0.005078 0.018388 0.000000 0.000000 0.000000
# 4 0.000000 0.000000 0.000000 0.031618 0.000000 0.000000
# 5 0.000000 0.000000 0.000000 0.000000 0.031618 0.000000
# 6 0.000000 0.000000 0.000000 0.000000 0.000000 0.027533
#
#
# Mechanical properties :
#
#
# Convention : Reuss Voigt Hill
#
# Bulk Modulus (GPa) = 54.19340 55.05688 54.62514
# Shear Modulus (GPa) = 29.65821 30.51203 30.08512
#
# Velocity S-wave (km/s) = 3.88894 3.94452 3.91683
# Velocity P-wave (km/s) = 6.91378 6.98722 6.95060
#
# Compressibility (1/GPa) = 0.01845243
#
# Stress axis : x y z
#
# Youngs Moduli (GPa) = 74.98523 74.98523 54.38392
#
# Poissons Ratio (x) = 0.23596 0.27619
# Poissons Ratio (y) = 0.23596 0.27619
# Poissons Ratio (z) = 0.38081 0.38081
#
# Static dielectric constant tensor:
#      x y z
#    x 3.582650 0.000000 0.000000 
#    y 0.000000 3.582650 0.000000 
#    z 0.000000 0.000000 3.384610 
# 
# 
# High freq. dielectric constant tensor:
#      x y z
#    x 1.766400 0.000000 0.000000 
#    y 0.000000 1.766400 0.000000 
#    z 0.000000 0.000000 1.747450 
# 
# From -- ./inp_files/5658.got.cif
#   From: 2010.03.12/outbox.cif.g09.slc.cpg/sg128_3_cif.got.tgz:5658.got - 2010.04.06 17:11:05.
