data_PCOD8314625
_publ_section_title
;
Structure prediction by ZEFSAII (Michael W. Deem and Ramdas Pophale) SiO2 
 PCOD8314625
Probable space group: P 4/M N C
;
_chemical_formula_sum "Si O2"
_cell_formula_units_Z 88
_cell_length_a 14.355728
_cell_length_b 14.355728
_cell_length_c 21.779876
_cell_angle_alpha 90.000000
_cell_angle_beta 90.000000
_cell_angle_gamma 90.000000
_cell_volume 4488.547702
_symmetry_space_group_name_H-M "P 4/M N C"
_symmetry_group_IT_number 128
_symmetry_cell_setting 'tetragonal'
loop_
_space_group_symop_operation_xyz
x,y,z
-y,x,z
-x,-y,z
y,-x,z
1/2+x,1/2-y,1/2-z
1/2-x,1/2+y,1/2-z
1/2+y,1/2+x,1/2-z
1/2-y,1/2-x,1/2-z
-x,-y,-z
y,-x,-z
x,y,-z
-y,x,-z
1/2-x,1/2+y,1/2+z
1/2+x,1/2-y,1/2+z
1/2-y,1/2-x,1/2+z
1/2+y,1/2+x,1/2+z
loop_
_atom_site_type_symbol
_atom_site_label
_atom_site_fract_x
_atom_site_fract_y
_atom_site_fract_z
Si Si1 0.500000 0.655292 0.227882
Si Si2 0.500000 0.000000 0.330322
Si Si3 1.000000 0.699814 0.165494
Si Si4 0.186117 0.339723 0.567433
Si Si5 0.797856 0.500000 0.883436
Si Si6 0.660277 0.813883 0.567433
O O1 0.407828 0.592172 0.223316
O O2 0.500000 0.710184 0.291937
O O3 0.500000 0.733390 0.176217
O O4 0.500000 0.100891 0.294546
O O5 0.408944 1.000000 0.372405
O O6 0.911046 0.702461 0.122203
O O7 0.088954 0.702461 0.122203
O O8 0.179716 0.387988 0.500000
O O9 0.272880 0.272880 0.568745
O O10 0.093141 0.277804 0.578051
O O11 0.777804 0.406859 0.921949
O O12 0.612012 0.820284 0.500000
#
# Coordination Sequence:
#
# PCOD8314625 Si02
#       6
#    16   8  16  16  16  16
#     4  11  24  39  56  78 108 153 198 229 266 318
#     4   8  20  33  53  80 102 132 173 213 272 334
#     4  10  20  37  56  79 113 145 181 230 275 327
#     4  10  20  34  56  84 111 144 184 227 281 336
#     4  10  20  37  56  79 113 145 181 230 275 327
#     4  10  20  34  56  84 111 144 184 227 281 336
#
# _framework density 19.605450000000001
#
# number of rings (size 3 to 8) (size 9 to 14) (size 15 to 20)
#    0.000    2.000    0.000    3.273    0.000    6.545 
#    0.000   14.545    0.000    0.000    0.000   15.273 
#    0.000    0.000    0.000    0.000    0.000    0.000 
#
# Total GULP energy -1090191.748474 kJ/mol
# GULP energy per Si atom -12388.542596 kJ/mol
# Density = 1.956083 g / cm^3
# Si number density = 19.605450 Si / 1000 Ang^3
#
#
#
# Elastic Constant Matrix: (Units=GPa)
#
#
# Indices 1 2 3 4 5 6 
#
# 1 109.3476 37.6421 53.1087 0.0000 0.0000 0.0000
# 2 37.6421 109.3476 53.1087 0.0000 0.0000 0.0000
# 3 53.1087 53.1087 102.7644 0.0000 0.0000 0.0000
# 4 0.0000 0.0000 0.0000 28.5644 0.0000 0.0000
# 5 0.0000 0.0000 0.0000 0.0000 28.5644 0.0000
# 6 0.0000 0.0000 0.0000 0.0000 0.0000 14.2284
#
#
#
# Elastic Compliance Matrix: (Units=1/GPa)
#
#
# Indices 1 2 3 4 5 6 
#
# 1 0.012402 -0.001544 -0.005612 0.000000 0.000000 0.000000
# 2 -0.001544 0.012402 -0.005612 0.000000 0.000000 0.000000
# 3 -0.005612 -0.005612 0.015531 0.000000 0.000000 0.000000
# 4 0.000000 0.000000 0.000000 0.035009 0.000000 0.000000
# 5 0.000000 0.000000 0.000000 0.000000 0.035009 0.000000
# 6 0.000000 0.000000 0.000000 0.000000 0.000000 0.070282
#
#
# Mechanical properties :
#
#
# Convention : Reuss Voigt Hill
#
# Bulk Modulus (GPa) = 67.56135 67.68653 67.62394
# Shear Modulus (GPa) = 23.68525 26.11144 24.89835
#
# Velocity S-wave (km/s) = 3.47954 3.65341 3.56753
# Velocity P-wave (km/s) = 7.11886 7.23849 7.17893
#
# Compressibility (1/GPa) = 0.01480136
#
# Stress axis : x y z
#
# Youngs Moduli (GPa) = 80.63179 80.63179 64.38712
#
# Poissons Ratio (x) = 0.12449 0.36131
# Poissons Ratio (y) = 0.12449 0.36131
# Poissons Ratio (z) = 0.45247 0.45247
#
# Static dielectric constant tensor:
#      x y z
#    x 3.870620 0.000000 0.000000 
#    y 0.000000 3.870620 0.000000 
#    z 0.000000 0.000000 3.620450 
# 
# 
# High freq. dielectric constant tensor:
#      x y z
#    x 1.772620 0.000000 0.000000 
#    y 0.000000 1.772620 0.000000 
#    z 0.000000 0.000000 1.762290 
# 
# From -- ./inp_files/5657.got.cif
#   From: 2010.03.12/outbox.cif.g09.slc.cpg/sg128_3_cif.got.tgz:5657.got - 2010.04.06 17:11:05.
