data_PCOD8314136
_publ_section_title
;
Structure prediction by ZEFSAII (Michael W. Deem and Ramdas Pophale) SiO2 
 PCOD8314136
Probable space group: P 4/M B M
;
_chemical_formula_sum "Si O2"
_cell_formula_units_Z 112
_cell_length_a 13.849084
_cell_length_b 13.849084
_cell_length_c 29.351085
_cell_angle_alpha 90.000000
_cell_angle_beta 90.000000
_cell_angle_gamma 90.000000
_cell_volume 5629.453796
_symmetry_space_group_name_H-M "P 4/M B M"
_symmetry_group_IT_number 127
_symmetry_cell_setting 'tetragonal'
loop_
_space_group_symop_operation_xyz
x,y,z
-y,x,z
-x,-y,z
y,-x,z
1/2+x,1/2-y,-z
1/2-x,1/2+y,-z
1/2+y,1/2+x,-z
1/2-y,1/2-x,-z
-x,-y,-z
y,-x,-z
x,y,-z
-y,x,-z
1/2-x,1/2+y,z
1/2+x,1/2-y,z
1/2-y,1/2-x,z
1/2+y,1/2+x,z
loop_
_atom_site_type_symbol
_atom_site_label
_atom_site_fract_x
_atom_site_fract_y
_atom_site_fract_z
Si Si1 0.359935 0.701471 0.362628
Si Si2 0.908187 0.127513 0.727884
Si Si3 0.372158 0.285043 0.549592
Si Si4 0.263536 0.610227 0.183964
Si Si5 0.153195 0.501476 0.394117
Si Si6 0.748784 0.592593 0.139450
Si Si7 0.038206 0.154434 0.949138
O O1 0.262171 0.762171 0.360680
O O2 0.347924 0.621845 0.323572
O O3 0.365539 0.643717 0.410932
O O4 0.453994 0.771579 0.357663
O O5 0.865782 0.202101 0.764501
O O6 0.021554 0.132636 0.736404
O O7 0.396707 0.331787 0.500000
O O8 0.273457 0.226544 0.544877
O O9 0.459036 0.212674 0.562998
O O10 0.160836 0.660836 0.176438
O O11 0.343474 0.654774 0.150352
O O12 0.249222 0.497679 0.173707
O O13 0.082632 0.417369 0.412513
O O14 0.088680 0.588680 0.371709
O O15 0.847048 0.652953 0.146017
O O16 0.739257 0.557860 0.087148
O O17 0.930930 0.114703 0.942000
O O18 0.049156 0.197979 0.000000
#
# Coordination Sequence:
#
# PCOD8314136 Si02
#       7
#    16  16  16  16  16  16  16
#     4  10  20  35  55  79 111 147 183 229 290 358
#     4  11  22  37  59  85 110 144 194 245 295 357
#     4   9  18  32  50  74 105 141 181 225 278 342
#     4  11  23  40  62  90 122 158 205 260 312 372
#     4   9  18  33  54  80 109 143 183 229 282 344
#     4  11  22  37  63  92 122 168 213 255 316 375
#     4   9  17  31  56  90 126 166 213 266 318 366
#
# _framework density 19.895358999999999
#
# number of rings (size 3 to 8) (size 9 to 14) (size 15 to 20)
#    0.000    2.000    2.857    1.714    0.000    1.714 
#    0.000    3.571    0.000    0.429    0.000    4.000 
#    0.000    0.000    0.000    0.000    0.000    0.000 
#
# Total GULP energy -1388029.541267 kJ/mol
# GULP energy per Si atom -12393.120904 kJ/mol
# Density = 1.985008 g / cm^3
# Si number density = 19.895359 Si / 1000 Ang^3
#
#
#
# Elastic Constant Matrix: (Units=GPa)
#
#
# Indices 1 2 3 4 5 6 
#
# 1 129.0448 0.2979 38.0900 0.0000 0.0000 0.0000
# 2 0.2979 129.0448 38.0900 0.0000 0.0000 0.0000
# 3 38.0900 38.0900 135.6465 0.0000 0.0000 0.0000
# 4 0.0000 0.0000 0.0000 26.4172 0.0000 0.0000
# 5 0.0000 0.0000 0.0000 0.0000 26.4172 0.0000
# 6 0.0000 0.0000 0.0000 0.0000 0.0000 -2.6909
#
#
#
# Elastic Compliance Matrix: (Units=1/GPa)
#
#
# Indices 1 2 3 4 5 6 
#
# 1 0.008515 0.000748 -0.002601 0.000000 0.000000 0.000000
# 2 0.000748 0.008515 -0.002601 0.000000 0.000000 0.000000
# 3 -0.002601 -0.002601 0.008833 0.000000 0.000000 0.000000
# 4 0.000000 0.000000 0.000000 0.037854 0.000000 0.000000
# 5 0.000000 0.000000 0.000000 0.000000 0.037854 0.000000
# 6 0.000000 0.000000 0.000000 0.000000 0.000000 -0.371618
#
#
# Mechanical properties :
#
#
# Convention : Reuss Voigt Hill
#
# Bulk Modulus (GPa) = 58.97955 60.74355 59.86155
# Shear Modulus (GPa) = -19.57057 31.17922 5.80432
#
# Velocity S-wave (km/s) = -3.13976 3.96303 1.70990
# Velocity P-wave (km/s) = 4.07002 7.17904 5.83540
#
# Compressibility (1/GPa) = 0.01695503
#
# Stress axis : x y z
#
# Youngs Moduli (GPa) = 117.43542 117.43542 113.21230
#
# Poissons Ratio (x) = -0.08786 0.29449
# Poissons Ratio (y) = -0.08786 0.29449
# Poissons Ratio (z) = 0.30547 0.30547
#
# Static dielectric constant tensor:
#      x y z
#    x 3.542900 0.000000 0.000000 
#    y 0.000000 3.542900 0.000000 
#    z 0.000000 0.000000 3.668610 
# 
# 
# High freq. dielectric constant tensor:
#      x y z
#    x 1.764870 0.000000 0.000000 
#    y 0.000000 1.764870 0.000000 
#    z 0.000000 0.000000 1.767820 
# 
# From -- ./inp_files/6407.got.cif
#   From: 2010.03.12/outbox.cif.g09.slc.cpg/sg127_4_cif.got.tgz:6407.got - 2010.04.06 17:03:15.
