data_PCOD8314782
_publ_section_title
;
Structure prediction by ZEFSAII (Michael W. Deem and Ramdas Pophale) SiO2 
 PCOD8314782
Probable space group: P 4/M N C
;
_chemical_formula_sum "Si O2"
_cell_formula_units_Z 88
_cell_length_a 15.227350
_cell_length_b 15.227350
_cell_length_c 19.997114
_cell_angle_alpha 90.000000
_cell_angle_beta 90.000000
_cell_angle_gamma 90.000000
_cell_volume 4636.774577
_symmetry_space_group_name_H-M "P 4/M N C"
_symmetry_group_IT_number 128
_symmetry_cell_setting 'tetragonal'
loop_
_space_group_symop_operation_xyz
x,y,z
-y,x,z
-x,-y,z
y,-x,z
1/2+x,1/2-y,1/2-z
1/2-x,1/2+y,1/2-z
1/2+y,1/2+x,1/2-z
1/2-y,1/2-x,1/2-z
-x,-y,-z
y,-x,-z
x,y,-z
-y,x,-z
1/2-x,1/2+y,1/2+z
1/2+x,1/2-y,1/2+z
1/2-y,1/2-x,1/2+z
1/2+y,1/2+x,1/2+z
loop_
_atom_site_type_symbol
_atom_site_label
_atom_site_fract_x
_atom_site_fract_y
_atom_site_fract_z
Si Si1 0.302407 0.356389 0.870848
Si Si2 0.368981 0.055832 0.922835
Si Si3 0.098392 0.102474 0.239826
Si Si4 0.331401 0.230882 0.319012
Si Si5 0.633299 0.058773 0.576382
Si Si6 0.100559 0.896249 0.500000
O O1 0.370641 0.392924 0.816980
O O2 0.271601 0.258950 0.857395
O O3 0.214864 0.416378 0.876066
O O4 0.358186 0.349079 0.937224
O O5 0.300170 0.090860 0.868153
O O6 0.457313 0.111330 0.912306
O O7 0.384105 0.953149 0.906978
O O8 0.336350 0.066798 0.000000
O O9 0.165829 0.158326 0.196049
O O10 0.997893 0.122400 0.223048
O O11 0.326578 0.173423 0.250000
O O12 0.662058 0.076065 0.500000
O O13 0.998185 0.876698 0.500000
#
# Coordination Sequence:
#
# PCOD8314782 Si02
#       6
#    16  16  16  16  16   8
#     4  11  22  35  60  90 119 152 199 245 299 356
#     4   9  20  38  62  86 121 158 195 239 309 356
#     4  10  23  43  61  78 114 161 196 246 308 362
#     4  10  24  38  57  89 114 155 205 248 291 353
#     4   9  19  36  58  92 122 155 189 243 303 362
#     4  11  24  36  56  93 129 160 193 236 296 365
#
# _framework density 18.97871
#
# number of rings (size 3 to 8) (size 9 to 14) (size 15 to 20)
#    0.000    2.091    0.909    2.182   11.455    1.455 
#    0.000    1.818    0.000    0.000    0.000    1.273 
#    0.000    0.000    0.000    0.000    0.000    0.000 
#
# Total GULP energy -1091030.046746 kJ/mol
# GULP energy per Si atom -12398.068713 kJ/mol
# Density = 1.893551 g / cm^3
# Si number density = 18.978710 Si / 1000 Ang^3
#
#
#
# Elastic Constant Matrix: (Units=GPa)
#
#
# Indices 1 2 3 4 5 6 
#
# 1 68.5557 51.6485 44.6641 0.0000 0.0000 0.0000
# 2 51.6485 68.5566 44.6642 0.0000 0.0000 0.0000
# 3 44.6641 44.6642 99.5064 0.0000 0.0000 0.0000
# 4 0.0000 0.0000 0.0000 36.6180 0.0000 0.0000
# 5 0.0000 0.0000 0.0000 0.0000 36.6181 0.0000
# 6 0.0000 0.0000 0.0000 0.0000 0.0000 29.7972
#
#
#
# Elastic Compliance Matrix: (Units=1/GPa)
#
#
# Indices 1 2 3 4 5 6 
#
# 1 0.035814 -0.023331 -0.005603 0.000000 0.000000 0.000000
# 2 -0.023331 0.035814 -0.005603 0.000000 0.000000 0.000000
# 3 -0.005603 -0.005603 0.015080 0.000000 0.000000 0.000000
# 4 0.000000 0.000000 0.000000 0.027309 0.000000 0.000000
# 5 0.000000 0.000000 0.000000 0.000000 0.027309 0.000000
# 6 0.000000 0.000000 0.000000 0.000000 0.000000 0.033560
#
#
# Mechanical properties :
#
#
# Convention : Reuss Voigt Hill
#
# Bulk Modulus (GPa) = 56.71110 57.61915 57.16513
# Shear Modulus (GPa) = 20.01300 26.98276 23.49788
#
# Velocity S-wave (km/s) = 3.25083 3.77469 3.52251
# Velocity P-wave (km/s) = 6.63602 7.03018 6.83594
#
# Compressibility (1/GPa) = 0.01763323
#
# Stress axis : x y z
#
# Youngs Moduli (GPa) = 27.92186 27.92228 66.31489
#
# Poissons Ratio (x) = 0.65145 0.37157
# Poissons Ratio (y) = 0.65144 0.37156
# Poissons Ratio (z) = 0.15645 0.15645
#
# Static dielectric constant tensor:
#      x y z
#    x 3.490340 0.000000 0.000000 
#    y 0.000000 3.490340 0.000000 
#    z 0.000000 0.000000 3.434690 
# 
# 
# High freq. dielectric constant tensor:
#      x y z
#    x 1.740990 0.000000 0.000000 
#    y 0.000000 1.740990 0.000000 
#    z 0.000000 0.000000 1.729280 
# 
# From -- ./inp_files/5662.got.cif
#   From: 2010.03.12/outbox.cif.g09.slc.cpg/sg128_3_cif.got.tgz:5662.got - 2010.04.06 17:11:05.
