data_PCOD8314943
_publ_section_title
;
Structure prediction by ZEFSAII (Michael W. Deem and Ramdas Pophale) SiO2 
 PCOD8314943
Probable space group: P 4/N M M
;
_chemical_formula_sum "Si O2"
_cell_formula_units_Z 128
_cell_length_a 20.444071
_cell_length_b 20.444071
_cell_length_c 18.112882
_cell_angle_alpha 90.000000
_cell_angle_beta 90.000000
_cell_angle_gamma 90.000000
_cell_volume 7570.460868
_symmetry_space_group_name_H-M "P 4/N M M"
_symmetry_group_IT_number 129
_symmetry_cell_setting 'tetragonal'
loop_
_space_group_symop_operation_xyz
x,y,z
1/2-y,x,z
1/2-x,1/2-y,z
y,1/2-x,z
1/2+x,-y,-z
-x,1/2+y,-z
1/2+y,1/2+x,-z
-y,-x,-z
-x,-y,-z
1/2+y,-x,-z
1/2+x,1/2+y,-z
-y,1/2+x,-z
1/2-x,y,z
x,1/2-y,z
1/2-y,1/2-x,z
y,x,z
loop_
_atom_site_type_symbol
_atom_site_label
_atom_site_fract_x
_atom_site_fract_y
_atom_site_fract_z
Si Si1 0.012712 0.589996 0.641759
Si Si2 0.066356 0.173777 0.826663
Si Si3 0.887437 0.995561 0.872411
Si Si4 0.896795 0.176574 0.438406
Si Si5 0.675473 0.571021 0.744362
Si Si6 0.821330 0.323341 0.714686
Si Si7 0.068912 0.325064 0.997651
Si Si8 0.064128 0.605869 0.221516
O O1 0.971581 0.528420 0.612326
O O2 0.965145 0.644979 0.674330
O O3 0.045611 0.623064 0.569486
O O4 0.060829 0.563024 0.705693
O O5 0.077322 0.250000 0.803660
O O6 0.132503 0.132503 0.808898
O O7 0.048735 0.168954 0.912802
O O8 0.005341 0.142552 0.783285
O O9 0.918825 0.065958 0.853400
O O10 0.830167 0.977090 0.814853
O O11 0.946043 0.946043 0.859818
O O12 0.857281 0.990321 0.954767
O O13 0.845282 0.154719 0.500000
O O14 0.921453 0.250000 0.458141
O O15 0.866001 0.176025 0.358051
O O16 0.750000 0.586788 0.727108
O O17 0.639441 0.639441 0.760088
O O18 0.750000 0.332528 0.752920
O O19 0.832380 0.250000 0.688327
O O20 0.877688 0.341634 0.772247
O O21 0.080617 0.250000 0.020686
O O22 0.136350 0.363651 0.014296
#
# Coordination Sequence:
#
# PCOD8314943 Si02
#       8
#    16  16  16  16  16  16  16  16
#     4   9  18  31  46  65  90 119 150 182 216 258
#     4  10  20  33  49  68  90 116 148 189 236 284
#     4   9  17  28  42  60  84 112 143 182 223 264
#     4  10  19  30  47  69  93 120 146 175 213 255
#     4   9  16  26  41  61  87 119 153 189 225 261
#     4   9  18  31  46  67  94 121 148 177 213 260
#     4   9  18  30  43  62  87 115 148 186 230 279
#     4  10  18  30  49  69  89 116 151 188 225 265
#
# _framework density 16.907820999999998
#
# number of rings (size 3 to 8) (size 9 to 14) (size 15 to 20)
#    0.000    2.625    0.000    3.375    0.000    5.250 
#    0.000    3.125    0.000    2.250    0.000    0.000 
#    0.000    3.000    0.000    0.000    0.000   23.000 
#
# Total GULP energy -1586415.700371 kJ/mol
# GULP energy per Si atom -12393.872659 kJ/mol
# Density = 1.686934 g / cm^3
# Si number density = 16.907821 Si / 1000 Ang^3
#
#
#
# Elastic Constant Matrix: (Units=GPa)
#
#
# Indices 1 2 3 4 5 6 
#
# 1 103.0728 54.2925 23.2151 0.0000 0.0000 0.0000
# 2 54.2925 103.0725 23.2151 0.0000 0.0000 0.0000
# 3 23.2151 23.2151 36.1561 0.0000 0.0000 0.0000
# 4 0.0000 0.0000 0.0000 19.7471 0.0000 0.0000
# 5 0.0000 0.0000 0.0000 0.0000 19.7469 0.0000
# 6 0.0000 0.0000 0.0000 0.0000 0.0000 23.5154
#
#
#
# Elastic Compliance Matrix: (Units=1/GPa)
#
#
# Indices 1 2 3 4 5 6 
#
# 1 0.014170 -0.006330 -0.005034 0.000000 0.000000 0.000000
# 2 -0.006330 0.014170 -0.005034 0.000000 0.000000 0.000000
# 3 -0.005034 -0.005034 0.034122 0.000000 0.000000 0.000000
# 4 0.000000 0.000000 0.000000 0.050640 0.000000 0.000000
# 5 0.000000 0.000000 0.000000 0.000000 0.050641 0.000000
# 6 0.000000 0.000000 0.000000 0.000000 0.000000 0.042525
#
#
# Mechanical properties :
#
#
# Convention : Reuss Voigt Hill
#
# Bulk Modulus (GPa) = 33.70803 49.30521 41.50662
# Shear Modulus (GPa) = 20.08412 22.04047 21.06230
#
# Velocity S-wave (km/s) = 3.45027 3.61441 3.53330
# Velocity P-wave (km/s) = 5.98767 6.82958 6.42243
#
# Compressibility (1/GPa) = 0.02966652
#
# Stress axis : x y z
#
# Youngs Moduli (GPa) = 70.57182 70.57155 29.30657
#
# Poissons Ratio (x) = 0.44673 0.14752
# Poissons Ratio (y) = 0.44673 0.14752
# Poissons Ratio (z) = 0.35524 0.35525
#
# Static dielectric constant tensor:
#      x y z
#    x 3.285150 0.000000 0.000000 
#    y 0.000000 3.285150 0.000000 
#    z 0.000000 0.000000 2.923160 
# 
# 
# High freq. dielectric constant tensor:
#      x y z
#    x 1.652380 0.000000 0.000000 
#    y 0.000000 1.652380 0.000000 
#    z 0.000000 0.000000 1.619750 
# 
# From -- ./inp_files/6156.got.cif
#   From: 2010.03.12/outbox.cif.g09.slc.cpg/sg129_4_cif.got.tgz:6156.got - 2010.04.06 17:19:44.
