data_PCOD8314324
_publ_section_title
;
Structure prediction by ZEFSAII (Michael W. Deem and Ramdas Pophale) SiO2 
 PCOD8314324
Probable space group: P 4/M B M
;
_chemical_formula_sum "Si O2"
_cell_formula_units_Z 72
_cell_length_a 13.492649
_cell_length_b 13.492649
_cell_length_c 20.401902
_cell_angle_alpha 90.000000
_cell_angle_beta 90.000000
_cell_angle_gamma 90.000000
_cell_volume 3714.198434
_symmetry_space_group_name_H-M "P 4/M B M"
_symmetry_group_IT_number 127
_symmetry_cell_setting 'tetragonal'
loop_
_space_group_symop_operation_xyz
x,y,z
-y,x,z
-x,-y,z
y,-x,z
1/2+x,1/2-y,-z
1/2-x,1/2+y,-z
1/2+y,1/2+x,-z
1/2-y,1/2-x,-z
-x,-y,-z
y,-x,-z
x,y,-z
-y,x,-z
1/2-x,1/2+y,z
1/2+x,1/2-y,z
1/2-y,1/2-x,z
1/2+y,1/2+x,z
loop_
_atom_site_type_symbol
_atom_site_label
_atom_site_fract_x
_atom_site_fract_y
_atom_site_fract_z
Si Si1 0.397692 0.627355 0.000000
Si Si2 0.837945 0.499623 0.328253
Si Si3 0.986754 0.840339 0.423233
Si Si4 0.081043 0.740412 0.804237
Si Si5 0.774992 0.119494 0.134677
O O1 0.362627 0.515229 0.000000
O O2 0.353980 0.679296 0.064316
O O3 0.909449 0.409449 0.349084
O O4 0.764438 0.523960 0.387429
O O5 0.770397 0.468795 0.266692
O O6 0.903069 0.596932 0.311211
O O7 0.984776 0.818112 0.500000
O O8 0.089322 0.894555 0.403822
O O9 0.140078 0.640078 0.822872
O O10 0.154850 0.834530 0.807966
O O11 0.997015 0.761383 0.857561
O O12 0.666799 0.166799 0.139967
#
# Coordination Sequence:
#
# PCOD8314324 Si02
#       5
#     8  16  16  16  16
#     4  11  21  38  60  85 118 150 190 249 300 342
#     4  10  22  39  59  86 120 155 194 243 295 348
#     4   9  20  39  60  86 120 157 199 244 288 340
#     4  10  23  40  59  88 120 152 194 242 294 352
#     4  11  22  39  63  86 116 157 196 239 291 353
#
# _framework density 19.385072000000001
#
# number of rings (size 3 to 8) (size 9 to 14) (size 15 to 20)
#    0.000    1.889    2.222    1.667    3.111    3.556 
#    0.000    3.889    0.000    1.333    0.000    0.000 
#    0.000    0.000    0.000    0.000    0.000    0.000 
#
# Total GULP energy -892854.584310 kJ/mol
# GULP energy per Si atom -12400.758115 kJ/mol
# Density = 1.934095 g / cm^3
# Si number density = 19.385072 Si / 1000 Ang^3
#
#
#
# Elastic Constant Matrix: (Units=GPa)
#
#
# Indices 1 2 3 4 5 6 
#
# 1 92.8384 30.4940 32.9715 0.0000 0.0000 0.0000
# 2 30.4940 92.8384 32.9715 0.0000 0.0000 0.0000
# 3 32.9715 32.9715 76.6277 0.0000 0.0000 0.0000
# 4 0.0000 0.0000 0.0000 31.1866 0.0000 0.0000
# 5 0.0000 0.0000 0.0000 0.0000 31.1866 0.0000
# 6 0.0000 0.0000 0.0000 0.0000 0.0000 16.7427
#
#
#
# Elastic Compliance Matrix: (Units=1/GPa)
#
#
# Indices 1 2 3 4 5 6 
#
# 1 0.013285 -0.002754 -0.004531 0.000000 0.000000 0.000000
# 2 -0.002754 0.013285 -0.004531 0.000000 0.000000 0.000000
# 3 -0.004531 -0.004531 0.016950 0.000000 0.000000 0.000000
# 4 0.000000 0.000000 0.000000 0.032065 0.000000 0.000000
# 5 0.000000 0.000000 0.000000 0.000000 0.032065 0.000000
# 6 0.000000 0.000000 0.000000 0.000000 0.000000 0.059727
#
#
# Mechanical properties :
#
#
# Convention : Reuss Voigt Hill
#
# Bulk Modulus (GPa) = 50.28577 50.57541 50.43059
# Shear Modulus (GPa) = 25.29840 26.88101 26.08971
#
# Velocity S-wave (km/s) = 3.61646 3.72786 3.67258
# Velocity P-wave (km/s) = 6.59054 6.68400 6.63743
#
# Compressibility (1/GPa) = 0.01988634
#
# Stress axis : x y z
#
# Youngs Moduli (GPa) = 75.27042 75.27042 58.99855
#
# Poissons Ratio (x) = 0.20733 0.26734
# Poissons Ratio (y) = 0.20733 0.26734
# Poissons Ratio (z) = 0.34107 0.34107
#
# Static dielectric constant tensor:
#      x y z
#    x 3.502820 0.000000 0.000000 
#    y 0.000000 3.502820 0.000000 
#    z 0.000000 0.000000 3.392440 
# 
# 
# High freq. dielectric constant tensor:
#      x y z
#    x 1.758050 0.000000 0.000000 
#    y 0.000000 1.758050 0.000000 
#    z 0.000000 0.000000 1.747700 
# 
# From -- ./inp_files/4939.got.cif
#   From: 2010.03.12/outbox.cif.g09.slc.cpg/sg127_3_cif.got.tgz:4939.got - 2010.04.06 17:03:15.
