data_PCOD8314445
_publ_section_title
;
Structure prediction by ZEFSAII (Michael W. Deem and Ramdas Pophale) SiO2 
 PCOD8314445
Probable space group: P 4/M B M
;
_chemical_formula_sum "Si O2"
_cell_formula_units_Z 72
_cell_length_a 20.808772
_cell_length_b 20.808772
_cell_length_c 7.718663
_cell_angle_alpha 90.000000
_cell_angle_beta 90.000000
_cell_angle_gamma 90.000000
_cell_volume 3342.219612
_symmetry_space_group_name_H-M "P 4/M B M"
_symmetry_group_IT_number 127
_symmetry_cell_setting 'tetragonal'
loop_
_space_group_symop_operation_xyz
x,y,z
-y,x,z
-x,-y,z
y,-x,z
1/2+x,1/2-y,-z
1/2-x,1/2+y,-z
1/2+y,1/2+x,-z
1/2-y,1/2-x,-z
-x,-y,-z
y,-x,-z
x,y,-z
-y,x,-z
1/2-x,1/2+y,z
1/2+x,1/2-y,z
1/2-y,1/2-x,z
1/2+y,1/2+x,z
loop_
_atom_site_type_symbol
_atom_site_label
_atom_site_fract_x
_atom_site_fract_y
_atom_site_fract_z
Si Si1 0.598365 0.673098 0.696709
Si Si2 0.599727 0.463917 0.000000
Si Si3 0.157479 0.242008 0.705477
Si Si4 0.157605 0.445694 0.704076
Si Si5 0.186680 0.584155 0.196744
O O1 0.589074 0.646828 0.500000
O O2 0.547614 0.640363 0.825159
O O3 0.669157 0.657525 0.773162
O O4 0.587289 0.749427 0.688455
O O5 0.581554 0.538116 0.000000
O O6 0.161771 0.241907 0.500000
O O7 0.219613 0.280388 0.779238
O O8 0.092710 0.278415 0.765107
O O9 0.159353 0.456418 0.500000
O O10 0.094734 0.405267 0.758316
O O11 0.154829 0.513879 0.797297
O O12 0.135508 0.635508 0.270100
O O13 0.204975 0.600545 0.000000
#
# Coordination Sequence:
#
# PCOD8314445 Si02
#       5
#    16   8  16  16  16
#     4  11  23  41  71  98 125 169 218 268 327 387
#     4  11  28  50  67  94 136 169 206 265 325 395
#     4   8  16  33  58  89 123 159 206 266 325 378
#     4   9  19  37  61  89 122 165 218 269 319 381
#     4  11  24  40  59  89 132 175 217 268 328 392
#
# _framework density 21.542569
#
# number of rings (size 3 to 8) (size 9 to 14) (size 15 to 20)
#    0.000    2.111    1.111    2.667    3.111    4.444 
#    0.000    3.333    0.000    0.000    0.000    0.000 
#    0.000    0.000    0.000    0.000    0.000    0.000 
#
# Total GULP energy -892877.257427 kJ/mol
# GULP energy per Si atom -12401.073020 kJ/mol
# Density = 2.149354 g / cm^3
# Si number density = 21.542569 Si / 1000 Ang^3
#
#
#
# Elastic Constant Matrix: (Units=GPa)
#
#
# Indices 1 2 3 4 5 6 
#
# 1 118.7002 40.8952 23.9247 0.0000 0.0000 0.0000
# 2 40.8952 118.7002 23.9247 0.0000 0.0000 0.0000
# 3 23.9247 23.9247 75.7318 0.0000 0.0000 0.0000
# 4 0.0000 0.0000 0.0000 24.6005 0.0000 0.0000
# 5 0.0000 0.0000 0.0000 0.0000 24.6005 0.0000
# 6 0.0000 0.0000 0.0000 0.0000 0.0000 29.5935
#
#
#
# Elastic Compliance Matrix: (Units=1/GPa)
#
#
# Indices 1 2 3 4 5 6 
#
# 1 0.009887 -0.002966 -0.002187 0.000000 0.000000 0.000000
# 2 -0.002966 0.009887 -0.002187 0.000000 0.000000 0.000000
# 3 -0.002187 -0.002187 0.014586 0.000000 0.000000 0.000000
# 4 0.000000 0.000000 0.000000 0.040650 0.000000 0.000000
# 5 0.000000 0.000000 0.000000 0.000000 0.040650 0.000000
# 6 0.000000 0.000000 0.000000 0.000000 0.000000 0.033791
#
#
# Mechanical properties :
#
#
# Convention : Reuss Voigt Hill
#
# Bulk Modulus (GPa) = 50.80634 54.51349 52.65992
# Shear Modulus (GPa) = 29.29311 30.71810 30.00560
#
# Velocity S-wave (km/s) = 3.69152 3.78024 3.73614
# Velocity P-wave (km/s) = 6.46569 6.66435 6.56577
#
# Compressibility (1/GPa) = 0.01968258
#
# Stress axis : x y z
#
# Youngs Moduli (GPa) = 101.14258 101.14258 68.55878
#
# Poissons Ratio (x) = 0.29995 0.14991
# Poissons Ratio (y) = 0.29995 0.14991
# Poissons Ratio (z) = 0.22116 0.22116
#
# Static dielectric constant tensor:
#      x y z
#    x 3.984540 0.000000 0.000000 
#    y 0.000000 3.984540 0.000000 
#    z 0.000000 0.000000 3.578150 
# 
# 
# High freq. dielectric constant tensor:
#      x y z
#    x 1.844780 0.000000 0.000000 
#    y 0.000000 1.844780 0.000000 
#    z 0.000000 0.000000 1.832670 
# 
# From -- ./inp_files/1568.got.cif
#   From: 2010.03.12/outbox.cif.g09.slc.cpg/sg127_1_cif.got.tgz:1568.got - 2010.04.06 17:03:15.
