data_PCOD8314758
_publ_section_title
;
Structure prediction by ZEFSAII (Michael W. Deem and Ramdas Pophale) SiO2 
 PCOD8314758
Probable space group: P 4/M N C
;
_chemical_formula_sum "Si O2"
_cell_formula_units_Z 112
_cell_length_a 14.520567
_cell_length_b 14.520567
_cell_length_c 25.289989
_cell_angle_alpha 90.000000
_cell_angle_beta 90.000000
_cell_angle_gamma 90.000000
_cell_volume 5332.314922
_symmetry_space_group_name_H-M "P 4/M N C"
_symmetry_group_IT_number 128
_symmetry_cell_setting 'tetragonal'
loop_
_space_group_symop_operation_xyz
x,y,z
-y,x,z
-x,-y,z
y,-x,z
1/2+x,1/2-y,1/2-z
1/2-x,1/2+y,1/2-z
1/2+y,1/2+x,1/2-z
1/2-y,1/2-x,1/2-z
-x,-y,-z
y,-x,-z
x,y,-z
-y,x,-z
1/2-x,1/2+y,1/2+z
1/2+x,1/2-y,1/2+z
1/2-y,1/2-x,1/2+z
1/2+y,1/2+x,1/2+z
loop_
_atom_site_type_symbol
_atom_site_label
_atom_site_fract_x
_atom_site_fract_y
_atom_site_fract_z
Si Si1 0.566086 0.367135 0.605526
Si Si2 0.366684 0.275805 0.768280
Si Si3 0.375420 0.189743 0.875846
Si Si4 0.939034 0.775152 0.214206
Si Si5 0.098860 0.489424 0.343481
Si Si6 0.549090 0.137852 0.060650
Si Si7 0.743470 0.208314 0.941698
O O1 0.622159 0.459179 0.590784
O O2 0.577388 0.347611 0.667519
O O3 0.606555 0.282064 0.572213
O O4 0.318520 0.181481 0.750000
O O5 0.392276 0.265067 0.830052
O O6 0.461502 0.291954 0.738359
O O7 0.296475 0.360899 0.758039
O O8 0.357138 0.089095 0.851837
O O9 0.459790 0.191181 0.917075
O O10 0.279887 0.214523 0.901843
O O11 0.929272 0.670031 0.191532
O O12 0.076407 0.446299 0.401103
O O13 0.000000 0.500000 0.313370
O O14 0.633105 0.209651 0.061612
O O15 0.532022 0.103772 0.000000
O O16 0.776173 0.235365 0.000000
#
# Coordination Sequence:
#
# PCOD8314758 Si02
#       7
#    16  16  16  16  16  16  16
#     4  11  22  40  66  95 135 178 219 265 324 398
#     4  12  27  42  67  98 130 179 228 269 343 393
#     4  11  24  44  63  96 130 170 224 279 328 400
#     4  12  23  44  66  93 138 176 219 280 324 405
#     4  10  22  40  68  96 133 170 217 266 339 398
#     4  10  23  42  68  98 129 170 222 276 336 401
#     4  11  24  41  66  96 130 175 217 272 343 393
#
# _framework density 21.004010000000001
#
# number of rings (size 3 to 8) (size 9 to 14) (size 15 to 20)
#    0.000    1.000    4.286    2.143    2.000    5.143 
#    0.000    2.857    0.000    0.429    0.000    2.000 
#    0.000    0.000    0.000    0.000    0.000    0.000 
#
# Total GULP energy -1388728.504899 kJ/mol
# GULP energy per Si atom -12399.361651 kJ/mol
# Density = 2.095620 g / cm^3
# Si number density = 21.004010 Si / 1000 Ang^3
#
#
#
# Elastic Constant Matrix: (Units=GPa)
#
#
# Indices 1 2 3 4 5 6 
#
# 1 97.6324 45.6533 47.4644 0.0000 0.0000 0.0000
# 2 45.6533 97.6329 47.4647 0.0000 0.0000 0.0000
# 3 47.4644 47.4647 102.5841 0.0000 0.0000 0.0000
# 4 0.0000 0.0000 0.0000 18.8820 0.0000 0.0000
# 5 0.0000 0.0000 0.0000 0.0000 18.8813 0.0000
# 6 0.0000 0.0000 0.0000 0.0000 0.0000 26.1487
#
#
#
# Elastic Compliance Matrix: (Units=1/GPa)
#
#
# Indices 1 2 3 4 5 6 
#
# 1 0.014651 -0.004587 -0.004657 0.000000 0.000000 0.000000
# 2 -0.004587 0.014651 -0.004657 0.000000 0.000000 0.000000
# 3 -0.004657 -0.004657 0.014057 0.000000 0.000000 0.000000
# 4 0.000000 0.000000 0.000000 0.052961 0.000000 0.000000
# 5 0.000000 0.000000 0.000000 0.000000 0.052963 0.000000
# 6 0.000000 0.000000 0.000000 0.000000 0.000000 0.038243
#
#
# Mechanical properties :
#
#
# Convention : Reuss Voigt Hill
#
# Bulk Modulus (GPa) = 64.27082 64.33490 64.30286
# Shear Modulus (GPa) = 22.67445 23.26685 22.97065
#
# Velocity S-wave (km/s) = 3.28918 3.33187 3.31060
# Velocity P-wave (km/s) = 6.71496 6.74523 6.73011
#
# Compressibility (1/GPa) = 0.01555916
#
# Stress axis : x y z
#
# Youngs Moduli (GPa) = 68.25352 68.25372 71.13811
#
# Poissons Ratio (x) = 0.31309 0.33126
# Poissons Ratio (y) = 0.31309 0.33126
# Poissons Ratio (z) = 0.31782 0.31783
#
# Static dielectric constant tensor:
#      x y z
#    x 3.871570 0.000000 0.000000 
#    y 0.000000 3.871570 0.000000 
#    z 0.000000 0.000000 3.891330 
# 
# 
# High freq. dielectric constant tensor:
#      x y z
#    x 1.822590 0.000000 0.000000 
#    y 0.000000 1.822590 0.000000 
#    z 0.000000 0.000000 1.820970 
# 
# From -- ./inp_files/6437.got.cif
#   From: 2010.03.12/outbox.cif.g09.slc.cpg/sg128_4_cif.got.tgz:6437.got - 2010.04.06 17:11:05.
