data_PCOD8314412
_publ_section_title
;
Structure prediction by ZEFSAII (Michael W. Deem and Ramdas Pophale) SiO2 
 PCOD8314412
Probable space group: P 4/M B M
;
_chemical_formula_sum "Si O2"
_cell_formula_units_Z 96
_cell_length_a 13.939186
_cell_length_b 13.939186
_cell_length_c 23.993862
_cell_angle_alpha 90.000000
_cell_angle_beta 90.000000
_cell_angle_gamma 90.000000
_cell_volume 4662.029133
_symmetry_space_group_name_H-M "P 4/M B M"
_symmetry_group_IT_number 127
_symmetry_cell_setting 'tetragonal'
loop_
_space_group_symop_operation_xyz
x,y,z
-y,x,z
-x,-y,z
y,-x,z
1/2+x,1/2-y,-z
1/2-x,1/2+y,-z
1/2+y,1/2+x,-z
1/2-y,1/2-x,-z
-x,-y,-z
y,-x,-z
x,y,-z
-y,x,-z
1/2-x,1/2+y,z
1/2+x,1/2-y,z
1/2-y,1/2-x,z
1/2+y,1/2+x,z
loop_
_atom_site_type_symbol
_atom_site_label
_atom_site_fract_x
_atom_site_fract_y
_atom_site_fract_z
Si Si1 0.861858 0.200549 0.562990
Si Si2 0.096922 0.755094 0.171656
Si Si3 0.150854 0.046871 0.062307
Si Si4 0.862538 0.076313 0.663185
Si Si5 0.394286 0.739091 0.773443
Si Si6 0.004086 0.351676 0.433879
O O1 0.873480 0.160566 0.500000
O O2 0.781767 0.281767 0.564053
O O3 0.830056 0.110868 0.601223
O O4 0.962873 0.248189 0.586482
O O5 0.161590 0.661590 0.180686
O O6 0.071363 0.766225 0.106425
O O7 0.151066 0.851129 0.191284
O O8 0.002557 0.741504 0.208419
O O9 0.061889 0.117836 0.071271
O O10 0.192961 0.060128 0.000000
O O11 0.786324 0.113690 0.708133
O O12 0.963967 0.127833 0.672071
O O13 0.335676 0.835676 0.784789
O O14 0.998020 0.348145 0.500000
O O15 0.113225 0.386776 0.416042
O O16 0.932547 0.432547 0.410703
#
# Coordination Sequence:
#
# PCOD8314412 Si02
#       6
#    16  16  16  16  16  16
#     4   9  18  34  56  81 112 149 187 236 305 381
#     4  11  22  37  65  97 126 172 219 263 324 380
#     4   9  17  31  56  92 133 177 225 275 318 361
#     4  11  23  39  60  84 109 146 199 256 311 375
#     4  11  23  41  65  93 124 160 210 269 321 385
#     4   7  10  20  42  71 101 135 175 216 265 339
#
# _framework density 20.591892000000001
#
# number of rings (size 3 to 8) (size 9 to 14) (size 15 to 20)
#    0.000    2.333    3.333    2.500    0.000    1.667 
#    0.000    2.500    0.000    2.500    0.000    1.167 
#    0.000    0.000    0.000    3.333    0.000    0.000 
#
# Total GULP energy -1189529.105303 kJ/mol
# GULP energy per Si atom -12390.928180 kJ/mol
# Density = 2.054502 g / cm^3
# Si number density = 20.591892 Si / 1000 Ang^3
#
#
#
# Elastic Constant Matrix: (Units=GPa)
#
#
# Indices 1 2 3 4 5 6 
#
# 1 91.7323 37.9605 40.3272 0.0000 0.0000 0.0000
# 2 37.9605 91.7323 40.3272 0.0000 0.0000 0.0000
# 3 40.3272 40.3272 121.9756 0.0000 0.0000 0.0000
# 4 0.0000 0.0000 0.0000 27.3102 0.0000 0.0000
# 5 0.0000 0.0000 0.0000 0.0000 27.3102 0.0000
# 6 0.0000 0.0000 0.0000 0.0000 0.0000 19.3292
#
#
#
# Elastic Compliance Matrix: (Units=1/GPa)
#
#
# Indices 1 2 3 4 5 6 
#
# 1 0.014152 -0.004445 -0.003209 0.000000 0.000000 0.000000
# 2 -0.004445 0.014152 -0.003209 0.000000 0.000000 0.000000
# 3 -0.003209 -0.003209 0.010320 0.000000 0.000000 0.000000
# 4 0.000000 0.000000 0.000000 0.036616 0.000000 0.000000
# 5 0.000000 0.000000 0.000000 0.000000 0.036616 0.000000
# 6 0.000000 0.000000 0.000000 0.000000 0.000000 0.051735
#
#
# Mechanical properties :
#
#
# Convention : Reuss Voigt Hill
#
# Bulk Modulus (GPa) = 59.18376 60.29669 59.74022
# Shear Modulus (GPa) = 26.18476 27.24494 26.71485
#
# Velocity S-wave (km/s) = 3.56983 3.64138 3.60578
# Velocity P-wave (km/s) = 6.76722 6.85747 6.81249
#
# Compressibility (1/GPa) = 0.01689653
#
# Stress axis : x y z
#
# Youngs Moduli (GPa) = 70.66315 70.66315 96.89659
#
# Poissons Ratio (x) = 0.31413 0.31094
# Poissons Ratio (y) = 0.31413 0.31094
# Poissons Ratio (z) = 0.22676 0.22676
#
# Static dielectric constant tensor:
#      x y z
#    x 3.753990 0.000000 0.000000 
#    y 0.000000 3.753990 0.000000 
#    z 0.000000 0.000000 3.678820 
# 
# 
# High freq. dielectric constant tensor:
#      x y z
#    x 1.801240 0.000000 0.000000 
#    y 0.000000 1.801240 0.000000 
#    z 0.000000 0.000000 1.789280 
# 
# From -- ./inp_files/5788.got.cif
#   From: 2010.03.12/outbox.cif.g09.slc.cpg/sg127_3_cif.got.tgz:5788.got - 2010.04.06 17:03:15.
