data_PCOD8314171
_publ_section_title
;
Structure prediction by ZEFSAII (Michael W. Deem and Ramdas Pophale) SiO2 
 PCOD8314171
Probable space group: P 4/M B M
;
_chemical_formula_sum "Si O2"
_cell_formula_units_Z 72
_cell_length_a 21.184361
_cell_length_b 21.184361
_cell_length_c 8.527418
_cell_angle_alpha 90.000000
_cell_angle_beta 90.000000
_cell_angle_gamma 90.000000
_cell_volume 3826.910355
_symmetry_space_group_name_H-M "P 4/M B M"
_symmetry_group_IT_number 127
_symmetry_cell_setting 'tetragonal'
loop_
_space_group_symop_operation_xyz
x,y,z
-y,x,z
-x,-y,z
y,-x,z
1/2+x,1/2-y,-z
1/2-x,1/2+y,-z
1/2+y,1/2+x,-z
1/2-y,1/2-x,-z
-x,-y,-z
y,-x,-z
x,y,-z
-y,x,-z
1/2-x,1/2+y,z
1/2+x,1/2-y,z
1/2-y,1/2-x,z
1/2+y,1/2+x,z
loop_
_atom_site_type_symbol
_atom_site_label
_atom_site_fract_x
_atom_site_fract_y
_atom_site_fract_z
Si Si1 0.184628 0.494060 0.680911
Si Si2 0.230028 0.629204 0.320124
Si Si3 0.900968 0.141520 0.819685
Si Si4 0.530463 0.322975 0.683943
Si Si5 0.051190 0.448811 0.688161
O O1 0.181434 0.476196 0.500000
O O2 0.184822 0.569250 0.708320
O O3 0.250545 0.465297 0.749019
O O4 0.120769 0.465905 0.757752
O O5 0.253803 0.628982 0.500000
O O6 0.191881 0.691881 0.279339
O O7 0.289324 0.627823 0.205373
O O8 0.859690 0.094309 0.716267
O O9 0.973658 0.139536 0.767134
O O10 0.895692 0.121768 0.000000
O O11 0.515283 0.321099 0.500000
O O12 0.050625 0.449376 0.500000
O O13 0.000000 0.500000 0.749088
#
# Coordination Sequence:
#
# PCOD8314171 Si02
#       5
#    16  16  16  16   8
#     4   8  15  27  46  73 106 138 171 216 264 308
#     4   9  17  32  53  76 103 141 186 225 263 313
#     4  11  22  36  55  80 108 137 174 222 277 326
#     4  10  20  37  56  76 105 141 180 218 265 323
#     4   9  14  22  42  76 111 139 169 211 263 310
#
# _framework density 18.814133000000002
#
# number of rings (size 3 to 8) (size 9 to 14) (size 15 to 20)
#    0.000    2.556    0.000    4.667    0.000    3.556 
#    2.000    2.222    0.000    0.000    0.000    7.000 
#    0.000   29.333    0.000    0.000    0.000    0.000 
#
# Total GULP energy -892550.159104 kJ/mol
# GULP energy per Si atom -12396.529988 kJ/mol
# Density = 1.877131 g / cm^3
# Si number density = 18.814133 Si / 1000 Ang^3
#
#
#
# Elastic Constant Matrix: (Units=GPa)
#
#
# Indices 1 2 3 4 5 6 
#
# 1 95.9071 66.9576 10.3334 0.0000 0.0000 0.0000
# 2 66.9576 95.9073 10.3334 0.0000 0.0000 0.0000
# 3 10.3334 10.3334 37.4130 0.0000 0.0000 0.0000
# 4 0.0000 0.0000 0.0000 15.2719 0.0000 0.0000
# 5 0.0000 0.0000 0.0000 0.0000 15.2719 0.0000
# 6 0.0000 0.0000 0.0000 0.0000 0.0000 38.2967
#
#
#
# Elastic Compliance Matrix: (Units=1/GPa)
#
#
# Indices 1 2 3 4 5 6 
#
# 1 0.020453 -0.014090 -0.001757 0.000000 0.000000 0.000000
# 2 -0.014090 0.020453 -0.001757 0.000000 0.000000 0.000000
# 3 -0.001757 -0.001757 0.027699 0.000000 0.000000 0.000000
# 4 0.000000 0.000000 0.000000 0.065480 0.000000 0.000000
# 5 0.000000 0.000000 0.000000 0.000000 0.065480 0.000000
# 6 0.000000 0.000000 0.000000 0.000000 0.000000 0.026112
#
#
# Mechanical properties :
#
#
# Convention : Reuss Voigt Hill
#
# Bulk Modulus (GPa) = 29.94391 44.94181 37.44286
# Shear Modulus (GPa) = 18.38112 23.20830 20.79471
#
# Velocity S-wave (km/s) = 3.12907 3.51601 3.32817
# Velocity P-wave (km/s) = 5.38562 6.35785 5.89182
#
# Compressibility (1/GPa) = 0.03339577
#
# Stress axis : x y z
#
# Youngs Moduli (GPa) = 48.89264 48.89274 36.10174
#
# Poissons Ratio (x) = 0.68889 0.06345
# Poissons Ratio (y) = 0.68889 0.06345
# Poissons Ratio (z) = 0.08593 0.08593
#
# Static dielectric constant tensor:
#      x y z
#    x 3.504530 0.000000 0.000000 
#    y 0.000000 3.504520 0.000000 
#    z 0.000000 0.000000 3.048240 
# 
# 
# High freq. dielectric constant tensor:
#      x y z
#    x 1.732430 0.000000 0.000000 
#    y 0.000000 1.732430 0.000000 
#    z 0.000000 0.000000 1.693890 
# 
# From -- ./inp_files/1570.got.cif
#   From: 2010.03.12/outbox.cif.g09.slc.cpg/sg127_1_cif.got.tgz:1570.got - 2010.04.06 17:03:15.
