data_PCOD8314012
_publ_section_title
;
Structure prediction by ZEFSAII (Michael W. Deem and Ramdas Pophale) SiO2 
 PCOD8314012
Probable space group: P 4/M B M
;
_chemical_formula_sum "Si O2"
_cell_formula_units_Z 72
_cell_length_a 13.943151
_cell_length_b 13.943151
_cell_length_c 19.106026
_cell_angle_alpha 90.000000
_cell_angle_beta 90.000000
_cell_angle_gamma 90.000000
_cell_volume 3714.430406
_symmetry_space_group_name_H-M "P 4/M B M"
_symmetry_group_IT_number 127
_symmetry_cell_setting 'tetragonal'
loop_
_space_group_symop_operation_xyz
x,y,z
-y,x,z
-x,-y,z
y,-x,z
1/2+x,1/2-y,-z
1/2-x,1/2+y,-z
1/2+y,1/2+x,-z
1/2-y,1/2-x,-z
-x,-y,-z
y,-x,-z
x,y,-z
-y,x,-z
1/2-x,1/2+y,z
1/2+x,1/2-y,z
1/2-y,1/2-x,z
1/2+y,1/2+x,z
loop_
_atom_site_type_symbol
_atom_site_label
_atom_site_fract_x
_atom_site_fract_y
_atom_site_fract_z
Si Si1 0.419067 0.919067 0.577965
Si Si2 0.802058 0.459399 0.673583
Si Si3 0.659774 0.999455 0.174753
Si Si4 0.358537 0.568467 0.577936
Si Si5 0.502112 0.345700 0.082561
O O1 0.387821 0.887821 0.500000
O O2 0.455863 0.825469 0.618860
O O3 0.500000 0.000000 0.574078
O O4 0.894355 0.394355 0.681274
O O5 0.783024 0.499657 0.751182
O O6 0.713776 0.400019 0.639879
O O7 0.593237 0.093237 0.170188
O O8 0.596051 0.903950 0.163986
O O9 0.740697 0.003844 0.115917
O O10 0.374673 0.455667 0.588136
O O11 0.316207 0.588159 0.500000
O O12 0.595973 0.406622 0.105387
O O13 0.502395 0.330801 0.000000
#
# Coordination Sequence:
#
# PCOD8314012 Si02
#       5
#     8  16  16  16  16
#     4   9  16  28  50  74  97 133 175 218 267 308
#     4  10  19  34  53  76 106 138 177 224 269 321
#     4  10  21  37  56  82 119 154 184 227 283 339
#     4   9  19  36  53  70 100 140 178 222 278 333
#     4   9  20  40  63  86 113 147 190 236 278 330
#
# _framework density 19.383861
#
# number of rings (size 3 to 8) (size 9 to 14) (size 15 to 20)
#    0.000    2.556    1.111    2.000    0.000    4.889 
#    2.000    7.778    0.000    0.000    0.000    0.000 
#    0.000    0.000    0.000    0.000    0.000    0.000 
#
# Total GULP energy -892463.296137 kJ/mol
# GULP energy per Si atom -12395.323557 kJ/mol
# Density = 1.933974 g / cm^3
# Si number density = 19.383861 Si / 1000 Ang^3
#
#
#
# Elastic Constant Matrix: (Units=GPa)
#
#
# Indices 1 2 3 4 5 6 
#
# 1 72.6117 8.4281 36.8800 0.0000 0.0000 0.0000
# 2 8.4281 72.6117 36.8800 0.0000 0.0000 0.0000
# 3 36.8800 36.8800 89.7434 0.0000 0.0000 0.0000
# 4 0.0000 0.0000 0.0000 26.7354 0.0000 0.0000
# 5 0.0000 0.0000 0.0000 0.0000 26.7354 0.0000
# 6 0.0000 0.0000 0.0000 0.0000 0.0000 11.3749
#
#
#
# Elastic Compliance Matrix: (Units=1/GPa)
#
#
# Indices 1 2 3 4 5 6 
#
# 1 0.017647 0.002066 -0.008101 0.000000 0.000000 0.000000
# 2 0.002066 0.017647 -0.008101 0.000000 0.000000 0.000000
# 3 -0.008101 -0.008101 0.017801 0.000000 0.000000 0.000000
# 4 0.000000 0.000000 0.000000 0.037404 0.000000 0.000000
# 5 0.000000 0.000000 0.000000 0.000000 0.037404 0.000000
# 6 0.000000 0.000000 0.000000 0.000000 0.000000 0.087913
#
#
# Mechanical properties :
#
#
# Convention : Reuss Voigt Hill
#
# Bulk Modulus (GPa) = 40.28543 44.37146 42.32845
# Shear Modulus (GPa) = 19.81296 23.15438 21.48367
#
# Velocity S-wave (km/s) = 3.20056 3.45993 3.33277
# Velocity P-wave (km/s) = 5.87249 6.23716 6.05757
#
# Compressibility (1/GPa) = 0.02482287
#
# Stress axis : x y z
#
# Youngs Moduli (GPa) = 56.66811 56.66811 56.17630
#
# Poissons Ratio (x) = -0.11709 0.45509
# Poissons Ratio (y) = -0.11709 0.45509
# Poissons Ratio (z) = 0.45907 0.45907
#
# Static dielectric constant tensor:
#      x y z
#    x 3.427350 0.000000 0.000000 
#    y 0.000000 3.427350 0.000000 
#    z 0.000000 0.000000 3.586050 
# 
# 
# High freq. dielectric constant tensor:
#      x y z
#    x 1.743690 0.000000 0.000000 
#    y 0.000000 1.743690 0.000000 
#    z 0.000000 0.000000 1.756720 
# 
# From -- ./inp_files/4932.got.cif
#   From: 2010.03.12/outbox.cif.g09.slc.cpg/sg127_3_cif.got.tgz:4932.got - 2010.04.06 17:03:15.
