data_PCOD8314744
_publ_section_title
;
Structure prediction by ZEFSAII (Michael W. Deem and Ramdas Pophale) SiO2 
 PCOD8314744
Probable space group: P 4/M N C
;
_chemical_formula_sum "Si O2"
_cell_formula_units_Z 64
_cell_length_a 14.114797
_cell_length_b 14.114797
_cell_length_c 17.296007
_cell_angle_alpha 90.000000
_cell_angle_beta 90.000000
_cell_angle_gamma 90.000000
_cell_volume 3445.840137
_symmetry_space_group_name_H-M "P 4/M N C"
_symmetry_group_IT_number 128
_symmetry_cell_setting 'tetragonal'
loop_
_space_group_symop_operation_xyz
x,y,z
-y,x,z
-x,-y,z
y,-x,z
1/2+x,1/2-y,1/2-z
1/2-x,1/2+y,1/2-z
1/2+y,1/2+x,1/2-z
1/2-y,1/2-x,1/2-z
-x,-y,-z
y,-x,-z
x,y,-z
-y,x,-z
1/2-x,1/2+y,1/2+z
1/2+x,1/2-y,1/2+z
1/2-y,1/2-x,1/2+z
1/2+y,1/2+x,1/2+z
loop_
_atom_site_type_symbol
_atom_site_label
_atom_site_fract_x
_atom_site_fract_y
_atom_site_fract_z
Si Si1 0.065541 0.277569 0.089699
Si Si2 0.945765 0.854961 0.226641
Si Si3 0.425441 0.830199 0.818881
Si Si4 0.084574 0.573716 0.084216
O O1 0.070086 0.181869 0.139287
O O2 0.151116 0.348670 0.113480
O O3 0.962918 0.326099 0.107509
O O4 0.077537 0.251643 0.000000
O O5 0.914382 0.776184 0.288465
O O6 0.055141 0.879714 0.239939
O O7 0.405529 0.905529 0.750000
O O8 0.532980 0.843493 0.851245
O O9 0.000000 0.500000 0.076273
O O10 0.135044 0.583135 0.000000
#
# Coordination Sequence:
#
# PCOD8314744 Si02
#       4
#    16  16  16  16
#     4   9  18  34  56  82 107 131 170 221 269 311
#     4  10  22  38  52  70 105 151 183 206 248 311
#     4   9  17  31  52  80 105 134 170 220 264 305
#     4   8  14  27  50  78 106 131 157 203 268 319
#
# _framework density 18.573118999999998
#
# number of rings (size 3 to 8) (size 9 to 14) (size 15 to 20)
#    0.000    3.000    0.000    2.250    0.000   12.500 
#   13.500    1.250    0.000    4.500    0.000    7.000 
#    0.000    0.000    0.000    0.000    0.000    0.000 
#
# Total GULP energy -793167.526781 kJ/mol
# GULP energy per Si atom -12393.242606 kJ/mol
# Density = 1.853085 g / cm^3
# Si number density = 18.573119 Si / 1000 Ang^3
#
#
#
# Elastic Constant Matrix: (Units=GPa)
#
#
# Indices 1 2 3 4 5 6 
#
# 1 72.9112 25.0195 35.1512 0.0000 0.0000 0.0000
# 2 25.0195 72.9112 35.1512 0.0000 0.0000 0.0000
# 3 35.1512 35.1512 90.2023 0.0000 0.0000 0.0000
# 4 0.0000 0.0000 0.0000 12.6044 0.0000 0.0000
# 5 0.0000 0.0000 0.0000 0.0000 12.6044 0.0000
# 6 0.0000 0.0000 0.0000 0.0000 0.0000 11.4403
#
#
#
# Elastic Compliance Matrix: (Units=1/GPa)
#
#
# Indices 1 2 3 4 5 6 
#
# 1 0.017529 -0.003351 -0.005525 0.000000 0.000000 0.000000
# 2 -0.003351 0.017529 -0.005525 0.000000 0.000000 0.000000
# 3 -0.005525 -0.005525 0.015392 0.000000 0.000000 0.000000
# 4 0.000000 0.000000 0.000000 0.079337 0.000000 0.000000
# 5 0.000000 0.000000 0.000000 0.000000 0.079337 0.000000
# 6 0.000000 0.000000 0.000000 0.000000 0.000000 0.087410
#
#
# Mechanical properties :
#
#
# Convention : Reuss Voigt Hill
#
# Bulk Modulus (GPa) = 46.19428 47.40763 46.80096
# Shear Modulus (GPa) = 15.03520 16.71002 15.87261
#
# Velocity S-wave (km/s) = 2.84828 3.00273 2.92653
# Velocity P-wave (km/s) = 5.97851 6.13206 6.05577
#
# Compressibility (1/GPa) = 0.02164770
#
# Stress axis : x y z
#
# Youngs Moduli (GPa) = 57.04836 57.04836 64.96796
#
# Poissons Ratio (x) = 0.19120 0.35894
# Poissons Ratio (y) = 0.19120 0.35894
# Poissons Ratio (z) = 0.31519 0.31519
#
# Static dielectric constant tensor:
#      x y z
#    x 3.263640 0.000000 0.000000 
#    y 0.000000 3.263640 0.000000 
#    z 0.000000 0.000000 3.633990 
# 
# 
# High freq. dielectric constant tensor:
#      x y z
#    x 1.692720 0.000000 0.000000 
#    y 0.000000 1.692720 0.000000 
#    z 0.000000 0.000000 1.728160 
# 
# From -- ./inp_files/4465.got.cif
#   From: 2010.03.12/outbox.cif.g09.slc.cpg/sg128_3_cif.got.tgz:4465.got - 2010.04.06 17:11:05.
