data_PCOD8314921
_publ_section_title
;
Structure prediction by ZEFSAII (Michael W. Deem and Ramdas Pophale) SiO2 
 PCOD8314921
Probable space group: P 4/N M M
;
_chemical_formula_sum "Si O2"
_cell_formula_units_Z 96
_cell_length_a 27.007458
_cell_length_b 27.007458
_cell_length_c 7.661225
_cell_angle_alpha 90.000000
_cell_angle_beta 90.000000
_cell_angle_gamma 90.000000
_cell_volume 5588.118872
_symmetry_space_group_name_H-M "P 4/N M M"
_symmetry_group_IT_number 129
_symmetry_cell_setting 'tetragonal'
loop_
_space_group_symop_operation_xyz
x,y,z
1/2-y,x,z
1/2-x,1/2-y,z
y,1/2-x,z
1/2+x,-y,-z
-x,1/2+y,-z
1/2+y,1/2+x,-z
-y,-x,-z
-x,-y,-z
1/2+y,-x,-z
1/2+x,1/2+y,-z
-y,1/2+x,-z
1/2-x,y,z
x,1/2-y,z
1/2-y,1/2-x,z
y,x,z
loop_
_atom_site_type_symbol
_atom_site_label
_atom_site_fract_x
_atom_site_fract_y
_atom_site_fract_z
Si Si1 0.932238 0.853494 0.791164
Si Si2 0.884935 0.192149 0.559921
Si Si3 0.806608 0.884282 0.468517
Si Si4 0.308520 0.449186 0.853321
Si Si5 0.692385 0.463637 0.735272
Si Si6 0.307169 0.558795 0.886401
O O1 0.910162 0.910162 0.772103
O O2 0.902114 0.818176 0.662313
O O3 0.990401 0.846235 0.742817
O O4 0.921145 0.835184 0.987049
O O5 0.836182 0.163819 0.500000
O O6 0.871337 0.250000 0.556802
O O7 0.931029 0.180562 0.432823
O O8 0.899978 0.171394 0.753007
O O9 0.750000 0.871488 0.447873
O O10 0.834091 0.834091 0.421184
O O11 0.823443 0.925751 0.330341
O O12 0.250000 0.448241 0.889057
O O13 0.329775 0.504904 0.846336
O O14 0.750000 0.482738 0.732582
O O15 0.684418 0.429321 0.908537
O O16 0.250000 0.556378 0.836049
#
# Coordination Sequence:
#
# PCOD8314921 Si02
#       6
#    16  16  16  16  16  16
#     4  10  18  28  46  71  94 115 148 198 250 291
#     4  10  20  33  51  75 101 129 160 192 228 274
#     4  10  19  28  39  57  84 119 156 194 238 288
#     4   9  16  28  46  66  89 117 152 197 244 286
#     4   9  17  31  50  70  94 125 161 200 239 282
#     4   8  15  28  47  70  93 118 150 187 227 272
#
# _framework density 17.179306
#
# number of rings (size 3 to 8) (size 9 to 14) (size 15 to 20)
#    0.000    2.667    0.000    4.000    0.000    3.667 
#    0.000    0.000    0.000    0.500    0.000   11.667 
#    0.000    0.000    0.000    0.000    0.000    0.000 
#
# Total GULP energy -1189538.104732 kJ/mol
# GULP energy per Si atom -12391.021924 kJ/mol
# Density = 1.714021 g / cm^3
# Si number density = 17.179306 Si / 1000 Ang^3
#
#
#
# Elastic Constant Matrix: (Units=GPa)
#
#
# Indices 1 2 3 4 5 6 
#
# 1 50.5828 31.6359 17.0398 0.0000 0.0000 0.0000
# 2 31.6359 50.5833 17.0420 0.0000 0.0000 0.0000
# 3 17.0398 17.0420 55.9318 0.0000 0.0000 0.0000
# 4 0.0000 0.0000 0.0000 19.8629 0.0000 0.0000
# 5 0.0000 0.0000 0.0000 0.0000 19.8624 0.0000
# 6 0.0000 0.0000 0.0000 0.0000 0.0000 23.7880
#
#
#
# Elastic Compliance Matrix: (Units=1/GPa)
#
#
# Indices 1 2 3 4 5 6 
#
# 1 0.033349 -0.019429 -0.004240 0.000000 0.000000 0.000000
# 2 -0.019429 0.033350 -0.004242 0.000000 0.000000 0.000000
# 3 -0.004240 -0.004242 0.020463 0.000000 0.000000 0.000000
# 4 0.000000 0.000000 0.000000 0.050345 0.000000 0.000000
# 5 0.000000 0.000000 0.000000 0.000000 0.050346 0.000000
# 6 0.000000 0.000000 0.000000 0.000000 0.000000 0.042038
#
#
# Mechanical properties :
#
#
# Convention : Reuss Voigt Hill
#
# Bulk Modulus (GPa) = 31.90838 32.05925 31.98382
# Shear Modulus (GPa) = 16.88269 18.79467 17.83868
#
# Velocity S-wave (km/s) = 3.13826 3.31120 3.22589
# Velocity P-wave (km/s) = 5.63432 5.77242 5.70379
#
# Compressibility (1/GPa) = 0.03133973
#
# Stress axis : x y z
#
# Youngs Moduli (GPa) = 29.98565 29.98508 48.86798
#
# Poissons Ratio (x) = 0.58258 0.20721
# Poissons Ratio (y) = 0.58259 0.20732
# Poissons Ratio (z) = 0.12714 0.12721
#
# Static dielectric constant tensor:
#      x y z
#    x 2.990280 0.000000 0.000000 
#    y 0.000000 2.990280 0.000000 
#    z 0.000000 0.000000 3.525880 
# 
# 
# High freq. dielectric constant tensor:
#      x y z
#    x 1.632200 0.000000 0.000000 
#    y 0.000000 1.632200 0.000000 
#    z 0.000000 0.000000 1.688640 
# 
# From -- ./inp_files/2623.got.cif
#   From: 2010.03.12/outbox.cif.g09.slc.cpg/sg129_2_cif.got.tgz:2623.got - 2010.04.06 17:19:44.
