data_PCOD8314791
_publ_section_title
;
Structure prediction by ZEFSAII (Michael W. Deem and Ramdas Pophale) SiO2 
 PCOD8314791
Probable space group: P 4/M N C
;
_chemical_formula_sum "Si O2"
_cell_formula_units_Z 96
_cell_length_a 16.619805
_cell_length_b 16.619805
_cell_length_c 17.952757
_cell_angle_alpha 90.000000
_cell_angle_beta 90.000000
_cell_angle_gamma 90.000000
_cell_volume 4958.873165
_symmetry_space_group_name_H-M "P 4/M N C"
_symmetry_group_IT_number 128
_symmetry_cell_setting 'tetragonal'
loop_
_space_group_symop_operation_xyz
x,y,z
-y,x,z
-x,-y,z
y,-x,z
1/2+x,1/2-y,1/2-z
1/2-x,1/2+y,1/2-z
1/2+y,1/2+x,1/2-z
1/2-y,1/2-x,1/2-z
-x,-y,-z
y,-x,-z
x,y,-z
-y,x,-z
1/2-x,1/2+y,1/2+z
1/2+x,1/2-y,1/2+z
1/2-y,1/2-x,1/2+z
1/2+y,1/2+x,1/2+z
loop_
_atom_site_type_symbol
_atom_site_label
_atom_site_fract_x
_atom_site_fract_y
_atom_site_fract_z
Si Si1 0.416860 0.980506 0.671981
Si Si2 0.685328 0.872175 0.651644
Si Si3 0.802992 0.645725 0.139632
Si Si4 0.235519 0.071489 0.500000
Si Si5 0.778310 0.903089 0.207376
Si Si6 0.719750 0.594662 0.290407
Si Si7 0.118740 0.205506 0.500000
O O1 0.433480 0.933480 0.750000
O O2 0.364287 0.925678 0.617452
O O3 0.500000 0.000000 0.630121
O O4 0.374510 0.064200 0.689504
O O5 0.712070 0.900388 0.570306
O O6 0.760555 0.873235 0.708098
O O7 0.640461 0.785452 0.651407
O O8 0.750669 0.612786 0.207896
O O9 0.856263 0.724046 0.153035
O O10 0.744366 0.661925 0.071344
O O11 0.147141 0.112751 0.500000
O O12 0.216370 0.976853 0.500000
O O13 0.868992 0.869409 0.194645
O O14 0.778662 0.999081 0.194982
#
# Coordination Sequence:
#
# PCOD8314791 Si02
#       7
#    16  16  16   8  16  16   8
#     4  11  18  31  59  87 118 147 183 239 298 353
#     4  11  21  38  58  87 118 152 197 233 296 352
#     4  11  20  38  56  86 114 152 192 235 292 355
#     4  12  24  41  58  88 121 159 197 239 283 350
#     4  11  21  37  59  85 112 155 195 243 290 349
#     4  11  21  37  59  83 114 150 198 237 291 348
#     4  12  24  39  60  84 121 157 195 237 287 342
#
# _framework density 19.359235999999999
#
# number of rings (size 3 to 8) (size 9 to 14) (size 15 to 20)
#    0.000    0.833    5.000    7.000    0.000    0.500 
#    0.000    4.167    0.000    4.000    0.000    0.000 
#    0.000    4.000    0.000    0.000    0.000    0.333 
#
# Total GULP energy -1189720.640530 kJ/mol
# GULP energy per Si atom -12392.923339 kJ/mol
# Density = 1.931517 g / cm^3
# Si number density = 19.359236 Si / 1000 Ang^3
#
#
#
# Elastic Constant Matrix: (Units=GPa)
#
#
# Indices 1 2 3 4 5 6 
#
# 1 107.3231 79.5428 31.3550 0.0000 0.0000 0.0000
# 2 79.5428 107.3231 31.3550 0.0000 0.0000 0.0000
# 3 31.3550 31.3550 87.5644 0.0000 0.0000 0.0000
# 4 0.0000 0.0000 0.0000 -20.5289 0.0000 0.0000
# 5 0.0000 0.0000 0.0000 0.0000 -20.5289 0.0000
# 6 0.0000 0.0000 0.0000 0.0000 0.0000 49.2974
#
#
#
# Elastic Compliance Matrix: (Units=1/GPa)
#
#
# Indices 1 2 3 4 5 6 
#
# 1 0.021040 -0.014957 -0.002178 0.000000 0.000000 0.000000
# 2 -0.014957 0.021040 -0.002178 0.000000 0.000000 0.000000
# 3 -0.002178 -0.002178 0.012980 0.000000 0.000000 0.000000
# 4 0.000000 0.000000 0.000000 -0.048712 0.000000 0.000000
# 5 0.000000 0.000000 0.000000 0.000000 -0.048712 0.000000
# 6 0.000000 0.000000 0.000000 0.000000 0.000000 0.020285
#
#
# Mechanical properties :
#
#
# Convention : Reuss Voigt Hill
#
# Bulk Modulus (GPa) = 60.85407 65.19071 63.02239
# Shear Modulus (GPa) = 227.02145 12.31175 119.66660
#
# Velocity S-wave (km/s) = 10.84077 2.52457 7.87070
# Velocity P-wave (km/s) = 13.71856 6.49963 10.73415
#
# Compressibility (1/GPa) = 0.01643276
#
# Stress axis : x y z
#
# Youngs Moduli (GPa) = 47.52959 47.52959 77.04200
#
# Poissons Ratio (x) = 0.71091 0.16779
# Poissons Ratio (y) = 0.71091 0.16779
# Poissons Ratio (z) = 0.10352 0.10352
#
# Static dielectric constant tensor:
#      x y z
#    x 3.749950 0.000000 0.000000 
#    y 0.000000 3.749950 0.000000 
#    z 0.000000 0.000000 3.228270 
# 
# 
# High freq. dielectric constant tensor:
#      x y z
#    x 1.763320 0.000000 0.000000 
#    y 0.000000 1.763320 0.000000 
#    z 0.000000 0.000000 1.716670 
# 
# From -- ./inp_files/4831.got.cif
#   From: 2010.03.12/outbox.cif.g09.slc.cpg/sg128_3_cif.got.tgz:4831.got - 2010.04.06 17:11:05.
