data_PCOD8314778
_publ_section_title
;
Structure prediction by ZEFSAII (Michael W. Deem and Ramdas Pophale) SiO2 
 PCOD8314778
Probable space group: P 4/M N C
;
_chemical_formula_sum "Si O2"
_cell_formula_units_Z 116
_cell_length_a 17.661696
_cell_length_b 17.661696
_cell_length_c 18.822837
_cell_angle_alpha 90.000000
_cell_angle_beta 90.000000
_cell_angle_gamma 90.000000
_cell_volume 5871.511176
_symmetry_space_group_name_H-M "P 4/M N C"
_symmetry_group_IT_number 128
_symmetry_cell_setting 'tetragonal'
loop_
_space_group_symop_operation_xyz
x,y,z
-y,x,z
-x,-y,z
y,-x,z
1/2+x,1/2-y,1/2-z
1/2-x,1/2+y,1/2-z
1/2+y,1/2+x,1/2-z
1/2-y,1/2-x,1/2-z
-x,-y,-z
y,-x,-z
x,y,-z
-y,x,-z
1/2-x,1/2+y,1/2+z
1/2+x,1/2-y,1/2+z
1/2-y,1/2-x,1/2+z
1/2+y,1/2+x,1/2+z
loop_
_atom_site_type_symbol
_atom_site_label
_atom_site_fract_x
_atom_site_fract_y
_atom_site_fract_z
Si Si1 0.338394 0.994872 0.313957
Si Si2 0.000000 0.500000 0.750000
Si Si3 0.910082 0.079970 0.415593
Si Si4 0.206746 0.795679 0.421539
Si Si5 0.282261 0.995131 0.840533
Si Si6 0.631520 0.136486 0.921103
Si Si7 0.875583 0.004464 0.081903
Si Si8 0.838943 0.337998 0.667823
O O1 0.289924 0.974956 0.243190
O O2 0.315873 0.074496 0.348242
O O3 0.427182 0.000628 0.298909
O O4 0.325964 0.934102 0.374510
O O5 0.907375 0.078328 0.500000
O O6 0.845035 0.137217 0.386520
O O7 0.993753 0.106121 0.388629
O O8 0.173554 0.779345 0.500000
O O9 0.295295 0.810671 0.427630
O O10 0.210202 0.719961 0.376233
O O11 0.317913 0.077194 0.855364
O O12 0.331004 0.935757 0.884866
O O13 0.195077 0.992609 0.864594
O O14 0.602658 0.113200 0.000000
O O15 0.928143 0.077196 0.096782
O O16 0.847501 0.005535 0.000000
O O17 0.823446 0.323446 0.750000
#
# Coordination Sequence:
#
# PCOD8314778 Si02
#       8
#    16   4  16  16  16  16  16  16
#     4  11  21  41  66  85 118 168 205 250 298 362
#     4  12  16  44  66  76 120 152 214 240 296 364
#     4   8  15  31  56  83 112 153 197 233 281 346
#     4  10  23  38  58  89 126 156 195 253 305 357
#     4  11  21  39  63  90 120 162 206 249 304 368
#     4  11  24  39  59  94 125 158 205 254 309 367
#     4   9  20  39  63  90 122 160 199 251 318 374
#     4  10  23  41  61  87 119 161 206 246 300 365
#
# _framework density 19.756412999999998
#
# number of rings (size 3 to 8) (size 9 to 14) (size 15 to 20)
#    0.000    1.931    3.448    1.241    3.862    2.759 
#    2.483    2.414    0.000    0.000    0.000    0.000 
#    0.000    0.000    0.000    0.000    0.000    0.000 
#
# Total GULP energy -1437918.585360 kJ/mol
# GULP energy per Si atom -12395.849874 kJ/mol
# Density = 1.971145 g / cm^3
# Si number density = 19.756413 Si / 1000 Ang^3
#
#
#
# Elastic Constant Matrix: (Units=GPa)
#
#
# Indices 1 2 3 4 5 6 
#
# 1 106.2239 26.4521 60.0231 0.0000 0.0000 0.0000
# 2 26.4521 106.2239 60.0231 0.0000 0.0000 0.0000
# 3 60.0231 60.0231 89.6224 0.0000 0.0000 0.0000
# 4 0.0000 0.0000 0.0000 8.6644 0.0000 0.0000
# 5 0.0000 0.0000 0.0000 0.0000 8.6644 0.0000
# 6 0.0000 0.0000 0.0000 0.0000 0.0000 24.7782
#
#
#
# Elastic Compliance Matrix: (Units=1/GPa)
#
#
# Indices 1 2 3 4 5 6 
#
# 1 0.015832 0.003297 -0.012811 0.000000 0.000000 0.000000
# 2 0.003297 0.015832 -0.012811 0.000000 0.000000 0.000000
# 3 -0.012811 -0.012811 0.028318 0.000000 0.000000 0.000000
# 4 0.000000 0.000000 0.000000 0.115415 0.000000 0.000000
# 5 0.000000 0.000000 0.000000 0.000000 0.115415 0.000000
# 6 0.000000 0.000000 0.000000 0.000000 0.000000 0.040358
#
#
# Mechanical properties :
#
#
# Convention : Reuss Voigt Hill
#
# Bulk Modulus (GPa) = 65.22764 66.11855 65.67309
# Shear Modulus (GPa) = 13.12569 18.79286 15.95927
#
# Velocity S-wave (km/s) = 2.58035 3.08754 2.84527
# Velocity P-wave (km/s) = 6.47805 6.80074 6.64136
#
# Compressibility (1/GPa) = 0.01533092
#
# Stress axis : x y z
#
# Youngs Moduli (GPa) = 63.16189 63.16189 35.31296
#
# Poissons Ratio (x) = -0.20822 0.45240
# Poissons Ratio (y) = -0.20822 0.45240
# Poissons Ratio (z) = 0.80918 0.80918
#
# Static dielectric constant tensor:
#      x y z
#    x 3.104880 0.000000 0.000000 
#    y 0.000000 3.104880 0.000000 
#    z 0.000000 0.000000 3.475060 
# 
# 
# High freq. dielectric constant tensor:
#      x y z
#    x 1.775890 0.000000 0.000000 
#    y 0.000000 1.775890 0.000000 
#    z 0.000000 0.000000 1.750790 
# 
# From -- ./inp_files/4960.got.cif
#   From: 2010.03.12/outbox.cif.g09.slc.cpg/sg128_3_cif.got.tgz:4960.got - 2010.04.06 17:11:05.
