data_PCOD8314249
_publ_section_title
;
Structure prediction by ZEFSAII (Michael W. Deem and Ramdas Pophale) SiO2 
 PCOD8314249
Probable space group: P 4/M B M
;
_chemical_formula_sum "Si O2"
_cell_formula_units_Z 96
_cell_length_a 13.940161
_cell_length_b 13.940161
_cell_length_c 25.841109
_cell_angle_alpha 90.000000
_cell_angle_beta 90.000000
_cell_angle_gamma 90.000000
_cell_volume 5021.653322
_symmetry_space_group_name_H-M "P 4/M B M"
_symmetry_group_IT_number 127
_symmetry_cell_setting 'tetragonal'
loop_
_space_group_symop_operation_xyz
x,y,z
-y,x,z
-x,-y,z
y,-x,z
1/2+x,1/2-y,-z
1/2-x,1/2+y,-z
1/2+y,1/2+x,-z
1/2-y,1/2-x,-z
-x,-y,-z
y,-x,-z
x,y,-z
-y,x,-z
1/2-x,1/2+y,z
1/2+x,1/2-y,z
1/2-y,1/2-x,z
1/2+y,1/2+x,z
loop_
_atom_site_type_symbol
_atom_site_label
_atom_site_fract_x
_atom_site_fract_y
_atom_site_fract_z
Si Si1 0.081065 0.581065 0.559600
Si Si2 0.630962 0.411616 0.000000
Si Si3 0.703036 0.049198 0.625433
Si Si4 0.584786 0.245327 0.738394
Si Si5 0.421323 0.633804 0.440907
Si Si6 0.867867 0.910861 0.888653
Si Si7 0.269458 0.615979 0.214935
O O1 0.109366 0.609366 0.500000
O O2 0.175104 0.544691 0.591262
O O3 0.000000 0.500000 0.556674
O O4 0.629918 0.525219 0.000000
O O5 0.678064 0.379828 0.944961
O O6 0.605955 0.105955 0.633432
O O7 0.745986 0.031853 0.682388
O O8 0.779559 0.115601 0.594500
O O9 0.650315 0.150315 0.747539
O O10 0.650283 0.340179 0.746000
O O11 0.496782 0.250757 0.778006
O O12 0.371613 0.534483 0.427537
O O13 0.404509 0.661497 0.500000
O O14 0.803286 0.865418 0.843779
O O15 0.974579 0.869580 0.883188
O O16 0.169305 0.669305 0.224210
#
# Coordination Sequence:
#
# PCOD8314249 Si02
#       7
#     8   8  16  16  16  16  16
#     4   9  18  34  58  82 104 136 174 216 270 326
#     4   7  12  22  45  78 110 143 184 234 294 339
#     4  10  21  37  56  79 107 136 174 220 263 316
#     4  10  24  40  55  83 114 146 189 237 285 341
#     4   9  19  36  54  74 103 135 165 205 262 321
#     4   9  15  29  52  80 112 148 189 241 291 339
#     4  11  22  37  58  82 114 151 193 238 280 342
#
# _framework density 19.11721
#
# number of rings (size 3 to 8) (size 9 to 14) (size 15 to 20)
#    0.000    2.500    1.667    2.000    3.500    1.667 
#    1.500    0.417    0.000    0.000    0.000    0.583 
#    0.000    1.333    0.000    0.000    0.000    0.000 
#
# Total GULP energy -1189262.647407 kJ/mol
# GULP energy per Si atom -12388.152577 kJ/mol
# Density = 1.907370 g / cm^3
# Si number density = 19.117210 Si / 1000 Ang^3
#
#
#
# Elastic Constant Matrix: (Units=GPa)
#
#
# Indices 1 2 3 4 5 6 
#
# 1 65.0881 11.3871 24.0795 0.0000 0.0000 0.0000
# 2 11.3871 65.0881 24.0795 0.0000 0.0000 0.0000
# 3 24.0795 24.0795 125.3577 0.0000 0.0000 0.0000
# 4 0.0000 0.0000 0.0000 23.2387 0.0000 0.0000
# 5 0.0000 0.0000 0.0000 0.0000 23.2387 0.0000
# 6 0.0000 0.0000 0.0000 0.0000 0.0000 13.2168
#
#
#
# Elastic Compliance Matrix: (Units=1/GPa)
#
#
# Indices 1 2 3 4 5 6 
#
# 1 0.016749 -0.001873 -0.002857 0.000000 0.000000 0.000000
# 2 -0.001873 0.016749 -0.002857 0.000000 0.000000 0.000000
# 3 -0.002857 -0.002857 0.009075 0.000000 0.000000 0.000000
# 4 0.000000 0.000000 0.000000 0.043032 0.000000 0.000000
# 5 0.000000 0.000000 0.000000 0.000000 0.043032 0.000000
# 6 0.000000 0.000000 0.000000 0.000000 0.000000 0.075662
#
#
# Mechanical properties :
#
#
# Convention : Reuss Voigt Hill
#
# Bulk Modulus (GPa) = 36.50112 41.62510 39.06311
# Shear Modulus (GPa) = 21.87182 25.00469 23.43825
#
# Velocity S-wave (km/s) = 3.38611 3.62051 3.50527
# Velocity P-wave (km/s) = 5.86706 6.26884 6.07128
#
# Compressibility (1/GPa) = 0.02739642
#
# Stress axis : x y z
#
# Youngs Moduli (GPa) = 59.70656 59.70656 110.19408
#
# Poissons Ratio (x) = 0.11183 0.31487
# Poissons Ratio (y) = 0.11183 0.31487
# Poissons Ratio (z) = 0.17060 0.17060
#
# Static dielectric constant tensor:
#      x y z
#    x 3.251700 0.000000 0.000000 
#    y 0.000000 3.251700 0.000000 
#    z 0.000000 0.000000 3.858100 
# 
# 
# High freq. dielectric constant tensor:
#      x y z
#    x 1.719020 0.000000 0.000000 
#    y 0.000000 1.719020 0.000000 
#    z 0.000000 0.000000 1.756050 
# 
# From -- ./inp_files/6141.got.cif
#   From: 2010.03.12/outbox.cif.g09.slc.cpg/sg127_4_cif.got.tgz:6141.got - 2010.04.06 17:03:15.
