data_PCOD8314007
_publ_section_title
;
Structure prediction by ZEFSAII (Michael W. Deem and Ramdas Pophale) SiO2 
 PCOD8314007
Probable space group: P 4/M B M
;
_chemical_formula_sum "Si O2"
_cell_formula_units_Z 72
_cell_length_a 18.609886
_cell_length_b 18.609886
_cell_length_c 12.479919
_cell_angle_alpha 90.000000
_cell_angle_beta 90.000000
_cell_angle_gamma 90.000000
_cell_volume 4322.143602
_symmetry_space_group_name_H-M "P 4/M B M"
_symmetry_group_IT_number 127
_symmetry_cell_setting 'tetragonal'
loop_
_space_group_symop_operation_xyz
x,y,z
-y,x,z
-x,-y,z
y,-x,z
1/2+x,1/2-y,-z
1/2-x,1/2+y,-z
1/2+y,1/2+x,-z
1/2-y,1/2-x,-z
-x,-y,-z
y,-x,-z
x,y,-z
-y,x,-z
1/2-x,1/2+y,z
1/2+x,1/2-y,z
1/2-y,1/2-x,z
1/2+y,1/2+x,z
loop_
_atom_site_type_symbol
_atom_site_label
_atom_site_fract_x
_atom_site_fract_y
_atom_site_fract_z
Si Si1 0.891685 0.199519 0.694120
Si Si2 0.558063 0.601318 0.124192
Si Si3 0.606052 0.446655 0.500000
Si Si4 0.842169 0.460451 0.624284
Si Si5 0.615977 0.115977 0.374014
Si Si6 0.766549 0.733452 0.373320
O O1 0.905169 0.164897 0.809653
O O2 0.925864 0.148750 0.605338
O O3 0.928149 0.277366 0.692660
O O4 0.807177 0.207244 0.677473
O O5 0.473890 0.596181 0.152915
O O6 0.568647 0.619656 0.000000
O O7 0.595745 0.531640 0.500000
O O8 0.818188 0.463233 0.500000
O O9 0.912569 0.412569 0.638800
O O10 0.859898 0.538935 0.672038
O O11 0.606981 0.106981 0.500000
O O12 0.674604 0.174604 0.342985
O O13 0.756294 0.743706 0.500000
#
# Coordination Sequence:
#
# PCOD8314007 Si02
#       6
#    16  16   8  16   8   8
#     4  12  21  33  56  78 113 148 178 223 280 339
#     4   9  20  39  60  81 107 143 187 231 277 332
#     4  11  24  33  48  80 113 144 179 218 264 342
#     4  10  19  34  51  75 105 149 188 228 266 312
#     4   9  21  32  51  71 106 147 196 220 257 322
#     4  11  22  35  47  81 119 153 176 218 286 340
#
# _framework density 16.6584
#
# number of rings (size 3 to 8) (size 9 to 14) (size 15 to 20)
#    0.000    1.667    3.333    2.333    6.222    3.111 
#    0.000    0.556    0.000    0.000    0.000    0.778 
#    0.000    1.778    0.000    0.000    0.000    0.000 
#
# Total GULP energy -893071.518088 kJ/mol
# GULP energy per Si atom -12403.771085 kJ/mol
# Density = 1.662048 g / cm^3
# Si number density = 16.658400 Si / 1000 Ang^3
#
#
#
# Elastic Constant Matrix: (Units=GPa)
#
#
# Indices 1 2 3 4 5 6 
#
# 1 110.7318 74.1231 38.9310 0.0000 0.0000 0.0000
# 2 74.1231 110.7332 38.9311 0.0000 0.0000 0.0000
# 3 38.9310 38.9311 62.2236 0.0000 0.0000 0.0000
# 4 0.0000 0.0000 0.0000 23.0863 0.0000 0.0000
# 5 0.0000 0.0000 0.0000 0.0000 23.0863 0.0000
# 6 0.0000 0.0000 0.0000 0.0000 0.0000 21.4648
#
#
#
# Elastic Compliance Matrix: (Units=1/GPa)
#
#
# Indices 1 2 3 4 5 6 
#
# 1 0.017331 -0.009985 -0.004596 0.000000 0.000000 0.000000
# 2 -0.009985 0.017330 -0.004596 0.000000 0.000000 0.000000
# 3 -0.004596 -0.004596 0.021822 0.000000 0.000000 0.000000
# 4 0.000000 0.000000 0.000000 0.043316 0.000000 0.000000
# 5 0.000000 0.000000 0.000000 0.000000 0.043316 0.000000
# 6 0.000000 0.000000 0.000000 0.000000 0.000000 0.046588
#
#
# Mechanical properties :
#
#
# Convention : Reuss Voigt Hill
#
# Bulk Modulus (GPa) = 55.15828 65.29546 60.22687
# Shear Modulus (GPa) = 21.35855 22.30770 21.83313
#
# Velocity S-wave (km/s) = 3.58460 3.66338 3.62420
# Velocity P-wave (km/s) = 7.09336 7.56145 7.33114
#
# Compressibility (1/GPa) = 0.01812964
#
# Stress axis : x y z
#
# Youngs Moduli (GPa) = 57.70161 57.70248 45.82566
#
# Poissons Ratio (x) = 0.57616 0.21061
# Poissons Ratio (y) = 0.57615 0.21060
# Poissons Ratio (z) = 0.26519 0.26518
#
# Static dielectric constant tensor:
#      x y z
#    x 3.362630 0.000000 0.000000 
#    y 0.000000 3.362660 0.000000 
#    z 0.000000 0.000000 2.826990 
# 
# 
# High freq. dielectric constant tensor:
#      x y z
#    x 1.654960 0.000000 0.000000 
#    y 0.000000 1.654960 0.000000 
#    z 0.000000 0.000000 1.598200 
# 
# From -- ./inp_files/3244.got.cif
#   From: 2010.03.12/outbox.cif.g09.slc.cpg/sg127_2_cif.got.tgz:3244.got - 2010.04.06 17:03:15.
