data_PCOD8314481
_publ_section_title
;
Structure prediction by ZEFSAII (Michael W. Deem and Ramdas Pophale) SiO2 
 PCOD8314481
Probable space group: P 4/M N C
;
_chemical_formula_sum "Si O2"
_cell_formula_units_Z 112
_cell_length_a 19.397893
_cell_length_b 19.397893
_cell_length_c 18.633691
_cell_angle_alpha 90.000000
_cell_angle_beta 90.000000
_cell_angle_gamma 90.000000
_cell_volume 7011.452693
_symmetry_space_group_name_H-M "P 4/M N C"
_symmetry_group_IT_number 128
_symmetry_cell_setting 'tetragonal'
loop_
_space_group_symop_operation_xyz
x,y,z
-y,x,z
-x,-y,z
y,-x,z
1/2+x,1/2-y,1/2-z
1/2-x,1/2+y,1/2-z
1/2+y,1/2+x,1/2-z
1/2-y,1/2-x,1/2-z
-x,-y,-z
y,-x,-z
x,y,-z
-y,x,-z
1/2-x,1/2+y,1/2+z
1/2+x,1/2-y,1/2+z
1/2-y,1/2-x,1/2+z
1/2+y,1/2+x,1/2+z
loop_
_atom_site_type_symbol
_atom_site_label
_atom_site_fract_x
_atom_site_fract_y
_atom_site_fract_z
Si Si1 0.264081 0.150468 0.416407
Si Si2 0.169433 0.118500 0.709710
Si Si3 0.162381 0.487957 0.287648
Si Si4 0.704034 0.006388 0.578533
Si Si5 0.209569 0.634561 0.687483
Si Si6 0.205563 0.962652 0.294106
Si Si7 0.536319 0.073251 0.151245
O O1 0.246362 0.167574 0.500000
O O2 0.197603 0.153002 0.364243
O O3 0.295909 0.075012 0.406740
O O4 0.320551 0.204585 0.385504
O O5 0.213125 0.137956 0.780718
O O6 0.092861 0.146660 0.720060
O O7 0.167540 0.036087 0.704834
O O8 0.181615 0.558144 0.328818
O O9 0.235398 0.454134 0.266322
O O10 0.113177 0.499610 0.218018
O O11 0.118676 0.438139 0.339384
O O12 0.731654 0.023973 0.500000
O O13 0.755082 0.047743 0.630578
O O14 0.624122 0.029310 0.583964
O O15 0.160853 0.660853 0.750000
O O16 0.500000 0.000000 0.138375
#
# Coordination Sequence:
#
# PCOD8314481 Si02
#       7
#    16  16  16  16  16  16  16
#     4   9  17  30  46  66  91 123 157 184 216 258
#     4   9  18  31  49  69  88 115 149 191 234 277
#     4   9  16  26  41  61  89 116 144 187 230 260
#     4   9  18  30  42  60  92 126 153 185 220 259
#     4   9  15  28  45  66  87 115 152 188 214 263
#     4   9  18  32  47  64  87 113 147 190 242 274
#     4  10  16  24  40  64  87 124 157 181 215 263
#
# _framework density 15.973865999999999
#
# number of rings (size 3 to 8) (size 9 to 14) (size 15 to 20)
#    0.000    2.857    0.000    5.143    0.000    1.143 
#   15.429    0.714    0.000    0.000    0.000    8.000 
#    0.000    0.000    0.000    5.143    0.000    0.000 
#
# Total GULP energy -1387805.472941 kJ/mol
# GULP energy per Si atom -12391.120294 kJ/mol
# Density = 1.593751 g / cm^3
# Si number density = 15.973866 Si / 1000 Ang^3
#
#
#
# Elastic Constant Matrix: (Units=GPa)
#
#
# Indices 1 2 3 4 5 6 
#
# 1 78.3151 53.9618 19.5488 0.0000 0.0000 0.0000
# 2 53.9618 78.3151 19.5488 0.0000 0.0000 0.0000
# 3 19.5488 19.5488 41.0508 0.0000 0.0000 0.0000
# 4 0.0000 0.0000 0.0000 13.7734 0.0000 0.0000
# 5 0.0000 0.0000 0.0000 0.0000 13.7734 0.0000
# 6 0.0000 0.0000 0.0000 0.0000 0.0000 29.7418
#
#
#
# Elastic Compliance Matrix: (Units=1/GPa)
#
#
# Indices 1 2 3 4 5 6 
#
# 1 0.024930 -0.016132 -0.004190 0.000000 0.000000 0.000000
# 2 -0.016132 0.024930 -0.004190 0.000000 0.000000 0.000000
# 3 -0.004190 -0.004190 0.028351 0.000000 0.000000 0.000000
# 4 0.000000 0.000000 0.000000 0.072604 0.000000 0.000000
# 5 0.000000 0.000000 0.000000 0.000000 0.072604 0.000000
# 6 0.000000 0.000000 0.000000 0.000000 0.000000 0.033623
#
#
# Mechanical properties :
#
#
# Convention : Reuss Voigt Hill
#
# Bulk Modulus (GPa) = 34.26087 42.64441 38.45264
# Shear Modulus (GPa) = 15.83313 18.43250 17.13282
#
# Velocity S-wave (km/s) = 3.15173 3.40062 3.27854
# Velocity P-wave (km/s) = 5.89400 6.49409 6.20131
#
# Compressibility (1/GPa) = 0.02918781
#
# Stress axis : x y z
#
# Youngs Moduli (GPa) = 40.11190 40.11190 35.27263
#
# Poissons Ratio (x) = 0.64708 0.14779
# Poissons Ratio (y) = 0.64708 0.14779
# Poissons Ratio (z) = 0.16806 0.16806
#
# Static dielectric constant tensor:
#      x y z
#    x 2.913010 0.000000 0.000000 
#    y 0.000000 2.913010 0.000000 
#    z 0.000000 0.000000 3.000530 
# 
# 
# High freq. dielectric constant tensor:
#      x y z
#    x 1.600720 0.000000 0.000000 
#    y 0.000000 1.600720 0.000000 
#    z 0.000000 0.000000 1.586520 
# 
# From -- ./inp_files/5965.got.cif
#   From: 2010.03.12/outbox.cif.g09.slc.cpg/sg128_3_cif.got.tgz:5965.got - 2010.04.06 17:11:05.
