data_PCOD8314069
_publ_section_title
;
Structure prediction by ZEFSAII (Michael W. Deem and Ramdas Pophale) SiO2 
 PCOD8314069
Probable space group: P 4/M B M
;
_chemical_formula_sum "Si O2"
_cell_formula_units_Z 104
_cell_length_a 18.009432
_cell_length_b 18.009432
_cell_length_c 18.320893
_cell_angle_alpha 90.000000
_cell_angle_beta 90.000000
_cell_angle_gamma 90.000000
_cell_volume 5942.191858
_symmetry_space_group_name_H-M "P 4/M B M"
_symmetry_group_IT_number 127
_symmetry_cell_setting 'tetragonal'
loop_
_space_group_symop_operation_xyz
x,y,z
-y,x,z
-x,-y,z
y,-x,z
1/2+x,1/2-y,-z
1/2-x,1/2+y,-z
1/2+y,1/2+x,-z
1/2-y,1/2-x,-z
-x,-y,-z
y,-x,-z
x,y,-z
-y,x,-z
1/2-x,1/2+y,z
1/2+x,1/2-y,z
1/2-y,1/2-x,z
1/2+y,1/2+x,z
loop_
_atom_site_type_symbol
_atom_site_label
_atom_site_fract_x
_atom_site_fract_y
_atom_site_fract_z
Si Si1 0.655590 0.272682 0.312851
Si Si2 0.441732 0.941732 0.586434
Si Si3 0.308877 0.930310 0.915761
Si Si4 0.208684 0.585381 0.833368
Si Si5 0.797916 0.175192 0.843888
Si Si6 0.533232 0.224855 0.585105
Si Si7 0.223058 0.608033 0.333878
O O1 0.689312 0.189312 0.311628
O O2 0.629058 0.299099 0.232173
O O3 0.588193 0.276680 0.369254
O O4 0.716986 0.328411 0.341145
O O5 0.446263 0.946263 0.500000
O O6 0.460669 0.859511 0.612906
O O7 0.500000 0.000000 0.621643
O O8 0.380714 0.880714 0.892386
O O9 0.234072 0.880374 0.905233
O O10 0.305638 0.005713 0.869800
O O11 0.313880 0.952430 0.000000
O O12 0.138042 0.638042 0.850414
O O13 0.285833 0.623087 0.864417
O O14 0.219448 0.572917 0.747159
O O15 0.744629 0.244629 0.827977
O O16 0.550396 0.235024 0.500000
O O17 0.450349 0.248520 0.605251
O O18 0.142560 0.642560 0.353153
#
# Coordination Sequence:
#
# PCOD8314069 Si02
#       7
#    16   8  16  16  16  16  16
#     4   9  17  32  52  71  92 124 169 215 250 290
#     4   9  18  30  42  62  98 134 161 190 236 301
#     4  10  20  32  49  77 109 136 164 201 248 304
#     4   9  18  34  53  73 100 135 174 210 249 297
#     4   8  16  32  53  72  93 129 173 213 246 290
#     4  11  20  30  47  71  99 132 164 202 254 305
#     4   9  19  34  51  72  98 128 168 212 251 296
#
# _framework density 17.501958999999999
#
# number of rings (size 3 to 8) (size 9 to 14) (size 15 to 20)
#    0.000    2.692    0.769    3.231    0.000    2.769 
#    1.385    3.846    0.000    0.923    0.000    6.462 
#    0.000    0.000    0.000    0.000    0.000    0.000 
#
# Total GULP energy -1288851.462550 kJ/mol
# GULP energy per Si atom -12392.802525 kJ/mol
# Density = 1.746212 g / cm^3
# Si number density = 17.501959 Si / 1000 Ang^3
#
#
#
# Elastic Constant Matrix: (Units=GPa)
#
#
# Indices 1 2 3 4 5 6 
#
# 1 65.1958 54.5318 40.6810 0.0000 0.0000 0.0000
# 2 54.5318 65.1958 40.6810 0.0000 0.0000 0.0000
# 3 40.6810 40.6810 64.3680 0.0000 0.0000 0.0000
# 4 0.0000 0.0000 0.0000 25.0673 0.0000 0.0000
# 5 0.0000 0.0000 0.0000 0.0000 25.0673 0.0000
# 6 0.0000 0.0000 0.0000 0.0000 0.0000 19.0927
#
#
#
# Elastic Compliance Matrix: (Units=1/GPa)
#
#
# Indices 1 2 3 4 5 6 
#
# 1 0.054207 -0.039567 -0.009253 0.000000 0.000000 0.000000
# 2 -0.039567 0.054207 -0.009253 0.000000 0.000000 0.000000
# 3 -0.009253 -0.009253 0.027231 0.000000 0.000000 0.000000
# 4 0.000000 0.000000 0.000000 0.039893 0.000000 0.000000
# 5 0.000000 0.000000 0.000000 0.000000 0.039893 0.000000
# 6 0.000000 0.000000 0.000000 0.000000 0.000000 0.052376
#
#
# Mechanical properties :
#
#
# Convention : Reuss Voigt Hill
#
# Bulk Modulus (GPa) = 51.28016 51.83859 51.55937
# Shear Modulus (GPa) = 12.80574 17.76984 15.28779
#
# Velocity S-wave (km/s) = 2.70788 3.18984 2.95869
# Velocity P-wave (km/s) = 6.25621 6.57646 6.41833
#
# Compressibility (1/GPa) = 0.01950072
#
# Stress axis : x y z
#
# Youngs Moduli (GPa) = 18.44788 18.44788 36.72281
#
# Poissons Ratio (x) = 0.72992 0.33978
# Poissons Ratio (y) = 0.72992 0.33978
# Poissons Ratio (z) = 0.17069 0.17069
#
# Static dielectric constant tensor:
#      x y z
#    x 3.153350 0.000000 0.000000 
#    y 0.000000 3.153350 0.000000 
#    z 0.000000 0.000000 3.095680 
# 
# 
# High freq. dielectric constant tensor:
#      x y z
#    x 1.662300 0.000000 0.000000 
#    y 0.000000 1.662300 0.000000 
#    z 0.000000 0.000000 1.667570 
# 
# From -- ./inp_files/5229.got.cif
#   From: 2010.03.12/outbox.cif.g09.slc.cpg/sg127_3_cif.got.tgz:5229.got - 2010.04.06 17:03:15.
