data_PCOD8314180
_publ_section_title
;
Structure prediction by ZEFSAII (Michael W. Deem and Ramdas Pophale) SiO2 
 PCOD8314180
Probable space group: P 4/M B M
;
_chemical_formula_sum "Si O2"
_cell_formula_units_Z 72
_cell_length_a 15.322049
_cell_length_b 15.322049
_cell_length_c 13.336778
_cell_angle_alpha 90.000000
_cell_angle_beta 90.000000
_cell_angle_gamma 90.000000
_cell_volume 3131.011162
_symmetry_space_group_name_H-M "P 4/M B M"
_symmetry_group_IT_number 127
_symmetry_cell_setting 'tetragonal'
loop_
_space_group_symop_operation_xyz
x,y,z
-y,x,z
-x,-y,z
y,-x,z
1/2+x,1/2-y,-z
1/2-x,1/2+y,-z
1/2+y,1/2+x,-z
1/2-y,1/2-x,-z
-x,-y,-z
y,-x,-z
x,y,-z
-y,x,-z
1/2-x,1/2+y,z
1/2+x,1/2-y,z
1/2-y,1/2-x,z
1/2+y,1/2+x,z
loop_
_atom_site_type_symbol
_atom_site_label
_atom_site_fract_x
_atom_site_fract_y
_atom_site_fract_z
Si Si1 0.263799 0.382770 0.607541
Si Si2 0.658257 0.300730 0.177776
Si Si3 0.504244 0.860888 0.307269
Si Si4 0.798222 0.440037 0.889916
Si Si5 0.864813 0.053560 0.000000
O O1 0.315400 0.382699 0.500000
O O2 0.194933 0.305068 0.607105
O O3 0.322486 0.371220 0.707169
O O4 0.212160 0.475768 0.612795
O O5 0.706096 0.206096 0.169149
O O6 0.723626 0.375803 0.146398
O O7 0.575706 0.308190 0.101276
O O8 0.443149 0.943149 0.317299
O O9 0.489079 0.817142 0.197194
O O10 0.604678 0.895323 0.323389
O O11 0.887440 0.387440 0.905144
O O12 0.773417 0.481628 0.000000
O O13 0.952017 0.111732 0.000000
#
# Coordination Sequence:
#
# PCOD8314180 Si02
#       5
#    16  16  16  16   8
#     4   9  19  35  54  79 112 150 191 233 275 328
#     4  10  20  37  62  85 111 149 192 238 285 334
#     4   9  18  32  52  83 120 153 183 223 287 357
#     4   9  17  30  50  78 113 150 185 226 274 331
#     4  11  25  40  60  88 117 149 186 234 288 347
#
# _framework density 22.995767000000001
#
# number of rings (size 3 to 8) (size 9 to 14) (size 15 to 20)
#    0.000    2.556    1.111    0.333    3.111    0.889 
#    0.000    5.556    0.000    4.000    0.000    1.556 
#    0.000    0.000    0.000    0.000    0.000    0.000 
#
# Total GULP energy -891966.510780 kJ/mol
# GULP energy per Si atom -12388.423761 kJ/mol
# Density = 2.294343 g / cm^3
# Si number density = 22.995767 Si / 1000 Ang^3
#
#
#
# Elastic Constant Matrix: (Units=GPa)
#
#
# Indices 1 2 3 4 5 6 
#
# 1 39.4825 -3.2251 28.4296 0.0000 0.0000 0.0000
# 2 -3.2251 39.4825 28.4296 0.0000 0.0000 0.0000
# 3 28.4296 28.4296 185.8539 0.0000 0.0000 0.0000
# 4 0.0000 0.0000 0.0000 78.9185 0.0000 0.0000
# 5 0.0000 0.0000 0.0000 0.0000 78.9185 0.0000
# 6 0.0000 0.0000 0.0000 0.0000 0.0000 11.2674
#
#
#
# Elastic Compliance Matrix: (Units=1/GPa)
#
#
# Indices 1 2 3 4 5 6 
#
# 1 0.029850 0.006435 -0.005550 0.000000 0.000000 0.000000
# 2 0.006435 0.029850 -0.005550 0.000000 0.000000 0.000000
# 3 -0.005550 -0.005550 0.007079 0.000000 0.000000 0.000000
# 4 0.000000 0.000000 0.000000 0.012671 0.000000 0.000000
# 5 0.000000 0.000000 0.000000 0.000000 0.012671 0.000000
# 6 0.000000 0.000000 0.000000 0.000000 0.000000 0.088752
#
#
# Mechanical properties :
#
#
# Convention : Reuss Voigt Hill
#
# Bulk Modulus (GPa) = 17.40744 41.34302 29.37523
# Shear Modulus (GPa) = 23.88301 47.89985 35.89143
#
# Velocity S-wave (km/s) = 3.22620 4.56893 3.95496
# Velocity P-wave (km/s) = 4.63294 6.77134 5.80151
#
# Compressibility (1/GPa) = 0.05744669
#
# Stress axis : x y z
#
# Youngs Moduli (GPa) = 33.50090 33.50090 141.27011
#
# Poissons Ratio (x) = -0.21558 0.78411
# Poissons Ratio (y) = -0.21558 0.78411
# Poissons Ratio (z) = 0.18594 0.18594
#
# Static dielectric constant tensor:
#      x y z
#    x 4.121390 0.000000 0.000000 
#    y 0.000000 4.121390 0.000000 
#    z 0.000000 0.000000 5.081830 
# 
# 
# High freq. dielectric constant tensor:
#      x y z
#    x 1.895010 0.000000 0.000000 
#    y 0.000000 1.895010 0.000000 
#    z 0.000000 0.000000 1.918120 
# 
# From -- ./inp_files/3178.got.cif
#   From: 2010.03.12/outbox.cif.g09.slc.cpg/sg127_2_cif.got.tgz:3178.got - 2010.04.06 17:03:15.
