data_PCOD8314601
_publ_section_title
;
Structure prediction by ZEFSAII (Michael W. Deem and Ramdas Pophale) SiO2 
 PCOD8314601
Probable space group: P 4/M N C
;
_chemical_formula_sum "Si O2"
_cell_formula_units_Z 96
_cell_length_a 24.919736
_cell_length_b 24.919736
_cell_length_c 8.848030
_cell_angle_alpha 90.000000
_cell_angle_beta 90.000000
_cell_angle_gamma 90.000000
_cell_volume 5494.566838
_symmetry_space_group_name_H-M "P 4/M N C"
_symmetry_group_IT_number 128
_symmetry_cell_setting 'tetragonal'
loop_
_space_group_symop_operation_xyz
x,y,z
-y,x,z
-x,-y,z
y,-x,z
1/2+x,1/2-y,1/2-z
1/2-x,1/2+y,1/2-z
1/2+y,1/2+x,1/2-z
1/2-y,1/2-x,1/2-z
-x,-y,-z
y,-x,-z
x,y,-z
-y,x,-z
1/2-x,1/2+y,1/2+z
1/2+x,1/2-y,1/2+z
1/2-y,1/2-x,1/2+z
1/2+y,1/2+x,1/2+z
loop_
_atom_site_type_symbol
_atom_site_label
_atom_site_fract_x
_atom_site_fract_y
_atom_site_fract_z
Si Si1 0.610042 0.313119 0.827002
Si Si2 0.890568 0.308970 0.320880
Si Si3 0.887594 0.194222 0.822673
Si Si4 0.813711 0.499854 0.330682
Si Si5 0.686305 0.504797 0.333083
Si Si6 0.686969 0.107930 0.324852
O O1 0.653119 0.341172 0.720456
O O2 0.550118 0.333284 0.783669
O O3 0.615119 0.250066 0.797286
O O4 0.620824 0.328514 0.000000
O O5 0.843307 0.343307 0.250000
O O6 0.889418 0.313417 0.500000
O O7 0.880093 0.247851 0.273380
O O8 0.947390 0.331832 0.261554
O O9 0.945329 0.166410 0.784991
O O10 0.884348 0.208622 0.000000
O O11 0.837603 0.497078 0.500000
O O12 0.750066 0.501522 0.335772
O O13 0.835397 0.553296 0.249378
O O14 0.664732 0.520032 0.500000
O O15 0.658798 0.158798 0.250000
O O16 0.672741 0.105845 0.500000
#
# Coordination Sequence:
#
# PCOD8314601 Si02
#       6
#    16  16  16  16  16  16
#     4  10  20  32  49  74 102 132 166 205 250 297
#     4  11  21  34  52  75 103 133 167 205 247 295
#     4  10  20  34  52  74 101 133 168 205 248 296
#     4   9  17  32  52  73  97 128 167 207 246 291
#     4   8  16  31  50  70  93 126 166 204 243 291
#     4  10  20  33  50  74 102 134 169 206 249 296
#
# _framework density 17.471806000000001
#
# number of rings (size 3 to 8) (size 9 to 14) (size 15 to 20)
#    0.000    2.333    0.000    4.500    0.000    7.333 
#    0.000    1.667    0.000    1.000    0.000    7.000 
#    0.000    0.000    0.000    0.000    0.000    0.000 
#
# Total GULP energy -1190315.080770 kJ/mol
# GULP energy per Si atom -12399.115425 kJ/mol
# Density = 1.743204 g / cm^3
# Si number density = 17.471806 Si / 1000 Ang^3
#
#
#
# Elastic Constant Matrix: (Units=GPa)
#
#
# Indices 1 2 3 4 5 6 
#
# 1 68.2593 41.4847 48.1835 0.0000 0.0000 0.0000
# 2 41.4847 68.2593 48.1835 0.0000 0.0000 0.0000
# 3 48.1835 48.1835 132.9650 0.0000 0.0000 0.0000
# 4 0.0000 0.0000 0.0000 30.0582 0.0000 0.0000
# 5 0.0000 0.0000 0.0000 0.0000 30.0582 0.0000
# 6 0.0000 0.0000 0.0000 0.0000 0.0000 1.1089
#
#
#
# Elastic Compliance Matrix: (Units=1/GPa)
#
#
# Indices 1 2 3 4 5 6 
#
# 1 0.025357 -0.011992 -0.004843 0.000000 0.000000 0.000000
# 2 -0.011992 0.025357 -0.004843 0.000000 0.000000 0.000000
# 3 -0.004843 -0.004843 0.011031 0.000000 0.000000 0.000000
# 4 0.000000 0.000000 0.000000 0.033269 0.000000 0.000000
# 5 0.000000 0.000000 0.000000 0.000000 0.033269 0.000000
# 6 0.000000 0.000000 0.000000 0.000000 0.000000 0.901824
#
#
# Mechanical properties :
#
#
# Convention : Reuss Voigt Hill
#
# Bulk Modulus (GPa) = 54.38292 60.57635 57.47964
# Shear Modulus (GPa) = 4.63138 21.02052 12.82595
#
# Velocity S-wave (km/s) = 1.62989 3.47235 2.71236
# Velocity P-wave (km/s) = 5.89370 7.12899 6.54057
#
# Compressibility (1/GPa) = 0.01838813
#
# Stress axis : x y z
#
# Youngs Moduli (GPa) = 39.43708 39.43708 90.65463
#
# Poissons Ratio (x) = 0.47293 0.43905
# Poissons Ratio (y) = 0.47293 0.43905
# Poissons Ratio (z) = 0.19100 0.19100
#
# Static dielectric constant tensor:
#      x y z
#    x 3.210080 0.000000 0.000000 
#    y 0.000000 3.210080 0.000000 
#    z 0.000000 0.000000 3.418900 
# 
# 
# High freq. dielectric constant tensor:
#      x y z
#    x 1.657350 0.000000 0.000000 
#    y 0.000000 1.657350 0.000000 
#    z 0.000000 0.000000 1.692140 
# 
# From -- ./inp_files/1469.got.cif
#   From: 2010.03.12/outbox.cif.g09.slc.cpg/sg128_1_cif.got.tgz:1469.got - 2010.04.06 17:11:05.
