data_PCOD8314672
_publ_section_title
;
Structure prediction by ZEFSAII (Michael W. Deem and Ramdas Pophale) SiO2 
 PCOD8314672
Probable space group: P 4/M N C
;
_chemical_formula_sum "Si O2"
_cell_formula_units_Z 48
_cell_length_a 19.072830
_cell_length_b 19.072830
_cell_length_c 7.758137
_cell_angle_alpha 90.000000
_cell_angle_beta 90.000000
_cell_angle_gamma 90.000000
_cell_volume 2822.199562
_symmetry_space_group_name_H-M "P 4/M N C"
_symmetry_group_IT_number 128
_symmetry_cell_setting 'tetragonal'
loop_
_space_group_symop_operation_xyz
x,y,z
-y,x,z
-x,-y,z
y,-x,z
1/2+x,1/2-y,1/2-z
1/2-x,1/2+y,1/2-z
1/2+y,1/2+x,1/2-z
1/2-y,1/2-x,1/2-z
-x,-y,-z
y,-x,-z
x,y,-z
-y,x,-z
1/2-x,1/2+y,1/2+z
1/2+x,1/2-y,1/2+z
1/2-y,1/2-x,1/2+z
1/2+y,1/2+x,1/2+z
loop_
_atom_site_type_symbol
_atom_site_label
_atom_site_fract_x
_atom_site_fract_y
_atom_site_fract_z
Si Si1 0.581038 0.696338 0.500000
Si Si2 0.325867 0.936611 0.189318
Si Si3 0.196144 0.584458 0.193483
Si Si4 0.304664 0.421759 0.500000
O O1 0.595816 0.740918 0.327873
O O2 0.630234 0.629222 0.500000
O O3 0.501790 0.667886 0.500000
O O4 0.372409 0.872409 0.250000
O O5 0.330042 0.003677 0.312901
O O6 0.351528 0.962407 0.000000
O O7 0.244856 0.909801 0.169730
O O8 0.131170 0.631170 0.250000
O O9 0.221036 0.604609 0.000000
#
# Coordination Sequence:
#
# PCOD8314672 Si02
#       4
#     8  16  16   8
#     4  10  20  41  53  85 105 141 186 222 282 314
#     4   9  18  34  51  81 112 144 180 219 263 319
#     4  11  20  35  55  79 113 147 182 224 263 319
#     4   8  20  35  59  75 115 137 180 234 262 334
#
# _framework density 17.008011
#
# number of rings (size 3 to 8) (size 9 to 14) (size 15 to 20)
#    1.000    1.333    3.333    1.000    0.000    2.333 
#    0.000   10.000    0.000    0.000    0.000    9.333 
#    0.000    0.000    0.000    0.000    0.000    0.000 
#
# Total GULP energy -594634.422173 kJ/mol
# GULP energy per Si atom -12388.217129 kJ/mol
# Density = 1.696930 g / cm^3
# Si number density = 17.008011 Si / 1000 Ang^3
#
#
#
# Elastic Constant Matrix: (Units=GPa)
#
#
# Indices 1 2 3 4 5 6 
#
# 1 112.7647 96.6652 36.5013 0.0000 0.0000 0.0000
# 2 96.6652 112.7647 36.5013 0.0000 0.0000 0.0000
# 3 36.5013 36.5013 116.6370 0.0000 0.0000 0.0000
# 4 0.0000 0.0000 0.0000 15.3241 0.0000 0.0000
# 5 0.0000 0.0000 0.0000 0.0000 15.3241 0.0000
# 6 0.0000 0.0000 0.0000 0.0000 0.0000 25.0289
#
#
#
# Elastic Compliance Matrix: (Units=1/GPa)
#
#
# Indices 1 2 3 4 5 6 
#
# 1 0.033737 -0.028377 -0.001677 0.000000 0.000000 0.000000
# 2 -0.028377 0.033737 -0.001677 0.000000 0.000000 0.000000
# 3 -0.001677 -0.001677 0.009623 0.000000 0.000000 0.000000
# 4 0.000000 0.000000 0.000000 0.065257 0.000000 0.000000
# 5 0.000000 0.000000 0.000000 0.000000 0.065257 0.000000
# 6 0.000000 0.000000 0.000000 0.000000 0.000000 0.039954
#
#
# Mechanical properties :
#
#
# Convention : Reuss Voigt Hill
#
# Bulk Modulus (GPa) = 73.34913 75.72247 74.53580
# Shear Modulus (GPa) = 15.84424 22.63531 19.23978
#
# Velocity S-wave (km/s) = 3.05548 3.65206 3.36701
# Velocity P-wave (km/s) = 7.46109 7.89947 7.68341
#
# Compressibility (1/GPa) = 0.01363343
#
# Stress axis : x y z
#
# Youngs Moduli (GPa) = 29.64134 29.64134 103.91347
#
# Poissons Ratio (x) = 0.84114 0.17429
# Poissons Ratio (y) = 0.84114 0.17429
# Poissons Ratio (z) = 0.04972 0.04972
#
# Static dielectric constant tensor:
#      x y z
#    x 2.989240 0.000000 0.000000 
#    y 0.000000 2.989240 0.000000 
#    z 0.000000 0.000000 3.276670 
# 
# 
# High freq. dielectric constant tensor:
#      x y z
#    x 1.643750 0.000000 0.000000 
#    y 0.000000 1.643750 0.000000 
#    z 0.000000 0.000000 1.656290 
# 
# From -- ./inp_files/659.got.cif
#   From: 2010.03.12/outbox.cif.g09.slc.cpg/sg128_1_cif.got.tgz:659.got - 2010.04.06 17:11:05.
