data_PCOD8314670
_publ_section_title
;
Structure prediction by ZEFSAII (Michael W. Deem and Ramdas Pophale) SiO2 
 PCOD8314670
Probable space group: P 4/M N C
;
_chemical_formula_sum "Si O2"
_cell_formula_units_Z 72
_cell_length_a 14.674575
_cell_length_b 14.674575
_cell_length_c 16.148144
_cell_angle_alpha 90.000000
_cell_angle_beta 90.000000
_cell_angle_gamma 90.000000
_cell_volume 3477.392219
_symmetry_space_group_name_H-M "P 4/M N C"
_symmetry_group_IT_number 128
_symmetry_cell_setting 'tetragonal'
loop_
_space_group_symop_operation_xyz
x,y,z
-y,x,z
-x,-y,z
y,-x,z
1/2+x,1/2-y,1/2-z
1/2-x,1/2+y,1/2-z
1/2+y,1/2+x,1/2-z
1/2-y,1/2-x,1/2-z
-x,-y,-z
y,-x,-z
x,y,-z
-y,x,-z
1/2-x,1/2+y,1/2+z
1/2+x,1/2-y,1/2+z
1/2-y,1/2-x,1/2+z
1/2+y,1/2+x,1/2+z
loop_
_atom_site_type_symbol
_atom_site_label
_atom_site_fract_x
_atom_site_fract_y
_atom_site_fract_z
Si Si1 0.772934 0.881874 0.664078
Si Si2 0.546320 0.092325 0.402195
Si Si3 0.266724 0.095525 0.148625
Si Si4 0.076262 0.245458 0.404116
Si Si5 0.070178 0.866244 0.000000
O O1 0.776337 0.903940 0.760919
O O2 0.679874 0.834572 0.634782
O O3 0.857811 0.816793 0.649069
O O4 0.785025 0.972931 0.611026
O O5 0.533580 0.101396 0.500000
O O6 0.498441 0.178208 0.359868
O O7 0.651006 0.091516 0.374815
O O8 0.500000 0.000000 0.369252
O O9 0.186807 0.102160 0.081616
O O10 0.100160 0.233927 0.500000
O O11 0.961836 0.877862 0.000000
#
# Coordination Sequence:
#
# PCOD8314670 Si02
#       5
#    16  16  16  16   8
#     4  11  27  43  65 105 136 180 231 287 345 407
#     4  10  20  39  71 105 132 172 223 283 346 405
#     4  11  25  44  70 100 139 176 231 287 341 419
#     4  11  25  44  72  97 138 181 230 284 343 415
#     4  11  28  46  71  98 138 191 232 279 353 430
#
# _framework density 20.705172000000001
#
# number of rings (size 3 to 8) (size 9 to 14) (size 15 to 20)
#    0.000    1.222    3.333    0.667    9.333    3.111 
#    0.000    1.111    0.000    0.000    0.000    0.000 
#    0.000    0.000    0.000    0.000    0.000    0.000 
#
# Total GULP energy -893393.775770 kJ/mol
# GULP energy per Si atom -12408.246886 kJ/mol
# Density = 2.065805 g / cm^3
# Si number density = 20.705172 Si / 1000 Ang^3
#
#
#
# Elastic Constant Matrix: (Units=GPa)
#
#
# Indices 1 2 3 4 5 6 
#
# 1 118.0057 61.7591 48.8382 0.0000 0.0000 0.0000
# 2 61.7591 118.0057 48.8382 0.0000 0.0000 0.0000
# 3 48.8382 48.8382 97.6060 0.0000 0.0000 0.0000
# 4 0.0000 0.0000 0.0000 28.6601 0.0000 0.0000
# 5 0.0000 0.0000 0.0000 0.0000 28.6601 0.0000
# 6 0.0000 0.0000 0.0000 0.0000 0.0000 45.6876
#
#
#
# Elastic Compliance Matrix: (Units=1/GPa)
#
#
# Indices 1 2 3 4 5 6 
#
# 1 0.012709 -0.005069 -0.003823 0.000000 0.000000 0.000000
# 2 -0.005069 0.012709 -0.003823 0.000000 0.000000 0.000000
# 3 -0.003823 -0.003823 0.014071 0.000000 0.000000 0.000000
# 4 0.000000 0.000000 0.000000 0.034892 0.000000 0.000000
# 5 0.000000 0.000000 0.000000 0.000000 0.034892 0.000000
# 6 0.000000 0.000000 0.000000 0.000000 0.000000 0.021888
#
#
# Mechanical properties :
#
#
# Convention : Reuss Voigt Hill
#
# Bulk Modulus (GPa) = 71.12516 72.49873 71.81195
# Shear Modulus (GPa) = 31.00252 32.21367 31.60810
#
# Velocity S-wave (km/s) = 3.87374 3.94868 3.91139
# Velocity P-wave (km/s) = 7.37792 7.47531 7.42677
#
# Compressibility (1/GPa) = 0.01405972
#
# Stress axis : x y z
#
# Youngs Moduli (GPa) = 78.68200 78.68200 71.06942
#
# Poissons Ratio (x) = 0.39888 0.27168
# Poissons Ratio (y) = 0.39888 0.27168
# Poissons Ratio (z) = 0.30078 0.30078
#
# Static dielectric constant tensor:
#      x y z
#    x 3.791860 0.000000 0.000000 
#    y 0.000000 3.791860 0.000000 
#    z 0.000000 0.000000 3.698550 
# 
# 
# High freq. dielectric constant tensor:
#      x y z
#    x 1.817870 0.000000 0.000000 
#    y 0.000000 1.817870 0.000000 
#    z 0.000000 0.000000 1.813590 
# 
# From -- ./inp_files/4576.got.cif
#   From: 2010.03.12/outbox.cif.g09.slc.cpg/sg128_3_cif.got.tgz:4576.got - 2010.04.06 17:11:05.
