data_PCOD8314016
_publ_section_title
;
Structure prediction by ZEFSAII (Michael W. Deem and Ramdas Pophale) SiO2 
 PCOD8314016
Probable space group: P 4/M B M
;
_chemical_formula_sum "Si O2"
_cell_formula_units_Z 120
_cell_length_a 14.961856
_cell_length_b 14.961856
_cell_length_c 30.220482
_cell_angle_alpha 90.000000
_cell_angle_beta 90.000000
_cell_angle_gamma 90.000000
_cell_volume 6765.070518
_symmetry_space_group_name_H-M "P 4/M B M"
_symmetry_group_IT_number 127
_symmetry_cell_setting 'tetragonal'
loop_
_space_group_symop_operation_xyz
x,y,z
-y,x,z
-x,-y,z
y,-x,z
1/2+x,1/2-y,-z
1/2-x,1/2+y,-z
1/2+y,1/2+x,-z
1/2-y,1/2-x,-z
-x,-y,-z
y,-x,-z
x,y,-z
-y,x,-z
1/2-x,1/2+y,z
1/2+x,1/2-y,z
1/2-y,1/2-x,z
1/2+y,1/2+x,z
loop_
_atom_site_type_symbol
_atom_site_label
_atom_site_fract_x
_atom_site_fract_y
_atom_site_fract_z
Si Si1 0.468399 0.354028 0.357114
Si Si2 0.245522 0.597308 0.721703
Si Si3 0.426054 0.926054 0.950956
Si Si4 0.685816 0.335061 0.122193
Si Si5 0.968906 0.144136 0.453383
Si Si6 0.015944 0.265215 0.891409
Si Si7 0.614857 0.406289 0.211159
Si Si8 0.000038 0.644246 0.201574
O O1 0.567025 0.395643 0.350512
O O2 0.451838 0.272153 0.323664
O O3 0.458277 0.306953 0.405924
O O4 0.180951 0.680951 0.711841
O O5 0.339107 0.629219 0.743874
O O6 0.200326 0.526407 0.755127
O O7 0.345031 0.968241 0.924574
O O8 0.500000 0.000000 0.955702
O O9 0.394985 0.894985 0.000000
O O10 0.751294 0.251294 0.119191
O O11 0.591206 0.309905 0.100449
O O12 0.725269 0.419594 0.095965
O O13 0.674168 0.363907 0.172765
O O14 0.956685 0.200674 0.500000
O O15 0.066936 0.103768 0.454002
O O16 0.023767 0.294308 0.840143
O O17 0.623841 0.513300 0.208646
O O18 0.914128 0.585873 0.214864
O O19 0.082174 0.582174 0.186196
#
# Coordination Sequence:
#
# PCOD8314016 Si02
#       8
#    16  16   8  16  16  16  16  16
#     4   9  17  30  47  66  94 131 166 208 266 325
#     4  11  21  32  45  68 102 141 180 220 262 318
#     4  11  24  46  72  96 120 153 203 249 288 333
#     4  12  22  36  59  90 122 155 189 231 281 338
#     4   7  10  19  39  66  89 112 153 208 261 316
#     4  12  23  39  63  93 123 153 188 235 288 341
#     4  11  21  34  51  75 107 144 182 224 273 330
#     4  10  19  34  55  75 101 142 187 232 269 307
#
# _framework density 17.738174999999998
#
# number of rings (size 3 to 8) (size 9 to 14) (size 15 to 20)
#    0.000    1.667    4.000    3.600    0.000    1.333 
#    0.000    4.667    0.000    0.400    0.000    0.933 
#    0.000    1.600    0.000    3.333    0.000    0.000 
#
# Total GULP energy -1487007.854878 kJ/mol
# GULP energy per Si atom -12391.732124 kJ/mol
# Density = 1.769780 g / cm^3
# Si number density = 17.738175 Si / 1000 Ang^3
#
#
#
# Elastic Constant Matrix: (Units=GPa)
#
#
# Indices 1 2 3 4 5 6 
#
# 1 76.9932 29.3430 34.6869 0.0000 0.0000 0.0000
# 2 29.3430 76.9932 34.6869 0.0000 0.0000 0.0000
# 3 34.6869 34.6869 109.2075 0.0000 0.0000 0.0000
# 4 0.0000 0.0000 0.0000 18.1320 0.0000 0.0000
# 5 0.0000 0.0000 0.0000 0.0000 18.1320 0.0000
# 6 0.0000 0.0000 0.0000 0.0000 0.0000 29.3005
#
#
#
# Elastic Compliance Matrix: (Units=1/GPa)
#
#
# Indices 1 2 3 4 5 6 
#
# 1 0.016424 -0.004562 -0.003768 0.000000 0.000000 0.000000
# 2 -0.004562 0.016424 -0.003768 0.000000 0.000000 0.000000
# 3 -0.003768 -0.003768 0.011550 0.000000 0.000000 0.000000
# 4 0.000000 0.000000 0.000000 0.055151 0.000000 0.000000
# 5 0.000000 0.000000 0.000000 0.000000 0.055151 0.000000
# 6 0.000000 0.000000 0.000000 0.000000 0.000000 0.034129
#
#
# Mechanical properties :
#
#
# Convention : Reuss Voigt Hill
#
# Bulk Modulus (GPa) = 49.49554 51.18083 50.33819
# Shear Modulus (GPa) = 22.75211 24.07803 23.41507
#
# Velocity S-wave (km/s) = 3.58531 3.68831 3.63717
# Velocity P-wave (km/s) = 6.71590 6.85961 6.78813
#
# Compressibility (1/GPa) = 0.02020384
#
# Stress axis : x y z
#
# Youngs Moduli (GPa) = 60.88557 60.88557 86.57773
#
# Poissons Ratio (x) = 0.27776 0.32620
# Poissons Ratio (y) = 0.27776 0.32620
# Poissons Ratio (z) = 0.22940 0.22940
#
# Static dielectric constant tensor:
#      x y z
#    x 3.318750 0.000000 0.000000 
#    y 0.000000 3.318750 0.000000 
#    z 0.000000 0.000000 3.549760 
# 
# 
# High freq. dielectric constant tensor:
#      x y z
#    x 1.673210 0.000000 0.000000 
#    y 0.000000 1.673210 0.000000 
#    z 0.000000 0.000000 1.675720 
# 
# From -- ./inp_files/6689.got.cif
#   From: 2010.03.12/outbox.cif.g09.slc.cpg/sg127_4_cif.got.tgz:6689.got - 2010.04.06 17:03:15.
