data_PCOD8314472
_publ_section_title
;
Structure prediction by ZEFSAII (Michael W. Deem and Ramdas Pophale) SiO2 
 PCOD8314472
Probable space group: P 4/M B M
;
_chemical_formula_sum "Si O2"
_cell_formula_units_Z 56
_cell_length_a 16.940136
_cell_length_b 16.940136
_cell_length_c 9.682895
_cell_angle_alpha 90.000000
_cell_angle_beta 90.000000
_cell_angle_gamma 90.000000
_cell_volume 2778.683023
_symmetry_space_group_name_H-M "P 4/M B M"
_symmetry_group_IT_number 127
_symmetry_cell_setting 'tetragonal'
loop_
_space_group_symop_operation_xyz
x,y,z
-y,x,z
-x,-y,z
y,-x,z
1/2+x,1/2-y,-z
1/2-x,1/2+y,-z
1/2+y,1/2+x,-z
1/2-y,1/2-x,-z
-x,-y,-z
y,-x,-z
x,y,-z
-y,x,-z
1/2-x,1/2+y,z
1/2+x,1/2-y,z
1/2-y,1/2-x,z
1/2+y,1/2+x,z
loop_
_atom_site_type_symbol
_atom_site_label
_atom_site_fract_x
_atom_site_fract_y
_atom_site_fract_z
Si Si1 0.663417 0.967841 0.152543
Si Si2 0.839047 0.211936 0.838708
Si Si3 0.098634 0.918034 0.340942
Si Si4 0.933262 0.566739 0.344440
O O1 0.588562 0.911439 0.140252
O O2 0.738494 0.917179 0.201237
O O3 0.644781 0.035605 0.264661
O O4 0.678300 0.005291 0.000000
O O5 0.761082 0.261082 0.798007
O O6 0.840291 0.130900 0.752964
O O7 0.838707 0.191977 0.000000
O O8 0.118001 0.901065 0.500000
O O9 0.009751 0.890982 0.306151
O O10 0.909195 0.590806 0.500000
O O11 0.000000 0.500000 0.348687
#
# Coordination Sequence:
#
# PCOD8314472 Si02
#       4
#    16  16  16   8
#     4   8  14  25  40  59  88 127 164 200 248 302
#     4   9  18  32  52  80 110 138 174 221 270 322
#     4   9  19  36  57  81 109 141 179 224 271 320
#     4   9  15  21  33  57  87 119 163 213 249 289
#
# _framework density 20.153431000000001
#
# number of rings (size 3 to 8) (size 9 to 14) (size 15 to 20)
#    0.000    3.286    0.000    3.000    0.000    4.571 
#    0.000    4.286    3.143    0.000    0.000    0.000 
#    0.000    0.000    0.000    0.000    0.000    0.000 
#
# Total GULP energy -694191.731928 kJ/mol
# GULP energy per Si atom -12396.280927 kJ/mol
# Density = 2.010756 g / cm^3
# Si number density = 20.153431 Si / 1000 Ang^3
#
#
#
# Elastic Constant Matrix: (Units=GPa)
#
#
# Indices 1 2 3 4 5 6 
#
# 1 46.5626 16.6811 31.7189 0.0000 0.0000 0.0000
# 2 16.6811 46.5625 31.7189 0.0000 0.0000 0.0000
# 3 31.7189 31.7189 88.8220 0.0000 0.0000 0.0000
# 4 0.0000 0.0000 0.0000 29.2156 0.0000 0.0000
# 5 0.0000 0.0000 0.0000 0.0000 29.2156 0.0000
# 6 0.0000 0.0000 0.0000 0.0000 0.0000 17.1426
#
#
#
# Elastic Compliance Matrix: (Units=1/GPa)
#
#
# Indices 1 2 3 4 5 6 
#
# 1 0.029051 -0.004414 -0.008798 0.000000 0.000000 0.000000
# 2 -0.004414 0.029051 -0.008798 0.000000 0.000000 0.000000
# 3 -0.008798 -0.008798 0.017542 0.000000 0.000000 0.000000
# 4 0.000000 0.000000 0.000000 0.034228 0.000000 0.000000
# 5 0.000000 0.000000 0.000000 0.000000 0.034228 0.000000
# 6 0.000000 0.000000 0.000000 0.000000 0.000000 0.058334
#
#
# Mechanical properties :
#
#
# Convention : Reuss Voigt Hill
#
# Bulk Modulus (GPa) = 31.62169 38.02057 34.82113
# Shear Modulus (GPa) = 19.45546 21.90330 20.67938
#
# Velocity S-wave (km/s) = 3.11041 3.30028 3.20675
# Velocity P-wave (km/s) = 5.35014 5.78178 5.57015
#
# Compressibility (1/GPa) = 0.03162387
#
# Stress axis : x y z
#
# Youngs Moduli (GPa) = 34.42196 34.42193 57.00571
#
# Poissons Ratio (x) = 0.15195 0.50153
# Poissons Ratio (y) = 0.15195 0.50154
# Poissons Ratio (z) = 0.30284 0.30284
#
# Static dielectric constant tensor:
#      x y z
#    x 3.371350 0.000000 0.000000 
#    y 0.000000 3.371350 0.000000 
#    z 0.000000 0.000000 3.683590 
# 
# 
# High freq. dielectric constant tensor:
#      x y z
#    x 1.763960 0.000000 0.000000 
#    y 0.000000 1.763960 0.000000 
#    z 0.000000 0.000000 1.782520 
# 
# From -- ./inp_files/1068.got.cif
#   From: 2010.03.12/outbox.cif.g09.slc.cpg/sg127_1_cif.got.tgz:1068.got - 2010.04.06 17:03:15.
