data_PCOD8314448
_publ_section_title
;
Structure prediction by ZEFSAII (Michael W. Deem and Ramdas Pophale) SiO2 
 PCOD8314448
Probable space group: P 4/M B M
;
_chemical_formula_sum "Si O2"
_cell_formula_units_Z 48
_cell_length_a 12.089778
_cell_length_b 12.089778
_cell_length_c 16.830913
_cell_angle_alpha 90.000000
_cell_angle_beta 90.000000
_cell_angle_gamma 90.000000
_cell_volume 2460.052228
_symmetry_space_group_name_H-M "P 4/M B M"
_symmetry_group_IT_number 127
_symmetry_cell_setting 'tetragonal'
loop_
_space_group_symop_operation_xyz
x,y,z
-y,x,z
-x,-y,z
y,-x,z
1/2+x,1/2-y,-z
1/2-x,1/2+y,-z
1/2+y,1/2+x,-z
1/2-y,1/2-x,-z
-x,-y,-z
y,-x,-z
x,y,-z
-y,x,-z
1/2-x,1/2+y,z
1/2+x,1/2-y,z
1/2-y,1/2-x,z
1/2+y,1/2+x,z
loop_
_atom_site_type_symbol
_atom_site_label
_atom_site_fract_x
_atom_site_fract_y
_atom_site_fract_z
Si Si1 0.677966 0.523056 0.354762
Si Si2 0.589727 0.089727 0.093944
Si Si3 0.968363 0.819512 0.825805
Si Si4 0.504779 0.829685 0.500000
O O1 0.593772 0.621483 0.369548
O O2 0.722766 0.533718 0.265102
O O3 0.771289 0.532920 0.419680
O O4 0.554401 0.212309 0.121291
O O5 0.500000 0.000000 0.125069
O O6 0.591548 0.091548 0.000000
O O7 0.088482 0.873834 0.843206
O O8 0.635913 0.864088 0.500000
O O9 0.443057 0.943057 0.500000
#
# Coordination Sequence:
#
# PCOD8314448 Si02
#       4
#    16   8  16   8
#     4   9  19  38  61  83 110 148 198 247 293 348
#     4  11  26  42  62  96 132 162 199 256 320 374
#     4   9  21  43  68  93 122 164 211 256 312 375
#     4  11  24  35  46  80 124 157 196 237 290 342
#
# _framework density 19.511782
#
# number of rings (size 3 to 8) (size 9 to 14) (size 15 to 20)
#    0.000    2.333    0.000    3.000    4.667    6.667 
#    6.000    1.667    0.000    0.000    0.000    0.000 
#    0.000    0.000    0.000    0.000    0.000    0.000 
#
# Total GULP energy -594823.596446 kJ/mol
# GULP energy per Si atom -12392.158259 kJ/mol
# Density = 1.946737 g / cm^3
# Si number density = 19.511782 Si / 1000 Ang^3
#
#
#
# Elastic Constant Matrix: (Units=GPa)
#
#
# Indices 1 2 3 4 5 6 
#
# 1 106.9167 56.1859 57.2427 0.0000 0.0000 0.0000
# 2 56.1859 106.9178 57.2430 0.0000 0.0000 0.0000
# 3 57.2427 57.2430 100.1025 0.0000 0.0000 0.0000
# 4 0.0000 0.0000 0.0000 30.0909 0.0000 0.0000
# 5 0.0000 0.0000 0.0000 0.0000 30.0913 0.0000
# 6 0.0000 0.0000 0.0000 0.0000 0.0000 18.4335
#
#
#
# Elastic Compliance Matrix: (Units=1/GPa)
#
#
# Indices 1 2 3 4 5 6 
#
# 1 0.014977 -0.004735 -0.005857 0.000000 0.000000 0.000000
# 2 -0.004735 0.014977 -0.005857 0.000000 0.000000 0.000000
# 3 -0.005857 -0.005857 0.016688 0.000000 0.000000 0.000000
# 4 0.000000 0.000000 0.000000 0.033233 0.000000 0.000000
# 5 0.000000 0.000000 0.000000 0.000000 0.033232 0.000000
# 6 0.000000 0.000000 0.000000 0.000000 0.000000 0.054249
#
#
# Mechanical properties :
#
#
# Convention : Reuss Voigt Hill
#
# Bulk Modulus (GPa) = 72.75407 72.80891 72.78149
# Shear Modulus (GPa) = 24.40990 25.27416 24.84203
#
# Velocity S-wave (km/s) = 3.54083 3.60297 3.57204
# Velocity P-wave (km/s) = 7.35424 7.39628 7.37529
#
# Compressibility (1/GPa) = 0.01374493
#
# Stress axis : x y z
#
# Youngs Moduli (GPa) = 66.76896 66.76965 59.92245
#
# Poissons Ratio (x) = 0.31614 0.35096
# Poissons Ratio (y) = 0.31613 0.35096
# Poissons Ratio (z) = 0.39106 0.39106
#
# Static dielectric constant tensor:
#      x y z
#    x 3.516880 0.000000 0.000000 
#    y 0.000000 3.516880 0.000000 
#    z 0.000000 0.000000 3.571240 
# 
# 
# High freq. dielectric constant tensor:
#      x y z
#    x 1.763070 0.000000 0.000000 
#    y 0.000000 1.763070 0.000000 
#    z 0.000000 0.000000 1.762220 
# 
# From -- ./inp_files/4791.got.cif
#   From: 2010.03.12/outbox.cif.g09.slc.cpg/sg127_3_cif.got.tgz:4791.got - 2010.04.06 17:03:15.
