data_PCOD8314006
_publ_section_title
;
Structure prediction by ZEFSAII (Michael W. Deem and Ramdas Pophale) SiO2 
 PCOD8314006
Probable space group: P 4/M B M
;
_chemical_formula_sum "Si O2"
_cell_formula_units_Z 96
_cell_length_a 17.364965
_cell_length_b 17.364965
_cell_length_c 18.124888
_cell_angle_alpha 90.000000
_cell_angle_beta 90.000000
_cell_angle_gamma 90.000000
_cell_volume 5465.415149
_symmetry_space_group_name_H-M "P 4/M B M"
_symmetry_group_IT_number 127
_symmetry_cell_setting 'tetragonal'
loop_
_space_group_symop_operation_xyz
x,y,z
-y,x,z
-x,-y,z
y,-x,z
1/2+x,1/2-y,-z
1/2-x,1/2+y,-z
1/2+y,1/2+x,-z
1/2-y,1/2-x,-z
-x,-y,-z
y,-x,-z
x,y,-z
-y,x,-z
1/2-x,1/2+y,z
1/2+x,1/2-y,z
1/2-y,1/2-x,z
1/2+y,1/2+x,z
loop_
_atom_site_type_symbol
_atom_site_label
_atom_site_fract_x
_atom_site_fract_y
_atom_site_fract_z
Si Si1 0.875553 0.001903 0.586783
Si Si2 0.482348 0.229448 0.314703
Si Si3 0.232995 0.392903 0.190832
Si Si4 0.563321 0.936680 0.140109
Si Si5 0.063919 0.563919 0.314803
Si Si6 0.476090 0.229824 0.085501
Si Si7 0.231647 0.141905 0.199517
O O1 0.861512 0.001901 0.500000
O O2 0.791690 0.005478 0.623926
O O3 0.922977 0.925277 0.609998
O O4 0.552361 0.214230 0.259209
O O5 0.461781 0.145988 0.350046
O O6 0.408834 0.262585 0.272434
O O7 0.158400 0.341601 0.174935
O O8 0.253186 0.440626 0.117273
O O9 0.306581 0.342816 0.211064
O O10 0.576226 0.923775 0.227139
O O11 0.535145 0.859801 0.101258
O O12 0.500000 0.000000 0.124482
O O13 0.000000 0.500000 0.333111
O O14 0.410059 0.278838 0.126591
O O15 0.472279 0.250023 0.000000
O O16 0.308469 0.191532 0.188607
#
# Coordination Sequence:
#
# PCOD8314006 Si02
#       7
#    16  16  16   8   8  16  16
#     4   9  19  36  59  87 115 143 179 224 269 310
#     4  11  18  34  56  83 106 143 176 216 264 319
#     4  10  21  33  51  75 104 133 173 222 265 315
#     4  11  19  32  51  73 100 130 175 219 267 316
#     4  11  20  33  57  81 111 145 181 221 269 322
#     4  11  21  33  48  70  99 135 173 218 271 320
#     4  10  19  34  50  73 101 134 173 215 262 317
#
# _framework density 17.564996000000001
#
# number of rings (size 3 to 8) (size 9 to 14) (size 15 to 20)
#    0.000    1.667    5.000    2.750    0.000    2.333 
#    0.000    2.083    0.000    7.000    0.000    4.667 
#    0.000    0.000    0.000    0.000    0.000    0.000 
#
# Total GULP energy -1190459.385685 kJ/mol
# GULP energy per Si atom -12400.618601 kJ/mol
# Density = 1.752502 g / cm^3
# Si number density = 17.564996 Si / 1000 Ang^3
#
#
#
# Elastic Constant Matrix: (Units=GPa)
#
#
# Indices 1 2 3 4 5 6 
#
# 1 81.7751 18.7224 13.6692 0.0000 0.0000 0.0000
# 2 18.7224 81.7751 13.6692 0.0000 0.0000 0.0000
# 3 13.6692 13.6692 43.4096 0.0000 0.0000 0.0000
# 4 0.0000 0.0000 0.0000 18.9470 0.0000 0.0000
# 5 0.0000 0.0000 0.0000 0.0000 18.9470 0.0000
# 6 0.0000 0.0000 0.0000 0.0000 0.0000 20.0309
#
#
#
# Elastic Compliance Matrix: (Units=1/GPa)
#
#
# Indices 1 2 3 4 5 6 
#
# 1 0.013371 -0.002489 -0.003427 0.000000 0.000000 0.000000
# 2 -0.002489 0.013371 -0.003427 0.000000 0.000000 0.000000
# 3 -0.003427 -0.003427 0.025195 0.000000 0.000000 0.000000
# 4 0.000000 0.000000 0.000000 0.052779 0.000000 0.000000
# 5 0.000000 0.000000 0.000000 0.000000 0.052779 0.000000
# 6 0.000000 0.000000 0.000000 0.000000 0.000000 0.049923
#
#
# Mechanical properties :
#
#
# Convention : Reuss Voigt Hill
#
# Bulk Modulus (GPa) = 30.07286 33.23126 31.65206
# Shear Modulus (GPa) = 21.08051 22.31159 21.69605
#
# Velocity S-wave (km/s) = 3.46807 3.56790 3.51834
# Velocity P-wave (km/s) = 5.76149 5.99444 5.87911
#
# Compressibility (1/GPa) = 0.03325258
#
# Stress axis : x y z
#
# Youngs Moduli (GPa) = 74.78749 74.78749 39.69111
#
# Poissons Ratio (x) = 0.18611 0.13602
# Poissons Ratio (y) = 0.18611 0.13602
# Poissons Ratio (z) = 0.25629 0.25629
#
# Static dielectric constant tensor:
#      x y z
#    x 3.310420 0.000000 0.000000 
#    y 0.000000 3.310420 0.000000 
#    z 0.000000 0.000000 3.010600 
# 
# 
# High freq. dielectric constant tensor:
#      x y z
#    x 1.686750 0.000000 0.000000 
#    y 0.000000 1.686750 0.000000 
#    z 0.000000 0.000000 1.648370 
# 
# From -- ./inp_files/5150.got.cif
#   From: 2010.03.12/outbox.cif.g09.slc.cpg/sg127_3_cif.got.tgz:5150.got - 2010.04.06 17:03:15.
