data_PCOD8314560
_publ_section_title
;
Structure prediction by ZEFSAII (Michael W. Deem and Ramdas Pophale) SiO2 
 PCOD8314560
Probable space group: P 4/M N C
;
_chemical_formula_sum "Si O2"
_cell_formula_units_Z 120
_cell_length_a 25.614382
_cell_length_b 25.614382
_cell_length_c 9.815619
_cell_angle_alpha 90.000000
_cell_angle_beta 90.000000
_cell_angle_gamma 90.000000
_cell_volume 6439.993912
_symmetry_space_group_name_H-M "P 4/M N C"
_symmetry_group_IT_number 128
_symmetry_cell_setting 'tetragonal'
loop_
_space_group_symop_operation_xyz
x,y,z
-y,x,z
-x,-y,z
y,-x,z
1/2+x,1/2-y,1/2-z
1/2-x,1/2+y,1/2-z
1/2+y,1/2+x,1/2-z
1/2-y,1/2-x,1/2-z
-x,-y,-z
y,-x,-z
x,y,-z
-y,x,-z
1/2-x,1/2+y,1/2+z
1/2+x,1/2-y,1/2+z
1/2-y,1/2-x,1/2+z
1/2+y,1/2+x,1/2+z
loop_
_atom_site_type_symbol
_atom_site_label
_atom_site_fract_x
_atom_site_fract_y
_atom_site_fract_z
Si Si1 0.480905 0.678781 0.149850
Si Si2 0.489447 0.205018 0.850494
Si Si3 0.675802 0.271836 0.850920
Si Si4 0.401849 0.227955 0.346214
Si Si5 0.283874 0.216127 0.750000
Si Si6 0.331103 0.387821 0.654874
Si Si7 0.845486 0.939178 0.148838
Si Si8 0.171544 0.394861 0.842043
O O1 0.509293 0.733151 0.129453
O O2 0.431642 0.690346 0.244397
O O3 0.519565 0.640377 0.233007
O O4 0.467045 0.655137 0.000000
O O5 0.441539 0.193191 0.747297
O O6 0.546016 0.185861 0.796253
O O7 0.477421 0.180181 0.000000
O O8 0.738905 0.270708 0.862105
O O9 0.665115 0.311040 0.725398
O O10 0.646692 0.217790 0.816092
O O11 0.655161 0.290927 0.000000
O O12 0.410994 0.208658 0.500000
O O13 0.341800 0.219910 0.309055
O O14 0.414496 0.288766 0.331401
O O15 0.309499 0.393552 0.500000
O O16 0.393684 0.388376 0.654862
O O17 0.848528 0.966936 0.000000
O O18 0.122625 0.377376 0.750000
O O19 0.155269 0.394192 0.000000
#
# Coordination Sequence:
#
# PCOD8314560 Si02
#       8
#    16  16  16  16   8  16  16  16
#     4  10  19  33  53  76 102 136 180 226 272 321
#     4   9  19  36  53  74 105 141 184 228 268 317
#     4  11  22  34  50  76 113 151 184 220 265 329
#     4  10  21  36  53  76 106 144 189 227 261 319
#     4  12  22  36  54  82 117 154 186 223 278 328
#     4  11  21  34  53  75 105 142 180 222 270 322
#     4   9  19  35  51  74 103 135 180 226 268 319
#     4  10  20  35  53  79 111 144 181 222 272 328
#
# _framework density 18.633558000000001
#
# number of rings (size 3 to 8) (size 9 to 14) (size 15 to 20)
#    0.000    1.867    3.333    1.200    0.000    4.267 
#    0.000    0.000    0.000    0.400    0.000    3.267 
#    0.000    3.200    0.000    0.000    0.000    0.000 
#
# Total GULP energy -1486606.439460 kJ/mol
# GULP energy per Si atom -12388.386995 kJ/mol
# Density = 1.859115 g / cm^3
# Si number density = 18.633558 Si / 1000 Ang^3
#
#
#
# Elastic Constant Matrix: (Units=GPa)
#
#
# Indices 1 2 3 4 5 6 
#
# 1 76.4076 11.8409 43.1893 0.0000 0.0000 0.0000
# 2 11.8409 76.4058 43.1882 0.0000 0.0000 0.0000
# 3 43.1893 43.1882 150.3167 0.0000 0.0000 0.0000
# 4 0.0000 0.0000 0.0000 21.6120 0.0000 0.0000
# 5 0.0000 0.0000 0.0000 0.0000 21.6115 0.0000
# 6 0.0000 0.0000 0.0000 0.0000 0.0000 10.1596
#
#
#
# Elastic Compliance Matrix: (Units=1/GPa)
#
#
# Indices 1 2 3 4 5 6 
#
# 1 0.015627 0.000139 -0.004530 0.000000 0.000000 0.000000
# 2 0.000139 0.015627 -0.004530 0.000000 0.000000 0.000000
# 3 -0.004530 -0.004530 0.009256 0.000000 0.000000 0.000000
# 4 0.000000 0.000000 0.000000 0.046271 0.000000 0.000000
# 5 0.000000 0.000000 0.000000 0.000000 0.046272 0.000000
# 6 0.000000 0.000000 0.000000 0.000000 0.000000 0.098429
#
#
# Mechanical properties :
#
#
# Convention : Reuss Voigt Hill
#
# Bulk Modulus (GPa) = 44.11574 55.50745 49.81159
# Shear Modulus (GPa) = 19.46449 24.33739 21.90094
#
# Velocity S-wave (km/s) = 3.23552 3.61793 3.43206
# Velocity P-wave (km/s) = 6.13881 6.87795 6.51886
#
# Compressibility (1/GPa) = 0.02266765
#
# Stress axis : x y z
#
# Youngs Moduli (GPa) = 63.99332 63.99218 108.04319
#
# Poissons Ratio (x) = -0.00888 0.48941
# Poissons Ratio (y) = -0.00888 0.48940
# Poissons Ratio (z) = 0.28987 0.28986
#
# Static dielectric constant tensor:
#      x y z
#    x 3.228610 0.000000 0.000000 
#    y 0.000000 3.228640 0.000000 
#    z 0.000000 0.000000 3.846790 
# 
# 
# High freq. dielectric constant tensor:
#      x y z
#    x 1.692760 0.000000 0.000000 
#    y 0.000000 1.692760 0.000000 
#    z 0.000000 0.000000 1.740550 
# 
# From -- ./inp_files/1784.got.cif
#   From: 2010.03.12/outbox.cif.g09.slc.cpg/sg128_1_cif.got.tgz:1784.got - 2010.04.06 17:11:05.
