data_PCOD8314910
_publ_section_title
;
Structure prediction by ZEFSAII (Michael W. Deem and Ramdas Pophale) SiO2 
 PCOD8314910
Probable space group: P 4/N M M
;
_chemical_formula_sum "Si O2"
_cell_formula_units_Z 112
_cell_length_a 17.897312
_cell_length_b 17.897312
_cell_length_c 22.259357
_cell_angle_alpha 90.000000
_cell_angle_beta 90.000000
_cell_angle_gamma 90.000000
_cell_volume 7129.978710
_symmetry_space_group_name_H-M "P 4/N M M"
_symmetry_group_IT_number 129
_symmetry_cell_setting 'tetragonal'
loop_
_space_group_symop_operation_xyz
x,y,z
1/2-y,x,z
1/2-x,1/2-y,z
y,1/2-x,z
1/2+x,-y,-z
-x,1/2+y,-z
1/2+y,1/2+x,-z
-y,-x,-z
-x,-y,-z
1/2+y,-x,-z
1/2+x,1/2+y,-z
-y,1/2+x,-z
1/2-x,y,z
x,1/2-y,z
1/2-y,1/2-x,z
y,x,z
loop_
_atom_site_type_symbol
_atom_site_label
_atom_site_fract_x
_atom_site_fract_y
_atom_site_fract_z
Si Si1 0.668117 0.337681 0.177235
Si Si2 0.833537 0.952329 0.868072
Si Si3 0.043459 0.164708 0.458587
Si Si4 0.465000 0.837179 0.746562
Si Si5 0.899472 0.163904 0.058029
Si Si6 0.953271 0.425661 0.372770
Si Si7 0.040480 0.336907 0.599931
O O1 0.750000 0.357752 0.199887
O O2 0.651018 0.250000 0.171956
O O3 0.613156 0.368888 0.227564
O O4 0.655293 0.368257 0.109958
O O5 0.750000 0.921686 0.872015
O O6 0.886715 0.886715 0.888788
O O7 0.850430 0.975085 0.799183
O O8 0.845168 0.017905 0.915923
O O9 0.059418 0.250000 0.439209
O O10 0.115550 0.115550 0.438981
O O11 0.029361 0.158668 0.528930
O O12 0.968173 0.135222 0.425248
O O13 0.461671 0.750000 0.727698
O O14 0.479768 0.887964 0.689183
O O15 0.881684 0.250000 0.041070
O O16 0.887825 0.112176 0.000000
O O17 0.869991 0.462422 0.372118
O O18 0.004521 0.495480 0.387850
O O19 0.050858 0.250000 0.620634
O O20 0.114220 0.385781 0.619046
#
# Coordination Sequence:
#
# PCOD8314910 Si02
#       7
#    16  16  16  16  16  16  16
#     4   8  14  24  37  55  80 107 134 164 196 234
#     4   9  18  31  44  60  83 110 143 180 213 246
#     4   9  17  29  45  64  86 111 139 174 213 252
#     4   9  17  28  42  60  82 110 142 173 206 244
#     4   9  16  25  40  62  85 110 138 167 204 249
#     4  10  18  28  44  63  83 110 141 172 212 260
#     4   9  18  31  46  65  86 108 138 175 214 257
#
# _framework density 15.708322000000001
#
# number of rings (size 3 to 8) (size 9 to 14) (size 15 to 20)
#    0.000    3.000    0.000    3.429    0.000    3.714 
#    0.000    1.429    0.000    1.286    0.000    6.000 
#    0.000    0.000    0.000    0.000    0.000   41.714 
#
# Total GULP energy -1387700.238081 kJ/mol
# GULP energy per Si atom -12390.180697 kJ/mol
# Density = 1.567257 g / cm^3
# Si number density = 15.708322 Si / 1000 Ang^3
#
#
#
# Elastic Constant Matrix: (Units=GPa)
#
#
# Indices 1 2 3 4 5 6 
#
# 1 63.7765 35.5942 17.2833 0.0000 0.0000 0.0000
# 2 35.5942 63.7773 17.2835 0.0000 0.0000 0.0000
# 3 17.2833 17.2835 44.3132 0.0000 0.0000 0.0000
# 4 0.0000 0.0000 0.0000 17.6476 0.0000 0.0000
# 5 0.0000 0.0000 0.0000 0.0000 17.6471 0.0000
# 6 0.0000 0.0000 0.0000 0.0000 0.0000 22.2531
#
#
#
# Elastic Compliance Matrix: (Units=1/GPa)
#
#
# Indices 1 2 3 4 5 6 
#
# 1 0.023563 -0.011920 -0.004541 0.000000 0.000000 0.000000
# 2 -0.011920 0.023563 -0.004541 0.000000 0.000000 0.000000
# 3 -0.004541 -0.004541 0.026109 0.000000 0.000000 0.000000
# 4 0.000000 0.000000 0.000000 0.056665 0.000000 0.000000
# 5 0.000000 0.000000 0.000000 0.000000 0.056666 0.000000
# 6 0.000000 0.000000 0.000000 0.000000 0.000000 0.044938
#
#
# Mechanical properties :
#
#
# Convention : Reuss Voigt Hill
#
# Bulk Modulus (GPa) = 32.01997 34.68766 33.35381
# Shear Modulus (GPa) = 17.61073 18.28997 17.95035
#
# Velocity S-wave (km/s) = 3.35193 3.41596 3.38409
# Velocity P-wave (km/s) = 5.95054 6.13911 6.04556
#
# Compressibility (1/GPa) = 0.03123051
#
# Stress axis : x y z
#
# Youngs Moduli (GPa) = 42.43949 42.43996 38.30106
#
# Poissons Ratio (x) = 0.50588 0.17393
# Poissons Ratio (y) = 0.50587 0.17393
# Poissons Ratio (z) = 0.19272 0.19272
#
# Static dielectric constant tensor:
#      x y z
#    x 2.925520 0.000000 0.000000 
#    y 0.000000 2.925520 0.000000 
#    z 0.000000 0.000000 2.841300 
# 
# 
# High freq. dielectric constant tensor:
#      x y z
#    x 1.588790 0.000000 0.000000 
#    y 0.000000 1.588790 0.000000 
#    z 0.000000 0.000000 1.594170 
# 
# From -- ./inp_files/6635.got.cif
#   From: 2010.03.12/outbox.cif.g09.slc.cpg/sg129_4_cif.got.tgz:6635.got - 2010.04.06 17:19:44.
