data_PCOD8314151
_publ_section_title
;
Structure prediction by ZEFSAII (Michael W. Deem and Ramdas Pophale) SiO2 
 PCOD8314151
Probable space group: P 4/M B M
;
_chemical_formula_sum "Si O2"
_cell_formula_units_Z 56
_cell_length_a 17.114085
_cell_length_b 17.114085
_cell_length_c 10.559070
_cell_angle_alpha 90.000000
_cell_angle_beta 90.000000
_cell_angle_gamma 90.000000
_cell_volume 3092.666131
_symmetry_space_group_name_H-M "P 4/M B M"
_symmetry_group_IT_number 127
_symmetry_cell_setting 'tetragonal'
loop_
_space_group_symop_operation_xyz
x,y,z
-y,x,z
-x,-y,z
y,-x,z
1/2+x,1/2-y,-z
1/2-x,1/2+y,-z
1/2+y,1/2+x,-z
1/2-y,1/2-x,-z
-x,-y,-z
y,-x,-z
x,y,-z
-y,x,-z
1/2-x,1/2+y,z
1/2+x,1/2-y,z
1/2-y,1/2-x,z
1/2+y,1/2+x,z
loop_
_atom_site_type_symbol
_atom_site_label
_atom_site_fract_x
_atom_site_fract_y
_atom_site_fract_z
Si Si1 0.002523 0.878138 0.149044
Si Si2 0.979056 0.275726 0.291107
Si Si3 0.771323 0.857660 0.500000
Si Si4 0.605549 0.234228 0.500000
Si Si5 0.934294 0.434294 0.149403
O O1 0.003011 0.788566 0.186670
O O2 0.924564 0.921335 0.201345
O O3 0.002506 0.881820 0.000000
O O4 0.907216 0.245290 0.374588
O O5 0.961980 0.355869 0.218680
O O6 0.055399 0.284607 0.376307
O O7 0.714018 0.785983 0.500000
O O8 0.860308 0.823410 0.500000
O O9 0.677675 0.177675 0.500000
O O10 0.000000 0.500000 0.168343
O O11 0.918992 0.418992 0.000000
#
# Coordination Sequence:
#
# PCOD8314151 Si02
#       5
#    16  16   8   8   8
#     4   9  18  33  55  83 112 143 181 227 284 348
#     4  11  20  36  57  79 109 150 184 234 281 341
#     4  10  20  36  52  81 108 139 180 228 278 339
#     4  10  22  35  55  80 109 141 180 228 283 334
#     4  11  24  39  57  81 111 152 203 245 279 326
#
# _framework density 18.107354000000001
#
# number of rings (size 3 to 8) (size 9 to 14) (size 15 to 20)
#    0.000    1.857    1.429    4.286    0.000    0.000 
#    0.000    2.143    0.000    6.857    0.000    0.000 
#    0.000    0.000    0.000    0.000    0.000    0.000 
#
# Total GULP energy -694162.682984 kJ/mol
# GULP energy per Si atom -12395.762196 kJ/mol
# Density = 1.806614 g / cm^3
# Si number density = 18.107354 Si / 1000 Ang^3
#
#
#
# Elastic Constant Matrix: (Units=GPa)
#
#
# Indices 1 2 3 4 5 6 
#
# 1 118.7206 59.1458 53.2055 0.0000 0.0000 0.0000
# 2 59.1458 118.7210 53.2056 0.0000 0.0000 0.0000
# 3 53.2055 53.2056 92.3224 0.0000 0.0000 0.0000
# 4 0.0000 0.0000 0.0000 -73.9427 0.0000 0.0000
# 5 0.0000 0.0000 0.0000 0.0000 -73.9507 0.0000
# 6 0.0000 0.0000 0.0000 0.0000 0.0000 30.7927
#
#
#
# Elastic Compliance Matrix: (Units=1/GPa)
#
#
# Indices 1 2 3 4 5 6 
#
# 1 0.012683 -0.004102 -0.004945 0.000000 0.000000 0.000000
# 2 -0.004102 0.012683 -0.004945 0.000000 0.000000 0.000000
# 3 -0.004945 -0.004945 0.016531 0.000000 0.000000 0.000000
# 4 0.000000 0.000000 0.000000 -0.013524 0.000000 0.000000
# 5 0.000000 0.000000 0.000000 0.000000 -0.013523 0.000000
# 6 0.000000 0.000000 0.000000 0.000000 0.000000 0.032475
#
#
# Mechanical properties :
#
#
# Convention : Reuss Voigt Hill
#
# Bulk Modulus (GPa) = 71.87832 73.43086 72.65459
# Shear Modulus (GPa) = 62.54010 -12.47300 25.03355
#
# Velocity S-wave (km/s) = 5.88332 -2.62742 3.72224
# Velocity P-wave (km/s) = 9.27001 5.60684 7.66061
#
# Compressibility (1/GPa) = 0.01391240
#
# Stress axis : x y z
#
# Youngs Moduli (GPa) = 78.84501 78.84524 60.49143
#
# Poissons Ratio (x) = 0.32346 0.29913
# Poissons Ratio (y) = 0.32346 0.29913
# Poissons Ratio (z) = 0.38989 0.38989
#
# Static dielectric constant tensor:
#      x y z
#    x 3.469020 0.000000 0.000000 
#    y 0.000000 3.469010 0.000000 
#    z 0.000000 0.000000 3.349550 
# 
# 
# High freq. dielectric constant tensor:
#      x y z
#    x 1.710700 0.000000 0.000000 
#    y 0.000000 1.710700 0.000000 
#    z 0.000000 0.000000 1.700960 
# 
# From -- ./inp_files/1121.got.cif
#   From: 2010.03.12/outbox.cif.g09.slc.cpg/sg127_1_cif.got.tgz:1121.got - 2010.04.06 17:03:15.
