data_PCOD8314094
_publ_section_title
;
Structure prediction by ZEFSAII (Michael W. Deem and Ramdas Pophale) SiO2 
 PCOD8314094
Probable space group: P 4/M B M
;
_chemical_formula_sum "Si O2"
_cell_formula_units_Z 80
_cell_length_a 25.225253
_cell_length_b 25.225253
_cell_length_c 8.867362
_cell_angle_alpha 90.000000
_cell_angle_beta 90.000000
_cell_angle_gamma 90.000000
_cell_volume 5642.421165
_symmetry_space_group_name_H-M "P 4/M B M"
_symmetry_group_IT_number 127
_symmetry_cell_setting 'tetragonal'
loop_
_space_group_symop_operation_xyz
x,y,z
-y,x,z
-x,-y,z
y,-x,z
1/2+x,1/2-y,-z
1/2-x,1/2+y,-z
1/2+y,1/2+x,-z
1/2-y,1/2-x,-z
-x,-y,-z
y,-x,-z
x,y,-z
-y,x,-z
1/2-x,1/2+y,z
1/2+x,1/2-y,z
1/2-y,1/2-x,z
1/2+y,1/2+x,z
loop_
_atom_site_type_symbol
_atom_site_label
_atom_site_fract_x
_atom_site_fract_y
_atom_site_fract_z
Si Si1 0.050817 0.860922 0.819505
Si Si2 0.365277 0.716978 0.169242
Si Si3 0.436669 0.636072 0.320895
Si Si4 0.291856 0.791856 0.670955
Si Si5 0.725532 0.370083 0.165791
Si Si6 0.797702 0.297702 0.666558
O O1 0.088272 0.908663 0.766951
O O2 0.077548 0.804499 0.773395
O O3 0.997405 0.865391 0.726622
O O4 0.042461 0.864881 0.000000
O O5 0.412247 0.692395 0.269883
O O6 0.344729 0.771250 0.245341
O O7 0.316985 0.676591 0.161900
O O8 0.386191 0.728762 0.000000
O O9 0.430417 0.629123 0.500000
O O10 0.306532 0.806532 0.500000
O O11 0.246995 0.746995 0.674769
O O12 0.776327 0.352403 0.261940
O O13 0.747742 0.381267 0.000000
O O14 0.813338 0.313338 0.500000
#
# Coordination Sequence:
#
# PCOD8314094 Si02
#       6
#    16  16  16   8  16   8
#     4  10  20  34  47  58  74 101 134 168 205 246
#     4   9  16  27  41  57  77 102 127 153 190 239
#     4  11  21  32  45  61  78  98 129 172 212 243
#     4   9  15  23  37  59  81  99 121 154 191 228
#     4   8  15  26  40  55  73  96 123 152 185 228
#     4   9  15  21  35  57  79  97 115 144 185 228
#
# _framework density 14.178311000000001
#
# number of rings (size 3 to 8) (size 9 to 14) (size 15 to 20)
#    0.000    2.600    0.000    4.800    0.000    8.400 
#    0.000    2.000    0.000    0.000    0.000    0.000 
#    0.000    0.000    0.000    0.000    0.000    1.000 
#
# Total GULP energy -991519.123657 kJ/mol
# GULP energy per Si atom -12393.989046 kJ/mol
# Density = 1.414604 g / cm^3
# Si number density = 14.178311 Si / 1000 Ang^3
#
#
#
# Elastic Constant Matrix: (Units=GPa)
#
#
# Indices 1 2 3 4 5 6 
#
# 1 40.2559 41.9251 20.8087 0.0000 0.0000 0.0000
# 2 41.9251 40.2559 20.8087 0.0000 0.0000 0.0000
# 3 20.8087 20.8087 81.3475 0.0000 0.0000 0.0000
# 4 0.0000 0.0000 0.0000 20.1242 0.0000 0.0000
# 5 0.0000 0.0000 0.0000 0.0000 20.1242 0.0000
# 6 0.0000 0.0000 0.0000 0.0000 0.0000 15.8157
#
#
#
# Elastic Compliance Matrix: (Units=1/GPa)
#
#
# Indices 1 2 3 4 5 6 
#
# 1 -0.292557 0.306536 -0.003576 0.000000 0.000000 0.000000
# 2 0.306536 -0.292557 -0.003576 0.000000 0.000000 0.000000
# 3 -0.003576 -0.003576 0.014122 0.000000 0.000000 0.000000
# 4 0.000000 0.000000 0.000000 0.049692 0.000000 0.000000
# 5 0.000000 0.000000 0.000000 0.000000 0.049692 0.000000
# 6 0.000000 0.000000 0.000000 0.000000 0.000000 0.063228
#
#
# Mechanical properties :
#
#
# Convention : Reuss Voigt Hill
#
# Bulk Modulus (GPa) = 36.00083 36.54938 36.27511
# Shear Modulus (GPa) = -5.01057 16.43393 5.71168
#
# Velocity S-wave (km/s) = -1.88192 3.40823 2.00928
# Velocity P-wave (km/s) = 4.55241 6.42825 5.56987
#
# Compressibility (1/GPa) = 0.02777714
#
# Stress axis : x y z
#
# Youngs Moduli (GPa) = -3.41814 -3.41814 70.80980
#
# Poissons Ratio (x) = 1.04778 0.25321
# Poissons Ratio (y) = 1.04778 0.25321
# Poissons Ratio (z) = -0.01222 -0.01222
#
# Static dielectric constant tensor:
#      x y z
#    x 2.650750 0.000000 0.000000 
#    y 0.000000 2.650750 0.000000 
#    z 0.000000 0.000000 3.010330 
# 
# 
# High freq. dielectric constant tensor:
#      x y z
#    x 1.506210 0.000000 0.000000 
#    y 0.000000 1.506210 0.000000 
#    z 0.000000 0.000000 1.560500 
# 
# From -- ./inp_files/1852.got.cif
#   From: 2010.03.12/outbox.cif.g09.slc.cpg/sg127_1_cif.got.tgz:1852.got - 2010.04.06 17:03:15.
