data_PCOD8314954
_publ_section_title
;
Structure prediction by ZEFSAII (Michael W. Deem and Ramdas Pophale) SiO2 
 PCOD8314954
Probable space group: P 4/N M M
;
_chemical_formula_sum "Si O2"
_cell_formula_units_Z 96
_cell_length_a 21.385257
_cell_length_b 21.385257
_cell_length_c 11.645446
_cell_angle_alpha 90.000000
_cell_angle_beta 90.000000
_cell_angle_gamma 90.000000
_cell_volume 5325.802700
_symmetry_space_group_name_H-M "P 4/N M M"
_symmetry_group_IT_number 129
_symmetry_cell_setting 'tetragonal'
loop_
_space_group_symop_operation_xyz
x,y,z
1/2-y,x,z
1/2-x,1/2-y,z
y,1/2-x,z
1/2+x,-y,-z
-x,1/2+y,-z
1/2+y,1/2+x,-z
-y,-x,-z
-x,-y,-z
1/2+y,-x,-z
1/2+x,1/2+y,-z
-y,1/2+x,-z
1/2-x,y,z
x,1/2-y,z
1/2-y,1/2-x,z
y,x,z
loop_
_atom_site_type_symbol
_atom_site_label
_atom_site_fract_x
_atom_site_fract_y
_atom_site_fract_z
Si Si1 0.899195 0.179238 0.065160
Si Si2 0.125689 0.536289 0.266315
Si Si3 0.499504 0.597802 0.316234
Si Si4 0.823208 0.426421 0.499620
Si Si5 0.821240 0.512201 0.094950
Si Si6 0.178192 0.080356 0.132684
O O1 0.907418 0.250000 0.100503
O O2 0.905232 0.141848 0.183605
O O3 0.833713 0.166288 0.000000
O O4 0.950758 0.157660 0.973654
O O5 0.052826 0.544463 0.295344
O O6 0.168793 0.539697 0.378745
O O7 0.139764 0.471608 0.202796
O O8 0.560217 0.560217 0.364214
O O9 0.473851 0.648871 0.405217
O O10 0.521621 0.632420 0.200747
O O11 0.860316 0.360316 0.500000
O O12 0.750000 0.413889 0.474022
O O13 0.750000 0.506059 0.140075
O O14 0.826615 0.568898 0.004145
O O15 0.250000 0.080400 0.173734
O O16 0.147450 0.147450 0.159365
#
# Coordination Sequence:
#
# PCOD8314954 Si02
#       6
#    16  16  16  16  16  16
#     4  10  18  31  50  72 102 138 174 216 259 304
#     4  10  20  36  53  75 104 136 172 212 265 315
#     4  11  21  33  55  81 107 137 175 223 269 311
#     4  10  22  38  56  77 107 142 180 220 261 310
#     4   9  18  33  51  74 107 139 172 210 258 314
#     4  10  20  33  52  75 101 135 171 212 262 318
#
# _framework density 18.025452999999999
#
# number of rings (size 3 to 8) (size 9 to 14) (size 15 to 20)
#    0.000    2.000    1.667    4.000    0.000    4.167 
#    0.000    2.500    0.000    2.000    0.000    0.000 
#    0.000    3.000    0.000    0.333    0.000    0.000 
#
# Total GULP energy -1189944.508701 kJ/mol
# GULP energy per Si atom -12395.255299 kJ/mol
# Density = 1.798443 g / cm^3
# Si number density = 18.025453 Si / 1000 Ang^3
#
#
#
# Elastic Constant Matrix: (Units=GPa)
#
#
# Indices 1 2 3 4 5 6 
#
# 1 76.9676 39.4097 39.6613 0.0000 0.0000 0.0000
# 2 39.4097 76.9653 39.6628 0.0000 0.0000 0.0000
# 3 39.6613 39.6628 78.6553 0.0000 0.0000 0.0000
# 4 0.0000 0.0000 0.0000 17.0813 0.0000 0.0000
# 5 0.0000 0.0000 0.0000 0.0000 17.0809 0.0000
# 6 0.0000 0.0000 0.0000 0.0000 0.0000 22.8849
#
#
#
# Elastic Compliance Matrix: (Units=1/GPa)
#
#
# Indices 1 2 3 4 5 6 
#
# 1 0.019859 -0.006767 -0.006602 0.000000 0.000000 0.000000
# 2 -0.006767 0.019860 -0.006603 0.000000 0.000000 0.000000
# 3 -0.006602 -0.006603 0.019372 0.000000 0.000000 0.000000
# 4 0.000000 0.000000 0.000000 0.058543 0.000000 0.000000
# 5 0.000000 0.000000 0.000000 0.000000 0.058545 0.000000
# 6 0.000000 0.000000 0.000000 0.000000 0.000000 0.043697
#
#
# Mechanical properties :
#
#
# Convention : Reuss Voigt Hill
#
# Bulk Modulus (GPa) = 52.22111 52.22839 52.22475
# Shear Modulus (GPa) = 18.78276 18.99973 18.89125
#
# Velocity S-wave (km/s) = 3.23153 3.25014 3.24084
# Velocity P-wave (km/s) = 6.55418 6.56675 6.56047
#
# Compressibility (1/GPa) = 0.01914934
#
# Stress axis : x y z
#
# Youngs Moduli (GPa) = 50.35501 50.35162 51.62094
#
# Poissons Ratio (x) = 0.34071 0.34078
# Poissons Ratio (y) = 0.34074 0.34084
# Poissons Ratio (z) = 0.33242 0.33246
#
# Static dielectric constant tensor:
#      x y z
#    x 3.188870 0.000000 0.000000 
#    y 0.000000 3.188870 0.000000 
#    z 0.000000 0.000000 3.402530 
# 
# 
# High freq. dielectric constant tensor:
#      x y z
#    x 1.686400 0.000000 0.000000 
#    y 0.000000 1.686400 0.000000 
#    z 0.000000 0.000000 1.700280 
# 
# From -- ./inp_files/3834.got.cif
#   From: 2010.03.12/outbox.cif.g09.slc.cpg/sg129_2_cif.got.tgz:3834.got - 2010.04.06 17:19:44.
