data_PCOD8314867
_publ_section_title
;
Structure prediction by ZEFSAII (Michael W. Deem and Ramdas Pophale) SiO2 
 PCOD8314867
Probable space group: P 4/N M M
;
_chemical_formula_sum "Si O2"
_cell_formula_units_Z 96
_cell_length_a 21.424672
_cell_length_b 21.424672
_cell_length_c 12.716193
_cell_angle_alpha 90.000000
_cell_angle_beta 90.000000
_cell_angle_gamma 90.000000
_cell_volume 5836.943298
_symmetry_space_group_name_H-M "P 4/N M M"
_symmetry_group_IT_number 129
_symmetry_cell_setting 'tetragonal'
loop_
_space_group_symop_operation_xyz
x,y,z
1/2-y,x,z
1/2-x,1/2-y,z
y,1/2-x,z
1/2+x,-y,-z
-x,1/2+y,-z
1/2+y,1/2+x,-z
-y,-x,-z
-x,-y,-z
1/2+y,-x,-z
1/2+x,1/2+y,-z
-y,1/2+x,-z
1/2-x,y,z
x,1/2-y,z
1/2-y,1/2-x,z
y,x,z
loop_
_atom_site_type_symbol
_atom_site_label
_atom_site_fract_x
_atom_site_fract_y
_atom_site_fract_z
Si Si1 0.676810 0.180377 0.381189
Si Si2 0.502167 0.678731 0.874336
Si Si3 0.098073 0.900769 0.772710
Si Si4 0.426254 0.322637 0.337870
Si Si5 0.017716 0.916546 0.585028
Si Si6 0.497317 0.594184 0.061299
O O1 0.659688 0.159688 0.500000
O O2 0.750000 0.182194 0.366141
O O3 0.649412 0.250000 0.359801
O O4 0.650546 0.130836 0.298801
O O5 0.491834 0.750000 0.901842
O O6 0.434452 0.652230 0.842747
O O7 0.554043 0.669772 0.783860
O O8 0.524572 0.645577 0.981441
O O9 0.045541 0.931942 0.699011
O O10 0.125753 0.956468 0.844990
O O11 0.413866 0.250000 0.366646
O O12 0.363269 0.363269 0.356497
O O13 0.484426 0.347853 0.410451
O O14 0.073861 0.926140 0.500000
O O15 0.963383 0.963383 0.556230
O O16 0.556343 0.556343 0.108701
O O17 0.453775 0.546225 0.000000
#
# Coordination Sequence:
#
# PCOD8314867 Si02
#       6
#    16  16  16  16  16  16
#     4   9  18  31  44  59  83 115 147 178 215 260
#     4   9  17  28  43  62  85 114 147 182 218 262
#     4  10  17  27  44  64  82 108 146 187 222 256
#     4   9  17  29  46  68  92 118 147 180 222 271
#     4   9  17  29  44  63  88 116 145 180 224 270
#     4   9  17  28  42  61  86 115 144 177 220 266
#
# _framework density 16.446964000000001
#
# number of rings (size 3 to 8) (size 9 to 14) (size 15 to 20)
#    0.000    2.833    0.000    2.500    0.000    5.500 
#    0.000    0.833    0.000    0.000    0.000    8.167 
#    0.000    0.000    0.000    0.000    0.000   22.667 
#
# Total GULP energy -1189327.745055 kJ/mol
# GULP energy per Si atom -12388.830678 kJ/mol
# Density = 1.640953 g / cm^3
# Si number density = 16.446964 Si / 1000 Ang^3
#
#
#
# Elastic Constant Matrix: (Units=GPa)
#
#
# Indices 1 2 3 4 5 6 
#
# 1 75.3174 49.1418 43.8456 0.0000 0.0000 0.0000
# 2 49.1418 75.3180 43.8450 0.0000 0.0000 0.0000
# 3 43.8456 43.8450 76.6414 0.0000 0.0000 0.0000
# 4 0.0000 0.0000 0.0000 25.0606 0.0000 0.0000
# 5 0.0000 0.0000 0.0000 0.0000 25.0604 0.0000
# 6 0.0000 0.0000 0.0000 0.0000 0.0000 25.0334
#
#
#
# Elastic Compliance Matrix: (Units=1/GPa)
#
#
# Indices 1 2 3 4 5 6 
#
# 1 0.025832 -0.012371 -0.007701 0.000000 0.000000 0.000000
# 2 -0.012371 0.025831 -0.007700 0.000000 0.000000 0.000000
# 3 -0.007701 -0.007700 0.021858 0.000000 0.000000 0.000000
# 4 0.000000 0.000000 0.000000 0.039903 0.000000 0.000000
# 5 0.000000 0.000000 0.000000 0.000000 0.039904 0.000000
# 6 0.000000 0.000000 0.000000 0.000000 0.000000 0.039947
#
#
# Mechanical properties :
#
#
# Convention : Reuss Voigt Hill
#
# Bulk Modulus (GPa) = 55.62590 55.66016 55.64303
# Shear Modulus (GPa) = 19.62233 21.06052 20.34142
#
# Velocity S-wave (km/s) = 3.45783 3.58230 3.52062
# Velocity P-wave (km/s) = 7.05953 7.14326 7.10152
#
# Compressibility (1/GPa) = 0.01797724
#
# Stress axis : x y z
#
# Youngs Moduli (GPa) = 38.71168 38.71266 45.74931
#
# Poissons Ratio (x) = 0.47893 0.35230
# Poissons Ratio (y) = 0.47892 0.35227
# Poissons Ratio (z) = 0.29811 0.29809
#
# Static dielectric constant tensor:
#      x y z
#    x 3.050830 0.000000 0.000000 
#    y 0.000000 3.050830 0.000000 
#    z 0.000000 0.000000 3.171690 
# 
# 
# High freq. dielectric constant tensor:
#      x y z
#    x 1.620490 0.000000 0.000000 
#    y 0.000000 1.620490 0.000000 
#    z 0.000000 0.000000 1.619530 
# 
# From -- ./inp_files/3872.got.cif
#   From: 2010.03.12/outbox.cif.g09.slc.cpg/sg129_2_cif.got.tgz:3872.got - 2010.04.06 17:19:44.
