data_PCOD8314613
_publ_section_title
;
Structure prediction by ZEFSAII (Michael W. Deem and Ramdas Pophale) SiO2 
 PCOD8314613
Probable space group: P 4/M N C
;
_chemical_formula_sum "Si O2"
_cell_formula_units_Z 96
_cell_length_a 25.250666
_cell_length_b 25.250666
_cell_length_c 8.563623
_cell_angle_alpha 90.000000
_cell_angle_beta 90.000000
_cell_angle_gamma 90.000000
_cell_volume 5460.132913
_symmetry_space_group_name_H-M "P 4/M N C"
_symmetry_group_IT_number 128
_symmetry_cell_setting 'tetragonal'
loop_
_space_group_symop_operation_xyz
x,y,z
-y,x,z
-x,-y,z
y,-x,z
1/2+x,1/2-y,1/2-z
1/2-x,1/2+y,1/2-z
1/2+y,1/2+x,1/2-z
1/2-y,1/2-x,1/2-z
-x,-y,-z
y,-x,-z
x,y,-z
-y,x,-z
1/2-x,1/2+y,1/2+z
1/2+x,1/2-y,1/2+z
1/2-y,1/2-x,1/2+z
1/2+y,1/2+x,1/2+z
loop_
_atom_site_type_symbol
_atom_site_label
_atom_site_fract_x
_atom_site_fract_y
_atom_site_fract_z
Si Si1 0.389237 0.806560 0.184512
Si Si2 0.884998 0.809791 0.821151
Si Si3 0.501676 0.698414 0.321265
Si Si4 0.494148 0.190282 0.821882
Si Si5 0.887833 0.305973 0.817925
Si Si6 0.105346 0.810529 0.318101
O O1 0.346522 0.846522 0.250000
O O2 0.381071 0.751051 0.270692
O O3 0.447439 0.831546 0.223115
O O4 0.382604 0.798021 0.000000
O O5 0.847133 0.844387 0.714120
O O6 0.945567 0.831457 0.801837
O O7 0.866485 0.814428 0.000000
O O8 0.507882 0.718429 0.500000
O O9 0.502499 0.746865 0.201092
O O10 0.553638 0.664607 0.271687
O O11 0.445799 0.167887 0.717207
O O12 0.480195 0.177027 0.000000
O O13 0.842544 0.342544 0.750000
O O14 0.882604 0.248678 0.739513
O O15 0.879257 0.299811 0.000000
O O16 0.093817 0.809866 0.500000
#
# Coordination Sequence:
#
# PCOD8314613 Si02
#       6
#    16  16  16  16  16  16
#     4  10  20  33  51  75 103 133 166 203 245 293
#     4  10  20  34  52  74 101 132 167 204 245 293
#     4   9  17  31  51  72  95 127 166 204 241 286
#     4   9  17  31  50  72  97 127 165 204 241 286
#     4  11  21  34  52  74 101 131 165 203 246 294
#     4  11  21  33  51  75 103 132 164 202 246 294
#
# _framework density 17.581990000000001
#
# number of rings (size 3 to 8) (size 9 to 14) (size 15 to 20)
#    0.000    2.000    0.000    7.000    0.000    4.667 
#    0.000    3.333    0.000    1.000    0.000    7.000 
#    0.000    0.000    0.000    0.000    0.000    0.000 
#
# Total GULP energy -1189766.234271 kJ/mol
# GULP energy per Si atom -12393.398274 kJ/mol
# Density = 1.754197 g / cm^3
# Si number density = 17.581990 Si / 1000 Ang^3
#
#
#
# Elastic Constant Matrix: (Units=GPa)
#
#
# Indices 1 2 3 4 5 6 
#
# 1 87.6123 54.9245 36.1813 0.0000 0.0000 0.0000
# 2 54.9245 87.6123 36.1813 0.0000 0.0000 0.0000
# 3 36.1813 36.1813 91.5622 0.0000 0.0000 0.0000
# 4 0.0000 0.0000 0.0000 27.1716 0.0000 0.0000
# 5 0.0000 0.0000 0.0000 0.0000 27.1716 0.0000
# 6 0.0000 0.0000 0.0000 0.0000 0.0000 -4.1558
#
#
#
# Elastic Compliance Matrix: (Units=1/GPa)
#
#
# Indices 1 2 3 4 5 6 
#
# 1 0.019684 -0.010908 -0.003468 0.000000 0.000000 0.000000
# 2 -0.010908 0.019684 -0.003468 0.000000 0.000000 0.000000
# 3 -0.003468 -0.003468 0.013662 0.000000 0.000000 0.000000
# 4 0.000000 0.000000 0.000000 0.036803 0.000000 0.000000
# 5 0.000000 0.000000 0.000000 0.000000 0.036803 0.000000
# 6 0.000000 0.000000 0.000000 0.000000 0.000000 -0.240630
#
#
# Mechanical properties :
#
#
# Convention : Reuss Voigt Hill
#
# Bulk Modulus (GPa) = 57.66022 57.92900 57.79461
# Shear Modulus (GPa) = -68.94281 19.33748 -24.80267
#
# Velocity S-wave (km/s) = -6.26876 3.31999 -3.75998
# Velocity P-wave (km/s) = 4.41929 6.90767 3.75405
#
# Compressibility (1/GPa) = 0.01734298
#
# Stress axis : x y z
#
# Youngs Moduli (GPa) = 50.80163 50.80163 73.19378
#
# Poissons Ratio (x) = 0.55415 0.25384
# Poissons Ratio (y) = 0.55415 0.25384
# Poissons Ratio (z) = 0.17618 0.17618
#
# Static dielectric constant tensor:
#      x y z
#    x 3.353020 0.000000 0.000000 
#    y 0.000000 3.353020 0.000000 
#    z 0.000000 0.000000 3.403340 
# 
# 
# High freq. dielectric constant tensor:
#      x y z
#    x 1.662430 0.000000 0.000000 
#    y 0.000000 1.662430 0.000000 
#    z 0.000000 0.000000 1.700860 
# 
# From -- ./inp_files/1521.got.cif
#   From: 2010.03.12/outbox.cif.g09.slc.cpg/sg128_1_cif.got.tgz:1521.got - 2010.04.06 17:11:05.
