data_PCOD8314255
_publ_section_title
;
Structure prediction by ZEFSAII (Michael W. Deem and Ramdas Pophale) SiO2 
 PCOD8314255
Probable space group: P 4/M B M
;
_chemical_formula_sum "Si O2"
_cell_formula_units_Z 64
_cell_length_a 19.910977
_cell_length_b 19.910977
_cell_length_c 8.349992
_cell_angle_alpha 90.000000
_cell_angle_beta 90.000000
_cell_angle_gamma 90.000000
_cell_volume 3310.329321
_symmetry_space_group_name_H-M "P 4/M B M"
_symmetry_group_IT_number 127
_symmetry_cell_setting 'tetragonal'
loop_
_space_group_symop_operation_xyz
x,y,z
-y,x,z
-x,-y,z
y,-x,z
1/2+x,1/2-y,-z
1/2-x,1/2+y,-z
1/2+y,1/2+x,-z
1/2-y,1/2-x,-z
-x,-y,-z
y,-x,-z
x,y,-z
-y,x,-z
1/2-x,1/2+y,z
1/2+x,1/2-y,z
1/2-y,1/2-x,z
1/2+y,1/2+x,z
loop_
_atom_site_type_symbol
_atom_site_label
_atom_site_fract_x
_atom_site_fract_y
_atom_site_fract_z
Si Si1 0.321673 0.431005 0.185775
Si Si2 0.671347 0.424807 0.315499
Si Si3 0.069049 0.322091 0.311509
Si Si4 0.816820 0.425147 0.186970
O O1 0.346251 0.498614 0.272662
O O2 0.376521 0.373587 0.207264
O O3 0.251531 0.405954 0.259966
O O4 0.311078 0.447181 0.000000
O O5 0.654660 0.411243 0.500000
O O6 0.749176 0.409122 0.283285
O O7 0.056596 0.323440 0.500000
O O8 0.125351 0.374650 0.257081
O O9 0.000110 0.342178 0.224083
O O10 0.873634 0.373634 0.245139
O O11 0.801802 0.417619 0.000000
#
# Coordination Sequence:
#
# PCOD8314255 Si02
#       4
#    16  16  16  16
#     4  11  22  38  59  83 112 145 183 226 274 326
#     4  11  22  38  59  83 112 145 183 226 274 326
#     4  10  21  37  57  82 112 146 185 228 275 326
#     4  10  21  37  57  82 112 146 185 228 275 326
#
# _framework density 19.333424000000001
#
# number of rings (size 3 to 8) (size 9 to 14) (size 15 to 20)
#    0.000    1.500    0.000    9.000    0.000    6.000 
#    0.000    5.000    0.000    0.000    0.000    0.000 
#    0.000    0.000    0.000    0.000    0.000    0.000 
#
# Total GULP energy -793968.297774 kJ/mol
# GULP energy per Si atom -12405.754653 kJ/mol
# Density = 1.928942 g / cm^3
# Si number density = 19.333424 Si / 1000 Ang^3
#
#
#
# Elastic Constant Matrix: (Units=GPa)
#
#
# Indices 1 2 3 4 5 6 
#
# 1 101.3988 84.6283 5.0153 0.0000 0.0000 0.0000
# 2 84.6283 101.3988 5.0153 0.0000 0.0000 0.0000
# 3 5.0153 5.0153 62.0026 0.0000 0.0000 0.0000
# 4 0.0000 0.0000 0.0000 32.4714 0.0000 0.0000
# 5 0.0000 0.0000 0.0000 0.0000 32.4714 0.0000
# 6 0.0000 0.0000 0.0000 0.0000 0.0000 42.7860
#
#
#
# Elastic Compliance Matrix: (Units=1/GPa)
#
#
# Indices 1 2 3 4 5 6 
#
# 1 0.032514 -0.027115 -0.000437 0.000000 0.000000 0.000000
# 2 -0.027115 0.032514 -0.000437 0.000000 0.000000 0.000000
# 3 -0.000437 -0.000437 0.016199 0.000000 0.000000 0.000000
# 4 0.000000 0.000000 0.000000 0.030796 0.000000 0.000000
# 5 0.000000 0.000000 0.000000 0.000000 0.030796 0.000000
# 6 0.000000 0.000000 0.000000 0.000000 0.000000 0.023372
#
#
# Mechanical properties :
#
#
# Convention : Reuss Voigt Hill
#
# Bulk Modulus (GPa) = 39.60346 50.45757 45.03051
# Shear Modulus (GPa) = 21.68402 32.88849 27.28625
#
# Velocity S-wave (km/s) = 3.35264 4.12894 3.76087
# Velocity P-wave (km/s) = 5.95951 6.99186 6.49623
#
# Compressibility (1/GPa) = 0.02525032
#
# Stress axis : x y z
#
# Youngs Moduli (GPa) = 30.75617 30.75617 61.73214
#
# Poissons Ratio (x) = 0.83394 0.02696
# Poissons Ratio (y) = 0.83394 0.02696
# Poissons Ratio (z) = 0.01343 0.01343
#
# Static dielectric constant tensor:
#      x y z
#    x 3.529860 0.000000 0.000000 
#    y 0.000000 3.529860 0.000000 
#    z 0.000000 0.000000 3.596150 
# 
# 
# High freq. dielectric constant tensor:
#      x y z
#    x 1.752990 0.000000 0.000000 
#    y 0.000000 1.752990 0.000000 
#    z 0.000000 0.000000 1.770120 
# 
# From -- ./inp_files/1377.got.cif
#   From: 2010.03.12/outbox.cif.g09.slc.cpg/sg127_1_cif.got.tgz:1377.got - 2010.04.06 17:03:15.
