data_PCOD8314490
_publ_section_title
;
Structure prediction by ZEFSAII (Michael W. Deem and Ramdas Pophale) SiO2 
 PCOD8314490
Probable space group: P 4/M N C
;
_chemical_formula_sum "Si O2"
_cell_formula_units_Z 104
_cell_length_a 18.691760
_cell_length_b 18.691760
_cell_length_c 16.505152
_cell_angle_alpha 90.000000
_cell_angle_beta 90.000000
_cell_angle_gamma 90.000000
_cell_volume 5766.601232
_symmetry_space_group_name_H-M "P 4/M N C"
_symmetry_group_IT_number 128
_symmetry_cell_setting 'tetragonal'
loop_
_space_group_symop_operation_xyz
x,y,z
-y,x,z
-x,-y,z
y,-x,z
1/2+x,1/2-y,1/2-z
1/2-x,1/2+y,1/2-z
1/2+y,1/2+x,1/2-z
1/2-y,1/2-x,1/2-z
-x,-y,-z
y,-x,-z
x,y,-z
-y,x,-z
1/2-x,1/2+y,1/2+z
1/2+x,1/2-y,1/2+z
1/2-y,1/2-x,1/2+z
1/2+y,1/2+x,1/2+z
loop_
_atom_site_type_symbol
_atom_site_label
_atom_site_fract_x
_atom_site_fract_y
_atom_site_fract_z
Si Si1 0.337647 0.038447 0.906078
Si Si2 0.890163 0.209946 0.631069
Si Si3 0.358384 0.246690 0.294957
Si Si4 0.265723 0.770365 0.091067
Si Si5 0.854965 0.463394 0.906960
Si Si6 0.953157 0.108776 0.500000
Si Si7 0.116715 0.380658 0.904079
O O1 0.278812 0.075410 0.849342
O O2 0.414426 0.075662 0.895824
O O3 0.346016 0.957518 0.874332
O O4 0.312532 0.043058 0.000000
O O5 0.882864 0.194221 0.727671
O O6 0.812796 0.212988 0.589467
O O7 0.927204 0.287125 0.633947
O O8 0.936758 0.152370 0.582275
O O9 0.320216 0.179785 0.250000
O O10 0.301965 0.286296 0.352791
O O11 0.331562 0.817344 0.124278
O O12 0.246148 0.794012 0.000000
O O13 0.871429 0.540384 0.866384
O O14 0.834025 0.473177 0.000000
O O15 0.037144 0.093343 0.500000
O O16 0.112534 0.388817 0.000000
#
# Coordination Sequence:
#
# PCOD8314490 Si02
#       7
#    16  16  16  16  16   8  16
#     4  10  18  34  54  79 114 154 189 224 273 339
#     4  11  21  36  58  81 107 147 187 236 284 339
#     4  10  20  34  54  79 109 145 191 230 275 340
#     4  10  18  34  55  78 109 150 192 231 279 334
#     4  10  17  30  54  80 107 152 189 218 277 336
#     4  11  26  44  64  90 109 139 195 251 289 339
#     4   9  20  31  52  84 112 140 186 236 271 330
#
# _framework density 18.034887000000001
#
# number of rings (size 3 to 8) (size 9 to 14) (size 15 to 20)
#    0.000    1.923    4.615    0.923    2.154    1.846 
#    2.769    2.308    0.000    0.000    0.000    0.000 
#    0.000    0.000    0.000    8.923    0.000    0.000 
#
# Total GULP energy -1289303.367187 kJ/mol
# GULP energy per Si atom -12397.147761 kJ/mol
# Density = 1.799384 g / cm^3
# Si number density = 18.034887 Si / 1000 Ang^3
#
#
#
# Elastic Constant Matrix: (Units=GPa)
#
#
# Indices 1 2 3 4 5 6 
#
# 1 76.8028 52.8320 35.3880 0.0000 0.0000 0.0000
# 2 52.8320 76.8028 35.3879 0.0000 0.0000 0.0000
# 3 35.3880 35.3879 88.1776 0.0000 0.0000 0.0000
# 4 0.0000 0.0000 0.0000 5.3969 0.0000 0.0000
# 5 0.0000 0.0000 0.0000 0.0000 5.3967 0.0000
# 6 0.0000 0.0000 0.0000 0.0000 0.0000 28.8873
#
#
#
# Elastic Compliance Matrix: (Units=1/GPa)
#
#
# Indices 1 2 3 4 5 6 
#
# 1 0.025798 -0.015919 -0.003965 0.000000 0.000000 0.000000
# 2 -0.015919 0.025798 -0.003964 0.000000 0.000000 0.000000
# 3 -0.003965 -0.003964 0.014523 0.000000 0.000000 0.000000
# 4 0.000000 0.000000 0.000000 0.185292 0.000000 0.000000
# 5 0.000000 0.000000 0.000000 0.000000 0.185300 0.000000
# 6 0.000000 0.000000 0.000000 0.000000 0.000000 0.034617
#
#
# Mechanical properties :
#
#
# Convention : Reuss Voigt Hill
#
# Bulk Modulus (GPa) = 54.28342 54.33320 54.30831
# Shear Modulus (GPa) = 9.52081 15.81453 12.66767
#
# Velocity S-wave (km/s) = 2.30012 2.96444 2.65315
# Velocity P-wave (km/s) = 6.10070 6.47374 6.28999
#
# Compressibility (1/GPa) = 0.01842183
#
# Stress axis : x y z
#
# Youngs Moduli (GPa) = 38.76279 38.76290 68.85709
#
# Poissons Ratio (x) = 0.61708 0.27298
# Poissons Ratio (y) = 0.61708 0.27298
# Poissons Ratio (z) = 0.15368 0.15367
#
# Static dielectric constant tensor:
#      x y z
#    x 3.291580 0.000000 0.000000 
#    y 0.000000 3.291580 0.000000 
#    z 0.000000 0.000000 3.409290 
# 
# 
# High freq. dielectric constant tensor:
#      x y z
#    x 1.683590 0.000000 0.000000 
#    y 0.000000 1.683590 0.000000 
#    z 0.000000 0.000000 1.694640 
# 
# From -- ./inp_files/4893.got.cif
#   From: 2010.03.12/outbox.cif.g09.slc.cpg/sg128_3_cif.got.tgz:4893.got - 2010.04.06 17:11:05.
