data_PCOD8314862
_publ_section_title
;
Structure prediction by ZEFSAII (Michael W. Deem and Ramdas Pophale) SiO2 
 PCOD8314862
Probable space group: P 4/N M M
;
_chemical_formula_sum "Si O2"
_cell_formula_units_Z 112
_cell_length_a 20.171138
_cell_length_b 20.171138
_cell_length_c 17.784533
_cell_angle_alpha 90.000000
_cell_angle_beta 90.000000
_cell_angle_gamma 90.000000
_cell_volume 7236.078454
_symmetry_space_group_name_H-M "P 4/N M M"
_symmetry_group_IT_number 129
_symmetry_cell_setting 'tetragonal'
loop_
_space_group_symop_operation_xyz
x,y,z
1/2-y,x,z
1/2-x,1/2-y,z
y,1/2-x,z
1/2+x,-y,-z
-x,1/2+y,-z
1/2+y,1/2+x,-z
-y,-x,-z
-x,-y,-z
1/2+y,-x,-z
1/2+x,1/2+y,-z
-y,1/2+x,-z
1/2-x,y,z
x,1/2-y,z
1/2-y,1/2-x,z
y,x,z
loop_
_atom_site_type_symbol
_atom_site_label
_atom_site_fract_x
_atom_site_fract_y
_atom_site_fract_z
Si Si1 0.094213 0.991166 0.141776
Si Si2 0.174548 0.511110 0.720028
Si Si3 0.515686 0.879395 0.122844
Si Si4 0.536947 0.427238 0.300932
Si Si5 0.063366 0.826050 0.988672
Si Si6 0.991140 0.398318 0.463155
Si Si7 0.177015 0.070100 0.572836
O O1 0.115002 0.990168 0.229801
O O2 0.156043 0.973911 0.089056
O O3 0.037474 0.936697 0.133855
O O4 0.062678 0.062678 0.119443
O O5 0.250000 0.541131 0.715396
O O6 0.164845 0.478380 0.802092
O O7 0.116808 0.565183 0.705444
O O8 0.164801 0.455719 0.656858
O O9 0.587033 0.912968 0.104886
O O10 0.491036 0.834138 0.054121
O O11 0.499643 0.499643 0.303627
O O12 0.519634 0.384349 0.374718
O O13 0.087185 0.750000 0.985278
O O14 0.128063 0.871938 0.000000
O O15 0.922692 0.422692 0.500000
O O16 0.046330 0.453671 0.476408
O O17 0.012910 0.333680 0.509797
O O18 0.250000 0.097655 0.563513
O O19 0.131154 0.131154 0.555162
#
# Coordination Sequence:
#
# PCOD8314862 Si02
#       7
#    16  16  16  16  16  16  16
#     4   8  15  27  44  64  84 106 135 175 225 266
#     4  10  17  24  38  63  92 116 140 168 206 261
#     4   9  16  27  44  62  83 110 141 180 220 250
#     4   9  15  26  44  63  84 112 141 178 227 260
#     4  10  19  30  43  61  86 115 146 177 214 262
#     4   9  15  25  43  62  82 107 139 179 218 250
#     4  10  19  29  41  60  87 117 147 177 213 262
#
# _framework density 15.477995999999999
#
# number of rings (size 3 to 8) (size 9 to 14) (size 15 to 20)
#    0.000    2.714    1.429    3.000    0.000    2.000 
#    0.000    0.714    0.000    0.000    0.000    0.000 
#    0.000   18.000    0.000    0.000    0.000    0.000 
#
# Total GULP energy -1387772.954604 kJ/mol
# GULP energy per Si atom -12390.829952 kJ/mol
# Density = 1.544277 g / cm^3
# Si number density = 15.477996 Si / 1000 Ang^3
#
#
#
# Elastic Constant Matrix: (Units=GPa)
#
#
# Indices 1 2 3 4 5 6 
#
# 1 56.9602 31.0758 41.6632 0.0000 0.0000 0.0000
# 2 31.0758 56.9606 41.6633 0.0000 0.0000 0.0000
# 3 41.6632 41.6633 131.9153 0.0000 0.0000 0.0000
# 4 0.0000 0.0000 0.0000 14.8712 0.0000 0.0000
# 5 0.0000 0.0000 0.0000 0.0000 14.8711 0.0000
# 6 0.0000 0.0000 0.0000 0.0000 0.0000 10.6550
#
#
#
# Elastic Compliance Matrix: (Units=1/GPa)
#
#
# Indices 1 2 3 4 5 6 
#
# 1 0.027418 -0.011215 -0.005117 0.000000 0.000000 0.000000
# 2 -0.011215 0.027418 -0.005117 0.000000 0.000000 0.000000
# 3 -0.005117 -0.005117 0.010813 0.000000 0.000000 0.000000
# 4 0.000000 0.000000 0.000000 0.067244 0.000000 0.000000
# 5 0.000000 0.000000 0.000000 0.000000 0.067245 0.000000
# 6 0.000000 0.000000 0.000000 0.000000 0.000000 0.093853
#
#
# Mechanical properties :
#
#
# Convention : Reuss Voigt Hill
#
# Bulk Modulus (GPa) = 43.95821 52.73785 48.34803
# Shear Modulus (GPa) = 14.51495 16.84172 15.67833
#
# Velocity S-wave (km/s) = 3.06564 3.30223 3.18613
# Velocity P-wave (km/s) = 6.40258 6.97756 6.69624
#
# Compressibility (1/GPa) = 0.02274888
#
# Stress axis : x y z
#
# Youngs Moduli (GPa) = 36.47258 36.47288 92.48090
#
# Poissons Ratio (x) = 0.40905 0.47325
# Poissons Ratio (y) = 0.40905 0.47325
# Poissons Ratio (z) = 0.18664 0.18664
#
# Static dielectric constant tensor:
#      x y z
#    x 2.735690 0.000000 0.000000 
#    y 0.000000 2.735690 0.000000 
#    z 0.000000 0.000000 3.378930 
# 
# 
# High freq. dielectric constant tensor:
#      x y z
#    x 1.556640 0.000000 0.000000 
#    y 0.000000 1.556640 0.000000 
#    z 0.000000 0.000000 1.616310 
# 
# From -- ./inp_files/5966.got.cif
#   From: 2010.03.12/outbox.cif.g09.slc.cpg/sg129_3_cif.got.tgz:5966.got - 2010.04.06 17:19:44.
