data_PCOD8314505
_publ_section_title
;
Structure prediction by ZEFSAII (Michael W. Deem and Ramdas Pophale) SiO2 
 PCOD8314505
Probable space group: P 4/M N C
;
_chemical_formula_sum "Si O2"
_cell_formula_units_Z 112
_cell_length_a 17.863872
_cell_length_b 17.863872
_cell_length_c 20.831469
_cell_angle_alpha 90.000000
_cell_angle_beta 90.000000
_cell_angle_gamma 90.000000
_cell_volume 6647.695117
_symmetry_space_group_name_H-M "P 4/M N C"
_symmetry_group_IT_number 128
_symmetry_cell_setting 'tetragonal'
loop_
_space_group_symop_operation_xyz
x,y,z
-y,x,z
-x,-y,z
y,-x,z
1/2+x,1/2-y,1/2-z
1/2-x,1/2+y,1/2-z
1/2+y,1/2+x,1/2-z
1/2-y,1/2-x,1/2-z
-x,-y,-z
y,-x,-z
x,y,-z
-y,x,-z
1/2-x,1/2+y,1/2+z
1/2+x,1/2-y,1/2+z
1/2-y,1/2-x,1/2+z
1/2+y,1/2+x,1/2+z
loop_
_atom_site_type_symbol
_atom_site_label
_atom_site_fract_x
_atom_site_fract_y
_atom_site_fract_z
Si Si1 0.789734 0.557610 0.297290
Si Si2 0.186878 0.046594 0.430530
Si Si3 0.045925 0.577283 0.819086
Si Si4 0.516833 0.856002 0.072933
Si Si5 0.816699 0.613690 0.161100
Si Si6 0.528117 0.380726 0.276049
Si Si7 0.345676 0.408339 0.141326
O O1 0.846296 0.500186 0.331675
O O2 0.815336 0.558100 0.222786
O O3 0.809019 0.638878 0.327568
O O4 0.701082 0.540923 0.309356
O O5 0.156920 0.072863 0.500000
O O6 0.275244 0.054104 0.428207
O O7 0.154664 0.093997 0.372033
O O8 0.162054 0.961067 0.420548
O O9 0.087175 0.587175 0.750000
O O10 0.097716 0.572447 0.881697
O O11 0.000000 0.500000 0.817030
O O12 0.433034 0.852872 0.102575
O O13 0.512032 0.888684 0.000000
O O14 0.731124 0.637166 0.150528
O O15 0.589576 0.444850 0.294991
O O16 0.538595 0.368713 0.200387
#
# Coordination Sequence:
#
# PCOD8314505 Si02
#       7
#    16  16  16  16  16  16  16
#     4  10  18  33  54  73 102 138 179 224 261 320
#     4  10  20  32  46  69 101 141 180 213 253 309
#     4  11  18  31  54  77 102 139 179 214 258 321
#     4  10  20  33  49  76 113 142 169 213 269 317
#     4   9  17  33  51  72 101 137 176 215 261 314
#     4  10  20  34  51  73 103 137 175 231 284 310
#     4  10  18  30  50  68  97 137 179 217 254 308
#
# _framework density 16.847944999999999
#
# number of rings (size 3 to 8) (size 9 to 14) (size 15 to 20)
#    0.000    2.000    4.286    1.286    0.000    1.143 
#    2.571    0.714    0.000    0.000    0.000    0.000 
#    0.000    0.000    0.000    6.286    0.000    0.000 
#
# Total GULP energy -1387475.693243 kJ/mol
# GULP energy per Si atom -12388.175833 kJ/mol
# Density = 1.680960 g / cm^3
# Si number density = 16.847945 Si / 1000 Ang^3
#
#
#
# Elastic Constant Matrix: (Units=GPa)
#
#
# Indices 1 2 3 4 5 6 
#
# 1 97.9579 56.1343 31.3834 0.0000 0.0000 0.0000
# 2 56.1343 97.9579 31.3834 0.0000 0.0000 0.0000
# 3 31.3834 31.3834 78.5798 0.0000 0.0000 0.0000
# 4 0.0000 0.0000 0.0000 18.2165 0.0000 0.0000
# 5 0.0000 0.0000 0.0000 0.0000 18.2165 0.0000
# 6 0.0000 0.0000 0.0000 0.0000 0.0000 24.2867
#
#
#
# Elastic Compliance Matrix: (Units=1/GPa)
#
#
# Indices 1 2 3 4 5 6 
#
# 1 0.015830 -0.008080 -0.003095 0.000000 0.000000 0.000000
# 2 -0.008080 0.015830 -0.003095 0.000000 0.000000 0.000000
# 3 -0.003095 -0.003095 0.015198 0.000000 0.000000 0.000000
# 4 0.000000 0.000000 0.000000 0.054895 0.000000 0.000000
# 5 0.000000 0.000000 0.000000 0.000000 0.054895 0.000000
# 6 0.000000 0.000000 0.000000 0.000000 0.000000 0.041175
#
#
# Mechanical properties :
#
#
# Convention : Reuss Voigt Hill
#
# Bulk Modulus (GPa) = 54.59182 56.92195 55.75689
# Shear Modulus (GPa) = 21.50805 22.51692 22.01249
#
# Velocity S-wave (km/s) = 3.57683 3.65975 3.61853
# Velocity P-wave (km/s) = 7.03784 7.19148 7.11508
#
# Compressibility (1/GPa) = 0.01831776
#
# Stress axis : x y z
#
# Youngs Moduli (GPa) = 63.17036 63.17036 65.79635
#
# Poissons Ratio (x) = 0.51040 0.20367
# Poissons Ratio (y) = 0.51040 0.20367
# Poissons Ratio (z) = 0.19554 0.19554
#
# Static dielectric constant tensor:
#      x y z
#    x 3.104450 0.000000 0.000000 
#    y 0.000000 3.104450 0.000000 
#    z 0.000000 0.000000 3.134900 
# 
# 
# High freq. dielectric constant tensor:
#      x y z
#    x 1.639890 0.000000 0.000000 
#    y 0.000000 1.639890 0.000000 
#    z 0.000000 0.000000 1.625370 
# 
# From -- ./inp_files/5959.got.cif
#   From: 2010.03.12/outbox.cif.g09.slc.cpg/sg128_3_cif.got.tgz:5959.got - 2010.04.06 17:11:05.
