data_PCOD8314267
_publ_section_title
;
Structure prediction by ZEFSAII (Michael W. Deem and Ramdas Pophale) SiO2 
 PCOD8314267
Probable space group: P 4/M B M
;
_chemical_formula_sum "Si O2"
_cell_formula_units_Z 120
_cell_length_a 26.153723
_cell_length_b 26.153723
_cell_length_c 8.280068
_cell_angle_alpha 90.000000
_cell_angle_beta 90.000000
_cell_angle_gamma 90.000000
_cell_volume 5663.709151
_symmetry_space_group_name_H-M "P 4/M B M"
_symmetry_group_IT_number 127
_symmetry_cell_setting 'tetragonal'
loop_
_space_group_symop_operation_xyz
x,y,z
-y,x,z
-x,-y,z
y,-x,z
1/2+x,1/2-y,-z
1/2-x,1/2+y,-z
1/2+y,1/2+x,-z
1/2-y,1/2-x,-z
-x,-y,-z
y,-x,-z
x,y,-z
-y,x,-z
1/2-x,1/2+y,z
1/2+x,1/2-y,z
1/2-y,1/2-x,z
1/2+y,1/2+x,z
loop_
_atom_site_type_symbol
_atom_site_label
_atom_site_fract_x
_atom_site_fract_y
_atom_site_fract_z
Si Si1 0.538902 0.123669 0.181381
Si Si2 0.441748 0.772185 0.305936
Si Si3 0.570257 0.393091 0.319361
Si Si4 0.304719 0.354182 0.319236
Si Si5 0.741487 0.445503 0.316284
Si Si6 0.334598 0.245859 0.188102
Si Si7 0.138463 0.030414 0.183844
Si Si8 0.915954 0.498044 0.500000
O O1 0.575424 0.075424 0.177197
O O2 0.572070 0.173709 0.224948
O O3 0.499154 0.117054 0.332495
O O4 0.513508 0.128314 0.000000
O O5 0.441810 0.773214 0.500000
O O6 0.397080 0.733832 0.244326
O O7 0.499611 0.759266 0.240802
O O8 0.548165 0.400253 0.500000
O O9 0.621964 0.360842 0.320093
O O10 0.583453 0.447312 0.237748
O O11 0.529982 0.363151 0.209729
O O12 0.286480 0.341114 0.500000
O O13 0.309140 0.300983 0.225256
O O14 0.758181 0.444267 0.500000
O O15 0.763638 0.393379 0.240953
O O16 0.680588 0.443791 0.297377
O O17 0.298385 0.201615 0.265552
O O18 0.334354 0.239630 0.000000
O O19 0.151395 0.043815 0.000000
O O20 0.954387 0.545614 0.500000
O O21 0.944393 0.444393 0.500000
#
# Coordination Sequence:
#
# PCOD8314267 Si02
#       8
#    16  16  16  16  16  16  16   8
#     4  10  21  37  60  92 129 166 203 252 317 381
#     4  10  21  39  63  92 124 162 210 265 320 381
#     4  11  22  40  62  87 119 158 203 251 303 365
#     4  10  21  38  63  90 119 158 210 258 305 373
#     4  11  22  40  65  90 120 164 216 262 312 381
#     4  11  25  43  62  90 130 170 214 269 324 377
#     4  12  24  38  60  91 125 159 200 255 316 372
#     4   9  18  36  62  88 120 160 200 244 295 364
#
# _framework density 21.187529000000001
#
# number of rings (size 3 to 8) (size 9 to 14) (size 15 to 20)
#    0.000    1.400    3.333    2.400    0.000    4.267 
#    0.000    6.000    0.000    0.000    0.000    0.000 
#    0.000    0.000    0.000    0.000    0.000    0.000 
#
# Total GULP energy -1486965.639488 kJ/mol
# GULP energy per Si atom -12391.380329 kJ/mol
# Density = 2.113931 g / cm^3
# Si number density = 21.187529 Si / 1000 Ang^3
#
#
#
# Elastic Constant Matrix: (Units=GPa)
#
#
# Indices 1 2 3 4 5 6 
#
# 1 61.8831 1.7680 13.7673 0.0000 0.0000 0.0000
# 2 1.7680 61.8823 13.7675 0.0000 0.0000 0.0000
# 3 13.7673 13.7675 81.0395 0.0000 0.0000 0.0000
# 4 0.0000 0.0000 0.0000 25.6574 0.0000 0.0000
# 5 0.0000 0.0000 0.0000 0.0000 25.6574 0.0000
# 6 0.0000 0.0000 0.0000 0.0000 0.0000 28.0939
#
#
#
# Elastic Compliance Matrix: (Units=1/GPa)
#
#
# Indices 1 2 3 4 5 6 
#
# 1 0.016796 0.000161 -0.002881 0.000000 0.000000 0.000000
# 2 0.000161 0.016796 -0.002881 0.000000 0.000000 0.000000
# 3 -0.002881 -0.002881 0.013318 0.000000 0.000000 0.000000
# 4 0.000000 0.000000 0.000000 0.038975 0.000000 0.000000
# 5 0.000000 0.000000 0.000000 0.000000 0.038975 0.000000
# 6 0.000000 0.000000 0.000000 0.000000 0.000000 0.035595
#
#
# Mechanical properties :
#
#
# Convention : Reuss Voigt Hill
#
# Bulk Modulus (GPa) = 28.00385 29.26783 28.63584
# Shear Modulus (GPa) = 27.23915 27.58189 27.41052
#
# Velocity S-wave (km/s) = 3.58945 3.61196 3.60072
# Velocity P-wave (km/s) = 5.51586 5.58916 5.55263
#
# Compressibility (1/GPa) = 0.03570938
#
# Stress axis : x y z
#
# Youngs Moduli (GPa) = 59.53883 59.53798 75.08390
#
# Poissons Ratio (x) = -0.00959 0.21629
# Poissons Ratio (y) = -0.00959 0.21630
# Poissons Ratio (z) = 0.17151 0.17151
#
# Static dielectric constant tensor:
#      x y z
#    x 3.855090 0.000000 0.000000 
#    y 0.000000 3.855100 0.000000 
#    z 0.000000 0.000000 3.889210 
# 
# 
# High freq. dielectric constant tensor:
#      x y z
#    x 1.822290 0.000000 0.000000 
#    y 0.000000 1.822290 0.000000 
#    z 0.000000 0.000000 1.827700 
# 
# From -- ./inp_files/2369.got.cif
#   From: 2010.03.12/outbox.cif.g09.slc.cpg/sg127_2_cif.got.tgz:2369.got - 2010.04.06 17:03:15.
