data_PCOD8314844
_publ_section_title
;
Structure prediction by ZEFSAII (Michael W. Deem and Ramdas Pophale) SiO2 
 PCOD8314844
Probable space group: P 4/M N C
;
_chemical_formula_sum "Si O2"
_cell_formula_units_Z 88
_cell_length_a 11.546924
_cell_length_b 11.546924
_cell_length_c 29.050395
_cell_angle_alpha 90.000000
_cell_angle_beta 90.000000
_cell_angle_gamma 90.000000
_cell_volume 3873.331401
_symmetry_space_group_name_H-M "P 4/M N C"
_symmetry_group_IT_number 128
_symmetry_cell_setting 'tetragonal'
loop_
_space_group_symop_operation_xyz
x,y,z
-y,x,z
-x,-y,z
y,-x,z
1/2+x,1/2-y,1/2-z
1/2-x,1/2+y,1/2-z
1/2+y,1/2+x,1/2-z
1/2-y,1/2-x,1/2-z
-x,-y,-z
y,-x,-z
x,y,-z
-y,x,-z
1/2-x,1/2+y,1/2+z
1/2+x,1/2-y,1/2+z
1/2-y,1/2-x,1/2+z
1/2+y,1/2+x,1/2+z
loop_
_atom_site_type_symbol
_atom_site_label
_atom_site_fract_x
_atom_site_fract_y
_atom_site_fract_z
Si Si1 0.706158 0.143910 0.093387
Si Si2 0.076066 0.177611 0.000000
Si Si3 0.098596 0.156287 0.179611
Si Si4 0.681281 0.916611 0.294353
Si Si5 0.165112 0.334889 0.750000
Si Si6 0.000000 0.500000 0.863338
Si Si7 0.641878 0.374420 0.132925
O O1 0.741687 0.108303 0.042665
O O2 0.810744 0.104946 0.126186
O O3 0.702809 0.284827 0.097951
O O4 0.583265 0.082944 0.106252
O O5 0.939738 0.150429 0.000000
O O6 0.174456 0.241045 0.210108
O O7 0.964700 0.156797 0.192252
O O8 0.661377 0.838624 0.250000
O O9 0.578036 0.912183 0.332411
O O10 0.801880 0.865610 0.315621
O O11 0.682419 0.048319 0.278426
O O12 0.661171 0.509535 0.124485
#
# Coordination Sequence:
#
# PCOD8314844 Si02
#       7
#    16   8  16  16   8   8  16
#     4  12  26  48  80 107 147 193 244 323 385 464
#     4  11  28  51  80 119 150 187 244 318 411 479
#     4  11  26  45  67  99 141 194 250 304 376 446
#     4  12  23  44  68 104 152 201 259 304 360 428
#     4  12  23  44  64 101 148 200 240 310 350 433
#     4  12  23  47  72 114 140 202 258 302 366 450
#     4  11  26  48  74 106 150 205 253 308 375 451
#
# _framework density 22.719463000000001
#
# number of rings (size 3 to 8) (size 9 to 14) (size 15 to 20)
#    0.000    0.455    5.455    1.091    7.636    4.727 
#    6.545    4.545    0.000    1.091    0.000    0.000 
#    0.000    0.000    0.000    0.000    0.000    0.000 
#
# Total GULP energy -1090502.185529 kJ/mol
# GULP energy per Si atom -12392.070290 kJ/mol
# Density = 2.266775 g / cm^3
# Si number density = 22.719463 Si / 1000 Ang^3
#
#
#
# Elastic Constant Matrix: (Units=GPa)
#
#
# Indices 1 2 3 4 5 6 
#
# 1 151.3988 5.6484 47.9520 0.0000 0.0000 0.0000
# 2 5.6484 151.4155 47.9700 0.0000 0.0000 0.0000
# 3 47.9520 47.9700 144.6765 0.0000 0.0000 0.0000
# 4 0.0000 0.0000 0.0000 19.7196 0.0000 0.0000
# 5 0.0000 0.0000 0.0000 0.0000 19.7196 0.0000
# 6 0.0000 0.0000 0.0000 0.0000 0.0000 -78.9267
#
#
#
# Elastic Compliance Matrix: (Units=1/GPa)
#
#
# Indices 1 2 3 4 5 6 
#
# 1 0.007422 0.000561 -0.002646 0.000000 0.000000 0.000000
# 2 0.000561 0.007422 -0.002647 0.000000 0.000000 0.000000
# 3 -0.002646 -0.002647 0.008667 0.000000 0.000000 0.000000
# 4 0.000000 0.000000 0.000000 0.050711 0.000000 0.000000
# 5 0.000000 0.000000 0.000000 0.000000 0.050711 0.000000
# 6 0.000000 0.000000 0.000000 0.000000 0.000000 -0.012670
#
#
# Mechanical properties :
#
#
# Convention : Reuss Voigt Hill
#
# Bulk Modulus (GPa) = 71.18716 72.29238 71.73977
# Shear Modulus (GPa) = 39.55419 15.16386 27.35903
#
# Velocity S-wave (km/s) = 4.17703 2.58629 3.47394
# Velocity P-wave (km/s) = 7.39355 6.38805 6.90912
#
# Compressibility (1/GPa) = 0.01404748
#
# Stress axis : x y z
#
# Youngs Moduli (GPa) = 134.73001 134.73474 115.38424
#
# Poissons Ratio (x) = -0.07565 0.30533
# Poissons Ratio (y) = -0.07565 0.30542
# Poissons Ratio (z) = 0.35652 0.35664
#
# Static dielectric constant tensor:
#      x y z
#    x 4.410750 0.000000 0.000000 
#    y 0.000000 4.410740 0.000000 
#    z 0.000000 0.000000 3.820210 
# 
# 
# High freq. dielectric constant tensor:
#      x y z
#    x 1.923910 0.000000 0.000000 
#    y 0.000000 1.923910 0.000000 
#    z 0.000000 0.000000 1.856910 
# 
# From -- ./inp_files/7326.got.cif
#   From: 2010.03.12/outbox.cif.g09.slc.cpg/sg128_4_cif.got.tgz:7326.got - 2010.04.06 17:11:05.
