data_PCOD8314756
_publ_section_title
;
Structure prediction by ZEFSAII (Michael W. Deem and Ramdas Pophale) SiO2 
 PCOD8314756
Probable space group: P 4/M N C
;
_chemical_formula_sum "Si O2"
_cell_formula_units_Z 88
_cell_length_a 11.535349
_cell_length_b 11.535349
_cell_length_c 31.082095
_cell_angle_alpha 90.000000
_cell_angle_beta 90.000000
_cell_angle_gamma 90.000000
_cell_volume 4135.916485
_symmetry_space_group_name_H-M "P 4/M N C"
_symmetry_group_IT_number 128
_symmetry_cell_setting 'tetragonal'
loop_
_space_group_symop_operation_xyz
x,y,z
-y,x,z
-x,-y,z
y,-x,z
1/2+x,1/2-y,1/2-z
1/2-x,1/2+y,1/2-z
1/2+y,1/2+x,1/2-z
1/2-y,1/2-x,1/2-z
-x,-y,-z
y,-x,-z
x,y,-z
-y,x,-z
1/2-x,1/2+y,1/2+z
1/2+x,1/2-y,1/2+z
1/2-y,1/2-x,1/2+z
1/2+y,1/2+x,1/2+z
loop_
_atom_site_type_symbol
_atom_site_label
_atom_site_fract_x
_atom_site_fract_y
_atom_site_fract_z
Si Si1 0.042647 0.664906 0.549265
Si Si2 0.056596 0.184225 0.256717
Si Si3 0.229335 0.287521 0.951765
Si Si4 0.143860 0.874814 0.880556
Si Si5 0.335363 0.852760 0.181045
Si Si6 0.500000 0.000000 0.880123
O O1 0.041336 0.614835 0.500000
O O2 0.132622 0.770003 0.551778
O O3 0.080259 0.572751 0.586009
O O4 0.916752 0.707238 0.565085
O O5 0.074127 0.280416 0.220071
O O6 0.086838 0.245726 0.302076
O O7 0.924364 0.143482 0.253050
O O8 0.157779 0.187781 0.927771
O O9 0.184475 0.275597 0.000000
O O10 0.225812 0.806568 0.846697
O O11 0.012003 0.839098 0.873034
O O12 0.415097 0.930088 0.150587
#
# Coordination Sequence:
#
# PCOD8314756 Si02
#       6
#    16  16  16  16  16   8
#     4  10  22  41  64  91 133 177 222 271 326 385
#     4  10  24  46  67  93 128 167 209 262 328 392
#     4  10  22  40  63  93 126 177 227 273 330 389
#     4  11  23  41  63  93 133 174 218 274 335 393
#     4  11  24  41  69  97 123 168 213 267 319 399
#     4  12  23  41  62 100 132 168 216 269 327 378
#
# _framework density 21.277024999999998
#
# number of rings (size 3 to 8) (size 9 to 14) (size 15 to 20)
#    0.000    1.455    1.818    2.455    0.000    9.818 
#    0.000    2.727    0.000    0.000    0.000    0.000 
#    0.000    0.000    0.000    0.000    0.000    0.000 
#
# Total GULP energy -1090793.398005 kJ/mol
# GULP energy per Si atom -12395.379523 kJ/mol
# Density = 2.122860 g / cm^3
# Si number density = 21.277025 Si / 1000 Ang^3
#
#
#
# Elastic Constant Matrix: (Units=GPa)
#
#
# Indices 1 2 3 4 5 6 
#
# 1 75.4880 30.7700 46.8922 0.0000 0.0000 0.0000
# 2 30.7700 75.4880 46.8922 0.0000 0.0000 0.0000
# 3 46.8922 46.8922 120.8748 0.0000 0.0000 0.0000
# 4 0.0000 0.0000 0.0000 34.7833 0.0000 0.0000
# 5 0.0000 0.0000 0.0000 0.0000 34.7833 0.0000
# 6 0.0000 0.0000 0.0000 0.0000 0.0000 26.2160
#
#
#
# Elastic Compliance Matrix: (Units=1/GPa)
#
#
# Indices 1 2 3 4 5 6 
#
# 1 0.018337 -0.004026 -0.005552 0.000000 0.000000 0.000000
# 2 -0.004026 0.018337 -0.005552 0.000000 0.000000 0.000000
# 3 -0.005552 -0.005552 0.012581 0.000000 0.000000 0.000000
# 4 0.000000 0.000000 0.000000 0.028749 0.000000 0.000000
# 5 0.000000 0.000000 0.000000 0.000000 0.028749 0.000000
# 6 0.000000 0.000000 0.000000 0.000000 0.000000 0.038145
#
#
# Mechanical properties :
#
#
# Convention : Reuss Voigt Hill
#
# Bulk Modulus (GPa) = 52.64413 57.88441 55.26427
# Shear Modulus (GPa) = 27.54999 28.97628 28.26313
#
# Velocity S-wave (km/s) = 3.60227 3.69434 3.64859
# Velocity P-wave (km/s) = 6.48828 6.74253 6.61662
#
# Compressibility (1/GPa) = 0.01899547
#
# Stress axis : x y z
#
# Youngs Moduli (GPa) = 54.53518 54.53518 79.48720
#
# Poissons Ratio (x) = 0.21953 0.44131
# Poissons Ratio (y) = 0.21953 0.44131
# Poissons Ratio (z) = 0.30277 0.30277
#
# Static dielectric constant tensor:
#      x y z
#    x 3.894220 0.000000 0.000000 
#    y 0.000000 3.894220 0.000000 
#    z 0.000000 0.000000 4.134650 
# 
# 
# High freq. dielectric constant tensor:
#      x y z
#    x 1.831750 0.000000 0.000000 
#    y 0.000000 1.831750 0.000000 
#    z 0.000000 0.000000 1.850600 
# 
# From -- ./inp_files/7268.got.cif
#   From: 2010.03.12/outbox.cif.g09.slc.cpg/sg128_4_cif.got.tgz:7268.got - 2010.04.06 17:11:05.
