data_PCOD8314273
_publ_section_title
;
Structure prediction by ZEFSAII (Michael W. Deem and Ramdas Pophale) SiO2 
 PCOD8314273
Probable space group: P 4/M B M
;
_chemical_formula_sum "Si O2"
_cell_formula_units_Z 96
_cell_length_a 14.480023
_cell_length_b 14.480023
_cell_length_c 22.981058
_cell_angle_alpha 90.000000
_cell_angle_beta 90.000000
_cell_angle_gamma 90.000000
_cell_volume 4818.462931
_symmetry_space_group_name_H-M "P 4/M B M"
_symmetry_group_IT_number 127
_symmetry_cell_setting 'tetragonal'
loop_
_space_group_symop_operation_xyz
x,y,z
-y,x,z
-x,-y,z
y,-x,z
1/2+x,1/2-y,-z
1/2-x,1/2+y,-z
1/2+y,1/2+x,-z
1/2-y,1/2-x,-z
-x,-y,-z
y,-x,-z
x,y,-z
-y,x,-z
1/2-x,1/2+y,z
1/2+x,1/2-y,z
1/2-y,1/2-x,z
1/2+y,1/2+x,z
loop_
_atom_site_type_symbol
_atom_site_label
_atom_site_fract_x
_atom_site_fract_y
_atom_site_fract_z
Si Si1 0.999692 0.351663 0.843227
Si Si2 0.241680 0.891840 0.249523
Si Si3 0.398526 0.743131 0.618841
Si Si4 0.104813 0.107543 0.154280
Si Si5 0.255950 0.603713 0.063994
Si Si6 0.746838 0.396301 0.431540
O O1 0.908923 0.408923 0.824992
O O2 0.980209 0.286064 0.898140
O O3 0.081870 0.418131 0.863387
O O4 0.028223 0.293339 0.786653
O O5 0.299578 0.799578 0.253849
O O6 0.222287 0.926418 0.314441
O O7 0.148049 0.861472 0.216076
O O8 0.336258 0.836258 0.611116
O O9 0.342830 0.653865 0.595955
O O10 0.496470 0.755985 0.586607
O O11 0.158572 0.150728 0.099035
O O12 0.998557 0.129143 0.149909
O O13 0.180677 0.680677 0.054657
O O14 0.287548 0.567597 0.000000
O O15 0.732479 0.392480 0.500000
O O16 0.839914 0.339914 0.413453
#
# Coordination Sequence:
#
# PCOD8314273 Si02
#       6
#    16  16  16  16  16  16
#     4   9  18  35  60  86 112 144 186 243 305 360
#     4  10  21  39  61  87 116 150 191 239 301 356
#     4  10  23  40  62  95 130 165 212 264 311 372
#     4  11  23  38  56  79 111 151 191 235 285 343
#     4  10  21  38  59  82 109 145 191 242 298 356
#     4  10  22  41  65  93 129 174 215 257 311 364
#
# _framework density 19.923366999999999
#
# number of rings (size 3 to 8) (size 9 to 14) (size 15 to 20)
#    0.000    2.000    1.667    1.000    2.333    3.333 
#    0.000    5.833    0.000    0.000    0.000    0.000 
#    0.000    0.000    0.000    0.000    0.000    0.000 
#
# Total GULP energy -1189694.126190 kJ/mol
# GULP energy per Si atom -12392.647148 kJ/mol
# Density = 1.987802 g / cm^3
# Si number density = 19.923367 Si / 1000 Ang^3
#
#
#
# Elastic Constant Matrix: (Units=GPa)
#
#
# Indices 1 2 3 4 5 6 
#
# 1 92.3863 51.9897 49.5009 0.0000 0.0000 0.0000
# 2 51.9897 92.3863 49.5009 0.0000 0.0000 0.0000
# 3 49.5009 49.5009 147.4827 0.0000 0.0000 0.0000
# 4 0.0000 0.0000 0.0000 34.7323 0.0000 0.0000
# 5 0.0000 0.0000 0.0000 0.0000 34.7323 0.0000
# 6 0.0000 0.0000 0.0000 0.0000 0.0000 6.5061
#
#
#
# Elastic Compliance Matrix: (Units=1/GPa)
#
#
# Indices 1 2 3 4 5 6 
#
# 1 0.016876 -0.007879 -0.003020 0.000000 0.000000 0.000000
# 2 -0.007879 0.016876 -0.003020 0.000000 0.000000 0.000000
# 3 -0.003020 -0.003020 0.008808 0.000000 0.000000 0.000000
# 4 0.000000 0.000000 0.000000 0.028792 0.000000 0.000000
# 5 0.000000 0.000000 0.000000 0.000000 0.028792 0.000000
# 6 0.000000 0.000000 0.000000 0.000000 0.000000 0.153702
#
#
# Mechanical properties :
#
#
# Convention : Reuss Voigt Hill
#
# Bulk Modulus (GPa) = 67.92255 70.47090 69.19673
# Shear Modulus (GPa) = 17.44664 27.27839 22.36251
#
# Velocity S-wave (km/s) = 2.96241 3.70424 3.35390
# Velocity P-wave (km/s) = 6.77252 7.33096 7.05727
#
# Compressibility (1/GPa) = 0.01472265
#
# Stress axis : x y z
#
# Youngs Moduli (GPa) = 59.25638 59.25638 113.53894
#
# Poissons Ratio (x) = 0.46687 0.34286
# Poissons Ratio (y) = 0.46687 0.34286
# Poissons Ratio (z) = 0.17894 0.17894
#
# Static dielectric constant tensor:
#      x y z
#    x 3.627270 0.000000 0.000000 
#    y 0.000000 3.627270 0.000000 
#    z 0.000000 0.000000 4.285510 
# 
# 
# High freq. dielectric constant tensor:
#      x y z
#    x 1.780490 0.000000 0.000000 
#    y 0.000000 1.780490 0.000000 
#    z 0.000000 0.000000 1.779940 
# 
# From -- ./inp_files/5795.got.cif
#   From: 2010.03.12/outbox.cif.g09.slc.cpg/sg127_3_cif.got.tgz:5795.got - 2010.04.06 17:03:15.
