data_PCOD8314409
_publ_section_title
;
Structure prediction by ZEFSAII (Michael W. Deem and Ramdas Pophale) SiO2 
 PCOD8314409
Probable space group: P 4/M B M
;
_chemical_formula_sum "Si O2"
_cell_formula_units_Z 112
_cell_length_a 14.500004
_cell_length_b 14.500004
_cell_length_c 29.460619
_cell_angle_alpha 90.000000
_cell_angle_beta 90.000000
_cell_angle_gamma 90.000000
_cell_volume 6194.098562
_symmetry_space_group_name_H-M "P 4/M B M"
_symmetry_group_IT_number 127
_symmetry_cell_setting 'tetragonal'
loop_
_space_group_symop_operation_xyz
x,y,z
-y,x,z
-x,-y,z
y,-x,z
1/2+x,1/2-y,-z
1/2-x,1/2+y,-z
1/2+y,1/2+x,-z
1/2-y,1/2-x,-z
-x,-y,-z
y,-x,-z
x,y,-z
-y,x,-z
1/2-x,1/2+y,z
1/2+x,1/2-y,z
1/2-y,1/2-x,z
1/2+y,1/2+x,z
loop_
_atom_site_type_symbol
_atom_site_label
_atom_site_fract_x
_atom_site_fract_y
_atom_site_fract_z
Si Si1 0.076737 0.423264 0.763832
Si Si2 0.821567 0.827629 0.947471
Si Si3 0.285113 0.060275 0.271805
Si Si4 0.854300 0.958339 0.192565
Si Si5 0.351750 0.534613 0.547835
Si Si6 0.734217 0.500916 0.099432
Si Si7 0.423068 0.923068 0.865677
Si Si8 0.649498 0.465062 0.646408
O O1 0.161821 0.463734 0.735411
O O2 0.107540 0.392461 0.814662
O O3 0.000000 0.500000 0.770392
O O4 0.758693 0.741308 0.933075
O O5 0.914330 0.828249 0.917497
O O6 0.765452 0.921920 0.938861
O O7 0.848725 0.821491 0.000000
O O8 0.353818 0.146183 0.274490
O O9 0.218584 0.074696 0.229472
O O10 0.229052 0.054364 0.318065
O O11 0.937436 0.887401 0.199211
O O12 0.807864 0.951553 0.143593
O O13 0.391813 0.432769 0.547267
O O14 0.293714 0.548174 0.500000
O O15 0.301166 0.546423 0.596487
O O16 0.837106 0.536148 0.107281
O O17 0.500000 0.000000 0.863139
O O18 0.608609 0.567445 0.652860
#
# Coordination Sequence:
#
# PCOD8314409 Si02
#       8
#     8  16  16  16  16  16   8  16
#     4   9  20  36  54  73 105 141 176 228 270 305
#     4  11  25  43  63  91 124 152 187 232 278 334
#     4  11  22  37  53  77 108 146 188 224 269 325
#     4  11  23  40  59  83 115 142 177 224 276 329
#     4   7  10  19  41  72 101 133 176 221 270 328
#     4  12  22  41  66  91 116 152 188 229 283 336
#     4  11  22  40  65  92 117 150 192 237 282 336
#     4   9  17  32  51  75 111 146 176 225 283 324
#
# _framework density 18.081727999999998
#
# number of rings (size 3 to 8) (size 9 to 14) (size 15 to 20)
#    0.000    1.857    3.571    3.000    0.000    2.000 
#    6.429    0.714    0.000    2.143    0.000    0.500 
#    0.000    1.714    0.000    0.000    0.000    0.000 
#
# Total GULP energy -1388066.219552 kJ/mol
# GULP energy per Si atom -12393.448389 kJ/mol
# Density = 1.804057 g / cm^3
# Si number density = 18.081728 Si / 1000 Ang^3
#
#
#
# Elastic Constant Matrix: (Units=GPa)
#
#
# Indices 1 2 3 4 5 6 
#
# 1 67.7672 19.4886 37.3331 0.0000 0.0000 0.0000
# 2 19.4886 67.7672 37.3331 0.0000 0.0000 0.0000
# 3 37.3331 37.3331 113.6946 0.0000 0.0000 0.0000
# 4 0.0000 0.0000 0.0000 -7.2489 0.0000 0.0000
# 5 0.0000 0.0000 0.0000 0.0000 -7.2489 0.0000
# 6 0.0000 0.0000 0.0000 0.0000 0.0000 20.1823
#
#
#
# Elastic Compliance Matrix: (Units=1/GPa)
#
#
# Indices 1 2 3 4 5 6 
#
# 1 0.018326 -0.002387 -0.005234 0.000000 0.000000 0.000000
# 2 -0.002387 0.018326 -0.005234 0.000000 0.000000 0.000000
# 3 -0.005234 -0.005234 0.012233 0.000000 0.000000 0.000000
# 4 0.000000 0.000000 0.000000 -0.137952 0.000000 0.000000
# 5 0.000000 0.000000 0.000000 0.000000 -0.137952 0.000000
# 6 0.000000 0.000000 0.000000 0.000000 0.000000 0.049548
#
#
# Mechanical properties :
#
#
# Convention : Reuss Voigt Hill
#
# Bulk Modulus (GPa) = 43.14851 48.61540 45.88195
# Shear Modulus (GPa) = -34.71346 11.47519 -11.61914
#
# Velocity S-wave (km/s) = -4.38632 2.52192 -2.53769
# Velocity P-wave (km/s) = 1.31840 5.95188 4.10407
#
# Compressibility (1/GPa) = 0.02317577
#
# Stress axis : x y z
#
# Youngs Moduli (GPa) = 54.56670 54.56670 81.74799
#
# Poissons Ratio (x) = 0.13025 0.42786
# Poissons Ratio (y) = 0.13025 0.42786
# Poissons Ratio (z) = 0.28559 0.28559
#
# Static dielectric constant tensor:
#      x y z
#    x 3.236640 0.000000 0.000000 
#    y 0.000000 3.236640 0.000000 
#    z 0.000000 0.000000 3.706320 
# 
# 
# High freq. dielectric constant tensor:
#      x y z
#    x 1.682000 0.000000 0.000000 
#    y 0.000000 1.682000 0.000000 
#    z 0.000000 0.000000 1.715800 
# 
# From -- ./inp_files/6411.got.cif
#   From: 2010.03.12/outbox.cif.g09.slc.cpg/sg127_4_cif.got.tgz:6411.got - 2010.04.06 17:03:15.
