data_PCOD8314339
_publ_section_title
;
Structure prediction by ZEFSAII (Michael W. Deem and Ramdas Pophale) SiO2 
 PCOD8314339
Probable space group: P 4/M B M
;
_chemical_formula_sum "Si O2"
_cell_formula_units_Z 56
_cell_length_a 11.347657
_cell_length_b 11.347657
_cell_length_c 21.615580
_cell_angle_alpha 90.000000
_cell_angle_beta 90.000000
_cell_angle_gamma 90.000000
_cell_volume 2783.423525
_symmetry_space_group_name_H-M "P 4/M B M"
_symmetry_group_IT_number 127
_symmetry_cell_setting 'tetragonal'
loop_
_space_group_symop_operation_xyz
x,y,z
-y,x,z
-x,-y,z
y,-x,z
1/2+x,1/2-y,-z
1/2-x,1/2+y,-z
1/2+y,1/2+x,-z
1/2-y,1/2-x,-z
-x,-y,-z
y,-x,-z
x,y,-z
-y,x,-z
1/2-x,1/2+y,z
1/2+x,1/2-y,z
1/2-y,1/2-x,z
1/2+y,1/2+x,z
loop_
_atom_site_type_symbol
_atom_site_label
_atom_site_fract_x
_atom_site_fract_y
_atom_site_fract_z
Si Si1 0.095966 0.404035 0.771946
Si Si2 0.807633 0.495100 0.568530
Si Si3 0.694390 0.538052 0.000000
Si Si4 0.100502 0.399499 0.910216
Si Si5 0.022046 0.186824 0.692846
O O1 0.135965 0.364036 0.840098
O O2 0.035314 0.302453 0.732801
O O3 0.000000 0.500000 0.784990
O O4 0.749535 0.492751 0.500000
O O5 0.869098 0.369098 0.582576
O O6 0.709465 0.522957 0.619289
O O7 0.905274 0.594727 0.571456
O O8 0.592062 0.637261 0.000000
O O9 0.778116 0.554133 0.059605
O O10 0.000000 0.500000 0.916931
O O11 0.898092 0.129149 0.710491
#
# Coordination Sequence:
#
# PCOD8314339 Si02
#       5
#     8  16   8   8  16
#     4  11  25  44  66  91 125 172 214 254 306 371
#     4   9  18  34  59  88 117 154 203 259 321 385
#     4  10  22  41  69 101 134 168 203 252 306 359
#     4  10  24  41  66  99 132 168 212 253 301 363
#     4  11  25  41  60  90 125 162 211 267 318 375
#
# _framework density 20.119107
#
# number of rings (size 3 to 8) (size 9 to 14) (size 15 to 20)
#    0.000    1.857    1.429    2.571    8.000    3.429 
#    0.000    7.143    0.000    0.000    0.000    0.000 
#    0.000    0.000    0.000    0.000    0.000    0.000 
#
# Total GULP energy -694293.377513 kJ/mol
# GULP energy per Si atom -12398.096027 kJ/mol
# Density = 2.007331 g / cm^3
# Si number density = 20.119107 Si / 1000 Ang^3
#
#
#
# Elastic Constant Matrix: (Units=GPa)
#
#
# Indices 1 2 3 4 5 6 
#
# 1 94.2951 30.3205 35.8900 0.0000 0.0000 0.0000
# 2 30.3205 94.2951 35.8900 0.0000 0.0000 0.0000
# 3 35.8900 35.8900 137.8175 0.0000 0.0000 0.0000
# 4 0.0000 0.0000 0.0000 -4.5052 0.0000 0.0000
# 5 0.0000 0.0000 0.0000 0.0000 -4.5052 0.0000
# 6 0.0000 0.0000 0.0000 0.0000 0.0000 17.2094
#
#
#
# Elastic Compliance Matrix: (Units=1/GPa)
#
#
# Indices 1 2 3 4 5 6 
#
# 1 0.012536 -0.003095 -0.002459 0.000000 0.000000 0.000000
# 2 -0.003095 0.012536 -0.002459 0.000000 0.000000 0.000000
# 3 -0.002459 -0.002459 0.008536 0.000000 0.000000 0.000000
# 4 0.000000 0.000000 0.000000 -0.221967 0.000000 0.000000
# 5 0.000000 0.000000 0.000000 0.000000 -0.221967 0.000000
# 6 0.000000 0.000000 0.000000 0.000000 0.000000 0.058108
#
#
# Mechanical properties :
#
#
# Convention : Reuss Voigt Hill
#
# Bulk Modulus (GPa) = 56.87011 58.95651 57.91331
# Shear Modulus (GPa) = -15.13629 16.59363 0.72867
#
# Velocity S-wave (km/s) = -2.74585 2.87500 0.60246
# Velocity P-wave (km/s) = 4.27495 6.35517 5.41587
#
# Compressibility (1/GPa) = 0.01758393
#
# Stress axis : x y z
#
# Youngs Moduli (GPa) = 79.77018 79.77018 117.14447
#
# Poissons Ratio (x) = 0.24690 0.28801
# Poissons Ratio (y) = 0.24690 0.28801
# Poissons Ratio (z) = 0.19612 0.19612
#
# Static dielectric constant tensor:
#      x y z
#    x 3.669480 0.000000 0.000000 
#    y 0.000000 3.669480 0.000000 
#    z 0.000000 0.000000 3.946460 
# 
# 
# High freq. dielectric constant tensor:
#      x y z
#    x 1.786020 0.000000 0.000000 
#    y 0.000000 1.786020 0.000000 
#    z 0.000000 0.000000 1.788020 
# 
# From -- ./inp_files/6022.got.cif
#   From: 2010.03.12/outbox.cif.g09.slc.cpg/sg127_4_cif.got.tgz:6022.got - 2010.04.06 17:03:15.
