data_PCOD8314565
_publ_section_title
;
Structure prediction by ZEFSAII (Michael W. Deem and Ramdas Pophale) SiO2 
 PCOD8314565
Probable space group: P 4/M N C
;
_chemical_formula_sum "Si O2"
_cell_formula_units_Z 80
_cell_length_a 12.354201
_cell_length_b 12.354201
_cell_length_c 26.675241
_cell_angle_alpha 90.000000
_cell_angle_beta 90.000000
_cell_angle_gamma 90.000000
_cell_volume 4071.342865
_symmetry_space_group_name_H-M "P 4/M N C"
_symmetry_group_IT_number 128
_symmetry_cell_setting 'tetragonal'
loop_
_space_group_symop_operation_xyz
x,y,z
-y,x,z
-x,-y,z
y,-x,z
1/2+x,1/2-y,1/2-z
1/2-x,1/2+y,1/2-z
1/2+y,1/2+x,1/2-z
1/2-y,1/2-x,1/2-z
-x,-y,-z
y,-x,-z
x,y,-z
-y,x,-z
1/2-x,1/2+y,1/2+z
1/2+x,1/2-y,1/2+z
1/2-y,1/2-x,1/2+z
1/2+y,1/2+x,1/2+z
loop_
_atom_site_type_symbol
_atom_site_label
_atom_site_fract_x
_atom_site_fract_y
_atom_site_fract_z
Si Si1 0.826407 0.999093 0.345464
Si Si2 0.209360 0.500312 0.944004
Si Si3 0.105969 0.706321 0.097834
Si Si4 0.072610 0.605531 0.693641
Si Si5 0.378377 0.764964 0.557639
O O1 0.809005 0.995553 0.405470
O O2 0.892141 0.106171 0.330183
O O3 0.711305 0.000281 0.317534
O O4 0.127436 0.599313 0.934990
O O5 0.140231 0.392260 0.936360
O O6 0.257808 0.507510 0.000000
O O7 0.100547 0.675328 0.156569
O O8 0.203067 0.790434 0.090848
O O9 0.996174 0.762684 0.079420
O O10 0.115367 0.615367 0.750000
O O11 0.000000 0.500000 0.685390
O O12 0.369714 0.727091 0.500000
#
# Coordination Sequence:
#
# PCOD8314565 Si02
#       5
#    16  16  16  16  16
#     4  10  21  38  58  86 122 156 187 236 301 359
#     4  10  19  33  56  85 117 156 202 240 282 343
#     4  11  22  38  58  84 121 155 200 248 300 360
#     4  10  22  42  63  88 111 151 207 257 300 354
#     4  11  22  36  58  88 121 162 200 241 298 361
#
# _framework density 19.649536999999999
#
# number of rings (size 3 to 8) (size 9 to 14) (size 15 to 20)
#    0.000    1.600    0.000    7.200    0.000    4.400 
#    7.200    2.000    0.000    0.000    0.000    0.000 
#    0.000    0.000    0.000    0.000    0.000    0.000 
#
# Total GULP energy -992267.590211 kJ/mol
# GULP energy per Si atom -12403.344878 kJ/mol
# Density = 1.960481 g / cm^3
# Si number density = 19.649537 Si / 1000 Ang^3
#
#
#
# Elastic Constant Matrix: (Units=GPa)
#
#
# Indices 1 2 3 4 5 6 
#
# 1 114.8219 47.7745 44.3028 0.0000 0.0000 0.0000
# 2 47.7745 114.8219 44.3028 0.0000 0.0000 0.0000
# 3 44.3028 44.3028 114.2803 0.0000 0.0000 0.0000
# 4 0.0000 0.0000 0.0000 19.7942 0.0000 0.0000
# 5 0.0000 0.0000 0.0000 0.0000 19.7942 0.0000
# 6 0.0000 0.0000 0.0000 0.0000 0.0000 18.6884
#
#
#
# Elastic Compliance Matrix: (Units=1/GPa)
#
#
# Indices 1 2 3 4 5 6 
#
# 1 0.011356 -0.003559 -0.003023 0.000000 0.000000 0.000000
# 2 -0.003559 0.011356 -0.003023 0.000000 0.000000 0.000000
# 3 -0.003023 -0.003023 0.011094 0.000000 0.000000 0.000000
# 4 0.000000 0.000000 0.000000 0.050520 0.000000 0.000000
# 5 0.000000 0.000000 0.000000 0.000000 0.050520 0.000000
# 6 0.000000 0.000000 0.000000 0.000000 0.000000 0.053509
#
#
# Mechanical properties :
#
#
# Convention : Reuss Voigt Hill
#
# Bulk Modulus (GPa) = 68.50377 68.52050 68.51214
# Shear Modulus (GPa) = 23.53717 25.49161 24.51439
#
# Velocity S-wave (km/s) = 3.46475 3.60573 3.53594
# Velocity P-wave (km/s) = 7.13754 7.23063 7.18424
#
# Compressibility (1/GPa) = 0.01459774
#
# Stress axis : x y z
#
# Youngs Moduli (GPa) = 88.05803 88.05803 90.13779
#
# Poissons Ratio (x) = 0.31337 0.27247
# Poissons Ratio (y) = 0.31337 0.27247
# Poissons Ratio (z) = 0.26618 0.26618
#
# Static dielectric constant tensor:
#      x y z
#    x 3.489550 0.000000 0.000000 
#    y 0.000000 3.489550 0.000000 
#    z 0.000000 0.000000 3.639650 
# 
# 
# High freq. dielectric constant tensor:
#      x y z
#    x 1.764450 0.000000 0.000000 
#    y 0.000000 1.764450 0.000000 
#    z 0.000000 0.000000 1.757140 
# 
# From -- ./inp_files/7169.got.cif
#   From: 2010.03.12/outbox.cif.g09.slc.cpg/sg128_4_cif.got.tgz:7169.got - 2010.04.06 17:11:05.
