data_PCOD8314667
_publ_section_title
;
Structure prediction by ZEFSAII (Michael W. Deem and Ramdas Pophale) SiO2 
 PCOD8314667
Probable space group: P 4/M N C
;
_chemical_formula_sum "Si O2"
_cell_formula_units_Z 80
_cell_length_a 12.434760
_cell_length_b 12.434760
_cell_length_c 26.538524
_cell_angle_alpha 90.000000
_cell_angle_beta 90.000000
_cell_angle_gamma 90.000000
_cell_volume 4103.472997
_symmetry_space_group_name_H-M "P 4/M N C"
_symmetry_group_IT_number 128
_symmetry_cell_setting 'tetragonal'
loop_
_space_group_symop_operation_xyz
x,y,z
-y,x,z
-x,-y,z
y,-x,z
1/2+x,1/2-y,1/2-z
1/2-x,1/2+y,1/2-z
1/2+y,1/2+x,1/2-z
1/2-y,1/2-x,1/2-z
-x,-y,-z
y,-x,-z
x,y,-z
-y,x,-z
1/2-x,1/2+y,1/2+z
1/2+x,1/2-y,1/2+z
1/2-y,1/2-x,1/2+z
1/2+y,1/2+x,1/2+z
loop_
_atom_site_type_symbol
_atom_site_label
_atom_site_fract_x
_atom_site_fract_y
_atom_site_fract_z
Si Si1 0.886731 0.386731 0.750000
Si Si2 0.003785 0.278340 0.608168
Si Si3 0.622179 0.383575 0.440074
Si Si4 0.832783 0.949336 0.291878
Si Si5 0.000000 0.500000 0.661954
Si Si6 0.203274 0.781003 0.441382
O O1 0.910552 0.261638 0.744041
O O2 0.909075 0.457432 0.700091
O O3 0.034696 0.399545 0.626341
O O4 0.108064 0.216688 0.588404
O O5 0.946468 0.207928 0.651049
O O6 0.912976 0.275867 0.564737
O O7 0.650215 0.503684 0.420758
O O8 0.625511 0.383021 0.500000
O O9 0.708814 0.300856 0.418314
O O10 0.928757 0.867319 0.280792
O O11 0.223372 0.804150 0.500000
#
# Coordination Sequence:
#
# PCOD8314667 Si02
#       6
#     8  16  16  16   8  16
#     4   9  20  40  64  93 120 152 182 237 306 364
#     4  11  22  39  57  86 121 160 200 246 296 341
#     4   8  16  33  55  77 104 144 199 256 304 354
#     4  10  20  38  63  91 119 151 194 231 289 364
#     4   9  22  40  61  92 120 148 191 240 304 363
#     4  11  23  37  56  84 117 163 211 254 296 340
#
# _framework density 19.495681999999999
#
# number of rings (size 3 to 8) (size 9 to 14) (size 15 to 20)
#    0.000    2.200    2.000    1.200    2.800    3.600 
#    0.000    2.000    0.000    0.000    0.000    0.000 
#    0.000    0.000    0.000    0.000    0.000    0.000 
#
# Total GULP energy -991508.084678 kJ/mol
# GULP energy per Si atom -12393.851058 kJ/mol
# Density = 1.945131 g / cm^3
# Si number density = 19.495682 Si / 1000 Ang^3
#
#
#
# Elastic Constant Matrix: (Units=GPa)
#
#
# Indices 1 2 3 4 5 6 
#
# 1 126.5118 68.5159 26.4233 0.0000 0.0000 0.0000
# 2 68.5159 126.5118 26.4233 0.0000 0.0000 0.0000
# 3 26.4233 26.4233 45.7958 0.0000 0.0000 0.0000
# 4 0.0000 0.0000 0.0000 22.6399 0.0000 0.0000
# 5 0.0000 0.0000 0.0000 0.0000 22.6399 0.0000
# 6 0.0000 0.0000 0.0000 0.0000 0.0000 28.1989
#
#
#
# Elastic Compliance Matrix: (Units=1/GPa)
#
#
# Indices 1 2 3 4 5 6 
#
# 1 0.011660 -0.005582 -0.003507 0.000000 0.000000 0.000000
# 2 -0.005582 0.011660 -0.003507 0.000000 0.000000 0.000000
# 3 -0.003507 -0.003507 0.025883 0.000000 0.000000 0.000000
# 4 0.000000 0.000000 0.000000 0.044170 0.000000 0.000000
# 5 0.000000 0.000000 0.000000 0.000000 0.044170 0.000000
# 6 0.000000 0.000000 0.000000 0.000000 0.000000 0.035462
#
#
# Mechanical properties :
#
#
# Convention : Reuss Voigt Hill
#
# Bulk Modulus (GPa) = 41.64724 60.17162 50.90943
# Shear Modulus (GPa) = 24.24823 26.52618 25.38721
#
# Velocity S-wave (km/s) = 3.53054 3.69266 3.61251
# Velocity P-wave (km/s) = 6.16671 7.00800 6.60077
#
# Compressibility (1/GPa) = 0.02401120
#
# Stress axis : x y z
#
# Youngs Moduli (GPa) = 85.76229 85.76229 38.63590
#
# Poissons Ratio (x) = 0.47876 0.13548
# Poissons Ratio (y) = 0.47876 0.13548
# Poissons Ratio (z) = 0.30074 0.30074
#
# Static dielectric constant tensor:
#      x y z
#    x 3.649660 0.000000 0.000000 
#    y 0.000000 3.649660 0.000000 
#    z 0.000000 0.000000 3.326180 
# 
# 
# High freq. dielectric constant tensor:
#      x y z
#    x 1.765430 0.000000 0.000000 
#    y 0.000000 1.765430 0.000000 
#    z 0.000000 0.000000 1.735480 
# 
# From -- ./inp_files/7199.got.cif
#   From: 2010.03.12/outbox.cif.g09.slc.cpg/sg128_4_cif.got.tgz:7199.got - 2010.04.06 17:11:05.
