data_PCOD8314891
_publ_section_title
;
Structure prediction by ZEFSAII (Michael W. Deem and Ramdas Pophale) SiO2 
 PCOD8314891
Probable space group: P 4/N M M
;
_chemical_formula_sum "Si O2"
_cell_formula_units_Z 80
_cell_length_a 19.283136
_cell_length_b 19.283136
_cell_length_c 15.440310
_cell_angle_alpha 90.000000
_cell_angle_beta 90.000000
_cell_angle_gamma 90.000000
_cell_volume 5741.314587
_symmetry_space_group_name_H-M "P 4/N M M"
_symmetry_group_IT_number 129
_symmetry_cell_setting 'tetragonal'
loop_
_space_group_symop_operation_xyz
x,y,z
1/2-y,x,z
1/2-x,1/2-y,z
y,1/2-x,z
1/2+x,-y,-z
-x,1/2+y,-z
1/2+y,1/2+x,-z
-y,-x,-z
-x,-y,-z
1/2+y,-x,-z
1/2+x,1/2+y,-z
-y,1/2+x,-z
1/2-x,y,z
x,1/2-y,z
1/2-y,1/2-x,z
y,x,z
loop_
_atom_site_type_symbol
_atom_site_label
_atom_site_fract_x
_atom_site_fract_y
_atom_site_fract_z
Si Si1 0.830214 0.086838 0.256610
Si Si2 0.667562 0.327556 0.095074
Si Si3 0.505838 0.611515 0.509369
Si Si4 0.442834 0.169845 0.671594
Si Si5 0.113434 0.827313 0.587510
O O1 0.750000 0.106419 0.267009
O O2 0.860459 0.118899 0.167492
O O3 0.869284 0.119477 0.337402
O O4 0.840696 0.003606 0.257026
O O5 0.750000 0.324298 0.096008
O O6 0.638031 0.250000 0.113556
O O7 0.644694 0.355307 0.000000
O O8 0.446756 0.553245 0.500000
O O9 0.574885 0.574885 0.549033
O O10 0.525520 0.647267 0.419669
O O11 0.470390 0.668641 0.571255
O O12 0.418993 0.250000 0.667554
O O13 0.376818 0.123183 0.697878
O O14 0.155307 0.844694 0.500000
O O15 0.132804 0.750000 0.617249
#
# Coordination Sequence:
#
# PCOD8314891 Si02
#       5
#    16  16  16  16  16
#     4  10  18  27  39  57  80 108 139 167 201 248
#     4   8  14  25  40  57  78 105 138 172 199 227
#     4   9  16  27  41  54  73 104 139 167 192 229
#     4  10  19  31  45  60  79 105 139 176 210 246
#     4  11  19  25  35  55  84 110 133 162 199 238
#
# _framework density 13.934091
#
# number of rings (size 3 to 8) (size 9 to 14) (size 15 to 20)
#    0.000    2.400    4.000    2.400    0.000    2.400 
#    0.000    0.000    0.000    0.600    0.000    0.000 
#    0.000    0.000    0.000    0.000    0.000    0.800 
#
# Total GULP energy -991131.572207 kJ/mol
# GULP energy per Si atom -12389.144653 kJ/mol
# Density = 1.390238 g / cm^3
# Si number density = 13.934091 Si / 1000 Ang^3
#
#
#
# Elastic Constant Matrix: (Units=GPa)
#
#
# Indices 1 2 3 4 5 6 
#
# 1 76.5195 28.3543 30.2221 0.0000 0.0000 0.0000
# 2 28.3543 76.5214 30.2217 0.0000 0.0000 0.0000
# 3 30.2221 30.2217 77.8005 0.0000 0.0000 0.0000
# 4 0.0000 0.0000 0.0000 2.0093 0.0000 0.0000
# 5 0.0000 0.0000 0.0000 0.0000 2.0240 0.0000
# 6 0.0000 0.0000 0.0000 0.0000 0.0000 19.0885
#
#
#
# Elastic Compliance Matrix: (Units=1/GPa)
#
#
# Indices 1 2 3 4 5 6 
#
# 1 0.016524 -0.004238 -0.004773 0.000000 0.000000 0.000000
# 2 -0.004238 0.016523 -0.004772 0.000000 0.000000 0.000000
# 3 -0.004773 -0.004772 0.016561 0.000000 0.000000 0.000000
# 4 0.000000 0.000000 0.000000 0.497681 0.000000 0.000000
# 5 0.000000 0.000000 0.000000 0.000000 0.494063 0.000000
# 6 0.000000 0.000000 0.000000 0.000000 0.000000 0.052387
#
#
# Mechanical properties :
#
#
# Convention : Reuss Voigt Hill
#
# Bulk Modulus (GPa) = 45.36618 45.38195 45.37406
# Shear Modulus (GPa) = 4.43006 14.09393 9.26199
#
# Velocity S-wave (km/s) = 1.78499 3.18381 2.58098
# Velocity P-wave (km/s) = 6.07261 6.79377 6.44329
#
# Compressibility (1/GPa) = 0.02204285
#
# Stress axis : x y z
#
# Youngs Moduli (GPa) = 60.51844 60.52047 60.38238
#
# Poissons Ratio (x) = 0.25648 0.28818
# Poissons Ratio (y) = 0.25647 0.28816
# Poissons Ratio (z) = 0.28883 0.28882
#
# Static dielectric constant tensor:
#      x y z
#    x 2.886620 0.000000 0.000000 
#    y 0.000000 2.886620 0.000000 
#    z 0.000000 0.000000 2.803780 
# 
# 
# High freq. dielectric constant tensor:
#      x y z
#    x 1.517470 0.000000 0.000000 
#    y 0.000000 1.517470 0.000000 
#    z 0.000000 0.000000 1.506420 
# 
# From -- ./inp_files/4857.got.cif
#   From: 2010.03.12/outbox.cif.g09.slc.cpg/sg129_3_cif.got.tgz:4857.got - 2010.04.06 17:19:44.
