data_PCOD8314078
_publ_section_title
;
Structure prediction by ZEFSAII (Michael W. Deem and Ramdas Pophale) SiO2 
 PCOD8314078
Probable space group: P 4/M B M
;
_chemical_formula_sum "Si O2"
_cell_formula_units_Z 72
_cell_length_a 15.401060
_cell_length_b 15.401060
_cell_length_c 18.093378
_cell_angle_alpha 90.000000
_cell_angle_beta 90.000000
_cell_angle_gamma 90.000000
_cell_volume 4291.616259
_symmetry_space_group_name_H-M "P 4/M B M"
_symmetry_group_IT_number 127
_symmetry_cell_setting 'tetragonal'
loop_
_space_group_symop_operation_xyz
x,y,z
-y,x,z
-x,-y,z
y,-x,z
1/2+x,1/2-y,-z
1/2-x,1/2+y,-z
1/2+y,1/2+x,-z
1/2-y,1/2-x,-z
-x,-y,-z
y,-x,-z
x,y,-z
-y,x,-z
1/2-x,1/2+y,z
1/2+x,1/2-y,z
1/2-y,1/2-x,z
1/2+y,1/2+x,z
loop_
_atom_site_type_symbol
_atom_site_label
_atom_site_fract_x
_atom_site_fract_y
_atom_site_fract_z
Si Si1 0.901693 0.598308 0.583995
Si Si2 0.603410 0.896591 0.415816
Si Si3 0.184051 0.684051 0.721845
Si Si4 0.569959 0.930042 0.080520
Si Si5 0.711554 0.991181 0.192486
Si Si6 0.504734 0.357810 0.079781
Si Si7 0.668850 0.168850 0.274760
O O1 0.877780 0.622221 0.500000
O O2 0.880001 0.497893 0.599982
O O3 0.843092 0.656909 0.637422
O O4 0.627146 0.872855 0.500000
O O5 0.663759 0.836242 0.364142
O O6 0.216997 0.594352 0.757224
O O7 0.257466 0.757466 0.735006
O O8 0.643305 0.976778 0.127718
O O9 0.500000 0.000000 0.060731
O O10 0.604993 0.895008 0.000000
O O11 0.800958 0.008362 0.152263
O O12 0.693887 0.076457 0.240336
O O13 0.588448 0.417210 0.083542
O O14 0.506445 0.307656 0.000000
#
# Coordination Sequence:
#
# PCOD8314078 Si02
#       7
#     8   8   8   8  16  16   8
#     4   9  18  34  60  83 107 138 171 211 265 313
#     4   9  17  34  58  83 108 138 171 214 263 310
#     4  11  23  33  54  82 106 144 173 210 268 320
#     4  10  20  33  50  72  96 136 172 206 272 328
#     4  11  21  35  51  75 113 133 170 226 267 310
#     4   9  18  34  54  72  97 140 186 223 257 297
#     4  12  22  34  55  81 107 142 177 204 270 322
#
# _framework density 16.776895
#
# number of rings (size 3 to 8) (size 9 to 14) (size 15 to 20)
#    0.000    1.889    3.333    3.333    0.000    0.444 
#    0.000    0.000    0.000    5.333    0.000    0.000 
#    0.000    3.556    0.000    0.000    0.000    0.000 
#
# Total GULP energy -892179.535464 kJ/mol
# GULP energy per Si atom -12391.382437 kJ/mol
# Density = 1.673871 g / cm^3
# Si number density = 16.776895 Si / 1000 Ang^3
#
#
#
# Elastic Constant Matrix: (Units=GPa)
#
#
# Indices 1 2 3 4 5 6 
#
# 1 83.0998 41.7123 53.5746 0.0000 0.0000 0.0000
# 2 41.7123 83.0999 53.5746 0.0000 0.0000 0.0000
# 3 53.5746 53.5746 134.4914 0.0000 0.0000 0.0000
# 4 0.0000 0.0000 0.0000 25.0650 0.0000 0.0000
# 5 0.0000 0.0000 0.0000 0.0000 25.0650 0.0000
# 6 0.0000 0.0000 0.0000 0.0000 0.0000 26.9111
#
#
#
# Elastic Compliance Matrix: (Units=1/GPa)
#
#
# Indices 1 2 3 4 5 6 
#
# 1 0.018169 -0.005993 -0.004850 0.000000 0.000000 0.000000
# 2 -0.005993 0.018169 -0.004850 0.000000 0.000000 0.000000
# 3 -0.004850 -0.004850 0.011300 0.000000 0.000000 0.000000
# 4 0.000000 0.000000 0.000000 0.039896 0.000000 0.000000
# 5 0.000000 0.000000 0.000000 0.000000 0.039896 0.000000
# 6 0.000000 0.000000 0.000000 0.000000 0.000000 0.037159
#
#
# Mechanical properties :
#
#
# Convention : Reuss Voigt Hill
#
# Bulk Modulus (GPa) = 61.53705 66.49047 64.01376
# Shear Modulus (GPa) = 24.82706 25.53020 25.17863
#
# Velocity S-wave (km/s) = 3.85104 3.90519 3.87821
# Velocity P-wave (km/s) = 7.51886 7.74934 7.63497
#
# Compressibility (1/GPa) = 0.01625037
#
# Stress axis : x y z
#
# Youngs Moduli (GPa) = 55.03909 55.03914 88.49850
#
# Poissons Ratio (x) = 0.32985 0.42924
# Poissons Ratio (y) = 0.32985 0.42924
# Poissons Ratio (z) = 0.26695 0.26695
#
# Static dielectric constant tensor:
#      x y z
#    x 3.037560 0.000000 0.000000 
#    y 0.000000 3.037550 0.000000 
#    z 0.000000 0.000000 3.299330 
# 
# 
# High freq. dielectric constant tensor:
#      x y z
#    x 1.636280 0.000000 0.000000 
#    y 0.000000 1.636280 0.000000 
#    z 0.000000 0.000000 1.663350 
# 
# From -- ./inp_files/5016.got.cif
#   From: 2010.03.12/outbox.cif.g09.slc.cpg/sg127_3_cif.got.tgz:5016.got - 2010.04.06 17:03:15.
