data_PCOD8314615
_publ_section_title
;
Structure prediction by ZEFSAII (Michael W. Deem and Ramdas Pophale) SiO2 
 PCOD8314615
Probable space group: P 4/M N C
;
_chemical_formula_sum "Si O2"
_cell_formula_units_Z 88
_cell_length_a 12.463644
_cell_length_b 12.463644
_cell_length_c 26.740113
_cell_angle_alpha 90.000000
_cell_angle_beta 90.000000
_cell_angle_gamma 90.000000
_cell_volume 4153.873912
_symmetry_space_group_name_H-M "P 4/M N C"
_symmetry_group_IT_number 128
_symmetry_cell_setting 'tetragonal'
loop_
_space_group_symop_operation_xyz
x,y,z
-y,x,z
-x,-y,z
y,-x,z
1/2+x,1/2-y,1/2-z
1/2-x,1/2+y,1/2-z
1/2+y,1/2+x,1/2-z
1/2-y,1/2-x,1/2-z
-x,-y,-z
y,-x,-z
x,y,-z
-y,x,-z
1/2-x,1/2+y,1/2+z
1/2+x,1/2-y,1/2+z
1/2-y,1/2-x,1/2+z
1/2+y,1/2+x,1/2+z
loop_
_atom_site_type_symbol
_atom_site_label
_atom_site_fract_x
_atom_site_fract_y
_atom_site_fract_z
Si Si1 0.314898 0.293894 0.607061
Si Si2 0.797129 0.584193 0.138172
Si Si3 0.387475 0.360453 0.500000
Si Si4 0.324104 0.505424 0.055625
Si Si5 0.277312 0.980937 0.842126
Si Si6 0.676181 0.521929 0.763038
O O1 0.198055 0.244383 0.619960
O O2 0.338866 0.298722 0.547915
O O3 0.318548 0.415534 0.629541
O O4 0.399798 0.219182 0.636103
O O5 0.775985 0.497773 0.093998
O O6 0.923799 0.607120 0.147261
O O7 0.744429 0.535659 0.187269
O O8 0.515968 0.350501 0.500000
O O9 0.392957 0.398427 0.064971
O O10 0.275912 0.507372 0.000000
O O11 0.257373 0.974811 0.783123
O O12 0.592088 0.618359 0.761357
#
# Coordination Sequence:
#
# PCOD8314615 Si02
#       6
#    16  16   8  16  16  16
#     4  10  21  33  50  76 112 143 176 213 262 320
#     4  10  21  31  51  79 110 134 174 220 263 322
#     4  11  18  28  50  76 102 135 176 218 260 311
#     4   9  18  35  58  80 102 128 167 225 280 313
#     4  10  20  34  50  75 110 144 171 211 268 316
#     4  11  20  33  57  80 103 134 176 230 278 317
#
# _framework density 21.185044000000001
#
# number of rings (size 3 to 8) (size 9 to 14) (size 15 to 20)
#    1.091    0.818    3.636    2.182    1.273    1.818 
#    1.636    0.000    0.000    4.364    0.000    7.636 
#    0.000    0.000    0.000    0.000    0.000    0.000 
#
# Total GULP energy -1090445.167862 kJ/mol
# GULP energy per Si atom -12391.422362 kJ/mol
# Density = 2.113683 g / cm^3
# Si number density = 21.185044 Si / 1000 Ang^3
#
#
#
# Elastic Constant Matrix: (Units=GPa)
#
#
# Indices 1 2 3 4 5 6 
#
# 1 10.7860 4.2978 17.0567 0.0000 0.0000 0.0000
# 2 4.2978 10.7860 17.0567 0.0000 0.0000 0.0000
# 3 17.0567 17.0567 165.1665 0.0000 0.0000 0.0000
# 4 0.0000 0.0000 0.0000 11.4762 0.0000 0.0000
# 5 0.0000 0.0000 0.0000 0.0000 11.4762 0.0000
# 6 0.0000 0.0000 0.0000 0.0000 0.0000 29.1372
#
#
#
# Elastic Compliance Matrix: (Units=1/GPa)
#
#
# Indices 1 2 3 4 5 6 
#
# 1 0.120312 -0.033814 -0.008933 0.000000 0.000000 0.000000
# 2 -0.033814 0.120312 -0.008933 0.000000 0.000000 0.000000
# 3 -0.008933 -0.008933 0.007899 0.000000 0.000000 0.000000
# 4 0.000000 0.000000 0.000000 0.087137 0.000000 0.000000
# 5 0.000000 0.000000 0.000000 0.000000 0.087137 0.000000
# 6 0.000000 0.000000 0.000000 0.000000 0.000000 0.034320
#
#
# Mechanical properties :
#
#
# Convention : Reuss Voigt Hill
#
# Bulk Modulus (GPa) = 6.88871 29.28457 18.08664
# Shear Modulus (GPa) = 8.21199 20.30639 14.25919
#
# Velocity S-wave (km/s) = 1.97097 3.09936 2.59719
# Velocity P-wave (km/s) = 2.90489 5.16346 4.18925
#
# Compressibility (1/GPa) = 0.14516499
#
# Stress axis : x y z
#
# Youngs Moduli (GPa) = 8.31170 8.31170 126.59111
#
# Poissons Ratio (x) = 0.28105 1.13080
# Poissons Ratio (y) = 0.28105 1.13080
# Poissons Ratio (z) = 0.07425 0.07425
#
# Static dielectric constant tensor:
#      x y z
#    x 3.520520 0.000000 0.000000 
#    y 0.000000 3.520520 0.000000 
#    z 0.000000 0.000000 3.866770 
# 
# 
# High freq. dielectric constant tensor:
#      x y z
#    x 1.808140 0.000000 0.000000 
#    y 0.000000 1.808140 0.000000 
#    z 0.000000 0.000000 1.847350 
# 
# From -- ./inp_files/6354.got.cif
#   From: 2010.03.12/outbox.cif.g09.slc.cpg/sg128_4_cif.got.tgz:6354.got - 2010.04.06 17:11:05.
