data_PCOD8314629
_publ_section_title
;
Structure prediction by ZEFSAII (Michael W. Deem and Ramdas Pophale) SiO2 
 PCOD8314629
Probable space group: P 4/M N C
;
_chemical_formula_sum "Si O2"
_cell_formula_units_Z 88
_cell_length_a 16.594330
_cell_length_b 16.594330
_cell_length_c 15.880973
_cell_angle_alpha 90.000000
_cell_angle_beta 90.000000
_cell_angle_gamma 90.000000
_cell_volume 4373.171933
_symmetry_space_group_name_H-M "P 4/M N C"
_symmetry_group_IT_number 128
_symmetry_cell_setting 'tetragonal'
loop_
_space_group_symop_operation_xyz
x,y,z
-y,x,z
-x,-y,z
y,-x,z
1/2+x,1/2-y,1/2-z
1/2-x,1/2+y,1/2-z
1/2+y,1/2+x,1/2-z
1/2-y,1/2-x,1/2-z
-x,-y,-z
y,-x,-z
x,y,-z
-y,x,-z
1/2-x,1/2+y,1/2+z
1/2+x,1/2-y,1/2+z
1/2-y,1/2-x,1/2+z
1/2+y,1/2+x,1/2+z
loop_
_atom_site_type_symbol
_atom_site_label
_atom_site_fract_x
_atom_site_fract_y
_atom_site_fract_z
Si Si1 0.398101 0.584712 0.000000
Si Si2 0.812801 0.894292 0.331194
Si Si3 0.112541 0.642322 0.402887
Si Si4 0.797652 0.517987 0.405610
Si Si5 0.107957 0.442394 0.835637
Si Si6 0.063128 0.218544 0.739218
O O1 0.387133 0.489464 0.000000
O O2 0.356277 0.622358 0.080900
O O3 0.718251 0.872361 0.341277
O O4 0.856718 0.835996 0.264589
O O5 0.825636 0.986232 0.301965
O O6 0.111178 0.670906 0.500000
O O7 0.180775 0.575555 0.386629
O O8 0.027772 0.600831 0.381032
O O9 0.762411 0.526501 0.500000
O O10 0.876298 0.574278 0.399994
O O11 0.731774 0.545586 0.338083
O O12 0.055538 0.444463 0.750000
O O13 0.199185 0.419957 0.810563
#
# Coordination Sequence:
#
# PCOD8314629 Si02
#       6
#     8  16  16  16  16  16
#     4  11  20  34  62  94 125 159 195 245 325 401
#     4  11  21  38  61  93 127 155 198 257 322 381
#     4  10  20  34  61  92 121 154 198 256 312 377
#     4  10  21  41  58  83 121 166 212 249 299 364
#     4   9  19  35  58  88 121 160 200 247 308 374
#     4  10  23  39  59  88 123 163 208 260 311 371
#
# _framework density 20.122693999999999
#
# number of rings (size 3 to 8) (size 9 to 14) (size 15 to 20)
#    0.000    1.909    2.727    1.091    0.000   10.545 
#   11.455    0.909    0.000    0.000    0.000    1.273 
#    0.000    0.000    0.000    0.000    0.000    0.000 
#
# Total GULP energy -1091370.535692 kJ/mol
# GULP energy per Si atom -12401.937906 kJ/mol
# Density = 2.007689 g / cm^3
# Si number density = 20.122694 Si / 1000 Ang^3
#
#
#
# Elastic Constant Matrix: (Units=GPa)
#
#
# Indices 1 2 3 4 5 6 
#
# 1 65.9237 59.2178 44.2269 0.0000 0.0000 0.0000
# 2 59.2178 65.9232 44.2269 0.0000 0.0000 0.0000
# 3 44.2269 44.2269 111.7683 0.0000 0.0000 0.0000
# 4 0.0000 0.0000 0.0000 31.4985 0.0000 0.0000
# 5 0.0000 0.0000 0.0000 0.0000 31.4984 0.0000
# 6 0.0000 0.0000 0.0000 0.0000 0.0000 33.1870
#
#
#
# Elastic Compliance Matrix: (Units=1/GPa)
#
#
# Indices 1 2 3 4 5 6 
#
# 1 0.080111 -0.069018 -0.004390 0.000000 0.000000 0.000000
# 2 -0.069018 0.080112 -0.004390 0.000000 0.000000 0.000000
# 3 -0.004390 -0.004390 0.012421 0.000000 0.000000 0.000000
# 4 0.000000 0.000000 0.000000 0.031748 0.000000 0.000000
# 5 0.000000 0.000000 0.000000 0.000000 0.031748 0.000000
# 6 0.000000 0.000000 0.000000 0.000000 0.000000 0.030132
#
#
# Mechanical properties :
#
#
# Convention : Reuss Voigt Hill
#
# Bulk Modulus (GPa) = 58.65270 59.88427 59.26849
# Shear Modulus (GPa) = 11.69455 25.63303 18.66379
#
# Velocity S-wave (km/s) = 2.41335 3.57296 3.04879
# Velocity P-wave (km/s) = 6.08083 6.84438 6.47387
#
# Compressibility (1/GPa) = 0.01704951
#
# Stress axis : x y z
#
# Youngs Moduli (GPa) = 12.48267 12.48253 80.50735
#
# Poissons Ratio (x) = 0.86151 0.35340
# Poissons Ratio (y) = 0.86152 0.35343
# Poissons Ratio (z) = 0.05479 0.05480
#
# Static dielectric constant tensor:
#      x y z
#    x 3.507070 0.000000 0.000000 
#    y 0.000000 3.507070 0.000000 
#    z 0.000000 0.000000 3.647840 
# 
# 
# High freq. dielectric constant tensor:
#      x y z
#    x 1.772010 0.000000 0.000000 
#    y 0.000000 1.772010 0.000000 
#    z 0.000000 0.000000 1.788270 
# 
# From -- ./inp_files/3836.got.cif
#   From: 2010.03.12/outbox.cif.g09.slc.cpg/sg128_2_cif.got.tgz:3836.got - 2010.04.06 17:11:05.
