data_PCOD8314873
_publ_section_title
;
Structure prediction by ZEFSAII (Michael W. Deem and Ramdas Pophale) SiO2 
 PCOD8314873
Probable space group: P 4/N M M
;
_chemical_formula_sum "Si O2"
_cell_formula_units_Z 128
_cell_length_a 21.303564
_cell_length_b 21.303564
_cell_length_c 17.616555
_cell_angle_alpha 90.000000
_cell_angle_beta 90.000000
_cell_angle_gamma 90.000000
_cell_volume 7995.129720
_symmetry_space_group_name_H-M "P 4/N M M"
_symmetry_group_IT_number 129
_symmetry_cell_setting 'tetragonal'
loop_
_space_group_symop_operation_xyz
x,y,z
1/2-y,x,z
1/2-x,1/2-y,z
y,1/2-x,z
1/2+x,-y,-z
-x,1/2+y,-z
1/2+y,1/2+x,-z
-y,-x,-z
-x,-y,-z
1/2+y,-x,-z
1/2+x,1/2+y,-z
-y,1/2+x,-z
1/2-x,y,z
x,1/2-y,z
1/2-y,1/2-x,z
y,x,z
loop_
_atom_site_type_symbol
_atom_site_label
_atom_site_fract_x
_atom_site_fract_y
_atom_site_fract_z
Si Si1 0.483333 0.914470 0.634262
Si Si2 0.386117 0.677103 0.568563
Si Si3 0.924931 0.093674 0.207876
Si Si4 0.965221 0.818592 0.843309
Si Si5 0.318748 0.413948 0.315626
Si Si6 0.321932 0.078854 0.992009
Si Si7 0.482344 0.587101 0.061860
Si Si8 0.678785 0.321441 0.270810
O O1 0.439037 0.878988 0.572517
O O2 0.444884 0.934742 0.709970
O O3 0.528344 0.858260 0.655620
O O4 0.524330 0.975671 0.604821
O O5 0.339746 0.660255 0.500000
O O6 0.411518 0.750000 0.559080
O O7 0.345151 0.673234 0.643765
O O8 0.908535 0.039262 0.149003
O O9 0.864210 0.137534 0.215515
O O10 0.981866 0.130259 0.169447
O O11 0.997900 0.750000 0.848434
O O12 0.915202 0.818555 0.775342
O O13 0.925882 0.832971 0.918078
O O14 0.250000 0.419289 0.351523
O O15 0.348509 0.348509 0.343025
O O16 0.250000 0.089183 0.969014
O O17 0.361372 0.138628 0.962020
O O18 0.345774 0.013781 0.955418
O O19 0.533973 0.533973 0.052824
O O20 0.427153 0.572848 0.000000
O O21 0.750000 0.346587 0.266805
O O22 0.674921 0.250000 0.242388
#
# Coordination Sequence:
#
# PCOD8314873 Si02
#       8
#    16  16  16  16  16  16  16  16
#     4   9  18  30  45  66  91 119 150 183 224 272
#     4  10  19  31  49  71  94 121 153 187 222 263
#     4  10  17  28  47  66  86 117 151 187 224 272
#     4   9  16  26  40  59  82 109 144 184 223 265
#     4   9  16  25  38  56  81 113 148 185 221 259
#     4  10  20  32  45  62  84 110 143 183 228 275
#     4  10  19  30  45  65  87 111 143 187 232 269
#     4   9  18  31  46  66  92 121 152 184 221 265
#
# _framework density 16.009747000000001
#
# number of rings (size 3 to 8) (size 9 to 14) (size 15 to 20)
#    0.000    2.500    1.250    1.875    0.000    5.625 
#    0.000    0.000    0.000    2.250    0.000    0.875 
#    0.000    0.000    0.000    0.000    0.000    0.250 
#
# Total GULP energy -1586001.631413 kJ/mol
# GULP energy per Si atom -12390.637745 kJ/mol
# Density = 1.597331 g / cm^3
# Si number density = 16.009747 Si / 1000 Ang^3
#
#
#
# Elastic Constant Matrix: (Units=GPa)
#
#
# Indices 1 2 3 4 5 6 
#
# 1 70.3483 34.8849 12.0976 0.0000 0.0000 0.0000
# 2 34.8849 70.3476 12.0976 0.0000 0.0000 0.0000
# 3 12.0976 12.0976 35.0639 0.0000 0.0000 0.0000
# 4 0.0000 0.0000 0.0000 17.6083 0.0000 0.0000
# 5 0.0000 0.0000 0.0000 0.0000 17.6080 0.0000
# 6 0.0000 0.0000 0.0000 0.0000 0.0000 19.5759
#
#
#
# Elastic Compliance Matrix: (Units=1/GPa)
#
#
# Indices 1 2 3 4 5 6 
#
# 1 0.019260 -0.008938 -0.003561 0.000000 0.000000 0.000000
# 2 -0.008938 0.019260 -0.003561 0.000000 0.000000 0.000000
# 3 -0.003561 -0.003561 0.030977 0.000000 0.000000 0.000000
# 4 0.000000 0.000000 0.000000 0.056791 0.000000 0.000000
# 5 0.000000 0.000000 0.000000 0.000000 0.056792 0.000000
# 6 0.000000 0.000000 0.000000 0.000000 0.000000 0.051083
#
#
# Mechanical properties :
#
#
# Convention : Reuss Voigt Hill
#
# Bulk Modulus (GPa) = 26.75562 32.65776 29.70669
# Shear Modulus (GPa) = 17.93766 18.73709 18.33738
#
# Velocity S-wave (km/s) = 3.35090 3.42476 3.38803
# Velocity P-wave (km/s) = 5.63203 6.00679 5.82243
#
# Compressibility (1/GPa) = 0.03737532
#
# Stress axis : x y z
#
# Youngs Moduli (GPa) = 51.92154 51.92103 32.28241
#
# Poissons Ratio (x) = 0.46409 0.11496
# Poissons Ratio (y) = 0.46410 0.11496
# Poissons Ratio (z) = 0.18490 0.18490
#
# Static dielectric constant tensor:
#      x y z
#    x 3.094270 0.000000 0.000000 
#    y 0.000000 3.094270 0.000000 
#    z 0.000000 0.000000 2.819310 
# 
# 
# High freq. dielectric constant tensor:
#      x y z
#    x 1.610430 0.000000 0.000000 
#    y 0.000000 1.610430 0.000000 
#    z 0.000000 0.000000 1.586410 
# 
# From -- ./inp_files/6086.got.cif
#   From: 2010.03.12/outbox.cif.g09.slc.cpg/sg129_4_cif.got.tgz:6086.got - 2010.04.06 17:19:44.
