data_PCOD8314095
_publ_section_title
;
Structure prediction by ZEFSAII (Michael W. Deem and Ramdas Pophale) SiO2 
 PCOD8314095
Probable space group: P 4/M B M
;
_chemical_formula_sum "Si O2"
_cell_formula_units_Z 72
_cell_length_a 20.562754
_cell_length_b 20.562754
_cell_length_c 10.329763
_cell_angle_alpha 90.000000
_cell_angle_beta 90.000000
_cell_angle_gamma 90.000000
_cell_volume 4367.701172
_symmetry_space_group_name_H-M "P 4/M B M"
_symmetry_group_IT_number 127
_symmetry_cell_setting 'tetragonal'
loop_
_space_group_symop_operation_xyz
x,y,z
-y,x,z
-x,-y,z
y,-x,z
1/2+x,1/2-y,-z
1/2-x,1/2+y,-z
1/2+y,1/2+x,-z
1/2-y,1/2-x,-z
-x,-y,-z
y,-x,-z
x,y,-z
-y,x,-z
1/2-x,1/2+y,z
1/2+x,1/2-y,z
1/2-y,1/2-x,z
1/2+y,1/2+x,z
loop_
_atom_site_type_symbol
_atom_site_label
_atom_site_fract_x
_atom_site_fract_y
_atom_site_fract_z
Si Si1 0.053792 0.446209 0.853363
Si Si2 0.778881 0.610035 0.000000
Si Si3 0.606883 0.216512 0.500000
Si Si4 0.180017 0.788486 0.500000
Si Si5 0.878102 0.268635 0.252286
Si Si6 0.284858 0.676468 0.000000
Si Si7 0.309672 0.973474 0.754926
O O1 0.024823 0.386896 0.772868
O O2 0.000000 0.500000 0.865182
O O3 0.075196 0.424805 0.000000
O O4 0.708828 0.644457 0.000000
O O5 0.778811 0.565147 0.874046
O O6 0.837811 0.662190 0.000000
O O7 0.660433 0.160433 0.500000
O O8 0.639963 0.287920 0.500000
O O9 0.562427 0.210542 0.374961
O O10 0.238006 0.738006 0.500000
O O11 0.136017 0.777689 0.373966
O O12 0.833258 0.333258 0.253458
O O13 0.867251 0.224798 0.126245
O O14 0.952819 0.287517 0.253274
O O15 0.233178 0.733178 0.000000
#
# Coordination Sequence:
#
# PCOD8314095 Si02
#       7
#     8   8   8   8  16   8  16
#     4  11  22  35  49  73 111 157 185 205 241 294
#     4  11  19  34  52  74 105 134 178 221 260 297
#     4  11  21  34  54  74 103 132 176 219 268 301
#     4   9  19  36  52  69  96 137 169 215 270 311
#     4  10  20  34  50  73 103 138 172 207 256 302
#     4   9  19  32  52  73  96 133 173 219 264 303
#     4  12  20  34  51  78 105 139 180 214 248 306
#
# _framework density 16.484643999999999
#
# number of rings (size 3 to 8) (size 9 to 14) (size 15 to 20)
#    0.000    1.444    3.333    3.333    0.000    3.556 
#    0.000    2.222    0.000    0.000    0.000    0.000 
#    0.000   62.222    0.000    0.000    0.000    0.000 
#
# Total GULP energy -892803.939984 kJ/mol
# GULP energy per Si atom -12400.054722 kJ/mol
# Density = 1.644712 g / cm^3
# Si number density = 16.484644 Si / 1000 Ang^3
#
#
#
# Elastic Constant Matrix: (Units=GPa)
#
#
# Indices 1 2 3 4 5 6 
#
# 1 113.7243 56.1867 65.7319 0.0000 0.0000 0.0000
# 2 56.1867 113.7233 65.7312 0.0000 0.0000 0.0000
# 3 65.7319 65.7312 172.4832 0.0000 0.0000 0.0000
# 4 0.0000 0.0000 0.0000 -2.3240 0.0000 0.0000
# 5 0.0000 0.0000 0.0000 0.0000 -2.3205 0.0000
# 6 0.0000 0.0000 0.0000 0.0000 0.0000 27.7702
#
#
#
# Elastic Compliance Matrix: (Units=1/GPa)
#
#
# Indices 1 2 3 4 5 6 
#
# 1 0.012863 -0.004517 -0.003181 0.000000 0.000000 0.000000
# 2 -0.004517 0.012863 -0.003181 0.000000 0.000000 0.000000
# 3 -0.003181 -0.003181 0.008222 0.000000 0.000000 0.000000
# 4 0.000000 0.000000 0.000000 -0.430301 0.000000 0.000000
# 5 0.000000 0.000000 0.000000 0.000000 -0.430943 0.000000
# 6 0.000000 0.000000 0.000000 0.000000 0.000000 0.036010
#
#
# Mechanical properties :
#
#
# Convention : Reuss Voigt Hill
#
# Bulk Modulus (GPa) = 82.02173 86.13671 84.07922
# Shear Modulus (GPa) = -6.53198 18.77722 6.12262
#
# Velocity S-wave (km/s) = -1.99275 3.37868 1.92930
# Velocity P-wave (km/s) = 6.67606 8.22112 7.48854
#
# Compressibility (1/GPa) = 0.01219189
#
# Stress axis : x y z
#
# Youngs Moduli (GPa) = 77.74094 77.74046 121.62539
#
# Poissons Ratio (x) = 0.35114 0.38686
# Poissons Ratio (y) = 0.35114 0.38686
# Poissons Ratio (z) = 0.24728 0.24727
#
# Static dielectric constant tensor:
#      x y z
#    x 3.078340 0.000000 0.000000 
#    y 0.000000 3.078330 0.000000 
#    z 0.000000 0.000000 3.266530 
# 
# 
# High freq. dielectric constant tensor:
#      x y z
#    x 1.620870 0.000000 0.000000 
#    y 0.000000 1.620860 0.000000 
#    z 0.000000 0.000000 1.656340 
# 
# From -- ./inp_files/1699.got.cif
#   From: 2010.03.12/outbox.cif.g09.slc.cpg/sg127_1_cif.got.tgz:1699.got - 2010.04.06 17:03:15.
