data_PCOD8314644
_publ_section_title
;
Structure prediction by ZEFSAII (Michael W. Deem and Ramdas Pophale) SiO2 
 PCOD8314644
Probable space group: P 4/M N C
;
_chemical_formula_sum "Si O2"
_cell_formula_units_Z 64
_cell_length_a 20.153096
_cell_length_b 20.153096
_cell_length_c 8.596423
_cell_angle_alpha 90.000000
_cell_angle_beta 90.000000
_cell_angle_gamma 90.000000
_cell_volume 3491.413805
_symmetry_space_group_name_H-M "P 4/M N C"
_symmetry_group_IT_number 128
_symmetry_cell_setting 'tetragonal'
loop_
_space_group_symop_operation_xyz
x,y,z
-y,x,z
-x,-y,z
y,-x,z
1/2+x,1/2-y,1/2-z
1/2-x,1/2+y,1/2-z
1/2+y,1/2+x,1/2-z
1/2-y,1/2-x,1/2-z
-x,-y,-z
y,-x,-z
x,y,-z
-y,x,-z
1/2-x,1/2+y,1/2+z
1/2+x,1/2-y,1/2+z
1/2-y,1/2-x,1/2+z
1/2+y,1/2+x,1/2+z
loop_
_atom_site_type_symbol
_atom_site_label
_atom_site_fract_x
_atom_site_fract_y
_atom_site_fract_z
Si Si1 0.424674 0.319256 0.685521
Si Si2 0.572821 0.823727 0.183947
Si Si3 0.826677 0.570059 0.315904
Si Si4 0.073068 0.177246 0.183181
O O1 0.420709 0.312102 0.500000
O O2 0.405982 0.248935 0.758680
O O3 0.498660 0.340852 0.738359
O O4 0.374002 0.373878 0.755109
O O5 0.625253 0.874748 0.250000
O O6 0.500812 0.845297 0.245099
O O7 0.572952 0.825964 0.000000
O O8 0.874920 0.625081 0.250000
O O9 0.833280 0.564991 0.500000
O O10 0.752139 0.590397 0.265245
O O11 0.077249 0.170429 0.000000
#
# Coordination Sequence:
#
# PCOD8314644 Si02
#       4
#    16  16  16  16
#     4   9  17  33  53  78 108 140 175 215 258 306
#     4  11  22  37  55  77 103 136 173 216 262 310
#     4  10  20  36  55  79 107 138 173 214 258 309
#     4   8  16  30  52  78 108 140 174 213 256 303
#
# _framework density 18.330683000000001
#
# number of rings (size 3 to 8) (size 9 to 14) (size 15 to 20)
#    0.000    2.500    0.000    4.500    0.000    2.000 
#    0.000   13.750    0.000    0.000    0.000    7.000 
#    0.000    0.000    0.000    0.000    0.000    0.000 
#
# Total GULP energy -793513.039333 kJ/mol
# GULP energy per Si atom -12398.641240 kJ/mol
# Density = 1.828896 g / cm^3
# Si number density = 18.330683 Si / 1000 Ang^3
#
#
#
# Elastic Constant Matrix: (Units=GPa)
#
#
# Indices 1 2 3 4 5 6 
#
# 1 123.5227 169.5789 49.2364 0.0000 0.0000 0.0000
# 2 169.5789 123.5412 49.2265 0.0000 0.0000 0.0000
# 3 49.2364 49.2265 84.0139 0.0000 0.0000 0.0000
# 4 0.0000 0.0000 0.0000 23.6250 0.0000 0.0000
# 5 0.0000 0.0000 0.0000 0.0000 23.6253 0.0000
# 6 0.0000 0.0000 0.0000 0.0000 0.0000 48.9177
#
#
#
# Elastic Compliance Matrix: (Units=1/GPa)
#
#
# Indices 1 2 3 4 5 6 
#
# 1 -0.008736 0.012982 -0.002487 0.000000 0.000000 0.000000
# 2 0.012982 -0.008733 -0.002491 0.000000 0.000000 0.000000
# 3 -0.002487 -0.002491 0.014820 0.000000 0.000000 0.000000
# 4 0.000000 0.000000 0.000000 0.042328 0.000000 0.000000
# 5 0.000000 0.000000 0.000000 0.000000 0.042328 0.000000
# 6 0.000000 0.000000 0.000000 0.000000 0.000000 0.020443
#
#
# Mechanical properties :
#
#
# Convention : Reuss Voigt Hill
#
# Bulk Modulus (GPa) = 74.85597 96.35126 85.60362
# Shear Modulus (GPa) = 55.00905 23.43599 39.22252
#
# Velocity S-wave (km/s) = 5.48401 3.57951 4.63073
# Velocity P-wave (km/s) = 9.00135 8.35229 8.68289
#
# Compressibility (1/GPa) = 0.01335899
#
# Stress axis : x y z
#
# Youngs Moduli (GPa) = -114.46976 -114.50611 67.47588
#
# Poissons Ratio (x) = 1.48657 0.16782
# Poissons Ratio (y) = 1.48609 0.16810
# Poissons Ratio (z) = -0.28470 -0.28527
#
# Static dielectric constant tensor:
#      x y z
#    x 3.728630 0.000000 0.000000 
#    y 0.000000 3.728600 0.000000 
#    z 0.000000 0.000000 3.220690 
# 
# 
# High freq. dielectric constant tensor:
#      x y z
#    x 1.717220 0.000000 0.000000 
#    y 0.000000 1.717220 0.000000 
#    z 0.000000 0.000000 1.694600 
# 
# From -- ./inp_files/1023.got.cif
#   From: 2010.03.12/outbox.cif.g09.slc.cpg/sg128_1_cif.got.tgz:1023.got - 2010.04.06 17:11:05.
