data_PCOD8314268
_publ_section_title
;
Structure prediction by ZEFSAII (Michael W. Deem and Ramdas Pophale) SiO2 
 PCOD8314268
Probable space group: P 4/M B M
;
_chemical_formula_sum "Si O2"
_cell_formula_units_Z 80
_cell_length_a 17.131508
_cell_length_b 17.131508
_cell_length_c 14.660774
_cell_angle_alpha 90.000000
_cell_angle_beta 90.000000
_cell_angle_gamma 90.000000
_cell_volume 4302.769543
_symmetry_space_group_name_H-M "P 4/M B M"
_symmetry_group_IT_number 127
_symmetry_cell_setting 'tetragonal'
loop_
_space_group_symop_operation_xyz
x,y,z
-y,x,z
-x,-y,z
y,-x,z
1/2+x,1/2-y,-z
1/2-x,1/2+y,-z
1/2+y,1/2+x,-z
1/2-y,1/2-x,-z
-x,-y,-z
y,-x,-z
x,y,-z
-y,x,-z
1/2-x,1/2+y,z
1/2+x,1/2-y,z
1/2-y,1/2-x,z
1/2+y,1/2+x,z
loop_
_atom_site_type_symbol
_atom_site_label
_atom_site_fract_x
_atom_site_fract_y
_atom_site_fract_z
Si Si1 0.176736 0.447504 0.712360
Si Si2 0.224585 0.594760 0.601363
Si Si3 0.024985 0.651869 0.897195
Si Si4 0.695416 0.673586 0.718116
Si Si5 0.281470 0.653827 0.097317
O O1 0.105152 0.394849 0.674612
O O2 0.180791 0.528829 0.659840
O O3 0.162365 0.458351 0.820908
O O4 0.258538 0.404195 0.690462
O O5 0.244802 0.563341 0.500000
O O6 0.166172 0.666172 0.594193
O O7 0.304912 0.625740 0.647851
O O8 0.070708 0.570708 0.880536
O O9 0.082922 0.723432 0.884810
O O10 0.988827 0.651598 0.000000
O O11 0.753624 0.746376 0.724187
O O12 0.657884 0.658618 0.818376
O O13 0.233328 0.733328 0.091171
O O14 0.325844 0.642015 0.000000
#
# Coordination Sequence:
#
# PCOD8314268 Si02
#       5
#    16  16  16  16  16
#     4  11  22  33  52  83 112 135 171 222 263 311
#     4  10  21  38  57  74 100 139 176 214 269 329
#     4   9  17  30  49  75 111 151 181 207 250 308
#     4   9  18  33  52  75 102 135 174 215 261 308
#     4   8  13  25  48  72  96 133 176 209 240 291
#
# _framework density 18.592676000000001
#
# number of rings (size 3 to 8) (size 9 to 14) (size 15 to 20)
#    0.000    2.600    2.000    1.800    0.000    4.000 
#    0.000    6.000    0.000    0.600    0.000    1.400 
#    0.000    3.200    0.000    0.000    0.000    0.000 
#
# Total GULP energy -991300.122209 kJ/mol
# GULP energy per Si atom -12391.251528 kJ/mol
# Density = 1.855036 g / cm^3
# Si number density = 18.592676 Si / 1000 Ang^3
#
#
#
# Elastic Constant Matrix: (Units=GPa)
#
#
# Indices 1 2 3 4 5 6 
#
# 1 26.7852 36.4742 27.0755 0.0000 0.0000 0.0000
# 2 36.4742 26.7852 27.0755 0.0000 0.0000 0.0000
# 3 27.0755 27.0755 121.1620 0.0000 0.0000 0.0000
# 4 0.0000 0.0000 0.0000 14.7522 0.0000 0.0000
# 5 0.0000 0.0000 0.0000 0.0000 14.7522 0.0000
# 6 0.0000 0.0000 0.0000 0.0000 0.0000 19.2442
#
#
#
# Elastic Compliance Matrix: (Units=1/GPa)
#
#
# Indices 1 2 3 4 5 6 
#
# 1 -0.041831 0.061378 -0.004368 0.000000 0.000000 0.000000
# 2 0.061378 -0.041831 -0.004368 0.000000 0.000000 0.000000
# 3 -0.004368 -0.004368 0.010206 0.000000 0.000000 0.000000
# 4 0.000000 0.000000 0.000000 0.067786 0.000000 0.000000
# 5 0.000000 0.000000 0.000000 0.000000 0.067786 0.000000
# 6 0.000000 0.000000 0.000000 0.000000 0.000000 0.051964
#
#
# Mechanical properties :
#
#
# Convention : Reuss Voigt Hill
#
# Bulk Modulus (GPa) = 31.41946 39.55367 35.48656
# Shear Modulus (GPa) = 257.66018 15.35686 136.50852
#
# Velocity S-wave (km/s) = 11.78484 2.87707 8.57788
# Velocity P-wave (km/s) = 14.21661 5.68830 10.82748
#
# Compressibility (1/GPa) = 0.03182741
#
# Stress axis : x y z
#
# Youngs Moduli (GPa) = -23.90567 -23.90567 97.98489
#
# Poissons Ratio (x) = 1.46729 0.42801
# Poissons Ratio (y) = 1.46729 0.42801
# Poissons Ratio (z) = -0.10442 -0.10442
#
# Static dielectric constant tensor:
#      x y z
#    x 3.107660 0.000000 0.000000 
#    y 0.000000 3.107660 0.000000 
#    z 0.000000 0.000000 3.817750 
# 
# 
# High freq. dielectric constant tensor:
#      x y z
#    x 1.684960 0.000000 0.000000 
#    y 0.000000 1.684960 0.000000 
#    z 0.000000 0.000000 1.735530 
# 
# From -- ./inp_files/4230.got.cif
#   From: 2010.03.12/outbox.cif.g09.slc.cpg/sg127_3_cif.got.tgz:4230.got - 2010.04.06 17:03:15.
