data_PCOD8314113
_publ_section_title
;
Structure prediction by ZEFSAII (Michael W. Deem and Ramdas Pophale) SiO2 
 PCOD8314113
Probable space group: P 4/M B M
;
_chemical_formula_sum "Si O2"
_cell_formula_units_Z 56
_cell_length_a 19.539344
_cell_length_b 19.539344
_cell_length_c 7.877150
_cell_angle_alpha 90.000000
_cell_angle_beta 90.000000
_cell_angle_gamma 90.000000
_cell_volume 3007.385306
_symmetry_space_group_name_H-M "P 4/M B M"
_symmetry_group_IT_number 127
_symmetry_cell_setting 'tetragonal'
loop_
_space_group_symop_operation_xyz
x,y,z
-y,x,z
-x,-y,z
y,-x,z
1/2+x,1/2-y,-z
1/2-x,1/2+y,-z
1/2+y,1/2+x,-z
1/2-y,1/2-x,-z
-x,-y,-z
y,-x,-z
x,y,-z
-y,x,-z
1/2-x,1/2+y,z
1/2+x,1/2-y,z
1/2-y,1/2-x,z
1/2+y,1/2+x,z
loop_
_atom_site_type_symbol
_atom_site_label
_atom_site_fract_x
_atom_site_fract_y
_atom_site_fract_z
Si Si1 0.492915 0.709768 0.692554
Si Si2 0.839060 0.768915 0.301624
Si Si3 0.388764 0.509408 0.000000
Si Si4 0.875298 0.266509 0.804476
O O1 0.489482 0.680282 0.500000
O O2 0.418928 0.739495 0.747043
O O3 0.515969 0.653150 0.826651
O O4 0.552834 0.767049 0.701934
O O5 0.829834 0.780522 0.500000
O O6 0.800131 0.699870 0.241601
O O7 0.805712 0.835080 0.212592
O O8 0.426547 0.438040 0.000000
O O9 0.827563 0.327563 0.732053
O O10 0.892652 0.278727 0.000000
#
# Coordination Sequence:
#
# PCOD8314113 Si02
#       4
#    16  16   8  16
#     4  11  22  36  57  81 109 147 185 224 277 332
#     4   9  19  35  55  81 110 141 184 233 277 326
#     4  11  24  38  52  76 112 147 184 228 268 321
#     4  10  20  34  55  82 110 142 184 231 277 327
#
# _framework density 18.620826999999998
#
# number of rings (size 3 to 8) (size 9 to 14) (size 15 to 20)
#    0.000    1.857    1.429    2.571    2.000    5.143 
#    0.000    1.429    0.000    0.857    0.000    6.000 
#    0.000    0.000    0.000    0.000    0.000    0.000 
#
# Total GULP energy -694202.308790 kJ/mol
# GULP energy per Si atom -12396.469800 kJ/mol
# Density = 1.857845 g / cm^3
# Si number density = 18.620827 Si / 1000 Ang^3
#
#
#
# Elastic Constant Matrix: (Units=GPa)
#
#
# Indices 1 2 3 4 5 6 
#
# 1 88.0208 15.9621 10.2987 0.0000 0.0000 0.0000
# 2 15.9621 88.0208 10.2987 0.0000 0.0000 0.0000
# 3 10.2987 10.2987 69.7564 0.0000 0.0000 0.0000
# 4 0.0000 0.0000 0.0000 15.4973 0.0000 0.0000
# 5 0.0000 0.0000 0.0000 0.0000 15.4973 0.0000
# 6 0.0000 0.0000 0.0000 0.0000 0.0000 66.9591
#
#
#
# Elastic Compliance Matrix: (Units=1/GPa)
#
#
# Indices 1 2 3 4 5 6 
#
# 1 0.011892 -0.001985 -0.001463 0.000000 0.000000 0.000000
# 2 -0.001985 0.011892 -0.001463 0.000000 0.000000 0.000000
# 3 -0.001463 -0.001463 0.014767 0.000000 0.000000 0.000000
# 4 0.000000 0.000000 0.000000 0.064527 0.000000 0.000000
# 5 0.000000 0.000000 0.000000 0.000000 0.064527 0.000000
# 6 0.000000 0.000000 0.000000 0.000000 0.000000 0.014934
#
#
# Mechanical properties :
#
#
# Convention : Reuss Voigt Hill
#
# Bulk Modulus (GPa) = 34.80632 35.43523 35.12077
# Shear Modulus (GPa) = 24.75995 33.53998 29.14996
#
# Velocity S-wave (km/s) = 3.65045 4.24867 3.96087
# Velocity P-wave (km/s) = 6.04156 6.56806 6.31030
#
# Compressibility (1/GPa) = 0.02873042
#
# Stress axis : x y z
#
# Youngs Moduli (GPa) = 84.08921 84.08921 67.71642
#
# Poissons Ratio (x) = 0.16695 0.09904
# Poissons Ratio (y) = 0.16695 0.09904
# Poissons Ratio (z) = 0.12299 0.12299
#
# Static dielectric constant tensor:
#      x y z
#    x 3.562420 0.000000 0.000000 
#    y 0.000000 3.562420 0.000000 
#    z 0.000000 0.000000 3.449660 
# 
# 
# High freq. dielectric constant tensor:
#      x y z
#    x 1.710030 0.000000 0.000000 
#    y 0.000000 1.710030 0.000000 
#    z 0.000000 0.000000 1.733360 
# 
# From -- ./inp_files/1066.got.cif
#   From: 2010.03.12/outbox.cif.g09.slc.cpg/sg127_1_cif.got.tgz:1066.got - 2010.04.06 17:03:15.
