data_PCOD8314299
_publ_section_title
;
Structure prediction by ZEFSAII (Michael W. Deem and Ramdas Pophale) SiO2 
 PCOD8314299
Probable space group: P 4/M B M
;
_chemical_formula_sum "Si O2"
_cell_formula_units_Z 104
_cell_length_a 15.694294
_cell_length_b 15.694294
_cell_length_c 20.554877
_cell_angle_alpha 90.000000
_cell_angle_beta 90.000000
_cell_angle_gamma 90.000000
_cell_volume 5062.889517
_symmetry_space_group_name_H-M "P 4/M B M"
_symmetry_group_IT_number 127
_symmetry_cell_setting 'tetragonal'
loop_
_space_group_symop_operation_xyz
x,y,z
-y,x,z
-x,-y,z
y,-x,z
1/2+x,1/2-y,-z
1/2-x,1/2+y,-z
1/2+y,1/2+x,-z
1/2-y,1/2-x,-z
-x,-y,-z
y,-x,-z
x,y,-z
-y,x,-z
1/2-x,1/2+y,z
1/2+x,1/2-y,z
1/2-y,1/2-x,z
1/2+y,1/2+x,z
loop_
_atom_site_type_symbol
_atom_site_label
_atom_site_fract_x
_atom_site_fract_y
_atom_site_fract_z
Si Si1 0.669920 0.689889 0.323869
Si Si2 0.558550 0.627574 0.571502
Si Si3 0.115923 0.077364 0.073531
Si Si4 0.444065 0.804150 0.632702
Si Si5 0.003956 0.364163 0.235179
Si Si6 0.618890 0.739024 0.814684
Si Si7 0.142159 0.502462 0.500000
O O1 0.725674 0.774327 0.334282
O O2 0.588367 0.694090 0.372512
O O3 0.720196 0.604236 0.342312
O O4 0.637246 0.683261 0.249805
O O5 0.459437 0.610941 0.580360
O O6 0.579658 0.664886 0.500000
O O7 0.179764 0.122382 0.122736
O O8 0.023166 0.115806 0.085998
O O9 0.145716 0.097042 0.000000
O O10 0.375771 0.875771 0.618092
O O11 0.506744 0.835346 0.689987
O O12 0.494645 0.795186 0.563697
O O13 0.941189 0.441189 0.222256
O O14 0.974233 0.285125 0.190232
O O15 0.101146 0.398855 0.220622
O O16 0.691362 0.808639 0.823664
O O17 0.093749 0.593749 0.500000
O O18 0.071447 0.428554 0.500000
#
# Coordination Sequence:
#
# PCOD8314299 Si02
#       7
#    16  16  16  16  16  16   8
#     4  10  22  35  51  81 114 144 181 232 293 350
#     4   9  20  38  57  74  95 135 190 242 288 341
#     4   9  20  40  65  92 120 152 191 233 279 336
#     4   9  18  30  47  72 104 144 187 238 291 342
#     4   9  18  34  55  78 111 155 195 236 287 341
#     4  10  22  37  57  88 122 154 192 237 285 349
#     4   9  16  28  48  72  98 137 195 247 287 340
#
# _framework density 20.541629
#
# number of rings (size 3 to 8) (size 9 to 14) (size 15 to 20)
#    0.000    2.692    0.000    1.385    5.385    2.462 
#    0.000    1.538    0.000    1.385    0.000    2.154 
#    0.000    0.000    0.000    0.000    0.000    0.000 
#
# Total GULP energy -1289063.046055 kJ/mol
# GULP energy per Si atom -12394.836981 kJ/mol
# Density = 2.049488 g / cm^3
# Si number density = 20.541629 Si / 1000 Ang^3
#
#
#
# Elastic Constant Matrix: (Units=GPa)
#
#
# Indices 1 2 3 4 5 6 
#
# 1 42.8245 23.8829 56.4631 0.0000 0.0000 0.0000
# 2 23.8829 42.8245 56.4631 0.0000 0.0000 0.0000
# 3 56.4631 56.4631 143.9633 0.0000 0.0000 0.0000
# 4 0.0000 0.0000 0.0000 37.4904 0.0000 0.0000
# 5 0.0000 0.0000 0.0000 0.0000 37.4905 0.0000
# 6 0.0000 0.0000 0.0000 0.0000 0.0000 21.3154
#
#
#
# Elastic Compliance Matrix: (Units=1/GPa)
#
#
# Indices 1 2 3 4 5 6 
#
# 1 0.048701 -0.004093 -0.017496 0.000000 0.000000 0.000000
# 2 -0.004093 0.048701 -0.017496 0.000000 0.000000 0.000000
# 3 -0.017496 -0.017496 0.020670 0.000000 0.000000 0.000000
# 4 0.000000 0.000000 0.000000 0.026673 0.000000 0.000000
# 5 0.000000 0.000000 0.000000 0.000000 0.026673 0.000000
# 6 0.000000 0.000000 0.000000 0.000000 0.000000 0.046915
#
#
# Mechanical properties :
#
#
# Convention : Reuss Voigt Hill
#
# Bulk Modulus (GPa) = 25.05992 55.91450 40.48721
# Shear Modulus (GPa) = 16.13927 25.44614 20.79270
#
# Velocity S-wave (km/s) = 2.80605 3.52342 3.18500
# Velocity P-wave (km/s) = 4.76703 6.62056 5.76873
#
# Compressibility (1/GPa) = 0.03990435
#
# Stress axis : x y z
#
# Youngs Moduli (GPa) = 20.53340 20.53335 48.37933
#
# Poissons Ratio (x) = 0.08404 0.84643
# Poissons Ratio (y) = 0.08404 0.84643
# Poissons Ratio (z) = 0.35925 0.35925
#
# Static dielectric constant tensor:
#      x y z
#    x 3.820030 0.000000 0.000000 
#    y 0.000000 3.820030 0.000000 
#    z 0.000000 0.000000 3.591570 
# 
# 
# High freq. dielectric constant tensor:
#      x y z
#    x 1.806350 0.000000 0.000000 
#    y 0.000000 1.806350 0.000000 
#    z 0.000000 0.000000 1.782170 
# 
# From -- ./inp_files/5208.got.cif
#   From: 2010.03.12/outbox.cif.g09.slc.cpg/sg127_3_cif.got.tgz:5208.got - 2010.04.06 17:03:15.
