data_PCOD8314847
_publ_section_title
;
Structure prediction by ZEFSAII (Michael W. Deem and Ramdas Pophale) SiO2 
 PCOD8314847
Probable space group: P 4/M N C
;
_chemical_formula_sum "Si O2"
_cell_formula_units_Z 72
_cell_length_a 11.298806
_cell_length_b 11.298806
_cell_length_c 31.937832
_cell_angle_alpha 90.000000
_cell_angle_beta 90.000000
_cell_angle_gamma 90.000000
_cell_volume 4077.279990
_symmetry_space_group_name_H-M "P 4/M N C"
_symmetry_group_IT_number 128
_symmetry_cell_setting 'tetragonal'
loop_
_space_group_symop_operation_xyz
x,y,z
-y,x,z
-x,-y,z
y,-x,z
1/2+x,1/2-y,1/2-z
1/2-x,1/2+y,1/2-z
1/2+y,1/2+x,1/2-z
1/2-y,1/2-x,1/2-z
-x,-y,-z
y,-x,-z
x,y,-z
-y,x,-z
1/2-x,1/2+y,1/2+z
1/2+x,1/2-y,1/2+z
1/2-y,1/2-x,1/2+z
1/2+y,1/2+x,1/2+z
loop_
_atom_site_type_symbol
_atom_site_label
_atom_site_fract_x
_atom_site_fract_y
_atom_site_fract_z
Si Si1 0.817400 0.947214 0.326478
Si Si2 0.686329 0.458140 0.728448
Si Si3 0.694071 0.493832 0.500000
Si Si4 0.433079 0.121961 0.660487
Si Si5 0.493622 0.302757 0.409295
O O1 0.787853 0.946778 0.277374
O O2 0.701874 0.908419 0.352100
O O3 0.920443 0.855901 0.338781
O O4 0.638898 0.587992 0.716040
O O5 0.806255 0.434272 0.703771
O O6 0.619061 0.611719 0.500000
O O7 0.762455 0.491599 0.455342
O O8 0.493709 0.198154 0.624156
O O9 0.500000 0.000000 0.667663
O O10 0.612346 0.380054 0.403391
#
# Coordination Sequence:
#
# PCOD8314847 Si02
#       5
#    16  16   8  16  16
#     4   9  21  39  53  66  94 141 181 212 253 300
#     4   9  19  37  56  71  93 130 175 223 271 302
#     4   7  12  28  55  82 102 129 164 198 250 315
#     4  12  24  31  48  81 107 131 168 213 256 305
#     4   9  18  34  57  81 107 134 163 206 260 308
#
# _framework density 17.658829999999998
#
# number of rings (size 3 to 8) (size 9 to 14) (size 15 to 20)
#    0.000    2.556    0.000    4.667    6.222    3.556 
#    0.000    0.556    0.000    0.000    0.000    0.000 
#    0.000    1.778    0.000    0.000    0.000    0.000 
#
# Total GULP energy -892289.963626 kJ/mol
# GULP energy per Si atom -12392.916161 kJ/mol
# Density = 1.761864 g / cm^3
# Si number density = 17.658830 Si / 1000 Ang^3
#
#
#
# Elastic Constant Matrix: (Units=GPa)
#
#
# Indices 1 2 3 4 5 6 
#
# 1 65.7118 33.0359 0.5240 0.0000 0.0000 0.0000
# 2 33.0359 65.7118 0.5240 0.0000 0.0000 0.0000
# 3 0.5240 0.5240 21.4095 0.0000 0.0000 0.0000
# 4 0.0000 0.0000 0.0000 12.9375 0.0000 0.0000
# 5 0.0000 0.0000 0.0000 0.0000 12.9375 0.0000
# 6 0.0000 0.0000 0.0000 0.0000 0.0000 17.2068
#
#
#
# Elastic Compliance Matrix: (Units=1/GPa)
#
#
# Indices 1 2 3 4 5 6 
#
# 1 0.020367 -0.010237 -0.000248 0.000000 0.000000 0.000000
# 2 -0.010237 0.020367 -0.000248 0.000000 0.000000 0.000000
# 3 -0.000248 -0.000248 0.046720 0.000000 0.000000 0.000000
# 4 0.000000 0.000000 0.000000 0.077295 0.000000 0.000000
# 5 0.000000 0.000000 0.000000 0.000000 0.077295 0.000000
# 6 0.000000 0.000000 0.000000 0.000000 0.000000 0.058117
#
#
# Mechanical properties :
#
#
# Convention : Reuss Voigt Hill
#
# Bulk Modulus (GPa) = 15.15433 24.55563 19.85498
# Shear Modulus (GPa) = 14.55092 16.53298 15.54195
#
# Velocity S-wave (km/s) = 2.87366 3.06313 2.96991
# Velocity P-wave (km/s) = 4.42842 5.14258 4.79880
#
# Compressibility (1/GPa) = 0.06598773
#
# Stress axis : x y z
#
# Youngs Moduli (GPa) = 49.10017 49.10017 21.40391
#
# Poissons Ratio (x) = 0.50264 0.00531
# Poissons Ratio (y) = 0.50264 0.00531
# Poissons Ratio (z) = 0.01217 0.01217
#
# Static dielectric constant tensor:
#      x y z
#    x 3.195960 0.000000 0.000000 
#    y 0.000000 3.195960 0.000000 
#    z 0.000000 0.000000 3.331840 
# 
# 
# High freq. dielectric constant tensor:
#      x y z
#    x 1.671570 0.000000 0.000000 
#    y 0.000000 1.671570 0.000000 
#    z 0.000000 0.000000 1.663870 
# 
# From -- ./inp_files/7108.got.cif
#   From: 2010.03.12/outbox.cif.g09.slc.cpg/sg128_4_cif.got.tgz:7108.got - 2010.04.06 17:11:05.
