data_PCOD8314893
_publ_section_title
;
Structure prediction by ZEFSAII (Michael W. Deem and Ramdas Pophale) SiO2 
 PCOD8314893
Probable space group: P 4/N M M
;
_chemical_formula_sum "Si O2"
_cell_formula_units_Z 128
_cell_length_a 20.780685
_cell_length_b 20.780685
_cell_length_c 19.498097
_cell_angle_alpha 90.000000
_cell_angle_beta 90.000000
_cell_angle_gamma 90.000000
_cell_volume 8419.997161
_symmetry_space_group_name_H-M "P 4/N M M"
_symmetry_group_IT_number 129
_symmetry_cell_setting 'tetragonal'
loop_
_space_group_symop_operation_xyz
x,y,z
1/2-y,x,z
1/2-x,1/2-y,z
y,1/2-x,z
1/2+x,-y,-z
-x,1/2+y,-z
1/2+y,1/2+x,-z
-y,-x,-z
-x,-y,-z
1/2+y,-x,-z
1/2+x,1/2+y,-z
-y,1/2+x,-z
1/2-x,y,z
x,1/2-y,z
1/2-y,1/2-x,z
y,x,z
loop_
_atom_site_type_symbol
_atom_site_label
_atom_site_fract_x
_atom_site_fract_y
_atom_site_fract_z
Si Si1 0.076620 0.824462 0.407151
Si Si2 0.413275 0.981941 0.857488
Si Si3 0.070753 0.676935 0.563915
Si Si4 0.178167 0.424403 0.214812
Si Si5 0.485707 0.115259 0.090994
Si Si6 0.826790 0.429343 0.023343
Si Si7 0.008784 0.906834 0.299112
Si Si8 0.113880 0.487806 0.331364
O O1 0.092681 0.750000 0.391158
O O2 0.141270 0.866728 0.404837
O O3 0.052053 0.834134 0.484677
O O4 0.022962 0.848416 0.352059
O O5 0.464056 0.923846 0.862120
O O6 0.354386 0.962536 0.907529
O O7 0.384526 0.987437 0.780476
O O8 0.450992 0.049009 0.876682
O O9 0.087037 0.750000 0.579372
O O10 0.007039 0.653784 0.601990
O O11 0.250000 0.400955 0.220708
O O12 0.136500 0.363501 0.234926
O O13 0.164539 0.447882 0.138385
O O14 0.163120 0.481233 0.268313
O O15 0.436070 0.063930 0.056713
O O16 0.518355 0.159278 0.034418
O O17 0.750000 0.416075 0.030683
O O18 0.863360 0.363360 0.000000
O O19 0.062359 0.959828 0.310097
O O20 0.938574 0.938574 0.314174
O O21 0.078883 0.421118 0.349281
#
# Coordination Sequence:
#
# PCOD8314893 Si02
#       8
#    16  16  16  16  16  16  16  16
#     4   9  18  29  42  62  88 116 146 181 221 260
#     4   9  16  29  48  68  87 108 140 185 227 261
#     4   9  17  29  43  60  83 116 154 185 213 255
#     4  10  18  27  41  60  83 110 137 168 207 253
#     4   9  16  29  47  66  83 104 141 184 222 255
#     4  10  20  31  45  65  89 120 151 180 215 257
#     4   9  16  28  46  66  88 110 137 176 226 272
#     4   9  16  27  43  63  83 106 139 180 220 257
#
# _framework density 15.201905
#
# number of rings (size 3 to 8) (size 9 to 14) (size 15 to 20)
#    0.000    2.750    1.250    1.125    0.000    3.000 
#    0.000    3.750    0.000    0.000    0.000    3.500 
#    0.000    2.500    0.000    8.250    0.000    4.250 
#
# Total GULP energy -1585948.063990 kJ/mol
# GULP energy per Si atom -12390.219250 kJ/mol
# Density = 1.516731 g / cm^3
# Si number density = 15.201905 Si / 1000 Ang^3
#
#
#
# Elastic Constant Matrix: (Units=GPa)
#
#
# Indices 1 2 3 4 5 6 
#
# 1 70.0900 34.2401 42.1664 0.0000 0.0000 0.0000
# 2 34.2401 70.0900 42.1664 0.0000 0.0000 0.0000
# 3 42.1664 42.1664 89.4035 0.0000 0.0000 0.0000
# 4 0.0000 0.0000 0.0000 18.8170 0.0000 0.0000
# 5 0.0000 0.0000 0.0000 0.0000 18.8170 0.0000
# 6 0.0000 0.0000 0.0000 0.0000 0.0000 9.2145
#
#
#
# Elastic Compliance Matrix: (Units=1/GPa)
#
#
# Indices 1 2 3 4 5 6 
#
# 1 0.021692 -0.006202 -0.007306 0.000000 0.000000 0.000000
# 2 -0.006202 0.021692 -0.007306 0.000000 0.000000 0.000000
# 3 -0.007306 -0.007306 0.018077 0.000000 0.000000 0.000000
# 4 0.000000 0.000000 0.000000 0.053143 0.000000 0.000000
# 5 0.000000 0.000000 0.000000 0.000000 0.053143 0.000000
# 6 0.000000 0.000000 0.000000 0.000000 0.000000 0.108525
#
#
# Mechanical properties :
#
#
# Convention : Reuss Voigt Hill
#
# Bulk Modulus (GPa) = 50.41836 51.85881 51.13859
# Shear Modulus (GPa) = 15.40774 16.77041 16.08908
#
# Velocity S-wave (km/s) = 3.18707 3.32502 3.25677
# Velocity P-wave (km/s) = 6.83967 6.99488 6.91771
#
# Compressibility (1/GPa) = 0.01983404
#
# Stress axis : x y z
#
# Youngs Moduli (GPa) = 46.09922 46.09922 55.31940
#
# Poissons Ratio (x) = 0.28590 0.40416
# Poissons Ratio (y) = 0.28590 0.40416
# Poissons Ratio (z) = 0.33680 0.33680
#
# Static dielectric constant tensor:
#      x y z
#    x 2.904290 0.000000 0.000000 
#    y 0.000000 2.904290 0.000000 
#    z 0.000000 0.000000 3.068650 
# 
# 
# High freq. dielectric constant tensor:
#      x y z
#    x 1.564710 0.000000 0.000000 
#    y 0.000000 1.564710 0.000000 
#    z 0.000000 0.000000 1.589180 
# 
# From -- ./inp_files/6104.got.cif
#   From: 2010.03.12/outbox.cif.g09.slc.cpg/sg129_4_cif.got.tgz:6104.got - 2010.04.06 17:19:44.
