data_PCOD8314532
_publ_section_title
;
Structure prediction by ZEFSAII (Michael W. Deem and Ramdas Pophale) SiO2 
 PCOD8314532
Probable space group: P 4/M N C
;
_chemical_formula_sum "Si O2"
_cell_formula_units_Z 96
_cell_length_a 21.823912
_cell_length_b 21.823912
_cell_length_c 9.317034
_cell_angle_alpha 90.000000
_cell_angle_beta 90.000000
_cell_angle_gamma 90.000000
_cell_volume 4437.546162
_symmetry_space_group_name_H-M "P 4/M N C"
_symmetry_group_IT_number 128
_symmetry_cell_setting 'tetragonal'
loop_
_space_group_symop_operation_xyz
x,y,z
-y,x,z
-x,-y,z
y,-x,z
1/2+x,1/2-y,1/2-z
1/2-x,1/2+y,1/2-z
1/2+y,1/2+x,1/2-z
1/2-y,1/2-x,1/2-z
-x,-y,-z
y,-x,-z
x,y,-z
-y,x,-z
1/2-x,1/2+y,1/2+z
1/2+x,1/2-y,1/2+z
1/2-y,1/2-x,1/2+z
1/2+y,1/2+x,1/2+z
loop_
_atom_site_type_symbol
_atom_site_label
_atom_site_fract_x
_atom_site_fract_y
_atom_site_fract_z
Si Si1 0.563053 0.666887 0.666348
Si Si2 0.127340 0.550245 0.342271
Si Si3 0.149779 0.728129 0.842417
Si Si4 0.335571 0.424331 0.667670
Si Si5 0.761768 0.655895 0.161454
Si Si6 0.864707 0.555768 0.159237
O O1 0.555881 0.683812 0.500000
O O2 0.608557 0.718719 0.733850
O O3 0.594674 0.600413 0.687544
O O4 0.493887 0.667180 0.731229
O O5 0.066762 0.566762 0.250000
O O6 0.109596 0.524835 0.500000
O O7 0.167932 0.609832 0.361535
O O8 0.165092 0.499541 0.251262
O O9 0.210207 0.710207 0.750000
O O10 0.172140 0.750699 0.000000
O O11 0.316787 0.422602 0.500000
O O12 0.292198 0.378088 0.753718
O O13 0.784098 0.715903 0.250000
O O14 0.817979 0.610501 0.147011
O O15 0.740093 0.674277 0.000000
O O16 0.924414 0.575587 0.250000
O O17 0.883439 0.533401 0.000000
#
# Coordination Sequence:
#
# PCOD8314532 Si02
#       6
#    16  16  16  16  16  16
#     4   9  19  35  58  87 117 153 197 245 295 347
#     4  10  19  31  48  69  98 136 178 225 277 332
#     4   9  18  33  52  77 107 140 180 226 280 338
#     4  10  20  37  60  86 119 157 199 246 295 351
#     4  10  21  37  58  85 115 149 190 238 295 355
#     4  10  20  33  49  70  98 133 177 226 278 337
#
# _framework density 21.633579000000001
#
# number of rings (size 3 to 8) (size 9 to 14) (size 15 to 20)
#    0.000    2.333    0.000    2.500    0.000    5.333 
#    0.000    7.500    0.000    0.000    0.000    1.167 
#    0.000    0.000    0.000    0.000    0.000    0.000 
#
# Total GULP energy -1189577.001359 kJ/mol
# GULP energy per Si atom -12391.427097 kJ/mol
# Density = 2.158434 g / cm^3
# Si number density = 21.633579 Si / 1000 Ang^3
#
#
#
# Elastic Constant Matrix: (Units=GPa)
#
#
# Indices 1 2 3 4 5 6 
#
# 1 62.4883 81.8231 43.5083 0.0000 0.0000 0.0000
# 2 81.8231 62.4864 43.5081 0.0000 0.0000 0.0000
# 3 43.5083 43.5081 142.3060 0.0000 0.0000 0.0000
# 4 0.0000 0.0000 0.0000 23.0640 0.0000 0.0000
# 5 0.0000 0.0000 0.0000 0.0000 23.0641 0.0000
# 6 0.0000 0.0000 0.0000 0.0000 0.0000 22.7729
#
#
#
# Elastic Compliance Matrix: (Units=1/GPa)
#
#
# Indices 1 2 3 4 5 6 
#
# 1 -0.021611 0.030107 -0.002598 0.000000 0.000000 0.000000
# 2 0.030107 -0.021611 -0.002597 0.000000 0.000000 0.000000
# 3 -0.002598 -0.002597 0.008615 0.000000 0.000000 0.000000
# 4 0.000000 0.000000 0.000000 0.043358 0.000000 0.000000
# 5 0.000000 0.000000 0.000000 0.000000 0.043357 0.000000
# 6 0.000000 0.000000 0.000000 0.000000 0.000000 0.043912
#
#
# Mechanical properties :
#
#
# Convention : Reuss Voigt Hill
#
# Bulk Modulus (GPa) = 65.71595 67.21774 66.46684
# Shear Modulus (GPa) = 97.52481 20.34295 58.93388
#
# Velocity S-wave (km/s) = 6.72147 3.06983 5.22504
# Velocity P-wave (km/s) = 9.52262 6.61087 8.19707
#
# Compressibility (1/GPa) = 0.01521701
#
# Stress axis : x y z
#
# Youngs Moduli (GPa) = -46.27354 -46.27196 116.07144
#
# Poissons Ratio (x) = 1.39310 0.30150
# Poissons Ratio (y) = 1.39314 0.30148
# Poissons Ratio (z) = -0.12020 -0.12019
#
# Static dielectric constant tensor:
#      x y z
#    x 3.860170 0.000000 0.000000 
#    y 0.000000 3.860170 0.000000 
#    z 0.000000 0.000000 4.203450 
# 
# 
# High freq. dielectric constant tensor:
#      x y z
#    x 1.845820 0.000000 0.000000 
#    y 0.000000 1.845820 0.000000 
#    z 0.000000 0.000000 1.832460 
# 
# From -- ./inp_files/1501.got.cif
#   From: 2010.03.12/outbox.cif.g09.slc.cpg/sg128_1_cif.got.tgz:1501.got - 2010.04.06 17:11:05.
