data_PCOD8314503
_publ_section_title
;
Structure prediction by ZEFSAII (Michael W. Deem and Ramdas Pophale) SiO2 
 PCOD8314503
Probable space group: P 4/M N C
;
_chemical_formula_sum "Si O2"
_cell_formula_units_Z 128
_cell_length_a 20.878158
_cell_length_b 20.878158
_cell_length_c 17.974663
_cell_angle_alpha 90.000000
_cell_angle_beta 90.000000
_cell_angle_gamma 90.000000
_cell_volume 7835.110332
_symmetry_space_group_name_H-M "P 4/M N C"
_symmetry_group_IT_number 128
_symmetry_cell_setting 'tetragonal'
loop_
_space_group_symop_operation_xyz
x,y,z
-y,x,z
-x,-y,z
y,-x,z
1/2+x,1/2-y,1/2-z
1/2-x,1/2+y,1/2-z
1/2+y,1/2+x,1/2-z
1/2-y,1/2-x,1/2-z
-x,-y,-z
y,-x,-z
x,y,-z
-y,x,-z
1/2-x,1/2+y,1/2+z
1/2+x,1/2-y,1/2+z
1/2-y,1/2-x,1/2+z
1/2+y,1/2+x,1/2+z
loop_
_atom_site_type_symbol
_atom_site_label
_atom_site_fract_x
_atom_site_fract_y
_atom_site_fract_z
Si Si1 0.943477 0.702825 0.763107
Si Si2 0.495136 0.072519 0.083670
Si Si3 0.378599 0.866118 0.129859
Si Si4 0.677697 0.737185 0.195721
Si Si5 0.574646 0.838193 0.199174
Si Si6 0.420710 0.430817 0.416606
Si Si7 0.284578 0.767122 0.583181
Si Si8 0.179177 0.867647 0.811469
O O1 0.925743 0.656768 0.831419
O O2 0.902602 0.684054 0.691230
O O3 0.926094 0.775678 0.784490
O O4 0.018238 0.693518 0.747424
O O5 0.564930 0.104256 0.081218
O O6 0.449220 0.117203 0.132218
O O7 0.500000 0.000000 0.116495
O O8 0.467442 0.069793 0.000000
O O9 0.331346 0.826815 0.076974
O O10 0.722648 0.777353 0.250000
O O11 0.616598 0.778758 0.169351
O O12 0.716532 0.717984 0.121752
O O13 0.656200 0.673160 0.239766
O O14 0.616973 0.883028 0.250000
O O15 0.493890 0.411018 0.406162
O O16 0.397560 0.411380 0.500000
O O17 0.382324 0.395013 0.352608
O O18 0.272184 0.741397 0.500000
O O19 0.322175 0.714820 0.630424
#
# Coordination Sequence:
#
# PCOD8314503 Si02
#       8
#    16  16  16  16  16  16  16  16
#     4   9  17  28  49  70  94 121 163 201 241 282
#     4  10  20  32  48  70  99 132 163 197 237 289
#     4   9  16  30  46  69  94 123 158 203 235 283
#     4   9  19  33  47  68  99 124 161 208 246 288
#     4  10  20  33  49  71  97 130 162 200 249 291
#     4   9  19  34  50  71 100 130 159 197 249 307
#     4  10  18  30  49  69  93 129 162 199 248 293
#     4  10  18  31  50  72  96 123 166 205 245 290
#
# _framework density 16.33672
#
# number of rings (size 3 to 8) (size 9 to 14) (size 15 to 20)
#    0.000    2.500    1.250    1.875    1.750    1.750 
#    0.000    0.000    0.000    0.750    0.000    0.000 
#    0.000    0.000    0.000    1.375    0.000    0.000 
#
# Total GULP energy -1586849.420844 kJ/mol
# GULP energy per Si atom -12397.261100 kJ/mol
# Density = 1.629954 g / cm^3
# Si number density = 16.336720 Si / 1000 Ang^3
#
#
#
# Elastic Constant Matrix: (Units=GPa)
#
#
# Indices 1 2 3 4 5 6 
#
# 1 77.1584 54.3668 41.3280 0.0000 0.0000 0.0000
# 2 54.3668 77.1597 41.3278 0.0000 0.0000 0.0000
# 3 41.3280 41.3278 82.2254 0.0000 0.0000 0.0000
# 4 0.0000 0.0000 0.0000 22.2304 0.0000 0.0000
# 5 0.0000 0.0000 0.0000 0.0000 22.2303 0.0000
# 6 0.0000 0.0000 0.0000 0.0000 0.0000 21.2385
#
#
#
# Elastic Compliance Matrix: (Units=1/GPa)
#
#
# Indices 1 2 3 4 5 6 
#
# 1 0.027494 -0.016381 -0.005586 0.000000 0.000000 0.000000
# 2 -0.016381 0.027494 -0.005586 0.000000 0.000000 0.000000
# 3 -0.005586 -0.005586 0.017777 0.000000 0.000000 0.000000
# 4 0.000000 0.000000 0.000000 0.044984 0.000000 0.000000
# 5 0.000000 0.000000 0.000000 0.000000 0.044984 0.000000
# 6 0.000000 0.000000 0.000000 0.000000 0.000000 0.047084
#
#
# Mechanical properties :
#
#
# Convention : Reuss Voigt Hill
#
# Bulk Modulus (GPa) = 56.62400 56.73210 56.67805
# Shear Modulus (GPa) = 18.46330 19.77453 19.11892
#
# Velocity S-wave (km/s) = 3.36545 3.48290 3.42468
# Velocity P-wave (km/s) = 7.05957 7.13977 7.09978
#
# Compressibility (1/GPa) = 0.01766036
#
# Stress axis : x y z
#
# Youngs Moduli (GPa) = 36.37110 36.37205 56.25331
#
# Poissons Ratio (x) = 0.59580 0.31423
# Poissons Ratio (y) = 0.59578 0.31421
# Poissons Ratio (z) = 0.20317 0.20316
#
# Static dielectric constant tensor:
#      x y z
#    x 3.069550 0.000000 0.000000 
#    y 0.000000 3.069550 0.000000 
#    z 0.000000 0.000000 2.958430 
# 
# 
# High freq. dielectric constant tensor:
#      x y z
#    x 1.622270 0.000000 0.000000 
#    y 0.000000 1.622270 0.000000 
#    z 0.000000 0.000000 1.620450 
# 
# From -- ./inp_files/5123.got.cif
#   From: 2010.03.12/outbox.cif.g09.slc.cpg/sg128_3_cif.got.tgz:5123.got - 2010.04.06 17:11:05.
