data_PCOD8314304
_publ_section_title
;
Structure prediction by ZEFSAII (Michael W. Deem and Ramdas Pophale) SiO2 
 PCOD8314304
Probable space group: P 4/M B M
;
_chemical_formula_sum "Si O2"
_cell_formula_units_Z 72
_cell_length_a 14.262658
_cell_length_b 14.262658
_cell_length_c 18.945159
_cell_angle_alpha 90.000000
_cell_angle_beta 90.000000
_cell_angle_gamma 90.000000
_cell_volume 3853.888908
_symmetry_space_group_name_H-M "P 4/M B M"
_symmetry_group_IT_number 127
_symmetry_cell_setting 'tetragonal'
loop_
_space_group_symop_operation_xyz
x,y,z
-y,x,z
-x,-y,z
y,-x,z
1/2+x,1/2-y,-z
1/2-x,1/2+y,-z
1/2+y,1/2+x,-z
1/2-y,1/2-x,-z
-x,-y,-z
y,-x,-z
x,y,-z
-y,x,-z
1/2-x,1/2+y,z
1/2+x,1/2-y,z
1/2-y,1/2-x,z
1/2+y,1/2+x,z
loop_
_atom_site_type_symbol
_atom_site_label
_atom_site_fract_x
_atom_site_fract_y
_atom_site_fract_z
Si Si1 0.246145 0.746145 0.852571
Si Si2 0.101694 0.601694 0.917074
Si Si3 0.574146 0.074146 0.708881
Si Si4 0.893528 0.606473 0.135376
Si Si5 0.003163 0.155242 0.500000
Si Si6 0.684800 0.671942 0.281975
Si Si7 0.495667 0.255027 0.649336
O O1 0.180716 0.680716 0.901504
O O2 0.317190 0.817190 0.895247
O O3 0.177055 0.809305 0.802522
O O4 0.132468 0.499861 0.887056
O O5 0.091086 0.591086 0.000000
O O6 0.619113 0.119113 0.779907
O O7 0.521005 0.147402 0.659665
O O8 0.500000 0.000000 0.739260
O O9 0.005491 0.221403 0.432425
O O10 0.909435 0.094340 0.500000
O O11 0.785333 0.714668 0.309015
O O12 0.607547 0.730067 0.323053
O O13 0.678717 0.563371 0.303034
#
# Coordination Sequence:
#
# PCOD8314304 Si02
#       7
#     8   8   8   8   8  16  16
#     4  10  22  37  63  94 125 157 198 254 308 348
#     4  11  24  39  65  98 126 165 202 241 296 371
#     4  12  22  39  65  90 123 153 195 263 313 350
#     4  11  20  40  66  94 123 164 207 247 301 364
#     4  11  24  39  56  81 117 164 204 249 313 374
#     4  10  22  36  60  91 116 150 208 249 306 350
#     4  12  21  40  59  88 118 158 204 259 306 368
#
# _framework density 18.682427000000001
#
# number of rings (size 3 to 8) (size 9 to 14) (size 15 to 20)
#    0.667    0.333    6.667    2.667    0.000    1.778 
#    0.000    3.889    0.000    0.667    0.000    1.556 
#    0.000    0.000    0.000    0.000    0.000    0.000 
#
# Total GULP energy -892411.330312 kJ/mol
# GULP energy per Si atom -12394.601810 kJ/mol
# Density = 1.863990 g / cm^3
# Si number density = 18.682427 Si / 1000 Ang^3
#
#
#
# Elastic Constant Matrix: (Units=GPa)
#
#
# Indices 1 2 3 4 5 6 
#
# 1 81.8246 34.4169 30.5886 0.0000 0.0000 0.0000
# 2 34.4169 81.8246 30.5886 0.0000 0.0000 0.0000
# 3 30.5886 30.5886 101.5053 0.0000 0.0000 0.0000
# 4 0.0000 0.0000 0.0000 28.0707 0.0000 0.0000
# 5 0.0000 0.0000 0.0000 0.0000 28.0707 0.0000
# 6 0.0000 0.0000 0.0000 0.0000 0.0000 38.1258
#
#
#
# Elastic Compliance Matrix: (Units=1/GPa)
#
#
# Indices 1 2 3 4 5 6 
#
# 1 0.015659 -0.005435 -0.003081 0.000000 0.000000 0.000000
# 2 -0.005435 0.015659 -0.003081 0.000000 0.000000 0.000000
# 3 -0.003081 -0.003081 0.011709 0.000000 0.000000 0.000000
# 4 0.000000 0.000000 0.000000 0.035624 0.000000 0.000000
# 5 0.000000 0.000000 0.000000 0.000000 0.035624 0.000000
# 6 0.000000 0.000000 0.000000 0.000000 0.000000 0.026229
#
#
# Mechanical properties :
#
#
# Convention : Reuss Voigt Hill
#
# Bulk Modulus (GPa) = 50.42115 50.70476 50.56296
# Shear Modulus (GPa) = 29.35842 30.15747 29.75795
#
# Velocity S-wave (km/s) = 3.96845 4.02209 3.99536
# Velocity P-wave (km/s) = 6.93147 6.98347 6.95752
#
# Compressibility (1/GPa) = 0.01983295
#
# Stress axis : x y z
#
# Youngs Moduli (GPa) = 63.86114 63.86114 85.40661
#
# Poissons Ratio (x) = 0.34706 0.26315
# Poissons Ratio (y) = 0.34706 0.26315
# Poissons Ratio (z) = 0.19676 0.19676
#
# Static dielectric constant tensor:
#      x y z
#    x 3.495960 0.000000 0.000000 
#    y 0.000000 3.495960 0.000000 
#    z 0.000000 0.000000 3.232840 
# 
# 
# High freq. dielectric constant tensor:
#      x y z
#    x 1.728600 0.000000 0.000000 
#    y 0.000000 1.728600 0.000000 
#    z 0.000000 0.000000 1.707640 
# 
# From -- ./inp_files/5014.got.cif
#   From: 2010.03.12/outbox.cif.g09.slc.cpg/sg127_3_cif.got.tgz:5014.got - 2010.04.06 17:03:15.
