data_PCOD8314971
_publ_section_title
;
Structure prediction by ZEFSAII (Michael W. Deem and Ramdas Pophale) SiO2 
 PCOD8314971
Probable space group: P 4/N M M
;
_chemical_formula_sum "Si O2"
_cell_formula_units_Z 128
_cell_length_a 17.984632
_cell_length_b 17.984632
_cell_length_c 22.893875
_cell_angle_alpha 90.000000
_cell_angle_beta 90.000000
_cell_angle_gamma 90.000000
_cell_volume 7404.954916
_symmetry_space_group_name_H-M "P 4/N M M"
_symmetry_group_IT_number 129
_symmetry_cell_setting 'tetragonal'
loop_
_space_group_symop_operation_xyz
x,y,z
1/2-y,x,z
1/2-x,1/2-y,z
y,1/2-x,z
1/2+x,-y,-z
-x,1/2+y,-z
1/2+y,1/2+x,-z
-y,-x,-z
-x,-y,-z
1/2+y,-x,-z
1/2+x,1/2+y,-z
-y,1/2+x,-z
1/2-x,y,z
x,1/2-y,z
1/2-y,1/2-x,z
y,x,z
loop_
_atom_site_type_symbol
_atom_site_label
_atom_site_fract_x
_atom_site_fract_y
_atom_site_fract_z
Si Si1 0.832363 0.547714 0.800927
Si Si2 0.830657 0.552856 0.560534
Si Si3 0.558389 0.163313 0.530935
Si Si4 0.335729 0.043401 0.772731
Si Si5 0.005234 0.129031 0.320896
Si Si6 0.485501 0.892287 0.343507
Si Si7 0.066101 0.945542 0.857833
Si Si8 0.335103 0.834585 0.930965
O O1 0.750000 0.552257 0.829928
O O2 0.871971 0.628030 0.806942
O O3 0.819149 0.524325 0.733751
O O4 0.883489 0.485050 0.828756
O O5 0.750000 0.577613 0.539789
O O6 0.872573 0.627428 0.575543
O O7 0.870223 0.509204 0.507640
O O8 0.825037 0.502072 0.618835
O O9 0.631605 0.131605 0.500000
O O10 0.564612 0.250000 0.520704
O O11 0.543902 0.148272 0.598803
O O12 0.250000 0.051996 0.792673
O O13 0.377816 0.122185 0.781191
O O14 0.336741 0.020698 0.704253
O O15 0.376944 0.980874 0.811351
O O16 0.067156 0.067156 0.327052
O O17 0.927432 0.086441 0.311888
O O18 0.545358 0.954643 0.362042
O O19 0.112992 0.900736 0.906259
O O20 0.011828 0.011828 0.883126
O O21 0.250000 0.848139 0.910545
O O22 0.359234 0.750000 0.911739
O O23 0.340886 0.840886 0.000000
#
# Coordination Sequence:
#
# PCOD8314971 Si02
#       8
#    16  16  16  16  16  16  16  16
#     4  10  19  31  48  71 100 133 168 207 250 296
#     4  10  20  32  48  70  92 117 150 188 235 289
#     4  11  22  34  50  69  88 118 155 193 241 291
#     4  10  20  34  53  77 104 133 165 203 247 296
#     4   9  16  29  48  68  90 117 154 197 238 282
#     4  10  18  32  53  73  93 117 155 203 241 284
#     4  10  19  32  51  77 105 137 175 211 249 290
#     4   9  18  33  53  77 106 140 175 212 256 300
#
# _framework density 17.285722
#
# number of rings (size 3 to 8) (size 9 to 14) (size 15 to 20)
#    0.000    2.125    2.500    2.250    0.000    1.250 
#    0.000    0.000    0.000    2.250    0.000    1.750 
#    0.000    0.000    0.000   23.250    0.000    0.000 
#
# Total GULP energy -1585710.020214 kJ/mol
# GULP energy per Si atom -12388.359533 kJ/mol
# Density = 1.724638 g / cm^3
# Si number density = 17.285722 Si / 1000 Ang^3
#
#
#
# Elastic Constant Matrix: (Units=GPa)
#
#
# Indices 1 2 3 4 5 6 
#
# 1 101.4174 53.9149 31.1338 0.0000 0.0000 0.0000
# 2 53.9149 101.4174 31.1338 0.0000 0.0000 0.0000
# 3 31.1338 31.1338 59.1427 0.0000 0.0000 0.0000
# 4 0.0000 0.0000 0.0000 22.1347 0.0000 0.0000
# 5 0.0000 0.0000 0.0000 0.0000 22.1347 0.0000
# 6 0.0000 0.0000 0.0000 0.0000 0.0000 13.8032
#
#
#
# Elastic Compliance Matrix: (Units=1/GPa)
#
#
# Indices 1 2 3 4 5 6 
#
# 1 0.014606 -0.006446 -0.004295 0.000000 0.000000 0.000000
# 2 -0.006446 0.014606 -0.004295 0.000000 0.000000 0.000000
# 3 -0.004295 -0.004295 0.021431 0.000000 0.000000 0.000000
# 4 0.000000 0.000000 0.000000 0.045178 0.000000 0.000000
# 5 0.000000 0.000000 0.000000 0.000000 0.045178 0.000000
# 6 0.000000 0.000000 0.000000 0.000000 0.000000 0.072447
#
#
# Mechanical properties :
#
#
# Convention : Reuss Voigt Hill
#
# Bulk Modulus (GPa) = 48.61835 54.92695 51.77265
# Shear Modulus (GPa) = 19.97013 21.33421 20.65217
#
# Velocity S-wave (km/s) = 3.40265 3.51694 3.46027
# Velocity P-wave (km/s) = 6.60490 6.95246 6.78091
#
# Compressibility (1/GPa) = 0.02056836
#
# Stress axis : x y z
#
# Youngs Moduli (GPa) = 68.46691 68.46691 46.66222
#
# Poissons Ratio (x) = 0.44133 0.20043
# Poissons Ratio (y) = 0.44133 0.20043
# Poissons Ratio (z) = 0.29409 0.29409
#
# Static dielectric constant tensor:
#      x y z
#    x 3.215740 0.000000 0.000000 
#    y 0.000000 3.215740 0.000000 
#    z 0.000000 0.000000 3.199460 
# 
# 
# High freq. dielectric constant tensor:
#      x y z
#    x 1.663150 0.000000 0.000000 
#    y 0.000000 1.663150 0.000000 
#    z 0.000000 0.000000 1.652580 
# 
# From -- ./inp_files/7309.got.cif
#   From: 2010.03.12/outbox.cif.g09.slc.cpg/sg129_4_cif.got.tgz:7309.got - 2010.04.06 17:19:44.
