data_PCOD8314868
_publ_section_title
;
Structure prediction by ZEFSAII (Michael W. Deem and Ramdas Pophale) SiO2 
 PCOD8314868
Probable space group: P 4/N M M
;
_chemical_formula_sum "Si O2"
_cell_formula_units_Z 104
_cell_length_a 21.114297
_cell_length_b 21.114297
_cell_length_c 15.188200
_cell_angle_alpha 90.000000
_cell_angle_beta 90.000000
_cell_angle_gamma 90.000000
_cell_volume 6771.105175
_symmetry_space_group_name_H-M "P 4/N M M"
_symmetry_group_IT_number 129
_symmetry_cell_setting 'tetragonal'
loop_
_space_group_symop_operation_xyz
x,y,z
1/2-y,x,z
1/2-x,1/2-y,z
y,1/2-x,z
1/2+x,-y,-z
-x,1/2+y,-z
1/2+y,1/2+x,-z
-y,-x,-z
-x,-y,-z
1/2+y,-x,-z
1/2+x,1/2+y,-z
-y,1/2+x,-z
1/2-x,y,z
x,1/2-y,z
1/2-y,1/2-x,z
y,x,z
loop_
_atom_site_type_symbol
_atom_site_label
_atom_site_fract_x
_atom_site_fract_y
_atom_site_fract_z
Si Si1 0.410263 0.516472 0.613861
Si Si2 0.455755 0.678982 0.042393
Si Si3 0.493553 0.904121 0.194384
Si Si4 0.105039 0.003400 0.126141
Si Si5 0.677498 0.927483 0.723806
Si Si6 0.819073 0.180928 0.000000
Si Si7 0.885741 0.991844 0.571977
O O1 0.468241 0.468241 0.617370
O O2 0.374257 0.513190 0.707447
O O3 0.364621 0.498312 0.531179
O O4 0.440164 0.586344 0.601253
O O5 0.479488 0.750000 0.024581
O O6 0.493272 0.653409 0.126296
O O7 0.470251 0.637141 0.956954
O O8 0.380053 0.677235 0.064131
O O9 0.559977 0.940024 0.182911
O O10 0.435498 0.951797 0.178600
O O11 0.059261 0.059261 0.091159
O O12 0.157163 0.031156 0.192130
O O13 0.750000 0.907015 0.734837
O O14 0.636119 0.863882 0.717225
O O15 0.671376 0.970404 0.635345
O O16 0.750000 0.177308 0.950095
O O17 0.940032 0.940032 0.582450
#
# Coordination Sequence:
#
# PCOD8314868 Si02
#       7
#    16  16  16  16  16   8  16
#     4   8  13  23  43  64  85 107 132 166 212 266
#     4  11  20  30  43  61  87 117 149 182 219 262
#     4  10  17  28  45  67  89 112 141 177 225 270
#     4  10  18  30  45  64  87 111 144 185 229 271
#     4  10  19  30  44  63  89 119 152 186 219 262
#     4   9  18  30  41  54  78 114 149 176 206 253
#     4   8  13  24  41  63  84 107 135 169 212 259
#
# _framework density 15.359382999999999
#
# number of rings (size 3 to 8) (size 9 to 14) (size 15 to 20)
#    0.000    2.538    3.077    1.846    0.000    1.385 
#    0.000    0.769    0.000    0.000    0.000    0.000 
#    0.000    2.769    0.000    0.000    0.000    4.462 
#
# Total GULP energy -1288431.538872 kJ/mol
# GULP energy per Si atom -12388.764797 kJ/mol
# Density = 1.532442 g / cm^3
# Si number density = 15.359383 Si / 1000 Ang^3
#
#
#
# Elastic Constant Matrix: (Units=GPa)
#
#
# Indices 1 2 3 4 5 6 
#
# 1 50.5714 25.0269 29.1500 0.0000 0.0000 0.0000
# 2 25.0269 50.5715 29.1502 0.0000 0.0000 0.0000
# 3 29.1500 29.1502 106.3795 0.0000 0.0000 0.0000
# 4 0.0000 0.0000 0.0000 12.3077 0.0000 0.0000
# 5 0.0000 0.0000 0.0000 0.0000 12.3079 0.0000
# 6 0.0000 0.0000 0.0000 0.0000 0.0000 12.6820
#
#
#
# Elastic Compliance Matrix: (Units=1/GPa)
#
#
# Indices 1 2 3 4 5 6 
#
# 1 0.027960 -0.011188 -0.004596 0.000000 0.000000 0.000000
# 2 -0.011188 0.027960 -0.004596 0.000000 0.000000 0.000000
# 3 -0.004596 -0.004596 0.011919 0.000000 0.000000 0.000000
# 4 0.000000 0.000000 0.000000 0.081250 0.000000 0.000000
# 5 0.000000 0.000000 0.000000 0.000000 0.081249 0.000000
# 6 0.000000 0.000000 0.000000 0.000000 0.000000 0.078852
#
#
# Mechanical properties :
#
#
# Convention : Reuss Voigt Hill
#
# Bulk Modulus (GPa) = 36.92810 41.57519 39.25165
# Shear Modulus (GPa) = 13.92859 15.73921 14.83390
#
# Velocity S-wave (km/s) = 3.01465 3.20461 3.11108
# Velocity P-wave (km/s) = 6.01768 6.38903 6.20613
#
# Compressibility (1/GPa) = 0.02707965
#
# Stress axis : x y z
#
# Youngs Moduli (GPa) = 35.76574 35.76581 83.89942
#
# Poissons Ratio (x) = 0.40013 0.38559
# Poissons Ratio (y) = 0.40013 0.38559
# Poissons Ratio (z) = 0.16437 0.16438
#
# Static dielectric constant tensor:
#      x y z
#    x 2.784920 0.000000 0.000000 
#    y 0.000000 2.784910 0.000000 
#    z 0.000000 0.000000 3.153980 
# 
# 
# High freq. dielectric constant tensor:
#      x y z
#    x 1.562440 0.000000 0.000000 
#    y 0.000000 1.562440 0.000000 
#    z 0.000000 0.000000 1.590430 
# 
# From -- ./inp_files/5036.got.cif
#   From: 2010.03.12/outbox.cif.g09.slc.cpg/sg129_3_cif.got.tgz:5036.got - 2010.04.06 17:19:44.
