data_PCOD8314416
_publ_section_title
;
Structure prediction by ZEFSAII (Michael W. Deem and Ramdas Pophale) SiO2 
 PCOD8314416
Probable space group: P 4/M B M
;
_chemical_formula_sum "Si O2"
_cell_formula_units_Z 88
_cell_length_a 12.291712
_cell_length_b 12.291712
_cell_length_c 27.694226
_cell_angle_alpha 90.000000
_cell_angle_beta 90.000000
_cell_angle_gamma 90.000000
_cell_volume 4184.214922
_symmetry_space_group_name_H-M "P 4/M B M"
_symmetry_group_IT_number 127
_symmetry_cell_setting 'tetragonal'
loop_
_space_group_symop_operation_xyz
x,y,z
-y,x,z
-x,-y,z
y,-x,z
1/2+x,1/2-y,-z
1/2-x,1/2+y,-z
1/2+y,1/2+x,-z
1/2-y,1/2-x,-z
-x,-y,-z
y,-x,-z
x,y,-z
-y,x,-z
1/2-x,1/2+y,z
1/2+x,1/2-y,z
1/2-y,1/2-x,z
1/2+y,1/2+x,z
loop_
_atom_site_type_symbol
_atom_site_label
_atom_site_fract_x
_atom_site_fract_y
_atom_site_fract_z
Si Si1 0.669286 0.459195 0.904501
Si Si2 0.773543 0.551230 0.743150
Si Si3 0.477828 0.676540 0.356783
Si Si4 0.410365 0.089636 0.057095
Si Si5 0.371504 0.297756 0.802560
Si Si6 0.994946 0.323287 0.553743
O O1 0.630495 0.579720 0.921641
O O2 0.789416 0.439938 0.925150
O O3 0.669059 0.450992 0.846373
O O4 0.879715 0.620286 0.754792
O O5 0.763650 0.538194 0.685628
O O6 0.786601 0.434541 0.767844
O O7 0.665751 0.602808 0.768371
O O8 0.379739 0.593388 0.351446
O O9 0.472658 0.730521 0.409033
O O10 0.500000 0.000000 0.075539
O O11 0.409621 0.090380 0.000000
O O12 0.266140 0.233861 0.823629
O O13 0.985595 0.271879 0.500000
O O14 0.087495 0.412506 0.553898
O O15 0.880306 0.380306 0.567979
#
# Coordination Sequence:
#
# PCOD8314416 Si02
#       6
#    16  16  16   8  16  16
#     4  11  24  43  74 107 139 184 235 288 350 422
#     4  11  23  38  60  87 126 171 214 259 321 391
#     4  11  23  38  59  85 118 159 200 252 314 374
#     4  11  28  50  74 105 147 191 235 298 361 412
#     4  11  22  38  63  95 129 171 216 267 326 391
#     4   9  20  40  63  85 113 152 198 250 309 375
#
# _framework density 21.031426
#
# number of rings (size 3 to 8) (size 9 to 14) (size 15 to 20)
#    0.000    1.364    4.545    1.091    1.273    5.091 
#    0.000    3.636    0.000    0.000    0.000    0.000 
#    0.000    0.000    0.000    0.000    0.000    0.000 
#
# Total GULP energy -1090854.669093 kJ/mol
# GULP energy per Si atom -12396.075785 kJ/mol
# Density = 2.098356 g / cm^3
# Si number density = 21.031426 Si / 1000 Ang^3
#
#
#
# Elastic Constant Matrix: (Units=GPa)
#
#
# Indices 1 2 3 4 5 6 
#
# 1 93.9748 40.1672 27.3762 0.0000 0.0000 0.0000
# 2 40.1672 93.9754 27.3768 0.0000 0.0000 0.0000
# 3 27.3762 27.3768 89.4730 0.0000 0.0000 0.0000
# 4 0.0000 0.0000 0.0000 33.0271 0.0000 0.0000
# 5 0.0000 0.0000 0.0000 0.0000 33.0270 0.0000
# 6 0.0000 0.0000 0.0000 0.0000 0.0000 -142.7865
#
#
#
# Elastic Compliance Matrix: (Units=1/GPa)
#
#
# Indices 1 2 3 4 5 6 
#
# 1 0.013552 -0.005033 -0.002606 0.000000 0.000000 0.000000
# 2 -0.005033 0.013552 -0.002607 0.000000 0.000000 0.000000
# 3 -0.002606 -0.002607 0.012772 0.000000 0.000000 0.000000
# 4 0.000000 0.000000 0.000000 0.030278 0.000000 0.000000
# 5 0.000000 0.000000 0.000000 0.000000 0.030278 0.000000
# 6 0.000000 0.000000 0.000000 0.000000 0.000000 -0.007003
#
#
# Mechanical properties :
#
#
# Convention : Reuss Voigt Hill
#
# Bulk Modulus (GPa) = 51.59175 51.91817 51.75496
# Shear Modulus (GPa) = 41.53486 -3.17962 19.17762
#
# Velocity S-wave (km/s) = 4.44880 -1.23090 3.02297
# Velocity P-wave (km/s) = 7.13955 4.76649 6.07011
#
# Compressibility (1/GPa) = 0.01938294
#
# Stress axis : x y z
#
# Youngs Moduli (GPa) = 73.79170 73.79185 78.29867
#
# Poissons Ratio (x) = 0.37139 0.20408
# Poissons Ratio (y) = 0.37139 0.20409
# Poissons Ratio (z) = 0.19233 0.19234
#
# Static dielectric constant tensor:
#      x y z
#    x 3.875850 0.000000 0.000000 
#    y 0.000000 3.875850 0.000000 
#    z 0.000000 0.000000 3.921130 
# 
# 
# High freq. dielectric constant tensor:
#      x y z
#    x 1.823590 0.000000 0.000000 
#    y 0.000000 1.823590 0.000000 
#    z 0.000000 0.000000 1.823300 
# 
# From -- ./inp_files/6542.got.cif
#   From: 2010.03.12/outbox.cif.g09.slc.cpg/sg127_4_cif.got.tgz:6542.got - 2010.04.06 17:03:15.
