data_PCOD8314959
_publ_section_title
;
Structure prediction by ZEFSAII (Michael W. Deem and Ramdas Pophale) SiO2 
 PCOD8314959
Probable space group: P 4/N M M
;
_chemical_formula_sum "Si O2"
_cell_formula_units_Z 128
_cell_length_a 19.534457
_cell_length_b 19.534457
_cell_length_c 20.025294
_cell_angle_alpha 90.000000
_cell_angle_beta 90.000000
_cell_angle_gamma 90.000000
_cell_volume 7641.552270
_symmetry_space_group_name_H-M "P 4/N M M"
_symmetry_group_IT_number 129
_symmetry_cell_setting 'tetragonal'
loop_
_space_group_symop_operation_xyz
x,y,z
1/2-y,x,z
1/2-x,1/2-y,z
y,1/2-x,z
1/2+x,-y,-z
-x,1/2+y,-z
1/2+y,1/2+x,-z
-y,-x,-z
-x,-y,-z
1/2+y,-x,-z
1/2+x,1/2+y,-z
-y,1/2+x,-z
1/2-x,y,z
x,1/2-y,z
1/2-y,1/2-x,z
y,x,z
loop_
_atom_site_type_symbol
_atom_site_label
_atom_site_fract_x
_atom_site_fract_y
_atom_site_fract_z
Si Si1 0.106793 0.991551 0.139826
Si Si2 0.672001 0.940746 0.589859
Si Si3 0.891913 0.004351 0.712017
Si Si4 0.489364 0.600509 0.354254
Si Si5 0.562206 0.827871 0.232999
Si Si6 0.000875 0.886130 0.108603
Si Si7 0.830130 0.058803 0.485948
Si Si8 0.441682 0.172462 0.020403
O O1 0.047547 0.047547 0.140221
O O2 0.138890 0.981901 0.214159
O O3 0.165420 0.016578 0.089429
O O4 0.076250 0.919340 0.114084
O O5 0.750000 0.917333 0.578344
O O6 0.623648 0.876352 0.573977
O O7 0.663729 0.965867 0.666331
O O8 0.651156 0.003131 0.542135
O O9 0.959655 0.959655 0.721515
O O10 0.917422 0.073877 0.676416
O O11 0.537111 0.537111 0.378034
O O12 0.527387 0.645271 0.299637
O O13 0.473747 0.649956 0.415554
O O14 0.582951 0.750000 0.243167
O O15 0.631860 0.868141 0.217690
O O16 0.510235 0.835392 0.170888
O O17 0.946161 0.946161 0.112945
O O18 0.993739 0.845951 0.039241
O O19 0.872161 0.127840 0.500000
O O20 0.750000 0.077324 0.486922
O O21 0.416174 0.250000 0.013127
O O22 0.374652 0.125349 0.018064
#
# Coordination Sequence:
#
# PCOD8314959 Si02
#       8
#    16  16  16  16  16  16  16  16
#     4   9  16  29  49  71  93 119 156 207 258 292
#     4  10  21  35  53  78 106 138 174 211 254 305
#     4   9  16  29  51  75  96 123 162 207 255 298
#     4  10  18  31  52  75  99 127 164 210 253 294
#     4  10  19  30  46  70 102 137 169 202 240 288
#     4   9  16  29  47  68  93 124 163 207 250 286
#     4  11  22  35  53  77 104 135 172 212 258 309
#     4  10  20  31  45  67  97 133 167 199 239 292
#
# _framework density 16.750523999999999
#
# number of rings (size 3 to 8) (size 9 to 14) (size 15 to 20)
#    0.000    2.250    2.500    1.500    0.000    3.000 
#    0.000    0.000    0.000    2.250    0.000    5.250 
#    0.000    9.500    0.000    0.000    0.000    0.000 
#
# Total GULP energy -1587012.115177 kJ/mol
# GULP energy per Si atom -12398.532150 kJ/mol
# Density = 1.671240 g / cm^3
# Si number density = 16.750524 Si / 1000 Ang^3
#
#
#
# Elastic Constant Matrix: (Units=GPa)
#
#
# Indices 1 2 3 4 5 6 
#
# 1 71.4220 44.2090 35.1574 0.0000 0.0000 0.0000
# 2 44.2090 71.4201 35.1568 0.0000 0.0000 0.0000
# 3 35.1574 35.1568 120.2892 0.0000 0.0000 0.0000
# 4 0.0000 0.0000 0.0000 18.7226 0.0000 0.0000
# 5 0.0000 0.0000 0.0000 0.0000 18.7227 0.0000
# 6 0.0000 0.0000 0.0000 0.0000 0.0000 16.2030
#
#
#
# Elastic Compliance Matrix: (Units=1/GPa)
#
#
# Indices 1 2 3 4 5 6 
#
# 1 0.023633 -0.013115 -0.003074 0.000000 0.000000 0.000000
# 2 -0.013115 0.023633 -0.003074 0.000000 0.000000 0.000000
# 3 -0.003074 -0.003074 0.010110 0.000000 0.000000 0.000000
# 4 0.000000 0.000000 0.000000 0.053411 0.000000 0.000000
# 5 0.000000 0.000000 0.000000 0.000000 0.053411 0.000000
# 6 0.000000 0.000000 0.000000 0.000000 0.000000 0.061717
#
#
# Mechanical properties :
#
#
# Convention : Reuss Voigt Hill
#
# Bulk Modulus (GPa) = 53.05225 54.68643 53.86934
# Shear Modulus (GPa) = 18.46890 20.63687 19.55289
#
# Velocity S-wave (km/s) = 3.32412 3.51381 3.42028
# Velocity P-wave (km/s) = 6.81717 7.01292 6.91574
#
# Compressibility (1/GPa) = 0.01884934
#
# Stress axis : x y z
#
# Youngs Moduli (GPa) = 42.31436 42.31329 98.91030
#
# Poissons Ratio (x) = 0.55496 0.30405
# Poissons Ratio (y) = 0.55497 0.30405
# Poissons Ratio (z) = 0.13007 0.13007
#
# Static dielectric constant tensor:
#      x y z
#    x 2.916760 0.000000 0.000000 
#    y 0.000000 2.916760 0.000000 
#    z 0.000000 0.000000 3.410910 
# 
# 
# High freq. dielectric constant tensor:
#      x y z
#    x 1.620540 0.000000 0.000000 
#    y 0.000000 1.620540 0.000000 
#    z 0.000000 0.000000 1.665890 
# 
# From -- ./inp_files/6145.got.cif
#   From: 2010.03.12/outbox.cif.g09.slc.cpg/sg129_4_cif.got.tgz:6145.got - 2010.04.06 17:19:44.
