data_PCOD8314326
_publ_section_title
;
Structure prediction by ZEFSAII (Michael W. Deem and Ramdas Pophale) SiO2 
 PCOD8314326
Probable space group: P 4/M B M
;
_chemical_formula_sum "Si O2"
_cell_formula_units_Z 88
_cell_length_a 12.085319
_cell_length_b 12.085319
_cell_length_c 28.224421
_cell_angle_alpha 90.000000
_cell_angle_beta 90.000000
_cell_angle_gamma 90.000000
_cell_volume 4122.315984
_symmetry_space_group_name_H-M "P 4/M B M"
_symmetry_group_IT_number 127
_symmetry_cell_setting 'tetragonal'
loop_
_space_group_symop_operation_xyz
x,y,z
-y,x,z
-x,-y,z
y,-x,z
1/2+x,1/2-y,-z
1/2-x,1/2+y,-z
1/2+y,1/2+x,-z
1/2-y,1/2-x,-z
-x,-y,-z
y,-x,-z
x,y,-z
-y,x,-z
1/2-x,1/2+y,z
1/2+x,1/2-y,z
1/2-y,1/2-x,z
1/2+y,1/2+x,z
loop_
_atom_site_type_symbol
_atom_site_label
_atom_site_fract_x
_atom_site_fract_y
_atom_site_fract_z
Si Si1 0.241315 0.922512 0.384229
Si Si2 0.820023 0.973741 0.104712
Si Si3 0.103157 0.782085 0.552189
Si Si4 0.321420 0.483728 0.281264
Si Si5 0.090545 0.590545 0.055877
Si Si6 0.502950 0.179735 0.192988
O O1 0.324229 0.824229 0.372857
O O2 0.129699 0.882149 0.411348
O O3 0.216377 0.984279 0.335431
O O4 0.292714 0.009936 0.421774
O O5 0.709811 0.949338 0.074623
O O6 0.907532 0.876193 0.093177
O O7 0.786041 0.980787 0.159884
O O8 0.062633 0.822280 0.500000
O O9 0.213798 0.713798 0.544959
O O10 0.400631 0.380826 0.270883
O O11 0.217069 0.475072 0.246681
O O12 0.000000 0.500000 0.072138
O O13 0.098883 0.598883 0.000000
O O14 0.609414 0.109414 0.175492
O O15 0.394224 0.105777 0.191007
#
# Coordination Sequence:
#
# PCOD8314326 Si02
#       6
#    16  16  16  16   8  16
#     4  11  22  39  61  85 116 154 196 248 309 376
#     4  11  25  45  73 108 147 193 246 303 361 425
#     4  10  22  39  60  86 115 151 195 244 303 373
#     4  11  23  40  62  89 123 164 211 263 326 391
#     4  11  26  46  74 109 151 201 251 308 369 423
#     4  11  24  41  66  99 137 180 229 277 337 409
#
# _framework density 21.347223
#
# number of rings (size 3 to 8) (size 9 to 14) (size 15 to 20)
#    0.000    1.182    2.727    2.727    2.545    7.636 
#    0.000    2.727    0.000    0.000    0.000    0.000 
#    0.000    0.000    0.000    0.000    0.000    0.000 
#
# Total GULP energy -1090911.553660 kJ/mol
# GULP energy per Si atom -12396.722201 kJ/mol
# Density = 2.129864 g / cm^3
# Si number density = 21.347223 Si / 1000 Ang^3
#
#
#
# Elastic Constant Matrix: (Units=GPa)
#
#
# Indices 1 2 3 4 5 6 
#
# 1 117.7058 50.6771 44.2474 0.0000 0.0000 0.0000
# 2 50.6771 117.7058 44.2474 0.0000 0.0000 0.0000
# 3 44.2474 44.2474 118.8446 0.0000 0.0000 0.0000
# 4 0.0000 0.0000 0.0000 31.8785 0.0000 0.0000
# 5 0.0000 0.0000 0.0000 0.0000 31.8785 0.0000
# 6 0.0000 0.0000 0.0000 0.0000 0.0000 15.7300
#
#
#
# Elastic Compliance Matrix: (Units=1/GPa)
#
#
# Indices 1 2 3 4 5 6 
#
# 1 0.011151 -0.003768 -0.002749 0.000000 0.000000 0.000000
# 2 -0.003768 0.011151 -0.002749 0.000000 0.000000 0.000000
# 3 -0.002749 -0.002749 0.010461 0.000000 0.000000 0.000000
# 4 0.000000 0.000000 0.000000 0.031369 0.000000 0.000000
# 5 0.000000 0.000000 0.000000 0.000000 0.031369 0.000000
# 6 0.000000 0.000000 0.000000 0.000000 0.000000 0.063573
#
#
# Mechanical properties :
#
#
# Convention : Reuss Voigt Hill
#
# Bulk Modulus (GPa) = 70.26175 70.28890 70.27532
# Shear Modulus (GPa) = 27.41969 30.23634 28.82801
#
# Velocity S-wave (km/s) = 3.58783 3.76760 3.67881
# Velocity P-wave (km/s) = 7.08156 7.20586 7.14398
#
# Compressibility (1/GPa) = 0.01423250
#
# Stress axis : x y z
#
# Youngs Moduli (GPa) = 89.67573 89.67573 95.59005
#
# Poissons Ratio (x) = 0.33787 0.26278
# Poissons Ratio (y) = 0.33787 0.26278
# Poissons Ratio (z) = 0.24652 0.24652
#
# Static dielectric constant tensor:
#      x y z
#    x 3.827280 0.000000 0.000000 
#    y 0.000000 3.827280 0.000000 
#    z 0.000000 0.000000 3.948850 
# 
# 
# High freq. dielectric constant tensor:
#      x y z
#    x 1.837140 0.000000 0.000000 
#    y 0.000000 1.837140 0.000000 
#    z 0.000000 0.000000 1.847140 
# 
# From -- ./inp_files/6509.got.cif
#   From: 2010.03.12/outbox.cif.g09.slc.cpg/sg127_4_cif.got.tgz:6509.got - 2010.04.06 17:03:15.
