data_PCOD8314132
_publ_section_title
;
Structure prediction by ZEFSAII (Michael W. Deem and Ramdas Pophale) SiO2 
 PCOD8314132
Probable space group: P 4/M B M
;
_chemical_formula_sum "Si O2"
_cell_formula_units_Z 96
_cell_length_a 15.455004
_cell_length_b 15.455004
_cell_length_c 22.479034
_cell_angle_alpha 90.000000
_cell_angle_beta 90.000000
_cell_angle_gamma 90.000000
_cell_volume 5369.277965
_symmetry_space_group_name_H-M "P 4/M B M"
_symmetry_group_IT_number 127
_symmetry_cell_setting 'tetragonal'
loop_
_space_group_symop_operation_xyz
x,y,z
-y,x,z
-x,-y,z
y,-x,z
1/2+x,1/2-y,-z
1/2-x,1/2+y,-z
1/2+y,1/2+x,-z
1/2-y,1/2-x,-z
-x,-y,-z
y,-x,-z
x,y,-z
-y,x,-z
1/2-x,1/2+y,z
1/2+x,1/2-y,z
1/2-y,1/2-x,z
1/2+y,1/2+x,z
loop_
_atom_site_type_symbol
_atom_site_label
_atom_site_fract_x
_atom_site_fract_y
_atom_site_fract_z
Si Si1 0.806413 0.159197 0.678316
Si Si2 0.283941 0.072004 0.066726
Si Si3 0.123511 0.059809 0.138042
Si Si4 0.709964 0.473155 0.742080
Si Si5 0.362976 0.994061 0.826181
Si Si6 0.885245 0.083749 0.432031
O O1 0.721924 0.221924 0.687742
O O2 0.895119 0.209927 0.694533
O O3 0.815649 0.133597 0.608946
O O4 0.803601 0.068735 0.714733
O O5 0.346909 0.153092 0.066150
O O6 0.196270 0.104764 0.097775
O O7 0.318724 0.994793 0.108683
O O8 0.269306 0.036528 0.000000
O O9 0.139524 0.057426 0.209026
O O10 0.040173 0.114341 0.120360
O O11 0.802122 0.475505 0.773544
O O12 0.442466 0.057535 0.827288
O O13 0.396575 0.896575 0.814573
O O14 0.859487 0.102469 0.500000
O O15 0.981578 0.118182 0.418489
#
# Coordination Sequence:
#
# PCOD8314132 Si02
#       6
#    16  16  16  16  16  16
#     4  12  23  34  58  87 114 153 190 229 281 339
#     4   9  19  35  53  75 104 136 174 225 277 330
#     4  10  20  35  55  77 101 137 176 214 273 330
#     4  11  21  36  52  81 117 141 182 223 282 334
#     4   9  18  34  54  74 103 143 182 226 272 323
#     4   9  18  35  59  85 115 152 191 237 288 329
#
# _framework density 17.879498999999999
#
# number of rings (size 3 to 8) (size 9 to 14) (size 15 to 20)
#    0.000    2.000    3.333    1.500    0.000    2.333 
#    0.000    3.333    0.000    0.000    0.000    0.000 
#    0.000    2.667    0.000    0.000    0.000    0.000 
#
# Total GULP energy -1189333.168291 kJ/mol
# GULP energy per Si atom -12388.887170 kJ/mol
# Density = 1.783880 g / cm^3
# Si number density = 17.879499 Si / 1000 Ang^3
#
#
#
# Elastic Constant Matrix: (Units=GPa)
#
#
# Indices 1 2 3 4 5 6 
#
# 1 36.2542 29.1850 26.9063 0.0000 0.0000 0.0000
# 2 29.1850 36.2542 26.9063 0.0000 0.0000 0.0000
# 3 26.9063 26.9063 102.5098 0.0000 0.0000 0.0000
# 4 0.0000 0.0000 0.0000 21.3312 0.0000 0.0000
# 5 0.0000 0.0000 0.0000 0.0000 21.3312 0.0000
# 6 0.0000 0.0000 0.0000 0.0000 0.0000 -205.5026
#
#
#
# Elastic Compliance Matrix: (Units=1/GPa)
#
#
# Indices 1 2 3 4 5 6 
#
# 1 0.080473 -0.060986 -0.005115 0.000000 0.000000 0.000000
# 2 -0.060986 0.080473 -0.005115 0.000000 0.000000 0.000000
# 3 -0.005115 -0.005115 0.012440 0.000000 0.000000 0.000000
# 4 0.000000 0.000000 0.000000 0.046880 0.000000 0.000000
# 5 0.000000 0.000000 0.000000 0.000000 0.046880 0.000000
# 6 0.000000 0.000000 0.000000 0.000000 0.000000 -0.004866
#
#
# Mechanical properties :
#
#
# Convention : Reuss Voigt Hill
#
# Bulk Modulus (GPa) = 32.30455 37.89040 35.09747
# Shear Modulus (GPa) = 12.04733 -26.43336 -7.19301
#
# Velocity S-wave (km/s) = 2.59859 -3.84919 -2.00793
# Velocity P-wave (km/s) = 5.20680 1.21782 3.78113
#
# Compressibility (1/GPa) = 0.03095540
#
# Stress axis : x y z
#
# Youngs Moduli (GPa) = 12.42650 12.42650 80.38387
#
# Poissons Ratio (x) = 0.75784 0.41117
# Poissons Ratio (y) = 0.75784 0.41117
# Poissons Ratio (z) = 0.06356 0.06356
#
# Static dielectric constant tensor:
#      x y z
#    x 3.365900 0.000000 0.000000 
#    y 0.000000 3.365900 0.000000 
#    z 0.000000 0.000000 3.391800 
# 
# 
# High freq. dielectric constant tensor:
#      x y z
#    x 1.683780 0.000000 0.000000 
#    y 0.000000 1.683780 0.000000 
#    z 0.000000 0.000000 1.692320 
# 
# From -- ./inp_files/5772.got.cif
#   From: 2010.03.12/outbox.cif.g09.slc.cpg/sg127_3_cif.got.tgz:5772.got - 2010.04.06 17:03:15.
