data_PCOD8314810
_publ_section_title
;
Structure prediction by ZEFSAII (Michael W. Deem and Ramdas Pophale) SiO2 
 PCOD8314810
Probable space group: P 4/M N C
;
_chemical_formula_sum "Si O2"
_cell_formula_units_Z 88
_cell_length_a 14.465978
_cell_length_b 14.465978
_cell_length_c 21.420565
_cell_angle_alpha 90.000000
_cell_angle_beta 90.000000
_cell_angle_gamma 90.000000
_cell_volume 4482.564242
_symmetry_space_group_name_H-M "P 4/M N C"
_symmetry_group_IT_number 128
_symmetry_cell_setting 'tetragonal'
loop_
_space_group_symop_operation_xyz
x,y,z
-y,x,z
-x,-y,z
y,-x,z
1/2+x,1/2-y,1/2-z
1/2-x,1/2+y,1/2-z
1/2+y,1/2+x,1/2-z
1/2-y,1/2-x,1/2-z
-x,-y,-z
y,-x,-z
x,y,-z
-y,x,-z
1/2-x,1/2+y,1/2+z
1/2+x,1/2-y,1/2+z
1/2-y,1/2-x,1/2+z
1/2+y,1/2+x,1/2+z
loop_
_atom_site_type_symbol
_atom_site_label
_atom_site_fract_x
_atom_site_fract_y
_atom_site_fract_z
Si Si1 0.274656 0.385904 0.308932
Si Si2 0.940553 0.142244 0.000000
Si Si3 0.904694 0.724052 0.671770
Si Si4 0.130977 0.925327 0.571166
Si Si5 0.562547 0.912437 0.177543
Si Si6 0.236832 0.076365 0.870210
O O1 0.169921 0.358158 0.325942
O O2 0.283515 0.402785 0.235123
O O3 0.300865 0.478796 0.345193
O O4 0.343593 0.304768 0.327268
O O5 0.912322 0.204018 0.058998
O O6 0.049075 0.119538 0.000000
O O7 0.880394 0.791641 0.614891
O O8 0.005508 0.679816 0.661895
O O9 0.160908 0.908071 0.500000
O O10 0.034040 0.876390 0.585152
O O11 0.590450 0.909551 0.250000
O O12 0.652604 0.915630 0.133880
O O13 0.500000 0.000000 0.161604
#
# Coordination Sequence:
#
# PCOD8314810 Si02
#       6
#    16   8  16  16  16  16
#     4  11  25  39  65  97 131 160 223 268 320 387
#     4  11  24  46  67  88 132 180 216 269 332 379
#     4  11  23  41  62  99 128 166 208 266 325 380
#     4   9  21  42  63  87 123 166 209 256 318 385
#     4  11  21  41  66  89 132 172 202 258 331 383
#     4  12  24  44  66  94 125 175 218 269 318 390
#
# _framework density 19.631619000000001
#
# number of rings (size 3 to 8) (size 9 to 14) (size 15 to 20)
#    0.000    1.182    5.455    1.636    7.636    0.364 
#    4.909    0.455    0.000    0.000    0.000    0.000 
#    0.000    0.000    0.000    0.000    0.000    0.000 
#
# Total GULP energy -1091686.789383 kJ/mol
# GULP energy per Si atom -12405.531698 kJ/mol
# Density = 1.958694 g / cm^3
# Si number density = 19.631619 Si / 1000 Ang^3
#
#
#
# Elastic Constant Matrix: (Units=GPa)
#
#
# Indices 1 2 3 4 5 6 
#
# 1 97.2979 15.0124 41.5839 0.0000 0.0000 0.0000
# 2 15.0124 97.2982 41.5837 0.0000 0.0000 0.0000
# 3 41.5839 41.5837 114.8358 0.0000 0.0000 0.0000
# 4 0.0000 0.0000 0.0000 31.8609 0.0000 0.0000
# 5 0.0000 0.0000 0.0000 0.0000 31.8609 0.0000
# 6 0.0000 0.0000 0.0000 0.0000 0.0000 32.5516
#
#
#
# Elastic Compliance Matrix: (Units=1/GPa)
#
#
# Indices 1 2 3 4 5 6 
#
# 1 0.012160 0.000007 -0.004406 0.000000 0.000000 0.000000
# 2 0.000007 0.012160 -0.004406 0.000000 0.000000 0.000000
# 3 -0.004406 -0.004406 0.011899 0.000000 0.000000 0.000000
# 4 0.000000 0.000000 0.000000 0.031386 0.000000 0.000000
# 5 0.000000 0.000000 0.000000 0.000000 0.031386 0.000000
# 6 0.000000 0.000000 0.000000 0.000000 0.000000 0.030720
#
#
# Mechanical properties :
#
#
# Convention : Reuss Voigt Hill
#
# Bulk Modulus (GPa) = 53.73758 56.19911 54.96835
# Shear Modulus (GPa) = 32.56838 33.33812 32.95325
#
# Velocity S-wave (km/s) = 4.07747 4.12537 4.10149
# Velocity P-wave (km/s) = 7.04273 7.16803 7.10566
#
# Compressibility (1/GPa) = 0.01860895
#
# Stress axis : x y z
#
# Youngs Moduli (GPa) = 82.23960 82.24013 84.04230
#
# Poissons Ratio (x) = -0.00056 0.37026
# Poissons Ratio (y) = -0.00056 0.37026
# Poissons Ratio (z) = 0.36232 0.36232
#
# Static dielectric constant tensor:
#      x y z
#    x 3.541220 0.000000 0.000000 
#    y 0.000000 3.541220 0.000000 
#    z 0.000000 0.000000 3.457430 
# 
# 
# High freq. dielectric constant tensor:
#      x y z
#    x 1.769060 0.000000 0.000000 
#    y 0.000000 1.769060 0.000000 
#    z 0.000000 0.000000 1.757260 
# 
# From -- ./inp_files/5622.got.cif
#   From: 2010.03.12/outbox.cif.g09.slc.cpg/sg128_3_cif.got.tgz:5622.got - 2010.04.06 17:11:05.
