data_PCOD8314665
_publ_section_title
;
Structure prediction by ZEFSAII (Michael W. Deem and Ramdas Pophale) SiO2 
 PCOD8314665
Probable space group: P 4/M N C
;
_chemical_formula_sum "Si O2"
_cell_formula_units_Z 96
_cell_length_a 22.463339
_cell_length_b 22.463339
_cell_length_c 10.053601
_cell_angle_alpha 90.000000
_cell_angle_beta 90.000000
_cell_angle_gamma 90.000000
_cell_volume 5073.063141
_symmetry_space_group_name_H-M "P 4/M N C"
_symmetry_group_IT_number 128
_symmetry_cell_setting 'tetragonal'
loop_
_space_group_symop_operation_xyz
x,y,z
-y,x,z
-x,-y,z
y,-x,z
1/2+x,1/2-y,1/2-z
1/2-x,1/2+y,1/2-z
1/2+y,1/2+x,1/2-z
1/2-y,1/2-x,1/2-z
-x,-y,-z
y,-x,-z
x,y,-z
-y,x,-z
1/2-x,1/2+y,1/2+z
1/2+x,1/2-y,1/2+z
1/2-y,1/2-x,1/2+z
1/2+y,1/2+x,1/2+z
loop_
_atom_site_type_symbol
_atom_site_label
_atom_site_fract_x
_atom_site_fract_y
_atom_site_fract_z
Si Si1 0.147459 0.147457 0.846340
Si Si2 0.122504 0.281095 0.765969
Si Si3 0.181467 0.569288 0.000000
Si Si4 0.648051 0.068101 0.000000
Si Si5 0.069290 0.318531 0.500000
Si Si6 0.877499 0.281097 0.765970
Si Si7 0.069096 0.069094 0.348618
Si Si8 0.648049 0.931901 0.000000
O O1 0.134605 0.215649 0.816787
O O2 0.215650 0.134602 0.816788
O O3 0.106659 0.106657 0.755138
O O4 0.133320 0.133318 0.000000
O O5 0.185253 0.314748 0.750000
O O6 0.089933 0.279809 0.625065
O O7 0.078801 0.313165 0.869026
O O8 0.174354 0.499999 0.000000
O O9 0.220189 0.589931 0.874936
O O10 0.113943 0.593381 0.000000
O O11 0.624618 0.000001 0.000000
O O12 0.593383 0.113945 0.000000
O O13 0.814750 0.314750 0.750000
O O14 0.921201 0.313167 0.869026
O O15 0.086404 0.086403 0.500000
O O16 0.000001 0.082854 0.323751
#
# Coordination Sequence:
#
# PCOD8314665 Si02
#       8
#    16  16   8   8   8  16  16   8
#     4  12  24  40  62  93 116 155 201 238 295 366
#     4  10  22  40  59  85 123 158 195 246 299 349
#     4  10  22  38  59  89 122 160 204 248 295 350
#     4  10  20  38  61  85 122 164 200 248 301 344
#     4  10  22  38  59  89 122 160 204 248 295 350
#     4  10  22  40  59  85 123 158 195 246 299 349
#     4   9  22  45  65  85 119 155 190 239 292 345
#     4  10  20  38  61  85 122 164 200 248 301 344
#
# _framework density 18.923477999999999
#
# number of rings (size 3 to 8) (size 9 to 14) (size 15 to 20)
#    0.000    1.833    1.667    2.000    2.333    3.667 
#    0.000    0.833    0.000    6.000    0.000    0.000 
#    0.000    0.000    0.000    0.000    0.000    0.000 
#
# Total GULP energy -1190625.895840 kJ/mol
# GULP energy per Si atom -12402.353082 kJ/mol
# Density = 1.888041 g / cm^3
# Si number density = 18.923478 Si / 1000 Ang^3
#
#
#
# Elastic Constant Matrix: (Units=GPa)
#
#
# Indices 1 2 3 4 5 6 
#
# 1 97.0866 45.6764 49.7979 0.0000 0.0000 0.0000
# 2 45.6764 97.0881 49.7982 0.0000 0.0000 0.0000
# 3 49.7979 49.7982 164.2037 0.0000 0.0000 0.0000
# 4 0.0000 0.0000 0.0000 20.9723 0.0000 0.0000
# 5 0.0000 0.0000 0.0000 0.0000 20.9702 0.0000
# 6 0.0000 0.0000 0.0000 0.0000 0.0000 17.9471
#
#
#
# Elastic Compliance Matrix: (Units=1/GPa)
#
#
# Indices 1 2 3 4 5 6 
#
# 1 0.014168 -0.005283 -0.002694 0.000000 0.000000 0.000000
# 2 -0.005283 0.014168 -0.002694 0.000000 0.000000 0.000000
# 3 -0.002694 -0.002694 0.007724 0.000000 0.000000 0.000000
# 4 0.000000 0.000000 0.000000 0.047682 0.000000 0.000000
# 5 0.000000 0.000000 0.000000 0.000000 0.047687 0.000000
# 6 0.000000 0.000000 0.000000 0.000000 0.000000 0.055719
#
#
# Mechanical properties :
#
#
# Convention : Reuss Voigt Hill
#
# Bulk Modulus (GPa) = 67.95613 72.10258 70.02936
# Shear Modulus (GPa) = 23.43052 26.18497 24.80774
#
# Velocity S-wave (km/s) = 3.52258 3.72389 3.62463
# Velocity P-wave (km/s) = 7.24802 7.52826 7.38947
#
# Compressibility (1/GPa) = 0.01471538
#
# Stress axis : x y z
#
# Youngs Moduli (GPa) = 70.58276 70.58383 129.46313
#
# Poissons Ratio (x) = 0.37293 0.34882
# Poissons Ratio (y) = 0.37292 0.34881
# Poissons Ratio (z) = 0.19017 0.19017
#
# Static dielectric constant tensor:
#      x y z
#    x 3.407220 0.000000 0.000000 
#    y 0.000000 3.407220 0.000000 
#    z 0.000000 0.000000 3.738330 
# 
# 
# High freq. dielectric constant tensor:
#      x y z
#    x 1.733650 0.000000 0.000000 
#    y 0.000000 1.733650 0.000000 
#    z 0.000000 0.000000 1.758500 
# 
# From -- ./inp_files/1590.got.cif
#   From: 2010.03.12/outbox.cif.g09.slc.cpg/sg128_1_cif.got.tgz:1590.got - 2010.04.06 17:11:05.
