data_PCOD8314880
_publ_section_title
;
Structure prediction by ZEFSAII (Michael W. Deem and Ramdas Pophale) SiO2 
 PCOD8314880
Probable space group: P 4/N M M
;
_chemical_formula_sum "Si O2"
_cell_formula_units_Z 128
_cell_length_a 24.834194
_cell_length_b 24.834194
_cell_length_c 11.450986
_cell_angle_alpha 90.000000
_cell_angle_beta 90.000000
_cell_angle_gamma 90.000000
_cell_volume 7062.248947
_symmetry_space_group_name_H-M "P 4/N M M"
_symmetry_group_IT_number 129
_symmetry_cell_setting 'tetragonal'
loop_
_space_group_symop_operation_xyz
x,y,z
1/2-y,x,z
1/2-x,1/2-y,z
y,1/2-x,z
1/2+x,-y,-z
-x,1/2+y,-z
1/2+y,1/2+x,-z
-y,-x,-z
-x,-y,-z
1/2+y,-x,-z
1/2+x,1/2+y,-z
-y,1/2+x,-z
1/2-x,y,z
x,1/2-y,z
1/2-y,1/2-x,z
y,x,z
loop_
_atom_site_type_symbol
_atom_site_label
_atom_site_fract_x
_atom_site_fract_y
_atom_site_fract_z
Si Si1 0.400794 0.310590 0.152637
Si Si2 0.608863 0.309913 0.939009
Si Si3 0.005854 0.654164 0.961265
Si Si4 0.354367 0.059463 0.391690
Si Si5 0.375627 0.966047 0.797220
Si Si6 0.605576 0.312945 0.446309
Si Si7 0.500657 0.190541 0.596783
Si Si8 0.543481 0.111909 0.279960
O O1 0.377819 0.250000 0.141917
O O2 0.352822 0.352822 0.129977
O O3 0.447917 0.317894 0.056457
O O4 0.426708 0.317363 0.280658
O O5 0.630781 0.250000 0.911159
O O6 0.588814 0.340114 0.820859
O O7 0.656056 0.343945 0.000000
O O8 0.555392 0.304059 0.020912
O O9 0.020966 0.620176 0.849183
O O10 0.003850 0.615686 0.077821
O O11 0.390537 0.109464 0.427145
O O12 0.317328 0.046406 0.502147
O O13 0.391910 0.007709 0.365382
O O14 0.429106 0.946639 0.729935
O O15 0.347108 0.007339 0.709137
O O16 0.658648 0.341353 0.500000
O O17 0.617862 0.250000 0.418705
O O18 0.559244 0.319139 0.542276
O O19 0.584565 0.341945 0.327442
O O20 0.495242 0.250000 0.646648
#
# Coordination Sequence:
#
# PCOD8314880 Si02
#       8
#    16  16  16  16  16  16  16  16
#     4  10  20  36  59  85 113 139 169 212 258 314
#     4  10  19  31  49  72 100 138 181 227 275 317
#     4   9  19  34  53  78 104 140 180 217 260 313
#     4   9  20  35  54  80 107 134 171 215 261 316
#     4  10  18  33  52  74 103 137 177 227 266 311
#     4  10  20  32  48  68  94 129 172 225 273 320
#     4  10  19  32  53  73  98 136 175 212 260 319
#     4  10  17  34  53  73 101 134 178 221 270 324
#
# _framework density 18.124538000000001
#
# number of rings (size 3 to 8) (size 9 to 14) (size 15 to 20)
#    0.750    1.500    2.500    1.500    0.000    3.875 
#    0.000    2.500    0.000    3.375    0.000    0.000 
#    0.000    0.000    0.000    3.125    0.000    0.000 
#
# Total GULP energy -1585714.379326 kJ/mol
# GULP energy per Si atom -12388.393588 kJ/mol
# Density = 1.808329 g / cm^3
# Si number density = 18.124538 Si / 1000 Ang^3
#
#
#
# Elastic Constant Matrix: (Units=GPa)
#
#
# Indices 1 2 3 4 5 6 
#
# 1 65.1976 36.7920 15.1038 0.0000 0.0000 0.0000
# 2 36.7920 65.2009 15.1049 0.0000 0.0000 0.0000
# 3 15.1038 15.1049 72.0483 0.0000 0.0000 0.0000
# 4 0.0000 0.0000 0.0000 15.4011 0.0000 0.0000
# 5 0.0000 0.0000 0.0000 0.0000 15.4004 0.0000
# 6 0.0000 0.0000 0.0000 0.0000 0.0000 17.4353
#
#
#
# Elastic Compliance Matrix: (Units=1/GPa)
#
#
# Indices 1 2 3 4 5 6 
#
# 1 0.022829 -0.012374 -0.002191 0.000000 0.000000 0.000000
# 2 -0.012374 0.022828 -0.002192 0.000000 0.000000 0.000000
# 3 -0.002191 -0.002192 0.014798 0.000000 0.000000 0.000000
# 4 0.000000 0.000000 0.000000 0.064931 0.000000 0.000000
# 5 0.000000 0.000000 0.000000 0.000000 0.064933 0.000000
# 6 0.000000 0.000000 0.000000 0.000000 0.000000 0.057355
#
#
# Mechanical properties :
#
#
# Convention : Reuss Voigt Hill
#
# Bulk Modulus (GPa) = 37.11960 37.38313 37.25136
# Shear Modulus (GPa) = 17.23138 18.67708 17.95423
#
# Velocity S-wave (km/s) = 3.08672 3.21360 3.15080
# Velocity P-wave (km/s) = 5.76442 5.86857 5.81673
#
# Compressibility (1/GPa) = 0.02693995
#
# Stress axis : x y z
#
# Youngs Moduli (GPa) = 43.80471 43.80672 67.57459
#
# Poissons Ratio (x) = 0.54207 0.14808
# Poissons Ratio (y) = 0.54205 0.14810
# Poissons Ratio (z) = 0.09599 0.09601
#
# Static dielectric constant tensor:
#      x y z
#    x 3.133750 0.000000 0.000000 
#    y 0.000000 3.133750 0.000000 
#    z 0.000000 0.000000 3.308560 
# 
# 
# High freq. dielectric constant tensor:
#      x y z
#    x 1.677400 0.000000 0.000000 
#    y 0.000000 1.677400 0.000000 
#    z 0.000000 0.000000 1.700680 
# 
# From -- ./inp_files/4216.got.cif
#   From: 2010.03.12/outbox.cif.g09.slc.cpg/sg129_3_cif.got.tgz:4216.got - 2010.04.06 17:19:44.
