data_PCOD8314538
_publ_section_title
;
Structure prediction by ZEFSAII (Michael W. Deem and Ramdas Pophale) SiO2 
 PCOD8314538
Probable space group: P 4/M N C
;
_chemical_formula_sum "Si O2"
_cell_formula_units_Z 96
_cell_length_a 24.258794
_cell_length_b 24.258794
_cell_length_c 8.742331
_cell_angle_alpha 90.000000
_cell_angle_beta 90.000000
_cell_angle_gamma 90.000000
_cell_volume 5144.766383
_symmetry_space_group_name_H-M "P 4/M N C"
_symmetry_group_IT_number 128
_symmetry_cell_setting 'tetragonal'
loop_
_space_group_symop_operation_xyz
x,y,z
-y,x,z
-x,-y,z
y,-x,z
1/2+x,1/2-y,1/2-z
1/2-x,1/2+y,1/2-z
1/2+y,1/2+x,1/2-z
1/2-y,1/2-x,1/2-z
-x,-y,-z
y,-x,-z
x,y,-z
-y,x,-z
1/2-x,1/2+y,1/2+z
1/2+x,1/2-y,1/2+z
1/2-y,1/2-x,1/2+z
1/2+y,1/2+x,1/2+z
loop_
_atom_site_type_symbol
_atom_site_label
_atom_site_fract_x
_atom_site_fract_y
_atom_site_fract_z
Si Si1 0.561871 0.561861 0.181670
Si Si2 0.271047 0.852363 0.181259
Si Si3 0.772621 0.352034 0.179248
Si Si4 0.356014 0.935729 0.318103
Si Si5 0.347113 0.352059 0.181105
Si Si6 0.860171 0.439492 0.819857
O O1 0.499998 0.577314 0.238700
O O2 0.606082 0.606129 0.244587
O O3 0.562503 0.563489 0.000000
O O4 0.295144 0.795144 0.250000
O O5 0.306072 0.903368 0.241974
O O6 0.209489 0.864923 0.234343
O O7 0.274421 0.848509 0.000000
O O8 0.794638 0.294638 0.250000
O O9 0.709899 0.364699 0.225889
O O10 0.809046 0.402948 0.241164
O O11 0.778448 0.345504 0.000000
O O12 0.413388 0.913388 0.250000
O O13 0.354403 0.927948 0.500000
O O14 0.350063 0.998568 0.265757
O O15 0.338653 0.358884 0.000000
O O16 0.917079 0.417079 0.750000
O O17 0.865267 0.436235 0.000000
#
# Coordination Sequence:
#
# PCOD8314538 Si02
#       6
#    16  16  16  16  16  16
#     4   8  15  29  50  77 106 135 170 212 254 296
#     4  11  22  36  53  74 103 135 168 208 254 305
#     4   9  18  32  49  72 101 133 167 205 252 299
#     4  10  20  35  54  76 103 135 172 213 256 301
#     4  10  19  31  52  79 104 132 167 208 252 302
#     4   9  19  34  52  74 102 136 173 213 255 300
#
# _framework density 18.659739999999999
#
# number of rings (size 3 to 8) (size 9 to 14) (size 15 to 20)
#    0.000    2.500    0.000    4.000    0.000    5.000 
#    0.000    6.667    0.000    3.000    0.000    1.167 
#    0.000    0.000    0.000    0.000    0.000    0.000 
#
# Total GULP energy -1190229.782717 kJ/mol
# GULP energy per Si atom -12398.226903 kJ/mol
# Density = 1.861727 g / cm^3
# Si number density = 18.659740 Si / 1000 Ang^3
#
#
#
# Elastic Constant Matrix: (Units=GPa)
#
#
# Indices 1 2 3 4 5 6 
#
# 1 152.8237 87.7465 39.7203 0.0000 0.0000 0.0000
# 2 87.7465 152.8237 39.7203 0.0000 0.0000 0.0000
# 3 39.7203 39.7203 52.4665 0.0000 0.0000 0.0000
# 4 0.0000 0.0000 0.0000 23.8354 0.0000 0.0000
# 5 0.0000 0.0000 0.0000 0.0000 23.8354 0.0000
# 6 0.0000 0.0000 0.0000 0.0000 0.0000 27.4114
#
#
#
# Elastic Compliance Matrix: (Units=1/GPa)
#
#
# Indices 1 2 3 4 5 6 
#
# 1 0.010454 -0.004912 -0.004196 0.000000 0.000000 0.000000
# 2 -0.004912 0.010454 -0.004196 0.000000 0.000000 0.000000
# 3 -0.004196 -0.004196 0.025413 0.000000 0.000000 0.000000
# 4 0.000000 0.000000 0.000000 0.041954 0.000000 0.000000
# 5 0.000000 0.000000 0.000000 0.000000 0.041954 0.000000
# 6 0.000000 0.000000 0.000000 0.000000 0.000000 0.036481
#
#
# Mechanical properties :
#
#
# Convention : Reuss Voigt Hill
#
# Bulk Modulus (GPa) = 50.72538 76.94310 63.83424
# Shear Modulus (GPa) = 25.01372 27.74491 26.37932
#
# Velocity S-wave (km/s) = 3.66528 3.86020 3.76400
# Velocity P-wave (km/s) = 6.71981 7.82257 7.29206
#
# Compressibility (1/GPa) = 0.01971400
#
# Stress axis : x y z
#
# Youngs Moduli (GPa) = 95.65391 95.65391 39.35018
#
# Poissons Ratio (x) = 0.46985 0.16511
# Poissons Ratio (y) = 0.46985 0.16511
# Poissons Ratio (z) = 0.40135 0.40135
#
# Static dielectric constant tensor:
#      x y z
#    x 3.664330 0.000000 0.000000 
#    y 0.000000 3.664330 0.000000 
#    z 0.000000 0.000000 3.202100 
# 
# 
# High freq. dielectric constant tensor:
#      x y z
#    x 1.728730 0.000000 0.000000 
#    y 0.000000 1.728730 0.000000 
#    z 0.000000 0.000000 1.703450 
# 
# From -- ./inp_files/1435.got.cif
#   From: 2010.03.12/outbox.cif.g09.slc.cpg/sg128_1_cif.got.tgz:1435.got - 2010.04.06 17:11:05.
