data_PCOD8314048
_publ_section_title
;
Structure prediction by ZEFSAII (Michael W. Deem and Ramdas Pophale) SiO2 
 PCOD8314048
Probable space group: P 4/M B M
;
_chemical_formula_sum "Si O2"
_cell_formula_units_Z 112
_cell_length_a 19.649722
_cell_length_b 19.649722
_cell_length_c 17.216184
_cell_angle_alpha 90.000000
_cell_angle_beta 90.000000
_cell_angle_gamma 90.000000
_cell_volume 6647.367914
_symmetry_space_group_name_H-M "P 4/M B M"
_symmetry_group_IT_number 127
_symmetry_cell_setting 'tetragonal'
loop_
_space_group_symop_operation_xyz
x,y,z
-y,x,z
-x,-y,z
y,-x,z
1/2+x,1/2-y,-z
1/2-x,1/2+y,-z
1/2+y,1/2+x,-z
1/2-y,1/2-x,-z
-x,-y,-z
y,-x,-z
x,y,-z
-y,x,-z
1/2-x,1/2+y,z
1/2+x,1/2-y,z
1/2-y,1/2-x,z
1/2+y,1/2+x,z
loop_
_atom_site_type_symbol
_atom_site_label
_atom_site_fract_x
_atom_site_fract_y
_atom_site_fract_z
Si Si1 0.191554 0.421532 0.411571
Si Si2 0.657246 0.955471 0.315986
Si Si3 0.249246 0.042108 0.090135
Si Si4 0.946762 0.662068 0.821619
Si Si5 0.997954 0.894677 0.091760
Si Si6 0.747140 0.360131 0.228199
Si Si7 0.256405 0.355075 0.724960
O O1 0.216674 0.416840 0.500000
O O2 0.124939 0.375062 0.396722
O O3 0.172629 0.499923 0.392447
O O4 0.253852 0.397160 0.356191
O O5 0.597097 0.902904 0.334868
O O6 0.726219 0.916647 0.289215
O O7 0.633701 0.006820 0.248149
O O8 0.183797 0.997584 0.115958
O O9 0.246649 0.110188 0.141083
O O10 0.314766 0.995280 0.107752
O O11 0.249139 0.063496 0.000000
O O12 0.898498 0.601503 0.851756
O O13 0.902198 0.726469 0.793320
O O14 0.931550 0.933545 0.124619
O O15 0.998981 0.900486 0.000000
O O16 0.798231 0.298231 0.225194
O O17 0.672234 0.332384 0.254046
O O18 0.210573 0.289428 0.712694
#
# Coordination Sequence:
#
# PCOD8314048 Si02
#       7
#    16  16  16  16  16  16  16
#     4   9  17  29  47  72  99 124 151 186 228 275
#     4   9  17  30  47  68  95 125 157 194 232 275
#     4  10  20  30  45  68  91 119 155 204 250 284
#     4   9  18  31  46  65  90 125 163 195 233 286
#     4   8  15  28  43  59  83 111 138 177 235 296
#     4   9  18  32  48  65  89 124 161 195 236 284
#     4   8  15  30  49  66  89 122 157 189 224 277
#
# _framework density 16.848773999999999
#
# number of rings (size 3 to 8) (size 9 to 14) (size 15 to 20)
#    0.000    3.143    0.000    1.714    2.000    2.000 
#    0.000    1.429    0.000    5.143    0.000    4.000 
#    0.000    0.000    0.000    6.714    0.000    0.571 
#
# Total GULP energy -1387863.735247 kJ/mol
# GULP energy per Si atom -12391.640493 kJ/mol
# Density = 1.681043 g / cm^3
# Si number density = 16.848774 Si / 1000 Ang^3
#
#
#
# Elastic Constant Matrix: (Units=GPa)
#
#
# Indices 1 2 3 4 5 6 
#
# 1 63.3256 26.4226 33.0043 0.0000 0.0000 0.0000
# 2 26.4226 63.3256 33.0043 0.0000 0.0000 0.0000
# 3 33.0043 33.0043 77.7987 0.0000 0.0000 0.0000
# 4 0.0000 0.0000 0.0000 16.5851 0.0000 0.0000
# 5 0.0000 0.0000 0.0000 0.0000 16.5851 0.0000
# 6 0.0000 0.0000 0.0000 0.0000 0.0000 26.8090
#
#
#
# Elastic Compliance Matrix: (Units=1/GPa)
#
#
# Indices 1 2 3 4 5 6 
#
# 1 0.021647 -0.005451 -0.006871 0.000000 0.000000 0.000000
# 2 -0.005451 0.021647 -0.006871 0.000000 0.000000 0.000000
# 3 -0.006871 -0.006871 0.018683 0.000000 0.000000 0.000000
# 4 0.000000 0.000000 0.000000 0.060295 0.000000 0.000000
# 5 0.000000 0.000000 0.000000 0.000000 0.060295 0.000000
# 6 0.000000 0.000000 0.000000 0.000000 0.000000 0.037301
#
#
# Mechanical properties :
#
#
# Convention : Reuss Voigt Hill
#
# Bulk Modulus (GPa) = 42.38766 43.25692 42.82229
# Shear Modulus (GPa) = 18.78879 19.46376 19.12628
#
# Velocity S-wave (km/s) = 3.34300 3.40252 3.37289
# Velocity P-wave (km/s) = 6.33350 6.41604 6.37490
#
# Compressibility (1/GPa) = 0.02359177
#
# Stress axis : x y z
#
# Youngs Moduli (GPa) = 46.19627 46.19627 53.52456
#
# Poissons Ratio (x) = 0.25183 0.36774
# Poissons Ratio (y) = 0.25183 0.36774
# Poissons Ratio (z) = 0.31739 0.31739
#
# Static dielectric constant tensor:
#      x y z
#    x 3.321600 0.000000 0.000000 
#    y 0.000000 3.321600 0.000000 
#    z 0.000000 0.000000 2.927700 
# 
# 
# High freq. dielectric constant tensor:
#      x y z
#    x 1.643270 0.000000 0.000000 
#    y 0.000000 1.643270 0.000000 
#    z 0.000000 0.000000 1.619790 
# 
# From -- ./inp_files/5346.got.cif
#   From: 2010.03.12/outbox.cif.g09.slc.cpg/sg127_3_cif.got.tgz:5346.got - 2010.04.06 17:03:15.
