data_PCOD8314050
_publ_section_title
;
Structure prediction by ZEFSAII (Michael W. Deem and Ramdas Pophale) SiO2 
 PCOD8314050
Probable space group: P 4/M B M
;
_chemical_formula_sum "Si O2"
_cell_formula_units_Z 96
_cell_length_a 15.994666
_cell_length_b 15.994666
_cell_length_c 20.369547
_cell_angle_alpha 90.000000
_cell_angle_beta 90.000000
_cell_angle_gamma 90.000000
_cell_volume 5211.127774
_symmetry_space_group_name_H-M "P 4/M B M"
_symmetry_group_IT_number 127
_symmetry_cell_setting 'tetragonal'
loop_
_space_group_symop_operation_xyz
x,y,z
-y,x,z
-x,-y,z
y,-x,z
1/2+x,1/2-y,-z
1/2-x,1/2+y,-z
1/2+y,1/2+x,-z
1/2-y,1/2-x,-z
-x,-y,-z
y,-x,-z
x,y,-z
-y,x,-z
1/2-x,1/2+y,z
1/2+x,1/2-y,z
1/2-y,1/2-x,z
1/2+y,1/2+x,z
loop_
_atom_site_type_symbol
_atom_site_label
_atom_site_fract_x
_atom_site_fract_y
_atom_site_fract_z
Si Si1 0.665446 0.032558 0.134958
Si Si2 0.113836 0.751177 0.071651
Si Si3 0.663408 0.297105 0.822124
Si Si4 0.238679 0.880350 0.317617
Si Si5 0.888077 0.078040 0.424916
Si Si6 0.133656 0.505821 0.720379
O O1 0.578704 0.078704 0.115716
O O2 0.738619 0.100205 0.138516
O O3 0.689633 0.964742 0.080817
O O4 0.656612 0.983786 0.203528
O O5 0.198756 0.698756 0.070525
O O6 0.121573 0.819233 0.131377
O O7 0.103440 0.794995 0.000000
O O8 0.750454 0.250454 0.809513
O O9 0.626997 0.316923 0.749321
O O10 0.306490 0.806490 0.321184
O O11 0.177790 0.874101 0.379360
O O12 0.285595 0.971326 0.318988
O O13 0.862916 0.095482 0.500000
O O14 0.979540 0.114169 0.410151
O O15 0.095366 0.595366 0.694875
O O16 0.063431 0.436570 0.713284
#
# Coordination Sequence:
#
# PCOD8314050 Si02
#       6
#    16  16  16  16  16  16
#     4   9  17  30  48  67  88 119 160 202 242 290
#     4  10  20  31  44  65  93 124 157 197 246 292
#     4   8  17  33  48  66  94 125 157 192 235 290
#     4   9  17  30  52  80 102 125 164 208 247 291
#     4   9  19  36  54  71  97 134 169 200 241 292
#     4   8  14  26  45  70 101 131 154 186 241 299
#
# _framework density 18.422115999999999
#
# number of rings (size 3 to 8) (size 9 to 14) (size 15 to 20)
#    0.000    3.167    0.000    3.000    0.000    5.000 
#    0.000    5.000    0.000    2.000    0.000    3.500 
#    0.000    0.000    0.000    0.000    0.000    0.000 
#
# Total GULP energy -1189282.051208 kJ/mol
# GULP energy per Si atom -12388.354700 kJ/mol
# Density = 1.838019 g / cm^3
# Si number density = 18.422116 Si / 1000 Ang^3
#
#
#
# Elastic Constant Matrix: (Units=GPa)
#
#
# Indices 1 2 3 4 5 6 
#
# 1 50.3998 20.3288 41.6199 0.0000 0.0000 0.0000
# 2 20.3288 50.3998 41.6199 0.0000 0.0000 0.0000
# 3 41.6199 41.6199 107.6744 0.0000 0.0000 0.0000
# 4 0.0000 0.0000 0.0000 24.1671 0.0000 0.0000
# 5 0.0000 0.0000 0.0000 0.0000 24.1671 0.0000
# 6 0.0000 0.0000 0.0000 0.0000 0.0000 23.4539
#
#
#
# Elastic Compliance Matrix: (Units=1/GPa)
#
#
# Indices 1 2 3 4 5 6 
#
# 1 0.029596 -0.003658 -0.010026 0.000000 0.000000 0.000000
# 2 -0.003658 0.029596 -0.010026 0.000000 0.000000 0.000000
# 3 -0.010026 -0.010026 0.017038 0.000000 0.000000 0.000000
# 4 0.000000 0.000000 0.000000 0.041378 0.000000 0.000000
# 5 0.000000 0.000000 0.000000 0.000000 0.041378 0.000000
# 6 0.000000 0.000000 0.000000 0.000000 0.000000 0.042637
#
#
# Mechanical properties :
#
#
# Convention : Reuss Voigt Hill
#
# Bulk Modulus (GPa) = 34.70989 46.17902 40.44446
# Shear Modulus (GPa) = 19.33128 21.35133 20.34130
#
# Velocity S-wave (km/s) = 3.24288 3.40811 3.32652
# Velocity P-wave (km/s) = 5.73621 6.37248 6.06270
#
# Compressibility (1/GPa) = 0.02881023
#
# Stress axis : x y z
#
# Youngs Moduli (GPa) = 33.78799 33.78799 58.69233
#
# Poissons Ratio (x) = 0.12361 0.58845
# Poissons Ratio (y) = 0.12361 0.58845
# Poissons Ratio (z) = 0.33876 0.33876
#
# Static dielectric constant tensor:
#      x y z
#    x 3.300510 0.000000 0.000000 
#    y 0.000000 3.300510 0.000000 
#    z 0.000000 0.000000 3.347160 
# 
# 
# High freq. dielectric constant tensor:
#      x y z
#    x 1.694670 0.000000 0.000000 
#    y 0.000000 1.694670 0.000000 
#    z 0.000000 0.000000 1.696450 
# 
# From -- ./inp_files/5092.got.cif
#   From: 2010.03.12/outbox.cif.g09.slc.cpg/sg127_3_cif.got.tgz:5092.got - 2010.04.06 17:03:15.
