data_PCOD8314097
_publ_section_title
;
Structure prediction by ZEFSAII (Michael W. Deem and Ramdas Pophale) SiO2 
 PCOD8314097
Probable space group: P 4/M B M
;
_chemical_formula_sum "Si O2"
_cell_formula_units_Z 120
_cell_length_a 27.176399
_cell_length_b 27.176399
_cell_length_c 8.898652
_cell_angle_alpha 90.000000
_cell_angle_beta 90.000000
_cell_angle_gamma 90.000000
_cell_volume 6572.158723
_symmetry_space_group_name_H-M "P 4/M B M"
_symmetry_group_IT_number 127
_symmetry_cell_setting 'tetragonal'
loop_
_space_group_symop_operation_xyz
x,y,z
-y,x,z
-x,-y,z
y,-x,z
1/2+x,1/2-y,-z
1/2-x,1/2+y,-z
1/2+y,1/2+x,-z
1/2-y,1/2-x,-z
-x,-y,-z
y,-x,-z
x,y,-z
-y,x,-z
1/2-x,1/2+y,z
1/2+x,1/2-y,z
1/2-y,1/2-x,z
1/2+y,1/2+x,z
loop_
_atom_site_type_symbol
_atom_site_label
_atom_site_fract_x
_atom_site_fract_y
_atom_site_fract_z
Si Si1 0.950663 0.875999 0.173657
Si Si2 0.130979 0.496303 0.332503
Si Si3 0.907474 0.327033 0.822752
Si Si4 0.552293 0.738621 0.675665
Si Si5 0.124616 0.052882 0.674784
Si Si6 0.462721 0.962721 0.174850
Si Si7 0.762498 0.051290 0.172890
Si Si8 0.604820 0.184576 0.332245
O O1 0.905150 0.907163 0.232434
O O2 0.936232 0.819429 0.197509
O O3 0.998920 0.889938 0.267831
O O4 0.961017 0.888018 0.000000
O O5 0.110498 0.506414 0.500000
O O6 0.151026 0.546707 0.266713
O O7 0.091084 0.476876 0.219752
O O8 0.168816 0.451788 0.337504
O O9 0.857627 0.357627 0.784612
O O10 0.905480 0.270648 0.762135
O O11 0.917437 0.328216 0.000000
O O12 0.552758 0.752211 0.500000
O O13 0.564427 0.681778 0.704698
O O14 0.498216 0.751881 0.737689
O O15 0.111314 0.056388 0.500000
O O16 0.500000 0.000000 0.255695
O O17 0.467211 0.967211 0.000000
O O18 0.733131 0.100513 0.228242
O O19 0.749612 0.041314 0.000000
O O20 0.622262 0.198820 0.500000
O O21 0.642704 0.142704 0.268420
#
# Coordination Sequence:
#
# PCOD8314097 Si02
#       8
#    16  16  16  16  16   8  16  16
#     4  10  21  37  58  87 121 153 183 217 261 314
#     4  11  21  34  50  69  95 130 172 220 275 332
#     4  11  23  36  51  74 103 135 176 227 280 330
#     4  10  20  35  56  80 107 141 182 226 270 320
#     4  10  21  37  59  88 119 151 186 221 258 308
#     4  11  23  35  45  61  91 131 173 217 271 335
#     4  10  20  34  55  81 108 141 181 224 270 322
#     4  10  20  34  51  73 102 135 176 227 279 327
#
# _framework density 18.258841
#
# number of rings (size 3 to 8) (size 9 to 14) (size 15 to 20)
#    0.000    1.667    2.000    3.000    0.000    7.467 
#    0.000    1.333    0.000    0.800    0.000    0.000 
#    0.000    0.000    0.000    0.000    0.000    0.000 
#
# Total GULP energy -1487405.670285 kJ/mol
# GULP energy per Si atom -12395.047252 kJ/mol
# Density = 1.821728 g / cm^3
# Si number density = 18.258841 Si / 1000 Ang^3
#
#
#
# Elastic Constant Matrix: (Units=GPa)
#
#
# Indices 1 2 3 4 5 6 
#
# 1 80.0354 44.5858 32.2143 0.0000 0.0000 0.0000
# 2 44.5858 80.0354 32.2143 0.0000 0.0000 0.0000
# 3 32.2143 32.2143 77.1525 0.0000 0.0000 0.0000
# 4 0.0000 0.0000 0.0000 33.0679 0.0000 0.0000
# 5 0.0000 0.0000 0.0000 0.0000 33.0679 0.0000
# 6 0.0000 0.0000 0.0000 0.0000 0.0000 29.3649
#
#
#
# Elastic Compliance Matrix: (Units=1/GPa)
#
#
# Indices 1 2 3 4 5 6 
#
# 1 0.019221 -0.008988 -0.004273 0.000000 0.000000 0.000000
# 2 -0.008988 0.019221 -0.004273 0.000000 0.000000 0.000000
# 3 -0.004273 -0.004273 0.016530 0.000000 0.000000 0.000000
# 4 0.000000 0.000000 0.000000 0.030241 0.000000 0.000000
# 5 0.000000 0.000000 0.000000 0.000000 0.030241 0.000000
# 6 0.000000 0.000000 0.000000 0.000000 0.000000 0.034054
#
#
# Mechanical properties :
#
#
# Convention : Reuss Voigt Hill
#
# Bulk Modulus (GPa) = 50.23898 50.58356 50.41127
# Shear Modulus (GPa) = 26.14928 27.64740 26.89834
#
# Velocity S-wave (km/s) = 3.78847 3.89548 3.84235
# Velocity P-wave (km/s) = 6.83457 6.92797 6.88143
#
# Compressibility (1/GPa) = 0.01990486
#
# Stress axis : x y z
#
# Youngs Moduli (GPa) = 52.02585 52.02585 60.49786
#
# Poissons Ratio (x) = 0.46760 0.25850
# Poissons Ratio (y) = 0.46760 0.25850
# Poissons Ratio (z) = 0.22230 0.22230
#
# Static dielectric constant tensor:
#      x y z
#    x 3.374520 0.000000 0.000000 
#    y 0.000000 3.374520 0.000000 
#    z 0.000000 0.000000 3.576460 
# 
# 
# High freq. dielectric constant tensor:
#      x y z
#    x 1.694540 0.000000 0.000000 
#    y 0.000000 1.694540 0.000000 
#    z 0.000000 0.000000 1.723710 
# 
# From -- ./inp_files/2422.got.cif
#   From: 2010.03.12/outbox.cif.g09.slc.cpg/sg127_2_cif.got.tgz:2422.got - 2010.04.06 17:03:15.
