data_PCOD8314244
_publ_section_title
;
Structure prediction by ZEFSAII (Michael W. Deem and Ramdas Pophale) SiO2 
 PCOD8314244
Probable space group: P 4/M B M
;
_chemical_formula_sum "Si O2"
_cell_formula_units_Z 56
_cell_length_a 20.220653
_cell_length_b 20.220653
_cell_length_c 7.543439
_cell_angle_alpha 90.000000
_cell_angle_beta 90.000000
_cell_angle_gamma 90.000000
_cell_volume 3084.322171
_symmetry_space_group_name_H-M "P 4/M B M"
_symmetry_group_IT_number 127
_symmetry_cell_setting 'tetragonal'
loop_
_space_group_symop_operation_xyz
x,y,z
-y,x,z
-x,-y,z
y,-x,z
1/2+x,1/2-y,-z
1/2-x,1/2+y,-z
1/2+y,1/2+x,-z
1/2-y,1/2-x,-z
-x,-y,-z
y,-x,-z
x,y,-z
-y,x,-z
1/2-x,1/2+y,z
1/2+x,1/2-y,z
1/2-y,1/2-x,z
1/2+y,1/2+x,z
loop_
_atom_site_type_symbol
_atom_site_label
_atom_site_fract_x
_atom_site_fract_y
_atom_site_fract_z
Si Si1 0.986266 0.301320 0.704352
Si Si2 0.552694 0.947307 0.709837
Si Si3 0.612380 0.338809 0.000000
Si Si4 0.300396 0.536516 0.000000
Si Si5 0.633268 0.240476 0.299421
O O1 0.964964 0.289297 0.500000
O O2 0.964209 0.373305 0.773766
O O3 0.064921 0.298340 0.727991
O O4 0.953119 0.244951 0.825751
O O5 0.548594 0.951407 0.500000
O O6 0.500000 0.000000 0.790567
O O7 0.533341 0.337705 0.000000
O O8 0.639460 0.412598 0.000000
O O9 0.639805 0.303683 0.824727
O O10 0.640511 0.265856 0.500000
O O11 0.690514 0.190514 0.245714
#
# Coordination Sequence:
#
# PCOD8314244 Si02
#       5
#    16   8   8   8  16
#     4   9  18  33  52  76 108 139 169 209 252 297
#     4   9  16  29  51  79 110 147 179 200 237 299
#     4  10  21  37  55  76  99 130 169 220 267 316
#     4  10  22  38  55  73  98 131 172 220 274 311
#     4   9  17  32  54  78 103 136 174 208 246 297
#
# _framework density 18.15634
#
# number of rings (size 3 to 8) (size 9 to 14) (size 15 to 20)
#    0.000    2.714    0.000    1.286    0.000    5.429 
#    5.143    2.857    0.000    0.000    0.000    8.000 
#    0.000    0.000    0.000    0.000    0.000    0.000 
#
# Total GULP energy -694395.528198 kJ/mol
# GULP energy per Si atom -12399.920146 kJ/mol
# Density = 1.811501 g / cm^3
# Si number density = 18.156340 Si / 1000 Ang^3
#
#
#
# Elastic Constant Matrix: (Units=GPa)
#
#
# Indices 1 2 3 4 5 6 
#
# 1 104.3221 77.6871 51.5211 0.0000 0.0000 0.0000
# 2 77.6871 104.3221 51.5211 0.0000 0.0000 0.0000
# 3 51.5211 51.5211 95.1286 0.0000 0.0000 0.0000
# 4 0.0000 0.0000 0.0000 20.5284 0.0000 0.0000
# 5 0.0000 0.0000 0.0000 0.0000 20.5284 0.0000
# 6 0.0000 0.0000 0.0000 0.0000 0.0000 35.0004
#
#
#
# Elastic Compliance Matrix: (Units=1/GPa)
#
#
# Indices 1 2 3 4 5 6 
#
# 1 0.022734 -0.014810 -0.004291 0.000000 0.000000 0.000000
# 2 -0.014810 0.022734 -0.004291 0.000000 0.000000 0.000000
# 3 -0.004291 -0.004291 0.015161 0.000000 0.000000 0.000000
# 4 0.000000 0.000000 0.000000 0.048713 0.000000 0.000000
# 5 0.000000 0.000000 0.000000 0.000000 0.048713 0.000000
# 6 0.000000 0.000000 0.000000 0.000000 0.000000 0.028571
#
#
# Mechanical properties :
#
#
# Convention : Reuss Voigt Hill
#
# Bulk Modulus (GPa) = 72.24269 73.91461 73.07865
# Shear Modulus (GPa) = 21.00601 23.41432 22.21017
#
# Velocity S-wave (km/s) = 3.40509 3.59499 3.50133
# Velocity P-wave (km/s) = 7.43876 7.61777 7.52880
#
# Compressibility (1/GPa) = 0.01384223
#
# Stress axis : x y z
#
# Youngs Moduli (GPa) = 43.98654 43.98651 65.96053
#
# Poissons Ratio (x) = 0.65146 0.28307
# Poissons Ratio (y) = 0.65146 0.28307
# Poissons Ratio (z) = 0.18877 0.18877
#
# Static dielectric constant tensor:
#      x y z
#    x 3.163850 0.000000 0.000000 
#    y 0.000000 3.163840 0.000000 
#    z 0.000000 0.000000 3.697950 
# 
# 
# High freq. dielectric constant tensor:
#      x y z
#    x 1.689190 0.000000 0.000000 
#    y 0.000000 1.689190 0.000000 
#    z 0.000000 0.000000 1.712730 
# 
# From -- ./inp_files/1140.got.cif
#   From: 2010.03.12/outbox.cif.g09.slc.cpg/sg127_1_cif.got.tgz:1140.got - 2010.04.06 17:03:15.
