data_PCOD8314209
_publ_section_title
;
Structure prediction by ZEFSAII (Michael W. Deem and Ramdas Pophale) SiO2 
 PCOD8314209
Probable space group: P 4/M B M
;
_chemical_formula_sum "Si O2"
_cell_formula_units_Z 112
_cell_length_a 14.421195
_cell_length_b 14.421195
_cell_length_c 28.329900
_cell_angle_alpha 90.000000
_cell_angle_beta 90.000000
_cell_angle_gamma 90.000000
_cell_volume 5891.793815
_symmetry_space_group_name_H-M "P 4/M B M"
_symmetry_group_IT_number 127
_symmetry_cell_setting 'tetragonal'
loop_
_space_group_symop_operation_xyz
x,y,z
-y,x,z
-x,-y,z
y,-x,z
1/2+x,1/2-y,-z
1/2-x,1/2+y,-z
1/2+y,1/2+x,-z
1/2-y,1/2-x,-z
-x,-y,-z
y,-x,-z
x,y,-z
-y,x,-z
1/2-x,1/2+y,z
1/2+x,1/2-y,z
1/2-y,1/2-x,z
1/2+y,1/2+x,z
loop_
_atom_site_type_symbol
_atom_site_label
_atom_site_fract_x
_atom_site_fract_y
_atom_site_fract_z
Si Si1 0.494129 0.148712 0.868268
Si Si2 0.743332 0.396497 0.643553
Si Si3 0.755716 0.100442 0.687475
Si Si4 0.438354 0.360649 0.553471
Si Si5 0.397434 0.744159 0.204799
Si Si6 0.090647 0.255625 0.947922
Si Si7 0.900935 0.886063 0.874856
O O1 0.564479 0.064479 0.869402
O O2 0.514901 0.209986 0.821937
O O3 0.504637 0.206735 0.916623
O O4 0.389098 0.110903 0.864803
O O5 0.838316 0.338316 0.650542
O O6 0.756993 0.501076 0.662397
O O7 0.657274 0.344423 0.668565
O O8 0.719803 0.402639 0.588019
O O9 0.661649 0.161649 0.681226
O O10 0.777723 0.075846 0.741685
O O11 0.546362 0.380053 0.562876
O O12 0.422929 0.326118 0.500000
O O13 0.309056 0.809056 0.203383
O O14 0.368144 0.651737 0.176181
O O15 0.165478 0.334523 0.954156
O O16 0.139609 0.171463 0.919230
O O17 0.055741 0.224045 0.000000
O O18 0.010331 0.870404 0.879215
#
# Coordination Sequence:
#
# PCOD8314209 Si02
#       7
#    16  16  16  16  16  16  16
#     4   8  14  27  49  74  98 128 165 205 254 311
#     4  11  22  37  60  88 121 161 200 246 304 355
#     4  10  23  39  57  87 120 155 202 247 296 359
#     4   9  17  33  59  88 118 155 202 254 303 351
#     4   9  19  37  56  75 106 140 172 219 271 322
#     4   9  18  34  54  73  98 132 166 209 266 318
#     4  10  21  35  52  76 102 131 172 213 256 318
#
# _framework density 19.009491000000001
#
# number of rings (size 3 to 8) (size 9 to 14) (size 15 to 20)
#    0.000    2.571    1.429    1.714    2.000    2.286 
#    0.000    9.286    0.000    0.429    0.000    1.000 
#    0.000    0.000    0.000    0.000    0.000    0.000 
#
# Total GULP energy -1387876.369277 kJ/mol
# GULP energy per Si atom -12391.753297 kJ/mol
# Density = 1.896622 g / cm^3
# Si number density = 19.009491 Si / 1000 Ang^3
#
#
#
# Elastic Constant Matrix: (Units=GPa)
#
#
# Indices 1 2 3 4 5 6 
#
# 1 67.8331 33.6980 38.9435 0.0000 0.0000 0.0000
# 2 33.6980 67.8331 38.9435 0.0000 0.0000 0.0000
# 3 38.9435 38.9435 155.5352 0.0000 0.0000 0.0000
# 4 0.0000 0.0000 0.0000 18.9317 0.0000 0.0000
# 5 0.0000 0.0000 0.0000 0.0000 18.9317 0.0000
# 6 0.0000 0.0000 0.0000 0.0000 0.0000 -30.5615
#
#
#
# Elastic Compliance Matrix: (Units=1/GPa)
#
#
# Indices 1 2 3 4 5 6 
#
# 1 0.020743 -0.008552 -0.003052 0.000000 0.000000 0.000000
# 2 -0.008552 0.020743 -0.003052 0.000000 0.000000 0.000000
# 3 -0.003052 -0.003052 0.007958 0.000000 0.000000 0.000000
# 4 0.000000 0.000000 0.000000 0.052821 0.000000 0.000000
# 5 0.000000 0.000000 0.000000 0.000000 0.052821 0.000000
# 6 0.000000 0.000000 0.000000 0.000000 0.000000 -0.032721
#
#
# Mechanical properties :
#
#
# Convention : Reuss Voigt Hill
#
# Bulk Modulus (GPa) = 49.67720 57.15238 53.41479
# Shear Modulus (GPa) = 31.56767 13.43483 22.50125
#
# Velocity S-wave (km/s) = 4.07950 2.66135 3.44420
# Velocity P-wave (km/s) = 6.95553 6.29080 6.63150
#
# Compressibility (1/GPa) = 0.02012996
#
# Stress axis : x y z
#
# Youngs Moduli (GPa) = 48.20894 48.20894 125.66077
#
# Poissons Ratio (x) = 0.41230 0.38356
# Poissons Ratio (y) = 0.41230 0.38356
# Poissons Ratio (z) = 0.14715 0.14715
#
# Static dielectric constant tensor:
#      x y z
#    x 3.457550 0.000000 0.000000 
#    y 0.000000 3.457550 0.000000 
#    z 0.000000 0.000000 3.913520 
# 
# 
# High freq. dielectric constant tensor:
#      x y z
#    x 1.729670 0.000000 0.000000 
#    y 0.000000 1.729670 0.000000 
#    z 0.000000 0.000000 1.744260 
# 
# From -- ./inp_files/6401.got.cif
#   From: 2010.03.12/outbox.cif.g09.slc.cpg/sg127_4_cif.got.tgz:6401.got - 2010.04.06 17:03:15.
