data_PCOD8314471
_publ_section_title
;
Structure prediction by ZEFSAII (Michael W. Deem and Ramdas Pophale) SiO2 
 PCOD8314471
Probable space group: P 4/M B M
;
_chemical_formula_sum "Si O2"
_cell_formula_units_Z 96
_cell_length_a 21.845234
_cell_length_b 21.845234
_cell_length_c 13.681094
_cell_angle_alpha 90.000000
_cell_angle_beta 90.000000
_cell_angle_gamma 90.000000
_cell_volume 6528.812992
_symmetry_space_group_name_H-M "P 4/M B M"
_symmetry_group_IT_number 127
_symmetry_cell_setting 'tetragonal'
loop_
_space_group_symop_operation_xyz
x,y,z
-y,x,z
-x,-y,z
y,-x,z
1/2+x,1/2-y,-z
1/2-x,1/2+y,-z
1/2+y,1/2+x,-z
1/2-y,1/2-x,-z
-x,-y,-z
y,-x,-z
x,y,-z
-y,x,-z
1/2-x,1/2+y,z
1/2+x,1/2-y,z
1/2-y,1/2-x,z
1/2+y,1/2+x,z
loop_
_atom_site_type_symbol
_atom_site_label
_atom_site_fract_x
_atom_site_fract_y
_atom_site_fract_z
Si Si1 0.490203 0.190173 0.887154
Si Si2 0.523831 0.324263 0.885195
Si Si3 0.420657 0.181709 0.392632
Si Si4 0.099238 0.497896 0.275229
Si Si5 0.369516 0.230788 0.795242
Si Si6 0.355870 0.610143 0.883232
O O1 0.524531 0.252902 0.855963
O O2 0.518123 0.134706 0.824818
O O3 0.417758 0.197780 0.867245
O O4 0.500792 0.174738 0.000000
O O5 0.460880 0.356004 0.849883
O O6 0.582516 0.359029 0.840723
O O7 0.527586 0.331262 0.000000
O O8 0.431573 0.211476 0.500000
O O9 0.368831 0.131170 0.399877
O O10 0.483336 0.148441 0.357919
O O11 0.399143 0.232459 0.314070
O O12 0.054004 0.554004 0.252831
O O13 0.061667 0.438334 0.310589
O O14 0.306238 0.193763 0.797011
O O15 0.355402 0.299150 0.831737
O O16 0.348804 0.616569 0.000000
#
# Coordination Sequence:
#
# PCOD8314471 Si02
#       6
#    16  16  16  16  16  16
#     4   9  16  26  38  52  76 107 135 166 198 224
#     4   8  15  26  39  56  78 105 132 158 194 236
#     4   8  14  25  40  57  76  96 123 164 206 237
#     4   9  17  26  36  54  78 106 141 171 197 234
#     4   9  16  25  39  59  78  99 129 161 196 233
#     4   9  16  26  40  59  83 106 129 158 190 231
#
# _framework density 14.704051
#
# number of rings (size 3 to 8) (size 9 to 14) (size 15 to 20)
#    0.000    3.333    0.000    3.000    0.000    3.333 
#    0.000    5.000    0.000    3.000    0.000   10.500 
#    0.000    8.000    0.000   13.500    0.000    1.500 
#
# Total GULP energy -1189717.646056 kJ/mol
# GULP energy per Si atom -12392.892146 kJ/mol
# Density = 1.467058 g / cm^3
# Si number density = 14.704051 Si / 1000 Ang^3
#
#
#
# Elastic Constant Matrix: (Units=GPa)
#
#
# Indices 1 2 3 4 5 6 
#
# 1 72.0384 39.7877 26.5231 0.0000 0.0000 0.0000
# 2 39.7877 72.0384 26.5231 0.0000 0.0000 0.0000
# 3 26.5231 26.5231 69.5456 0.0000 0.0000 0.0000
# 4 0.0000 0.0000 0.0000 10.2992 0.0000 0.0000
# 5 0.0000 0.0000 0.0000 0.0000 10.2992 0.0000
# 6 0.0000 0.0000 0.0000 0.0000 0.0000 14.8309
#
#
#
# Elastic Compliance Matrix: (Units=1/GPa)
#
#
# Indices 1 2 3 4 5 6 
#
# 1 0.020962 -0.010045 -0.004164 0.000000 0.000000 0.000000
# 2 -0.010045 0.020962 -0.004164 0.000000 0.000000 0.000000
# 3 -0.004164 -0.004164 0.017555 0.000000 0.000000 0.000000
# 4 0.000000 0.000000 0.000000 0.097095 0.000000 0.000000
# 5 0.000000 0.000000 0.000000 0.000000 0.097095 0.000000
# 6 0.000000 0.000000 0.000000 0.000000 0.000000 0.067427
#
#
# Mechanical properties :
#
#
# Convention : Reuss Voigt Hill
#
# Bulk Modulus (GPa) = 43.98459 44.36558 44.17509
# Shear Modulus (GPa) = 13.68292 15.13843 14.41067
#
# Velocity S-wave (km/s) = 3.05381 3.21213 3.13397
# Velocity P-wave (km/s) = 6.51249 6.63286 6.57295
#
# Compressibility (1/GPa) = 0.02273523
#
# Stress axis : x y z
#
# Youngs Moduli (GPa) = 47.70459 47.70459 56.96401
#
# Poissons Ratio (x) = 0.47918 0.23718
# Poissons Ratio (y) = 0.47918 0.23718
# Poissons Ratio (z) = 0.19863 0.19863
#
# Static dielectric constant tensor:
#      x y z
#    x 2.858450 0.000000 0.000000 
#    y 0.000000 2.858450 0.000000 
#    z 0.000000 0.000000 2.961320 
# 
# 
# High freq. dielectric constant tensor:
#      x y z
#    x 1.545340 0.000000 0.000000 
#    y 0.000000 1.545340 0.000000 
#    z 0.000000 0.000000 1.538200 
# 
# From -- ./inp_files/4538.got.cif
#   From: 2010.03.12/outbox.cif.g09.slc.cpg/sg127_3_cif.got.tgz:4538.got - 2010.04.06 17:03:15.
