data_PCOD8314817
_publ_section_title
;
Structure prediction by ZEFSAII (Michael W. Deem and Ramdas Pophale) SiO2 
 PCOD8314817
Probable space group: P 4/M N C
;
_chemical_formula_sum "Si O2"
_cell_formula_units_Z 112
_cell_length_a 14.342560
_cell_length_b 14.342560
_cell_length_c 28.520300
_cell_angle_alpha 90.000000
_cell_angle_beta 90.000000
_cell_angle_gamma 90.000000
_cell_volume 5866.883173
_symmetry_space_group_name_H-M "P 4/M N C"
_symmetry_group_IT_number 128
_symmetry_cell_setting 'tetragonal'
loop_
_space_group_symop_operation_xyz
x,y,z
-y,x,z
-x,-y,z
y,-x,z
1/2+x,1/2-y,1/2-z
1/2-x,1/2+y,1/2-z
1/2+y,1/2+x,1/2-z
1/2-y,1/2-x,1/2-z
-x,-y,-z
y,-x,-z
x,y,-z
-y,x,-z
1/2-x,1/2+y,1/2+z
1/2+x,1/2-y,1/2+z
1/2-y,1/2-x,1/2+z
1/2+y,1/2+x,1/2+z
loop_
_atom_site_type_symbol
_atom_site_label
_atom_site_fract_x
_atom_site_fract_y
_atom_site_fract_z
Si Si1 0.364566 0.581245 0.000000
Si Si2 0.559886 0.639154 0.824889
Si Si3 0.250268 0.431167 0.407350
Si Si4 0.945157 0.595879 0.553853
Si Si5 0.902419 0.264696 0.588464
Si Si6 0.850748 0.034273 0.000000
Si Si7 0.371776 0.266809 0.631399
Si Si8 0.637872 0.428674 0.281042
O O1 0.373447 0.468230 0.000000
O O2 0.308950 0.619239 0.046215
O O3 0.452192 0.620031 0.833821
O O4 0.588164 0.715237 0.862071
O O5 0.581508 0.673625 0.772359
O O6 0.140678 0.409149 0.410059
O O7 0.281233 0.452265 0.458771
O O8 0.280274 0.519915 0.378005
O O9 0.304272 0.345331 0.386741
O O10 0.915933 0.616805 0.500000
O O11 0.000000 0.500000 0.556556
O O12 0.006835 0.680628 0.572389
O O13 0.823996 0.339631 0.602705
O O14 0.930891 0.110113 0.000000
O O15 0.377221 0.280748 0.688111
O O16 0.623272 0.539282 0.290416
#
# Coordination Sequence:
#
# PCOD8314817 Si02
#       8
#     8  16  16  16  16   8  16  16
#     4  11  26  45  66  93 127 164 214 283 337 373
#     4   9  20  40  66  94 123 160 207 271 332 381
#     4  12  24  39  60  90 126 166 214 260 308 378
#     4  11  24  43  61  83 127 177 213 250 309 384
#     4  12  25  40  64  95 126 166 220 261 320 390
#     4  11  22  35  54  85 127 159 192 261 318 352
#     4  12  25  37  63  95 123 167 217 260 314 380
#     4   9  18  38  66  92 125 163 205 260 331 387
#
# _framework density 19.090204
#
# number of rings (size 3 to 8) (size 9 to 14) (size 15 to 20)
#    0.000    1.143    5.714    1.714    4.000    3.143 
#    0.000    0.000    0.000    0.857    0.000    0.000 
#    0.000    0.000    0.000    0.000    0.000    0.000 
#
# Total GULP energy -1387477.235068 kJ/mol
# GULP energy per Si atom -12388.189599 kJ/mol
# Density = 1.904675 g / cm^3
# Si number density = 19.090204 Si / 1000 Ang^3
#
#
#
# Elastic Constant Matrix: (Units=GPa)
#
#
# Indices 1 2 3 4 5 6 
#
# 1 60.0502 23.1489 24.4297 0.0000 0.0000 0.0000
# 2 23.1489 60.0502 24.4297 0.0000 0.0000 0.0000
# 3 24.4297 24.4297 111.7196 0.0000 0.0000 0.0000
# 4 0.0000 0.0000 0.0000 32.8825 0.0000 0.0000
# 5 0.0000 0.0000 0.0000 0.0000 32.8825 0.0000
# 6 0.0000 0.0000 0.0000 0.0000 0.0000 31.3801
#
#
#
# Elastic Compliance Matrix: (Units=1/GPa)
#
#
# Indices 1 2 3 4 5 6 
#
# 1 0.020445 -0.006655 -0.003016 0.000000 0.000000 0.000000
# 2 -0.006655 0.020445 -0.003016 0.000000 0.000000 0.000000
# 3 -0.003016 -0.003016 0.010270 0.000000 0.000000 0.000000
# 4 0.000000 0.000000 0.000000 0.030411 0.000000 0.000000
# 5 0.000000 0.000000 0.000000 0.000000 0.030411 0.000000
# 6 0.000000 0.000000 0.000000 0.000000 0.000000 0.031867
#
#
# Mechanical properties :
#
#
# Convention : Reuss Voigt Hill
#
# Bulk Modulus (GPa) = 38.77737 41.75961 40.26849
# Shear Modulus (GPa) = 28.11888 30.08314 29.10101
#
# Velocity S-wave (km/s) = 3.84206 3.97399 3.90859
# Velocity P-wave (km/s) = 6.32762 6.55585 6.44275
#
# Compressibility (1/GPa) = 0.02578824
#
# Stress axis : x y z
#
# Youngs Moduli (GPa) = 48.91223 48.91223 97.37303
#
# Poissons Ratio (x) = 0.32549 0.29363
# Poissons Ratio (y) = 0.32549 0.29363
# Poissons Ratio (z) = 0.14750 0.14750
#
# Static dielectric constant tensor:
#      x y z
#    x 3.523200 0.000000 0.000000 
#    y 0.000000 3.523200 0.000000 
#    z 0.000000 0.000000 3.641350 
# 
# 
# High freq. dielectric constant tensor:
#      x y z
#    x 1.740850 0.000000 0.000000 
#    y 0.000000 1.740850 0.000000 
#    z 0.000000 0.000000 1.750840 
# 
# From -- ./inp_files/6929.got.cif
#   From: 2010.03.12/outbox.cif.g09.slc.cpg/sg128_4_cif.got.tgz:6929.got - 2010.04.06 17:11:05.
