data_PCOD8314592
_publ_section_title
;
Structure prediction by ZEFSAII (Michael W. Deem and Ramdas Pophale) SiO2 
 PCOD8314592
Probable space group: P 4/M N C
;
_chemical_formula_sum "Si O2"
_cell_formula_units_Z 120
_cell_length_a 18.664926
_cell_length_b 18.664926
_cell_length_c 19.103238
_cell_angle_alpha 90.000000
_cell_angle_beta 90.000000
_cell_angle_gamma 90.000000
_cell_volume 6655.175788
_symmetry_space_group_name_H-M "P 4/M N C"
_symmetry_group_IT_number 128
_symmetry_cell_setting 'tetragonal'
loop_
_space_group_symop_operation_xyz
x,y,z
-y,x,z
-x,-y,z
y,-x,z
1/2+x,1/2-y,1/2-z
1/2-x,1/2+y,1/2-z
1/2+y,1/2+x,1/2-z
1/2-y,1/2-x,1/2-z
-x,-y,-z
y,-x,-z
x,y,-z
-y,x,-z
1/2-x,1/2+y,1/2+z
1/2+x,1/2-y,1/2+z
1/2-y,1/2-x,1/2+z
1/2+y,1/2+x,1/2+z
loop_
_atom_site_type_symbol
_atom_site_label
_atom_site_fract_x
_atom_site_fract_y
_atom_site_fract_z
Si Si1 0.884267 0.991910 0.224614
Si Si2 0.865136 0.382146 0.667253
Si Si3 0.342135 0.834088 0.333395
Si Si4 0.511752 0.226429 0.683846
Si Si5 0.060895 0.899856 0.500000
Si Si6 0.061681 0.822127 0.640006
Si Si7 0.319837 0.991403 0.344220
Si Si8 0.205513 0.755453 0.324961
O O1 0.869525 0.988180 0.308414
O O2 0.934240 0.924351 0.205208
O O3 0.810257 0.990060 0.180455
O O4 0.866648 0.366648 0.750000
O O5 0.824159 0.453983 0.644680
O O6 0.819318 0.316270 0.633860
O O7 0.948299 0.381447 0.641715
O O8 0.339980 0.839980 0.250000
O O9 0.412079 0.787551 0.353997
O O10 0.347479 0.913478 0.368366
O O11 0.270375 0.796633 0.364421
O O12 0.513511 0.200678 0.763128
O O13 0.086909 0.861347 0.570075
O O14 0.976016 0.902204 0.500000
O O15 0.134635 0.804655 0.682957
O O16 0.017085 0.751890 0.616130
O O17 0.237110 0.737110 0.250000
#
# Coordination Sequence:
#
# PCOD8314592 Si02
#       8
#    16  16  16  16   8  16  16  16
#     4  10  20  28  40  59  84 123 166 204 237 290
#     4   8  14  26  37  54  82 116 143 180 238 298
#     4   9  17  24  39  63  82 110 150 194 246 312
#     4   9  17  25  40  59  87 115 147 191 241 304
#     4  11  24  36  46  66  98 141 197 235 252 285
#     4  10  20  32  49  63  91 130 171 227 263 292
#     4   8  16  28  40  60  82 110 156 195 249 297
#     4   9  17  27  46  66  87 119 159 211 270 323
#
# _framework density 18.031079999999999
#
# number of rings (size 3 to 8) (size 9 to 14) (size 15 to 20)
#    0.000    2.867    0.000    3.200   11.200    1.600 
#    0.000    2.667    0.000    0.000    0.000    0.000 
#    0.000   12.800    0.000    0.533    0.000    0.000 
#
# Total GULP energy -1486757.689060 kJ/mol
# GULP energy per Si atom -12389.647409 kJ/mol
# Density = 1.799004 g / cm^3
# Si number density = 18.031080 Si / 1000 Ang^3
#
#
#
# Elastic Constant Matrix: (Units=GPa)
#
#
# Indices 1 2 3 4 5 6 
#
# 1 113.4313 78.0389 10.3064 0.0000 0.0000 0.0000
# 2 78.0389 113.4313 10.3064 0.0000 0.0000 0.0000
# 3 10.3064 10.3064 16.1338 0.0000 0.0000 0.0000
# 4 0.0000 0.0000 0.0000 5.7678 0.0000 0.0000
# 5 0.0000 0.0000 0.0000 0.0000 5.7678 0.0000
# 6 0.0000 0.0000 0.0000 0.0000 0.0000 24.3702
#
#
#
# Elastic Compliance Matrix: (Units=1/GPa)
#
#
# Indices 1 2 3 4 5 6 
#
# 1 0.016932 -0.011323 -0.003583 0.000000 0.000000 0.000000
# 2 -0.011323 0.016932 -0.003583 0.000000 0.000000 0.000000
# 3 -0.003583 -0.003583 0.066559 0.000000 0.000000 0.000000
# 4 0.000000 0.000000 0.000000 0.173378 0.000000 0.000000
# 5 0.000000 0.000000 0.000000 0.000000 0.173378 0.000000
# 6 0.000000 0.000000 0.000000 0.000000 0.000000 0.041034
#
#
# Mechanical properties :
#
#
# Convention : Reuss Voigt Hill
#
# Bulk Modulus (GPa) = 15.76170 48.92223 32.34197
# Shear Modulus (GPa) = 9.15187 16.80412 12.97800
#
# Velocity S-wave (km/s) = 2.25536 3.05610 2.68574
# Velocity P-wave (km/s) = 3.94240 6.29636 5.25293
#
# Compressibility (1/GPa) = 0.06344492
#
# Stress axis : x y z
#
# Youngs Moduli (GPa) = 59.06139 59.06139 15.02428
#
# Poissons Ratio (x) = 0.66876 0.05383
# Poissons Ratio (y) = 0.66876 0.05383
# Poissons Ratio (z) = 0.21160 0.21160
#
# Static dielectric constant tensor:
#      x y z
#    x 3.677300 0.000000 0.000000 
#    y 0.000000 3.677300 0.000000 
#    z 0.000000 0.000000 2.477860 
# 
# 
# High freq. dielectric constant tensor:
#      x y z
#    x 1.713750 0.000000 0.000000 
#    y 0.000000 1.713750 0.000000 
#    z 0.000000 0.000000 1.588520 
# 
# From -- ./inp_files/6030.got.cif
#   From: 2010.03.12/outbox.cif.g09.slc.cpg/sg128_4_cif.got.tgz:6030.got - 2010.04.06 17:11:05.
