data_PCOD8314768
_publ_section_title
;
Structure prediction by ZEFSAII (Michael W. Deem and Ramdas Pophale) SiO2 
 PCOD8314768
Probable space group: P 4/M N C
;
_chemical_formula_sum "Si O2"
_cell_formula_units_Z 48
_cell_length_a 11.382873
_cell_length_b 11.382873
_cell_length_c 17.524432
_cell_angle_alpha 90.000000
_cell_angle_beta 90.000000
_cell_angle_gamma 90.000000
_cell_volume 2270.637110
_symmetry_space_group_name_H-M "P 4/M N C"
_symmetry_group_IT_number 128
_symmetry_cell_setting 'tetragonal'
loop_
_space_group_symop_operation_xyz
x,y,z
-y,x,z
-x,-y,z
y,-x,z
1/2+x,1/2-y,1/2-z
1/2-x,1/2+y,1/2-z
1/2+y,1/2+x,1/2-z
1/2-y,1/2-x,1/2-z
-x,-y,-z
y,-x,-z
x,y,-z
-y,x,-z
1/2-x,1/2+y,1/2+z
1/2+x,1/2-y,1/2+z
1/2-y,1/2-x,1/2+z
1/2+y,1/2+x,1/2+z
loop_
_atom_site_type_symbol
_atom_site_label
_atom_site_fract_x
_atom_site_fract_y
_atom_site_fract_z
Si Si1 0.198872 0.298671 0.500000
Si Si2 0.500000 0.000000 0.872012
Si Si3 0.637627 0.137627 0.250000
Si Si4 0.329360 0.408959 0.359302
Si Si5 0.926676 0.348315 0.500000
O O1 0.244016 0.365367 0.425574
O O2 0.242027 0.164206 0.500000
O O3 0.058275 0.296243 0.500000
O O4 0.558028 0.101957 0.821741
O O5 0.406379 0.068080 0.925948
O O6 0.619497 0.272560 0.276237
O O7 0.452005 0.343212 0.366604
#
# Coordination Sequence:
#
# PCOD8314768 Si02
#       5
#     8   8   8  16   8
#     4  12  24  44  68 100 130 179 220 289 318 399
#     4  10  22  42  66 100 128 176 222 266 320 412
#     4  11  22  42  68  93 134 178 210 271 326 402
#     4  11  25  44  67  99 133 171 221 276 336 391
#     4  11  24  43  70  98 134 173 238 268 335 382
#
# _framework density 21.13944
#
# number of rings (size 3 to 8) (size 9 to 14) (size 15 to 20)
#    0.000    1.000    3.333    3.000    4.667    7.000 
#    0.000    0.000    0.000    0.000    0.000    0.000 
#    0.000    0.000    0.000    0.000    0.000    0.000 
#
# Total GULP energy -595106.660256 kJ/mol
# GULP energy per Si atom -12398.055422 kJ/mol
# Density = 2.109133 g / cm^3
# Si number density = 21.139440 Si / 1000 Ang^3
#
#
#
# Elastic Constant Matrix: (Units=GPa)
#
#
# Indices 1 2 3 4 5 6 
#
# 1 141.6613 63.8253 61.4474 0.0000 0.0000 0.0000
# 2 63.8253 141.6613 61.4474 0.0000 0.0000 0.0000
# 3 61.4474 61.4474 142.6554 0.0000 0.0000 0.0000
# 4 0.0000 0.0000 0.0000 26.5068 0.0000 0.0000
# 5 0.0000 0.0000 0.0000 0.0000 26.5068 0.0000
# 6 0.0000 0.0000 0.0000 0.0000 0.0000 29.6031
#
#
#
# Elastic Compliance Matrix: (Units=1/GPa)
#
#
# Indices 1 2 3 4 5 6 
#
# 1 0.009701 -0.003146 -0.002824 0.000000 0.000000 0.000000
# 2 -0.003146 0.009701 -0.002824 0.000000 0.000000 0.000000
# 3 -0.002824 -0.002824 0.009442 0.000000 0.000000 0.000000
# 4 0.000000 0.000000 0.000000 0.037726 0.000000 0.000000
# 5 0.000000 0.000000 0.000000 0.000000 0.037726 0.000000
# 6 0.000000 0.000000 0.000000 0.000000 0.000000 0.033780
#
#
# Mechanical properties :
#
#
# Convention : Reuss Voigt Hill
#
# Bulk Modulus (GPa) = 88.82254 88.82428 88.82341
# Shear Modulus (GPa) = 31.36425 32.47386 31.91906
#
# Velocity S-wave (km/s) = 3.85604 3.92366 3.89000
# Velocity P-wave (km/s) = 7.86982 7.91431 7.89210
#
# Compressibility (1/GPa) = 0.01125840
#
# Stress axis : x y z
#
# Youngs Moduli (GPa) = 103.07834 103.07834 105.90569
#
# Poissons Ratio (x) = 0.32430 0.29903
# Poissons Ratio (y) = 0.32430 0.29903
# Poissons Ratio (z) = 0.29105 0.29105
#
# Static dielectric constant tensor:
#      x y z
#    x 3.916020 0.000000 0.000000 
#    y 0.000000 3.916020 0.000000 
#    z 0.000000 0.000000 4.135440 
# 
# 
# High freq. dielectric constant tensor:
#      x y z
#    x 1.830200 0.000000 0.000000 
#    y 0.000000 1.830200 0.000000 
#    z 0.000000 0.000000 1.840240 
# 
# From -- ./inp_files/4382.got.cif
#   From: 2010.03.12/outbox.cif.g09.slc.cpg/sg128_3_cif.got.tgz:4382.got - 2010.04.06 17:11:05.
