data_PCOD8314820
_publ_section_title
;
Structure prediction by ZEFSAII (Michael W. Deem and Ramdas Pophale) SiO2 
 PCOD8314820
Probable space group: P 4/M N C
;
_chemical_formula_sum "Si O2"
_cell_formula_units_Z 88
_cell_length_a 16.354443
_cell_length_b 16.354443
_cell_length_c 15.101636
_cell_angle_alpha 90.000000
_cell_angle_beta 90.000000
_cell_angle_gamma 90.000000
_cell_volume 4039.201446
_symmetry_space_group_name_H-M "P 4/M N C"
_symmetry_group_IT_number 128
_symmetry_cell_setting 'tetragonal'
loop_
_space_group_symop_operation_xyz
x,y,z
-y,x,z
-x,-y,z
y,-x,z
1/2+x,1/2-y,1/2-z
1/2-x,1/2+y,1/2-z
1/2+y,1/2+x,1/2-z
1/2-y,1/2-x,1/2-z
-x,-y,-z
y,-x,-z
x,y,-z
-y,x,-z
1/2-x,1/2+y,1/2+z
1/2+x,1/2-y,1/2+z
1/2-y,1/2-x,1/2+z
1/2+y,1/2+x,1/2+z
loop_
_atom_site_type_symbol
_atom_site_label
_atom_site_fract_x
_atom_site_fract_y
_atom_site_fract_z
Si Si1 0.440124 0.190177 0.239505
Si Si2 0.879131 0.943313 0.500000
Si Si3 0.565458 0.385999 0.336416
Si Si4 0.782413 0.554352 0.599631
Si Si5 0.412089 0.806698 0.897073
Si Si6 0.658040 0.357259 0.831177
O O1 0.397747 0.102254 0.250000
O O2 0.479777 0.213697 0.332756
O O3 0.506986 0.185815 0.161729
O O4 0.369895 0.258163 0.222736
O O5 0.831774 0.921811 0.589124
O O6 0.961021 0.890679 0.500000
O O7 0.609817 0.469727 0.363187
O O8 0.600239 0.305667 0.386573
O O9 0.578704 0.375265 0.230503
O O10 0.788414 0.520588 0.500000
O O11 0.857443 0.613841 0.619490
O O12 0.352338 0.733198 0.869073
O O13 0.437946 0.797190 0.000000
#
# Coordination Sequence:
#
# PCOD8314820 Si02
#       6
#    16   8  16  16  16  16
#     4  12  28  46  73 104 140 186 234 293 350 418
#     4  11  22  36  62 102 142 178 218 281 354 430
#     4  11  22  40  67  99 136 182 227 281 346 420
#     4  11  26  47  69  97 136 186 239 289 342 411
#     4  11  25  46  74 102 140 184 234 297 360 420
#     4  12  23  41  68 102 142 181 227 285 356 422
#
# _framework density 21.786484999999999
#
# number of rings (size 3 to 8) (size 9 to 14) (size 15 to 20)
#    0.000    0.636    4.545    2.727    3.818    4.364 
#    0.000    2.727    0.000    0.000    0.000    0.000 
#    0.000    0.000    0.000    0.000    0.000    0.000 
#
# Total GULP energy -1091147.542330 kJ/mol
# GULP energy per Si atom -12399.403890 kJ/mol
# Density = 2.173690 g / cm^3
# Si number density = 21.786485 Si / 1000 Ang^3
#
#
#
# Elastic Constant Matrix: (Units=GPa)
#
#
# Indices 1 2 3 4 5 6 
#
# 1 95.5215 55.3534 60.5007 0.0000 0.0000 0.0000
# 2 55.3534 95.5262 60.5017 0.0000 0.0000 0.0000
# 3 60.5007 60.5017 137.8584 0.0000 0.0000 0.0000
# 4 0.0000 0.0000 0.0000 12.6209 0.0000 0.0000
# 5 0.0000 0.0000 0.0000 0.0000 12.6240 0.0000
# 6 0.0000 0.0000 0.0000 0.0000 0.0000 18.8352
#
#
#
# Elastic Compliance Matrix: (Units=1/GPa)
#
#
# Indices 1 2 3 4 5 6 
#
# 1 0.017561 -0.007333 -0.004489 0.000000 0.000000 0.000000
# 2 -0.007333 0.017560 -0.004488 0.000000 0.000000 0.000000
# 3 -0.004489 -0.004488 0.011194 0.000000 0.000000 0.000000
# 4 0.000000 0.000000 0.000000 0.079234 0.000000 0.000000
# 5 0.000000 0.000000 0.000000 0.000000 0.079214 0.000000
# 6 0.000000 0.000000 0.000000 0.000000 0.000000 0.053092
#
#
# Mechanical properties :
#
#
# Convention : Reuss Voigt Hill
#
# Bulk Modulus (GPa) = 73.02107 75.73529 74.37818
# Shear Modulus (GPa) = 16.94680 18.98603 17.96642
#
# Velocity S-wave (km/s) = 2.79204 2.95525 2.87480
# Velocity P-wave (km/s) = 6.63200 6.81782 6.72555
#
# Compressibility (1/GPa) = 0.01369468
#
# Stress axis : x y z
#
# Youngs Moduli (GPa) = 56.94340 56.94657 89.33689
#
# Poissons Ratio (x) = 0.41759 0.40101
# Poissons Ratio (y) = 0.41757 0.40098
# Poissons Ratio (z) = 0.25560 0.25560
#
# Static dielectric constant tensor:
#      x y z
#    x 3.908130 0.000000 0.000000 
#    y 0.000000 3.908130 0.000000 
#    z 0.000000 0.000000 1.979820 
# 
# 
# High freq. dielectric constant tensor:
#      x y z
#    x 1.853680 0.000000 0.000000 
#    y 0.000000 1.853680 0.000000 
#    z 0.000000 0.000000 1.863790 
# 
# From -- ./inp_files/3863.got.cif
#   From: 2010.03.12/outbox.cif.g09.slc.cpg/sg128_2_cif.got.tgz:3863.got - 2010.04.06 17:11:05.
