data_PCOD8314301
_publ_section_title
;
Structure prediction by ZEFSAII (Michael W. Deem and Ramdas Pophale) SiO2 
 PCOD8314301
Probable space group: P 4/M B M
;
_chemical_formula_sum "Si O2"
_cell_formula_units_Z 64
_cell_length_a 14.820718
_cell_length_b 14.820718
_cell_length_c 17.563979
_cell_angle_alpha 90.000000
_cell_angle_beta 90.000000
_cell_angle_gamma 90.000000
_cell_volume 3857.992659
_symmetry_space_group_name_H-M "P 4/M B M"
_symmetry_group_IT_number 127
_symmetry_cell_setting 'tetragonal'
loop_
_space_group_symop_operation_xyz
x,y,z
-y,x,z
-x,-y,z
y,-x,z
1/2+x,1/2-y,-z
1/2-x,1/2+y,-z
1/2+y,1/2+x,-z
1/2-y,1/2-x,-z
-x,-y,-z
y,-x,-z
x,y,-z
-y,x,-z
1/2-x,1/2+y,z
1/2+x,1/2-y,z
1/2-y,1/2-x,z
1/2+y,1/2+x,z
loop_
_atom_site_type_symbol
_atom_site_label
_atom_site_fract_x
_atom_site_fract_y
_atom_site_fract_z
Si Si1 0.186419 0.686419 0.589527
Si Si2 0.176382 0.181240 0.706499
Si Si3 0.073328 0.573328 0.703936
Si Si4 0.482598 0.647766 0.915154
Si Si5 0.496683 0.254006 0.767176
O O1 0.179021 0.679021 0.500000
O O2 0.163307 0.788290 0.619357
O O3 0.116251 0.616251 0.627876
O O4 0.245529 0.254472 0.744036
O O5 0.181178 0.088211 0.752407
O O6 0.075395 0.219005 0.707768
O O7 0.149476 0.526737 0.755895
O O8 0.000000 0.500000 0.678326
O O9 0.401806 0.577654 0.903556
O O10 0.471474 0.728266 0.853887
O O11 0.477778 0.689896 0.000000
#
# Coordination Sequence:
#
# PCOD8314301 Si02
#       5
#     8  16   8  16  16
#     4   8  18  39  56  78 113 136 173 232 274 313
#     4   9  20  32  53  79 105 143 183 222 276 329
#     4  10  22  35  57  84 107 150 194 219 263 340
#     4   9  17  28  48  81 110 136 178 233 283 326
#     4  11  17  34  55  77 112 141 183 234 270 332
#
# _framework density 16.588937000000001
#
# number of rings (size 3 to 8) (size 9 to 14) (size 15 to 20)
#    0.750    1.750    3.750    1.500    0.000    0.750 
#    0.000    5.625    0.000    5.250    0.000    7.000 
#    0.000    0.000    0.000    0.000    0.000    0.000 
#
# Total GULP energy -792994.959495 kJ/mol
# GULP energy per Si atom -12390.546242 kJ/mol
# Density = 1.655118 g / cm^3
# Si number density = 16.588937 Si / 1000 Ang^3
#
#
#
# Elastic Constant Matrix: (Units=GPa)
#
#
# Indices 1 2 3 4 5 6 
#
# 1 54.9490 83.6902 38.1221 0.0000 0.0000 0.0000
# 2 83.6902 54.9490 38.1221 0.0000 0.0000 0.0000
# 3 38.1221 38.1221 126.8836 0.0000 0.0000 0.0000
# 4 0.0000 0.0000 0.0000 18.5509 0.0000 0.0000
# 5 0.0000 0.0000 0.0000 0.0000 18.5509 0.0000
# 6 0.0000 0.0000 0.0000 0.0000 0.0000 32.6137
#
#
#
# Elastic Compliance Matrix: (Units=1/GPa)
#
#
# Indices 1 2 3 4 5 6 
#
# 1 -0.013076 0.021717 -0.002596 0.000000 0.000000 0.000000
# 2 0.021717 -0.013076 -0.002596 0.000000 0.000000 0.000000
# 3 -0.002596 -0.002596 0.009441 0.000000 0.000000 0.000000
# 4 0.000000 0.000000 0.000000 0.053906 0.000000 0.000000
# 5 0.000000 0.000000 0.000000 0.000000 0.053906 0.000000
# 6 0.000000 0.000000 0.000000 0.000000 0.000000 0.030662
#
#
# Mechanical properties :
#
#
# Convention : Reuss Voigt Hill
#
# Bulk Modulus (GPa) = 61.20612 61.85003 61.52807
# Shear Modulus (GPa) = 53.10196 19.06626 36.08411
#
# Velocity S-wave (km/s) = 5.66392 3.39386 4.66895
# Velocity P-wave (km/s) = 8.93024 7.26103 8.13854
#
# Compressibility (1/GPa) = 0.01633824
#
# Stress axis : x y z
#
# Youngs Moduli (GPa) = -76.47443 -76.47443 105.91850
#
# Poissons Ratio (x) = 1.66079 0.27497
# Poissons Ratio (y) = 1.66079 0.27497
# Poissons Ratio (z) = -0.19853 -0.19853
#
# Static dielectric constant tensor:
#      x y z
#    x 3.021620 0.000000 0.000000 
#    y 0.000000 3.021620 0.000000 
#    z 0.000000 0.000000 2.893070 
# 
# 
# High freq. dielectric constant tensor:
#      x y z
#    x 1.632440 0.000000 0.000000 
#    y 0.000000 1.632440 0.000000 
#    z 0.000000 0.000000 1.616010 
# 
# From -- ./inp_files/4894.got.cif
#   From: 2010.03.12/outbox.cif.g09.slc.cpg/sg127_3_cif.got.tgz:4894.got - 2010.04.06 17:03:15.
