data_PCOD8314398
_publ_section_title
;
Structure prediction by ZEFSAII (Michael W. Deem and Ramdas Pophale) SiO2 
 PCOD8314398
Probable space group: P 4/M B M
;
_chemical_formula_sum "Si O2"
_cell_formula_units_Z 88
_cell_length_a 13.147530
_cell_length_b 13.147530
_cell_length_c 26.988561
_cell_angle_alpha 90.000000
_cell_angle_beta 90.000000
_cell_angle_gamma 90.000000
_cell_volume 4665.176400
_symmetry_space_group_name_H-M "P 4/M B M"
_symmetry_group_IT_number 127
_symmetry_cell_setting 'tetragonal'
loop_
_space_group_symop_operation_xyz
x,y,z
-y,x,z
-x,-y,z
y,-x,z
1/2+x,1/2-y,-z
1/2-x,1/2+y,-z
1/2+y,1/2+x,-z
1/2-y,1/2-x,-z
-x,-y,-z
y,-x,-z
x,y,-z
-y,x,-z
1/2-x,1/2+y,z
1/2+x,1/2-y,z
1/2-y,1/2-x,z
1/2+y,1/2+x,z
loop_
_atom_site_type_symbol
_atom_site_label
_atom_site_fract_x
_atom_site_fract_y
_atom_site_fract_z
Si Si1 0.018369 0.834537 0.918320
Si Si2 0.845477 0.066603 0.447700
Si Si3 0.566869 0.345099 0.658934
Si Si4 0.586211 0.247836 0.239541
Si Si5 0.727807 0.394790 0.183930
Si Si6 0.497521 0.832896 0.000000
O O1 0.032590 0.799822 0.861958
O O2 0.911245 0.889180 0.929631
O O3 0.018182 0.734862 0.951816
O O4 0.785754 0.092457 0.500000
O O5 0.790853 0.090323 0.394873
O O6 0.948116 0.130524 0.447946
O O7 0.630981 0.447959 0.664015
O O8 0.600270 0.269728 0.702292
O O9 0.645937 0.145937 0.226404
O O10 0.628432 0.340682 0.206198
O O11 0.468778 0.228944 0.226476
O O12 0.812862 0.312862 0.168638
O O13 0.578323 0.921678 0.000000
O O14 0.384276 0.884276 0.000000
#
# Coordination Sequence:
#
# PCOD8314398 Si02
#       6
#    16  16  16  16  16   8
#     4  11  23  41  68  95 118 150 194 240 281 324
#     4   7  10  17  32  60  94 126 165 216 277 335
#     4   9  15  25  46  70  97 136 179 227 278 332
#     4  11  22  35  54  79 111 148 185 232 283 330
#     4  11  23  39  60  86 115 149 187 229 280 334
#     4  11  26  45  64  90 128 165 192 229 280 332
#
# _framework density 18.863164999999999
#
# number of rings (size 3 to 8) (size 9 to 14) (size 15 to 20)
#    0.000    2.091    3.636    2.727    0.000    4.364 
#    0.000    0.000    0.000    0.545    0.000    0.000 
#    0.000    0.727    0.000    1.636    0.000    0.000 
#
# Total GULP energy -1090165.901350 kJ/mol
# GULP energy per Si atom -12388.248879 kJ/mol
# Density = 1.882023 g / cm^3
# Si number density = 18.863165 Si / 1000 Ang^3
#
#
#
# Elastic Constant Matrix: (Units=GPa)
#
#
# Indices 1 2 3 4 5 6 
#
# 1 58.9332 20.4497 26.2843 0.0000 0.0000 0.0000
# 2 20.4497 58.9317 26.2838 0.0000 0.0000 0.0000
# 3 26.2843 26.2838 133.6536 0.0000 0.0000 0.0000
# 4 0.0000 0.0000 0.0000 11.5557 0.0000 0.0000
# 5 0.0000 0.0000 0.0000 0.0000 11.5562 0.0000
# 6 0.0000 0.0000 0.0000 0.0000 0.0000 14.2628
#
#
#
# Elastic Compliance Matrix: (Units=1/GPa)
#
#
# Indices 1 2 3 4 5 6 
#
# 1 0.020234 -0.005751 -0.002848 0.000000 0.000000 0.000000
# 2 -0.005751 0.020235 -0.002848 0.000000 0.000000 0.000000
# 3 -0.002848 -0.002848 0.008602 0.000000 0.000000 0.000000
# 4 0.000000 0.000000 0.000000 0.086537 0.000000 0.000000
# 5 0.000000 0.000000 0.000000 0.000000 0.086534 0.000000
# 6 0.000000 0.000000 0.000000 0.000000 0.000000 0.070113
#
#
# Mechanical properties :
#
#
# Convention : Reuss Voigt Hill
#
# Bulk Modulus (GPa) = 38.20278 44.17266 41.18772
# Shear Modulus (GPa) = 15.43804 19.37499 17.40652
#
# Velocity S-wave (km/s) = 2.86391 3.20837 3.04102
# Velocity P-wave (km/s) = 5.58861 6.09861 5.84917
#
# Compressibility (1/GPa) = 0.02617611
#
# Stress axis : x y z
#
# Youngs Moduli (GPa) = 49.42096 49.41979 116.24788
#
# Poissons Ratio (x) = 0.28422 0.33111
# Poissons Ratio (y) = 0.28422 0.33111
# Poissons Ratio (z) = 0.14077 0.14076
#
# Static dielectric constant tensor:
#      x y z
#    x 3.128870 0.000000 0.000000 
#    y 0.000000 3.128870 0.000000 
#    z 0.000000 0.000000 3.954200 
# 
# 
# High freq. dielectric constant tensor:
#      x y z
#    x 1.700770 0.000000 0.000000 
#    y 0.000000 1.700770 0.000000 
#    z 0.000000 0.000000 1.759830 
# 
# From -- ./inp_files/6533.got.cif
#   From: 2010.03.12/outbox.cif.g09.slc.cpg/sg127_4_cif.got.tgz:6533.got - 2010.04.06 17:03:15.
