data_PCOD8314395
_publ_section_title
;
Structure prediction by ZEFSAII (Michael W. Deem and Ramdas Pophale) SiO2 
 PCOD8314395
Probable space group: P 4/M B M
;
_chemical_formula_sum "Si O2"
_cell_formula_units_Z 96
_cell_length_a 23.849547
_cell_length_b 23.849547
_cell_length_c 8.860980
_cell_angle_alpha 90.000000
_cell_angle_beta 90.000000
_cell_angle_gamma 90.000000
_cell_volume 5040.133329
_symmetry_space_group_name_H-M "P 4/M B M"
_symmetry_group_IT_number 127
_symmetry_cell_setting 'tetragonal'
loop_
_space_group_symop_operation_xyz
x,y,z
-y,x,z
-x,-y,z
y,-x,z
1/2+x,1/2-y,-z
1/2-x,1/2+y,-z
1/2+y,1/2+x,-z
1/2-y,1/2-x,-z
-x,-y,-z
y,-x,-z
x,y,-z
-y,x,-z
1/2-x,1/2+y,z
1/2+x,1/2-y,z
1/2-y,1/2-x,z
1/2+y,1/2+x,z
loop_
_atom_site_type_symbol
_atom_site_label
_atom_site_fract_x
_atom_site_fract_y
_atom_site_fract_z
Si Si1 0.313399 0.726346 0.820775
Si Si2 0.085231 0.967331 0.325227
Si Si3 0.287456 0.018655 0.322587
Si Si4 0.999755 0.588438 0.679308
Si Si5 0.634314 0.773803 0.828109
Si Si6 0.699997 0.563977 0.821545
O O1 0.282900 0.782900 0.758403
O O2 0.277982 0.672043 0.771312
O O3 0.376116 0.720931 0.756089
O O4 0.313799 0.728772 0.000000
O O5 0.101689 0.961553 0.500000
O O6 0.136075 0.946629 0.223612
O O7 0.031811 0.928729 0.287036
O O8 0.283827 0.008978 0.500000
O O9 0.277111 0.083213 0.286466
O O10 0.348369 0.000451 0.257050
O O11 0.239548 0.983281 0.244142
O O12 0.002870 0.589850 0.500000
O O13 0.942618 0.557383 0.732293
O O14 0.053483 0.553483 0.740613
O O15 0.668860 0.831141 0.817958
O O16 0.613396 0.764274 0.000000
O O17 0.704028 0.563046 0.000000
#
# Coordination Sequence:
#
# PCOD8314395 Si02
#       6
#    16  16  16  16  16  16
#     4   8  17  36  58  78 104 141 182 224 271 322
#     4   9  20  40  62  83 111 145 178 222 285 342
#     4  11  22  34  51  80 114 146 182 227 278 327
#     4   8  15  30  52  76 104 141 183 226 272 323
#     4   9  18  35  59  83 108 140 180 229 281 329
#     4  11  23  36  55  83 112 147 190 230 270 326
#
# _framework density 19.047115000000002
#
# number of rings (size 3 to 8) (size 9 to 14) (size 15 to 20)
#    0.000    2.667    0.000    3.500    2.333    2.333 
#    0.000    1.667    0.000    5.000    0.000    5.833 
#    0.000    0.000    0.000    0.000    0.000    0.000 
#
# Total GULP energy -1190234.005460 kJ/mol
# GULP energy per Si atom -12398.270890 kJ/mol
# Density = 1.900376 g / cm^3
# Si number density = 19.047115 Si / 1000 Ang^3
#
#
#
# Elastic Constant Matrix: (Units=GPa)
#
#
# Indices 1 2 3 4 5 6 
#
# 1 104.7161 57.1298 29.6856 0.0000 0.0000 0.0000
# 2 57.1298 104.7161 29.6856 0.0000 0.0000 0.0000
# 3 29.6856 29.6856 44.0468 0.0000 0.0000 0.0000
# 4 0.0000 0.0000 0.0000 21.0671 0.0000 0.0000
# 5 0.0000 0.0000 0.0000 0.0000 21.0671 0.0000
# 6 0.0000 0.0000 0.0000 0.0000 0.0000 20.6976
#
#
#
# Elastic Compliance Matrix: (Units=1/GPa)
#
#
# Indices 1 2 3 4 5 6 
#
# 1 0.014611 -0.006403 -0.005532 0.000000 0.000000 0.000000
# 2 -0.006403 0.014611 -0.005532 0.000000 0.000000 0.000000
# 3 -0.005532 -0.005532 0.030160 0.000000 0.000000 0.000000
# 4 0.000000 0.000000 0.000000 0.047467 0.000000 0.000000
# 5 0.000000 0.000000 0.000000 0.000000 0.047467 0.000000
# 6 0.000000 0.000000 0.000000 0.000000 0.000000 0.048315
#
#
# Mechanical properties :
#
#
# Convention : Reuss Voigt Hill
#
# Bulk Modulus (GPa) = 40.90276 54.05342 47.47809
# Shear Modulus (GPa) = 20.34882 21.69825 21.02353
#
# Velocity S-wave (km/s) = 3.27210 3.37885 3.32590
# Velocity P-wave (km/s) = 5.98303 6.60776 6.30314
#
# Compressibility (1/GPa) = 0.02444823
#
# Stress axis : x y z
#
# Youngs Moduli (GPa) = 68.44051 68.44051 33.15703
#
# Poissons Ratio (x) = 0.43824 0.18342
# Poissons Ratio (y) = 0.43824 0.18342
# Poissons Ratio (z) = 0.37860 0.37860
#
# Static dielectric constant tensor:
#      x y z
#    x 3.691560 0.000000 0.000000 
#    y 0.000000 3.691560 0.000000 
#    z 0.000000 0.000000 3.113380 
# 
# 
# High freq. dielectric constant tensor:
#      x y z
#    x 1.748390 0.000000 0.000000 
#    y 0.000000 1.748390 0.000000 
#    z 0.000000 0.000000 1.706570 
# 
# From -- ./inp_files/1943.got.cif
#   From: 2010.03.12/outbox.cif.g09.slc.cpg/sg127_1_cif.got.tgz:1943.got - 2010.04.06 17:03:15.
