data_PCOD8314637
_publ_section_title
;
Structure prediction by ZEFSAII (Michael W. Deem and Ramdas Pophale) SiO2 
 PCOD8314637
Probable space group: P 4/M N C
;
_chemical_formula_sum "Si O2"
_cell_formula_units_Z 116
_cell_length_a 18.595856
_cell_length_b 18.595856
_cell_length_c 18.202743
_cell_angle_alpha 90.000000
_cell_angle_beta 90.000000
_cell_angle_gamma 90.000000
_cell_volume 6294.615204
_symmetry_space_group_name_H-M "P 4/M N C"
_symmetry_group_IT_number 128
_symmetry_cell_setting 'tetragonal'
loop_
_space_group_symop_operation_xyz
x,y,z
-y,x,z
-x,-y,z
y,-x,z
1/2+x,1/2-y,1/2-z
1/2-x,1/2+y,1/2-z
1/2+y,1/2+x,1/2-z
1/2-y,1/2-x,1/2-z
-x,-y,-z
y,-x,-z
x,y,-z
-y,x,-z
1/2-x,1/2+y,1/2+z
1/2+x,1/2-y,1/2+z
1/2-y,1/2-x,1/2+z
1/2+y,1/2+x,1/2+z
loop_
_atom_site_type_symbol
_atom_site_label
_atom_site_fract_x
_atom_site_fract_y
_atom_site_fract_z
Si Si1 0.403323 0.610892 0.083799
Si Si2 0.737089 0.078879 0.647203
Si Si3 0.750236 0.917003 0.356988
Si Si4 0.000000 0.000000 0.351083
Si Si5 0.089050 0.801826 0.802675
Si Si6 0.280869 0.177726 0.915960
Si Si7 0.206569 0.339598 0.414986
Si Si8 0.922487 0.797175 0.805192
O O1 0.400979 0.696140 0.095817
O O2 0.325002 0.578759 0.100154
O O3 0.467875 0.580215 0.134270
O O4 0.422832 0.593208 0.000000
O O5 0.670687 0.127735 0.620121
O O6 0.754646 0.097520 0.731556
O O7 0.714110 0.995709 0.639927
O O8 0.763175 0.891655 0.273460
O O9 0.694720 0.862583 0.394570
O O10 0.111853 0.748745 0.867910
O O11 0.128598 0.878378 0.808221
O O12 0.005195 0.820625 0.807976
O O13 0.233528 0.248749 0.901995
O O14 0.276875 0.152681 0.000000
O O15 0.200496 0.360547 0.500000
O O16 0.246612 0.404941 0.374328
#
# Coordination Sequence:
#
# PCOD8314637 Si02
#       8
#    16  16  16   4  16  16  16  16
#     4  12  21  30  43  69 110 155 188 214 250 307
#     4  11  21  33  52  80 110 147 184 222 262 316
#     4  11  21  33  52  80 110 147 184 222 262 316
#     4  12  25  32  40  68 124 172 185 210 265 320
#     4  10  21  37  56  82 111 143 182 226 278 330
#     4  10  20  35  56  78 105 143 187 233 276 322
#     4  10  20  35  56  78 105 143 187 233 276 322
#     4  10  21  37  56  82 111 143 182 226 278 330
#
# _framework density 18.428450000000002
#
# number of rings (size 3 to 8) (size 9 to 14) (size 15 to 20)
#    0.000    1.379    4.138    2.276    0.000    4.690 
#    0.000    0.000    0.000    0.828    0.000    9.655 
#    0.000    0.000    0.000    0.000    0.000    0.000 
#
# Total GULP energy -1437472.975309 kJ/mol
# GULP energy per Si atom -12392.008408 kJ/mol
# Density = 1.838651 g / cm^3
# Si number density = 18.428450 Si / 1000 Ang^3
#
#
#
# Elastic Constant Matrix: (Units=GPa)
#
#
# Indices 1 2 3 4 5 6 
#
# 1 59.6372 17.7839 31.5755 0.0000 0.0000 0.0000
# 2 17.7839 59.6372 31.5755 0.0000 0.0000 0.0000
# 3 31.5755 31.5755 100.0386 0.0000 0.0000 0.0000
# 4 0.0000 0.0000 0.0000 17.2237 0.0000 0.0000
# 5 0.0000 0.0000 0.0000 0.0000 17.2237 0.0000
# 6 0.0000 0.0000 0.0000 0.0000 0.0000 20.5372
#
#
#
# Elastic Compliance Matrix: (Units=1/GPa)
#
#
# Indices 1 2 3 4 5 6 
#
# 1 0.020644 -0.003249 -0.005490 0.000000 0.000000 0.000000
# 2 -0.003249 0.020644 -0.005490 0.000000 0.000000 0.000000
# 3 -0.005490 -0.005490 0.013462 0.000000 0.000000 0.000000
# 4 0.000000 0.000000 0.000000 0.058060 0.000000 0.000000
# 5 0.000000 0.000000 0.000000 0.000000 0.058060 0.000000
# 6 0.000000 0.000000 0.000000 0.000000 0.000000 0.048692
#
#
# Mechanical properties :
#
#
# Convention : Reuss Voigt Hill
#
# Bulk Modulus (GPa) = 38.03712 42.35365 40.19539
# Shear Modulus (GPa) = 19.47160 20.22211 19.84686
#
# Velocity S-wave (km/s) = 3.25407 3.31619 3.28528
# Velocity P-wave (km/s) = 5.89948 6.13967 6.02077
#
# Compressibility (1/GPa) = 0.02629011
#
# Stress axis : x y z
#
# Youngs Moduli (GPa) = 48.44051 48.44051 74.28299
#
# Poissons Ratio (x) = 0.15739 0.40784
# Poissons Ratio (y) = 0.15739 0.40784
# Poissons Ratio (z) = 0.26596 0.26596
#
# Static dielectric constant tensor:
#      x y z
#    x 3.321350 0.000000 0.000000 
#    y 0.000000 3.321350 0.000000 
#    z 0.000000 0.000000 3.478530 
# 
# 
# High freq. dielectric constant tensor:
#      x y z
#    x 1.702590 0.000000 0.000000 
#    y 0.000000 1.702590 0.000000 
#    z 0.000000 0.000000 1.713240 
# 
# From -- ./inp_files/4938.got.cif
#   From: 2010.03.12/outbox.cif.g09.slc.cpg/sg128_3_cif.got.tgz:4938.got - 2010.04.06 17:11:05.
