data_PCOD8314776
_publ_section_title
;
Structure prediction by ZEFSAII (Michael W. Deem and Ramdas Pophale) SiO2 
 PCOD8314776
Probable space group: P 4/M N C
;
_chemical_formula_sum "Si O2"
_cell_formula_units_Z 80
_cell_length_a 11.545221
_cell_length_b 11.545221
_cell_length_c 29.949926
_cell_angle_alpha 90.000000
_cell_angle_beta 90.000000
_cell_angle_gamma 90.000000
_cell_volume 3992.089368
_symmetry_space_group_name_H-M "P 4/M N C"
_symmetry_group_IT_number 128
_symmetry_cell_setting 'tetragonal'
loop_
_space_group_symop_operation_xyz
x,y,z
-y,x,z
-x,-y,z
y,-x,z
1/2+x,1/2-y,1/2-z
1/2-x,1/2+y,1/2-z
1/2+y,1/2+x,1/2-z
1/2-y,1/2-x,1/2-z
-x,-y,-z
y,-x,-z
x,y,-z
-y,x,-z
1/2-x,1/2+y,1/2+z
1/2+x,1/2-y,1/2+z
1/2-y,1/2-x,1/2+z
1/2+y,1/2+x,1/2+z
loop_
_atom_site_type_symbol
_atom_site_label
_atom_site_fract_x
_atom_site_fract_y
_atom_site_fract_z
Si Si1 0.000571 0.634917 0.810741
Si Si2 0.928186 0.173270 0.947830
Si Si3 0.514200 0.313366 0.765922
Si Si4 0.279517 0.908638 0.641559
Si Si5 0.651278 0.815175 0.117392
O O1 0.983473 0.699806 0.764221
O O2 0.892687 0.662790 0.843247
O O3 0.000000 0.500000 0.799630
O O4 0.118149 0.674608 0.835649
O O5 0.883141 0.285816 0.922229
O O6 0.061576 0.148913 0.934807
O O7 0.917540 0.199008 0.000000
O O8 0.622567 0.394739 0.754836
O O9 0.521738 0.278653 0.817432
O O10 0.193758 0.817384 0.619186
O O11 0.313232 0.012592 0.607244
#
# Coordination Sequence:
#
# PCOD8314776 Si02
#       5
#    16  16  16  16  16
#     4  10  23  37  55  83 113 150 201 261 308 351
#     4   9  19  39  68  98 126 153 188 245 310 368
#     4  11  22  38  56  77 111 157 210 249 302 355
#     4  11  22  38  56  79 117 158 199 250 302 355
#     4  11  22  38  60  85 119 159 202 242 302 372
#
# _framework density 20.039629999999999
#
# number of rings (size 3 to 8) (size 9 to 14) (size 15 to 20)
#    0.000    1.600    2.000    3.600    0.000    6.000 
#    0.000    3.000    0.000    7.800    0.000    1.400 
#    0.000    0.000    0.000    0.000    0.000    0.000 
#
# Total GULP energy -992073.520195 kJ/mol
# GULP energy per Si atom -12400.919002 kJ/mol
# Density = 1.999402 g / cm^3
# Si number density = 20.039630 Si / 1000 Ang^3
#
#
#
# Elastic Constant Matrix: (Units=GPa)
#
#
# Indices 1 2 3 4 5 6 
#
# 1 98.8542 31.6246 36.3767 0.0000 0.0000 0.0000
# 2 31.6246 98.8542 36.3767 0.0000 0.0000 0.0000
# 3 36.3767 36.3767 62.7171 0.0000 0.0000 0.0000
# 4 0.0000 0.0000 0.0000 33.2466 0.0000 0.0000
# 5 0.0000 0.0000 0.0000 0.0000 33.2466 0.0000
# 6 0.0000 0.0000 0.0000 0.0000 0.0000 25.8194
#
#
#
# Elastic Compliance Matrix: (Units=1/GPa)
#
#
# Indices 1 2 3 4 5 6 
#
# 1 0.013101 -0.001773 -0.006570 0.000000 0.000000 0.000000
# 2 -0.001773 0.013101 -0.006570 0.000000 0.000000 0.000000
# 3 -0.006570 -0.006570 0.023566 0.000000 0.000000 0.000000
# 4 0.000000 0.000000 0.000000 0.030078 0.000000 0.000000
# 5 0.000000 0.000000 0.000000 0.000000 0.030078 0.000000
# 6 0.000000 0.000000 0.000000 0.000000 0.000000 0.038731
#
#
# Mechanical properties :
#
#
# Convention : Reuss Voigt Hill
#
# Bulk Modulus (GPa) = 50.14867 52.13128 51.13998
# Shear Modulus (GPa) = 27.00815 28.86567 27.93691
#
# Velocity S-wave (km/s) = 3.67514 3.79942 3.73779
# Velocity P-wave (km/s) = 6.56414 6.73186 6.64853
#
# Compressibility (1/GPa) = 0.01994071
#
# Stress axis : x y z
#
# Youngs Moduli (GPa) = 76.33035 76.33035 42.43384
#
# Poissons Ratio (x) = 0.13537 0.27879
# Poissons Ratio (y) = 0.13537 0.27879
# Poissons Ratio (z) = 0.50150 0.50150
#
# Static dielectric constant tensor:
#      x y z
#    x 3.865560 0.000000 0.000000 
#    y 0.000000 3.865560 0.000000 
#    z 0.000000 0.000000 3.211650 
# 
# 
# High freq. dielectric constant tensor:
#      x y z
#    x 1.794650 0.000000 0.000000 
#    y 0.000000 1.794650 0.000000 
#    z 0.000000 0.000000 1.739000 
# 
# From -- ./inp_files/7171.got.cif
#   From: 2010.03.12/outbox.cif.g09.slc.cpg/sg128_4_cif.got.tgz:7171.got - 2010.04.06 17:11:05.
