data_PCOD8314457
_publ_section_title
;
Structure prediction by ZEFSAII (Michael W. Deem and Ramdas Pophale) SiO2 
 PCOD8314457
Probable space group: P 4/M B M
;
_chemical_formula_sum "Si O2"
_cell_formula_units_Z 64
_cell_length_a 11.726051
_cell_length_b 11.726051
_cell_length_c 23.745956
_cell_angle_alpha 90.000000
_cell_angle_beta 90.000000
_cell_angle_gamma 90.000000
_cell_volume 3265.075410
_symmetry_space_group_name_H-M "P 4/M B M"
_symmetry_group_IT_number 127
_symmetry_cell_setting 'tetragonal'
loop_
_space_group_symop_operation_xyz
x,y,z
-y,x,z
-x,-y,z
y,-x,z
1/2+x,1/2-y,-z
1/2-x,1/2+y,-z
1/2+y,1/2+x,-z
1/2-y,1/2-x,-z
-x,-y,-z
y,-x,-z
x,y,-z
-y,x,-z
1/2-x,1/2+y,z
1/2+x,1/2-y,z
1/2-y,1/2-x,z
1/2+y,1/2+x,z
loop_
_atom_site_type_symbol
_atom_site_label
_atom_site_fract_x
_atom_site_fract_y
_atom_site_fract_z
Si Si1 0.026272 0.817468 0.327783
Si Si2 0.995453 0.686316 0.436927
Si Si3 0.183069 0.033401 0.064642
Si Si4 0.595024 0.904977 0.868020
Si Si5 0.905450 0.405450 0.738253
O O1 0.046277 0.707450 0.290217
O O2 0.904585 0.872604 0.313304
O O3 0.023691 0.787408 0.393969
O O4 0.990199 0.737717 0.500000
O O5 0.875023 0.624978 0.422068
O O6 0.094034 0.594034 0.432629
O O7 0.289455 0.050922 0.104584
O O8 0.090247 0.130615 0.077338
O O9 0.223009 0.041262 0.000000
O O10 0.620125 0.879876 0.803078
O O11 0.500000 0.000000 0.876937
O O12 0.000000 0.500000 0.729942
#
# Coordination Sequence:
#
# PCOD8314457 Si02
#       5
#    16  16  16   8   8
#     4  11  25  42  63  92 122 158 208 263 312 370
#     4   9  18  34  60  92 123 158 196 243 310 377
#     4   9  20  40  65  94 130 168 202 246 308 369
#     4  11  25  40  61  96 126 161 212 263 301 356
#     4  11  26  45  65  86 122 167 212 259 312 363
#
# _framework density 19.601386000000002
#
# number of rings (size 3 to 8) (size 9 to 14) (size 15 to 20)
#    0.000    2.000    1.250    2.625    5.250    4.000 
#    0.000    6.250    0.000    0.000    0.000    0.000 
#    0.000    0.000    0.000    0.000    0.000    0.000 
#
# Total GULP energy -793692.044958 kJ/mol
# GULP energy per Si atom -12401.438202 kJ/mol
# Density = 1.955677 g / cm^3
# Si number density = 19.601386 Si / 1000 Ang^3
#
#
#
# Elastic Constant Matrix: (Units=GPa)
#
#
# Indices 1 2 3 4 5 6 
#
# 1 101.0784 35.9608 74.2572 0.0000 0.0000 0.0000
# 2 35.9608 101.0784 74.2572 0.0000 0.0000 0.0000
# 3 74.2572 74.2572 145.7839 0.0000 0.0000 0.0000
# 4 0.0000 0.0000 0.0000 -4.0225 0.0000 0.0000
# 5 0.0000 0.0000 0.0000 0.0000 -4.0225 0.0000
# 6 0.0000 0.0000 0.0000 0.0000 0.0000 20.0798
#
#
#
# Elastic Compliance Matrix: (Units=1/GPa)
#
#
# Indices 1 2 3 4 5 6 
#
# 1 0.015823 0.000466 -0.008297 0.000000 0.000000 0.000000
# 2 0.000466 0.015823 -0.008297 0.000000 0.000000 0.000000
# 3 -0.008297 -0.008297 0.015312 0.000000 0.000000 0.000000
# 4 0.000000 0.000000 0.000000 -0.248604 0.000000 0.000000
# 5 0.000000 0.000000 0.000000 0.000000 -0.248604 0.000000
# 6 0.000000 0.000000 0.000000 0.000000 0.000000 0.049801
#
#
# Mechanical properties :
#
#
# Convention : Reuss Voigt Hill
#
# Bulk Modulus (GPa) = 68.01926 79.65456 73.83691
# Shear Modulus (GPa) = -13.76300 13.30468 -0.22916
#
# Velocity S-wave (km/s) = -2.65268 2.60813 -0.34229
# Velocity P-wave (km/s) = 5.03928 7.05657 6.13146
#
# Compressibility (1/GPa) = 0.01470172
#
# Stress axis : x y z
#
# Youngs Moduli (GPa) = 63.19959 63.19959 65.30877
#
# Poissons Ratio (x) = -0.02945 0.54187
# Poissons Ratio (y) = -0.02945 0.54187
# Poissons Ratio (z) = 0.52437 0.52437
#
# Static dielectric constant tensor:
#      x y z
#    x 3.607230 0.000000 0.000000 
#    y 0.000000 3.607230 0.000000 
#    z 0.000000 0.000000 3.707120 
# 
# 
# High freq. dielectric constant tensor:
#      x y z
#    x 1.767650 0.000000 0.000000 
#    y 0.000000 1.767650 0.000000 
#    z 0.000000 0.000000 1.763810 
# 
# From -- ./inp_files/6038.got.cif
#   From: 2010.03.12/outbox.cif.g09.slc.cpg/sg127_4_cif.got.tgz:6038.got - 2010.04.06 17:03:15.
