data_PCOD8314083
_publ_section_title
;
Structure prediction by ZEFSAII (Michael W. Deem and Ramdas Pophale) SiO2 
 PCOD8314083
Probable space group: P 4/M B M
;
_chemical_formula_sum "Si O2"
_cell_formula_units_Z 96
_cell_length_a 23.818888
_cell_length_b 23.818888
_cell_length_c 9.155271
_cell_angle_alpha 90.000000
_cell_angle_beta 90.000000
_cell_angle_gamma 90.000000
_cell_volume 5194.146190
_symmetry_space_group_name_H-M "P 4/M B M"
_symmetry_group_IT_number 127
_symmetry_cell_setting 'tetragonal'
loop_
_space_group_symop_operation_xyz
x,y,z
-y,x,z
-x,-y,z
y,-x,z
1/2+x,1/2-y,-z
1/2-x,1/2+y,-z
1/2+y,1/2+x,-z
1/2-y,1/2-x,-z
-x,-y,-z
y,-x,-z
x,y,-z
-y,x,-z
1/2-x,1/2+y,z
1/2+x,1/2-y,z
1/2-y,1/2-x,z
1/2+y,1/2+x,z
loop_
_atom_site_type_symbol
_atom_site_label
_atom_site_fract_x
_atom_site_fract_y
_atom_site_fract_z
Si Si1 0.588429 0.000568 0.673603
Si Si2 0.566237 0.303832 0.330014
Si Si3 0.521747 0.787959 0.326121
Si Si4 0.271100 0.137327 0.168619
Si Si5 0.281859 0.307640 0.666624
Si Si6 0.583290 0.535128 0.171509
O O1 0.589417 0.000546 0.500000
O O2 0.554072 0.945929 0.729103
O O3 0.651626 0.998647 0.735178
O O4 0.557057 0.057057 0.729515
O O5 0.557022 0.315039 0.500000
O O6 0.521400 0.259085 0.270155
O O7 0.626797 0.276824 0.297584
O O8 0.559739 0.362986 0.251356
O O9 0.525888 0.788913 0.500000
O O10 0.581716 0.773538 0.262372
O O11 0.328433 0.171568 0.192471
O O12 0.218479 0.172939 0.224385
O O13 0.261183 0.122568 0.000000
O O14 0.302147 0.297913 0.500000
O O15 0.221008 0.278993 0.691463
O O16 0.529486 0.572515 0.217005
O O17 0.593433 0.539194 0.000000
#
# Coordination Sequence:
#
# PCOD8314083 Si02
#       6
#    16  16  16  16  16  16
#     4   8  14  26  47  75 104 136 175 215 254 301
#     4  10  22  35  52  82 112 140 176 218 266 319
#     4  10  20  33  51  79 112 141 172 214 266 321
#     4  10  21  36  55  79 105 137 181 228 267 307
#     4   9  19  37  57  76 105 144 180 216 264 319
#     4   9  20  39  59  78 102 137 180 220 267 325
#
# _framework density 18.482344999999999
#
# number of rings (size 3 to 8) (size 9 to 14) (size 15 to 20)
#    0.000    2.667    0.000    2.000    2.333    4.333 
#    0.000    4.167    0.000    0.500    0.000    4.667 
#    0.000    0.000    0.000    0.000    0.000    0.000 
#
# Total GULP energy -1190335.226349 kJ/mol
# GULP energy per Si atom -12399.325274 kJ/mol
# Density = 1.844028 g / cm^3
# Si number density = 18.482345 Si / 1000 Ang^3
#
#
#
# Elastic Constant Matrix: (Units=GPa)
#
#
# Indices 1 2 3 4 5 6 
#
# 1 104.9608 55.2788 25.8266 0.0000 0.0000 0.0000
# 2 55.2788 104.9608 25.8266 0.0000 0.0000 0.0000
# 3 25.8266 25.8266 26.0464 0.0000 0.0000 0.0000
# 4 0.0000 0.0000 0.0000 15.1551 0.0000 0.0000
# 5 0.0000 0.0000 0.0000 0.0000 15.1551 0.0000
# 6 0.0000 0.0000 0.0000 0.0000 0.0000 19.9766
#
#
#
# Elastic Compliance Matrix: (Units=1/GPa)
#
#
# Indices 1 2 3 4 5 6 
#
# 1 0.014650 -0.005478 -0.009095 0.000000 0.000000 0.000000
# 2 -0.005478 0.014650 -0.009095 0.000000 0.000000 0.000000
# 3 -0.009095 -0.009095 0.056429 0.000000 0.000000 0.000000
# 4 0.000000 0.000000 0.000000 0.065984 0.000000 0.000000
# 5 0.000000 0.000000 0.000000 0.000000 0.065984 0.000000
# 6 0.000000 0.000000 0.000000 0.000000 0.000000 0.050059
#
#
# Mechanical properties :
#
#
# Convention : Reuss Voigt Hill
#
# Bulk Modulus (GPa) = 26.04556 49.98132 38.01344
# Shear Modulus (GPa) = 15.24897 18.65975 16.95436
#
# Velocity S-wave (km/s) = 2.87550 3.18087 3.03203
# Velocity P-wave (km/s) = 5.01471 6.37118 5.73321
#
# Compressibility (1/GPa) = 0.03839426
#
# Stress axis : x y z
#
# Youngs Moduli (GPa) = 68.25831 68.25831 17.72127
#
# Poissons Ratio (x) = 0.37391 0.16117
# Poissons Ratio (y) = 0.37391 0.16117
# Poissons Ratio (z) = 0.62081 0.62081
#
# Static dielectric constant tensor:
#      x y z
#    x 3.536420 0.000000 0.000000 
#    y 0.000000 3.536420 0.000000 
#    z 0.000000 0.000000 3.172180 
# 
# 
# High freq. dielectric constant tensor:
#      x y z
#    x 1.722900 0.000000 0.000000 
#    y 0.000000 1.722900 0.000000 
#    z 0.000000 0.000000 1.690080 
# 
# From -- ./inp_files/1987.got.cif
#   From: 2010.03.12/outbox.cif.g09.slc.cpg/sg127_1_cif.got.tgz:1987.got - 2010.04.06 17:03:15.
