data_PCOD8314960
_publ_section_title
;
Structure prediction by ZEFSAII (Michael W. Deem and Ramdas Pophale) SiO2 
 PCOD8314960
Probable space group: P 4/N M M
;
_chemical_formula_sum "Si O2"
_cell_formula_units_Z 80
_cell_length_a 19.483141
_cell_length_b 19.483141
_cell_length_c 12.256819
_cell_angle_alpha 90.000000
_cell_angle_beta 90.000000
_cell_angle_gamma 90.000000
_cell_volume 4652.600038
_symmetry_space_group_name_H-M "P 4/N M M"
_symmetry_group_IT_number 129
_symmetry_cell_setting 'tetragonal'
loop_
_space_group_symop_operation_xyz
x,y,z
1/2-y,x,z
1/2-x,1/2-y,z
y,1/2-x,z
1/2+x,-y,-z
-x,1/2+y,-z
1/2+y,1/2+x,-z
-y,-x,-z
-x,-y,-z
1/2+y,-x,-z
1/2+x,1/2+y,-z
-y,1/2+x,-z
1/2-x,y,z
x,1/2-y,z
1/2-y,1/2-x,z
y,x,z
loop_
_atom_site_type_symbol
_atom_site_label
_atom_site_fract_x
_atom_site_fract_y
_atom_site_fract_z
Si Si1 0.938578 0.827737 0.964072
Si Si2 0.513782 0.399898 0.429106
Si Si3 0.327257 0.980493 0.823131
Si Si4 0.673362 0.561037 0.393676
Si Si5 0.916381 0.031415 0.813955
O O1 0.927749 0.750000 0.923412
O O2 0.868047 0.868047 0.942651
O O3 0.956836 0.829981 0.091747
O O4 0.000730 0.861652 0.897428
O O5 0.581279 0.418722 0.500000
O O6 0.465883 0.465883 0.425865
O O7 0.475809 0.337328 0.489679
O O8 0.531753 0.380621 0.305117
O O9 0.250000 0.946904 0.828240
O O10 0.389388 0.928374 0.849847
O O11 0.343088 0.007878 0.702469
O O12 0.750000 0.588772 0.386682
O O13 0.626158 0.626158 0.379240
O O14 0.987635 0.987635 0.817270
#
# Coordination Sequence:
#
# PCOD8314960 Si02
#       5
#    16  16  16  16  16
#     4  10  21  34  50  74 102 135 172 209 251 299
#     4   9  16  28  47  68  91 120 157 203 251 290
#     4  10  19  31  49  75 104 130 164 210 256 300
#     4  10  19  30  46  70 100 133 166 201 245 299
#     4  10  18  31  53  74  97 130 170 214 256 296
#
# _framework density 17.194686000000001
#
# number of rings (size 3 to 8) (size 9 to 14) (size 15 to 20)
#    0.000    2.200    2.000    2.400    0.000    2.800 
#    0.000    0.000    0.000    4.200    0.000    8.400 
#    0.000    0.400    0.000    0.000    0.000    0.000 
#
# Total GULP energy -991655.682133 kJ/mol
# GULP energy per Si atom -12395.696027 kJ/mol
# Density = 1.715555 g / cm^3
# Si number density = 17.194686 Si / 1000 Ang^3
#
#
#
# Elastic Constant Matrix: (Units=GPa)
#
#
# Indices 1 2 3 4 5 6 
#
# 1 100.6727 49.9954 25.9121 0.0000 0.0000 0.0000
# 2 49.9954 100.6739 25.9126 0.0000 0.0000 0.0000
# 3 25.9121 25.9126 73.0515 0.0000 0.0000 0.0000
# 4 0.0000 0.0000 0.0000 21.0808 0.0000 0.0000
# 5 0.0000 0.0000 0.0000 0.0000 21.0806 0.0000
# 6 0.0000 0.0000 0.0000 0.0000 0.0000 13.8712
#
#
#
# Elastic Compliance Matrix: (Units=1/GPa)
#
#
# Indices 1 2 3 4 5 6 
#
# 1 0.013646 -0.006087 -0.002681 0.000000 0.000000 0.000000
# 2 -0.006087 0.013646 -0.002681 0.000000 0.000000 0.000000
# 3 -0.002681 -0.002681 0.015591 0.000000 0.000000 0.000000
# 4 0.000000 0.000000 0.000000 0.047437 0.000000 0.000000
# 5 0.000000 0.000000 0.000000 0.000000 0.047437 0.000000
# 6 0.000000 0.000000 0.000000 0.000000 0.000000 0.072092
#
#
# Mechanical properties :
#
#
# Convention : Reuss Voigt Hill
#
# Bulk Modulus (GPa) = 50.03914 53.11535 51.57725
# Shear Modulus (GPa) = 20.88479 22.71171 21.79825
#
# Velocity S-wave (km/s) = 3.48890 3.63830 3.56438
# Velocity P-wave (km/s) = 6.73755 6.97189 6.85572
#
# Compressibility (1/GPa) = 0.01998436
#
# Stress axis : x y z
#
# Youngs Moduli (GPa) = 73.28153 73.28219 64.13864
#
# Poissons Ratio (x) = 0.44604 0.17198
# Poissons Ratio (y) = 0.44603 0.17199
# Poissons Ratio (z) = 0.19649 0.19650
#
# Static dielectric constant tensor:
#      x y z
#    x 3.019910 0.000000 0.000000 
#    y 0.000000 3.019910 0.000000 
#    z 0.000000 0.000000 3.449850 
# 
# 
# High freq. dielectric constant tensor:
#      x y z
#    x 1.639200 0.000000 0.000000 
#    y 0.000000 1.639200 0.000000 
#    z 0.000000 0.000000 1.681490 
# 
# From -- ./inp_files/4591.got.cif
#   From: 2010.03.12/outbox.cif.g09.slc.cpg/sg129_3_cif.got.tgz:4591.got - 2010.04.06 17:19:44.
