data_PCOD8314812
_publ_section_title
;
Structure prediction by ZEFSAII (Michael W. Deem and Ramdas Pophale) SiO2 
 PCOD8314812
Probable space group: P 4/M N C
;
_chemical_formula_sum "Si O2"
_cell_formula_units_Z 128
_cell_length_a 20.231472
_cell_length_b 20.231472
_cell_length_c 17.360974
_cell_angle_alpha 90.000000
_cell_angle_beta 90.000000
_cell_angle_gamma 90.000000
_cell_volume 7106.062964
_symmetry_space_group_name_H-M "P 4/M N C"
_symmetry_group_IT_number 128
_symmetry_cell_setting 'tetragonal'
loop_
_space_group_symop_operation_xyz
x,y,z
-y,x,z
-x,-y,z
y,-x,z
1/2+x,1/2-y,1/2-z
1/2-x,1/2+y,1/2-z
1/2+y,1/2+x,1/2-z
1/2-y,1/2-x,1/2-z
-x,-y,-z
y,-x,-z
x,y,-z
-y,x,-z
1/2-x,1/2+y,1/2+z
1/2+x,1/2-y,1/2+z
1/2-y,1/2-x,1/2+z
1/2+y,1/2+x,1/2+z
loop_
_atom_site_type_symbol
_atom_site_label
_atom_site_fract_x
_atom_site_fract_y
_atom_site_fract_z
Si Si1 0.427385 0.425287 0.158376
Si Si2 0.322646 0.177348 0.090480
Si Si3 0.681970 0.325577 0.841598
Si Si4 0.322611 0.822606 0.341061
Si Si5 0.424110 0.075896 0.158870
Si Si6 0.926491 0.573517 0.158848
Si Si7 0.825584 0.181976 0.158437
Si Si8 0.427389 0.425283 0.341588
O O1 0.501310 0.407605 0.129593
O O2 0.375979 0.372326 0.124380
O O3 0.425066 0.423693 0.249982
O O4 0.345491 0.247391 0.124530
O O5 0.376699 0.123319 0.111879
O O6 0.252622 0.154502 0.124585
O O7 0.316205 0.183737 0.000000
O O8 0.660478 0.251956 0.867778
O O9 0.687673 0.329865 0.750018
O O10 0.327664 0.827664 0.250000
O O11 0.374446 0.874432 0.378439
O O12 0.339516 0.748032 0.367761
O O13 0.414011 0.085990 0.250000
O O14 0.499274 0.092318 0.133508
O O15 0.407676 0.000734 0.133510
O O16 0.923306 0.576695 0.250000
O O17 0.875990 0.127684 0.124416
O O18 0.501315 0.407606 0.370371
#
# Coordination Sequence:
#
# PCOD8314812 Si02
#       8
#    16  16  16  16  16  16  16  16
#     4   8  14  25  44  74 105 125 148 189 236 276
#     4  11  22  34  47  65  93 125 156 198 243 279
#     4   9  17  30  49  70  92 123 160 194 229 275
#     4   8  14  25  43  70  97 119 152 193 227 263
#     4   9  17  31  51  73  96 123 155 190 231 282
#     4   8  15  28  48  74 100 123 151 191 232 272
#     4   9  17  30  49  70  92 123 160 194 229 275
#     4   8  14  25  44  74 105 125 148 189 236 276
#
# _framework density 18.012786999999999
#
# number of rings (size 3 to 8) (size 9 to 14) (size 15 to 20)
#    0.000    3.250    0.000    3.375    0.000    2.000 
#    0.000    8.750    0.000   13.500    0.000    1.750 
#    0.000    0.000    0.000    0.000    0.000    0.000 
#
# Total GULP energy -1586496.272873 kJ/mol
# GULP energy per Si atom -12394.502132 kJ/mol
# Density = 1.797179 g / cm^3
# Si number density = 18.012787 Si / 1000 Ang^3
#
#
#
# Elastic Constant Matrix: (Units=GPa)
#
#
# Indices 1 2 3 4 5 6 
#
# 1 149.9404 121.0715 18.5969 0.0000 0.0000 0.0000
# 2 121.0715 149.9408 18.5967 0.0000 0.0000 0.0000
# 3 18.5969 18.5967 24.6814 0.0000 0.0000 0.0000
# 4 0.0000 0.0000 0.0000 3.0008 0.0000 0.0000
# 5 0.0000 0.0000 0.0000 0.0000 3.0007 0.0000
# 6 0.0000 0.0000 0.0000 0.0000 0.0000 46.0569
#
#
#
# Elastic Compliance Matrix: (Units=1/GPa)
#
#
# Indices 1 2 3 4 5 6 
#
# 1 0.019377 -0.015262 -0.003101 0.000000 0.000000 0.000000
# 2 -0.015262 0.019377 -0.003101 0.000000 0.000000 0.000000
# 3 -0.003101 -0.003101 0.045189 0.000000 0.000000 0.000000
# 4 0.000000 0.000000 0.000000 0.333248 0.000000 0.000000
# 5 0.000000 0.000000 0.000000 0.000000 0.333255 0.000000
# 6 0.000000 0.000000 0.000000 0.000000 0.000000 0.021712
#
#
# Mechanical properties :
#
#
# Convention : Reuss Voigt Hill
#
# Bulk Modulus (GPa) = 24.38040 71.23254 47.80647
# Shear Modulus (GPa) = 6.03312 21.49819 13.76566
#
# Velocity S-wave (km/s) = 1.83211 3.45845 2.76744
# Velocity P-wave (km/s) = 4.24735 7.45515 6.06709
#
# Compressibility (1/GPa) = 0.04101655
#
# Stress axis : x y z
#
# Youngs Moduli (GPa) = 51.60675 51.60699 22.12921
#
# Poissons Ratio (x) = 0.78762 0.06862
# Poissons Ratio (y) = 0.78761 0.06862
# Poissons Ratio (z) = 0.16003 0.16002
#
# Static dielectric constant tensor:
#      x y z
#    x 3.664560 0.000000 0.000000 
#    y 0.000000 3.664550 0.000000 
#    z 0.000000 0.000000 2.729020 
# 
# 
# High freq. dielectric constant tensor:
#      x y z
#    x 1.704180 0.000000 0.000000 
#    y 0.000000 1.704180 0.000000 
#    z 0.000000 0.000000 1.638600 
# 
# From -- ./inp_files/5115.got.cif
#   From: 2010.03.12/outbox.cif.g09.slc.cpg/sg128_3_cif.got.tgz:5115.got - 2010.04.06 17:11:05.
