data_PCOD8314668
_publ_section_title
;
Structure prediction by ZEFSAII (Michael W. Deem and Ramdas Pophale) SiO2 
 PCOD8314668
Probable space group: P 4/M N C
;
_chemical_formula_sum "Si O2"
_cell_formula_units_Z 88
_cell_length_a 15.366055
_cell_length_b 15.366055
_cell_length_c 20.000964
_cell_angle_alpha 90.000000
_cell_angle_beta 90.000000
_cell_angle_gamma 90.000000
_cell_volume 4722.540541
_symmetry_space_group_name_H-M "P 4/M N C"
_symmetry_group_IT_number 128
_symmetry_cell_setting 'tetragonal'
loop_
_space_group_symop_operation_xyz
x,y,z
-y,x,z
-x,-y,z
y,-x,z
1/2+x,1/2-y,1/2-z
1/2-x,1/2+y,1/2-z
1/2+y,1/2+x,1/2-z
1/2-y,1/2-x,1/2-z
-x,-y,-z
y,-x,-z
x,y,-z
-y,x,-z
1/2-x,1/2+y,1/2+z
1/2+x,1/2-y,1/2+z
1/2-y,1/2-x,1/2+z
1/2+y,1/2+x,1/2+z
loop_
_atom_site_type_symbol
_atom_site_label
_atom_site_fract_x
_atom_site_fract_y
_atom_site_fract_z
Si Si1 0.357134 0.530136 0.000000
Si Si2 0.580713 0.054561 0.328440
Si Si3 0.238695 0.354005 0.338849
Si Si4 0.182101 0.846966 0.695448
Si Si5 0.887688 0.076862 0.921241
Si Si6 0.269548 0.518177 0.139091
O O1 0.397897 0.433354 0.000000
O O2 0.293458 0.545717 0.063527
O O3 0.565287 0.065287 0.250000
O O4 0.585736 0.154252 0.354047
O O5 0.500000 0.000000 0.359841
O O6 0.668139 0.003750 0.349357
O O7 0.212374 0.253683 0.340625
O O8 0.285636 0.374940 0.268829
O O9 0.306487 0.367490 0.397631
O O10 0.093017 0.793266 0.692827
O O11 0.169504 0.935870 0.654828
O O12 0.977585 0.119122 0.894581
O O13 0.888149 0.077643 0.000000
#
# Coordination Sequence:
#
# PCOD8314668 Si02
#       6
#     8  16  16  16  16  16
#     4  11  22  38  61  84 118 166 193 236 304 355
#     4  10  21  39  62  84 115 157 192 238 296 346
#     4  10  20  39  57  88 116 150 192 239 293 350
#     4  10  22  36  57  89 118 145 194 244 290 344
#     4   9  20  38  59  84 113 149 191 239 297 355
#     4  11  21  40  58  86 119 152 198 243 291 356
#
# _framework density 18.634038
#
# number of rings (size 3 to 8) (size 9 to 14) (size 15 to 20)
#    0.000    1.909    5.455    0.545    2.545    4.727 
#    8.182    0.455    0.000    0.000    0.000    0.000 
#    0.000    0.000    0.000    0.000    0.000    0.000 
#
# Total GULP energy -1090727.539341 kJ/mol
# GULP energy per Si atom -12394.631129 kJ/mol
# Density = 1.859163 g / cm^3
# Si number density = 18.634038 Si / 1000 Ang^3
#
#
#
# Elastic Constant Matrix: (Units=GPa)
#
#
# Indices 1 2 3 4 5 6 
#
# 1 90.3418 47.7386 34.0831 0.0000 0.0000 0.0000
# 2 47.7386 90.3418 34.0831 0.0000 0.0000 0.0000
# 3 34.0831 34.0831 45.5488 0.0000 0.0000 0.0000
# 4 0.0000 0.0000 0.0000 28.9409 0.0000 0.0000
# 5 0.0000 0.0000 0.0000 0.0000 28.9409 0.0000
# 6 0.0000 0.0000 0.0000 0.0000 0.0000 29.0623
#
#
#
# Elastic Compliance Matrix: (Units=1/GPa)
#
#
# Indices 1 2 3 4 5 6 
#
# 1 0.017478 -0.005994 -0.008594 0.000000 0.000000 0.000000
# 2 -0.005994 0.017478 -0.008594 0.000000 0.000000 0.000000
# 3 -0.008594 -0.008594 0.034815 0.000000 0.000000 0.000000
# 4 0.000000 0.000000 0.000000 0.034553 0.000000 0.000000
# 5 0.000000 0.000000 0.000000 0.000000 0.034553 0.000000
# 6 0.000000 0.000000 0.000000 0.000000 0.000000 0.034409
#
#
# Mechanical properties :
#
#
# Convention : Reuss Voigt Hill
#
# Bulk Modulus (GPa) = 42.71693 50.89352 46.80523
# Shear Modulus (GPa) = 21.98255 24.74400 23.36328
#
# Velocity S-wave (km/s) = 3.43840 3.64798 3.54474
# Velocity P-wave (km/s) = 6.22394 6.71678 6.47505
#
# Compressibility (1/GPa) = 0.02340992
#
# Stress axis : x y z
#
# Youngs Moduli (GPa) = 57.21317 57.21317 28.72302
#
# Poissons Ratio (x) = 0.34293 0.24684
# Poissons Ratio (y) = 0.34293 0.24684
# Poissons Ratio (z) = 0.49167 0.49167
#
# Static dielectric constant tensor:
#      x y z
#    x 3.690800 0.000000 0.000000 
#    y 0.000000 3.690800 0.000000 
#    z 0.000000 0.000000 3.208160 
# 
# 
# High freq. dielectric constant tensor:
#      x y z
#    x 1.727580 0.000000 0.000000 
#    y 0.000000 1.727580 0.000000 
#    z 0.000000 0.000000 1.703030 
# 
# From -- ./inp_files/5654.got.cif
#   From: 2010.03.12/outbox.cif.g09.slc.cpg/sg128_3_cif.got.tgz:5654.got - 2010.04.06 17:11:05.
