data_PCOD8314239
_publ_section_title
;
Structure prediction by ZEFSAII (Michael W. Deem and Ramdas Pophale) SiO2 
 PCOD8314239
Probable space group: P 4/M B M
;
_chemical_formula_sum "Si O2"
_cell_formula_units_Z 120
_cell_length_a 25.814375
_cell_length_b 25.814375
_cell_length_c 9.298349
_cell_angle_alpha 90.000000
_cell_angle_beta 90.000000
_cell_angle_gamma 90.000000
_cell_volume 6196.252000
_symmetry_space_group_name_H-M "P 4/M B M"
_symmetry_group_IT_number 127
_symmetry_cell_setting 'tetragonal'
loop_
_space_group_symop_operation_xyz
x,y,z
-y,x,z
-x,-y,z
y,-x,z
1/2+x,1/2-y,-z
1/2-x,1/2+y,-z
1/2+y,1/2+x,-z
1/2-y,1/2-x,-z
-x,-y,-z
y,-x,-z
x,y,-z
-y,x,-z
1/2-x,1/2+y,z
1/2+x,1/2-y,z
1/2-y,1/2-x,z
1/2+y,1/2+x,z
loop_
_atom_site_type_symbol
_atom_site_label
_atom_site_fract_x
_atom_site_fract_y
_atom_site_fract_z
Si Si1 0.108623 0.934832 0.337827
Si Si2 0.270280 0.685795 0.831761
Si Si3 0.930010 0.232858 0.839297
Si Si4 0.043609 0.543609 0.837702
Si Si5 0.470400 0.769534 0.332734
Si Si6 0.527653 0.111298 0.665078
Si Si7 0.206413 0.871231 0.338072
Si Si8 0.470494 0.377700 0.161141
O O1 0.094013 0.951775 0.500000
O O2 0.145762 0.885265 0.340879
O O3 0.057047 0.924194 0.246471
O O4 0.139199 0.980007 0.254638
O O5 0.220575 0.720575 0.797286
O O6 0.256005 0.627678 0.776615
O O7 0.319702 0.712375 0.755834
O O8 0.283487 0.683639 0.000000
O O9 0.932864 0.170987 0.846462
O O10 0.975452 0.256048 0.742513
O O11 0.936029 0.256270 0.000000
O O12 0.094748 0.522107 0.759118
O O13 0.000000 0.500000 0.830272
O O14 0.058464 0.558464 0.000000
O O15 0.477565 0.755680 0.500000
O O16 0.458461 0.829513 0.304889
O O17 0.420063 0.738743 0.272719
O O18 0.512431 0.101778 0.500000
O O19 0.578148 0.078148 0.708381
O O20 0.226222 0.859586 0.500000
O O21 0.485852 0.395885 0.000000
#
# Coordination Sequence:
#
# PCOD8314239 Si02
#       8
#    16  16  16   8  16  16  16  16
#     4  11  22  37  58  85 115 148 186 234 287 338
#     4  10  22  41  62  85 117 157 201 243 289 349
#     4  10  21  37  58  83 114 154 194 237 287 341
#     4   9  17  31  53  79 107 141 181 223 269 327
#     4  10  21  37  58  87 117 148 190 239 289 345
#     4   9  18  34  56  80 111 150 186 225 278 340
#     4  10  21  36  58  86 115 148 189 237 289 341
#     4  11  22  37  59  85 113 151 193 234 282 346
#
# _framework density 19.366547000000001
#
# number of rings (size 3 to 8) (size 9 to 14) (size 15 to 20)
#    0.000    1.933    2.667    1.000    0.000    4.533 
#    1.200    2.667    0.000    1.600    0.000    0.000 
#    0.000    0.000    0.000    0.000    0.000    0.000 
#
# Total GULP energy -1487843.489682 kJ/mol
# GULP energy per Si atom -12398.695747 kJ/mol
# Density = 1.932247 g / cm^3
# Si number density = 19.366547 Si / 1000 Ang^3
#
#
#
# Elastic Constant Matrix: (Units=GPa)
#
#
# Indices 1 2 3 4 5 6 
#
# 1 102.3036 41.2683 46.2953 0.0000 0.0000 0.0000
# 2 41.2683 102.3036 46.2953 0.0000 0.0000 0.0000
# 3 46.2953 46.2953 103.9322 0.0000 0.0000 0.0000
# 4 0.0000 0.0000 0.0000 28.9184 0.0000 0.0000
# 5 0.0000 0.0000 0.0000 0.0000 28.9184 0.0000
# 6 0.0000 0.0000 0.0000 0.0000 0.0000 30.8455
#
#
#
# Elastic Compliance Matrix: (Units=1/GPa)
#
#
# Indices 1 2 3 4 5 6 
#
# 1 0.013078 -0.003306 -0.004353 0.000000 0.000000 0.000000
# 2 -0.003306 0.013078 -0.004353 0.000000 0.000000 0.000000
# 3 -0.004353 -0.004353 0.013500 0.000000 0.000000 0.000000
# 4 0.000000 0.000000 0.000000 0.034580 0.000000 0.000000
# 5 0.000000 0.000000 0.000000 0.000000 0.034580 0.000000
# 6 0.000000 0.000000 0.000000 0.000000 0.000000 0.032420
#
#
# Mechanical properties :
#
#
# Convention : Reuss Voigt Hill
#
# Bulk Modulus (GPa) = 63.96936 64.02857 63.99897
# Shear Modulus (GPa) = 29.33064 29.38183 29.35624
#
# Velocity S-wave (km/s) = 3.89588 3.89928 3.89758
# Velocity P-wave (km/s) = 7.30341 7.30792 7.30566
#
# Compressibility (1/GPa) = 0.01563248
#
# Stress axis : x y z
#
# Youngs Moduli (GPa) = 76.46314 76.46314 74.07609
#
# Poissons Ratio (x) = 0.25277 0.32245
# Poissons Ratio (y) = 0.25277 0.32245
# Poissons Ratio (z) = 0.33284 0.33284
#
# Static dielectric constant tensor:
#      x y z
#    x 3.413870 0.000000 0.000000 
#    y 0.000000 3.413870 0.000000 
#    z 0.000000 0.000000 3.594830 
# 
# 
# High freq. dielectric constant tensor:
#      x y z
#    x 1.746310 0.000000 0.000000 
#    y 0.000000 1.746310 0.000000 
#    z 0.000000 0.000000 1.752150 
# 
# From -- ./inp_files/2359.got.cif
#   From: 2010.03.12/outbox.cif.g09.slc.cpg/sg127_2_cif.got.tgz:2359.got - 2010.04.06 17:03:15.
