data_PCOD8314884
_publ_section_title
;
Structure prediction by ZEFSAII (Michael W. Deem and Ramdas Pophale) SiO2 
 PCOD8314884
Probable space group: P 4/N M M
;
_chemical_formula_sum "Si O2"
_cell_formula_units_Z 128
_cell_length_a 18.328683
_cell_length_b 18.328683
_cell_length_c 22.761596
_cell_angle_alpha 90.000000
_cell_angle_beta 90.000000
_cell_angle_gamma 90.000000
_cell_volume 7646.544684
_symmetry_space_group_name_H-M "P 4/N M M"
_symmetry_group_IT_number 129
_symmetry_cell_setting 'tetragonal'
loop_
_space_group_symop_operation_xyz
x,y,z
1/2-y,x,z
1/2-x,1/2-y,z
y,1/2-x,z
1/2+x,-y,-z
-x,1/2+y,-z
1/2+y,1/2+x,-z
-y,-x,-z
-x,-y,-z
1/2+y,-x,-z
1/2+x,1/2+y,-z
-y,1/2+x,-z
1/2-x,y,z
x,1/2-y,z
1/2-y,1/2-x,z
y,x,z
loop_
_atom_site_type_symbol
_atom_site_label
_atom_site_fract_x
_atom_site_fract_y
_atom_site_fract_z
Si Si1 0.054204 0.168776 0.802033
Si Si2 0.090203 0.973665 0.260189
Si Si3 0.833391 0.166476 0.069494
Si Si4 0.169044 0.447234 0.585229
Si Si5 0.451045 0.167322 0.359406
Si Si6 0.830145 0.459055 0.307391
Si Si7 0.491154 0.609010 0.528908
Si Si8 0.561560 0.444121 0.135723
O O1 0.057999 0.250000 0.828171
O O2 0.134160 0.134160 0.806771
O O3 0.030195 0.168581 0.734171
O O4 0.997095 0.123561 0.840250
O O5 0.096282 0.892321 0.286472
O O6 0.103121 0.971848 0.190036
O O7 0.151523 0.020189 0.293601
O O8 0.010276 0.010276 0.272463
O O9 0.750000 0.144746 0.089560
O O10 0.849233 0.250000 0.090166
O O11 0.897555 0.112326 0.092481
O O12 0.837860 0.162141 0.000000
O O13 0.250000 0.417959 0.595768
O O14 0.115835 0.384166 0.605655
O O15 0.153352 0.517563 0.625807
O O16 0.160097 0.467131 0.517137
O O17 0.425846 0.250000 0.362102
O O18 0.380161 0.119840 0.374861
O O19 0.513814 0.151145 0.408665
O O20 0.750000 0.421236 0.302941
O O21 0.412830 0.587171 0.500000
O O22 0.533974 0.533974 0.541596
O O23 0.494881 0.494881 0.108264
#
# Coordination Sequence:
#
# PCOD8314884 Si02
#       8
#    16  16  16  16  16  16  16  16
#     4   9  16  25  38  58  86 120 155 189 225 267
#     4   9  17  30  47  66  90 119 150 186 228 270
#     4   9  18  32  49  70  98 130 158 185 224 275
#     4  10  18  26  37  54  77 104 133 165 202 247
#     4  10  20  33  49  69  92 118 149 187 231 278
#     4   9  16  26  41  60  82 110 145 184 225 265
#     4   9  17  29  45  62  78 100 133 172 213 258
#     4   9  17  29  47  70  93 120 155 194 233 270
#
# _framework density 16.739587
#
# number of rings (size 3 to 8) (size 9 to 14) (size 15 to 20)
#    0.000    2.750    0.000    3.750    0.000    3.625 
#    0.000    0.000    0.000    4.875    0.000    0.000 
#    0.000    3.500    0.000    2.750    0.000    4.500 
#
# Total GULP energy -1585820.880650 kJ/mol
# GULP energy per Si atom -12389.225630 kJ/mol
# Density = 1.670149 g / cm^3
# Si number density = 16.739587 Si / 1000 Ang^3
#
#
#
# Elastic Constant Matrix: (Units=GPa)
#
#
# Indices 1 2 3 4 5 6 
#
# 1 73.3702 32.0127 25.5503 0.0000 0.0000 0.0000
# 2 32.0127 73.3697 25.5502 0.0000 0.0000 0.0000
# 3 25.5503 25.5502 56.1592 0.0000 0.0000 0.0000
# 4 0.0000 0.0000 0.0000 20.5206 0.0000 0.0000
# 5 0.0000 0.0000 0.0000 0.0000 20.5208 0.0000
# 6 0.0000 0.0000 0.0000 0.0000 0.0000 18.9526
#
#
#
# Elastic Compliance Matrix: (Units=1/GPa)
#
#
# Indices 1 2 3 4 5 6 
#
# 1 0.018177 -0.006002 -0.005539 0.000000 0.000000 0.000000
# 2 -0.006002 0.018177 -0.005539 0.000000 0.000000 0.000000
# 3 -0.005539 -0.005539 0.022847 0.000000 0.000000 0.000000
# 4 0.000000 0.000000 0.000000 0.048732 0.000000 0.000000
# 5 0.000000 0.000000 0.000000 0.000000 0.048731 0.000000
# 6 0.000000 0.000000 0.000000 0.000000 0.000000 0.052763
#
#
# Mechanical properties :
#
#
# Convention : Reuss Voigt Hill
#
# Bulk Modulus (GPa) = 39.93568 41.01393 40.47480
# Shear Modulus (GPa) = 19.84636 19.98454 19.91545
#
# Velocity S-wave (km/s) = 3.44698 3.45896 3.45298
# Velocity P-wave (km/s) = 6.30484 6.36450 6.33474
#
# Compressibility (1/GPa) = 0.02504027
#
# Stress axis : x y z
#
# Youngs Moduli (GPa) = 55.01362 55.01325 43.76978
#
# Poissons Ratio (x) = 0.33020 0.24245
# Poissons Ratio (y) = 0.33020 0.24245
# Poissons Ratio (z) = 0.30473 0.30473
#
# Static dielectric constant tensor:
#      x y z
#    x 3.035850 0.000000 0.000000 
#    y 0.000000 3.035860 0.000000 
#    z 0.000000 0.000000 3.068130 
# 
# 
# High freq. dielectric constant tensor:
#      x y z
#    x 1.625090 0.000000 0.000000 
#    y 0.000000 1.625090 0.000000 
#    z 0.000000 0.000000 1.633430 
# 
# From -- ./inp_files/7354.got.cif
#   From: 2010.03.12/outbox.cif.g09.slc.cpg/sg129_4_cif.got.tgz:7354.got - 2010.04.06 17:19:44.
