data_PCOD8314018
_publ_section_title
;
Structure prediction by ZEFSAII (Michael W. Deem and Ramdas Pophale) SiO2 
 PCOD8314018
Probable space group: P 4/M B M
;
_chemical_formula_sum "Si O2"
_cell_formula_units_Z 120
_cell_length_a 27.322998
_cell_length_b 27.322998
_cell_length_c 8.426583
_cell_angle_alpha 90.000000
_cell_angle_beta 90.000000
_cell_angle_gamma 90.000000
_cell_volume 6290.833684
_symmetry_space_group_name_H-M "P 4/M B M"
_symmetry_group_IT_number 127
_symmetry_cell_setting 'tetragonal'
loop_
_space_group_symop_operation_xyz
x,y,z
-y,x,z
-x,-y,z
y,-x,z
1/2+x,1/2-y,-z
1/2-x,1/2+y,-z
1/2+y,1/2+x,-z
1/2-y,1/2-x,-z
-x,-y,-z
y,-x,-z
x,y,-z
-y,x,-z
1/2-x,1/2+y,z
1/2+x,1/2-y,z
1/2-y,1/2-x,z
1/2+y,1/2+x,z
loop_
_atom_site_type_symbol
_atom_site_label
_atom_site_fract_x
_atom_site_fract_y
_atom_site_fract_z
Si Si1 0.864487 0.558697 0.686573
Si Si2 0.629289 0.948936 0.312470
Si Si3 0.262768 0.951806 0.184406
Si Si4 0.971630 0.073111 0.000000
Si Si5 0.062278 0.731960 0.814647
Si Si6 0.678674 0.393692 0.325618
Si Si7 0.378364 0.513288 0.675380
Si Si8 0.342421 0.414594 0.184593
O O1 0.870585 0.559477 0.500000
O O2 0.902229 0.597772 0.763228
O O3 0.877121 0.504356 0.751823
O O4 0.808958 0.573303 0.730035
O O5 0.636701 0.948463 0.500000
O O6 0.581738 0.918262 0.260500
O O7 0.676925 0.924109 0.234891
O O8 0.215527 0.918041 0.218367
O O9 0.254941 0.007351 0.248404
O O10 0.274988 0.954031 0.000000
O O11 0.028003 0.063263 0.000000
O O12 0.960296 0.097000 0.170983
O O13 0.105500 0.767306 0.749487
O O14 0.063383 0.738887 0.000000
O O15 0.680156 0.369739 0.500000
O O16 0.668190 0.451849 0.338894
O O17 0.639102 0.362385 0.226465
O O18 0.405852 0.515269 0.500000
O O19 0.367445 0.456604 0.708828
O O20 0.353940 0.425647 0.000000
#
# Coordination Sequence:
#
# PCOD8314018 Si02
#       8
#    16  16  16   8  16  16  16  16
#     4   9  18  32  53  82 115 150 185 220 261 315
#     4   9  18  33  54  81 116 153 185 221 265 315
#     4   9  19  34  53  78 105 139 182 226 273 325
#     4  11  24  38  52  68  96 140 178 222 283 344
#     4  10  19  34  55  79 107 141 184 229 276 328
#     4  11  23  35  53  80 107 137 180 230 282 340
#     4  11  23  37  53  75 102 135 178 229 286 343
#     4  11  21  35  56  78 105 139 181 231 286 340
#
# _framework density 19.075374
#
# number of rings (size 3 to 8) (size 9 to 14) (size 15 to 20)
#    0.000    1.933    2.000    2.000    1.867    4.000 
#    0.000    2.000    0.000    0.800    0.000    7.467 
#    0.000    0.000    0.000    0.000    0.000    0.000 
#
# Total GULP energy -1486688.675131 kJ/mol
# GULP energy per Si atom -12389.072293 kJ/mol
# Density = 1.903196 g / cm^3
# Si number density = 19.075374 Si / 1000 Ang^3
#
#
#
# Elastic Constant Matrix: (Units=GPa)
#
#
# Indices 1 2 3 4 5 6 
#
# 1 83.5712 43.9857 24.3180 0.0000 0.0000 0.0000
# 2 43.9857 83.5712 24.3180 0.0000 0.0000 0.0000
# 3 24.3180 24.3180 87.4980 0.0000 0.0000 0.0000
# 4 0.0000 0.0000 0.0000 33.7403 0.0000 0.0000
# 5 0.0000 0.0000 0.0000 0.0000 33.7403 0.0000
# 6 0.0000 0.0000 0.0000 0.0000 0.0000 26.8784
#
#
#
# Elastic Compliance Matrix: (Units=1/GPa)
#
#
# Indices 1 2 3 4 5 6 
#
# 1 0.017015 -0.008246 -0.002437 0.000000 0.000000 0.000000
# 2 -0.008246 0.017015 -0.002437 0.000000 0.000000 0.000000
# 3 -0.002437 -0.002437 0.012783 0.000000 0.000000 0.000000
# 4 0.000000 0.000000 0.000000 0.029638 0.000000 0.000000
# 5 0.000000 0.000000 0.000000 0.000000 0.029638 0.000000
# 6 0.000000 0.000000 0.000000 0.000000 0.000000 0.037205
#
#
# Mechanical properties :
#
#
# Convention : Reuss Voigt Hill
#
# Bulk Modulus (GPa) = 48.60773 48.87596 48.74184
# Shear Modulus (GPa) = 28.34566 29.67306 29.00936
#
# Velocity S-wave (km/s) = 3.85903 3.94835 3.90394
# Velocity P-wave (km/s) = 6.73746 6.81646 6.77707
#
# Compressibility (1/GPa) = 0.02057286
#
# Stress axis : x y z
#
# Youngs Moduli (GPa) = 58.77060 58.77060 78.22585
#
# Poissons Ratio (x) = 0.48465 0.19064
# Poissons Ratio (y) = 0.48465 0.19064
# Poissons Ratio (z) = 0.14323 0.14323
#
# Static dielectric constant tensor:
#      x y z
#    x 3.414950 0.000000 0.000000 
#    y 0.000000 3.414950 0.000000 
#    z 0.000000 0.000000 1.158070 
# 
# 
# High freq. dielectric constant tensor:
#      x y z
#    x 1.719910 0.000000 0.000000 
#    y 0.000000 1.719910 0.000000 
#    z 0.000000 0.000000 1.749940 
# 
# From -- ./inp_files/2403.got.cif
#   From: 2010.03.12/outbox.cif.g09.slc.cpg/sg127_2_cif.got.tgz:2403.got - 2010.04.06 17:03:15.
