data_PCOD8314896
_publ_section_title
;
Structure prediction by ZEFSAII (Michael W. Deem and Ramdas Pophale) SiO2 
 PCOD8314896
Probable space group: P 4/N M M
;
_chemical_formula_sum "Si O2"
_cell_formula_units_Z 128
_cell_length_a 20.181351
_cell_length_b 20.181351
_cell_length_c 19.887739
_cell_angle_alpha 90.000000
_cell_angle_beta 90.000000
_cell_angle_gamma 90.000000
_cell_volume 8100.016126
_symmetry_space_group_name_H-M "P 4/N M M"
_symmetry_group_IT_number 129
_symmetry_cell_setting 'tetragonal'
loop_
_space_group_symop_operation_xyz
x,y,z
1/2-y,x,z
1/2-x,1/2-y,z
y,1/2-x,z
1/2+x,-y,-z
-x,1/2+y,-z
1/2+y,1/2+x,-z
-y,-x,-z
-x,-y,-z
1/2+y,-x,-z
1/2+x,1/2+y,-z
-y,1/2+x,-z
1/2-x,y,z
x,1/2-y,z
1/2-y,1/2-x,z
y,x,z
loop_
_atom_site_type_symbol
_atom_site_label
_atom_site_fract_x
_atom_site_fract_y
_atom_site_fract_z
Si Si1 0.937600 0.673220 0.033449
Si Si2 0.494263 0.383705 0.340189
Si Si3 0.173859 0.066385 0.463829
Si Si4 0.066482 0.174287 0.616534
Si Si5 0.404634 0.514881 0.861101
Si Si6 0.889109 0.997044 0.910375
Si Si7 0.932645 0.674965 0.783398
Si Si8 0.018693 0.593209 0.290110
O O1 0.916338 0.750000 0.036914
O O2 0.870688 0.629313 0.026256
O O3 0.977795 0.654759 0.100892
O O4 0.988727 0.662780 0.971350
O O5 0.443697 0.443697 0.333530
O O6 0.492122 0.351648 0.414572
O O7 0.473567 0.328418 0.285910
O O8 0.566769 0.413046 0.323530
O O9 0.250000 0.083098 0.449350
O O10 0.133759 0.133759 0.448747
O O11 0.162559 0.042111 0.540011
O O12 0.085984 0.250000 0.629426
O O13 0.132069 0.132069 0.632221
O O14 0.006334 0.154571 0.665260
O O15 0.468460 0.468460 0.855302
O O16 0.428575 0.580897 0.901831
O O17 0.381323 0.532953 0.785612
O O18 0.948555 0.948555 0.929771
O O19 0.855488 0.978886 0.840414
O O20 0.914945 0.750000 0.800870
O O21 0.863358 0.636643 0.778821
O O22 0.963423 0.536578 0.290645
#
# Coordination Sequence:
#
# PCOD8314896 Si02
#       8
#    16  16  16  16  16  16  16  16
#     4  10  20  31  45  67  95 126 156 185 219 264
#     4   9  16  27  42  60  84 115 151 190 231 266
#     4   9  17  28  41  60  89 124 159 190 219 258
#     4   9  18  30  44  64  90 121 154 186 221 265
#     4   9  16  29  48  66  85 113 151 195 236 267
#     4   9  16  29  46  64  86 116 152 192 230 260
#     4  10  18  27  41  62  91 125 156 183 213 255
#     4   9  16  28  46  65  85 111 147 191 237 274
#
# _framework density 15.802436999999999
#
# number of rings (size 3 to 8) (size 9 to 14) (size 15 to 20)
#    0.000    2.750    1.250    1.125    0.000    3.000 
#    0.000    3.750    0.000    4.500    0.000    3.500 
#    0.000   11.500    0.000    5.500    0.000    0.500 
#
# Total GULP energy -1586607.270410 kJ/mol
# GULP energy per Si atom -12395.369300 kJ/mol
# Density = 1.576647 g / cm^3
# Si number density = 15.802437 Si / 1000 Ang^3
#
#
#
# Elastic Constant Matrix: (Units=GPa)
#
#
# Indices 1 2 3 4 5 6 
#
# 1 50.6155 43.6457 33.9468 0.0000 0.0000 0.0000
# 2 43.6457 50.6155 33.9468 0.0000 0.0000 0.0000
# 3 33.9468 33.9468 89.8658 0.0000 0.0000 0.0000
# 4 0.0000 0.0000 0.0000 16.9106 0.0000 0.0000
# 5 0.0000 0.0000 0.0000 0.0000 16.9106 0.0000
# 6 0.0000 0.0000 0.0000 0.0000 0.0000 13.9773
#
#
#
# Elastic Compliance Matrix: (Units=1/GPa)
#
#
# Indices 1 2 3 4 5 6 
#
# 1 0.079025 -0.064450 -0.005505 0.000000 0.000000 0.000000
# 2 -0.064450 0.079025 -0.005505 0.000000 0.000000 0.000000
# 3 -0.005505 -0.005505 0.015287 0.000000 0.000000 0.000000
# 4 0.000000 0.000000 0.000000 0.059135 0.000000 0.000000
# 5 0.000000 0.000000 0.000000 0.000000 0.059135 0.000000
# 6 0.000000 0.000000 0.000000 0.000000 0.000000 0.071545
#
#
# Mechanical properties :
#
#
# Convention : Reuss Voigt Hill
#
# Bulk Modulus (GPa) = 44.61534 46.01950 45.31742
# Shear Modulus (GPa) = 9.58692 14.86351 12.22522
#
# Velocity S-wave (km/s) = 2.46575 3.07022 2.78444
# Velocity P-wave (km/s) = 6.03333 6.46168 6.25117
#
# Compressibility (1/GPa) = 0.02241382
#
# Stress axis : x y z
#
# Youngs Moduli (GPa) = 12.65428 12.65428 65.41487
#
# Poissons Ratio (x) = 0.81557 0.36014
# Poissons Ratio (y) = 0.81557 0.36014
# Poissons Ratio (z) = 0.06967 0.06967
#
# Static dielectric constant tensor:
#      x y z
#    x 2.781780 0.000000 0.000000 
#    y 0.000000 2.781780 0.000000 
#    z 0.000000 0.000000 3.247180 
# 
# 
# High freq. dielectric constant tensor:
#      x y z
#    x 1.572990 0.000000 0.000000 
#    y 0.000000 1.572990 0.000000 
#    z 0.000000 0.000000 1.625520 
# 
# From -- ./inp_files/6153.got.cif
#   From: 2010.03.12/outbox.cif.g09.slc.cpg/sg129_4_cif.got.tgz:6153.got - 2010.04.06 17:19:44.
