data_PCOD8314793
_publ_section_title
;
Structure prediction by ZEFSAII (Michael W. Deem and Ramdas Pophale) SiO2 
 PCOD8314793
Probable space group: P 4/M N C
;
_chemical_formula_sum "Si O2"
_cell_formula_units_Z 96
_cell_length_a 26.479510
_cell_length_b 26.479510
_cell_length_c 10.326746
_cell_angle_alpha 90.000000
_cell_angle_beta 90.000000
_cell_angle_gamma 90.000000
_cell_volume 7240.747178
_symmetry_space_group_name_H-M "P 4/M N C"
_symmetry_group_IT_number 128
_symmetry_cell_setting 'tetragonal'
loop_
_space_group_symop_operation_xyz
x,y,z
-y,x,z
-x,-y,z
y,-x,z
1/2+x,1/2-y,1/2-z
1/2-x,1/2+y,1/2-z
1/2+y,1/2+x,1/2-z
1/2-y,1/2-x,1/2-z
-x,-y,-z
y,-x,-z
x,y,-z
-y,x,-z
1/2-x,1/2+y,1/2+z
1/2+x,1/2-y,1/2+z
1/2-y,1/2-x,1/2+z
1/2+y,1/2+x,1/2+z
loop_
_atom_site_type_symbol
_atom_site_label
_atom_site_fract_x
_atom_site_fract_y
_atom_site_fract_z
Si Si1 0.810543 0.743464 0.356533
Si Si2 0.390284 0.674800 0.150843
Si Si3 0.274188 0.171416 0.356007
Si Si4 0.692132 0.407472 0.151898
Si Si5 0.082303 0.004576 0.500000
Si Si6 0.083852 0.999535 0.000000
Si Si7 0.003688 0.150398 0.746541
O O1 0.799905 0.700096 0.250000
O O2 0.814620 0.718784 0.500000
O O3 0.862334 0.772223 0.321611
O O4 0.765784 0.783625 0.357932
O O5 0.354723 0.628295 0.193315
O O6 0.441327 0.675735 0.234906
O O7 0.404491 0.669599 0.000000
O O8 0.317728 0.182273 0.250000
O O9 0.298359 0.166585 0.500000
O O10 0.245127 0.120082 0.318026
O O11 0.691790 0.458636 0.237920
O O12 0.688081 0.420200 0.000000
O O13 0.047381 0.053006 0.500000
O O14 0.113736 0.008016 0.629043
O O15 0.119608 0.999672 0.122804
O O16 0.049563 0.949890 0.000000
#
# Coordination Sequence:
#
# PCOD8314793 Si02
#       7
#    16  16  16  16   8   8  16
#     4   8  14  25  40  58  77  94 116 149 189 232
#     4   9  16  27  43  60  76  95 125 165 198 229
#     4   8  14  25  40  58  77  94 116 149 189 232
#     4   9  16  27  43  60  76  95 125 165 198 229
#     4  11  20  28  44  60  66  90 138 174 194 233
#     4  11  24  36  40  48  74 106 134 174 218 245
#     4  12  20  31  44  56  76 100 130 167 210 246
#
# _framework density 13.258300999999999
#
# number of rings (size 3 to 8) (size 9 to 14) (size 15 to 20)
#    0.000    2.500    1.667    5.000    0.000    1.333 
#    3.000    0.000    0.000    0.000    0.000    0.000 
#    0.000    0.000    0.000    0.000    0.000    0.833 
#
# Total GULP energy -1189983.992112 kJ/mol
# GULP energy per Si atom -12395.666585 kJ/mol
# Density = 1.322812 g / cm^3
# Si number density = 13.258301 Si / 1000 Ang^3
#
#
#
# Elastic Constant Matrix: (Units=GPa)
#
#
# Indices 1 2 3 4 5 6 
#
# 1 41.8388 25.2073 29.8409 0.0000 0.0000 0.0000
# 2 25.2073 41.8394 29.8413 0.0000 0.0000 0.0000
# 3 29.8409 29.8413 82.1069 0.0000 0.0000 0.0000
# 4 0.0000 0.0000 0.0000 27.7759 0.0000 0.0000
# 5 0.0000 0.0000 0.0000 0.0000 27.7754 0.0000
# 6 0.0000 0.0000 0.0000 0.0000 0.0000 23.4188
#
#
#
# Elastic Compliance Matrix: (Units=1/GPa)
#
#
# Indices 1 2 3 4 5 6 
#
# 1 0.041087 -0.019039 -0.008013 0.000000 0.000000 0.000000
# 2 -0.019039 0.041087 -0.008013 0.000000 0.000000 0.000000
# 3 -0.008013 -0.008013 0.018004 0.000000 0.000000 0.000000
# 4 0.000000 0.000000 0.000000 0.036002 0.000000 0.000000
# 5 0.000000 0.000000 0.000000 0.000000 0.036003 0.000000
# 6 0.000000 0.000000 0.000000 0.000000 0.000000 0.042701
#
#
# Mechanical properties :
#
#
# Convention : Reuss Voigt Hill
#
# Bulk Modulus (GPa) = 33.28086 37.28491 35.28288
# Shear Modulus (GPa) = 16.94742 21.18707 19.06725
#
# Velocity S-wave (km/s) = 3.57914 4.00187 3.79639
# Velocity P-wave (km/s) = 6.49898 7.03820 6.77396
#
# Compressibility (1/GPa) = 0.03004730
#
# Stress axis : x y z
#
# Youngs Moduli (GPa) = 24.33855 24.33878 55.54339
#
# Poissons Ratio (x) = 0.46338 0.44508
# Poissons Ratio (y) = 0.46338 0.44509
# Poissons Ratio (z) = 0.19503 0.19503
#
# Static dielectric constant tensor:
#      x y z
#    x 2.596770 0.000000 0.000000 
#    y 0.000000 2.596770 0.000000 
#    z 0.000000 0.000000 2.758360 
# 
# 
# High freq. dielectric constant tensor:
#      x y z
#    x 1.475880 0.000000 0.000000 
#    y 0.000000 1.475880 0.000000 
#    z 0.000000 0.000000 1.503860 
# 
# From -- ./inp_files/2952.got.cif
#   From: 2010.03.12/outbox.cif.g09.slc.cpg/sg128_2_cif.got.tgz:2952.got - 2010.04.06 17:11:05.
