data_PCOD8314755
_publ_section_title
;
Structure prediction by ZEFSAII (Michael W. Deem and Ramdas Pophale) SiO2 
 PCOD8314755
Probable space group: P 4/M N C
;
_chemical_formula_sum "Si O2"
_cell_formula_units_Z 48
_cell_length_a 8.232965
_cell_length_b 8.232965
_cell_length_c 33.391470
_cell_angle_alpha 90.000000
_cell_angle_beta 90.000000
_cell_angle_gamma 90.000000
_cell_volume 2263.331026
_symmetry_space_group_name_H-M "P 4/M N C"
_symmetry_group_IT_number 128
_symmetry_cell_setting 'tetragonal'
loop_
_space_group_symop_operation_xyz
x,y,z
-y,x,z
-x,-y,z
y,-x,z
1/2+x,1/2-y,1/2-z
1/2-x,1/2+y,1/2-z
1/2+y,1/2+x,1/2-z
1/2-y,1/2-x,1/2-z
-x,-y,-z
y,-x,-z
x,y,-z
-y,x,-z
1/2-x,1/2+y,1/2+z
1/2+x,1/2-y,1/2+z
1/2-y,1/2-x,1/2+z
1/2+y,1/2+x,1/2+z
loop_
_atom_site_type_symbol
_atom_site_label
_atom_site_fract_x
_atom_site_fract_y
_atom_site_fract_z
Si Si1 0.427300 0.755506 0.216966
Si Si2 0.500000 0.000000 0.066445
Si Si3 0.255029 0.918395 0.372783
Si Si4 0.572126 0.761621 0.000000
O O1 0.303192 0.608832 0.223344
O O2 0.392792 0.892792 0.250000
O O3 0.400741 0.825262 0.172190
O O4 0.621211 0.102652 0.095406
O O5 0.398884 0.126139 0.038947
O O6 0.104342 0.800098 0.380035
O O7 0.386048 0.697839 0.000000
#
# Coordination Sequence:
#
# PCOD8314755 Si02
#       4
#    16   8  16   8
#     4   9  19  34  52  77 110 147 187 229 272 318
#     4  11  20  32  61  88 102 134 185 224 266 321
#     4   9  19  36  56  80 111 146 186 228 269 323
#     4  10  22  40  60  82 110 142 178 222 272 336
#
# _framework density 21.207681000000001
#
# number of rings (size 3 to 8) (size 9 to 14) (size 15 to 20)
#    0.000    2.500    0.000    4.000    0.000    8.667 
#    0.000    0.000    0.000   41.000    0.000    0.000 
#    0.000    0.000    0.000    0.000    0.000    0.000 
#
# Total GULP energy -594966.087435 kJ/mol
# GULP energy per Si atom -12395.126822 kJ/mol
# Density = 2.115941 g / cm^3
# Si number density = 21.207681 Si / 1000 Ang^3
#
#
#
# Elastic Constant Matrix: (Units=GPa)
#
#
# Indices 1 2 3 4 5 6 
#
# 1 100.1224 8.3089 59.7277 0.0000 0.0000 0.0000
# 2 8.3089 100.1224 59.7277 0.0000 0.0000 0.0000
# 3 59.7277 59.7277 183.2005 0.0000 0.0000 0.0000
# 4 0.0000 0.0000 0.0000 42.8989 0.0000 0.0000
# 5 0.0000 0.0000 0.0000 0.0000 42.8989 0.0000
# 6 0.0000 0.0000 0.0000 0.0000 0.0000 24.6359
#
#
#
# Elastic Compliance Matrix: (Units=1/GPa)
#
#
# Indices 1 2 3 4 5 6 
#
# 1 0.012642 0.001750 -0.004692 0.000000 0.000000 0.000000
# 2 0.001750 0.012642 -0.004692 0.000000 0.000000 0.000000
# 3 -0.004692 -0.004692 0.008518 0.000000 0.000000 0.000000
# 4 0.000000 0.000000 0.000000 0.023311 0.000000 0.000000
# 5 0.000000 0.000000 0.000000 0.000000 0.023311 0.000000
# 6 0.000000 0.000000 0.000000 0.000000 0.000000 0.040591
#
#
# Mechanical properties :
#
#
# Convention : Reuss Voigt Hill
#
# Bulk Modulus (GPa) = 53.95813 70.99711 62.47762
# Shear Modulus (GPa) = 35.09785 39.13216 37.11501
#
# Velocity S-wave (km/s) = 4.07253 4.30023 4.18793
# Velocity P-wave (km/s) = 6.90014 7.62926 7.27385
#
# Compressibility (1/GPa) = 0.01853289
#
# Stress axis : x y z
#
# Youngs Moduli (GPa) = 79.10453 79.10453 117.40051
#
# Poissons Ratio (x) = -0.13842 0.55083
# Poissons Ratio (y) = -0.13842 0.55083
# Poissons Ratio (z) = 0.37115 0.37115
#
# Static dielectric constant tensor:
#      x y z
#    x 3.619590 0.000000 0.000000 
#    y 0.000000 3.619590 0.000000 
#    z 0.000000 0.000000 4.191150 
# 
# 
# High freq. dielectric constant tensor:
#      x y z
#    x 1.806460 0.000000 0.000000 
#    y 0.000000 1.806460 0.000000 
#    z 0.000000 0.000000 1.858320 
# 
# From -- ./inp_files/7035.got.cif
#   From: 2010.03.12/outbox.cif.g09.slc.cpg/sg128_4_cif.got.tgz:7035.got - 2010.04.06 17:11:05.
