data_PCOD8314323
_publ_section_title
;
Structure prediction by ZEFSAII (Michael W. Deem and Ramdas Pophale) SiO2 
 PCOD8314323
Probable space group: P 4/M B M
;
_chemical_formula_sum "Si O2"
_cell_formula_units_Z 96
_cell_length_a 14.897898
_cell_length_b 14.897898
_cell_length_c 21.812366
_cell_angle_alpha 90.000000
_cell_angle_beta 90.000000
_cell_angle_gamma 90.000000
_cell_volume 4841.197154
_symmetry_space_group_name_H-M "P 4/M B M"
_symmetry_group_IT_number 127
_symmetry_cell_setting 'tetragonal'
loop_
_space_group_symop_operation_xyz
x,y,z
-y,x,z
-x,-y,z
y,-x,z
1/2+x,1/2-y,-z
1/2-x,1/2+y,-z
1/2+y,1/2+x,-z
1/2-y,1/2-x,-z
-x,-y,-z
y,-x,-z
x,y,-z
-y,x,-z
1/2-x,1/2+y,z
1/2+x,1/2-y,z
1/2-y,1/2-x,z
1/2+y,1/2+x,z
loop_
_atom_site_type_symbol
_atom_site_label
_atom_site_fract_x
_atom_site_fract_y
_atom_site_fract_z
Si Si1 0.383137 0.417108 0.755146
Si Si2 0.708420 0.352902 0.428729
Si Si3 0.641137 0.460027 0.069738
Si Si4 0.746549 0.393549 0.820608
Si Si5 0.642631 0.001073 0.272818
Si Si6 0.044336 0.212804 0.634531
O O1 0.481540 0.378731 0.777627
O O2 0.332609 0.335526 0.790010
O O3 0.364175 0.422107 0.682636
O O4 0.716034 0.375458 0.500000
O O5 0.796358 0.296358 0.407122
O O6 0.619788 0.291370 0.418153
O O7 0.696802 0.445793 0.392541
O O8 0.608948 0.560689 0.082689
O O9 0.722868 0.436666 0.114245
O O10 0.674903 0.450585 0.000000
O O11 0.828227 0.328227 0.833035
O O12 0.780752 0.474203 0.775573
O O13 0.576676 0.076676 0.244859
O O14 0.691183 0.043202 0.332153
O O15 0.586021 0.913980 0.293542
#
# Coordination Sequence:
#
# PCOD8314323 Si02
#       6
#    16  16  16  16  16  16
#     4  11  21  36  53  82 118 148 184 234 289 352
#     4  11  25  42  61  88 119 152 196 247 298 358
#     4   9  19  38  61  83 115 160 203 244 291 344
#     4  11  22  36  57  88 122 155 196 246 296 347
#     4  10  22  39  58  83 117 157 198 242 293 352
#     4  12  21  40  62  84 117 155 194 238 296 359
#
# _framework density 19.829803999999999
#
# number of rings (size 3 to 8) (size 9 to 14) (size 15 to 20)
#    0.000    1.333    3.333    3.000    0.000    4.667 
#    0.000    0.833    0.000    1.500    0.000    9.333 
#    0.000    0.000    0.000    0.000    0.000    0.000 
#
# Total GULP energy -1189353.016476 kJ/mol
# GULP energy per Si atom -12389.093922 kJ/mol
# Density = 1.978467 g / cm^3
# Si number density = 19.829804 Si / 1000 Ang^3
#
#
#
# Elastic Constant Matrix: (Units=GPa)
#
#
# Indices 1 2 3 4 5 6 
#
# 1 92.6673 28.3798 39.2378 0.0000 0.0000 0.0000
# 2 28.3798 92.6673 39.2378 0.0000 0.0000 0.0000
# 3 39.2378 39.2378 85.1077 0.0000 0.0000 0.0000
# 4 0.0000 0.0000 0.0000 28.8839 0.0000 0.0000
# 5 0.0000 0.0000 0.0000 0.0000 28.8839 0.0000
# 6 0.0000 0.0000 0.0000 0.0000 0.0000 17.3169
#
#
#
# Elastic Compliance Matrix: (Units=1/GPa)
#
#
# Indices 1 2 3 4 5 6 
#
# 1 0.013669 -0.001886 -0.005432 0.000000 0.000000 0.000000
# 2 -0.001886 0.013669 -0.005432 0.000000 0.000000 0.000000
# 3 -0.005432 -0.005432 0.016759 0.000000 0.000000 0.000000
# 4 0.000000 0.000000 0.000000 0.034621 0.000000 0.000000
# 5 0.000000 0.000000 0.000000 0.000000 0.034621 0.000000
# 6 0.000000 0.000000 0.000000 0.000000 0.000000 0.057747
#
#
# Mechanical properties :
#
#
# Convention : Reuss Voigt Hill
#
# Bulk Modulus (GPa) = 53.77677 53.79477 53.78577
# Shear Modulus (GPa) = 24.65639 25.92275 25.28957
#
# Velocity S-wave (km/s) = 3.53001 3.61953 3.57505
# Velocity P-wave (km/s) = 6.61761 6.68245 6.65011
#
# Compressibility (1/GPa) = 0.01859539
#
# Stress axis : x y z
#
# Youngs Moduli (GPa) = 73.15750 73.15750 59.66962
#
# Poissons Ratio (x) = 0.13797 0.32415
# Poissons Ratio (y) = 0.13797 0.32415
# Poissons Ratio (z) = 0.39743 0.39743
#
# Static dielectric constant tensor:
#      x y z
#    x 3.643710 0.000000 0.000000 
#    y 0.000000 3.643710 0.000000 
#    z 0.000000 0.000000 3.543430 
# 
# 
# High freq. dielectric constant tensor:
#      x y z
#    x 1.773550 0.000000 0.000000 
#    y 0.000000 1.773550 0.000000 
#    z 0.000000 0.000000 1.762900 
# 
# From -- ./inp_files/5786.got.cif
#   From: 2010.03.12/outbox.cif.g09.slc.cpg/sg127_3_cif.got.tgz:5786.got - 2010.04.06 17:03:15.
