data_PCOD8314361
_publ_section_title
;
Structure prediction by ZEFSAII (Michael W. Deem and Ramdas Pophale) SiO2 
 PCOD8314361
Probable space group: P 4/M B M
;
_chemical_formula_sum "Si O2"
_cell_formula_units_Z 72
_cell_length_a 20.882965
_cell_length_b 20.882965
_cell_length_c 10.323710
_cell_angle_alpha 90.000000
_cell_angle_beta 90.000000
_cell_angle_gamma 90.000000
_cell_volume 4502.151629
_symmetry_space_group_name_H-M "P 4/M B M"
_symmetry_group_IT_number 127
_symmetry_cell_setting 'tetragonal'
loop_
_space_group_symop_operation_xyz
x,y,z
-y,x,z
-x,-y,z
y,-x,z
1/2+x,1/2-y,-z
1/2-x,1/2+y,-z
1/2+y,1/2+x,-z
1/2-y,1/2-x,-z
-x,-y,-z
y,-x,-z
x,y,-z
-y,x,-z
1/2-x,1/2+y,z
1/2+x,1/2-y,z
1/2-y,1/2-x,z
1/2+y,1/2+x,z
loop_
_atom_site_type_symbol
_atom_site_label
_atom_site_fract_x
_atom_site_fract_y
_atom_site_fract_z
Si Si1 0.253271 0.652156 0.644086
Si Si2 0.739241 0.139856 0.354160
Si Si3 0.563549 0.337470 0.232987
Si Si4 0.676731 0.421601 0.855695
Si Si5 0.595231 0.544892 0.500000
O O1 0.251150 0.620656 0.500000
O O2 0.184685 0.684685 0.676166
O O3 0.306963 0.705923 0.645898
O O4 0.269464 0.598550 0.751227
O O5 0.729786 0.112831 0.500000
O O6 0.672646 0.172646 0.306671
O O7 0.762736 0.085191 0.252690
O O8 0.494944 0.342988 0.167492
O O9 0.613363 0.377790 0.147604
O O10 0.566031 0.366055 0.375985
O O11 0.705878 0.415312 0.000000
O O12 0.530233 0.584492 0.500000
#
# Coordination Sequence:
#
# PCOD8314361 Si02
#       5
#    16  16  16  16   8
#     4   8  16  31  50  69  86 110 151 196 234 270
#     4   8  14  25  44  67  87 108 141 192 241 275
#     4  11  20  31  46  63  94 121 161 196 230 273
#     4  11  23  33  44  64  95 130 158 189 230 272
#     4  11  20  30  43  66  84 124 171 205 229 266
#
# _framework density 15.992354000000001
#
# number of rings (size 3 to 8) (size 9 to 14) (size 15 to 20)
#    0.000    2.333    3.333    2.000    3.111    0.889 
#    0.000    1.111    0.000    2.000    0.000    0.000 
#    0.000    0.889    0.000    6.889    0.000    2.222 
#
# Total GULP energy -892298.173409 kJ/mol
# GULP energy per Si atom -12393.030186 kJ/mol
# Density = 1.595595 g / cm^3
# Si number density = 15.992354 Si / 1000 Ang^3
#
#
#
# Elastic Constant Matrix: (Units=GPa)
#
#
# Indices 1 2 3 4 5 6 
#
# 1 41.0343 32.6728 20.6908 0.0000 0.0000 0.0000
# 2 32.6728 41.0343 20.6908 0.0000 0.0000 0.0000
# 3 20.6908 20.6908 85.4069 0.0000 0.0000 0.0000
# 4 0.0000 0.0000 0.0000 22.2527 0.0000 0.0000
# 5 0.0000 0.0000 0.0000 0.0000 22.2527 0.0000
# 6 0.0000 0.0000 0.0000 0.0000 0.0000 22.5851
#
#
#
# Elastic Compliance Matrix: (Units=1/GPa)
#
#
# Indices 1 2 3 4 5 6 
#
# 1 0.067650 -0.051947 -0.003804 0.000000 0.000000 0.000000
# 2 -0.051947 0.067650 -0.003804 0.000000 0.000000 0.000000
# 3 -0.003804 -0.003804 0.013552 0.000000 0.000000 0.000000
# 4 0.000000 0.000000 0.000000 0.044938 0.000000 0.000000
# 5 0.000000 0.000000 0.000000 0.000000 0.044938 0.000000
# 6 0.000000 0.000000 0.000000 0.000000 0.000000 0.044277
#
#
# Mechanical properties :
#
#
# Convention : Reuss Voigt Hill
#
# Bulk Modulus (GPa) = 33.62359 35.06493 34.34426
# Shear Modulus (GPa) = 12.13507 19.64617 15.89062
#
# Velocity S-wave (km/s) = 2.75763 3.50876 3.15562
# Velocity P-wave (km/s) = 5.58657 6.19587 5.89910
#
# Compressibility (1/GPa) = 0.02974102
#
# Stress axis : x y z
#
# Youngs Moduli (GPa) = 14.78203 14.78203 73.79037
#
# Poissons Ratio (x) = 0.76788 0.28072
# Poissons Ratio (y) = 0.76788 0.28072
# Poissons Ratio (z) = 0.05623 0.05623
#
# Static dielectric constant tensor:
#      x y z
#    x 3.090990 0.000000 0.000000 
#    y 0.000000 3.090990 0.000000 
#    z 0.000000 0.000000 3.097350 
# 
# 
# High freq. dielectric constant tensor:
#      x y z
#    x 1.584920 0.000000 0.000000 
#    y 0.000000 1.584920 0.000000 
#    z 0.000000 0.000000 1.613610 
# 
# From -- ./inp_files/1573.got.cif
#   From: 2010.03.12/outbox.cif.g09.slc.cpg/sg127_1_cif.got.tgz:1573.got - 2010.04.06 17:03:15.
