data_PCOD8314379
_publ_section_title
;
Structure prediction by ZEFSAII (Michael W. Deem and Ramdas Pophale) SiO2 
 PCOD8314379
Probable space group: P 4/M B M
;
_chemical_formula_sum "Si O2"
_cell_formula_units_Z 88
_cell_length_a 14.788961
_cell_length_b 14.788961
_cell_length_c 21.502660
_cell_angle_alpha 90.000000
_cell_angle_beta 90.000000
_cell_angle_gamma 90.000000
_cell_volume 4702.919178
_symmetry_space_group_name_H-M "P 4/M B M"
_symmetry_group_IT_number 127
_symmetry_cell_setting 'tetragonal'
loop_
_space_group_symop_operation_xyz
x,y,z
-y,x,z
-x,-y,z
y,-x,z
1/2+x,1/2-y,-z
1/2-x,1/2+y,-z
1/2+y,1/2+x,-z
1/2-y,1/2-x,-z
-x,-y,-z
y,-x,-z
x,y,-z
-y,x,-z
1/2-x,1/2+y,z
1/2+x,1/2-y,z
1/2-y,1/2-x,z
1/2+y,1/2+x,z
loop_
_atom_site_type_symbol
_atom_site_label
_atom_site_fract_x
_atom_site_fract_y
_atom_site_fract_z
Si Si1 0.894651 0.246824 0.817225
Si Si2 0.604419 0.606860 0.279852
Si Si3 0.500076 0.855855 0.283840
Si Si4 0.610452 0.258227 0.620867
Si Si5 0.546456 0.356971 0.500000
Si Si6 0.856651 0.961954 0.070307
O O1 0.808485 0.308485 0.830407
O O2 0.860442 0.154654 0.783176
O O3 0.968468 0.295405 0.773919
O O4 0.940834 0.224755 0.882941
O O5 0.498514 0.626058 0.282410
O O6 0.657691 0.649622 0.338419
O O7 0.583275 0.916726 0.308666
O O8 0.466151 0.794984 0.340696
O O9 0.418666 0.918666 0.259099
O O10 0.693772 0.193772 0.602878
O O11 0.563464 0.295456 0.559592
O O12 0.612445 0.442720 0.500000
O O13 0.937274 0.891643 0.082407
O O14 0.820254 0.952345 0.000000
#
# Coordination Sequence:
#
# PCOD8314379 Si02
#       6
#    16  16  16  16   8  16
#     4  11  21  34  56  87 115 146 195 242 284 335
#     4  11  21  35  54  81 116 151 185 227 286 342
#     4   9  20  39  60  83 116 153 189 237 291 339
#     4  11  22  40  62  86 113 146 194 242 283 335
#     4  11  25  44  60  81 117 157 188 223 290 355
#     4   9  19  37  57  78 111 154 193 232 286 347
#
# _framework density 18.711783
#
# number of rings (size 3 to 8) (size 9 to 14) (size 15 to 20)
#    0.000    1.727    1.818    3.545    0.000    3.273 
#    0.000    1.364    0.000    3.818    0.000    2.545 
#    0.000    0.000    0.000    0.000    0.000    0.000 
#
# Total GULP energy -1091064.428709 kJ/mol
# GULP energy per Si atom -12398.459417 kJ/mol
# Density = 1.866919 g / cm^3
# Si number density = 18.711783 Si / 1000 Ang^3
#
#
#
# Elastic Constant Matrix: (Units=GPa)
#
#
# Indices 1 2 3 4 5 6 
#
# 1 112.4686 53.1440 64.8838 0.0000 0.0000 0.0000
# 2 53.1440 112.4686 64.8838 0.0000 0.0000 0.0000
# 3 64.8838 64.8838 147.1537 0.0000 0.0000 0.0000
# 4 0.0000 0.0000 0.0000 25.4176 0.0000 0.0000
# 5 0.0000 0.0000 0.0000 0.0000 25.4176 0.0000
# 6 0.0000 0.0000 0.0000 0.0000 0.0000 21.9376
#
#
#
# Elastic Compliance Matrix: (Units=1/GPa)
#
#
# Indices 1 2 3 4 5 6 
#
# 1 0.013041 -0.003815 -0.004068 0.000000 0.000000 0.000000
# 2 -0.003815 0.013041 -0.004068 0.000000 0.000000 0.000000
# 3 -0.004068 -0.004068 0.010383 0.000000 0.000000 0.000000
# 4 0.000000 0.000000 0.000000 0.039343 0.000000 0.000000
# 5 0.000000 0.000000 0.000000 0.000000 0.039343 0.000000
# 6 0.000000 0.000000 0.000000 0.000000 0.000000 0.045584
#
#
# Mechanical properties :
#
#
# Convention : Reuss Voigt Hill
#
# Bulk Modulus (GPa) = 79.60035 81.99049 80.79542
# Shear Modulus (GPa) = 26.47974 27.16653 26.82313
#
# Velocity S-wave (km/s) = 3.76591 3.81444 3.79025
# Velocity P-wave (km/s) = 7.84487 7.95692 7.90110
#
# Compressibility (1/GPa) = 0.01256276
#
# Stress axis : x y z
#
# Youngs Moduli (GPa) = 76.68139 76.68139 96.31324
#
# Poissons Ratio (x) = 0.29257 0.39178
# Poissons Ratio (y) = 0.29257 0.39178
# Poissons Ratio (z) = 0.31192 0.31192
#
# Static dielectric constant tensor:
#      x y z
#    x 3.518090 0.000000 0.000000 
#    y 0.000000 3.518090 0.000000 
#    z 0.000000 0.000000 3.395460 
# 
# 
# High freq. dielectric constant tensor:
#      x y z
#    x 1.729750 0.000000 0.000000 
#    y 0.000000 1.729750 0.000000 
#    z 0.000000 0.000000 1.718970 
# 
# From -- ./inp_files/5703.got.cif
#   From: 2010.03.12/outbox.cif.g09.slc.cpg/sg127_3_cif.got.tgz:5703.got - 2010.04.06 17:03:15.
