data_PCOD8314774
_publ_section_title
;
Structure prediction by ZEFSAII (Michael W. Deem and Ramdas Pophale) SiO2 
 PCOD8314774
Probable space group: P 4/M N C
;
_chemical_formula_sum "Si O2"
_cell_formula_units_Z 88
_cell_length_a 12.794105
_cell_length_b 12.794105
_cell_length_c 29.159254
_cell_angle_alpha 90.000000
_cell_angle_beta 90.000000
_cell_angle_gamma 90.000000
_cell_volume 4773.052707
_symmetry_space_group_name_H-M "P 4/M N C"
_symmetry_group_IT_number 128
_symmetry_cell_setting 'tetragonal'
loop_
_space_group_symop_operation_xyz
x,y,z
-y,x,z
-x,-y,z
y,-x,z
1/2+x,1/2-y,1/2-z
1/2-x,1/2+y,1/2-z
1/2+y,1/2+x,1/2-z
1/2-y,1/2-x,1/2-z
-x,-y,-z
y,-x,-z
x,y,-z
-y,x,-z
1/2-x,1/2+y,1/2+z
1/2+x,1/2-y,1/2+z
1/2-y,1/2-x,1/2+z
1/2+y,1/2+x,1/2+z
loop_
_atom_site_type_symbol
_atom_site_label
_atom_site_fract_x
_atom_site_fract_y
_atom_site_fract_z
Si Si1 0.808638 0.553707 0.948536
Si Si2 0.829264 0.354080 0.358034
Si Si3 0.500000 0.000000 0.613480
Si Si4 0.651381 0.422748 0.709247
Si Si5 0.654005 0.426083 0.185617
Si Si6 0.178289 0.745051 0.448207
O O1 0.730586 0.645896 0.934019
O O2 0.742750 0.446899 0.944909
O O3 0.910817 0.553841 0.917014
O O4 0.849622 0.571490 0.000000
O O5 0.735975 0.372975 0.323708
O O6 0.886321 0.245483 0.346780
O O7 0.787595 0.342989 0.410765
O O8 0.911055 0.449574 0.354244
O O9 0.638168 0.544728 0.698882
O O10 0.686619 0.407714 0.761612
O O11 0.637487 0.548363 0.175468
O O12 0.210797 0.710023 0.500000
#
# Coordination Sequence:
#
# PCOD8314774 Si02
#       6
#    16  16   8  16  16  16
#     4   9  18  36  54  74 109 147 185 229 280 329
#     4  11  22  34  60  82 116 141 193 226 280 326
#     4  10  23  34  47  84 110 144 182 226 274 330
#     4   9  20  39  59  80 109 148 189 231 282 331
#     4   9  20  38  58  83 113 146 182 225 287 347
#     4   9  20  34  53  81 113 148 187 228 277 335
#
# _framework density 18.436838999999999
#
# number of rings (size 3 to 8) (size 9 to 14) (size 15 to 20)
#    0.000    2.545    0.000    1.909    7.636    1.091 
#    0.000    5.455    0.000    0.000    0.000    1.273 
#    0.000    0.000    0.000    0.000    0.000    0.000 
#
# Total GULP energy -1091019.023414 kJ/mol
# GULP energy per Si atom -12397.943448 kJ/mol
# Density = 1.839488 g / cm^3
# Si number density = 18.436839 Si / 1000 Ang^3
#
#
#
# Elastic Constant Matrix: (Units=GPa)
#
#
# Indices 1 2 3 4 5 6 
#
# 1 78.7152 47.2291 38.9286 0.0000 0.0000 0.0000
# 2 47.2291 78.7152 38.9286 0.0000 0.0000 0.0000
# 3 38.9286 38.9286 80.1693 0.0000 0.0000 0.0000
# 4 0.0000 0.0000 0.0000 31.8015 0.0000 0.0000
# 5 0.0000 0.0000 0.0000 0.0000 31.8015 0.0000
# 6 0.0000 0.0000 0.0000 0.0000 0.0000 26.0844
#
#
#
# Elastic Compliance Matrix: (Units=1/GPa)
#
#
# Indices 1 2 3 4 5 6 
#
# 1 0.021553 -0.010207 -0.005509 0.000000 0.000000 0.000000
# 2 -0.010207 0.021553 -0.005509 0.000000 0.000000 0.000000
# 3 -0.005509 -0.005509 0.017824 0.000000 0.000000 0.000000
# 4 0.000000 0.000000 0.000000 0.031445 0.000000 0.000000
# 5 0.000000 0.000000 0.000000 0.000000 0.031445 0.000000
# 6 0.000000 0.000000 0.000000 0.000000 0.000000 0.038337
#
#
# Mechanical properties :
#
#
# Convention : Reuss Voigt Hill
#
# Bulk Modulus (GPa) = 54.11716 54.19694 54.15705
# Shear Modulus (GPa) = 23.72278 25.43839 24.58059
#
# Velocity S-wave (km/s) = 3.59096 3.71854 3.65531
# Velocity P-wave (km/s) = 6.82713 6.92073 6.87409
#
# Compressibility (1/GPa) = 0.01847843
#
# Stress axis : x y z
#
# Youngs Moduli (GPa) = 46.39744 46.39744 56.10409
#
# Poissons Ratio (x) = 0.47358 0.30909
# Poissons Ratio (y) = 0.47358 0.30909
# Poissons Ratio (z) = 0.25562 0.25562
#
# Static dielectric constant tensor:
#      x y z
#    x 3.261770 0.000000 0.000000 
#    y 0.000000 3.261770 0.000000 
#    z 0.000000 0.000000 3.575230 
# 
# 
# High freq. dielectric constant tensor:
#      x y z
#    x 1.704640 0.000000 0.000000 
#    y 0.000000 1.704640 0.000000 
#    z 0.000000 0.000000 1.727420 
# 
# From -- ./inp_files/7266.got.cif
#   From: 2010.03.12/outbox.cif.g09.slc.cpg/sg128_4_cif.got.tgz:7266.got - 2010.04.06 17:11:05.
