data_PCOD8314685
_publ_section_title
;
Structure prediction by ZEFSAII (Michael W. Deem and Ramdas Pophale) SiO2 
 PCOD8314685
Probable space group: P 4/M N C
;
_chemical_formula_sum "Si O2"
_cell_formula_units_Z 96
_cell_length_a 23.883132
_cell_length_b 23.883132
_cell_length_c 8.862213
_cell_angle_alpha 90.000000
_cell_angle_beta 90.000000
_cell_angle_gamma 90.000000
_cell_volume 5055.041692
_symmetry_space_group_name_H-M "P 4/M N C"
_symmetry_group_IT_number 128
_symmetry_cell_setting 'tetragonal'
loop_
_space_group_symop_operation_xyz
x,y,z
-y,x,z
-x,-y,z
y,-x,z
1/2+x,1/2-y,1/2-z
1/2-x,1/2+y,1/2-z
1/2+y,1/2+x,1/2-z
1/2-y,1/2-x,1/2-z
-x,-y,-z
y,-x,-z
x,y,-z
-y,x,-z
1/2-x,1/2+y,1/2+z
1/2+x,1/2-y,1/2+z
1/2-y,1/2-x,1/2+z
1/2+y,1/2+x,1/2+z
loop_
_atom_site_type_symbol
_atom_site_label
_atom_site_fract_x
_atom_site_fract_y
_atom_site_fract_z
Si Si1 0.001427 0.416438 0.179807
Si Si2 0.084894 0.029882 0.177220
Si Si3 0.508850 0.201892 0.823027
Si Si4 0.304522 0.276702 0.821269
Si Si5 0.301536 0.571562 0.178147
Si Si6 0.135201 0.285946 0.324731
O O1 0.949092 0.449092 0.250000
O O2 0.058815 0.441186 0.250000
O O3 0.994616 0.352107 0.224414
O O4 0.002261 0.423492 0.000000
O O5 0.140447 0.049218 0.259254
O O6 0.033713 0.070333 0.225179
O O7 0.094648 0.033317 0.000000
O O8 0.467919 0.250958 0.769623
O O9 0.570807 0.223723 0.783891
O O10 0.502218 0.187606 0.000000
O O11 0.280481 0.219520 0.750000
O O12 0.366659 0.287946 0.759202
O O13 0.267119 0.329260 0.766057
O O14 0.304443 0.269827 0.000000
O O15 0.307236 0.572242 0.000000
O O16 0.156831 0.343170 0.250000
O O17 0.144516 0.293793 0.500000
#
# Coordination Sequence:
#
# PCOD8314685 Si02
#       6
#    16  16  16  16  16  16
#     4  11  22  38  60  84 112 149 189 234 283 339
#     4   9  20  39  59  81 113 151 191 238 290 343
#     4  10  21  36  53  81 116 147 181 232 283 332
#     4   9  19  36  55  78 107 144 185 225 272 326
#     4  10  22  36  57  86 116 149 189 235 284 336
#     4   9  18  33  54  76 105 139 177 224 273 320
#
# _framework density 18.990940999999999
#
# number of rings (size 3 to 8) (size 9 to 14) (size 15 to 20)
#    0.000    2.333    0.000    3.000    2.333    4.667 
#    0.000    2.500    0.000    0.000    0.000    0.000 
#    0.000    0.000    0.000    0.000    0.000    0.000 
#
# Total GULP energy -1190546.522389 kJ/mol
# GULP energy per Si atom -12401.526275 kJ/mol
# Density = 1.894772 g / cm^3
# Si number density = 18.990941 Si / 1000 Ang^3
#
#
#
# Elastic Constant Matrix: (Units=GPa)
#
#
# Indices 1 2 3 4 5 6 
#
# 1 153.6756 84.6644 46.7500 0.0000 0.0000 0.0000
# 2 84.6644 153.6765 46.7455 0.0000 0.0000 0.0000
# 3 46.7500 46.7455 54.8091 0.0000 0.0000 0.0000
# 4 0.0000 0.0000 0.0000 30.6260 0.0000 0.0000
# 5 0.0000 0.0000 0.0000 0.0000 30.6258 0.0000
# 6 0.0000 0.0000 0.0000 0.0000 0.0000 26.2133
#
#
#
# Elastic Compliance Matrix: (Units=1/GPa)
#
#
# Indices 1 2 3 4 5 6 
#
# 1 0.010398 -0.004092 -0.005379 0.000000 0.000000 0.000000
# 2 -0.004092 0.010397 -0.005377 0.000000 0.000000 0.000000
# 3 -0.005379 -0.005377 0.027419 0.000000 0.000000 0.000000
# 4 0.000000 0.000000 0.000000 0.032652 0.000000 0.000000
# 5 0.000000 0.000000 0.000000 0.000000 0.032652 0.000000
# 6 0.000000 0.000000 0.000000 0.000000 0.000000 0.038149
#
#
# Mechanical properties :
#
#
# Convention : Reuss Voigt Hill
#
# Bulk Modulus (GPa) = 54.00170 79.83122 66.91646
# Shear Modulus (GPa) = 26.66146 29.75980 28.21063
#
# Velocity S-wave (km/s) = 3.75094 3.96290 3.85837
# Velocity P-wave (km/s) = 6.87434 7.94148 7.42710
#
# Compressibility (1/GPa) = 0.01851794
#
# Stress axis : x y z
#
# Youngs Moduli (GPa) = 96.17047 96.17783 36.47107
#
# Poissons Ratio (x) = 0.39361 0.19617
# Poissons Ratio (y) = 0.39358 0.19610
# Poissons Ratio (z) = 0.51729 0.51715
#
# Static dielectric constant tensor:
#      x y z
#    x 3.691220 0.000000 0.000000 
#    y 0.000000 3.691200 0.000000 
#    z 0.000000 0.000000 3.321790 
# 
# 
# High freq. dielectric constant tensor:
#      x y z
#    x 1.744600 0.000000 0.000000 
#    y 0.000000 1.744600 0.000000 
#    z 0.000000 0.000000 1.727380 
# 
# From -- ./inp_files/1439.got.cif
#   From: 2010.03.12/outbox.cif.g09.slc.cpg/sg128_1_cif.got.tgz:1439.got - 2010.04.06 17:11:05.
