data_PCOD8314466
_publ_section_title
;
Structure prediction by ZEFSAII (Michael W. Deem and Ramdas Pophale) SiO2 
 PCOD8314466
Probable space group: P 4/M B M
;
_chemical_formula_sum "Si O2"
_cell_formula_units_Z 96
_cell_length_a 29.026837
_cell_length_b 29.026837
_cell_length_c 9.202657
_cell_angle_alpha 90.000000
_cell_angle_beta 90.000000
_cell_angle_gamma 90.000000
_cell_volume 7753.765524
_symmetry_space_group_name_H-M "P 4/M B M"
_symmetry_group_IT_number 127
_symmetry_cell_setting 'tetragonal'
loop_
_space_group_symop_operation_xyz
x,y,z
-y,x,z
-x,-y,z
y,-x,z
1/2+x,1/2-y,-z
1/2-x,1/2+y,-z
1/2+y,1/2+x,-z
1/2-y,1/2-x,-z
-x,-y,-z
y,-x,-z
x,y,-z
-y,x,-z
1/2-x,1/2+y,z
1/2+x,1/2-y,z
1/2-y,1/2-x,z
1/2+y,1/2+x,z
loop_
_atom_site_type_symbol
_atom_site_label
_atom_site_fract_x
_atom_site_fract_y
_atom_site_fract_z
Si Si1 0.118313 0.695647 0.338456
Si Si2 0.950956 0.378672 0.672920
Si Si3 0.129771 0.445498 0.329665
Si Si4 0.180040 0.242268 0.664361
Si Si5 0.179435 0.757155 0.163393
Si Si6 0.882437 0.695042 0.164054
O O1 0.108909 0.715530 0.500000
O O2 0.159585 0.659585 0.347697
O O3 0.073251 0.669113 0.276345
O O4 0.132256 0.737640 0.233246
O O5 0.949333 0.380513 0.500000
O O6 0.922785 0.422785 0.735302
O O7 0.003246 0.380532 0.729107
O O8 0.141448 0.444786 0.500000
O O9 0.084795 0.415206 0.295170
O O10 0.174283 0.426760 0.245127
O O11 0.166069 0.229385 0.500000
O O12 0.218478 0.281523 0.663853
O O13 0.199229 0.196836 0.743977
O O14 0.134918 0.259909 0.749859
O O15 0.218125 0.718125 0.163124
O O16 0.168778 0.773549 0.000000
O O17 0.842330 0.657671 0.163070
O O18 0.895847 0.709067 0.000000
#
# Coordination Sequence:
#
# PCOD8314466 Si02
#       6
#    16  16  16  16  16  16
#     4   8  13  22  34  45  59  80 103 125 152 188
#     4   8  14  24  37  51  64  79 103 137 174 208
#     4   9  16  25  37  51  64  79 103 136 173 211
#     4   9  15  22  33  48  64  81 100 119 141 175
#     4   9  15  21  30  46  66  83  98 117 143 177
#     4   9  16  25  35  46  62  82 101 123 154 191
#
# _framework density 12.381080000000001
#
# number of rings (size 3 to 8) (size 9 to 14) (size 15 to 20)
#    0.000    3.333    0.000    2.500    0.000    6.333 
#    0.000    2.500    0.000    1.500    0.000    2.333 
#    0.000    0.000    0.000    0.000    0.000    0.000 
#
# Total GULP energy -1189844.506176 kJ/mol
# GULP energy per Si atom -12394.213606 kJ/mol
# Density = 1.235290 g / cm^3
# Si number density = 12.381080 Si / 1000 Ang^3
#
#
#
# Elastic Constant Matrix: (Units=GPa)
#
#
# Indices 1 2 3 4 5 6 
#
# 1 51.3081 50.2972 34.8574 0.0000 0.0000 0.0000
# 2 50.2972 51.3081 34.8574 0.0000 0.0000 0.0000
# 3 34.8574 34.8574 80.2724 0.0000 0.0000 0.0000
# 4 0.0000 0.0000 0.0000 9.0851 0.0000 0.0000
# 5 0.0000 0.0000 0.0000 0.0000 9.0851 0.0000
# 6 0.0000 0.0000 0.0000 0.0000 0.0000 15.1345
#
#
#
# Elastic Compliance Matrix: (Units=1/GPa)
#
#
# Indices 1 2 3 4 5 6 
#
# 1 0.501643 -0.487624 -0.006088 0.000000 0.000000 0.000000
# 2 -0.487624 0.501643 -0.006088 0.000000 0.000000 0.000000
# 3 -0.006088 -0.006088 0.017744 0.000000 0.000000 0.000000
# 4 0.000000 0.000000 0.000000 0.110070 0.000000 0.000000
# 5 0.000000 0.000000 0.000000 0.000000 0.110070 0.000000
# 6 0.000000 0.000000 0.000000 0.000000 0.000000 0.066074
#
#
# Mechanical properties :
#
#
# Convention : Reuss Voigt Hill
#
# Bulk Modulus (GPa) = 46.65909 46.99030 46.82470
# Shear Modulus (GPa) = 2.16077 10.85273 6.50675
#
# Velocity S-wave (km/s) = 1.32250 2.96388 2.29495
# Velocity P-wave (km/s) = 6.33243 7.05326 6.70254
#
# Compressibility (1/GPa) = 0.02143205
#
# Stress axis : x y z
#
# Youngs Moduli (GPa) = 1.99345 1.99345 56.35550
#
# Poissons Ratio (x) = 0.97205 0.34307
# Poissons Ratio (y) = 0.97205 0.34307
# Poissons Ratio (z) = 0.01214 0.01214
#
# Static dielectric constant tensor:
#      x y z
#    x 2.419500 0.000000 0.000000 
#    y 0.000000 2.419500 0.000000 
#    z 0.000000 0.000000 2.620560 
# 
# 
# High freq. dielectric constant tensor:
#      x y z
#    x 1.432500 0.000000 0.000000 
#    y 0.000000 1.432500 0.000000 
#    z 0.000000 0.000000 1.471670 
# 
# From -- ./inp_files/2188.got.cif
#   From: 2010.03.12/outbox.cif.g09.slc.cpg/sg127_2_cif.got.tgz:2188.got - 2010.04.06 17:03:15.
