data_PCOD8314521
_publ_section_title
;
Structure prediction by ZEFSAII (Michael W. Deem and Ramdas Pophale) SiO2 
 PCOD8314521
Probable space group: P 4/M N C
;
_chemical_formula_sum "Si O2"
_cell_formula_units_Z 96
_cell_length_a 15.703722
_cell_length_b 15.703722
_cell_length_c 22.335780
_cell_angle_alpha 90.000000
_cell_angle_beta 90.000000
_cell_angle_gamma 90.000000
_cell_volume 5508.157122
_symmetry_space_group_name_H-M "P 4/M N C"
_symmetry_group_IT_number 128
_symmetry_cell_setting 'tetragonal'
loop_
_space_group_symop_operation_xyz
x,y,z
-y,x,z
-x,-y,z
y,-x,z
1/2+x,1/2-y,1/2-z
1/2-x,1/2+y,1/2-z
1/2+y,1/2+x,1/2-z
1/2-y,1/2-x,1/2-z
-x,-y,-z
y,-x,-z
x,y,-z
-y,x,-z
1/2-x,1/2+y,1/2+z
1/2+x,1/2-y,1/2+z
1/2-y,1/2-x,1/2+z
1/2+y,1/2+x,1/2+z
loop_
_atom_site_type_symbol
_atom_site_label
_atom_site_fract_x
_atom_site_fract_y
_atom_site_fract_z
Si Si1 0.682271 0.648635 0.379583
Si Si2 0.916650 0.543352 0.429424
Si Si3 0.978497 0.236906 0.069222
Si Si4 0.881993 0.074658 0.235293
Si Si5 0.429206 0.620458 0.871122
Si Si6 0.220964 0.347363 0.069997
O O1 0.595361 0.697866 0.391160
O O2 0.684919 0.566135 0.422494
O O3 0.684295 0.618645 0.310198
O O4 0.760647 0.711762 0.392229
O O5 0.921564 0.533164 0.500000
O O6 0.832845 0.494015 0.406773
O O7 0.910946 0.643445 0.412541
O O8 0.000000 0.500000 0.399460
O O9 0.951953 0.234715 0.000000
O O10 0.851348 0.090513 0.303128
O O11 0.974218 0.115017 0.223610
O O12 0.385546 0.529763 0.883599
O O13 0.391031 0.689608 0.915920
O O14 0.217047 0.324012 0.000000
#
# Coordination Sequence:
#
# PCOD8314521 Si02
#       6
#    16  16  16  16  16  16
#     4  11  19  31  49  74 107 142 170 214 254 313
#     4   8  16  32  50  68  99 141 175 203 247 313
#     4  10  19  29  44  73 108 139 170 206 252 309
#     4   9  17  33  54  77 102 138 184 216 256 316
#     4   9  20  38  58  77 101 131 173 235 284 319
#     4  10  21  34  50  79 109 134 177 224 266 324
#
# _framework density 17.428697
#
# number of rings (size 3 to 8) (size 9 to 14) (size 15 to 20)
#    0.000    2.500    1.667    3.500    0.000    3.000 
#    0.000    3.333    0.000    0.000    0.000    4.667 
#    0.000    0.000    0.000    0.000    0.000    0.000 
#
# Total GULP energy -1190228.215424 kJ/mol
# GULP energy per Si atom -12398.210577 kJ/mol
# Density = 1.738903 g / cm^3
# Si number density = 17.428697 Si / 1000 Ang^3
#
#
#
# Elastic Constant Matrix: (Units=GPa)
#
#
# Indices 1 2 3 4 5 6 
#
# 1 93.4170 60.2456 23.4350 0.0000 0.0000 0.0000
# 2 60.2456 93.4170 23.4350 0.0000 0.0000 0.0000
# 3 23.4350 23.4350 43.1981 0.0000 0.0000 0.0000
# 4 0.0000 0.0000 0.0000 25.4762 0.0000 0.0000
# 5 0.0000 0.0000 0.0000 0.0000 25.4762 0.0000
# 6 0.0000 0.0000 0.0000 0.0000 0.0000 27.8734
#
#
#
# Elastic Compliance Matrix: (Units=1/GPa)
#
#
# Indices 1 2 3 4 5 6 
#
# 1 0.018972 -0.011174 -0.004231 0.000000 0.000000 0.000000
# 2 -0.011174 0.018972 -0.004231 0.000000 0.000000 0.000000
# 3 -0.004231 -0.004231 0.027739 0.000000 0.000000 0.000000
# 4 0.000000 0.000000 0.000000 0.039252 0.000000 0.000000
# 5 0.000000 0.000000 0.000000 0.000000 0.039252 0.000000
# 6 0.000000 0.000000 0.000000 0.000000 0.000000 0.035876
#
#
# Mechanical properties :
#
#
# Convention : Reuss Voigt Hill
#
# Bulk Modulus (GPa) = 37.85935 49.36260 43.61098
# Shear Modulus (GPa) = 21.91638 23.95958 22.93798
#
# Velocity S-wave (km/s) = 3.54996 3.71174 3.63175
# Velocity P-wave (km/s) = 6.21068 6.83765 6.53169
#
# Compressibility (1/GPa) = 0.02641355
#
# Stress axis : x y z
#
# Youngs Moduli (GPa) = 52.70850 52.70850 36.04996
#
# Poissons Ratio (x) = 0.58897 0.15251
# Poissons Ratio (y) = 0.58897 0.15251
# Poissons Ratio (z) = 0.22298 0.22298
#
# Static dielectric constant tensor:
#      x y z
#    x 3.251560 0.000000 0.000000 
#    y 0.000000 3.251560 0.000000 
#    z 0.000000 0.000000 3.039950 
# 
# 
# High freq. dielectric constant tensor:
#      x y z
#    x 1.668020 0.000000 0.000000 
#    y 0.000000 1.668020 0.000000 
#    z 0.000000 0.000000 1.653990 
# 
# From -- ./inp_files/5719.got.cif
#   From: 2010.03.12/outbox.cif.g09.slc.cpg/sg128_3_cif.got.tgz:5719.got - 2010.04.06 17:11:05.
