data_PCOD8314357
_publ_section_title
;
Structure prediction by ZEFSAII (Michael W. Deem and Ramdas Pophale) SiO2 
 PCOD8314357
Probable space group: P 4/M B M
;
_chemical_formula_sum "Si O2"
_cell_formula_units_Z 72
_cell_length_a 19.602354
_cell_length_b 19.602354
_cell_length_c 12.840096
_cell_angle_alpha 90.000000
_cell_angle_beta 90.000000
_cell_angle_gamma 90.000000
_cell_volume 4933.836193
_symmetry_space_group_name_H-M "P 4/M B M"
_symmetry_group_IT_number 127
_symmetry_cell_setting 'tetragonal'
loop_
_space_group_symop_operation_xyz
x,y,z
-y,x,z
-x,-y,z
y,-x,z
1/2+x,1/2-y,-z
1/2-x,1/2+y,-z
1/2+y,1/2+x,-z
1/2-y,1/2-x,-z
-x,-y,-z
y,-x,-z
x,y,-z
-y,x,-z
1/2-x,1/2+y,z
1/2+x,1/2-y,z
1/2-y,1/2-x,z
1/2+y,1/2+x,z
loop_
_atom_site_type_symbol
_atom_site_label
_atom_site_fract_x
_atom_site_fract_y
_atom_site_fract_z
Si Si1 0.250037 0.860239 0.621948
Si Si2 0.290131 0.500000 0.304946
Si Si3 0.888710 1.000000 0.880870
Si Si4 0.888288 1.000000 0.500000
Si Si5 0.860240 0.250038 0.378052
O O1 0.245233 0.876579 0.500000
O O2 0.318276 0.818276 0.647844
O O3 0.254727 0.931327 0.684431
O O4 0.183773 0.816227 0.655840
O O5 0.322799 0.500000 0.191202
O O6 0.346060 0.500000 0.394809
O O7 0.245272 0.568673 0.315569
O O8 0.933148 0.066852 0.857098
O O9 0.863768 1.000000 0.000000
O O10 0.932122 0.067878 0.500000
O O11 0.876579 0.245234 0.500000
O O12 0.818277 0.318277 0.352155
#
# Coordination Sequence:
#
# PCOD8314357 Si02
#       5
#    16  16  16   8  16
#     4   9  17  28  41  61  90 118 143 174 219 273
#     4  12  18  27  46  63  83 116 150 181 213 258
#     4   9  18  30  42  60  89 122 149 172 209 267
#     4  11  20  24  34  66  96 105 124 172 220 253
#     4   9  17  28  41  61  90 118 143 174 219 273
#
# _framework density 14.593106000000001
#
# number of rings (size 3 to 8) (size 9 to 14) (size 15 to 20)
#    0.000    2.111    2.222    6.000    0.000    1.778 
#    0.000    0.000    0.000    2.000    0.000    9.333 
#    0.000    0.000    0.000    2.000    0.000    0.667 
#
# Total GULP energy -892745.305820 kJ/mol
# GULP energy per Si atom -12399.240359 kJ/mol
# Density = 1.455989 g / cm^3
# Si number density = 14.593106 Si / 1000 Ang^3
#
#
#
# Elastic Constant Matrix: (Units=GPa)
#
#
# Indices 1 2 3 4 5 6 
#
# 1 94.0480 48.6759 35.3556 0.0000 0.0000 0.0000
# 2 48.6759 94.0480 35.3556 0.0000 0.0000 0.0000
# 3 35.3556 35.3556 64.4737 0.0000 0.0000 0.0000
# 4 0.0000 0.0000 0.0000 18.3734 0.0000 0.0000
# 5 0.0000 0.0000 0.0000 0.0000 18.3734 0.0000
# 6 0.0000 0.0000 0.0000 0.0000 0.0000 21.2488
#
#
#
# Elastic Compliance Matrix: (Units=1/GPa)
#
#
# Indices 1 2 3 4 5 6 
#
# 1 0.015830 -0.006210 -0.005275 0.000000 0.000000 0.000000
# 2 -0.006210 0.015830 -0.005275 0.000000 0.000000 0.000000
# 3 -0.005275 -0.005275 0.021296 0.000000 0.000000 0.000000
# 4 0.000000 0.000000 0.000000 0.054426 0.000000 0.000000
# 5 0.000000 0.000000 0.000000 0.000000 0.054426 0.000000
# 6 0.000000 0.000000 0.000000 0.000000 0.000000 0.047062
#
#
# Mechanical properties :
#
#
# Convention : Reuss Voigt Hill
#
# Bulk Modulus (GPa) = 51.45459 54.59378 53.02418
# Shear Modulus (GPa) = 20.09077 20.47795 20.28436
#
# Velocity S-wave (km/s) = 3.71446 3.75008 3.73231
# Velocity P-wave (km/s) = 7.33023 7.49951 7.41535
#
# Compressibility (1/GPa) = 0.01943461
#
# Stress axis : x y z
#
# Youngs Moduli (GPa) = 63.17075 63.17075 46.95712
#
# Poissons Ratio (x) = 0.39228 0.24772
# Poissons Ratio (y) = 0.39228 0.24772
# Poissons Ratio (z) = 0.33325 0.33325
#
# Static dielectric constant tensor:
#      x y z
#    x 2.825090 0.000000 0.000000 
#    y 0.000000 2.825090 0.000000 
#    z 0.000000 0.000000 2.612640 
# 
# 
# High freq. dielectric constant tensor:
#      x y z
#    x 1.545090 0.000000 0.000000 
#    y 0.000000 1.545090 0.000000 
#    z 0.000000 0.000000 1.532310 
# 
# From -- ./inp_files/3155.got.cif
#   From: 2010.03.12/outbox.cif.g09.slc.cpg/sg127_2_cif.got.tgz:3155.got - 2010.04.06 17:03:15.
