data_PCOD8314944
_publ_section_title
;
Structure prediction by ZEFSAII (Michael W. Deem and Ramdas Pophale) SiO2 
 PCOD8314944
Probable space group: P 4/N M M
;
_chemical_formula_sum "Si O2"
_cell_formula_units_Z 96
_cell_length_a 17.887537
_cell_length_b 17.887537
_cell_length_c 17.037957
_cell_angle_alpha 90.000000
_cell_angle_beta 90.000000
_cell_angle_gamma 90.000000
_cell_volume 5451.532532
_symmetry_space_group_name_H-M "P 4/N M M"
_symmetry_group_IT_number 129
_symmetry_cell_setting 'tetragonal'
loop_
_space_group_symop_operation_xyz
x,y,z
1/2-y,x,z
1/2-x,1/2-y,z
y,1/2-x,z
1/2+x,-y,-z
-x,1/2+y,-z
1/2+y,1/2+x,-z
-y,-x,-z
-x,-y,-z
1/2+y,-x,-z
1/2+x,1/2+y,-z
-y,1/2+x,-z
1/2-x,y,z
x,1/2-y,z
1/2-y,1/2-x,z
y,x,z
loop_
_atom_site_type_symbol
_atom_site_label
_atom_site_fract_x
_atom_site_fract_y
_atom_site_fract_z
Si Si1 0.562501 0.437055 0.411705
Si Si2 0.044915 0.665374 0.006396
Si Si3 0.042246 0.164681 0.680155
Si Si4 0.455768 0.164833 0.322610
Si Si5 0.014344 0.895663 0.165734
Si Si6 0.465651 0.666717 0.833888
O O1 0.585427 0.414574 0.500000
O O2 0.498589 0.498589 0.411437
O O3 0.634784 0.470902 0.368469
O O4 0.530476 0.364740 0.366306
O O5 0.063895 0.750000 0.026943
O O6 0.001640 0.656879 0.922774
O O7 0.123792 0.623792 0.000000
O O8 0.995794 0.632152 0.077674
O O9 0.058683 0.250000 0.656326
O O10 0.116265 0.116265 0.661265
O O11 0.021558 0.161347 0.772276
O O12 0.441611 0.250000 0.349015
O O13 0.383049 0.116952 0.346350
O O14 0.467826 0.158748 0.228847
O O15 0.103255 0.903006 0.181085
O O16 0.977418 0.977418 0.177775
O O17 0.429111 0.750000 0.826032
#
# Coordination Sequence:
#
# PCOD8314944 Si02
#       6
#    16  16  16  16  16  16
#     4   9  18  34  55  76  98 129 168 205 246 301
#     4   9  18  29  43  67  97 129 169 213 259 304
#     4  10  20  34  54  79 106 136 170 211 258 305
#     4  10  19  32  52  76 105 137 169 210 254 299
#     4  10  18  30  49  71  98 133 177 219 253 297
#     4   9  17  29  46  69  99 131 167 212 259 300
#
# _framework density 17.609725999999998
#
# number of rings (size 3 to 8) (size 9 to 14) (size 15 to 20)
#    0.000    2.500    1.667    1.000    0.000    4.833 
#    0.000    0.000    0.000    3.000    0.000    5.833 
#    0.000    4.000    0.000    0.000    0.000    0.000 
#
# Total GULP energy -1189800.935253 kJ/mol
# GULP energy per Si atom -12393.759742 kJ/mol
# Density = 1.756965 g / cm^3
# Si number density = 17.609726 Si / 1000 Ang^3
#
#
#
# Elastic Constant Matrix: (Units=GPa)
#
#
# Indices 1 2 3 4 5 6 
#
# 1 100.1890 40.1276 37.7803 0.0000 0.0000 0.0000
# 2 40.1276 100.1890 37.7803 0.0000 0.0000 0.0000
# 3 37.7803 37.7803 104.9092 0.0000 0.0000 0.0000
# 4 0.0000 0.0000 0.0000 16.4216 0.0000 0.0000
# 5 0.0000 0.0000 0.0000 0.0000 16.4216 0.0000
# 6 0.0000 0.0000 0.0000 0.0000 0.0000 15.1171
#
#
#
# Elastic Compliance Matrix: (Units=1/GPa)
#
#
# Indices 1 2 3 4 5 6 
#
# 1 0.012745 -0.003904 -0.003184 0.000000 0.000000 0.000000
# 2 -0.003904 0.012745 -0.003184 0.000000 0.000000 0.000000
# 3 -0.003184 -0.003184 0.011825 0.000000 0.000000 0.000000
# 4 0.000000 0.000000 0.000000 0.060895 0.000000 0.000000
# 5 0.000000 0.000000 0.000000 0.000000 0.060895 0.000000
# 6 0.000000 0.000000 0.000000 0.000000 0.000000 0.066150
#
#
# Mechanical properties :
#
#
# Convention : Reuss Voigt Hill
#
# Bulk Modulus (GPa) = 59.62301 59.62929 59.62615
# Shear Modulus (GPa) = 19.88925 22.23199 21.06062
#
# Velocity S-wave (km/s) = 3.36437 3.55700 3.46202
# Velocity P-wave (km/s) = 7.00168 7.12774 7.06499
#
# Compressibility (1/GPa) = 0.01677205
#
# Stress axis : x y z
#
# Youngs Moduli (GPa) = 78.45918 78.45922 84.56450
#
# Poissons Ratio (x) = 0.30632 0.26925
# Poissons Ratio (y) = 0.30632 0.26925
# Poissons Ratio (z) = 0.24981 0.24981
#
# Static dielectric constant tensor:
#      x y z
#    x 3.077390 0.000000 0.000000 
#    y 0.000000 3.077390 0.000000 
#    z 0.000000 0.000000 3.614160 
# 
# 
# High freq. dielectric constant tensor:
#      x y z
#    x 1.654900 0.000000 0.000000 
#    y 0.000000 1.654900 0.000000 
#    z 0.000000 0.000000 1.695860 
# 
# From -- ./inp_files/5685.got.cif
#   From: 2010.03.12/outbox.cif.g09.slc.cpg/sg129_3_cif.got.tgz:5685.got - 2010.04.06 17:19:44.
