data_PCOD8314585
_publ_section_title
;
Structure prediction by ZEFSAII (Michael W. Deem and Ramdas Pophale) SiO2 
 PCOD8314585
Probable space group: P 4/M N C
;
_chemical_formula_sum "Si O2"
_cell_formula_units_Z 72
_cell_length_a 20.835645
_cell_length_b 20.835645
_cell_length_c 7.839039
_cell_angle_alpha 90.000000
_cell_angle_beta 90.000000
_cell_angle_gamma 90.000000
_cell_volume 3403.115771
_symmetry_space_group_name_H-M "P 4/M N C"
_symmetry_group_IT_number 128
_symmetry_cell_setting 'tetragonal'
loop_
_space_group_symop_operation_xyz
x,y,z
-y,x,z
-x,-y,z
y,-x,z
1/2+x,1/2-y,1/2-z
1/2-x,1/2+y,1/2-z
1/2+y,1/2+x,1/2-z
1/2-y,1/2-x,1/2-z
-x,-y,-z
y,-x,-z
x,y,-z
-y,x,-z
1/2-x,1/2+y,1/2+z
1/2+x,1/2-y,1/2+z
1/2-y,1/2-x,1/2+z
1/2+y,1/2+x,1/2+z
loop_
_atom_site_type_symbol
_atom_site_label
_atom_site_fract_x
_atom_site_fract_y
_atom_site_fract_z
Si Si1 0.187439 0.583426 0.201054
Si Si2 0.443525 0.845897 0.200065
Si Si3 0.170392 0.102181 0.809770
Si Si4 0.342042 0.743100 0.201037
Si Si5 0.542125 0.597463 0.000000
O O1 0.136067 0.636067 0.250000
O O2 0.161892 0.515127 0.272423
O O3 0.253317 0.600118 0.292698
O O4 0.199273 0.581893 0.000000
O O5 0.415634 0.915634 0.250000
O O6 0.397537 0.789973 0.274106
O O7 0.444748 0.838883 0.000000
O O8 0.147459 0.175188 0.789749
O O9 0.137680 0.056462 0.670310
O O10 0.150948 0.078838 0.000000
O O11 0.272955 0.772955 0.250000
O O12 0.346347 0.732462 0.000000
O O13 0.466785 0.583840 0.000000
#
# Coordination Sequence:
#
# PCOD8314585 Si02
#       5
#    16  16  16  16   8
#     4  11  23  41  62  93 135 178 225 282 338 395
#     4   9  21  38  62  89 127 175 221 275 335 393
#     4  12  25  42  71 102 130 176 223 273 333 401
#     4  10  19  36  60  92 132 172 222 285 339 394
#     4  11  28  52  74 100 138 173 213 275 333 399
#
# _framework density 21.157081999999999
#
# number of rings (size 3 to 8) (size 9 to 14) (size 15 to 20)
#    0.000    1.444    2.222    2.000    3.111    4.000 
#    0.000    3.333    0.000    0.000    0.000    0.000 
#    0.000    0.000    0.000    0.000    0.000    0.000 
#
# Total GULP energy -893052.701098 kJ/mol
# GULP energy per Si atom -12403.509737 kJ/mol
# Density = 2.110893 g / cm^3
# Si number density = 21.157082 Si / 1000 Ang^3
#
#
#
# Elastic Constant Matrix: (Units=GPa)
#
#
# Indices 1 2 3 4 5 6 
#
# 1 120.5476 50.1430 32.8609 0.0000 0.0000 0.0000
# 2 50.1430 120.5476 32.8609 0.0000 0.0000 0.0000
# 3 32.8609 32.8609 117.7557 0.0000 0.0000 0.0000
# 4 0.0000 0.0000 0.0000 27.3027 0.0000 0.0000
# 5 0.0000 0.0000 0.0000 0.0000 27.3027 0.0000
# 6 0.0000 0.0000 0.0000 0.0000 0.0000 28.4207
#
#
#
# Elastic Compliance Matrix: (Units=1/GPa)
#
#
# Indices 1 2 3 4 5 6 
#
# 1 0.010384 -0.003820 -0.001832 0.000000 0.000000 0.000000
# 2 -0.003820 0.010384 -0.001832 0.000000 0.000000 0.000000
# 3 -0.001832 -0.001832 0.009514 0.000000 0.000000 0.000000
# 4 0.000000 0.000000 0.000000 0.036626 0.000000 0.000000
# 5 0.000000 0.000000 0.000000 0.000000 0.036626 0.000000
# 6 0.000000 0.000000 0.000000 0.000000 0.000000 0.035186
#
#
# Mechanical properties :
#
#
# Convention : Reuss Voigt Hill
#
# Bulk Modulus (GPa) = 65.29414 65.62006 65.45710
# Shear Modulus (GPa) = 31.48771 32.80429 32.14600
#
# Velocity S-wave (km/s) = 3.86201 3.94192 3.90217
# Velocity P-wave (km/s) = 7.12850 7.19731 7.16299
#
# Compressibility (1/GPa) = 0.01531531
#
# Stress axis : x y z
#
# Youngs Moduli (GPa) = 96.30464 96.30464 105.10314
#
# Poissons Ratio (x) = 0.36787 0.19252
# Poissons Ratio (y) = 0.36787 0.19252
# Poissons Ratio (z) = 0.17640 0.17640
#
# Static dielectric constant tensor:
#      x y z
#    x 5.791150 0.000000 0.000000 
#    y 0.000000 5.791150 0.000000 
#    z 0.000000 0.000000 3.844870 
# 
# 
# High freq. dielectric constant tensor:
#      x y z
#    x 1.831530 0.000000 0.000000 
#    y 0.000000 1.831530 0.000000 
#    z 0.000000 0.000000 1.830830 
# 
# From -- ./inp_files/1191.got.cif
#   From: 2010.03.12/outbox.cif.g09.slc.cpg/sg128_1_cif.got.tgz:1191.got - 2010.04.06 17:11:05.
