data_PCOD8314393
_publ_section_title
;
Structure prediction by ZEFSAII (Michael W. Deem and Ramdas Pophale) SiO2 
 PCOD8314393
Probable space group: P 4/M B M
;
_chemical_formula_sum "Si O2"
_cell_formula_units_Z 80
_cell_length_a 18.845937
_cell_length_b 18.845937
_cell_length_c 13.444262
_cell_angle_alpha 90.000000
_cell_angle_beta 90.000000
_cell_angle_gamma 90.000000
_cell_volume 4774.989680
_symmetry_space_group_name_H-M "P 4/M B M"
_symmetry_group_IT_number 127
_symmetry_cell_setting 'tetragonal'
loop_
_space_group_symop_operation_xyz
x,y,z
-y,x,z
-x,-y,z
y,-x,z
1/2+x,1/2-y,-z
1/2-x,1/2+y,-z
1/2+y,1/2+x,-z
1/2-y,1/2-x,-z
-x,-y,-z
y,-x,-z
x,y,-z
-y,x,-z
1/2-x,1/2+y,z
1/2+x,1/2-y,z
1/2-y,1/2-x,z
1/2+y,1/2+x,z
loop_
_atom_site_type_symbol
_atom_site_label
_atom_site_fract_x
_atom_site_fract_y
_atom_site_fract_z
Si Si1 0.690726 0.481467 0.885060
Si Si2 0.106929 0.393072 0.881943
Si Si3 0.277785 0.777785 0.119518
Si Si4 0.869930 0.847381 0.198944
Si Si5 0.080660 0.084424 0.386769
Si Si6 0.043596 0.653738 0.117573
O O1 0.631975 0.423096 0.858265
O O2 0.686949 0.555126 0.827468
O O3 0.764707 0.444160 0.854870
O O4 0.687107 0.501780 0.000000
O O5 0.164460 0.335541 0.849164
O O6 0.127519 0.469118 0.836788
O O7 0.104493 0.395508 0.000000
O O8 0.203359 0.804211 0.167419
O O9 0.268860 0.768860 0.000000
O O10 0.870859 0.865240 0.316763
O O11 0.099476 0.104018 0.500000
O O12 0.997725 0.098439 0.365365
O O13 0.107605 0.607605 0.164038
O O14 0.041356 0.643306 0.000000
#
# Coordination Sequence:
#
# PCOD8314393 Si02
#       6
#    16   8   8  16  16  16
#     4  11  22  33  47  71 107 145 180 214 250 314
#     4   9  15  28  47  65  91 132 175 217 254 285
#     4  11  22  35  49  72 115 155 175 209 268 327
#     4  12  22  36  53  76 104 142 182 215 269 322
#     4   9  18  36  60  83 103 128 172 232 286 326
#     4   9  17  29  45  66  92 131 182 221 247 286
#
# _framework density 16.753962000000001
#
# number of rings (size 3 to 8) (size 9 to 14) (size 15 to 20)
#    0.000    1.800    4.000    2.700    1.400    1.600 
#    0.000    1.500    0.000    0.000    0.000    0.000 
#    0.000    0.000    0.000    1.800    0.000    0.200 
#
# Total GULP energy -991649.637349 kJ/mol
# GULP energy per Si atom -12395.620467 kJ/mol
# Density = 1.671583 g / cm^3
# Si number density = 16.753962 Si / 1000 Ang^3
#
#
#
# Elastic Constant Matrix: (Units=GPa)
#
#
# Indices 1 2 3 4 5 6 
#
# 1 68.6866 23.4898 32.8824 0.0000 0.0000 0.0000
# 2 23.4898 68.6867 32.8824 0.0000 0.0000 0.0000
# 3 32.8824 32.8824 77.1933 0.0000 0.0000 0.0000
# 4 0.0000 0.0000 0.0000 20.2645 0.0000 0.0000
# 5 0.0000 0.0000 0.0000 0.0000 20.2645 0.0000
# 6 0.0000 0.0000 0.0000 0.0000 0.0000 33.5189
#
#
#
# Elastic Compliance Matrix: (Units=1/GPa)
#
#
# Indices 1 2 3 4 5 6 
#
# 1 0.018855 -0.003270 -0.006639 0.000000 0.000000 0.000000
# 2 -0.003270 0.018855 -0.006639 0.000000 0.000000 0.000000
# 3 -0.006639 -0.006639 0.018611 0.000000 0.000000 0.000000
# 4 0.000000 0.000000 0.000000 0.049347 0.000000 0.000000
# 5 0.000000 0.000000 0.000000 0.000000 0.049347 0.000000
# 6 0.000000 0.000000 0.000000 0.000000 0.000000 0.029834
#
#
# Mechanical properties :
#
#
# Convention : Reuss Voigt Hill
#
# Bulk Modulus (GPa) = 43.05616 43.67508 43.36562
# Shear Modulus (GPa) = 22.15448 23.16372 22.65910
#
# Velocity S-wave (km/s) = 3.64035 3.72234 3.68157
# Velocity P-wave (km/s) = 6.58972 6.67829 6.63415
#
# Compressibility (1/GPa) = 0.02322548
#
# Stress axis : x y z
#
# Youngs Moduli (GPa) = 53.03501 53.03510 53.73289
#
# Poissons Ratio (x) = 0.17342 0.35673
# Poissons Ratio (y) = 0.17342 0.35673
# Poissons Ratio (z) = 0.35210 0.35210
#
# Static dielectric constant tensor:
#      x y z
#    x 3.247670 0.000000 0.000000 
#    y 0.000000 3.247670 0.000000 
#    z 0.000000 0.000000 2.795480 
# 
# 
# High freq. dielectric constant tensor:
#      x y z
#    x 1.650040 0.000000 0.000000 
#    y 0.000000 1.650040 0.000000 
#    z 0.000000 0.000000 1.592030 
# 
# From -- ./inp_files/4305.got.cif
#   From: 2010.03.12/outbox.cif.g09.slc.cpg/sg127_3_cif.got.tgz:4305.got - 2010.04.06 17:03:15.
