data_PCOD8314190
_publ_section_title
;
Structure prediction by ZEFSAII (Michael W. Deem and Ramdas Pophale) SiO2 
 PCOD8314190
Probable space group: P 4/M B M
;
_chemical_formula_sum "Si O2"
_cell_formula_units_Z 48
_cell_length_a 14.464799
_cell_length_b 14.464799
_cell_length_c 13.393150
_cell_angle_alpha 90.000000
_cell_angle_beta 90.000000
_cell_angle_gamma 90.000000
_cell_volume 2802.254267
_symmetry_space_group_name_H-M "P 4/M B M"
_symmetry_group_IT_number 127
_symmetry_cell_setting 'tetragonal'
loop_
_space_group_symop_operation_xyz
x,y,z
-y,x,z
-x,-y,z
y,-x,z
1/2+x,1/2-y,-z
1/2-x,1/2+y,-z
1/2+y,1/2+x,-z
1/2-y,1/2-x,-z
-x,-y,-z
y,-x,-z
x,y,-z
-y,x,-z
1/2-x,1/2+y,z
1/2+x,1/2-y,z
1/2-y,1/2-x,z
1/2+y,1/2+x,z
loop_
_atom_site_type_symbol
_atom_site_label
_atom_site_fract_x
_atom_site_fract_y
_atom_site_fract_z
Si Si1 0.349910 0.508558 0.884463
Si Si2 0.221474 0.721474 0.617172
Si Si3 0.449983 0.193921 0.732545
Si Si4 0.627832 0.127832 0.382085
O O1 0.403986 0.414399 0.858965
O O2 0.256473 0.511356 0.821379
O O3 0.321643 0.510234 0.000000
O O4 0.211390 0.711390 0.500000
O O5 0.251696 0.621974 0.663232
O O6 0.296548 0.796548 0.647744
O O7 0.395335 0.104665 0.777816
O O8 0.531299 0.158914 0.662733
O O9 0.616646 0.116646 0.500000
#
# Coordination Sequence:
#
# PCOD8314190 Si02
#       4
#    16   8  16   8
#     4   9  18  35  58  81 108 145 187 229 276 328
#     4   9  20  34  51  79 107 144 188 225 269 325
#     4  10  21  33  54  80 112 142 184 224 273 326
#     4  11  21  36  57  78 111 150 184 228 278 326
#
# _framework density 17.129066999999999
#
# number of rings (size 3 to 8) (size 9 to 14) (size 15 to 20)
#    1.000    1.333    0.000    4.500    0.000    1.333 
#    0.000    0.833    0.000    2.000    0.000   14.000 
#    0.000    0.000    0.000    0.000    0.000    0.000 
#
# Total GULP energy -594953.597065 kJ/mol
# GULP energy per Si atom -12394.866606 kJ/mol
# Density = 1.709008 g / cm^3
# Si number density = 17.129067 Si / 1000 Ang^3
#
#
#
# Elastic Constant Matrix: (Units=GPa)
#
#
# Indices 1 2 3 4 5 6 
#
# 1 86.0572 62.5058 48.0742 0.0000 0.0000 0.0000
# 2 62.5058 86.0572 48.0742 0.0000 0.0000 0.0000
# 3 48.0742 48.0742 74.7598 0.0000 0.0000 0.0000
# 4 0.0000 0.0000 0.0000 29.0821 0.0000 0.0000
# 5 0.0000 0.0000 0.0000 0.0000 29.0821 0.0000
# 6 0.0000 0.0000 0.0000 0.0000 0.0000 27.1337
#
#
#
# Elastic Compliance Matrix: (Units=1/GPa)
#
#
# Indices 1 2 3 4 5 6 
#
# 1 0.026995 -0.015465 -0.007414 0.000000 0.000000 0.000000
# 2 -0.015465 0.026995 -0.007414 0.000000 0.000000 0.000000
# 3 -0.007414 -0.007414 0.022911 0.000000 0.000000 0.000000
# 4 0.000000 0.000000 0.000000 0.034385 0.000000 0.000000
# 5 0.000000 0.000000 0.000000 0.000000 0.034385 0.000000
# 6 0.000000 0.000000 0.000000 0.000000 0.000000 0.036855
#
#
# Mechanical properties :
#
#
# Convention : Reuss Voigt Hill
#
# Bulk Modulus (GPa) = 61.29636 62.68697 61.99167
# Shear Modulus (GPa) = 20.11657 22.94091 21.52874
#
# Velocity S-wave (km/s) = 3.43069 3.66361 3.54906
# Velocity P-wave (km/s) = 7.18022 7.38731 7.28450
#
# Compressibility (1/GPa) = 0.01631418
#
# Stress axis : x y z
#
# Youngs Moduli (GPa) = 37.04405 37.04405 43.64667
#
# Poissons Ratio (x) = 0.57290 0.32359
# Poissons Ratio (y) = 0.57290 0.32359
# Poissons Ratio (z) = 0.27464 0.27464
#
# Static dielectric constant tensor:
#      x y z
#    x 3.241120 0.000000 0.000000 
#    y 0.000000 3.241120 0.000000 
#    z 0.000000 0.000000 3.019220 
# 
# 
# High freq. dielectric constant tensor:
#      x y z
#    x 1.661430 0.000000 0.000000 
#    y 0.000000 1.661430 0.000000 
#    z 0.000000 0.000000 1.656780 
# 
# From -- ./inp_files/2746.got.cif
#   From: 2010.03.12/outbox.cif.g09.slc.cpg/sg127_2_cif.got.tgz:2746.got - 2010.04.06 17:03:15.
