data_PCOD8314937
_publ_section_title
;
Structure prediction by ZEFSAII (Michael W. Deem and Ramdas Pophale) SiO2 
 PCOD8314937
Probable space group: P 4/N M M
;
_chemical_formula_sum "Si O2"
_cell_formula_units_Z 112
_cell_length_a 17.701145
_cell_length_b 17.701145
_cell_length_c 21.176717
_cell_angle_alpha 90.000000
_cell_angle_beta 90.000000
_cell_angle_gamma 90.000000
_cell_volume 6635.312053
_symmetry_space_group_name_H-M "P 4/N M M"
_symmetry_group_IT_number 129
_symmetry_cell_setting 'tetragonal'
loop_
_space_group_symop_operation_xyz
x,y,z
1/2-y,x,z
1/2-x,1/2-y,z
y,1/2-x,z
1/2+x,-y,-z
-x,1/2+y,-z
1/2+y,1/2+x,-z
-y,-x,-z
-x,-y,-z
1/2+y,-x,-z
1/2+x,1/2+y,-z
-y,1/2+x,-z
1/2-x,y,z
x,1/2-y,z
1/2-y,1/2-x,z
y,x,z
loop_
_atom_site_type_symbol
_atom_site_label
_atom_site_fract_x
_atom_site_fract_y
_atom_site_fract_z
Si Si1 0.954645 0.664278 0.259425
Si Si2 0.042500 0.835449 0.994324
Si Si3 0.062159 0.560622 0.659627
Si Si4 0.393707 0.986124 0.135009
Si Si5 0.166188 0.967120 0.867492
Si Si6 0.163700 0.663846 0.574482
Si Si7 0.164769 0.456185 0.259018
O O1 0.949693 0.750000 0.283331
O O2 0.875705 0.624296 0.275930
O O3 0.023389 0.623695 0.294673
O O4 0.967033 0.658671 0.184072
O O5 0.063475 0.750000 0.979286
O O6 0.998306 0.844584 0.061471
O O7 0.121304 0.878697 0.000000
O O8 0.993026 0.866675 0.935868
O O9 0.105737 0.603301 0.603683
O O10 0.003327 0.496674 0.633580
O O11 0.018250 0.622807 0.699533
O O12 0.475250 0.024751 0.146906
O O13 0.334750 0.017713 0.185907
O O14 0.402353 0.896122 0.144400
O O15 0.250000 0.929846 0.862171
O O16 0.155752 0.655752 0.500000
O O17 0.250000 0.645630 0.595229
O O18 0.143494 0.750000 0.595042
O O19 0.250000 0.447521 0.283059
O O20 0.124763 0.375238 0.266341
#
# Coordination Sequence:
#
# PCOD8314937 Si02
#       7
#    16  16  16  16  16  16  16
#     4  10  19  31  48  68  95 128 161 202 244 285
#     4   9  18  29  43  63  85 115 153 194 245 293
#     4  10  19  32  51  74 100 130 163 199 236 273
#     4  10  18  30  47  66  89 117 158 204 242 286
#     4   9  17  29  44  63  90 118 152 197 244 290
#     4   9  18  33  53  77 105 134 161 192 231 276
#     4  10  20  33  50  71  96 126 159 199 243 286
#
# _framework density 16.879387000000001
#
# number of rings (size 3 to 8) (size 9 to 14) (size 15 to 20)
#    0.000    2.429    1.429    2.143    0.000    3.857 
#    0.000    0.000    0.000    2.143    0.000    0.000 
#    0.000    3.429    0.000   26.571    0.000    0.000 
#
# Total GULP energy -1388055.793585 kJ/mol
# GULP energy per Si atom -12393.355300 kJ/mol
# Density = 1.684097 g / cm^3
# Si number density = 16.879387 Si / 1000 Ang^3
#
#
#
# Elastic Constant Matrix: (Units=GPa)
#
#
# Indices 1 2 3 4 5 6 
#
# 1 108.3069 54.8206 38.9070 0.0000 0.0000 0.0000
# 2 54.8206 108.3073 38.9070 0.0000 0.0000 0.0000
# 3 38.9070 38.9070 64.1540 0.0000 0.0000 0.0000
# 4 0.0000 0.0000 0.0000 23.1981 0.0000 0.0000
# 5 0.0000 0.0000 0.0000 0.0000 23.1980 0.0000
# 6 0.0000 0.0000 0.0000 0.0000 0.0000 19.1682
#
#
#
# Elastic Compliance Matrix: (Units=1/GPa)
#
#
# Indices 1 2 3 4 5 6 
#
# 1 0.013661 -0.005035 -0.005231 0.000000 0.000000 0.000000
# 2 -0.005035 0.013661 -0.005231 0.000000 0.000000 0.000000
# 3 -0.005231 -0.005231 0.021932 0.000000 0.000000 0.000000
# 4 0.000000 0.000000 0.000000 0.043107 0.000000 0.000000
# 5 0.000000 0.000000 0.000000 0.000000 0.043107 0.000000
# 6 0.000000 0.000000 0.000000 0.000000 0.000000 0.052170
#
#
# Mechanical properties :
#
#
# Convention : Reuss Voigt Hill
#
# Bulk Modulus (GPa) = 54.76706 60.67083 57.71894
# Shear Modulus (GPa) = 22.25000 22.98844 22.61922
#
# Velocity S-wave (km/s) = 3.63461 3.69443 3.66464
# Velocity P-wave (km/s) = 7.08028 7.36344 7.22325
#
# Compressibility (1/GPa) = 0.01825915
#
# Stress axis : x y z
#
# Youngs Moduli (GPa) = 73.20167 73.20197 45.59485
#
# Poissons Ratio (x) = 0.36860 0.23851
# Poissons Ratio (y) = 0.36860 0.23851
# Poissons Ratio (z) = 0.38292 0.38292
#
# Static dielectric constant tensor:
#      x y z
#    x 3.104040 0.000000 0.000000 
#    y 0.000000 3.104040 0.000000 
#    z 0.000000 0.000000 3.147460 
# 
# 
# High freq. dielectric constant tensor:
#      x y z
#    x 1.639990 0.000000 0.000000 
#    y 0.000000 1.639990 0.000000 
#    z 0.000000 0.000000 1.644610 
# 
# From -- ./inp_files/7239.got.cif
#   From: 2010.03.12/outbox.cif.g09.slc.cpg/sg129_4_cif.got.tgz:7239.got - 2010.04.06 17:19:44.
