data_PCOD8314695
_publ_section_title
;
Structure prediction by ZEFSAII (Michael W. Deem and Ramdas Pophale) SiO2 
 PCOD8314695
Probable space group: P 4/M N C
;
_chemical_formula_sum "Si O2"
_cell_formula_units_Z 64
_cell_length_a 19.576087
_cell_length_b 19.576087
_cell_length_c 8.703973
_cell_angle_alpha 90.000000
_cell_angle_beta 90.000000
_cell_angle_gamma 90.000000
_cell_volume 3335.564231
_symmetry_space_group_name_H-M "P 4/M N C"
_symmetry_group_IT_number 128
_symmetry_cell_setting 'tetragonal'
loop_
_space_group_symop_operation_xyz
x,y,z
-y,x,z
-x,-y,z
y,-x,z
1/2+x,1/2-y,1/2-z
1/2-x,1/2+y,1/2-z
1/2+y,1/2+x,1/2-z
1/2-y,1/2-x,1/2-z
-x,-y,-z
y,-x,-z
x,y,-z
-y,x,-z
1/2-x,1/2+y,1/2+z
1/2+x,1/2-y,1/2+z
1/2-y,1/2-x,1/2+z
1/2+y,1/2+x,1/2+z
loop_
_atom_site_type_symbol
_atom_site_label
_atom_site_fract_x
_atom_site_fract_y
_atom_site_fract_z
Si Si1 0.260905 0.481475 0.173628
Si Si2 0.234167 0.629884 0.818447
Si Si3 0.610821 0.489541 0.330810
Si Si4 0.768868 0.164175 0.818921
O O1 0.217896 0.549665 0.219822
O O2 0.336701 0.512291 0.190995
O O3 0.253841 0.415403 0.281252
O O4 0.245834 0.458666 0.000000
O O5 0.170687 0.670687 0.750000
O O6 0.305470 0.659424 0.746453
O O7 0.239004 0.641202 0.000000
O O8 0.573115 0.561032 0.314349
O O9 0.646338 0.487309 0.500000
O O10 0.706293 0.206293 0.750000
O O11 0.770245 0.172876 0.000000
#
# Coordination Sequence:
#
# PCOD8314695 Si02
#       4
#    16  16  16  16
#     4  11  22  34  51  77 106 137 176 219 265 316
#     4  10  21  37  57  81 111 144 180 224 269 319
#     4   9  18  31  46  68 100 137 175 212 253 306
#     4  11  22  37  58  81 109 143 180 223 269 320
#
# _framework density 19.187159999999999
#
# number of rings (size 3 to 8) (size 9 to 14) (size 15 to 20)
#    0.000    1.750    0.000    7.500    0.000    9.000 
#    0.000    1.250    0.000    0.750    0.000    5.250 
#    0.000    0.000    0.000    0.000    0.000    0.000 
#
# Total GULP energy -792918.724822 kJ/mol
# GULP energy per Si atom -12389.355075 kJ/mol
# Density = 1.914349 g / cm^3
# Si number density = 19.187160 Si / 1000 Ang^3
#
#
#
# Elastic Constant Matrix: (Units=GPa)
#
#
# Indices 1 2 3 4 5 6 
#
# 1 56.7824 9.9209 34.2664 0.0000 0.0000 0.0000
# 2 9.9209 56.7824 34.2664 0.0000 0.0000 0.0000
# 3 34.2664 34.2664 103.9186 0.0000 0.0000 0.0000
# 4 0.0000 0.0000 0.0000 31.0633 0.0000 0.0000
# 5 0.0000 0.0000 0.0000 0.0000 31.0633 0.0000
# 6 0.0000 0.0000 0.0000 0.0000 0.0000 11.5609
#
#
#
# Elastic Compliance Matrix: (Units=1/GPa)
#
#
# Indices 1 2 3 4 5 6 
#
# 1 0.022006 0.000667 -0.007476 0.000000 0.000000 0.000000
# 2 0.000667 0.022006 -0.007476 0.000000 0.000000 0.000000
# 3 -0.007476 -0.007476 0.014553 0.000000 0.000000 0.000000
# 4 0.000000 0.000000 0.000000 0.032192 0.000000 0.000000
# 5 0.000000 0.000000 0.000000 0.000000 0.032192 0.000000
# 6 0.000000 0.000000 0.000000 0.000000 0.000000 0.086498
#
#
# Mechanical properties :
#
#
# Convention : Reuss Voigt Hill
#
# Bulk Modulus (GPa) = 33.33948 41.59896 37.46922
# Shear Modulus (GPa) = 20.15978 24.00617 22.08298
#
# Velocity S-wave (km/s) = 3.24495 3.54101 3.39621
# Velocity P-wave (km/s) = 5.60832 6.20049 5.91182
#
# Compressibility (1/GPa) = 0.02999447
#
# Stress axis : x y z
#
# Youngs Moduli (GPa) = 45.44159 45.44159 68.71240
#
# Poissons Ratio (x) = -0.03030 0.51371
# Poissons Ratio (y) = -0.03030 0.51371
# Poissons Ratio (z) = 0.33973 0.33973
#
# Static dielectric constant tensor:
#      x y z
#    x 3.591940 0.000000 0.000000 
#    y 0.000000 3.591940 0.000000 
#    z 0.000000 0.000000 3.600010 
# 
# 
# High freq. dielectric constant tensor:
#      x y z
#    x 1.735500 0.000000 0.000000 
#    y 0.000000 1.735500 0.000000 
#    z 0.000000 0.000000 1.755550 
# 
# From -- ./inp_files/1020.got.cif
#   From: 2010.03.12/outbox.cif.g09.slc.cpg/sg128_1_cif.got.tgz:1020.got - 2010.04.06 17:11:05.
