data_PCOD8314977
_publ_section_title
;
Structure prediction by ZEFSAII (Michael W. Deem and Ramdas Pophale) SiO2 
 PCOD8314977
Probable space group: P 4/N M M
;
_chemical_formula_sum "Si O2"
_cell_formula_units_Z 120
_cell_length_a 27.293552
_cell_length_b 27.293552
_cell_length_c 9.285679
_cell_angle_alpha 90.000000
_cell_angle_beta 90.000000
_cell_angle_gamma 90.000000
_cell_volume 6917.254964
_symmetry_space_group_name_H-M "P 4/N M M"
_symmetry_group_IT_number 129
_symmetry_cell_setting 'tetragonal'
loop_
_space_group_symop_operation_xyz
x,y,z
1/2-y,x,z
1/2-x,1/2-y,z
y,1/2-x,z
1/2+x,-y,-z
-x,1/2+y,-z
1/2+y,1/2+x,-z
-y,-x,-z
-x,-y,-z
1/2+y,-x,-z
1/2+x,1/2+y,-z
-y,1/2+x,-z
1/2-x,y,z
x,1/2-y,z
1/2-y,1/2-x,z
y,x,z
loop_
_atom_site_type_symbol
_atom_site_label
_atom_site_fract_x
_atom_site_fract_y
_atom_site_fract_z
Si Si1 0.031626 0.304576 0.568093
Si Si2 0.095015 0.551100 0.222634
Si Si3 0.615523 0.384478 0.500000
Si Si4 0.570632 0.649859 0.157970
Si Si5 0.629994 0.039289 0.079793
Si Si6 0.195835 0.923061 0.688211
Si Si7 0.115158 0.193235 0.105417
Si Si8 0.449531 0.371923 0.305779
O O1 0.049787 0.250000 0.526740
O O2 0.069016 0.327748 0.682698
O O3 0.028948 0.338584 0.430221
O O4 0.978085 0.302429 0.632816
O O5 0.110513 0.575066 0.374038
O O6 0.045322 0.577055 0.163032
O O7 0.092349 0.492538 0.246125
O O8 0.132065 0.557437 0.086211
O O9 0.668761 0.388957 0.428315
O O10 0.597206 0.597206 0.160651
O O11 0.517219 0.643913 0.089305
O O12 0.601831 0.688297 0.062863
O O13 0.668015 0.075673 0.159323
O O14 0.250000 0.901445 0.710334
O O15 0.118106 0.250000 0.151978
O O16 0.167541 0.167541 0.138761
O O17 0.071666 0.164518 0.185916
O O18 0.406891 0.406891 0.365496
#
# Coordination Sequence:
#
# PCOD8314977 Si02
#       8
#    16  16   8  16  16  16  16  16
#     4  10  19  33  50  71  99 133 171 213 261 309
#     4  10  19  34  50  74 105 147 177 211 255 306
#     4  10  18  34  55  73 114 138 174 216 254 296
#     4  10  19  33  51  75 100 133 175 217 263 313
#     4   9  19  33  51  71 107 143 176 213 254 307
#     4   9  18  32  52  77 102 136 174 210 252 298
#     4  10  21  36  54  75 100 131 171 224 277 327
#     4  11  21  34  50  74 103 134 175 217 261 316
#
# _framework density 17.347923000000002
#
# number of rings (size 3 to 8) (size 9 to 14) (size 15 to 20)
#    0.000    2.133    2.667    1.200    0.000    1.200 
#    0.000    2.333    0.000    0.200    0.000    0.000 
#    0.000    9.600    0.000    0.000    0.000    0.000 
#
# Total GULP energy -1486935.517702 kJ/mol
# GULP energy per Si atom -12391.129314 kJ/mol
# Density = 1.730844 g / cm^3
# Si number density = 17.347923 Si / 1000 Ang^3
#
#
#
# Elastic Constant Matrix: (Units=GPa)
#
#
# Indices 1 2 3 4 5 6 
#
# 1 76.1047 36.6803 25.9913 0.0000 0.0000 0.0000
# 2 36.6803 76.1039 25.9910 0.0000 0.0000 0.0000
# 3 25.9913 25.9910 93.8806 0.0000 0.0000 0.0000
# 4 0.0000 0.0000 0.0000 18.1789 0.0000 0.0000
# 5 0.0000 0.0000 0.0000 0.0000 18.1792 0.0000
# 6 0.0000 0.0000 0.0000 0.0000 0.0000 15.5753
#
#
#
# Elastic Compliance Matrix: (Units=1/GPa)
#
#
# Indices 1 2 3 4 5 6 
#
# 1 0.017764 -0.007601 -0.002814 0.000000 0.000000 0.000000
# 2 -0.007601 0.017764 -0.002814 0.000000 0.000000 0.000000
# 3 -0.002814 -0.002814 0.012210 0.000000 0.000000 0.000000
# 4 0.000000 0.000000 0.000000 0.055009 0.000000 0.000000
# 5 0.000000 0.000000 0.000000 0.000000 0.055008 0.000000
# 6 0.000000 0.000000 0.000000 0.000000 0.000000 0.064204
#
#
# Mechanical properties :
#
#
# Convention : Reuss Voigt Hill
#
# Bulk Modulus (GPa) = 46.98925 47.04603 47.01764
# Shear Modulus (GPa) = 19.56870 20.88180 20.22525
#
# Velocity S-wave (km/s) = 3.36224 3.47321 3.41817
# Velocity P-wave (km/s) = 6.49754 6.57740 6.53759
#
# Compressibility (1/GPa) = 0.02128146
#
# Stress axis : x y z
#
# Youngs Moduli (GPa) = 56.29299 56.29254 81.90133
#
# Poissons Ratio (x) = 0.42788 0.23045
# Poissons Ratio (y) = 0.42788 0.23045
# Poissons Ratio (z) = 0.15840 0.15839
#
# Static dielectric constant tensor:
#      x y z
#    x 3.198330 0.000000 0.000000 
#    y 0.000000 3.198340 0.000000 
#    z 0.000000 0.000000 3.406810 
# 
# 
# High freq. dielectric constant tensor:
#      x y z
#    x 1.651550 0.000000 0.000000 
#    y 0.000000 1.651550 0.000000 
#    z 0.000000 0.000000 1.683660 
# 
# From -- ./inp_files/2896.got.cif
#   From: 2010.03.12/outbox.cif.g09.slc.cpg/sg129_2_cif.got.tgz:2896.got - 2010.04.06 17:19:44.
