data_PCOD8314719
_publ_section_title
;
Structure prediction by ZEFSAII (Michael W. Deem and Ramdas Pophale) SiO2 
 PCOD8314719
Probable space group: P 4/M N C
;
_chemical_formula_sum "Si O2"
_cell_formula_units_Z 72
_cell_length_a 14.419902
_cell_length_b 14.419902
_cell_length_c 16.763161
_cell_angle_alpha 90.000000
_cell_angle_beta 90.000000
_cell_angle_gamma 90.000000
_cell_volume 3485.623973
_symmetry_space_group_name_H-M "P 4/M N C"
_symmetry_group_IT_number 128
_symmetry_cell_setting 'tetragonal'
loop_
_space_group_symop_operation_xyz
x,y,z
-y,x,z
-x,-y,z
y,-x,z
1/2+x,1/2-y,1/2-z
1/2-x,1/2+y,1/2-z
1/2+y,1/2+x,1/2-z
1/2-y,1/2-x,1/2-z
-x,-y,-z
y,-x,-z
x,y,-z
-y,x,-z
1/2-x,1/2+y,1/2+z
1/2+x,1/2-y,1/2+z
1/2-y,1/2-x,1/2+z
1/2+y,1/2+x,1/2+z
loop_
_atom_site_type_symbol
_atom_site_label
_atom_site_fract_x
_atom_site_fract_y
_atom_site_fract_z
Si Si1 0.608129 0.132979 0.906944
Si Si2 0.304153 0.059769 0.297455
Si Si3 0.269125 0.023242 0.132016
Si Si4 0.145857 0.970224 0.000000
Si Si5 0.237102 0.715695 0.908952
O O1 0.519633 0.160134 0.855274
O O2 0.695685 0.199514 0.885230
O O3 0.631150 0.026199 0.883146
O O4 0.582232 0.140443 0.000000
O O5 0.387726 0.112275 0.250000
O O6 0.241587 0.017712 0.225684
O O7 0.241615 0.130378 0.349261
O O8 0.262894 0.127668 0.099533
O O9 0.202903 0.956175 0.080716
O O10 0.108914 0.072698 0.000000
O O11 0.256964 0.686200 0.000000
#
# Coordination Sequence:
#
# PCOD8314719 Si02
#       5
#    16  16  16   8  16
#     4  11  22  39  64  89 122 168 207 253 314 372
#     4  10  24  39  59  91 124 160 202 260 310 370
#     4  11  21  36  57  86 118 155 198 252 301 364
#     4  11  22  36  56  81 114 158 200 245 304 369
#     4  10  21  39  61  86 121 161 209 257 308 368
#
# _framework density 20.656272999999999
#
# number of rings (size 3 to 8) (size 9 to 14) (size 15 to 20)
#    0.000    1.444    2.222    2.667    0.000   13.333 
#    0.000    5.556    0.000    0.667    0.000    3.111 
#    0.000    0.000    0.000    0.000    0.000    0.000 
#
# Total GULP energy -892070.390537 kJ/mol
# GULP energy per Si atom -12389.866535 kJ/mol
# Density = 2.060926 g / cm^3
# Si number density = 20.656273 Si / 1000 Ang^3
#
#
#
# Elastic Constant Matrix: (Units=GPa)
#
#
# Indices 1 2 3 4 5 6 
#
# 1 72.1265 22.5518 42.3952 0.0000 0.0000 0.0000
# 2 22.5518 72.1272 42.3952 0.0000 0.0000 0.0000
# 3 42.3952 42.3952 161.8834 0.0000 0.0000 0.0000
# 4 0.0000 0.0000 0.0000 97.2860 0.0000 0.0000
# 5 0.0000 0.0000 0.0000 0.0000 97.3024 0.0000
# 6 0.0000 0.0000 0.0000 0.0000 0.0000 26.0808
#
#
#
# Elastic Compliance Matrix: (Units=1/GPa)
#
#
# Indices 1 2 3 4 5 6 
#
# 1 0.016985 -0.003187 -0.003614 0.000000 0.000000 0.000000
# 2 -0.003187 0.016985 -0.003614 0.000000 0.000000 0.000000
# 3 -0.003614 -0.003614 0.008070 0.000000 0.000000 0.000000
# 4 0.000000 0.000000 0.000000 0.010279 0.000000 0.000000
# 5 0.000000 0.000000 0.000000 0.000000 0.010277 0.000000
# 6 0.000000 0.000000 0.000000 0.000000 0.000000 0.038342
#
#
# Mechanical properties :
#
#
# Convention : Reuss Voigt Hill
#
# Bulk Modulus (GPa) = 47.14286 57.86905 52.50595
# Shear Modulus (GPa) = 38.80888 57.38683 48.09785
#
# Velocity S-wave (km/s) = 4.33921 5.27656 4.83067
# Velocity P-wave (km/s) = 6.92655 8.07458 7.52250
#
# Compressibility (1/GPa) = 0.02121212
#
# Stress axis : x y z
#
# Youngs Moduli (GPa) = 58.87572 58.87636 123.91593
#
# Poissons Ratio (x) = 0.18762 0.44778
# Poissons Ratio (y) = 0.18761 0.44778
# Poissons Ratio (z) = 0.21275 0.21275
#
# Static dielectric constant tensor:
#      x y z
#    x 3.716400 0.000000 0.000000 
#    y 0.000000 3.716400 0.000000 
#    z 0.000000 0.000000 4.400120 
# 
# 
# High freq. dielectric constant tensor:
#      x y z
#    x 1.795410 0.000000 0.000000 
#    y 0.000000 1.795410 0.000000 
#    z 0.000000 0.000000 1.833260 
# 
# From -- ./inp_files/4553.got.cif
#   From: 2010.03.12/outbox.cif.g09.slc.cpg/sg128_3_cif.got.tgz:4553.got - 2010.04.06 17:11:05.
