data_PCOD8314764
_publ_section_title
;
Structure prediction by ZEFSAII (Michael W. Deem and Ramdas Pophale) SiO2 
 PCOD8314764
Probable space group: P 4/M N C
;
_chemical_formula_sum "Si O2"
_cell_formula_units_Z 96
_cell_length_a 14.701422
_cell_length_b 14.701422
_cell_length_c 20.852037
_cell_angle_alpha 90.000000
_cell_angle_beta 90.000000
_cell_angle_gamma 90.000000
_cell_volume 4506.788474
_symmetry_space_group_name_H-M "P 4/M N C"
_symmetry_group_IT_number 128
_symmetry_cell_setting 'tetragonal'
loop_
_space_group_symop_operation_xyz
x,y,z
-y,x,z
-x,-y,z
y,-x,z
1/2+x,1/2-y,1/2-z
1/2-x,1/2+y,1/2-z
1/2+y,1/2+x,1/2-z
1/2-y,1/2-x,1/2-z
-x,-y,-z
y,-x,-z
x,y,-z
-y,x,-z
1/2-x,1/2+y,1/2+z
1/2+x,1/2-y,1/2+z
1/2-y,1/2-x,1/2+z
1/2+y,1/2+x,1/2+z
loop_
_atom_site_type_symbol
_atom_site_label
_atom_site_fract_x
_atom_site_fract_y
_atom_site_fract_z
Si Si1 0.218137 0.153423 0.794366
Si Si2 0.300561 0.114225 0.930184
Si Si3 0.104665 0.792649 0.571185
Si Si4 0.253018 0.919738 0.623957
Si Si5 0.097165 0.453439 0.377417
Si Si6 0.238126 0.454392 0.731607
O O1 0.284507 0.215494 0.750000
O O2 0.241119 0.143721 0.869537
O O3 0.116434 0.190957 0.798233
O O4 0.216989 0.053745 0.763396
O O5 0.384441 0.184334 0.931716
O O6 0.340713 0.013069 0.924810
O O7 0.249036 0.120275 0.000000
O O8 0.106137 0.836411 0.500000
O O9 0.187552 0.834035 0.612333
O O10 0.006327 0.807284 0.602908
O O11 0.352215 0.909007 0.590572
O O12 0.283550 0.921626 0.697260
O O13 0.144863 0.455514 0.307824
O O14 0.000000 0.500000 0.368252
#
# Coordination Sequence:
#
# PCOD8314764 Si02
#       6
#    16  16  16  16  16  16
#     4  11  23  44  63  99 133 175 224 281 333 409
#     4  10  22  41  64  93 132 172 213 270 334 396
#     4  11  24  41  61  87 126 175 221 266 323 390
#     4  12  23  41  63  94 128 174 214 272 327 399
#     4  11  23  39  64 101 131 164 215 273 339 402
#     4  11  24  39  69  94 136 172 221 275 343 403
#
# _framework density 21.301200000000001
#
# number of rings (size 3 to 8) (size 9 to 14) (size 15 to 20)
#    0.000    1.000    1.667    6.000    2.333    3.000 
#    0.000    7.500    0.000    0.000    0.000    4.667 
#    0.000    0.000    0.000    0.000    0.000    0.000 
#
# Total GULP energy -1189863.718404 kJ/mol
# GULP energy per Si atom -12394.413733 kJ/mol
# Density = 2.125272 g / cm^3
# Si number density = 21.301200 Si / 1000 Ang^3
#
#
#
# Elastic Constant Matrix: (Units=GPa)
#
#
# Indices 1 2 3 4 5 6 
#
# 1 114.4703 64.5862 25.3122 0.0000 0.0000 0.0000
# 2 64.5862 114.4697 25.3132 0.0000 0.0000 0.0000
# 3 25.3122 25.3132 118.9544 0.0000 0.0000 0.0000
# 4 0.0000 0.0000 0.0000 23.4268 0.0000 0.0000
# 5 0.0000 0.0000 0.0000 0.0000 23.4269 0.0000
# 6 0.0000 0.0000 0.0000 0.0000 0.0000 35.4055
#
#
#
# Elastic Compliance Matrix: (Units=1/GPa)
#
#
# Indices 1 2 3 4 5 6 
#
# 1 0.012994 -0.007052 -0.001264 0.000000 0.000000 0.000000
# 2 -0.007052 0.012995 -0.001265 0.000000 0.000000 0.000000
# 3 -0.001264 -0.001265 0.008945 0.000000 0.000000 0.000000
# 4 0.000000 0.000000 0.000000 0.042686 0.000000 0.000000
# 5 0.000000 0.000000 0.000000 0.000000 0.042686 0.000000
# 6 0.000000 0.000000 0.000000 0.000000 0.000000 0.028244
#
#
# Mechanical properties :
#
#
# Convention : Reuss Voigt Hill
#
# Bulk Modulus (GPa) = 63.40564 64.25752 63.83158
# Shear Modulus (GPa) = 28.90685 31.96402 30.43543
#
# Velocity S-wave (km/s) = 3.68782 3.87793 3.78407
# Velocity P-wave (km/s) = 6.92562 7.09103 7.00881
#
# Compressibility (1/GPa) = 0.01577147
#
# Stress axis : x y z
#
# Youngs Moduli (GPa) = 76.95623 76.95547 111.79765
#
# Poissons Ratio (x) = 0.54270 0.14136
# Poissons Ratio (y) = 0.54270 0.14138
# Poissons Ratio (z) = 0.09730 0.09732
#
# Static dielectric constant tensor:
#      x y z
#    x 3.879010 0.000000 0.000000 
#    y 0.000000 3.879010 0.000000 
#    z 0.000000 0.000000 3.992730 
# 
# 
# High freq. dielectric constant tensor:
#      x y z
#    x 1.832110 0.000000 0.000000 
#    y 0.000000 1.832110 0.000000 
#    z 0.000000 0.000000 1.842280 
# 
# From -- ./inp_files/5768.got.cif
#   From: 2010.03.12/outbox.cif.g09.slc.cpg/sg128_3_cif.got.tgz:5768.got - 2010.04.06 17:11:05.
