data_PCOD8314233
_publ_section_title
;
Structure prediction by ZEFSAII (Michael W. Deem and Ramdas Pophale) SiO2 
 PCOD8314233
Probable space group: P 4/M B M
;
_chemical_formula_sum "Si O2"
_cell_formula_units_Z 96
_cell_length_a 20.820609
_cell_length_b 20.820609
_cell_length_c 12.065738
_cell_angle_alpha 90.000000
_cell_angle_beta 90.000000
_cell_angle_gamma 90.000000
_cell_volume 5230.470385
_symmetry_space_group_name_H-M "P 4/M B M"
_symmetry_group_IT_number 127
_symmetry_cell_setting 'tetragonal'
loop_
_space_group_symop_operation_xyz
x,y,z
-y,x,z
-x,-y,z
y,-x,z
1/2+x,1/2-y,-z
1/2-x,1/2+y,-z
1/2+y,1/2+x,-z
1/2-y,1/2-x,-z
-x,-y,-z
y,-x,-z
x,y,-z
-y,x,-z
1/2-x,1/2+y,z
1/2+x,1/2-y,z
1/2-y,1/2-x,z
1/2+y,1/2+x,z
loop_
_atom_site_type_symbol
_atom_site_label
_atom_site_fract_x
_atom_site_fract_y
_atom_site_fract_z
Si Si1 0.826830 0.429449 0.627695
Si Si2 0.206984 0.110497 0.236501
Si Si3 0.179063 0.069233 0.000000
Si Si4 0.180320 0.918621 0.000000
Si Si5 0.755225 0.150295 0.200497
Si Si6 0.322117 0.925455 0.626198
Si Si7 0.404384 0.544064 0.627645
O O1 0.805942 0.424831 0.500000
O O2 0.894239 0.394239 0.648874
O O3 0.772755 0.396064 0.699480
O O4 0.835281 0.502531 0.666084
O O5 0.191511 0.185386 0.243752
O O6 0.151003 0.067696 0.290869
O O7 0.218551 0.088655 0.109638
O O8 0.112860 0.109669 0.000000
O O9 0.165864 0.993782 0.000000
O O10 0.222910 0.897410 0.104064
O O11 0.698262 0.198262 0.160989
O O12 0.733567 0.106085 0.301842
O O13 0.297674 0.922695 0.500000
O O14 0.389141 0.889141 0.641487
O O15 0.416072 0.469002 0.652062
O O16 0.383319 0.553650 0.500000
#
# Coordination Sequence:
#
# PCOD8314233 Si02
#       7
#    16  16   8   8  16  16  16
#     4  10  21  36  56  82 111 143 180 225 283 343
#     4  11  22  36  55  81 111 147 180 235 275 332
#     4  10  24  35  54  80 109 141 189 223 273 330
#     4  10  21  39  54  78 105 141 181 226 270 320
#     4  10  21  37  57  78 105 141 182 225 274 327
#     4   9  19  35  56  83 111 141 180 224 272 330
#     4   9  20  36  53  78 110 148 190 223 264 324
#
# _framework density 18.35399
#
# number of rings (size 3 to 8) (size 9 to 14) (size 15 to 20)
#    0.000    2.167    0.000    2.750    7.000    1.833 
#    0.000    4.583    0.000    0.000    0.000    0.000 
#    0.000    6.667    0.000    0.000    0.000    0.000 
#
# Total GULP energy -1190571.310943 kJ/mol
# GULP energy per Si atom -12401.784489 kJ/mol
# Density = 1.831222 g / cm^3
# Si number density = 18.353990 Si / 1000 Ang^3
#
#
#
# Elastic Constant Matrix: (Units=GPa)
#
#
# Indices 1 2 3 4 5 6 
#
# 1 104.2679 53.0180 53.0448 0.0000 0.0000 0.0000
# 2 53.0180 104.2679 53.0448 0.0000 0.0000 0.0000
# 3 53.0448 53.0448 92.2337 0.0000 0.0000 0.0000
# 4 0.0000 0.0000 0.0000 22.3453 0.0000 0.0000
# 5 0.0000 0.0000 0.0000 0.0000 22.3453 0.0000
# 6 0.0000 0.0000 0.0000 0.0000 0.0000 17.8998
#
#
#
# Elastic Compliance Matrix: (Units=1/GPa)
#
#
# Indices 1 2 3 4 5 6 
#
# 1 0.014950 -0.004563 -0.005974 0.000000 0.000000 0.000000
# 2 -0.004563 0.014950 -0.005974 0.000000 0.000000 0.000000
# 3 -0.005974 -0.005974 0.017713 0.000000 0.000000 0.000000
# 4 0.000000 0.000000 0.000000 0.044752 0.000000 0.000000
# 5 0.000000 0.000000 0.000000 0.000000 0.044752 0.000000
# 6 0.000000 0.000000 0.000000 0.000000 0.000000 0.055866
#
#
# Mechanical properties :
#
#
# Convention : Reuss Voigt Hill
#
# Bulk Modulus (GPa) = 68.52882 68.77609 68.65246
# Shear Modulus (GPa) = 21.65740 21.96220 21.80980
#
# Velocity S-wave (km/s) = 3.43882 3.46293 3.45089
# Velocity P-wave (km/s) = 7.29285 7.31728 7.30507
#
# Compressibility (1/GPa) = 0.01459240
#
# Stress axis : x y z
#
# Youngs Moduli (GPa) = 66.89093 66.89093 56.45484
#
# Poissons Ratio (x) = 0.30519 0.33725
# Poissons Ratio (y) = 0.30519 0.33725
# Poissons Ratio (z) = 0.39959 0.39959
#
# Static dielectric constant tensor:
#      x y z
#    x 3.378960 0.000000 0.000000 
#    y 0.000000 3.378960 0.000000 
#    z 0.000000 0.000000 3.509530 
# 
# 
# High freq. dielectric constant tensor:
#      x y z
#    x 1.712850 0.000000 0.000000 
#    y 0.000000 1.712850 0.000000 
#    z 0.000000 0.000000 1.715350 
# 
# From -- ./inp_files/3601.got.cif
#   From: 2010.03.12/outbox.cif.g09.slc.cpg/sg127_2_cif.got.tgz:3601.got - 2010.04.06 17:03:15.
