data_PCOD8314351
_publ_section_title
;
Structure prediction by ZEFSAII (Michael W. Deem and Ramdas Pophale) SiO2 
 PCOD8314351
Probable space group: P 4/M B M
;
_chemical_formula_sum "Si O2"
_cell_formula_units_Z 96
_cell_length_a 14.474822
_cell_length_b 14.474822
_cell_length_c 22.328017
_cell_angle_alpha 90.000000
_cell_angle_beta 90.000000
_cell_angle_gamma 90.000000
_cell_volume 4678.176659
_symmetry_space_group_name_H-M "P 4/M B M"
_symmetry_group_IT_number 127
_symmetry_cell_setting 'tetragonal'
loop_
_space_group_symop_operation_xyz
x,y,z
-y,x,z
-x,-y,z
y,-x,z
1/2+x,1/2-y,-z
1/2-x,1/2+y,-z
1/2+y,1/2+x,-z
1/2-y,1/2-x,-z
-x,-y,-z
y,-x,-z
x,y,-z
-y,x,-z
1/2-x,1/2+y,z
1/2+x,1/2-y,z
1/2-y,1/2-x,z
1/2+y,1/2+x,z
loop_
_atom_site_type_symbol
_atom_site_label
_atom_site_fract_x
_atom_site_fract_y
_atom_site_fract_z
Si Si1 0.468043 0.646634 0.500000
Si Si2 0.940513 0.290066 0.830243
Si Si3 0.543284 0.644284 0.730451
Si Si4 0.130500 0.369501 0.357265
Si Si5 0.574512 0.074512 0.768710
Si Si6 0.148891 0.021550 0.930989
Si Si7 0.527800 0.747453 0.392357
Si Si8 0.734953 0.765048 0.568791
O O1 0.391139 0.570661 0.500000
O O2 0.454172 0.703925 0.439196
O O3 0.847910 0.347910 0.841069
O O4 0.921755 0.220350 0.776262
O O5 0.025866 0.353224 0.812057
O O6 0.966192 0.239442 0.891518
O O7 0.438914 0.613454 0.741494
O O8 0.546525 0.681833 0.663490
O O9 0.128194 0.371807 0.284683
O O10 0.156900 0.475100 0.375584
O O11 0.205459 0.294542 0.382682
O O12 0.500000 0.000000 0.742782
O O13 0.102550 0.923418 0.916015
O O14 0.178968 0.025825 0.000000
O O15 0.625387 0.756640 0.423843
O O16 0.762624 0.737376 0.500000
#
# Coordination Sequence:
#
# PCOD8314351 Si02
#       8
#     8  16  16   8   8  16  16   8
#     4  11  22  40  64  87 120 162 210 271 338 397
#     4  11  23  41  64  96 137 178 220 268 322 390
#     4  11  23  41  64  94 128 165 216 271 334 396
#     4  12  26  46  74  91 132 177 217 274 344 412
#     4  10  24  46  65  92 135 182 219 264 335 404
#     4   9  19  41  70  99 136 180 223 274 331 381
#     4  12  26  42  65  95 124 166 213 272 336 407
#     4  12  28  47  68  97 131 167 224 279 345 421
#
# _framework density 20.520816
#
# number of rings (size 3 to 8) (size 9 to 14) (size 15 to 20)
#    0.000    1.083    2.500    4.500    3.500    3.000 
#    7.500    0.833    0.000    1.500    0.000    0.000 
#    0.000    0.000    0.000    0.000    0.000    0.000 
#
# Total GULP energy -1190192.866822 kJ/mol
# GULP energy per Si atom -12397.842363 kJ/mol
# Density = 2.047411 g / cm^3
# Si number density = 20.520816 Si / 1000 Ang^3
#
#
#
# Elastic Constant Matrix: (Units=GPa)
#
#
# Indices 1 2 3 4 5 6 
#
# 1 102.8893 50.0083 60.0195 0.0000 0.0000 0.0000
# 2 50.0083 102.8897 60.0195 0.0000 0.0000 0.0000
# 3 60.0195 60.0195 139.3603 0.0000 0.0000 0.0000
# 4 0.0000 0.0000 0.0000 40.9531 0.0000 0.0000
# 5 0.0000 0.0000 0.0000 0.0000 40.9531 0.0000
# 6 0.0000 0.0000 0.0000 0.0000 0.0000 41.3956
#
#
#
# Elastic Compliance Matrix: (Units=1/GPa)
#
#
# Indices 1 2 3 4 5 6 
#
# 1 0.014396 -0.004514 -0.004256 0.000000 0.000000 0.000000
# 2 -0.004514 0.014396 -0.004256 0.000000 0.000000 0.000000
# 3 -0.004256 -0.004256 0.010841 0.000000 0.000000 0.000000
# 4 0.000000 0.000000 0.000000 0.024418 0.000000 0.000000
# 5 0.000000 0.000000 0.000000 0.000000 0.024418 0.000000
# 6 0.000000 0.000000 0.000000 0.000000 0.000000 0.024157
#
#
# Mechanical properties :
#
#
# Convention : Reuss Voigt Hill
#
# Bulk Modulus (GPa) = 73.63043 76.13710 74.88376
# Shear Modulus (GPa) = 34.91486 36.33317 35.62402
#
# Velocity S-wave (km/s) = 4.12932 4.21236 4.17105
# Velocity P-wave (km/s) = 7.66119 7.80010 7.73096
#
# Compressibility (1/GPa) = 0.01358134
#
# Stress axis : x y z
#
# Youngs Moduli (GPa) = 69.46418 69.46447 92.23935
#
# Poissons Ratio (x) = 0.31359 0.39255
# Poissons Ratio (y) = 0.31359 0.39255
# Poissons Ratio (z) = 0.29562 0.29562
#
# Static dielectric constant tensor:
#      x y z
#    x 10.331030 0.000000 0.000000 
#    y 0.000000 10.305080 0.000000 
#    z 0.000000 0.000000 4.025550 
# 
# 
# High freq. dielectric constant tensor:
#      x y z
#    x 1.808040 0.000000 0.000000 
#    y 0.000000 1.808040 0.000000 
#    z 0.000000 0.000000 1.805600 
# 
# From -- ./inp_files/5854.got.cif
#   From: 2010.03.12/outbox.cif.g09.slc.cpg/sg127_3_cif.got.tgz:5854.got - 2010.04.06 17:03:15.
