data_PCOD8314112
_publ_section_title
;
Structure prediction by ZEFSAII (Michael W. Deem and Ramdas Pophale) SiO2 
 PCOD8314112
Probable space group: P 4/M B M
;
_chemical_formula_sum "Si O2"
_cell_formula_units_Z 104
_cell_length_a 17.862445
_cell_length_b 17.862445
_cell_length_c 18.430255
_cell_angle_alpha 90.000000
_cell_angle_beta 90.000000
_cell_angle_gamma 90.000000
_cell_volume 5880.485092
_symmetry_space_group_name_H-M "P 4/M B M"
_symmetry_group_IT_number 127
_symmetry_cell_setting 'tetragonal'
loop_
_space_group_symop_operation_xyz
x,y,z
-y,x,z
-x,-y,z
y,-x,z
1/2+x,1/2-y,-z
1/2-x,1/2+y,-z
1/2+y,1/2+x,-z
1/2-y,1/2-x,-z
-x,-y,-z
y,-x,-z
x,y,-z
-y,x,-z
1/2-x,1/2+y,z
1/2+x,1/2-y,z
1/2-y,1/2-x,z
1/2+y,1/2+x,z
loop_
_atom_site_type_symbol
_atom_site_label
_atom_site_fract_x
_atom_site_fract_y
_atom_site_fract_z
Si Si1 0.293577 0.033953 0.327223
Si Si2 0.196965 0.576590 0.835791
Si Si3 0.308416 0.316343 0.834676
Si Si4 0.062446 0.562446 0.417680
Si Si5 0.154334 0.776371 0.418046
Si Si6 0.866589 0.754745 0.688108
Si Si7 0.204229 0.420093 0.084078
O O1 0.312074 0.071953 0.250738
O O2 0.366757 0.028435 0.376571
O O3 0.230151 0.080409 0.369682
O O4 0.260404 0.953242 0.314147
O O5 0.129687 0.629687 0.864939
O O6 0.279275 0.611373 0.855101
O O7 0.189924 0.495827 0.872145
O O8 0.251926 0.248075 0.834738
O O9 0.311646 0.351406 0.754356
O O10 0.281547 0.379918 0.891339
O O11 0.085179 0.585179 0.500000
O O12 0.000000 0.500000 0.419169
O O13 0.133715 0.798318 0.500000
O O14 0.196423 0.696423 0.414048
O O15 0.207464 0.841215 0.386861
O O16 0.823036 0.676965 0.701657
O O17 0.134378 0.365623 0.100318
O O18 0.211209 0.439801 0.000000
#
# Coordination Sequence:
#
# PCOD8314112 Si02
#       7
#    16  16  16   8  16  16  16
#     4  12  20  34  56  82 110 147 188 234 283 330
#     4  11  21  35  59  88 114 147 191 232 276 336
#     4   9  18  35  57  81 109 144 189 233 272 325
#     4  11  24  36  48  76 121 161 189 224 283 350
#     4  10  20  35  54  77 109 147 186 232 286 334
#     4  10  20  34  55  81 109 141 188 237 275 326
#     4  10  22  39  58  85 121 152 179 224 285 339
#
# _framework density 17.685616
#
# number of rings (size 3 to 8) (size 9 to 14) (size 15 to 20)
#    0.000    1.615    4.615    0.923    0.000    3.077 
#    0.000    3.846    0.000    0.923    0.000    2.154 
#    0.000    0.000    0.000    0.000    0.000    0.000 
#
# Total GULP energy -1289618.986539 kJ/mol
# GULP energy per Si atom -12400.182563 kJ/mol
# Density = 1.764536 g / cm^3
# Si number density = 17.685616 Si / 1000 Ang^3
#
#
#
# Elastic Constant Matrix: (Units=GPa)
#
#
# Indices 1 2 3 4 5 6 
#
# 1 72.0376 42.2861 27.8295 0.0000 0.0000 0.0000
# 2 42.2861 72.0376 27.8295 0.0000 0.0000 0.0000
# 3 27.8295 27.8295 102.4210 0.0000 0.0000 0.0000
# 4 0.0000 0.0000 0.0000 25.1246 0.0000 0.0000
# 5 0.0000 0.0000 0.0000 0.0000 25.1246 0.0000
# 6 0.0000 0.0000 0.0000 0.0000 0.0000 21.5301
#
#
#
# Elastic Compliance Matrix: (Units=1/GPa)
#
#
# Indices 1 2 3 4 5 6 
#
# 1 0.021846 -0.011766 -0.002739 0.000000 0.000000 0.000000
# 2 -0.011766 0.021846 -0.002739 0.000000 0.000000 0.000000
# 3 -0.002739 -0.002739 0.011252 0.000000 0.000000 0.000000
# 4 0.000000 0.000000 0.000000 0.039802 0.000000 0.000000
# 5 0.000000 0.000000 0.000000 0.000000 0.039802 0.000000
# 6 0.000000 0.000000 0.000000 0.000000 0.000000 0.046447
#
#
# Mechanical properties :
#
#
# Convention : Reuss Voigt Hill
#
# Bulk Modulus (GPa) = 48.88285 49.15405 49.01845
# Shear Modulus (GPa) = 22.49207 24.25929 23.37568
#
# Velocity S-wave (km/s) = 3.57006 3.70766 3.63951
# Velocity P-wave (km/s) = 6.68533 6.79578 6.74078
#
# Compressibility (1/GPa) = 0.02045707
#
# Stress axis : x y z
#
# Youngs Moduli (GPa) = 45.77464 45.77464 88.87208
#
# Poissons Ratio (x) = 0.53856 0.24343
# Poissons Ratio (y) = 0.53856 0.24343
# Poissons Ratio (z) = 0.12538 0.12538
#
# Static dielectric constant tensor:
#      x y z
#    x 3.203480 0.000000 0.000000 
#    y 0.000000 3.203480 0.000000 
#    z 0.000000 0.000000 3.413370 
# 
# 
# High freq. dielectric constant tensor:
#      x y z
#    x 1.670420 0.000000 0.000000 
#    y 0.000000 1.670420 0.000000 
#    z 0.000000 0.000000 1.693090 
# 
# From -- ./inp_files/5221.got.cif
#   From: 2010.03.12/outbox.cif.g09.slc.cpg/sg127_3_cif.got.tgz:5221.got - 2010.04.06 17:03:15.
