data_PCOD8314175
_publ_section_title
;
Structure prediction by ZEFSAII (Michael W. Deem and Ramdas Pophale) SiO2 
 PCOD8314175
Probable space group: P 4/M B M
;
_chemical_formula_sum "Si O2"
_cell_formula_units_Z 96
_cell_length_a 19.592927
_cell_length_b 19.592927
_cell_length_c 12.742250
_cell_angle_alpha 90.000000
_cell_angle_beta 90.000000
_cell_angle_gamma 90.000000
_cell_volume 4891.530461
_symmetry_space_group_name_H-M "P 4/M B M"
_symmetry_group_IT_number 127
_symmetry_cell_setting 'tetragonal'
loop_
_space_group_symop_operation_xyz
x,y,z
-y,x,z
-x,-y,z
y,-x,z
1/2+x,1/2-y,-z
1/2-x,1/2+y,-z
1/2+y,1/2+x,-z
1/2-y,1/2-x,-z
-x,-y,-z
y,-x,-z
x,y,-z
-y,x,-z
1/2-x,1/2+y,z
1/2+x,1/2-y,z
1/2-y,1/2-x,z
1/2+y,1/2+x,z
loop_
_atom_site_type_symbol
_atom_site_label
_atom_site_fract_x
_atom_site_fract_y
_atom_site_fract_z
Si Si1 0.026396 0.108858 0.221114
Si Si2 0.818417 0.576256 0.267725
Si Si3 0.747007 0.864815 0.227990
Si Si4 0.715014 0.485335 0.621859
Si Si5 0.875933 0.796265 0.878474
Si Si6 0.852900 0.462699 0.883976
O O1 0.023348 0.147257 0.333449
O O2 0.051126 0.164005 0.134729
O O3 0.950679 0.081230 0.206888
O O4 0.871716 0.628285 0.321852
O O5 0.777704 0.537138 0.358997
O O6 0.772267 0.619572 0.188004
O O7 0.860524 0.522800 0.198646
O O8 0.697792 0.802209 0.265425
O O9 0.813715 0.838767 0.168930
O O10 0.708358 0.911937 0.145072
O O11 0.770407 0.911360 0.326385
O O12 0.704000 0.472691 0.500000
O O13 0.862778 0.780168 0.000000
O O14 0.924536 0.424536 0.883129
O O15 0.837004 0.491845 0.000000
#
# Coordination Sequence:
#
# PCOD8314175 Si02
#       6
#    16  16  16  16  16  16
#     4  10  21  40  60  86 121 153 195 240 288 348
#     4  10  22  38  55  84 122 152 190 244 295 349
#     4  10  20  37  58  83 116 151 196 247 292 348
#     4  10  22  41  63  85 112 151 200 250 299 349
#     4  11  22  36  59  87 121 161 195 232 287 355
#     4   9  18  33  55  81 111 152 196 235 281 341
#
# _framework density 19.62576
#
# number of rings (size 3 to 8) (size 9 to 14) (size 15 to 20)
#    0.000    2.000    1.667    1.500    0.000    5.333 
#    0.000    2.500    0.000    2.000    0.000    4.667 
#    0.000    0.000    0.000    0.000    0.000    0.000 
#
# Total GULP energy -1189785.748209 kJ/mol
# GULP energy per Si atom -12393.601544 kJ/mol
# Density = 1.958109 g / cm^3
# Si number density = 19.625760 Si / 1000 Ang^3
#
#
#
# Elastic Constant Matrix: (Units=GPa)
#
#
# Indices 1 2 3 4 5 6 
#
# 1 63.2578 23.7096 -2.8044 0.0000 0.0000 0.0000
# 2 23.7096 63.2578 -2.8044 0.0000 0.0000 0.0000
# 3 -2.8044 -2.8044 56.3843 0.0000 0.0000 0.0000
# 4 0.0000 0.0000 0.0000 15.9438 0.0000 0.0000
# 5 0.0000 0.0000 0.0000 0.0000 15.9438 0.0000
# 6 0.0000 0.0000 0.0000 0.0000 0.0000 34.1703
#
#
#
# Elastic Compliance Matrix: (Units=1/GPa)
#
#
# Indices 1 2 3 4 5 6 
#
# 1 0.018411 -0.006875 0.000574 0.000000 0.000000 0.000000
# 2 -0.006875 0.018411 0.000574 0.000000 0.000000 0.000000
# 3 0.000574 0.000574 0.017792 0.000000 0.000000 0.000000
# 4 0.000000 0.000000 0.000000 0.062720 0.000000 0.000000
# 5 0.000000 0.000000 0.000000 0.000000 0.062720 0.000000
# 6 0.000000 0.000000 0.000000 0.000000 0.000000 0.029265
#
#
# Mechanical properties :
#
#
# Convention : Reuss Voigt Hill
#
# Bulk Modulus (GPa) = 23.17037 24.34464 23.75750
# Shear Modulus (GPa) = 21.26207 24.19820 22.73014
#
# Velocity S-wave (km/s) = 3.29504 3.51519 3.40689
# Velocity P-wave (km/s) = 5.12914 5.37650 5.25428
#
# Compressibility (1/GPa) = 0.04315857
#
# Stress axis : x y z
#
# Youngs Moduli (GPa) = 54.31658 54.31658 56.20348
#
# Poissons Ratio (x) = 0.37343 -0.03225
# Poissons Ratio (y) = 0.37343 -0.03225
# Poissons Ratio (z) = -0.03116 -0.03116
#
# Static dielectric constant tensor:
#      x y z
#    x 3.839610 0.000000 0.000000 
#    y 0.000000 3.839610 0.000000 
#    z 0.000000 0.000000 3.222420 
# 
# 
# High freq. dielectric constant tensor:
#      x y z
#    x 1.777850 0.000000 0.000000 
#    y 0.000000 1.777850 0.000000 
#    z 0.000000 0.000000 1.729930 
# 
# From -- ./inp_files/3525.got.cif
#   From: 2010.03.12/outbox.cif.g09.slc.cpg/sg127_2_cif.got.tgz:3525.got - 2010.04.06 17:03:15.
