data_PCOD8314400
_publ_section_title
;
Structure prediction by ZEFSAII (Michael W. Deem and Ramdas Pophale) SiO2 
 PCOD8314400
Probable space group: P 4/M B M
;
_chemical_formula_sum "Si O2"
_cell_formula_units_Z 112
_cell_length_a 13.736551
_cell_length_b 13.736551
_cell_length_c 34.701337
_cell_angle_alpha 90.000000
_cell_angle_beta 90.000000
_cell_angle_gamma 90.000000
_cell_volume 6547.893600
_symmetry_space_group_name_H-M "P 4/M B M"
_symmetry_group_IT_number 127
_symmetry_cell_setting 'tetragonal'
loop_
_space_group_symop_operation_xyz
x,y,z
-y,x,z
-x,-y,z
y,-x,z
1/2+x,1/2-y,-z
1/2-x,1/2+y,-z
1/2+y,1/2+x,-z
1/2-y,1/2-x,-z
-x,-y,-z
y,-x,-z
x,y,-z
-y,x,-z
1/2-x,1/2+y,z
1/2+x,1/2-y,z
1/2-y,1/2-x,z
1/2+y,1/2+x,z
loop_
_atom_site_type_symbol
_atom_site_label
_atom_site_fract_x
_atom_site_fract_y
_atom_site_fract_z
Si Si1 0.737404 0.392722 0.380166
Si Si2 0.656502 0.528477 0.732724
Si Si3 0.484536 0.659643 0.819834
Si Si4 0.003381 0.661234 0.124061
Si Si5 0.592897 0.253723 0.341683
Si Si6 0.860683 0.920580 0.457232
Si Si7 0.504826 0.158176 0.040732
O O1 0.836234 0.336234 0.371414
O O2 0.651484 0.351157 0.353064
O O3 0.756450 0.504708 0.371225
O O4 0.711455 0.378637 0.425107
O O5 0.576715 0.611226 0.725832
O O6 0.697750 0.528104 0.776122
O O7 0.740893 0.551288 0.701967
O O8 0.395521 0.586042 0.827864
O O9 0.480508 0.754681 0.845876
O O10 0.104795 0.604795 0.133503
O O11 0.915985 0.584016 0.124666
O O12 0.008490 0.714100 0.081532
O O13 0.658837 0.158837 0.345859
O O14 0.819590 0.897053 0.500000
O O15 0.964361 0.870097 0.451662
O O16 0.612772 0.112772 0.039615
O O17 0.428594 0.071407 0.041643
O O18 0.490434 0.218808 0.000000
#
# Coordination Sequence:
#
# PCOD8314400 Si02
#       7
#    16  16  16  16  16  16  16
#     4  11  22  35  55  81 107 142 177 206 257 310
#     4   9  17  33  56  76  94 124 168 215 252 288
#     4   9  19  34  51  73  98 129 171 210 247 296
#     4   9  17  29  47  73 101 129 163 203 254 309
#     4  11  22  35  55  82 106 133 172 215 255 305
#     4   9  17  31  54  82 107 134 174 222 262 293
#     4   7  10  19  38  64  92 121 157 203 248 291
#
# _framework density 17.104737
#
# number of rings (size 3 to 8) (size 9 to 14) (size 15 to 20)
#    0.000    2.714    2.857    2.571    0.000    2.000 
#    0.000    2.857    0.000    1.286    0.000    6.000 
#    0.000    0.000    0.000    0.000    0.000    0.000 
#
# Total GULP energy -1387561.318411 kJ/mol
# GULP energy per Si atom -12388.940343 kJ/mol
# Density = 1.706581 g / cm^3
# Si number density = 17.104737 Si / 1000 Ang^3
#
#
#
# Elastic Constant Matrix: (Units=GPa)
#
#
# Indices 1 2 3 4 5 6 
#
# 1 64.7346 19.8517 38.6664 0.0000 0.0000 0.0000
# 2 19.8517 64.7346 38.6664 0.0000 0.0000 0.0000
# 3 38.6664 38.6664 137.3108 0.0000 0.0000 0.0000
# 4 0.0000 0.0000 0.0000 21.9147 0.0000 0.0000
# 5 0.0000 0.0000 0.0000 0.0000 21.9147 0.0000
# 6 0.0000 0.0000 0.0000 0.0000 0.0000 13.5899
#
#
#
# Elastic Compliance Matrix: (Units=1/GPa)
#
#
# Indices 1 2 3 4 5 6 
#
# 1 0.019101 -0.003180 -0.004483 0.000000 0.000000 0.000000
# 2 -0.003180 0.019101 -0.004483 0.000000 0.000000 0.000000
# 3 -0.004483 -0.004483 0.009808 0.000000 0.000000 0.000000
# 4 0.000000 0.000000 0.000000 0.045632 0.000000 0.000000
# 5 0.000000 0.000000 0.000000 0.000000 0.045632 0.000000
# 6 0.000000 0.000000 0.000000 0.000000 0.000000 0.073584
#
#
# Mechanical properties :
#
#
# Convention : Reuss Voigt Hill
#
# Bulk Modulus (GPa) = 42.16456 51.23878 46.70167
# Shear Modulus (GPa) = 20.40362 22.79020 21.59691
#
# Velocity S-wave (km/s) = 3.45753 3.65415 3.55720
# Velocity P-wave (km/s) = 6.37524 6.91554 6.65088
#
# Compressibility (1/GPa) = 0.02371660
#
# Stress axis : x y z
#
# Youngs Moduli (GPa) = 52.35422 52.35422 101.96016
#
# Poissons Ratio (x) = 0.16646 0.45712
# Poissons Ratio (y) = 0.16646 0.45712
# Poissons Ratio (z) = 0.23472 0.23472
#
# Static dielectric constant tensor:
#      x y z
#    x 2.858140 0.000000 0.000000 
#    y 0.000000 2.858140 0.000000 
#    z 0.000000 0.000000 3.611990 
# 
# 
# High freq. dielectric constant tensor:
#      x y z
#    x 1.627800 0.000000 0.000000 
#    y 0.000000 1.627800 0.000000 
#    z 0.000000 0.000000 1.682700 
# 
# From -- ./inp_files/6652.got.cif
#   From: 2010.03.12/outbox.cif.g09.slc.cpg/sg127_4_cif.got.tgz:6652.got - 2010.04.06 17:03:15.
