data_PCOD8314278
_publ_section_title
;
Structure prediction by ZEFSAII (Michael W. Deem and Ramdas Pophale) SiO2 
 PCOD8314278
Probable space group: P 4/M B M
;
_chemical_formula_sum "Si O2"
_cell_formula_units_Z 96
_cell_length_a 23.792802
_cell_length_b 23.792802
_cell_length_c 8.462752
_cell_angle_alpha 90.000000
_cell_angle_beta 90.000000
_cell_angle_gamma 90.000000
_cell_volume 4790.742133
_symmetry_space_group_name_H-M "P 4/M B M"
_symmetry_group_IT_number 127
_symmetry_cell_setting 'tetragonal'
loop_
_space_group_symop_operation_xyz
x,y,z
-y,x,z
-x,-y,z
y,-x,z
1/2+x,1/2-y,-z
1/2-x,1/2+y,-z
1/2+y,1/2+x,-z
1/2-y,1/2-x,-z
-x,-y,-z
y,-x,-z
x,y,-z
-y,x,-z
1/2-x,1/2+y,z
1/2+x,1/2-y,z
1/2-y,1/2-x,z
1/2+y,1/2+x,z
loop_
_atom_site_type_symbol
_atom_site_label
_atom_site_fract_x
_atom_site_fract_y
_atom_site_fract_z
Si Si1 0.588470 0.000138 0.687618
Si Si2 0.571475 0.297419 0.184702
Si Si3 0.516098 0.786542 0.316044
Si Si4 0.272533 0.135522 0.182029
Si Si5 0.279916 0.310235 0.682684
Si Si6 0.582180 0.533471 0.187834
O O1 0.589692 0.996457 0.500000
O O2 0.557734 0.057734 0.742003
O O3 0.553329 0.946672 0.753580
O O4 0.651708 0.998731 0.752986
O O5 0.518499 0.257920 0.215014
O O6 0.624877 0.271725 0.274133
O O7 0.557474 0.359307 0.254696
O O8 0.584466 0.300361 0.000000
O O9 0.500581 0.781140 0.500000
O O10 0.581737 0.774806 0.293694
O O11 0.325346 0.174655 0.225295
O O12 0.215150 0.169084 0.215472
O O13 0.273257 0.116862 0.000000
O O14 0.295275 0.303328 0.500000
O O15 0.221842 0.278159 0.722956
O O16 0.530656 0.572467 0.247625
O O17 0.584166 0.532609 0.000000
#
# Coordination Sequence:
#
# PCOD8314278 Si02
#       6
#    16  16  16  16  16  16
#     4   8  15  30  53  79 106 141 188 238 285 334
#     4  11  23  36  57  87 118 154 194 240 292 349
#     4  11  22  35  54  84 120 155 192 236 288 349
#     4  10  21  38  61  87 115 149 193 246 299 350
#     4  10  22  41  62  83 112 152 196 240 292 355
#     4   8  16  33  56  81 108 142 185 232 283 341
#
# _framework density 20.038647999999998
#
# number of rings (size 3 to 8) (size 9 to 14) (size 15 to 20)
#    0.000    2.333    0.000    3.500    2.333    3.333 
#    0.000    1.667    0.000    1.500    0.000   10.500 
#    0.000    0.000    0.000    0.000    0.000    0.000 
#
# Total GULP energy -1190538.125370 kJ/mol
# GULP energy per Si atom -12401.438806 kJ/mol
# Density = 1.999304 g / cm^3
# Si number density = 20.038648 Si / 1000 Ang^3
#
#
#
# Elastic Constant Matrix: (Units=GPa)
#
#
# Indices 1 2 3 4 5 6 
#
# 1 118.1194 59.2512 19.1758 0.0000 0.0000 0.0000
# 2 59.2512 118.1194 19.1758 0.0000 0.0000 0.0000
# 3 19.1758 19.1758 35.9350 0.0000 0.0000 0.0000
# 4 0.0000 0.0000 0.0000 26.6974 0.0000 0.0000
# 5 0.0000 0.0000 0.0000 0.0000 26.6974 0.0000
# 6 0.0000 0.0000 0.0000 0.0000 0.0000 23.2429
#
#
#
# Elastic Compliance Matrix: (Units=1/GPa)
#
#
# Indices 1 2 3 4 5 6 
#
# 1 0.011680 -0.005307 -0.003401 0.000000 0.000000 0.000000
# 2 -0.005307 0.011680 -0.003401 0.000000 0.000000 0.000000
# 3 -0.003401 -0.003401 0.031458 0.000000 0.000000 0.000000
# 4 0.000000 0.000000 0.000000 0.037457 0.000000 0.000000
# 5 0.000000 0.000000 0.000000 0.000000 0.037457 0.000000
# 6 0.000000 0.000000 0.000000 0.000000 0.000000 0.043024
#
#
# Mechanical properties :
#
#
# Convention : Reuss Voigt Hill
#
# Bulk Modulus (GPa) = 32.67923 51.93104 42.30514
# Shear Modulus (GPa) = 24.13439 26.96562 25.55000
#
# Velocity S-wave (km/s) = 3.47420 3.67233 3.57464
# Velocity P-wave (km/s) = 5.69534 6.62971 6.18021
#
# Compressibility (1/GPa) = 0.03060048
#
# Stress axis : x y z
#
# Youngs Moduli (GPa) = 85.61503 85.61503 31.78872
#
# Poissons Ratio (x) = 0.45435 0.10811
# Poissons Ratio (y) = 0.45435 0.10811
# Poissons Ratio (z) = 0.29117 0.29117
#
# Static dielectric constant tensor:
#      x y z
#    x 3.764440 0.000000 0.000000 
#    y 0.000000 3.764440 0.000000 
#    z 0.000000 0.000000 3.243170 
# 
# 
# High freq. dielectric constant tensor:
#      x y z
#    x 1.786290 0.000000 0.000000 
#    y 0.000000 1.786290 0.000000 
#    z 0.000000 0.000000 1.753690 
# 
# From -- ./inp_files/1971.got.cif
#   From: 2010.03.12/outbox.cif.g09.slc.cpg/sg127_1_cif.got.tgz:1971.got - 2010.04.06 17:03:15.
