data_PCOD8314065
_publ_section_title
;
Structure prediction by ZEFSAII (Michael W. Deem and Ramdas Pophale) SiO2 
 PCOD8314065
Probable space group: P 4/M B M
;
_chemical_formula_sum "Si O2"
_cell_formula_units_Z 112
_cell_length_a 15.875039
_cell_length_b 15.875039
_cell_length_c 23.764158
_cell_angle_alpha 90.000000
_cell_angle_beta 90.000000
_cell_angle_gamma 90.000000
_cell_volume 5988.968557
_symmetry_space_group_name_H-M "P 4/M B M"
_symmetry_group_IT_number 127
_symmetry_cell_setting 'tetragonal'
loop_
_space_group_symop_operation_xyz
x,y,z
-y,x,z
-x,-y,z
y,-x,z
1/2+x,1/2-y,-z
1/2-x,1/2+y,-z
1/2+y,1/2+x,-z
1/2-y,1/2-x,-z
-x,-y,-z
y,-x,-z
x,y,-z
-y,x,-z
1/2-x,1/2+y,z
1/2+x,1/2-y,z
1/2-y,1/2-x,z
1/2+y,1/2+x,z
loop_
_atom_site_type_symbol
_atom_site_label
_atom_site_fract_x
_atom_site_fract_y
_atom_site_fract_z
Si Si1 0.747988 0.610440 0.841377
Si Si2 0.363005 0.004393 0.650302
Si Si3 0.734318 0.094186 0.563823
Si Si4 0.874442 0.054871 0.065334
Si Si5 0.504645 0.863897 0.224673
Si Si6 0.109542 0.918186 0.372024
Si Si7 0.917238 0.889929 0.756615
O O1 0.810172 0.689829 0.847509
O O2 0.705577 0.590100 0.901013
O O3 0.796534 0.525969 0.821124
O O4 0.675829 0.632658 0.795843
O O5 0.406836 0.093165 0.634914
O O6 0.321879 0.010781 0.712913
O O7 0.431737 0.931737 0.649296
O O8 0.292892 0.983937 0.603665
O O9 0.739908 0.061346 0.500000
O O10 0.671757 0.171757 0.568905
O O11 0.824751 0.126739 0.586066
O O12 0.957395 0.108780 0.080686
O O13 0.852562 0.064330 0.000000
O O14 0.594972 0.905029 0.207250
O O15 0.437654 0.937654 0.229141
O O16 0.134261 0.899126 0.307700
O O17 0.017381 0.884521 0.384779
O O18 0.016624 0.884461 0.770109
#
# Coordination Sequence:
#
# PCOD8314065 Si02
#       7
#    16  16  16  16  16  16  16
#     4  11  20  29  50  83 113 138 165 204 253 301
#     4   8  14  27  47  68  93 129 170 206 239 283
#     4  10  20  32  48  72 100 128 160 205 261 313
#     4   9  19  38  61  78  96 133 182 221 253 291
#     4   8  15  28  45  67  98 136 171 198 233 291
#     4   9  19  36  56  74  92 123 168 211 250 297
#     4   9  18  34  54  74  99 131 168 209 251 298
#
# _framework density 18.701049999999999
#
# number of rings (size 3 to 8) (size 9 to 14) (size 15 to 20)
#    0.000    2.857    0.000    3.857    0.000    4.000 
#    0.000    5.714    0.000    3.000    0.000    2.000 
#    0.000    0.000    0.000    0.000    0.000    0.000 
#
# Total GULP energy -1388268.965188 kJ/mol
# GULP energy per Si atom -12395.258618 kJ/mol
# Density = 1.865849 g / cm^3
# Si number density = 18.701050 Si / 1000 Ang^3
#
#
#
# Elastic Constant Matrix: (Units=GPa)
#
#
# Indices 1 2 3 4 5 6 
#
# 1 66.1674 29.8206 53.4230 0.0000 0.0000 0.0000
# 2 29.8206 66.1674 53.4230 0.0000 0.0000 0.0000
# 3 53.4230 53.4230 113.7671 0.0000 0.0000 0.0000
# 4 0.0000 0.0000 0.0000 27.6958 0.0000 0.0000
# 5 0.0000 0.0000 0.0000 0.0000 27.6958 0.0000
# 6 0.0000 0.0000 0.0000 0.0000 0.0000 1.0079
#
#
#
# Elastic Compliance Matrix: (Units=1/GPa)
#
#
# Indices 1 2 3 4 5 6 
#
# 1 0.024670 -0.002843 -0.010249 0.000000 0.000000 0.000000
# 2 -0.002843 0.024670 -0.010249 0.000000 0.000000 0.000000
# 3 -0.010249 -0.010249 0.018416 0.000000 0.000000 0.000000
# 4 0.000000 0.000000 0.000000 0.036107 0.000000 0.000000
# 5 0.000000 0.000000 0.000000 0.000000 0.036107 0.000000
# 6 0.000000 0.000000 0.000000 0.000000 0.000000 0.992150
#
#
# Mechanical properties :
#
#
# Convention : Reuss Voigt Hill
#
# Bulk Modulus (GPa) = 47.45733 57.71502 52.58618
# Shear Modulus (GPa) = 4.21647 18.57558 11.39603
#
# Velocity S-wave (km/s) = 1.50318 3.15507 2.47124
# Velocity P-wave (km/s) = 5.33335 6.64842 6.02687
#
# Compressibility (1/GPa) = 0.02107156
#
# Stress axis : x y z
#
# Youngs Moduli (GPa) = 40.53540 40.53540 54.30110
#
# Poissons Ratio (x) = 0.11524 0.55656
# Poissons Ratio (y) = 0.11524 0.55656
# Poissons Ratio (z) = 0.41547 0.41547
#
# Static dielectric constant tensor:
#      x y z
#    x 3.356400 0.000000 0.000000 
#    y 0.000000 3.356400 0.000000 
#    z 0.000000 0.000000 3.412870 
# 
# 
# High freq. dielectric constant tensor:
#      x y z
#    x 1.712430 0.000000 0.000000 
#    y 0.000000 1.712430 0.000000 
#    z 0.000000 0.000000 1.718790 
# 
# From -- ./inp_files/6184.got.cif
#   From: 2010.03.12/outbox.cif.g09.slc.cpg/sg127_4_cif.got.tgz:6184.got - 2010.04.06 17:03:15.
