data_PCOD8314680
_publ_section_title
;
Structure prediction by ZEFSAII (Michael W. Deem and Ramdas Pophale) SiO2 
 PCOD8314680
Probable space group: P 4/M N C
;
_chemical_formula_sum "Si O2"
_cell_formula_units_Z 120
_cell_length_a 14.839709
_cell_length_b 14.839709
_cell_length_c 29.610120
_cell_angle_alpha 90.000000
_cell_angle_beta 90.000000
_cell_angle_gamma 90.000000
_cell_volume 6520.650707
_symmetry_space_group_name_H-M "P 4/M N C"
_symmetry_group_IT_number 128
_symmetry_cell_setting 'tetragonal'
loop_
_space_group_symop_operation_xyz
x,y,z
-y,x,z
-x,-y,z
y,-x,z
1/2+x,1/2-y,1/2-z
1/2-x,1/2+y,1/2-z
1/2+y,1/2+x,1/2-z
1/2-y,1/2-x,1/2-z
-x,-y,-z
y,-x,-z
x,y,-z
-y,x,-z
1/2-x,1/2+y,1/2+z
1/2+x,1/2-y,1/2+z
1/2-y,1/2-x,1/2+z
1/2+y,1/2+x,1/2+z
loop_
_atom_site_type_symbol
_atom_site_label
_atom_site_fract_x
_atom_site_fract_y
_atom_site_fract_z
Si Si1 0.059431 0.215530 0.905310
Si Si2 0.559317 0.635685 0.163724
Si Si3 0.206317 0.114886 0.144144
Si Si4 0.869133 0.931045 0.235507
Si Si5 0.476298 0.101313 0.051599
Si Si6 0.304428 0.838366 0.551538
Si Si7 0.353980 0.486891 0.500000
Si Si8 0.265256 0.154744 0.598899
O O1 0.111383 0.130107 0.882837
O O2 0.129287 0.295947 0.911617
O O3 0.015731 0.202149 0.954354
O O4 0.980326 0.246422 0.872085
O O5 0.454355 0.616733 0.156485
O O6 0.582498 0.670859 0.214227
O O7 0.581603 0.710679 0.127117
O O8 0.196821 0.110901 0.198199
O O9 0.272876 0.196493 0.134041
O O10 0.963117 0.880813 0.228408
O O11 0.555463 0.176114 0.055707
O O12 0.390746 0.147936 0.075319
O O13 0.500000 0.000000 0.071208
O O14 0.448200 0.086201 0.000000
O O15 0.323830 0.806283 0.500000
O O16 0.203121 0.804719 0.563982
O O17 0.418478 0.402218 0.500000
#
# Coordination Sequence:
#
# PCOD8314680 Si02
#       8
#    16  16  16  16  16  16   8  16
#     4  11  20  31  45  74 107 142 189 219 260 315
#     4   9  19  37  61  84 102 130 167 224 295 337
#     4  11  21  30  49  74 105 148 177 217 265 311
#     4   9  17  32  55  78 107 138 175 220 266 331
#     4  10  21  39  58  78 108 154 192 221 271 337
#     4  10  21  35  54  76 106 145 187 235 276 319
#     4  11  20  28  42  68 105 151 181 219 270 314
#     4  11  22  35  54  82 110 135 181 235 274 327
#
# _framework density 18.403072000000002
#
# number of rings (size 3 to 8) (size 9 to 14) (size 15 to 20)
#    0.000    1.800    3.333    2.800    0.000    0.800 
#    1.200    0.000    0.000    0.000    0.000    8.400 
#    0.000    0.000    0.000    0.000    0.000    0.000 
#
# Total GULP energy -1487277.855690 kJ/mol
# GULP energy per Si atom -12393.982131 kJ/mol
# Density = 1.836119 g / cm^3
# Si number density = 18.403072 Si / 1000 Ang^3
#
#
#
# Elastic Constant Matrix: (Units=GPa)
#
#
# Indices 1 2 3 4 5 6 
#
# 1 65.0308 25.0078 32.6403 0.0000 0.0000 0.0000
# 2 25.0078 65.0308 32.6403 0.0000 0.0000 0.0000
# 3 32.6403 32.6403 84.2699 0.0000 0.0000 0.0000
# 4 0.0000 0.0000 0.0000 28.3433 0.0000 0.0000
# 5 0.0000 0.0000 0.0000 0.0000 28.3433 0.0000
# 6 0.0000 0.0000 0.0000 0.0000 0.0000 27.8046
#
#
#
# Elastic Compliance Matrix: (Units=1/GPa)
#
#
# Indices 1 2 3 4 5 6 
#
# 1 0.020214 -0.004771 -0.005982 0.000000 0.000000 0.000000
# 2 -0.004771 0.020214 -0.005982 0.000000 0.000000 0.000000
# 3 -0.005982 -0.005982 0.016500 0.000000 0.000000 0.000000
# 4 0.000000 0.000000 0.000000 0.035282 0.000000 0.000000
# 5 0.000000 0.000000 0.000000 0.000000 0.035282 0.000000
# 6 0.000000 0.000000 0.000000 0.000000 0.000000 0.035965
#
#
# Mechanical properties :
#
#
# Convention : Reuss Voigt Hill
#
# Bulk Modulus (GPa) = 42.62527 43.87870 43.25199
# Shear Modulus (GPa) = 24.42041 25.16779 24.79410
#
# Velocity S-wave (km/s) = 3.64672 3.70210 3.67451
# Velocity P-wave (km/s) = 6.39873 6.49376 6.44642
#
# Compressibility (1/GPa) = 0.02346026
#
# Stress axis : x y z
#
# Youngs Moduli (GPa) = 49.46968 49.46968 60.60475
#
# Poissons Ratio (x) = 0.23603 0.36251
# Poissons Ratio (y) = 0.23603 0.36251
# Poissons Ratio (z) = 0.29591 0.29591
#
# Static dielectric constant tensor:
#      x y z
#    x 3.251570 0.000000 0.000000 
#    y 0.000000 3.251570 0.000000 
#    z 0.000000 0.000000 3.397050 
# 
# 
# High freq. dielectric constant tensor:
#      x y z
#    x 1.702300 0.000000 0.000000 
#    y 0.000000 1.702300 0.000000 
#    z 0.000000 0.000000 1.708560 
# 
# From -- ./inp_files/7438.got.cif
#   From: 2010.03.12/outbox.cif.g09.slc.cpg/sg128_4_cif.got.tgz:7438.got - 2010.04.06 17:11:05.
