data_PCOD8314920
_publ_section_title
;
Structure prediction by ZEFSAII (Michael W. Deem and Ramdas Pophale) SiO2 
 PCOD8314920
Probable space group: P 4/N M M
;
_chemical_formula_sum "Si O2"
_cell_formula_units_Z 96
_cell_length_a 17.530124
_cell_length_b 17.530124
_cell_length_c 18.754128
_cell_angle_alpha 90.000000
_cell_angle_beta 90.000000
_cell_angle_gamma 90.000000
_cell_volume 5763.241946
_symmetry_space_group_name_H-M "P 4/N M M"
_symmetry_group_IT_number 129
_symmetry_cell_setting 'tetragonal'
loop_
_space_group_symop_operation_xyz
x,y,z
1/2-y,x,z
1/2-x,1/2-y,z
y,1/2-x,z
1/2+x,-y,-z
-x,1/2+y,-z
1/2+y,1/2+x,-z
-y,-x,-z
-x,-y,-z
1/2+y,-x,-z
1/2+x,1/2+y,-z
-y,1/2+x,-z
1/2-x,y,z
x,1/2-y,z
1/2-y,1/2-x,z
y,x,z
loop_
_atom_site_type_symbol
_atom_site_label
_atom_site_fract_x
_atom_site_fract_y
_atom_site_fract_z
Si Si1 0.439576 0.936611 0.183644
Si Si2 0.165123 0.965428 0.573017
Si Si3 0.162771 0.836952 0.916071
Si Si4 0.112906 0.511066 0.422671
Si Si5 0.542869 0.663697 0.280167
Si Si6 0.457277 0.164636 0.276542
O O1 0.397850 0.894304 0.118898
O O2 0.474523 0.874374 0.236486
O O3 0.505004 0.994997 0.155033
O O4 0.376780 0.981078 0.228327
O O5 0.250000 0.928473 0.575066
O O6 0.102167 0.899472 0.582554
O O7 0.153043 0.008888 0.497639
O O8 0.157246 0.026757 0.635823
O O9 0.250000 0.854518 0.893242
O O10 0.141978 0.750000 0.893531
O O11 0.153434 0.846567 0.000000
O O12 0.166337 0.484507 0.358530
O O13 0.030638 0.469363 0.417549
O O14 0.551162 0.750000 0.254050
O O15 0.622153 0.622153 0.263350
O O16 0.447455 0.250000 0.248501
O O17 0.375717 0.124284 0.270010
#
# Coordination Sequence:
#
# PCOD8314920 Si02
#       6
#    16  16  16  16  16  16
#     4  10  19  32  50  73  99 127 161 195 228 275
#     4  10  18  28  46  67  89 119 159 205 246 283
#     4   9  18  33  53  76 101 128 156 188 231 280
#     4  10  18  31  49  65  88 123 165 203 241 291
#     4  10  19  31  47  69  96 126 163 202 240 283
#     4  10  20  33  50  71  95 123 158 199 242 288
#
# _framework density 16.657291000000001
#
# number of rings (size 3 to 8) (size 9 to 14) (size 15 to 20)
#    0.000    2.167    1.667    4.000    0.000    0.667 
#    0.000    0.000    0.000    9.500    0.000    2.333 
#    0.000    0.000    0.000   31.000    0.000    0.000 
#
# Total GULP energy -1190203.410630 kJ/mol
# GULP energy per Si atom -12397.952194 kJ/mol
# Density = 1.661938 g / cm^3
# Si number density = 16.657291 Si / 1000 Ang^3
#
#
#
# Elastic Constant Matrix: (Units=GPa)
#
#
# Indices 1 2 3 4 5 6 
#
# 1 120.2565 60.4595 39.7868 0.0000 0.0000 0.0000
# 2 60.4595 120.2564 39.7868 0.0000 0.0000 0.0000
# 3 39.7868 39.7868 65.0492 0.0000 0.0000 0.0000
# 4 0.0000 0.0000 0.0000 21.6802 0.0000 0.0000
# 5 0.0000 0.0000 0.0000 0.0000 21.6802 0.0000
# 6 0.0000 0.0000 0.0000 0.0000 0.0000 19.8978
#
#
#
# Elastic Compliance Matrix: (Units=1/GPa)
#
#
# Indices 1 2 3 4 5 6 
#
# 1 0.012148 -0.004575 -0.004632 0.000000 0.000000 0.000000
# 2 -0.004575 0.012148 -0.004632 0.000000 0.000000 0.000000
# 3 -0.004632 -0.004632 0.021039 0.000000 0.000000 0.000000
# 4 0.000000 0.000000 0.000000 0.046125 0.000000 0.000000
# 5 0.000000 0.000000 0.000000 0.000000 0.046125 0.000000
# 6 0.000000 0.000000 0.000000 0.000000 0.000000 0.050257
#
#
# Mechanical properties :
#
#
# Convention : Reuss Voigt Hill
#
# Bulk Modulus (GPa) = 56.63356 65.06983 60.85170
# Shear Modulus (GPa) = 22.58289 23.68692 23.13491
#
# Velocity S-wave (km/s) = 3.68603 3.77505 3.73081
# Velocity P-wave (km/s) = 7.22418 7.62562 7.42761
#
# Compressibility (1/GPa) = 0.01765737
#
# Stress axis : x y z
#
# Youngs Moduli (GPa) = 82.31668 82.31666 47.53014
#
# Poissons Ratio (x) = 0.37660 0.22016
# Poissons Ratio (y) = 0.37660 0.22016
# Poissons Ratio (z) = 0.38130 0.38129
#
# Static dielectric constant tensor:
#      x y z
#    x 3.089510 0.000000 0.000000 
#    y 0.000000 3.089510 0.000000 
#    z 0.000000 0.000000 3.022320 
# 
# 
# High freq. dielectric constant tensor:
#      x y z
#    x 1.635770 0.000000 0.000000 
#    y 0.000000 1.635770 0.000000 
#    z 0.000000 0.000000 1.632380 
# 
# From -- ./inp_files/5702.got.cif
#   From: 2010.03.12/outbox.cif.g09.slc.cpg/sg129_3_cif.got.tgz:5702.got - 2010.04.06 17:19:44.
