data_PCOD8314310
_publ_section_title
;
Structure prediction by ZEFSAII (Michael W. Deem and Ramdas Pophale) SiO2 
 PCOD8314310
Probable space group: P 4/M B M
;
_chemical_formula_sum "Si O2"
_cell_formula_units_Z 72
_cell_length_a 21.021603
_cell_length_b 21.021603
_cell_length_c 7.734671
_cell_angle_alpha 90.000000
_cell_angle_beta 90.000000
_cell_angle_gamma 90.000000
_cell_volume 3418.011389
_symmetry_space_group_name_H-M "P 4/M B M"
_symmetry_group_IT_number 127
_symmetry_cell_setting 'tetragonal'
loop_
_space_group_symop_operation_xyz
x,y,z
-y,x,z
-x,-y,z
y,-x,z
1/2+x,1/2-y,-z
1/2-x,1/2+y,-z
1/2+y,1/2+x,-z
1/2-y,1/2-x,-z
-x,-y,-z
y,-x,-z
x,y,-z
-y,x,-z
1/2-x,1/2+y,z
1/2+x,1/2-y,z
1/2-y,1/2-x,z
1/2+y,1/2+x,z
loop_
_atom_site_type_symbol
_atom_site_label
_atom_site_fract_x
_atom_site_fract_y
_atom_site_fract_z
Si Si1 0.458308 0.403782 0.500000
Si Si2 0.846823 0.754146 0.797648
Si Si3 0.417739 0.180946 0.196251
Si Si4 0.055491 0.343452 0.302988
Si Si5 0.177380 0.101012 0.793632
O O1 0.532710 0.417030 0.500000
O O2 0.444249 0.366583 0.321609
O O3 0.784028 0.715973 0.734952
O O4 0.909752 0.724844 0.710113
O O5 0.840298 0.827005 0.744498
O O6 0.855845 0.746746 0.000000
O O7 0.369543 0.130458 0.287518
O O8 0.489611 0.155538 0.201503
O O9 0.411500 0.251150 0.275855
O O10 0.396198 0.187478 0.000000
O O11 0.039189 0.358066 0.500000
O O12 0.102044 0.397957 0.225514
O O13 0.168688 0.086795 0.000000
#
# Coordination Sequence:
#
# PCOD8314310 Si02
#       5
#     8  16  16  16  16
#     4  11  28  48  65  92 128 165 204 251 311 379
#     4   9  18  35  59  87 121 159 203 257 312 365
#     4  10  22  40  61  88 123 161 205 257 313 372
#     4  10  22  37  56  87 125 165 209 255 304 366
#     4  10  23  41  67  96 124 160 206 259 314 372
#
# _framework density 21.064881
#
# number of rings (size 3 to 8) (size 9 to 14) (size 15 to 20)
#    0.000    2.111    0.000    1.333    6.222    5.778 
#    0.000    4.444    0.000    0.000    0.000    0.000 
#    0.000    0.000    0.000    0.000    0.000    0.000 
#
# Total GULP energy -892685.595142 kJ/mol
# GULP energy per Si atom -12398.411044 kJ/mol
# Density = 2.101694 g / cm^3
# Si number density = 21.064881 Si / 1000 Ang^3
#
#
#
# Elastic Constant Matrix: (Units=GPa)
#
#
# Indices 1 2 3 4 5 6 
#
# 1 143.5343 72.5157 31.5594 0.0000 0.0000 0.0000
# 2 72.5157 143.5343 31.5594 0.0000 0.0000 0.0000
# 3 31.5594 31.5594 57.7748 0.0000 0.0000 0.0000
# 4 0.0000 0.0000 0.0000 24.1613 0.0000 0.0000
# 5 0.0000 0.0000 0.0000 0.0000 24.1613 0.0000
# 6 0.0000 0.0000 0.0000 0.0000 0.0000 24.2841
#
#
#
# Elastic Compliance Matrix: (Units=1/GPa)
#
#
# Indices 1 2 3 4 5 6 
#
# 1 0.009794 -0.004287 -0.003008 0.000000 0.000000 0.000000
# 2 -0.004287 0.009794 -0.003008 0.000000 0.000000 0.000000
# 3 -0.003008 -0.003008 0.020595 0.000000 0.000000 0.000000
# 4 0.000000 0.000000 0.000000 0.041389 0.000000 0.000000
# 5 0.000000 0.000000 0.000000 0.000000 0.041389 0.000000
# 6 0.000000 0.000000 0.000000 0.000000 0.000000 0.041179
#
#
# Mechanical properties :
#
#
# Convention : Reuss Voigt Hill
#
# Bulk Modulus (GPa) = 51.08178 68.45693 59.76936
# Shear Modulus (GPa) = 26.14072 28.46860 27.30466
#
# Velocity S-wave (km/s) = 3.52655 3.68023 3.60421
# Velocity P-wave (km/s) = 6.39410 7.11530 6.76431
#
# Compressibility (1/GPa) = 0.01957645
#
# Stress axis : x y z
#
# Youngs Moduli (GPa) = 102.10183 102.10183 48.55476
#
# Poissons Ratio (x) = 0.43768 0.14607
# Poissons Ratio (y) = 0.43768 0.14607
# Poissons Ratio (z) = 0.30717 0.30717
#
# Static dielectric constant tensor:
#      x y z
#    x 3.873520 0.000000 0.000000 
#    y 0.000000 3.873520 0.000000 
#    z 0.000000 0.000000 3.565470 
# 
# 
# High freq. dielectric constant tensor:
#      x y z
#    x 1.828170 0.000000 0.000000 
#    y 0.000000 1.828170 0.000000 
#    z 0.000000 0.000000 1.815840 
# 
# From -- ./inp_files/1594.got.cif
#   From: 2010.03.12/outbox.cif.g09.slc.cpg/sg127_1_cif.got.tgz:1594.got - 2010.04.06 17:03:15.
