data_PCOD8314044
_publ_section_title
;
Structure prediction by ZEFSAII (Michael W. Deem and Ramdas Pophale) SiO2 
 PCOD8314044
Probable space group: P 4/M B M
;
_chemical_formula_sum "Si O2"
_cell_formula_units_Z 96
_cell_length_a 22.762334
_cell_length_b 22.762334
_cell_length_c 12.188796
_cell_angle_alpha 90.000000
_cell_angle_beta 90.000000
_cell_angle_gamma 90.000000
_cell_volume 6315.305900
_symmetry_space_group_name_H-M "P 4/M B M"
_symmetry_group_IT_number 127
_symmetry_cell_setting 'tetragonal'
loop_
_space_group_symop_operation_xyz
x,y,z
-y,x,z
-x,-y,z
y,-x,z
1/2+x,1/2-y,-z
1/2-x,1/2+y,-z
1/2+y,1/2+x,-z
1/2-y,1/2-x,-z
-x,-y,-z
y,-x,-z
x,y,-z
-y,x,-z
1/2-x,1/2+y,z
1/2+x,1/2-y,z
1/2-y,1/2-x,z
1/2+y,1/2+x,z
loop_
_atom_site_type_symbol
_atom_site_label
_atom_site_fract_x
_atom_site_fract_y
_atom_site_fract_z
Si Si1 0.641974 0.337664 0.869685
Si Si2 0.562392 0.424309 0.738035
Si Si3 0.453917 0.046084 0.869081
Si Si4 0.887147 0.707411 0.130708
Si Si5 0.271629 0.133949 0.869460
Si Si6 0.985349 0.326615 0.130574
Si Si7 0.938648 0.925745 0.500000
O O1 0.594573 0.384105 0.826516
O O2 0.628505 0.272242 0.827325
O O3 0.706927 0.351853 0.825067
O O4 0.639116 0.341289 0.000000
O O5 0.581325 0.492175 0.753815
O O6 0.582913 0.399623 0.617026
O O7 0.472150 0.109037 0.822749
O O8 0.500000 0.000000 0.821973
O O9 0.453194 0.046807 0.000000
O O10 0.839958 0.660043 0.176366
O O11 0.952012 0.693860 0.178006
O O12 0.886853 0.704821 0.000000
O O13 0.319160 0.180841 0.822642
O O14 0.285411 0.067872 0.828656
O O15 0.273671 0.137185 0.000000
O O16 0.987969 0.327200 0.000000
O O17 0.007679 0.919315 0.500000
#
# Coordination Sequence:
#
# PCOD8314044 Si02
#       7
#    16  16   8  16  16  16   8
#     4  10  20  28  40  59  86 119 145 167 199 246
#     4   9  18  31  46  64  84 108 139 175 212 247
#     4   9  14  20  32  52  70  88 124 177 229 254
#     4   9  17  28  38  51  75 111 149 176 200 241
#     4   9  16  27  39  52  74 108 148 178 200 237
#     4   9  15  23  36  51  69  97 135 180 216 241
#     4   7  12  28  50  64  77 100 134 176 215 248
#
# _framework density 15.201164
#
# number of rings (size 3 to 8) (size 9 to 14) (size 15 to 20)
#    0.000    3.000    0.833    2.000    2.333    4.667 
#    0.000    0.833    0.000    0.000    0.000    2.333 
#    0.000    0.000    0.000    0.000    0.000    0.000 
#
# Total GULP energy -1189458.340413 kJ/mol
# GULP energy per Si atom -12390.191046 kJ/mol
# Density = 1.516657 g / cm^3
# Si number density = 15.201164 Si / 1000 Ang^3
#
#
#
# Elastic Constant Matrix: (Units=GPa)
#
#
# Indices 1 2 3 4 5 6 
#
# 1 132.0442 78.1341 17.2016 0.0000 0.0000 0.0000
# 2 78.1341 132.0441 17.2016 0.0000 0.0000 0.0000
# 3 17.2016 17.2016 18.7648 0.0000 0.0000 0.0000
# 4 0.0000 0.0000 0.0000 5.0206 0.0000 0.0000
# 5 0.0000 0.0000 0.0000 0.0000 5.0206 0.0000
# 6 0.0000 0.0000 0.0000 0.0000 0.0000 32.7207
#
#
#
# Elastic Compliance Matrix: (Units=1/GPa)
#
#
# Indices 1 2 3 4 5 6 
#
# 1 0.012074 -0.006476 -0.005131 0.000000 0.000000 0.000000
# 2 -0.006476 0.012074 -0.005131 0.000000 0.000000 0.000000
# 3 -0.005131 -0.005131 0.062699 0.000000 0.000000 0.000000
# 4 0.000000 0.000000 0.000000 0.199178 0.000000 0.000000
# 5 0.000000 0.000000 0.000000 0.000000 0.199178 0.000000
# 6 0.000000 0.000000 0.000000 0.000000 0.000000 0.030562
#
#
# Mechanical properties :
#
#
# Convention : Reuss Voigt Hill
#
# Bulk Modulus (GPa) = 18.73753 56.43640 37.58696
# Shear Modulus (GPa) = 8.81787 19.90680 14.36233
#
# Velocity S-wave (km/s) = 2.41109 3.62271 3.07712
# Velocity P-wave (km/s) = 4.48378 7.39633 6.11596
#
# Compressibility (1/GPa) = 0.05336883
#
# Stress axis : x y z
#
# Youngs Moduli (GPa) = 82.82522 82.82524 15.94920
#
# Poissons Ratio (x) = 0.53636 0.08184
# Poissons Ratio (y) = 0.53636 0.08184
# Poissons Ratio (z) = 0.42502 0.42501
#
# Static dielectric constant tensor:
#      x y z
#    x 3.053070 0.000000 0.000000 
#    y 0.000000 3.053070 0.000000 
#    z 0.000000 0.000000 2.423550 
# 
# 
# High freq. dielectric constant tensor:
#      x y z
#    x 1.591450 0.000000 0.000000 
#    y 0.000000 1.591450 0.000000 
#    z 0.000000 0.000000 1.499010 
# 
# From -- ./inp_files/3604.got.cif
#   From: 2010.03.12/outbox.cif.g09.slc.cpg/sg127_2_cif.got.tgz:3604.got - 2010.04.06 17:03:15.
