data_PCOD8314313
_publ_section_title
;
Structure prediction by ZEFSAII (Michael W. Deem and Ramdas Pophale) SiO2 
 PCOD8314313
Probable space group: P 4/M B M
;
_chemical_formula_sum "Si O2"
_cell_formula_units_Z 112
_cell_length_a 13.907984
_cell_length_b 13.907984
_cell_length_c 33.845094
_cell_angle_alpha 90.000000
_cell_angle_beta 90.000000
_cell_angle_gamma 90.000000
_cell_volume 6546.724864
_symmetry_space_group_name_H-M "P 4/M B M"
_symmetry_group_IT_number 127
_symmetry_cell_setting 'tetragonal'
loop_
_space_group_symop_operation_xyz
x,y,z
-y,x,z
-x,-y,z
y,-x,z
1/2+x,1/2-y,-z
1/2-x,1/2+y,-z
1/2+y,1/2+x,-z
1/2-y,1/2-x,-z
-x,-y,-z
y,-x,-z
x,y,-z
-y,x,-z
1/2-x,1/2+y,z
1/2+x,1/2-y,z
1/2-y,1/2-x,z
1/2+y,1/2+x,z
loop_
_atom_site_type_symbol
_atom_site_label
_atom_site_fract_x
_atom_site_fract_y
_atom_site_fract_z
Si Si1 0.102216 0.761139 0.661904
Si Si2 0.058552 0.148733 0.872966
Si Si3 0.900321 0.757250 0.622489
Si Si4 0.258396 0.399764 0.793324
Si Si5 0.739627 0.398598 0.246352
Si Si6 0.058281 0.147874 0.041689
Si Si7 0.941464 0.852961 0.544206
O O1 0.170717 0.670717 0.654668
O O2 0.147331 0.856212 0.642317
O O3 0.086383 0.782513 0.707784
O O4 0.002215 0.735228 0.641747
O O5 0.088236 0.225408 0.840070
O O6 0.078677 0.199486 0.916105
O O7 0.946769 0.122413 0.868311
O O8 0.834380 0.665621 0.630981
O O9 0.909899 0.772555 0.575458
O O10 0.167046 0.332955 0.785593
O O11 0.235168 0.500666 0.773358
O O12 0.353630 0.355068 0.773603
O O13 0.830617 0.330617 0.239189
O O14 0.947084 0.121772 0.041398
O O15 0.080967 0.205272 0.000000
O O16 0.925053 0.812185 0.500000
O O17 0.052711 0.877500 0.550709
#
# Coordination Sequence:
#
# PCOD8314313 Si02
#       7
#    16  16  16  16  16  16  16
#     4  10  22  38  55  79 106 134 172 213 254 306
#     4   9  15  26  45  68  95 126 162 205 256 305
#     4  11  21  35  57  81 107 140 174 211 257 302
#     4  11  21  34  52  73 100 134 171 213 257 303
#     4  10  22  38  54  75 103 133 169 212 256 304
#     4   7  10  17  33  60  91 121 153 192 243 303
#     4   9  17  32  55  81 108 137 171 212 256 301
#
# _framework density 17.107790000000001
#
# number of rings (size 3 to 8) (size 9 to 14) (size 15 to 20)
#    0.000    2.429    2.857    2.571    0.000    3.143 
#    0.000    2.857    0.000    0.857    0.000    1.000 
#    0.000    0.571    0.000    1.286    0.000    0.000 
#
# Total GULP energy -1388119.180874 kJ/mol
# GULP energy per Si atom -12393.921258 kJ/mol
# Density = 1.706885 g / cm^3
# Si number density = 17.107790 Si / 1000 Ang^3
#
#
#
# Elastic Constant Matrix: (Units=GPa)
#
#
# Indices 1 2 3 4 5 6 
#
# 1 61.4580 13.5773 39.8113 0.0000 0.0000 0.0000
# 2 13.5773 61.4580 39.8113 0.0000 0.0000 0.0000
# 3 39.8113 39.8113 157.0366 0.0000 0.0000 0.0000
# 4 0.0000 0.0000 0.0000 18.8479 0.0000 0.0000
# 5 0.0000 0.0000 0.0000 0.0000 18.8479 0.0000
# 6 0.0000 0.0000 0.0000 0.0000 0.0000 10.6671
#
#
#
# Elastic Compliance Matrix: (Units=1/GPa)
#
#
# Indices 1 2 3 4 5 6 
#
# 1 0.019558 -0.001327 -0.004622 0.000000 0.000000 0.000000
# 2 -0.001327 0.019558 -0.004622 0.000000 0.000000 0.000000
# 3 -0.004622 -0.004622 0.008711 0.000000 0.000000 0.000000
# 4 0.000000 0.000000 0.000000 0.053056 0.000000 0.000000
# 5 0.000000 0.000000 0.000000 0.000000 0.053056 0.000000
# 6 0.000000 0.000000 0.000000 0.000000 0.000000 0.093746
#
#
# Mechanical properties :
#
#
# Convention : Reuss Voigt Hill
#
# Bulk Modulus (GPa) = 37.47189 51.81695 44.64442
# Shear Modulus (GPa) = 18.00347 22.12275 20.06311
#
# Velocity S-wave (km/s) = 3.24752 3.59993 3.42825
# Velocity P-wave (km/s) = 6.00107 6.90171 6.46708
#
# Compressibility (1/GPa) = 0.02668667
#
# Stress axis : x y z
#
# Youngs Moduli (GPa) = 51.12885 51.12885 114.79139
#
# Poissons Ratio (x) = 0.06784 0.53057
# Poissons Ratio (y) = 0.06784 0.53057
# Poissons Ratio (z) = 0.23632 0.23632
#
# Static dielectric constant tensor:
#      x y z
#    x 2.887410 0.000000 0.000000 
#    y 0.000000 2.887410 0.000000 
#    z 0.000000 0.000000 3.679600 
# 
# 
# High freq. dielectric constant tensor:
#      x y z
#    x 1.630620 0.000000 0.000000 
#    y 0.000000 1.630620 0.000000 
#    z 0.000000 0.000000 1.689280 
# 
# From -- ./inp_files/6649.got.cif
#   From: 2010.03.12/outbox.cif.g09.slc.cpg/sg127_4_cif.got.tgz:6649.got - 2010.04.06 17:03:15.
