data_PCOD8314330
_publ_section_title
;
Structure prediction by ZEFSAII (Michael W. Deem and Ramdas Pophale) SiO2 
 PCOD8314330
Probable space group: P 4/M B M
;
_chemical_formula_sum "Si O2"
_cell_formula_units_Z 88
_cell_length_a 13.728110
_cell_length_b 13.728110
_cell_length_c 25.523996
_cell_angle_alpha 90.000000
_cell_angle_beta 90.000000
_cell_angle_gamma 90.000000
_cell_volume 4810.277917
_symmetry_space_group_name_H-M "P 4/M B M"
_symmetry_group_IT_number 127
_symmetry_cell_setting 'tetragonal'
loop_
_space_group_symop_operation_xyz
x,y,z
-y,x,z
-x,-y,z
y,-x,z
1/2+x,1/2-y,-z
1/2-x,1/2+y,-z
1/2+y,1/2+x,-z
1/2-y,1/2-x,-z
-x,-y,-z
y,-x,-z
x,y,-z
-y,x,-z
1/2-x,1/2+y,z
1/2+x,1/2-y,z
1/2-y,1/2-x,z
1/2+y,1/2+x,z
loop_
_atom_site_type_symbol
_atom_site_label
_atom_site_fract_x
_atom_site_fract_y
_atom_site_fract_z
Si Si1 0.761384 0.899462 0.389733
Si Si2 0.098427 0.239285 0.666017
Si Si3 0.549010 0.346253 0.775108
Si Si4 0.763093 0.100620 0.115286
Si Si5 0.934495 0.147764 0.500000
Si Si6 0.242224 0.098539 0.060797
O O1 0.667999 0.832002 0.382252
O O2 0.853146 0.858362 0.357204
O O3 0.788684 0.905306 0.450307
O O4 0.733668 0.004673 0.367941
O O5 0.170414 0.329587 0.661530
O O6 0.069426 0.222159 0.725850
O O7 0.621136 0.437470 0.774449
O O8 0.567452 0.280551 0.825598
O O9 0.673602 0.173602 0.112423
O O10 0.860655 0.149848 0.092661
O O11 0.734299 0.009629 0.079521
O O12 0.048884 0.126863 0.500000
O O13 0.337385 0.162616 0.072204
O O14 0.214411 0.099232 0.000000
#
# Coordination Sequence:
#
# PCOD8314330 Si02
#       6
#    16  16  16  16   8  16
#     4  11  23  40  62  89 125 161 200 250 302 354
#     4  11  23  40  63  89 120 160 202 248 301 355
#     4  11  21  37  63  90 118 154 198 247 301 355
#     4  11  22  39  60  85 122 158 193 245 302 353
#     4  11  21  36  64  93 122 162 206 251 298 350
#     4  10  22  39  60  87 117 154 201 245 293 357
#
# _framework density 18.294162
#
# number of rings (size 3 to 8) (size 9 to 14) (size 15 to 20)
#    0.000    1.182    5.455    1.364    0.000    2.545 
#    0.000    3.182    0.000    3.273    0.000    0.000 
#    0.000    0.000    0.000    0.000    0.000    0.000 
#
# Total GULP energy -1091804.633081 kJ/mol
# GULP energy per Si atom -12406.870830 kJ/mol
# Density = 1.825252 g / cm^3
# Si number density = 18.294162 Si / 1000 Ang^3
#
#
#
# Elastic Constant Matrix: (Units=GPa)
#
#
# Indices 1 2 3 4 5 6 
#
# 1 85.0374 24.9800 17.7576 0.0000 0.0000 0.0000
# 2 24.9800 85.0374 17.7576 0.0000 0.0000 0.0000
# 3 17.7576 17.7576 81.5689 0.0000 0.0000 0.0000
# 4 0.0000 0.0000 0.0000 27.3727 0.0000 0.0000
# 5 0.0000 0.0000 0.0000 0.0000 27.3727 0.0000
# 6 0.0000 0.0000 0.0000 0.0000 0.0000 16.1146
#
#
#
# Elastic Compliance Matrix: (Units=1/GPa)
#
#
# Indices 1 2 3 4 5 6 
#
# 1 0.013214 -0.003437 -0.002128 0.000000 0.000000 0.000000
# 2 -0.003437 0.013214 -0.002128 0.000000 0.000000 0.000000
# 3 -0.002128 -0.002128 0.013186 0.000000 0.000000 0.000000
# 4 0.000000 0.000000 0.000000 0.036533 0.000000 0.000000
# 5 0.000000 0.000000 0.000000 0.000000 0.036533 0.000000
# 6 0.000000 0.000000 0.000000 0.000000 0.000000 0.062055
#
#
# Mechanical properties :
#
#
# Convention : Reuss Voigt Hill
#
# Bulk Modulus (GPa) = 41.27813 41.40380 41.34096
# Shear Modulus (GPa) = 25.22738 26.91524 26.07131
#
# Velocity S-wave (km/s) = 3.71750 3.83985 3.77917
# Velocity P-wave (km/s) = 6.40616 6.50697 6.45676
#
# Compressibility (1/GPa) = 0.02422590
#
# Stress axis : x y z
#
# Youngs Moduli (GPa) = 75.67943 75.67943 75.83651
#
# Poissons Ratio (x) = 0.26012 0.16141
# Poissons Ratio (y) = 0.26012 0.16141
# Poissons Ratio (z) = 0.16107 0.16107
#
# Static dielectric constant tensor:
#      x y z
#    x 3.310400 0.000000 0.000000 
#    y 0.000000 3.310400 0.000000 
#    z 0.000000 0.000000 3.503730 
# 
# 
# High freq. dielectric constant tensor:
#      x y z
#    x 1.708650 0.000000 0.000000 
#    y 0.000000 1.708650 0.000000 
#    z 0.000000 0.000000 1.729190 
# 
# From -- ./inp_files/5708.got.cif
#   From: 2010.03.12/outbox.cif.g09.slc.cpg/sg127_3_cif.got.tgz:5708.got - 2010.04.06 17:03:15.
