data_PCOD8314834
_publ_section_title
;
Structure prediction by ZEFSAII (Michael W. Deem and Ramdas Pophale) SiO2 
 PCOD8314834
Probable space group: P 4/M N C
;
_chemical_formula_sum "Si O2"
_cell_formula_units_Z 88
_cell_length_a 12.157884
_cell_length_b 12.157884
_cell_length_c 27.415370
_cell_angle_alpha 90.000000
_cell_angle_beta 90.000000
_cell_angle_gamma 90.000000
_cell_volume 4052.379431
_symmetry_space_group_name_H-M "P 4/M N C"
_symmetry_group_IT_number 128
_symmetry_cell_setting 'tetragonal'
loop_
_space_group_symop_operation_xyz
x,y,z
-y,x,z
-x,-y,z
y,-x,z
1/2+x,1/2-y,1/2-z
1/2-x,1/2+y,1/2-z
1/2+y,1/2+x,1/2-z
1/2-y,1/2-x,1/2-z
-x,-y,-z
y,-x,-z
x,y,-z
-y,x,-z
1/2-x,1/2+y,1/2+z
1/2+x,1/2-y,1/2+z
1/2-y,1/2-x,1/2+z
1/2+y,1/2+x,1/2+z
loop_
_atom_site_type_symbol
_atom_site_label
_atom_site_fract_x
_atom_site_fract_y
_atom_site_fract_z
Si Si1 0.681648 0.505139 0.056010
Si Si2 0.179086 0.015211 0.261692
Si Si3 0.521566 0.822361 0.149070
Si Si4 0.060477 0.170616 0.897100
Si Si5 0.328681 0.439337 0.500000
Si Si6 0.161003 0.488500 0.676382
O O1 0.605500 0.611454 0.064982
O O2 0.784464 0.507643 0.093855
O O3 0.725918 0.506263 0.000000
O O4 0.212979 0.029397 0.318190
O O5 0.116846 0.901289 0.250458
O O6 0.289323 0.018874 0.229082
O O7 0.632627 0.896312 0.148628
O O8 0.438940 0.903523 0.177865
O O9 0.083239 0.234429 0.949051
O O10 0.084269 0.251429 0.853355
O O11 0.137384 0.066369 0.892630
O O12 0.435053 0.363758 0.500000
#
# Coordination Sequence:
#
# PCOD8314834 Si02
#       6
#    16  16  16  16   8  16
#     4   9  19  39  66  91 115 148 199 259 304 344
#     4  11  24  41  64  91 116 148 195 248 296 349
#     4  11  24  41  58  85 121 161 196 236 297 357
#     4   9  17  32  54  79 110 148 192 238 283 334
#     4   7  12  26  48  73 102 138 180 229 276 321
#     4  11  24  39  55  85 123 160 191 235 288 350
#
# _framework density 21.715637000000001
#
# number of rings (size 3 to 8) (size 9 to 14) (size 15 to 20)
#    0.000    2.091    0.000    4.909    0.000   11.636 
#    3.273    0.909    0.000    0.000    0.000    0.000 
#    0.000    0.000    0.000    0.000    0.000    0.000 
#
# Total GULP energy -1090278.079582 kJ/mol
# GULP energy per Si atom -12389.523632 kJ/mol
# Density = 2.166621 g / cm^3
# Si number density = 21.715637 Si / 1000 Ang^3
#
#
#
# Elastic Constant Matrix: (Units=GPa)
#
#
# Indices 1 2 3 4 5 6 
#
# 1 68.7521 18.3741 23.5640 0.0000 0.0000 0.0000
# 2 18.3741 68.7521 23.5640 0.0000 0.0000 0.0000
# 3 23.5640 23.5640 114.4814 0.0000 0.0000 0.0000
# 4 0.0000 0.0000 0.0000 21.6787 0.0000 0.0000
# 5 0.0000 0.0000 0.0000 0.0000 21.6787 0.0000
# 6 0.0000 0.0000 0.0000 0.0000 0.0000 15.7320
#
#
#
# Elastic Compliance Matrix: (Units=1/GPa)
#
#
# Indices 1 2 3 4 5 6 
#
# 1 0.016383 -0.003467 -0.002658 0.000000 0.000000 0.000000
# 2 -0.003467 0.016383 -0.002658 0.000000 0.000000 0.000000
# 3 -0.002658 -0.002658 0.009829 0.000000 0.000000 0.000000
# 4 0.000000 0.000000 0.000000 0.046128 0.000000 0.000000
# 5 0.000000 0.000000 0.000000 0.000000 0.046128 0.000000
# 6 0.000000 0.000000 0.000000 0.000000 0.000000 0.063565
#
#
# Mechanical properties :
#
#
# Convention : Reuss Voigt Hill
#
# Bulk Modulus (GPa) = 39.95710 42.55442 41.25576
# Shear Modulus (GPa) = 22.28893 24.25011 23.26952
#
# Velocity S-wave (km/s) = 3.20722 3.34535 3.27701
# Velocity P-wave (km/s) = 5.67055 5.87882 5.77563
#
# Compressibility (1/GPa) = 0.02502684
#
# Stress axis : x y z
#
# Youngs Moduli (GPa) = 61.03974 61.03974 101.73515
#
# Poissons Ratio (x) = 0.21163 0.27046
# Poissons Ratio (y) = 0.21163 0.27046
# Poissons Ratio (z) = 0.16227 0.16227
#
# Static dielectric constant tensor:
#      x y z
#    x 3.779490 0.000000 0.000000 
#    y 0.000000 3.779490 0.000000 
#    z 0.000000 0.000000 4.151730 
# 
# 
# High freq. dielectric constant tensor:
#      x y z
#    x 1.835230 0.000000 0.000000 
#    y 0.000000 1.835230 0.000000 
#    z 0.000000 0.000000 1.867920 
# 
# From -- ./inp_files/7254.got.cif
#   From: 2010.03.12/outbox.cif.g09.slc.cpg/sg128_4_cif.got.tgz:7254.got - 2010.04.06 17:11:05.
