data_PCOD8314289
_publ_section_title
;
Structure prediction by ZEFSAII (Michael W. Deem and Ramdas Pophale) SiO2 
 PCOD8314289
Probable space group: P 4/M B M
;
_chemical_formula_sum "Si O2"
_cell_formula_units_Z 96
_cell_length_a 23.318564
_cell_length_b 23.318564
_cell_length_c 9.017547
_cell_angle_alpha 90.000000
_cell_angle_beta 90.000000
_cell_angle_gamma 90.000000
_cell_volume 4903.340120
_symmetry_space_group_name_H-M "P 4/M B M"
_symmetry_group_IT_number 127
_symmetry_cell_setting 'tetragonal'
loop_
_space_group_symop_operation_xyz
x,y,z
-y,x,z
-x,-y,z
y,-x,z
1/2+x,1/2-y,-z
1/2-x,1/2+y,-z
1/2+y,1/2+x,-z
1/2-y,1/2-x,-z
-x,-y,-z
y,-x,-z
x,y,-z
-y,x,-z
1/2-x,1/2+y,z
1/2+x,1/2-y,z
1/2-y,1/2-x,z
1/2+y,1/2+x,z
loop_
_atom_site_type_symbol
_atom_site_label
_atom_site_fract_x
_atom_site_fract_y
_atom_site_fract_z
Si Si1 0.979097 0.168887 0.165875
Si Si2 0.269680 0.083160 0.674498
Si Si3 0.312221 0.304287 0.670116
Si Si4 0.899570 0.600430 0.176455
Si Si5 0.806125 0.693876 0.825015
Si Si6 0.470957 0.121612 0.827716
Si Si7 0.101450 0.127994 0.833023
O O1 0.959379 0.220136 0.271089
O O2 0.939827 0.112165 0.165151
O O3 0.039167 0.144993 0.221754
O O4 0.982907 0.194887 0.000000
O O5 0.275432 0.075937 0.500000
O O6 0.252283 0.149728 0.712965
O O7 0.329796 0.065979 0.746142
O O8 0.292749 0.300267 0.500000
O O9 0.257747 0.317871 0.770782
O O10 0.351284 0.358251 0.700973
O O11 0.852800 0.647201 0.235731
O O12 0.882808 0.536422 0.233874
O O13 0.900674 0.599327 0.000000
O O14 0.808338 0.691663 0.000000
O O15 0.439349 0.060652 0.802065
O O16 0.472094 0.137900 0.000000
O O17 0.114555 0.152481 0.000000
#
# Coordination Sequence:
#
# PCOD8314289 Si02
#       7
#    16  16  16   8   8  16  16
#     4   9  18  33  54  80 112 148 191 238 286 342
#     4  10  22  38  57  83 116 154 193 238 290 340
#     4  10  22  39  56  79 115 154 192 236 287 343
#     4   9  21  41  62  90 122 152 187 234 293 348
#     4  11  23  38  61  88 116 149 189 237 286 343
#     4  10  21  39  65  91 116 150 192 238 290 353
#     4   9  18  33  54  80 110 147 188 236 286 337
#
# _framework density 19.578491
#
# number of rings (size 3 to 8) (size 9 to 14) (size 15 to 20)
#    0.000    2.333    0.000    1.500    3.500    4.333 
#    0.000    2.917    0.000    1.000    0.000    4.667 
#    0.000    0.000    0.000    0.000    0.000    0.000 
#
# Total GULP energy -1189433.173013 kJ/mol
# GULP energy per Si atom -12389.928886 kJ/mol
# Density = 1.953393 g / cm^3
# Si number density = 19.578491 Si / 1000 Ang^3
#
#
#
# Elastic Constant Matrix: (Units=GPa)
#
#
# Indices 1 2 3 4 5 6 
#
# 1 124.1911 62.4832 41.4661 0.0000 0.0000 0.0000
# 2 62.4832 124.1912 41.4659 0.0000 0.0000 0.0000
# 3 41.4661 41.4659 59.7802 0.0000 0.0000 0.0000
# 4 0.0000 0.0000 0.0000 9.8838 0.0000 0.0000
# 5 0.0000 0.0000 0.0000 0.0000 9.8839 0.0000
# 6 0.0000 0.0000 0.0000 0.0000 0.0000 27.8505
#
#
#
# Elastic Compliance Matrix: (Units=1/GPa)
#
#
# Indices 1 2 3 4 5 6 
#
# 1 0.011974 -0.004231 -0.005371 0.000000 0.000000 0.000000
# 2 -0.004231 0.011974 -0.005371 0.000000 0.000000 0.000000
# 3 -0.005371 -0.005371 0.024179 0.000000 0.000000 0.000000
# 4 0.000000 0.000000 0.000000 0.101176 0.000000 0.000000
# 5 0.000000 0.000000 0.000000 0.000000 0.101175 0.000000
# 6 0.000000 0.000000 0.000000 0.000000 0.000000 0.035906
#
#
# Mechanical properties :
#
#
# Convention : Reuss Voigt Hill
#
# Bulk Modulus (GPa) = 55.00127 66.55476 60.77801
# Shear Modulus (GPa) = 15.50916 20.37345 17.94131
#
# Velocity S-wave (km/s) = 2.81757 3.22934 3.03046
# Velocity P-wave (km/s) = 6.22404 6.92621 6.58449
#
# Compressibility (1/GPa) = 0.01818140
#
# Stress axis : x y z
#
# Youngs Moduli (GPa) = 83.51289 83.51321 41.35851
#
# Poissons Ratio (x) = 0.35336 0.22213
# Poissons Ratio (y) = 0.35336 0.22213
# Poissons Ratio (z) = 0.44854 0.44853
#
# Static dielectric constant tensor:
#      x y z
#    x 3.752030 0.000000 0.000000 
#    y 0.000000 3.752040 0.000000 
#    z 0.000000 0.000000 3.395570 
# 
# 
# High freq. dielectric constant tensor:
#      x y z
#    x 1.767130 0.000000 0.000000 
#    y 0.000000 1.767130 0.000000 
#    z 0.000000 0.000000 1.746280 
# 
# From -- ./inp_files/2122.got.cif
#   From: 2010.03.12/outbox.cif.g09.slc.cpg/sg127_2_cif.got.tgz:2122.got - 2010.04.06 17:03:15.
