data_PCOD8314520
_publ_section_title
;
Structure prediction by ZEFSAII (Michael W. Deem and Ramdas Pophale) SiO2 
 PCOD8314520
Probable space group: P 4/M N C
;
_chemical_formula_sum "Si O2"
_cell_formula_units_Z 128
_cell_length_a 21.679603
_cell_length_b 21.679603
_cell_length_c 18.001110
_cell_angle_alpha 90.000000
_cell_angle_beta 90.000000
_cell_angle_gamma 90.000000
_cell_volume 8460.615058
_symmetry_space_group_name_H-M "P 4/M N C"
_symmetry_group_IT_number 128
_symmetry_cell_setting 'tetragonal'
loop_
_space_group_symop_operation_xyz
x,y,z
-y,x,z
-x,-y,z
y,-x,z
1/2+x,1/2-y,1/2-z
1/2-x,1/2+y,1/2-z
1/2+y,1/2+x,1/2-z
1/2-y,1/2-x,1/2-z
-x,-y,-z
y,-x,-z
x,y,-z
-y,x,-z
1/2-x,1/2+y,1/2+z
1/2+x,1/2-y,1/2+z
1/2-y,1/2-x,1/2+z
1/2+y,1/2+x,1/2+z
loop_
_atom_site_type_symbol
_atom_site_label
_atom_site_fract_x
_atom_site_fract_y
_atom_site_fract_z
Si Si1 0.341497 0.306305 0.631093
Si Si2 0.343738 0.057227 0.228195
Si Si3 0.141957 0.323147 0.416857
Si Si4 0.675394 0.076481 0.728074
Si Si5 0.715980 0.737295 0.917892
Si Si6 0.253052 0.147763 0.277411
Si Si7 0.546798 0.766762 0.415632
Si Si8 0.251383 0.911248 0.866605
O O1 0.300094 0.251883 0.597855
O O2 0.346874 0.303731 0.720524
O O3 0.408786 0.293125 0.596117
O O4 0.310173 0.372166 0.612801
O O5 0.404360 0.095641 0.250000
O O6 0.284597 0.080523 0.275382
O O7 0.323762 0.062522 0.140740
O O8 0.357760 0.987740 0.252725
O O9 0.115180 0.330739 0.500000
O O10 0.084180 0.315276 0.360566
O O11 0.180085 0.260850 0.408336
O O12 0.186907 0.380823 0.400732
O O13 0.632226 0.132226 0.750000
O O14 0.738205 0.082864 0.777094
O O15 0.660202 0.729088 0.860107
O O16 0.687146 0.739803 0.000000
O O17 0.304168 0.195833 0.250000
O O18 0.553401 0.791354 0.500000
O O19 0.477933 0.741891 0.402348
#
# Coordination Sequence:
#
# PCOD8314520 Si02
#       8
#    16  16  16  16  16  16  16  16
#     4   9  16  26  41  59  78 103 132 159 194 241
#     4   9  18  31  43  57  80 109 138 166 197 235
#     4   9  16  26  41  62  84 102 129 169 205 236
#     4   9  17  29  44  59  77 106 140 169 200 236
#     4   9  15  23  39  61  81 100 124 159 201 241
#     4   8  14  25  39  56  79 102 127 161 198 237
#     4  10  19  29  43  63  84 104 131 168 202 233
#     4   9  17  29  44  60  80 107 135 164 200 240
#
# _framework density 15.128924
#
# number of rings (size 3 to 8) (size 9 to 14) (size 15 to 20)
#    0.000    3.000    0.000    2.250    0.000    4.750 
#    0.000    1.250    0.000    0.375    0.000    6.125 
#    0.000    0.000    0.000    0.000    0.000    0.000 
#
# Total GULP energy -1585958.831018 kJ/mol
# GULP energy per Si atom -12390.303367 kJ/mol
# Density = 1.509449 g / cm^3
# Si number density = 15.128924 Si / 1000 Ang^3
#
#
#
# Elastic Constant Matrix: (Units=GPa)
#
#
# Indices 1 2 3 4 5 6 
#
# 1 43.3311 17.8261 29.7594 0.0000 0.0000 0.0000
# 2 17.8261 43.3315 29.7591 0.0000 0.0000 0.0000
# 3 29.7594 29.7591 131.8002 0.0000 0.0000 0.0000
# 4 0.0000 0.0000 0.0000 16.1877 0.0000 0.0000
# 5 0.0000 0.0000 0.0000 0.0000 16.1878 0.0000
# 6 0.0000 0.0000 0.0000 0.0000 0.0000 13.0031
#
#
#
# Elastic Compliance Matrix: (Units=1/GPa)
#
#
# Indices 1 2 3 4 5 6 
#
# 1 0.030082 -0.009126 -0.004732 0.000000 0.000000 0.000000
# 2 -0.009126 0.030082 -0.004732 0.000000 0.000000 0.000000
# 3 -0.004732 -0.004732 0.009724 0.000000 0.000000 0.000000
# 4 0.000000 0.000000 0.000000 0.061775 0.000000 0.000000
# 5 0.000000 0.000000 0.000000 0.000000 0.061775 0.000000
# 6 0.000000 0.000000 0.000000 0.000000 0.000000 0.076905
#
#
# Mechanical properties :
#
#
# Convention : Reuss Voigt Hill
#
# Bulk Modulus (GPa) = 30.57217 41.46133 36.01675
# Shear Modulus (GPa) = 15.70230 18.48358 17.09294
#
# Velocity S-wave (km/s) = 3.22514 3.49913 3.36492
# Velocity P-wave (km/s) = 5.84126 6.61740 6.24141
#
# Compressibility (1/GPa) = 0.03270949
#
# Stress axis : x y z
#
# Youngs Moduli (GPa) = 33.24230 33.24276 102.83840
#
# Poissons Ratio (x) = 0.30337 0.48661
# Poissons Ratio (y) = 0.30336 0.48659
# Poissons Ratio (z) = 0.15730 0.15729
#
# Static dielectric constant tensor:
#      x y z
#    x 2.748580 0.000000 0.000000 
#    y 0.000000 2.748580 0.000000 
#    z 0.000000 0.000000 3.252610 
# 
# 
# High freq. dielectric constant tensor:
#      x y z
#    x 1.550550 0.000000 0.000000 
#    y 0.000000 1.550550 0.000000 
#    z 0.000000 0.000000 1.591700 
# 
# From -- ./inp_files/5113.got.cif
#   From: 2010.03.12/outbox.cif.g09.slc.cpg/sg128_3_cif.got.tgz:5113.got - 2010.04.06 17:11:05.
