data_PCOD8314702
_publ_section_title
;
Structure prediction by ZEFSAII (Michael W. Deem and Ramdas Pophale) SiO2 
 PCOD8314702
Probable space group: P 4/M N C
;
_chemical_formula_sum "Si O2"
_cell_formula_units_Z 64
_cell_length_a 19.977304
_cell_length_b 19.977304
_cell_length_c 8.606026
_cell_angle_alpha 90.000000
_cell_angle_beta 90.000000
_cell_angle_gamma 90.000000
_cell_volume 3434.601938
_symmetry_space_group_name_H-M "P 4/M N C"
_symmetry_group_IT_number 128
_symmetry_cell_setting 'tetragonal'
loop_
_space_group_symop_operation_xyz
x,y,z
-y,x,z
-x,-y,z
y,-x,z
1/2+x,1/2-y,1/2-z
1/2-x,1/2+y,1/2-z
1/2+y,1/2+x,1/2-z
1/2-y,1/2-x,1/2-z
-x,-y,-z
y,-x,-z
x,y,-z
-y,x,-z
1/2-x,1/2+y,1/2+z
1/2+x,1/2-y,1/2+z
1/2-y,1/2-x,1/2+z
1/2+y,1/2+x,1/2+z
loop_
_atom_site_type_symbol
_atom_site_label
_atom_site_fract_x
_atom_site_fract_y
_atom_site_fract_z
Si Si1 0.176223 0.426286 0.678836
Si Si2 0.318113 0.078133 0.818111
Si Si3 0.825481 0.067994 0.816417
Si Si4 0.326624 0.574026 0.817648
O O1 0.122057 0.377944 0.750000
O O2 0.176224 0.409662 0.500000
O O3 0.155970 0.502958 0.712662
O O4 0.251013 0.412601 0.743496
O O5 0.373011 0.126990 0.750000
O O6 0.249100 0.090528 0.728958
O O7 0.306475 0.091261 0.000000
O O8 0.874927 0.127192 0.775486
O O9 0.848489 0.000511 0.730152
O O10 0.824743 0.053348 0.000000
O O11 0.336655 0.584368 0.000000
#
# Coordination Sequence:
#
# PCOD8314702 Si02
#       4
#    16  16  16  16
#     4   9  20  36  56  80 109 143 182 224 272 325
#     4  10  21  38  57  81 111 147 186 228 277 330
#     4  10  21  39  58  80 112 149 184 225 275 330
#     4  11  22  37  58  85 112 143 184 231 277 329
#
# _framework density 18.633891999999999
#
# number of rings (size 3 to 8) (size 9 to 14) (size 15 to 20)
#    0.000    2.000    0.000    5.250    0.000    8.000 
#    0.000    7.500    0.000    0.000    0.000    0.000 
#    0.000    0.000    0.000    0.000    0.000    0.000 
#
# Total GULP energy -793686.901980 kJ/mol
# GULP energy per Si atom -12401.357843 kJ/mol
# Density = 1.859148 g / cm^3
# Si number density = 18.633892 Si / 1000 Ang^3
#
#
#
# Elastic Constant Matrix: (Units=GPa)
#
#
# Indices 1 2 3 4 5 6 
#
# 1 83.2173 48.3854 17.4331 0.0000 0.0000 0.0000
# 2 48.3854 83.2025 17.4434 0.0000 0.0000 0.0000
# 3 17.4331 17.4434 58.7214 0.0000 0.0000 0.0000
# 4 0.0000 0.0000 0.0000 35.1987 0.0000 0.0000
# 5 0.0000 0.0000 0.0000 0.0000 35.1986 0.0000
# 6 0.0000 0.0000 0.0000 0.0000 0.0000 46.2052
#
#
#
# Elastic Compliance Matrix: (Units=1/GPa)
#
#
# Indices 1 2 3 4 5 6 
#
# 1 0.018479 -0.010234 -0.002446 0.000000 0.000000 0.000000
# 2 -0.010234 0.018484 -0.002453 0.000000 0.000000 0.000000
# 3 -0.002446 -0.002453 0.018484 0.000000 0.000000 0.000000
# 4 0.000000 0.000000 0.000000 0.028410 0.000000 0.000000
# 5 0.000000 0.000000 0.000000 0.000000 0.028410 0.000000
# 6 0.000000 0.000000 0.000000 0.000000 0.000000 0.021643
#
#
# Mechanical properties :
#
#
# Convention : Reuss Voigt Hill
#
# Bulk Modulus (GPa) = 39.70923 43.51833 41.61378
# Shear Modulus (GPa) = 28.97370 32.77912 30.87641
#
# Velocity S-wave (km/s) = 3.94749 4.19873 4.07505
# Velocity P-wave (km/s) = 6.49102 6.84915 6.67249
#
# Compressibility (1/GPa) = 0.02518306
#
# Stress axis : x y z
#
# Youngs Moduli (GPa) = 54.11447 54.09991 54.09974
#
# Poissons Ratio (x) = 0.55364 0.13234
# Poissons Ratio (y) = 0.55379 0.13269
# Poissons Ratio (z) = 0.13237 0.13269
#
# Static dielectric constant tensor:
#      x y z
#    x 3.859940 0.000000 0.000000 
#    y 0.000000 3.859960 0.000000 
#    z 0.000000 0.000000 3.477280 
# 
# 
# High freq. dielectric constant tensor:
#      x y z
#    x 1.727790 0.000000 0.000000 
#    y 0.000000 1.727790 0.000000 
#    z 0.000000 0.000000 1.733190 
# 
# From -- ./inp_files/1016.got.cif
#   From: 2010.03.12/outbox.cif.g09.slc.cpg/sg128_1_cif.got.tgz:1016.got - 2010.04.06 17:11:05.
