data_PCOD8314131
_publ_section_title
;
Structure prediction by ZEFSAII (Michael W. Deem and Ramdas Pophale) SiO2 
 PCOD8314131
Probable space group: P 4/M B M
;
_chemical_formula_sum "Si O2"
_cell_formula_units_Z 120
_cell_length_a 26.801717
_cell_length_b 26.801717
_cell_length_c 8.947953
_cell_angle_alpha 90.000000
_cell_angle_beta 90.000000
_cell_angle_gamma 90.000000
_cell_volume 6427.601280
_symmetry_space_group_name_H-M "P 4/M B M"
_symmetry_group_IT_number 127
_symmetry_cell_setting 'tetragonal'
loop_
_space_group_symop_operation_xyz
x,y,z
-y,x,z
-x,-y,z
y,-x,z
1/2+x,1/2-y,-z
1/2-x,1/2+y,-z
1/2+y,1/2+x,-z
1/2-y,1/2-x,-z
-x,-y,-z
y,-x,-z
x,y,-z
-y,x,-z
1/2-x,1/2+y,z
1/2+x,1/2-y,z
1/2-y,1/2-x,z
1/2+y,1/2+x,z
loop_
_atom_site_type_symbol
_atom_site_label
_atom_site_fract_x
_atom_site_fract_y
_atom_site_fract_z
Si Si1 0.246373 0.335305 0.328630
Si Si2 0.409365 0.241240 0.324160
Si Si3 0.232896 0.447029 0.324611
Si Si4 0.540554 0.959447 0.678872
Si Si5 0.812268 0.985749 0.177296
Si Si6 0.477021 0.151594 0.675447
Si Si7 0.268289 0.685885 0.835653
Si Si8 0.081259 0.006178 0.326370
O O1 0.263326 0.333007 0.500000
O O2 0.200201 0.299800 0.295494
O O3 0.227554 0.389632 0.283131
O O4 0.294913 0.320639 0.232003
O O5 0.415480 0.248869 0.500000
O O6 0.435811 0.287503 0.242731
O O7 0.431245 0.187369 0.274749
O O8 0.352316 0.241884 0.275803
O O9 0.241983 0.457149 0.500000
O O10 0.280611 0.467506 0.236703
O O11 0.180759 0.472810 0.274284
O O12 0.540703 0.959298 0.500000
O O13 0.526643 0.904238 0.744302
O O14 0.500000 0.000000 0.737113
O O15 0.869410 0.990087 0.227388
O O16 0.810247 0.984207 0.000000
O O17 0.476034 0.144062 0.500000
O O18 0.233055 0.733055 0.847662
O O19 0.277583 0.662467 0.000000
O O20 0.096277 0.007250 0.500000
O O21 0.052747 0.954701 0.288431
#
# Coordination Sequence:
#
# PCOD8314131 Si02
#       8
#    16  16  16   8  16  16  16  16
#     4   9  18  33  53  76 102 137 181 222 262 312
#     4  10  20  35  55  75 102 140 182 223 262 314
#     4   9  18  34  53  74 104 141 181 222 264 316
#     4   9  16  26  44  76 115 141 163 209 271 323
#     4  11  22  35  53  78 108 138 174 220 269 321
#     4   8  16  29  46  72 103 136 173 212 259 312
#     4  10  21  35  51  76 109 137 169 215 268 323
#     4   9  19  37  59  80 104 138 179 220 265 320
#
# _framework density 18.669485000000002
#
# number of rings (size 3 to 8) (size 9 to 14) (size 15 to 20)
#    0.000    2.600    0.000    3.200    0.933    3.467 
#    0.000    4.667    0.000    0.000    0.000    0.000 
#    0.000   14.933    0.000    0.000    0.000    0.000 
#
# Total GULP energy -1487538.111225 kJ/mol
# GULP energy per Si atom -12396.150927 kJ/mol
# Density = 1.862699 g / cm^3
# Si number density = 18.669485 Si / 1000 Ang^3
#
#
#
# Elastic Constant Matrix: (Units=GPa)
#
#
# Indices 1 2 3 4 5 6 
#
# 1 131.6904 53.2316 43.7486 0.0000 0.0000 0.0000
# 2 53.2316 131.6905 43.7486 0.0000 0.0000 0.0000
# 3 43.7486 43.7486 77.1386 0.0000 0.0000 0.0000
# 4 0.0000 0.0000 0.0000 16.1652 0.0000 0.0000
# 5 0.0000 0.0000 0.0000 0.0000 16.1652 0.0000
# 6 0.0000 0.0000 0.0000 0.0000 0.0000 15.8333
#
#
#
# Elastic Compliance Matrix: (Units=1/GPa)
#
#
# Indices 1 2 3 4 5 6 
#
# 1 0.010068 -0.002677 -0.004192 0.000000 0.000000 0.000000
# 2 -0.002677 0.010068 -0.004192 0.000000 0.000000 0.000000
# 3 -0.004192 -0.004192 0.017718 0.000000 0.000000 0.000000
# 4 0.000000 0.000000 0.000000 0.061861 0.000000 0.000000
# 5 0.000000 0.000000 0.000000 0.000000 0.061861 0.000000
# 6 0.000000 0.000000 0.000000 0.000000 0.000000 0.063158
#
#
# Mechanical properties :
#
#
# Convention : Reuss Voigt Hill
#
# Bulk Modulus (GPa) = 63.55933 69.10858 66.33396
# Shear Modulus (GPa) = 19.83329 22.95213 21.39271
#
# Velocity S-wave (km/s) = 3.26289 3.51007 3.38874
# Velocity P-wave (km/s) = 6.95080 7.31606 7.13577
#
# Compressibility (1/GPa) = 0.01573333
#
# Stress axis : x y z
#
# Youngs Moduli (GPa) = 99.32167 99.32172 56.43870
#
# Poissons Ratio (x) = 0.26591 0.23658
# Poissons Ratio (y) = 0.26591 0.23658
# Poissons Ratio (z) = 0.41633 0.41633
#
# Static dielectric constant tensor:
#      x y z
#    x 3.522200 0.000000 0.000000 
#    y 0.000000 3.522190 0.000000 
#    z 0.000000 0.000000 3.307480 
# 
# 
# High freq. dielectric constant tensor:
#      x y z
#    x 1.726250 0.000000 0.000000 
#    y 0.000000 1.726250 0.000000 
#    z 0.000000 0.000000 1.701520 
# 
# From -- ./inp_files/2428.got.cif
#   From: 2010.03.12/outbox.cif.g09.slc.cpg/sg127_2_cif.got.tgz:2428.got - 2010.04.06 17:03:15.
