data_PCOD8314602
_publ_section_title
;
Structure prediction by ZEFSAII (Michael W. Deem and Ramdas Pophale) SiO2 
 PCOD8314602
Probable space group: P 4/M N C
;
_chemical_formula_sum "Si O2"
_cell_formula_units_Z 112
_cell_length_a 25.706668
_cell_length_b 25.706668
_cell_length_c 9.009358
_cell_angle_alpha 90.000000
_cell_angle_beta 90.000000
_cell_angle_gamma 90.000000
_cell_volume 5953.679090
_symmetry_space_group_name_H-M "P 4/M N C"
_symmetry_group_IT_number 128
_symmetry_cell_setting 'tetragonal'
loop_
_space_group_symop_operation_xyz
x,y,z
-y,x,z
-x,-y,z
y,-x,z
1/2+x,1/2-y,1/2-z
1/2-x,1/2+y,1/2-z
1/2+y,1/2+x,1/2-z
1/2-y,1/2-x,1/2-z
-x,-y,-z
y,-x,-z
x,y,-z
-y,x,-z
1/2-x,1/2+y,1/2+z
1/2+x,1/2-y,1/2+z
1/2-y,1/2-x,1/2+z
1/2+y,1/2+x,1/2+z
loop_
_atom_site_type_symbol
_atom_site_label
_atom_site_fract_x
_atom_site_fract_y
_atom_site_fract_z
Si Si1 0.696239 0.499996 0.822223
Si Si2 0.100663 0.254751 0.676001
Si Si3 0.939925 0.635302 0.675232
Si Si4 0.789274 0.210728 0.676922
Si Si5 0.999993 0.081317 0.676673
Si Si6 0.100664 0.745239 0.324000
Si Si7 0.060069 0.635294 0.675231
O O1 0.723735 0.551431 0.759181
O O2 0.638471 0.499988 0.755494
O O3 0.723747 0.448568 0.759180
O O4 0.697260 0.499996 0.000000
O O5 0.099876 0.252170 0.500000
O O6 0.093898 0.314595 0.727840
O O7 0.153346 0.227304 0.734504
O O8 0.915906 0.584095 0.750000
O O9 0.936739 0.628507 0.500000
O O10 0.999998 0.641787 0.725018
O O11 0.749995 0.249995 0.750000
O O12 0.785704 0.214299 0.500000
O O13 0.846653 0.227317 0.734510
O O14 0.999993 0.083659 0.500000
O O15 0.051346 0.051354 0.732548
O O16 0.099879 0.747823 0.500000
O O17 0.093899 0.685393 0.272167
O O18 0.084085 0.584085 0.750000
O O19 0.063253 0.628497 0.500000
#
# Coordination Sequence:
#
# PCOD8314602 Si02
#       7
#    16  16  16  16  16  16  16
#     4   9  15  24  41  62  88 124 164 198 231 276
#     4   9  17  30  47  69  96 127 163 200 238 286
#     4  10  20  35  53  72  97 128 161 200 245 291
#     4  10  20  32  50  76 101 127 161 199 242 290
#     4   8  14  21  30  52  88 126 159 191 229 272
#     4   9  17  30  47  69  96 127 163 200 238 286
#     4  10  20  35  53  72  97 128 161 200 245 291
#
# _framework density 18.811897999999999
#
# number of rings (size 3 to 8) (size 9 to 14) (size 15 to 20)
#    0.000    2.714    1.429    1.286    2.000    0.857 
#    0.000    1.429    0.000    0.000    0.000    0.000 
#    0.000    0.000    0.000    0.000    0.000    1.429 
#
# Total GULP energy -1388226.771120 kJ/mol
# GULP energy per Si atom -12394.881885 kJ/mol
# Density = 1.876908 g / cm^3
# Si number density = 18.811898 Si / 1000 Ang^3
#
#
#
# Elastic Constant Matrix: (Units=GPa)
#
#
# Indices 1 2 3 4 5 6 
#
# 1 158.4507 89.0450 20.6470 0.0000 0.0000 0.0000
# 2 89.0450 158.4572 20.6455 0.0000 0.0000 0.0000
# 3 20.6470 20.6455 8.2315 0.0000 0.0000 0.0000
# 4 0.0000 0.0000 0.0000 16.9375 0.0000 0.0000
# 5 0.0000 0.0000 0.0000 0.0000 16.9372 0.0000
# 6 0.0000 0.0000 0.0000 0.0000 0.0000 35.1973
#
#
#
# Elastic Compliance Matrix: (Units=1/GPa)
#
#
# Indices 1 2 3 4 5 6 
#
# 1 0.010678 -0.003730 -0.017430 0.000000 0.000000 0.000000
# 2 -0.003730 0.010677 -0.017424 0.000000 0.000000 0.000000
# 3 -0.017430 -0.017424 0.208904 0.000000 0.000000 0.000000
# 4 0.000000 0.000000 0.000000 0.059041 0.000000 0.000000
# 5 0.000000 0.000000 0.000000 0.000000 0.059042 0.000000
# 6 0.000000 0.000000 0.000000 0.000000 0.000000 0.028411
#
#
# Mechanical properties :
#
#
# Convention : Reuss Voigt Hill
#
# Bulk Modulus (GPa) = 6.53199 65.09048 35.81123
# Shear Modulus (GPa) = 9.90198 26.80119 18.35158
#
# Velocity S-wave (km/s) = 2.29676 3.77861 3.12674
# Velocity P-wave (km/s) = 3.24242 7.32891 5.66684
#
# Compressibility (1/GPa) = 0.15309275
#
# Stress axis : x y z
#
# Youngs Moduli (GPa) = 93.64760 93.66014 4.78690
#
# Poissons Ratio (x) = 0.34933 0.08343
# Poissons Ratio (y) = 0.34928 0.08340
# Poissons Ratio (z) = 1.63226 1.63189
#
# Static dielectric constant tensor:
#      x y z
#    x 3.797490 0.000000 0.000000 
#    y 0.000000 3.797480 0.000000 
#    z 0.000000 0.000000 2.732810 
# 
# 
# High freq. dielectric constant tensor:
#      x y z
#    x 1.745850 0.000000 0.000000 
#    y 0.000000 1.745850 0.000000 
#    z 0.000000 0.000000 1.655000 
# 
# From -- ./inp_files/2996.got.cif
#   From: 2010.03.12/outbox.cif.g09.slc.cpg/sg128_2_cif.got.tgz:2996.got - 2010.04.06 17:11:05.
