data_PCOD8314914
_publ_section_title
;
Structure prediction by ZEFSAII (Michael W. Deem and Ramdas Pophale) SiO2 
 PCOD8314914
Probable space group: P 4/N M M
;
_chemical_formula_sum "Si O2"
_cell_formula_units_Z 112
_cell_length_a 19.457788
_cell_length_b 19.457788
_cell_length_c 19.030550
_cell_angle_alpha 90.000000
_cell_angle_beta 90.000000
_cell_angle_gamma 90.000000
_cell_volume 7205.071162
_symmetry_space_group_name_H-M "P 4/N M M"
_symmetry_group_IT_number 129
_symmetry_cell_setting 'tetragonal'
loop_
_space_group_symop_operation_xyz
x,y,z
1/2-y,x,z
1/2-x,1/2-y,z
y,1/2-x,z
1/2+x,-y,-z
-x,1/2+y,-z
1/2+y,1/2+x,-z
-y,-x,-z
-x,-y,-z
1/2+y,-x,-z
1/2+x,1/2+y,-z
-y,1/2+x,-z
1/2-x,y,z
x,1/2-y,z
1/2-y,1/2-x,z
y,x,z
loop_
_atom_site_type_symbol
_atom_site_label
_atom_site_fract_x
_atom_site_fract_y
_atom_site_fract_z
Si Si1 0.572919 0.457494 0.925012
Si Si2 0.432285 0.672846 0.584267
Si Si3 0.473986 0.911077 0.212987
Si Si4 0.492629 0.380657 0.289108
Si Si5 0.059082 0.328849 0.145421
Si Si6 0.557608 0.670677 0.313594
Si Si7 0.446942 0.828574 0.425643
O O1 0.512607 0.512607 0.928997
O O2 0.553656 0.399522 0.866495
O O3 0.642595 0.496714 0.902667
O O4 0.580808 0.419193 0.000000
O O5 0.402076 0.750000 0.589118
O O6 0.492373 0.664215 0.641750
O O7 0.370961 0.619757 0.597578
O O8 0.465172 0.660335 0.507427
O O9 0.511434 0.843881 0.243978
O O10 0.525238 0.974763 0.211912
O O11 0.411286 0.934557 0.262678
O O12 0.440469 0.440469 0.311438
O O13 0.460219 0.334273 0.227587
O O14 0.072426 0.250000 0.125160
O O15 0.128357 0.371644 0.129917
O O16 0.578673 0.750000 0.314310
O O17 0.627363 0.627363 0.312726
O O18 0.513741 0.648287 0.381719
O O19 0.429282 0.750000 0.407864
#
# Coordination Sequence:
#
# PCOD8314914 Si02
#       7
#    16  16  16  16  16  16  16
#     4   8  14  26  45  67  90 114 144 183 222 261
#     4  10  18  28  44  65  88 116 152 193 233 275
#     4   8  14  26  44  64  85 111 142 179 224 265
#     4   9  16  27  43  64  89 115 147 186 228 269
#     4   9  17  28  43  65  94 125 153 184 221 266
#     4  10  19  32  48  65  89 119 153 194 235 277
#     4   9  19  31  42  61  89 120 152 187 234 286
#
# _framework density 15.544606
#
# number of rings (size 3 to 8) (size 9 to 14) (size 15 to 20)
#    0.000    3.000    1.429    2.143    0.000    1.143 
#    0.000    3.571    0.000    0.000    0.000    0.000 
#    0.000   10.857    0.000    0.000    0.000    0.000 
#
# Total GULP energy -1388089.569716 kJ/mol
# GULP energy per Si atom -12393.656872 kJ/mol
# Density = 1.550923 g / cm^3
# Si number density = 15.544606 Si / 1000 Ang^3
#
#
#
# Elastic Constant Matrix: (Units=GPa)
#
#
# Indices 1 2 3 4 5 6 
#
# 1 70.8304 41.7347 40.6135 0.0000 0.0000 0.0000
# 2 41.7347 70.8305 40.6134 0.0000 0.0000 0.0000
# 3 40.6135 40.6134 106.9833 0.0000 0.0000 0.0000
# 4 0.0000 0.0000 0.0000 16.6376 0.0000 0.0000
# 5 0.0000 0.0000 0.0000 0.0000 16.6376 0.0000
# 6 0.0000 0.0000 0.0000 0.0000 0.0000 15.2570
#
#
#
# Elastic Compliance Matrix: (Units=1/GPa)
#
#
# Indices 1 2 3 4 5 6 
#
# 1 0.023302 -0.011067 -0.004645 0.000000 0.000000 0.000000
# 2 -0.011067 0.023302 -0.004645 0.000000 0.000000 0.000000
# 3 -0.004645 -0.004645 0.012874 0.000000 0.000000 0.000000
# 4 0.000000 0.000000 0.000000 0.060105 0.000000 0.000000
# 5 0.000000 0.000000 0.000000 0.000000 0.060105 0.000000
# 6 0.000000 0.000000 0.000000 0.000000 0.000000 0.065543
#
#
# Mechanical properties :
#
#
# Convention : Reuss Voigt Hill
#
# Bulk Modulus (GPa) = 53.28982 54.95193 54.12087
# Shear Modulus (GPa) = 17.11155 18.08529 17.59842
#
# Velocity S-wave (km/s) = 3.32143 3.41463 3.36836
# Velocity P-wave (km/s) = 7.00468 7.13962 7.07247
#
# Compressibility (1/GPa) = 0.01876531
#
# Stress axis : x y z
#
# Youngs Moduli (GPa) = 42.91401 42.91409 77.67672
#
# Poissons Ratio (x) = 0.47493 0.36080
# Poissons Ratio (y) = 0.47493 0.36080
# Poissons Ratio (z) = 0.19933 0.19933
#
# Static dielectric constant tensor:
#      x y z
#    x 2.757460 0.000000 0.000000 
#    y 0.000000 2.757460 0.000000 
#    z 0.000000 0.000000 3.289100 
# 
# 
# High freq. dielectric constant tensor:
#      x y z
#    x 1.573910 0.000000 0.000000 
#    y 0.000000 1.573910 0.000000 
#    z 0.000000 0.000000 1.600650 
# 
# From -- ./inp_files/5970.got.cif
#   From: 2010.03.12/outbox.cif.g09.slc.cpg/sg129_3_cif.got.tgz:5970.got - 2010.04.06 17:19:44.
