data_PCOD8314501
_publ_section_title
;
Structure prediction by ZEFSAII (Michael W. Deem and Ramdas Pophale) SiO2 
 PCOD8314501
Probable space group: P 4/M N C
;
_chemical_formula_sum "Si O2"
_cell_formula_units_Z 96
_cell_length_a 22.913746
_cell_length_b 22.913746
_cell_length_c 9.167678
_cell_angle_alpha 90.000000
_cell_angle_beta 90.000000
_cell_angle_gamma 90.000000
_cell_volume 4813.395418
_symmetry_space_group_name_H-M "P 4/M N C"
_symmetry_group_IT_number 128
_symmetry_cell_setting 'tetragonal'
loop_
_space_group_symop_operation_xyz
x,y,z
-y,x,z
-x,-y,z
y,-x,z
1/2+x,1/2-y,1/2-z
1/2-x,1/2+y,1/2-z
1/2+y,1/2+x,1/2-z
1/2-y,1/2-x,1/2-z
-x,-y,-z
y,-x,-z
x,y,-z
-y,x,-z
1/2-x,1/2+y,1/2+z
1/2+x,1/2-y,1/2+z
1/2-y,1/2-x,1/2+z
1/2+y,1/2+x,1/2+z
loop_
_atom_site_type_symbol
_atom_site_label
_atom_site_fract_x
_atom_site_fract_y
_atom_site_fract_z
Si Si1 0.806077 0.378768 0.158953
Si Si2 0.491949 0.672200 0.829207
Si Si3 0.415425 0.999985 0.826660
Si Si4 0.485799 0.219269 0.329630
Si Si5 0.127006 0.116214 0.329234
Si Si6 0.789872 0.785178 0.659172
O O1 0.864843 0.364843 0.250000
O O2 0.767983 0.424477 0.249785
O O3 0.769614 0.320515 0.136448
O O4 0.824246 0.403886 0.000000
O O5 0.473061 0.731266 0.742121
O O6 0.441667 0.624540 0.799046
O O7 0.552957 0.645932 0.766998
O O8 0.495923 0.687157 0.000000
O O9 0.442424 0.057577 0.750000
O O10 0.346503 0.994343 0.794843
O O11 0.443695 0.943695 0.750000
O O12 0.428282 0.001174 0.000000
O O13 0.479475 0.230383 0.500000
O O14 0.142100 0.116253 0.500000
O O15 0.162911 0.171702 0.262575
O O16 0.773573 0.726428 0.750000
O O17 0.813065 0.764570 0.500000
#
# Coordination Sequence:
#
# PCOD8314501 Si02
#       6
#    16  16  16  16  16  16
#     4  10  18  29  49  77 110 142 176 219 270 323
#     4  10  20  37  60  82 110 146 184 237 291 345
#     4  10  21  36  55  80 112 149 189 231 274 326
#     4  11  22  35  52  80 112 145 188 230 277 336
#     4   9  18  35  58  85 112 141 186 233 284 343
#     4   9  17  31  50  78 110 141 177 218 267 328
#
# _framework density 19.944341000000001
#
# number of rings (size 3 to 8) (size 9 to 14) (size 15 to 20)
#    0.000    2.167    1.667    2.500    0.000    5.000 
#    0.000    4.167    0.000    4.000    0.000    1.167 
#    0.000    0.000    0.000    0.000    0.000    0.000 
#
# Total GULP energy -1189555.865978 kJ/mol
# GULP energy per Si atom -12391.206937 kJ/mol
# Density = 1.989895 g / cm^3
# Si number density = 19.944341 Si / 1000 Ang^3
#
#
#
# Elastic Constant Matrix: (Units=GPa)
#
#
# Indices 1 2 3 4 5 6 
#
# 1 93.5975 56.8550 39.7359 0.0000 0.0000 0.0000
# 2 56.8550 93.5977 39.7365 0.0000 0.0000 0.0000
# 3 39.7359 39.7365 99.9345 0.0000 0.0000 0.0000
# 4 0.0000 0.0000 0.0000 21.7416 0.0000 0.0000
# 5 0.0000 0.0000 0.0000 0.0000 21.7417 0.0000
# 6 0.0000 0.0000 0.0000 0.0000 0.0000 25.8208
#
#
#
# Elastic Compliance Matrix: (Units=1/GPa)
#
#
# Indices 1 2 3 4 5 6 
#
# 1 0.017815 -0.009401 -0.003345 0.000000 0.000000 0.000000
# 2 -0.009401 0.017815 -0.003346 0.000000 0.000000 0.000000
# 3 -0.003345 -0.003346 0.012667 0.000000 0.000000 0.000000
# 4 0.000000 0.000000 0.000000 0.045995 0.000000 0.000000
# 5 0.000000 0.000000 0.000000 0.000000 0.045995 0.000000
# 6 0.000000 0.000000 0.000000 0.000000 0.000000 0.038728
#
#
# Mechanical properties :
#
#
# Convention : Reuss Voigt Hill
#
# Bulk Modulus (GPa) = 62.06329 62.19828 62.13078
# Shear Modulus (GPa) = 23.08716 23.91430 23.50073
#
# Velocity S-wave (km/s) = 3.40601 3.46649 3.43638
# Velocity P-wave (km/s) = 6.83035 6.87573 6.85308
#
# Compressibility (1/GPa) = 0.01611258
#
# Stress axis : x y z
#
# Youngs Moduli (GPa) = 56.13231 56.13213 78.94496
#
# Poissons Ratio (x) = 0.52771 0.26410
# Poissons Ratio (y) = 0.52772 0.26412
# Poissons Ratio (z) = 0.18779 0.18780
#
# Static dielectric constant tensor:
#      x y z
#    x 3.536880 0.000000 0.000000 
#    y 0.000000 3.536880 0.000000 
#    z 0.000000 0.000000 3.832120 
# 
# 
# High freq. dielectric constant tensor:
#      x y z
#    x 1.764550 0.000000 0.000000 
#    y 0.000000 1.764550 0.000000 
#    z 0.000000 0.000000 1.762010 
# 
# From -- ./inp_files/1486.got.cif
#   From: 2010.03.12/outbox.cif.g09.slc.cpg/sg128_1_cif.got.tgz:1486.got - 2010.04.06 17:11:05.
