data_PCOD8314428
_publ_section_title
;
Structure prediction by ZEFSAII (Michael W. Deem and Ramdas Pophale) SiO2 
 PCOD8314428
Probable space group: P 4/M B M
;
_chemical_formula_sum "Si O2"
_cell_formula_units_Z 56
_cell_length_a 15.160203
_cell_length_b 15.160203
_cell_length_c 13.715376
_cell_angle_alpha 90.000000
_cell_angle_beta 90.000000
_cell_angle_gamma 90.000000
_cell_volume 3152.228937
_symmetry_space_group_name_H-M "P 4/M B M"
_symmetry_group_IT_number 127
_symmetry_cell_setting 'tetragonal'
loop_
_space_group_symop_operation_xyz
x,y,z
-y,x,z
-x,-y,z
y,-x,z
1/2+x,1/2-y,-z
1/2-x,1/2+y,-z
1/2+y,1/2+x,-z
1/2-y,1/2-x,-z
-x,-y,-z
y,-x,-z
x,y,-z
-y,x,-z
1/2-x,1/2+y,z
1/2+x,1/2-y,z
1/2-y,1/2-x,z
1/2+y,1/2+x,z
loop_
_atom_site_type_symbol
_atom_site_label
_atom_site_fract_x
_atom_site_fract_y
_atom_site_fract_z
Si Si1 0.169817 0.817789 0.796823
Si Si2 0.758574 0.011931 0.885127
Si Si3 0.396646 0.398326 0.389565
Si Si4 0.931212 0.568788 0.884173
O O1 0.251169 0.751169 0.816866
O O2 0.175869 0.908854 0.857347
O O3 0.163571 0.839737 0.681949
O O4 0.079103 0.775591 0.831325
O O5 0.664353 0.043453 0.845627
O O6 0.761890 0.995074 0.000000
O O7 0.499023 0.377742 0.369936
O O8 0.371066 0.373189 0.500000
O O9 0.000000 0.500000 0.839203
O O10 0.933048 0.566953 0.000000
#
# Coordination Sequence:
#
# PCOD8314428 Si02
#       4
#    16  16  16   8
#     4  12  23  37  59  86 114 150 194 238 288 341
#     4  11  23  37  55  82 117 154 192 236 279 332
#     4   9  18  36  61  84 108 141 183 233 291 351
#     4   9  18  36  56  74 105 154 200 230 268 324
#
# _framework density 17.765208000000001
#
# number of rings (size 3 to 8) (size 9 to 14) (size 15 to 20)
#    0.000    1.571    4.286    2.571    0.000    4.000 
#    0.000    1.429    0.000    0.000    0.000    0.000 
#    0.000    9.143    0.000    0.000    0.000    0.000 
#
# Total GULP energy -694368.875626 kJ/mol
# GULP energy per Si atom -12399.444208 kJ/mol
# Density = 1.772477 g / cm^3
# Si number density = 17.765208 Si / 1000 Ang^3
#
#
#
# Elastic Constant Matrix: (Units=GPa)
#
#
# Indices 1 2 3 4 5 6 
#
# 1 75.2679 18.4179 19.6103 0.0000 0.0000 0.0000
# 2 18.4179 75.2679 19.6102 0.0000 0.0000 0.0000
# 3 19.6103 19.6102 66.2135 0.0000 0.0000 0.0000
# 4 0.0000 0.0000 0.0000 22.9465 0.0000 0.0000
# 5 0.0000 0.0000 0.0000 0.0000 22.9465 0.0000
# 6 0.0000 0.0000 0.0000 0.0000 0.0000 33.8066
#
#
#
# Elastic Compliance Matrix: (Units=1/GPa)
#
#
# Indices 1 2 3 4 5 6 
#
# 1 0.014887 -0.002703 -0.003609 0.000000 0.000000 0.000000
# 2 -0.002703 0.014887 -0.003609 0.000000 0.000000 0.000000
# 3 -0.003609 -0.003609 0.017240 0.000000 0.000000 0.000000
# 4 0.000000 0.000000 0.000000 0.043580 0.000000 0.000000
# 5 0.000000 0.000000 0.000000 0.000000 0.043580 0.000000
# 6 0.000000 0.000000 0.000000 0.000000 0.000000 0.029580
#
#
# Mechanical properties :
#
#
# Convention : Reuss Voigt Hill
#
# Bulk Modulus (GPa) = 36.79878 36.89180 36.84529
# Shear Modulus (GPa) = 25.95339 26.54730 26.25035
#
# Velocity S-wave (km/s) = 3.82633 3.86987 3.84816
# Velocity P-wave (km/s) = 6.34666 6.38586 6.36629
#
# Compressibility (1/GPa) = 0.02717482
#
# Stress axis : x y z
#
# Youngs Moduli (GPa) = 67.17067 67.17078 58.00391
#
# Poissons Ratio (x) = 0.18154 0.20932
# Poissons Ratio (y) = 0.18154 0.20932
# Poissons Ratio (z) = 0.24240 0.24240
#
# Static dielectric constant tensor:
#      x y z
#    x 3.324380 0.000000 0.000000 
#    y 0.000000 3.324390 0.000000 
#    z 0.000000 0.000000 3.179660 
# 
# 
# High freq. dielectric constant tensor:
#      x y z
#    x 1.688310 0.000000 0.000000 
#    y 0.000000 1.688310 0.000000 
#    z 0.000000 0.000000 1.676290 
# 
# From -- ./inp_files/2854.got.cif
#   From: 2010.03.12/outbox.cif.g09.slc.cpg/sg127_2_cif.got.tgz:2854.got - 2010.04.06 17:03:15.
