data_PCOD8314381
_publ_section_title
;
Structure prediction by ZEFSAII (Michael W. Deem and Ramdas Pophale) SiO2 
 PCOD8314381
Probable space group: P 4/M B M
;
_chemical_formula_sum "Si O2"
_cell_formula_units_Z 96
_cell_length_a 14.409104
_cell_length_b 14.409104
_cell_length_c 22.300719
_cell_angle_alpha 90.000000
_cell_angle_beta 90.000000
_cell_angle_gamma 90.000000
_cell_volume 4630.126082
_symmetry_space_group_name_H-M "P 4/M B M"
_symmetry_group_IT_number 127
_symmetry_cell_setting 'tetragonal'
loop_
_space_group_symop_operation_xyz
x,y,z
-y,x,z
-x,-y,z
y,-x,z
1/2+x,1/2-y,-z
1/2-x,1/2+y,-z
1/2+y,1/2+x,-z
1/2-y,1/2-x,-z
-x,-y,-z
y,-x,-z
x,y,-z
-y,x,-z
1/2-x,1/2+y,z
1/2+x,1/2-y,z
1/2-y,1/2-x,z
1/2+y,1/2+x,z
loop_
_atom_site_type_symbol
_atom_site_label
_atom_site_fract_x
_atom_site_fract_y
_atom_site_fract_z
Si Si1 0.608924 0.606426 0.433954
Si Si2 0.956900 0.852289 0.220139
Si Si3 0.104703 0.244368 0.660206
Si Si4 0.719803 0.063384 0.109804
Si Si5 0.077493 0.577493 0.932776
Si Si6 0.948386 0.854568 0.000000
Si Si7 0.149446 0.504980 0.565656
O O1 0.502324 0.628187 0.424689
O O2 0.642030 0.638051 0.500000
O O3 0.670014 0.657730 0.382949
O O4 0.942551 0.806483 0.284426
O O5 0.935727 0.772852 0.172333
O O6 0.062217 0.886491 0.212260
O O7 0.177674 0.322327 0.681779
O O8 0.020499 0.284979 0.620703
O O9 0.648783 0.148783 0.107332
O O10 0.665674 0.965183 0.102242
O O11 0.794914 0.076171 0.057989
O O12 0.000000 0.500000 0.938604
O O13 0.107946 0.607946 0.000000
O O14 0.055750 0.883050 0.000000
O O15 0.200969 0.506548 0.500000
O O16 0.069063 0.430938 0.561443
O O17 0.106247 0.606247 0.578427
#
# Coordination Sequence:
#
# PCOD8314381 Si02
#       7
#    16  16  16  16   8   8  16
#     4   9  18  34  56  80 108 149 198 244 305 385
#     4  11  25  47  66  83 118 168 213 258 317 374
#     4  11  21  35  57  86 115 149 199 257 312 368
#     4  11  22  43  68 100 134 166 213 263 310 365
#     4   9  18  38  68  98 138 174 193 237 313 374
#     4  11  23  41  64  97 142 185 218 253 307 362
#     4   8  15  30  52  78 112 153 190 232 300 377
#
# _framework density 20.733775000000001
#
# number of rings (size 3 to 8) (size 9 to 14) (size 15 to 20)
#    0.000    2.000    0.833    4.250    0.000    3.667 
#   10.500    2.500    0.000    1.000    0.000    0.000 
#    0.000    0.000    0.000    0.000    0.000    0.000 
#
# Total GULP energy -1189812.905026 kJ/mol
# GULP energy per Si atom -12393.884427 kJ/mol
# Density = 2.068658 g / cm^3
# Si number density = 20.733775 Si / 1000 Ang^3
#
#
#
# Elastic Constant Matrix: (Units=GPa)
#
#
# Indices 1 2 3 4 5 6 
#
# 1 106.9699 43.9400 50.7924 0.0000 0.0000 0.0000
# 2 43.9400 106.9699 50.7924 0.0000 0.0000 0.0000
# 3 50.7924 50.7924 138.1813 0.0000 0.0000 0.0000
# 4 0.0000 0.0000 0.0000 -20.3549 0.0000 0.0000
# 5 0.0000 0.0000 0.0000 0.0000 -20.3549 0.0000
# 6 0.0000 0.0000 0.0000 0.0000 0.0000 27.7315
#
#
#
# Elastic Compliance Matrix: (Units=1/GPa)
#
#
# Indices 1 2 3 4 5 6 
#
# 1 0.012335 -0.003530 -0.003237 0.000000 0.000000 0.000000
# 2 -0.003530 0.012335 -0.003237 0.000000 0.000000 0.000000
# 3 -0.003237 -0.003237 0.009616 0.000000 0.000000 0.000000
# 4 0.000000 0.000000 0.000000 -0.049128 0.000000 0.000000
# 5 0.000000 0.000000 0.000000 0.000000 -0.049128 0.000000
# 6 0.000000 0.000000 0.000000 0.000000 0.000000 0.036060
#
#
# Mechanical properties :
#
#
# Convention : Reuss Voigt Hill
#
# Bulk Modulus (GPa) = 70.02672 71.46342 70.74507
# Shear Modulus (GPa) = -1590.97756 11.17743 -789.90006
#
# Velocity S-wave (km/s) = -27.73088 2.32436 -19.53969
# Velocity P-wave (km/s) = 31.48791 6.46107 21.79155
#
# Compressibility (1/GPa) = 0.01428026
#
# Stress axis : x y z
#
# Youngs Moduli (GPa) = 81.06788 81.06788 103.99050
#
# Poissons Ratio (x) = 0.28618 0.33657
# Poissons Ratio (y) = 0.28618 0.33657
# Poissons Ratio (z) = 0.26238 0.26238
#
# Static dielectric constant tensor:
#      x y z
#    x 3.941490 0.000000 0.000000 
#    y 0.000000 3.941490 0.000000 
#    z 0.000000 0.000000 4.227270 
# 
# 
# High freq. dielectric constant tensor:
#      x y z
#    x 1.814210 0.000000 0.000000 
#    y 0.000000 1.814210 0.000000 
#    z 0.000000 0.000000 1.810120 
# 
# From -- ./inp_files/6136.got.cif
#   From: 2010.03.12/outbox.cif.g09.slc.cpg/sg127_4_cif.got.tgz:6136.got - 2010.04.06 17:03:15.
