data_PCOD8314994
_publ_section_title
;
Structure prediction by ZEFSAII (Michael W. Deem and Ramdas Pophale) SiO2 
 PCOD8314994
Probable space group: P 4/N M M
;
_chemical_formula_sum "Si O2"
_cell_formula_units_Z 72
_cell_length_a 13.562805
_cell_length_b 13.562805
_cell_length_c 23.614122
_cell_angle_alpha 90.000000
_cell_angle_beta 90.000000
_cell_angle_gamma 90.000000
_cell_volume 4343.810173
_symmetry_space_group_name_H-M "P 4/N M M"
_symmetry_group_IT_number 129
_symmetry_cell_setting 'tetragonal'
loop_
_space_group_symop_operation_xyz
x,y,z
1/2-y,x,z
1/2-x,1/2-y,z
y,1/2-x,z
1/2+x,-y,-z
-x,1/2+y,-z
1/2+y,1/2+x,-z
-y,-x,-z
-x,-y,-z
1/2+y,-x,-z
1/2+x,1/2+y,-z
-y,1/2+x,-z
1/2-x,y,z
x,1/2-y,z
1/2-y,1/2-x,z
y,x,z
loop_
_atom_site_type_symbol
_atom_site_label
_atom_site_fract_x
_atom_site_fract_y
_atom_site_fract_z
Si Si1 0.864560 0.135441 0.500000
Si Si2 0.866472 0.026515 0.951595
Si Si3 0.977411 0.366358 0.269652
Si Si4 0.640300 0.133378 0.159904
Si Si5 0.860984 0.367717 0.378887
O O1 0.750000 0.113844 0.494121
O O2 0.904208 0.091812 0.560230
O O3 0.750000 0.005573 0.953688
O O4 0.901317 0.073400 0.892317
O O5 0.895573 0.104428 0.000000
O O6 0.922983 0.922983 0.960274
O O7 0.994571 0.250000 0.268928
O O8 0.083967 0.416034 0.263412
O O9 0.908133 0.401934 0.218424
O O10 0.928284 0.404884 0.327653
O O11 0.750000 0.087040 0.155098
O O12 0.648948 0.250000 0.159268
O O13 0.750000 0.408697 0.370038
O O14 0.856729 0.250000 0.379227
#
# Coordination Sequence:
#
# PCOD8314994 Si02
#       5
#     8  16  16  16  16
#     4   7  10  18  35  58  80 102 129 165 216 270
#     4  10  20  33  50  73 100 130 163 196 232 276
#     4  10  19  29  41  59  85 116 148 179 213 258
#     4   9  17  30  48  67  86 110 142 183 229 270
#     4   8  13  23  40  60  81 105 134 173 221 264
#
# _framework density 16.575310999999999
#
# number of rings (size 3 to 8) (size 9 to 14) (size 15 to 20)
#    0.000    3.000    0.000    3.333    0.000    4.222 
#    0.000    0.556    0.000    4.000    0.000    0.000 
#    0.000   19.556    0.000    0.000    0.000    0.000 
#
# Total GULP energy -892080.913047 kJ/mol
# GULP energy per Si atom -12390.012681 kJ/mol
# Density = 1.653758 g / cm^3
# Si number density = 16.575311 Si / 1000 Ang^3
#
#
#
# Elastic Constant Matrix: (Units=GPa)
#
#
# Indices 1 2 3 4 5 6 
#
# 1 61.0942 33.3087 34.5514 0.0000 0.0000 0.0000
# 2 33.3087 61.0943 34.5513 0.0000 0.0000 0.0000
# 3 34.5514 34.5513 149.1260 0.0000 0.0000 0.0000
# 4 0.0000 0.0000 0.0000 12.7874 0.0000 0.0000
# 5 0.0000 0.0000 0.0000 0.0000 12.7872 0.0000
# 6 0.0000 0.0000 0.0000 0.0000 0.0000 14.6457
#
#
#
# Elastic Compliance Matrix: (Units=1/GPa)
#
#
# Indices 1 2 3 4 5 6 
#
# 1 0.024373 -0.011617 -0.002956 0.000000 0.000000 0.000000
# 2 -0.011617 0.024373 -0.002956 0.000000 0.000000 0.000000
# 3 -0.002956 -0.002956 0.008075 0.000000 0.000000 0.000000
# 4 0.000000 0.000000 0.000000 0.078202 0.000000 0.000000
# 5 0.000000 0.000000 0.000000 0.000000 0.078203 0.000000
# 6 0.000000 0.000000 0.000000 0.000000 0.000000 0.068279
#
#
# Mechanical properties :
#
#
# Convention : Reuss Voigt Hill
#
# Bulk Modulus (GPa) = 45.94368 52.90416 49.42392
# Shear Modulus (GPa) = 15.44082 19.30428 17.37255
#
# Velocity S-wave (km/s) = 3.05545 3.41639 3.24095
# Velocity P-wave (km/s) = 6.34240 6.89558 6.62476
#
# Compressibility (1/GPa) = 0.02176578
#
# Stress axis : x y z
#
# Youngs Moduli (GPa) = 41.02870 41.02879 123.83457
#
# Poissons Ratio (x) = 0.47662 0.36600
# Poissons Ratio (y) = 0.47662 0.36600
# Poissons Ratio (z) = 0.12126 0.12126
#
# Static dielectric constant tensor:
#      x y z
#    x 2.787570 0.000000 0.000000 
#    y 0.000000 2.787560 0.000000 
#    z 0.000000 0.000000 3.656890 
# 
# 
# High freq. dielectric constant tensor:
#      x y z
#    x 1.600840 0.000000 0.000000 
#    y 0.000000 1.600840 0.000000 
#    z 0.000000 0.000000 1.669840 
# 
# From -- ./inp_files/6348.got.cif
#   From: 2010.03.12/outbox.cif.g09.slc.cpg/sg129_4_cif.got.tgz:6348.got - 2010.04.06 17:19:44.
