data_PCOD8314254
_publ_section_title
;
Structure prediction by ZEFSAII (Michael W. Deem and Ramdas Pophale) SiO2 
 PCOD8314254
Probable space group: P 4/M B M
;
_chemical_formula_sum "Si O2"
_cell_formula_units_Z 72
_cell_length_a 20.863939
_cell_length_b 20.863939
_cell_length_c 7.732909
_cell_angle_alpha 90.000000
_cell_angle_beta 90.000000
_cell_angle_gamma 90.000000
_cell_volume 3366.165837
_symmetry_space_group_name_H-M "P 4/M B M"
_symmetry_group_IT_number 127
_symmetry_cell_setting 'tetragonal'
loop_
_space_group_symop_operation_xyz
x,y,z
-y,x,z
-x,-y,z
y,-x,z
1/2+x,1/2-y,-z
1/2-x,1/2+y,-z
1/2+y,1/2+x,-z
1/2-y,1/2-x,-z
-x,-y,-z
y,-x,-z
x,y,-z
-y,x,-z
1/2-x,1/2+y,z
1/2+x,1/2-y,z
1/2-y,1/2-x,z
1/2+y,1/2+x,z
loop_
_atom_site_type_symbol
_atom_site_label
_atom_site_fract_x
_atom_site_fract_y
_atom_site_fract_z
Si Si1 0.499217 0.100664 0.294392
Si Si2 0.422448 0.569131 0.000000
Si Si3 0.406872 0.333309 0.300577
Si Si4 0.735419 0.663996 0.300440
Si Si5 0.478726 0.758370 0.294224
O O1 0.500723 0.103187 0.500000
O O2 0.433187 0.066814 0.232246
O O3 0.504601 0.171755 0.217591
O O4 0.559524 0.059524 0.226698
O O5 0.409960 0.494541 0.000000
O O6 0.394821 0.596366 0.821545
O O7 0.418596 0.354290 0.500000
O O8 0.335129 0.303710 0.280478
O O9 0.462994 0.286912 0.231024
O O10 0.753323 0.656664 0.500000
O O11 0.788239 0.711762 0.213725
O O12 0.737660 0.591455 0.221224
O O13 0.478866 0.757974 0.500000
#
# Coordination Sequence:
#
# PCOD8314254 Si02
#       5
#    16   8  16  16  16
#     4   8  13  21  36  64 102 139 177 223 272 327
#     4  11  24  40  59  82 108 141 181 228 282 336
#     4  10  21  37  57  82 112 145 184 230 278 331
#     4   9  17  30  50  76 106 141 181 225 273 326
#     4   9  16  27  46  71 102 141 181 223 273 328
#
# _framework density 21.389320000000001
#
# number of rings (size 3 to 8) (size 9 to 14) (size 15 to 20)
#    0.000    2.778    0.000    2.667    0.000    6.222 
#    0.000    6.111    0.000    0.000    0.000    2.333 
#    0.000    1.778    0.000    0.222    0.000    0.000 
#
# Total GULP energy -892042.120040 kJ/mol
# GULP energy per Si atom -12389.473889 kJ/mol
# Density = 2.134064 g / cm^3
# Si number density = 21.389320 Si / 1000 Ang^3
#
#
#
# Elastic Constant Matrix: (Units=GPa)
#
#
# Indices 1 2 3 4 5 6 
#
# 1 149.6886 41.7949 11.0886 0.0000 0.0000 0.0000
# 2 41.7949 149.6886 11.0886 0.0000 0.0000 0.0000
# 3 11.0886 11.0886 48.0188 0.0000 0.0000 0.0000
# 4 0.0000 0.0000 0.0000 5.4792 0.0000 0.0000
# 5 0.0000 0.0000 0.0000 0.0000 5.4792 0.0000
# 6 0.0000 0.0000 0.0000 0.0000 0.0000 40.5029
#
#
#
# Elastic Compliance Matrix: (Units=1/GPa)
#
#
# Indices 1 2 3 4 5 6 
#
# 1 0.007317 -0.001951 -0.001239 0.000000 0.000000 0.000000
# 2 -0.001951 0.007317 -0.001239 0.000000 0.000000 0.000000
# 3 -0.001239 -0.001239 0.021397 0.000000 0.000000 0.000000
# 4 0.000000 0.000000 0.000000 0.182510 0.000000 0.000000
# 5 0.000000 0.000000 0.000000 0.000000 0.182510 0.000000
# 6 0.000000 0.000000 0.000000 0.000000 0.000000 0.024690
#
#
# Mechanical properties :
#
#
# Convention : Reuss Voigt Hill
#
# Bulk Modulus (GPa) = 36.80147 52.81558 44.80852
# Shear Modulus (GPa) = 11.26995 29.18716 20.22855
#
# Velocity S-wave (km/s) = 2.29791 3.69801 3.07861
# Velocity P-wave (km/s) = 4.92782 6.55590 5.79928
#
# Compressibility (1/GPa) = 0.02717283
#
# Stress axis : x y z
#
# Youngs Moduli (GPa) = 136.66545 136.66545 46.73449
#
# Poissons Ratio (x) = 0.26667 0.05791
# Poissons Ratio (y) = 0.26667 0.05791
# Poissons Ratio (z) = 0.16934 0.16934
#
# Static dielectric constant tensor:
#      x y z
#    x 4.083890 0.000000 0.000000 
#    y 0.000000 4.083890 0.000000 
#    z 0.000000 0.000000 3.323750 
# 
# 
# High freq. dielectric constant tensor:
#      x y z
#    x 1.842040 0.000000 0.000000 
#    y 0.000000 1.842040 0.000000 
#    z 0.000000 0.000000 1.793140 
# 
# From -- ./inp_files/1520.got.cif
#   From: 2010.03.12/outbox.cif.g09.slc.cpg/sg127_1_cif.got.tgz:1520.got - 2010.04.06 17:03:15.
