data_PCOD8314652
_publ_section_title
;
Structure prediction by ZEFSAII (Michael W. Deem and Ramdas Pophale) SiO2 
 PCOD8314652
Probable space group: P 4/M N C
;
_chemical_formula_sum "Si O2"
_cell_formula_units_Z 96
_cell_length_a 23.875565
_cell_length_b 23.875565
_cell_length_c 8.856196
_cell_angle_alpha 90.000000
_cell_angle_beta 90.000000
_cell_angle_gamma 90.000000
_cell_volume 5048.409030
_symmetry_space_group_name_H-M "P 4/M N C"
_symmetry_group_IT_number 128
_symmetry_cell_setting 'tetragonal'
loop_
_space_group_symop_operation_xyz
x,y,z
-y,x,z
-x,-y,z
y,-x,z
1/2+x,1/2-y,1/2-z
1/2-x,1/2+y,1/2-z
1/2+y,1/2+x,1/2-z
1/2-y,1/2-x,1/2-z
-x,-y,-z
y,-x,-z
x,y,-z
-y,x,-z
1/2-x,1/2+y,1/2+z
1/2+x,1/2-y,1/2+z
1/2-y,1/2-x,1/2+z
1/2+y,1/2+x,1/2+z
loop_
_atom_site_type_symbol
_atom_site_label
_atom_site_fract_x
_atom_site_fract_y
_atom_site_fract_z
Si Si1 0.275328 0.304907 0.823180
Si Si2 0.133424 0.714669 0.322009
Si Si3 0.703737 0.568901 0.820241
Si Si4 0.710976 0.984287 0.176984
Si Si5 0.999643 0.582419 0.822531
Si Si6 0.528435 0.416251 0.820621
O O1 0.218200 0.281801 0.750000
O O2 0.327673 0.266650 0.774179
O O3 0.287632 0.367399 0.767311
O O4 0.266368 0.303145 0.000000
O O5 0.157540 0.657540 0.250000
O O6 0.130188 0.706355 0.500000
O O7 0.072695 0.728485 0.258402
O O8 0.751402 0.533560 0.740761
O O9 0.643463 0.548540 0.757730
O O10 0.707988 0.562179 0.000000
O O11 0.647542 0.000113 0.216283
O O12 0.720541 0.977028 0.000000
O O13 0.943848 0.556153 0.750000
O O14 0.054626 0.554626 0.750000
O O15 0.999907 0.570562 0.000000
O O16 0.570401 0.465317 0.763683
O O17 0.529698 0.415180 0.000000
#
# Coordination Sequence:
#
# PCOD8314652 Si02
#       6
#    16  16  16  16  16  16
#     4   9  20  37  57  82 110 146 189 231 280 334
#     4  10  20  36  60  86 113 146 186 234 281 331
#     4  10  21  35  56  83 111 146 188 232 279 332
#     4  11  24  38  53  81 116 149 186 228 278 331
#     4  10  21  37  58  81 108 142 181 225 272 326
#     4   8  15  29  53  83 110 137 175 229 285 334
#
# _framework density 19.015892000000001
#
# number of rings (size 3 to 8) (size 9 to 14) (size 15 to 20)
#    0.000    2.333    0.000    3.000    2.333    6.000 
#    0.000    3.333    0.000    0.000    0.000    1.167 
#    0.000    0.000    0.000    0.000    0.000    0.000 
#
# Total GULP energy -1190578.919266 kJ/mol
# GULP energy per Si atom -12401.863742 kJ/mol
# Density = 1.897261 g / cm^3
# Si number density = 19.015892 Si / 1000 Ang^3
#
#
#
# Elastic Constant Matrix: (Units=GPa)
#
#
# Indices 1 2 3 4 5 6 
#
# 1 137.0953 100.2543 48.3333 0.0000 0.0000 0.0000
# 2 100.2543 137.0947 48.3403 0.0000 0.0000 0.0000
# 3 48.3333 48.3403 59.4065 0.0000 0.0000 0.0000
# 4 0.0000 0.0000 0.0000 29.1344 0.0000 0.0000
# 5 0.0000 0.0000 0.0000 0.0000 29.1347 0.0000
# 6 0.0000 0.0000 0.0000 0.0000 0.0000 26.7209
#
#
#
# Elastic Compliance Matrix: (Units=1/GPa)
#
#
# Indices 1 2 3 4 5 6 
#
# 1 0.016722 -0.010421 -0.005125 0.000000 0.000000 0.000000
# 2 -0.010421 0.016724 -0.005130 0.000000 0.000000 0.000000
# 3 -0.005125 -0.005130 0.025177 0.000000 0.000000 0.000000
# 4 0.000000 0.000000 0.000000 0.034324 0.000000 0.000000
# 5 0.000000 0.000000 0.000000 0.000000 0.034323 0.000000
# 6 0.000000 0.000000 0.000000 0.000000 0.000000 0.037424
#
#
# Mechanical properties :
#
#
# Convention : Reuss Voigt Hill
#
# Bulk Modulus (GPa) = 57.90124 80.82803 69.36464
# Shear Modulus (GPa) = 23.60692 26.10923 24.85808
#
# Velocity S-wave (km/s) = 3.52722 3.70945 3.61948
# Velocity P-wave (km/s) = 6.86319 7.80670 7.35010
#
# Compressibility (1/GPa) = 0.01727079
#
# Stress axis : x y z
#
# Youngs Moduli (GPa) = 59.80245 59.79514 39.71865
#
# Poissons Ratio (x) = 0.62313 0.20356
# Poissons Ratio (y) = 0.62321 0.20375
# Poissons Ratio (z) = 0.30648 0.30674
#
# Static dielectric constant tensor:
#      x y z
#    x 3.645540 0.000000 0.000000 
#    y 0.000000 3.645550 0.000000 
#    z 0.000000 0.000000 3.304210 
# 
# 
# High freq. dielectric constant tensor:
#      x y z
#    x 1.746570 0.000000 0.000000 
#    y 0.000000 1.746570 0.000000 
#    z 0.000000 0.000000 1.723040 
# 
# From -- ./inp_files/1468.got.cif
#   From: 2010.03.12/outbox.cif.g09.slc.cpg/sg128_1_cif.got.tgz:1468.got - 2010.04.06 17:11:05.
