data_PCOD8314786
_publ_section_title
;
Structure prediction by ZEFSAII (Michael W. Deem and Ramdas Pophale) SiO2 
 PCOD8314786
Probable space group: P 4/M N C
;
_chemical_formula_sum "Si O2"
_cell_formula_units_Z 112
_cell_length_a 14.527404
_cell_length_b 14.527404
_cell_length_c 27.457612
_cell_angle_alpha 90.000000
_cell_angle_beta 90.000000
_cell_angle_gamma 90.000000
_cell_volume 5794.804547
_symmetry_space_group_name_H-M "P 4/M N C"
_symmetry_group_IT_number 128
_symmetry_cell_setting 'tetragonal'
loop_
_space_group_symop_operation_xyz
x,y,z
-y,x,z
-x,-y,z
y,-x,z
1/2+x,1/2-y,1/2-z
1/2-x,1/2+y,1/2-z
1/2+y,1/2+x,1/2-z
1/2-y,1/2-x,1/2-z
-x,-y,-z
y,-x,-z
x,y,-z
-y,x,-z
1/2-x,1/2+y,1/2+z
1/2+x,1/2-y,1/2+z
1/2-y,1/2-x,1/2+z
1/2+y,1/2+x,1/2+z
loop_
_atom_site_type_symbol
_atom_site_label
_atom_site_fract_x
_atom_site_fract_y
_atom_site_fract_z
Si Si1 0.903683 0.549351 0.054734
Si Si2 0.081340 0.870727 0.500000
Si Si3 0.146030 0.961443 0.833512
Si Si4 0.822986 0.830868 0.404643
Si Si5 0.471415 0.649316 0.223018
Si Si6 0.878888 0.091701 0.000000
Si Si7 0.994954 0.749399 0.368610
Si Si8 0.246436 0.371975 0.584587
O O1 0.845840 0.517645 0.102191
O O2 0.917612 0.659038 0.058045
O O3 0.000000 0.500000 0.059689
O O4 0.861543 0.528446 0.000000
O O5 0.119320 0.809263 0.456003
O O6 0.971732 0.873987 0.500000
O O7 0.183116 0.958461 0.778346
O O8 0.229983 0.933971 0.868462
O O9 0.064063 0.889512 0.843987
O O10 0.774846 0.897821 0.366052
O O11 0.775947 0.731968 0.399564
O O12 0.933013 0.825003 0.396783
O O13 0.394636 0.571692 0.213157
O O14 0.459794 0.739745 0.187797
O O15 0.831897 0.131454 0.048117
O O16 0.982127 0.127787 0.000000
#
# Coordination Sequence:
#
# PCOD8314786 Si02
#       8
#    16   8  16  16  16   8  16  16
#     4  10  24  44  58  77 115 171 214 238 283 355
#     4  11  21  32  50  78 117 161 193 229 299 354
#     4   9  19  37  64  90 116 148 187 247 314 367
#     4  11  23  33  52  85 119 159 191 242 289 345
#     4   9  17  33  60  93 122 149 178 230 313 371
#     4  11  23  38  61  90 115 141 190 263 323 355
#     4  11  21  35  59  86 120 151 197 249 292 357
#     4  11  22  39  58  85 119 155 202 245 293 355
#
# _framework density 19.327659000000001
#
# number of rings (size 3 to 8) (size 9 to 14) (size 15 to 20)
#    0.000    1.714    3.571    2.143    4.000    3.714 
#    0.000    2.857    0.000    3.429    0.000    0.000 
#    0.000    0.000    0.000    0.000    0.000    0.000 
#
# Total GULP energy -1387784.490613 kJ/mol
# GULP energy per Si atom -12390.932952 kJ/mol
# Density = 1.928367 g / cm^3
# Si number density = 19.327659 Si / 1000 Ang^3
#
#
#
# Elastic Constant Matrix: (Units=GPa)
#
#
# Indices 1 2 3 4 5 6 
#
# 1 72.8864 33.7644 35.9883 0.0000 0.0000 0.0000
# 2 33.7644 72.8864 35.9883 0.0000 0.0000 0.0000
# 3 35.9883 35.9883 127.0016 0.0000 0.0000 0.0000
# 4 0.0000 0.0000 0.0000 31.6439 0.0000 0.0000
# 5 0.0000 0.0000 0.0000 0.0000 31.6439 0.0000
# 6 0.0000 0.0000 0.0000 0.0000 0.0000 25.5828
#
#
#
# Elastic Compliance Matrix: (Units=1/GPa)
#
#
# Indices 1 2 3 4 5 6 
#
# 1 0.018577 -0.006984 -0.003285 0.000000 0.000000 0.000000
# 2 -0.006984 0.018577 -0.003285 0.000000 0.000000 0.000000
# 3 -0.003285 -0.003285 0.009736 0.000000 0.000000 0.000000
# 4 0.000000 0.000000 0.000000 0.031602 0.000000 0.000000
# 5 0.000000 0.000000 0.000000 0.000000 0.031602 0.000000
# 6 0.000000 0.000000 0.000000 0.000000 0.000000 0.039089
#
#
# Mechanical properties :
#
#
# Convention : Reuss Voigt Hill
#
# Bulk Modulus (GPa) = 50.55127 53.80624 52.17875
# Shear Modulus (GPa) = 27.33959 28.90969 28.12464
#
# Velocity S-wave (km/s) = 3.76511 3.87171 3.81878
# Velocity P-wave (km/s) = 6.71662 6.91999 6.81907
#
# Compressibility (1/GPa) = 0.01978190
#
# Stress axis : x y z
#
# Youngs Moduli (GPa) = 53.82910 53.82910 102.71380
#
# Poissons Ratio (x) = 0.37593 0.33744
# Poissons Ratio (y) = 0.37593 0.33744
# Poissons Ratio (z) = 0.17684 0.17684
#
# Static dielectric constant tensor:
#      x y z
#    x 3.363040 0.000000 0.000000 
#    y 0.000000 3.363040 0.000000 
#    z 0.000000 0.000000 3.690260 
# 
# 
# High freq. dielectric constant tensor:
#      x y z
#    x 1.734760 0.000000 0.000000 
#    y 0.000000 1.734760 0.000000 
#    z 0.000000 0.000000 1.760150 
# 
# From -- ./inp_files/6940.got.cif
#   From: 2010.03.12/outbox.cif.g09.slc.cpg/sg128_4_cif.got.tgz:6940.got - 2010.04.06 17:11:05.
