data_PCOD8314879
_publ_section_title
;
Structure prediction by ZEFSAII (Michael W. Deem and Ramdas Pophale) SiO2 
 PCOD8314879
Probable space group: P 4/N M M
;
_chemical_formula_sum "Si O2"
_cell_formula_units_Z 72
_cell_length_a 21.740199
_cell_length_b 21.740199
_cell_length_c 8.861568
_cell_angle_alpha 90.000000
_cell_angle_beta 90.000000
_cell_angle_gamma 90.000000
_cell_volume 4188.298291
_symmetry_space_group_name_H-M "P 4/N M M"
_symmetry_group_IT_number 129
_symmetry_cell_setting 'tetragonal'
loop_
_space_group_symop_operation_xyz
x,y,z
1/2-y,x,z
1/2-x,1/2-y,z
y,1/2-x,z
1/2+x,-y,-z
-x,1/2+y,-z
1/2+y,1/2+x,-z
-y,-x,-z
-x,-y,-z
1/2+y,-x,-z
1/2+x,1/2+y,-z
-y,1/2+x,-z
1/2-x,y,z
x,1/2-y,z
1/2-y,1/2-x,z
y,x,z
loop_
_atom_site_type_symbol
_atom_site_label
_atom_site_fract_x
_atom_site_fract_y
_atom_site_fract_z
Si Si1 0.423443 0.822785 0.019586
Si Si2 0.681614 0.034239 0.689655
Si Si3 0.581787 0.819582 0.497288
Si Si4 0.577733 0.422268 0.500000
Si Si5 0.110363 0.486313 0.746454
O O1 0.412601 0.750000 0.059470
O O2 0.465166 0.857852 0.142165
O O3 0.357482 0.857482 0.000000
O O4 0.462487 0.829772 0.867501
O O5 0.750000 0.055141 0.647763
O O6 0.639312 0.081115 0.598613
O O7 0.668775 0.965053 0.635129
O O8 0.603659 0.750000 0.488634
O O9 0.641088 0.858912 0.535897
O O10 0.552870 0.836369 0.334647
O O11 0.520791 0.426609 0.613856
O O12 0.060352 0.439649 0.824494
#
# Coordination Sequence:
#
# PCOD8314879 Si02
#       5
#    16  16  16   8  16
#     4  11  22  38  55  77 106 143 182 223 269 315
#     4   9  19  34  51  73 103 136 172 213 261 312
#     4   9  18  33  53  77 106 140 174 213 260 312
#     4  10  17  34  52  75 104 136 166 213 264 316
#     4  10  20  33  53  81 106 135 172 216 268 321
#
# _framework density 17.190753000000001
#
# number of rings (size 3 to 8) (size 9 to 14) (size 15 to 20)
#    0.000    2.222    2.222    1.000    0.000    3.556 
#    0.000    0.000    0.000    0.333    0.000    0.000 
#    0.000    5.333    0.000    0.000    0.000    0.000 
#
# Total GULP energy -892324.017558 kJ/mol
# GULP energy per Si atom -12393.389133 kJ/mol
# Density = 1.715163 g / cm^3
# Si number density = 17.190753 Si / 1000 Ang^3
#
#
#
# Elastic Constant Matrix: (Units=GPa)
#
#
# Indices 1 2 3 4 5 6 
#
# 1 98.0957 71.9368 41.4250 0.0000 0.0000 0.0000
# 2 71.9368 98.0944 41.4239 0.0000 0.0000 0.0000
# 3 41.4250 41.4239 72.0902 0.0000 0.0000 0.0000
# 4 0.0000 0.0000 0.0000 22.4269 0.0000 0.0000
# 5 0.0000 0.0000 0.0000 0.0000 22.4268 0.0000
# 6 0.0000 0.0000 0.0000 0.0000 0.0000 26.3714
#
#
#
# Elastic Compliance Matrix: (Units=1/GPa)
#
#
# Indices 1 2 3 4 5 6 
#
# 1 0.023199 -0.015030 -0.004694 0.000000 0.000000 0.000000
# 2 -0.015030 0.023199 -0.004693 0.000000 0.000000 0.000000
# 3 -0.004694 -0.004693 0.019266 0.000000 0.000000 0.000000
# 4 0.000000 0.000000 0.000000 0.044589 0.000000 0.000000
# 5 0.000000 0.000000 0.000000 0.000000 0.044590 0.000000
# 6 0.000000 0.000000 0.000000 0.000000 0.000000 0.037920
#
#
# Mechanical properties :
#
#
# Convention : Reuss Voigt Hill
#
# Bulk Modulus (GPa) = 59.42628 64.20575 61.81602
# Shear Modulus (GPa) = 20.22606 21.81132 21.01869
#
# Velocity S-wave (km/s) = 3.43383 3.56586 3.50047
# Velocity P-wave (km/s) = 7.09686 7.37454 7.23703
#
# Compressibility (1/GPa) = 0.01682757
#
# Stress axis : x y z
#
# Youngs Moduli (GPa) = 43.10613 43.10608 51.90596
#
# Poissons Ratio (x) = 0.64790 0.24364
# Poissons Ratio (y) = 0.64790 0.24361
# Poissons Ratio (z) = 0.20234 0.20231
#
# Static dielectric constant tensor:
#      x y z
#    x 3.253070 0.000000 0.000000 
#    y 0.000000 3.253070 0.000000 
#    z 0.000000 0.000000 3.252550 
# 
# 
# High freq. dielectric constant tensor:
#      x y z
#    x 1.662580 0.000000 0.000000 
#    y 0.000000 1.662580 0.000000 
#    z 0.000000 0.000000 1.659760 
# 
# From -- ./inp_files/2265.got.cif
#   From: 2010.03.12/outbox.cif.g09.slc.cpg/sg129_2_cif.got.tgz:2265.got - 2010.04.06 17:19:44.
