data_PCOD8314545
_publ_section_title
;
Structure prediction by ZEFSAII (Michael W. Deem and Ramdas Pophale) SiO2 
 PCOD8314545
Probable space group: P 4/M N C
;
_chemical_formula_sum "Si O2"
_cell_formula_units_Z 96
_cell_length_a 25.102897
_cell_length_b 25.102897
_cell_length_c 8.914665
_cell_angle_alpha 90.000000
_cell_angle_beta 90.000000
_cell_angle_gamma 90.000000
_cell_volume 5617.624626
_symmetry_space_group_name_H-M "P 4/M N C"
_symmetry_group_IT_number 128
_symmetry_cell_setting 'tetragonal'
loop_
_space_group_symop_operation_xyz
x,y,z
-y,x,z
-x,-y,z
y,-x,z
1/2+x,1/2-y,1/2-z
1/2-x,1/2+y,1/2-z
1/2+y,1/2+x,1/2-z
1/2-y,1/2-x,1/2-z
-x,-y,-z
y,-x,-z
x,y,-z
-y,x,-z
1/2-x,1/2+y,1/2+z
1/2+x,1/2-y,1/2+z
1/2-y,1/2-x,1/2+z
1/2+y,1/2+x,1/2+z
loop_
_atom_site_type_symbol
_atom_site_label
_atom_site_fract_x
_atom_site_fract_y
_atom_site_fract_z
Si Si1 0.668567 0.246989 0.177837
Si Si2 0.446289 0.233918 0.326998
Si Si3 0.747981 0.059935 0.835752
Si Si4 0.749434 0.326115 0.675764
Si Si5 0.549926 0.874521 0.826174
Si Si6 0.052809 0.377146 0.164856
O O1 0.692120 0.192120 0.250000
O O2 0.606568 0.258884 0.216696
O O3 0.701281 0.296603 0.241450
O O4 0.674186 0.242649 0.000000
O O5 0.448696 0.212776 0.500000
O O6 0.499815 0.270905 0.297285
O O7 0.389172 0.262225 0.301569
O O8 0.448591 0.187901 0.204666
O O9 0.685614 0.049340 0.842978
O O10 0.769050 0.078448 0.000000
O O11 0.805145 0.305145 0.750000
O O12 0.750291 0.311118 0.500000
O O13 0.602038 0.897963 0.750000
O O14 0.497324 0.901016 0.754792
O O15 0.550749 0.886701 0.000000
O O16 0.106720 0.393281 0.250000
O O17 0.053094 0.402454 0.000000
#
# Coordination Sequence:
#
# PCOD8314545 Si02
#       6
#    16  16  16  16  16  16
#     4  11  21  32  48  71  98 129 163 198 237 281
#     4   9  19  34  51  70  92 120 154 191 233 280
#     4   9  18  33  50  68  92 120 151 189 230 277
#     4  10  19  32  50  72  98 128 160 196 239 284
#     4  11  21  32  46  62  83 112 147 187 231 275
#     4  10  20  33  47  63  83 109 146 189 233 277
#
# _framework density 17.089074
#
# number of rings (size 3 to 8) (size 9 to 14) (size 15 to 20)
#    0.000    2.000    0.000    7.000    0.000    7.667 
#    0.000    1.667    0.000    0.000    0.000    0.000 
#    0.000    0.667    0.000    7.667    0.000    3.000 
#
# Total GULP energy -1189372.695014 kJ/mol
# GULP energy per Si atom -12389.298906 kJ/mol
# Density = 1.705018 g / cm^3
# Si number density = 17.089074 Si / 1000 Ang^3
#
#
#
# Elastic Constant Matrix: (Units=GPa)
#
#
# Indices 1 2 3 4 5 6 
#
# 1 82.8537 21.2166 35.8492 0.0000 0.0000 0.0000
# 2 21.2166 82.8557 35.8496 0.0000 0.0000 0.0000
# 3 35.8492 35.8496 138.0382 0.0000 0.0000 0.0000
# 4 0.0000 0.0000 0.0000 20.9977 0.0000 0.0000
# 5 0.0000 0.0000 0.0000 0.0000 20.9965 0.0000
# 6 0.0000 0.0000 0.0000 0.0000 0.0000 18.8887
#
#
#
# Elastic Compliance Matrix: (Units=1/GPa)
#
#
# Indices 1 2 3 4 5 6 
#
# 1 0.013963 -0.002261 -0.003039 0.000000 0.000000 0.000000
# 2 -0.002261 0.013963 -0.003039 0.000000 0.000000 0.000000
# 3 -0.003039 -0.003039 0.008823 0.000000 0.000000 0.000000
# 4 0.000000 0.000000 0.000000 0.047624 0.000000 0.000000
# 5 0.000000 0.000000 0.000000 0.000000 0.047627 0.000000
# 6 0.000000 0.000000 0.000000 0.000000 0.000000 0.052942
#
#
# Mechanical properties :
#
#
# Convention : Reuss Voigt Hill
#
# Bulk Modulus (GPa) = 49.82240 54.39760 52.11000
# Shear Modulus (GPa) = 24.00259 26.23206 25.11733
#
# Velocity S-wave (km/s) = 3.75181 3.92218 3.83794
# Velocity P-wave (km/s) = 6.92719 7.23963 7.08513
#
# Compressibility (1/GPa) = 0.02007129
#
# Stress axis : x y z
#
# Youngs Moduli (GPa) = 71.61593 71.61772 113.34020
#
# Poissons Ratio (x) = 0.16190 0.34447
# Poissons Ratio (y) = 0.16189 0.34447
# Poissons Ratio (z) = 0.21766 0.21766
#
# Static dielectric constant tensor:
#      x y z
#    x 3.187760 0.000000 0.000000 
#    y 0.000000 3.187760 0.000000 
#    z 0.000000 0.000000 3.331830 
# 
# 
# High freq. dielectric constant tensor:
#      x y z
#    x 1.631870 0.000000 0.000000 
#    y 0.000000 1.631870 0.000000 
#    z 0.000000 0.000000 1.673470 
# 
# From -- ./inp_files/1597.got.cif
#   From: 2010.03.12/outbox.cif.g09.slc.cpg/sg128_1_cif.got.tgz:1597.got - 2010.04.06 17:11:05.
