data_PCOD8314961
_publ_section_title
;
Structure prediction by ZEFSAII (Michael W. Deem and Ramdas Pophale) SiO2 
 PCOD8314961
Probable space group: P 4/N M M
;
_chemical_formula_sum "Si O2"
_cell_formula_units_Z 128
_cell_length_a 20.975826
_cell_length_b 20.975826
_cell_length_c 17.383850
_cell_angle_alpha 90.000000
_cell_angle_beta 90.000000
_cell_angle_gamma 90.000000
_cell_volume 7648.638047
_symmetry_space_group_name_H-M "P 4/N M M"
_symmetry_group_IT_number 129
_symmetry_cell_setting 'tetragonal'
loop_
_space_group_symop_operation_xyz
x,y,z
1/2-y,x,z
1/2-x,1/2-y,z
y,1/2-x,z
1/2+x,-y,-z
-x,1/2+y,-z
1/2+y,1/2+x,-z
-y,-x,-z
-x,-y,-z
1/2+y,-x,-z
1/2+x,1/2+y,-z
-y,1/2+x,-z
1/2-x,y,z
x,1/2-y,z
1/2-y,1/2-x,z
y,x,z
loop_
_atom_site_type_symbol
_atom_site_label
_atom_site_fract_x
_atom_site_fract_y
_atom_site_fract_z
Si Si1 0.180280 0.841558 0.910744
Si Si2 0.824346 0.568715 0.593505
Si Si3 0.005344 0.601511 0.471385
Si Si4 0.181722 0.544352 0.132554
Si Si5 0.903227 0.005675 0.301371
Si Si6 0.104055 0.002805 0.995726
Si Si7 0.893087 0.506244 0.728339
Si Si8 0.321879 0.516576 0.850744
O O1 0.250000 0.811284 0.890149
O O2 0.121050 0.809144 0.868080
O O3 0.181810 0.914349 0.887331
O O4 0.166777 0.833224 0.000000
O O5 0.750000 0.587712 0.589256
O O6 0.866914 0.633087 0.589809
O O7 0.841600 0.520322 0.524817
O O8 0.837436 0.529308 0.671558
O O9 0.074293 0.574293 0.500000
O O10 0.006718 0.630715 0.384872
O O11 0.956765 0.543236 0.473959
O O12 0.250000 0.514678 0.153746
O O13 0.131106 0.527194 0.195876
O O14 0.162101 0.512433 0.052216
O O15 0.851839 0.017276 0.234506
O O16 0.955270 0.061330 0.312014
O O17 0.938662 0.938662 0.284361
O O18 0.064602 0.064602 0.023040
O O19 0.131788 0.019807 0.910756
O O20 0.058898 0.941103 0.000000
O O21 0.932497 0.567504 0.755340
O O22 0.250000 0.487422 0.845823
#
# Coordination Sequence:
#
# PCOD8314961 Si02
#       8
#    16  16  16  16  16  16  16  16
#     4  11  21  33  46  63  93 131 169 203 239 290
#     4  10  20  34  53  78 108 140 173 210 257 315
#     4   9  16  30  52  77 100 128 164 207 254 303
#     4  12  21  32  48  70  97 129 172 210 247 297
#     4  10  18  31  53  76 101 130 162 204 256 303
#     4  11  20  33  50  68  92 123 164 208 257 302
#     4  10  19  33  51  74 102 131 167 210 261 305
#     4  11  20  32  47  69 101 131 162 200 245 301
#
# _framework density 16.735005000000001
#
# number of rings (size 3 to 8) (size 9 to 14) (size 15 to 20)
#    0.000    1.500    5.000    1.875    0.000    3.500 
#    0.000    0.000    0.000    0.000    0.000    0.000 
#    0.000   21.000    0.000    0.000    0.000    0.000 
#
# Total GULP energy -1586171.570554 kJ/mol
# GULP energy per Si atom -12391.965395 kJ/mol
# Density = 1.669692 g / cm^3
# Si number density = 16.735005 Si / 1000 Ang^3
#
#
#
# Elastic Constant Matrix: (Units=GPa)
#
#
# Indices 1 2 3 4 5 6 
#
# 1 58.0899 47.2628 35.9894 0.0000 0.0000 0.0000
# 2 47.2628 58.0885 35.9888 0.0000 0.0000 0.0000
# 3 35.9894 35.9888 102.6127 0.0000 0.0000 0.0000
# 4 0.0000 0.0000 0.0000 9.3957 0.0000 0.0000
# 5 0.0000 0.0000 0.0000 0.0000 9.3953 0.0000
# 6 0.0000 0.0000 0.0000 0.0000 0.0000 7.8575
#
#
#
# Elastic Compliance Matrix: (Units=1/GPa)
#
#
# Indices 1 2 3 4 5 6 
#
# 1 0.052425 -0.039942 -0.004378 0.000000 0.000000 0.000000
# 2 -0.039942 0.052426 -0.004378 0.000000 0.000000 0.000000
# 3 -0.004378 -0.004378 0.012817 0.000000 0.000000 0.000000
# 4 0.000000 0.000000 0.000000 0.106431 0.000000 0.000000
# 5 0.000000 0.000000 0.000000 0.000000 0.106436 0.000000
# 6 0.000000 0.000000 0.000000 0.000000 0.000000 0.127267
#
#
# Mechanical properties :
#
#
# Convention : Reuss Voigt Hill
#
# Bulk Modulus (GPa) = 49.33367 50.80814 50.07091
# Shear Modulus (GPa) = 8.89751 11.96638 10.43195
#
# Velocity S-wave (km/s) = 2.30830 2.67694 2.49943
# Velocity P-wave (km/s) = 6.05373 6.32305 6.18986
#
# Compressibility (1/GPa) = 0.02027013
#
# Stress axis : x y z
#
# Youngs Moduli (GPa) = 19.07501 19.07460 78.02440
#
# Poissons Ratio (x) = 0.76188 0.34162
# Poissons Ratio (y) = 0.76189 0.34160
# Poissons Ratio (z) = 0.08352 0.08351
#
# Static dielectric constant tensor:
#      x y z
#    x 3.100300 0.000000 0.000000 
#    y 0.000000 3.100300 0.000000 
#    z 0.000000 0.000000 3.205630 
# 
# 
# High freq. dielectric constant tensor:
#      x y z
#    x 1.628600 0.000000 0.000000 
#    y 0.000000 1.628600 0.000000 
#    z 0.000000 0.000000 1.649890 
# 
# From -- ./inp_files/6106.got.cif
#   From: 2010.03.12/outbox.cif.g09.slc.cpg/sg129_4_cif.got.tgz:6106.got - 2010.04.06 17:19:44.
