data_PCOD8314000
_publ_section_title
;
Structure prediction by ZEFSAII (Michael W. Deem and Ramdas Pophale) SiO2 
 PCOD8314000
Probable space group: P 4/M B M
;
_chemical_formula_sum "Si O2"
_cell_formula_units_Z 96
_cell_length_a 24.512555
_cell_length_b 24.512555
_cell_length_c 9.106999
_cell_angle_alpha 90.000000
_cell_angle_beta 90.000000
_cell_angle_gamma 90.000000
_cell_volume 5472.080166
_symmetry_space_group_name_H-M "P 4/M B M"
_symmetry_group_IT_number 127
_symmetry_cell_setting 'tetragonal'
loop_
_space_group_symop_operation_xyz
x,y,z
-y,x,z
-x,-y,z
y,-x,z
1/2+x,1/2-y,-z
1/2-x,1/2+y,-z
1/2+y,1/2+x,-z
1/2-y,1/2-x,-z
-x,-y,-z
y,-x,-z
x,y,-z
-y,x,-z
1/2-x,1/2+y,z
1/2+x,1/2-y,z
1/2-y,1/2-x,z
1/2+y,1/2+x,z
loop_
_atom_site_type_symbol
_atom_site_label
_atom_site_fract_x
_atom_site_fract_y
_atom_site_fract_z
Si Si1 0.338779 0.014567 0.833320
Si Si2 0.910933 0.675674 0.666935
Si Si3 0.300073 0.421205 0.329413
Si Si4 0.384593 0.115408 0.326246
Si Si5 0.141934 0.810706 0.325906
Si Si6 0.710580 0.470651 0.168037
Si Si7 0.702894 0.797107 0.674041
O O1 0.370576 0.056101 0.731579
O O2 0.275041 0.025326 0.817994
O O3 0.352516 0.954484 0.774172
O O4 0.359023 0.020121 0.000000
O O5 0.931671 0.668761 0.500000
O O6 0.852703 0.647298 0.691173
O O7 0.903142 0.738637 0.706021
O O8 0.308586 0.434642 0.500000
O O9 0.335870 0.369773 0.279181
O O10 0.316753 0.475388 0.239417
O O11 0.385146 0.114855 0.500000
O O12 0.340854 0.159147 0.265928
O O13 0.135025 0.805196 0.500000
O O14 0.082972 0.807315 0.253530
O O15 0.183550 0.762875 0.269419
O O16 0.691240 0.466791 0.000000
O O17 0.703434 0.796567 0.500000
#
# Coordination Sequence:
#
# PCOD8314000 Si02
#       7
#    16  16  16   8  16  16   8
#     4  10  20  33  49  71 100 136 175 213 255 307
#     4   9  18  33  52  74 100 133 173 214 256 305
#     4   9  19  33  54  80 106 137 171 211 256 307
#     4  11  19  31  52  76 101 133 169 216 263 307
#     4  10  19  33  54  81 110 137 171 213 258 307
#     4  10  20  34  52  73 104 142 177 210 249 305
#     4   9  18  29  49  80 110 135 163 206 259 306
#
# _framework density 17.543603000000001
#
# number of rings (size 3 to 8) (size 9 to 14) (size 15 to 20)
#    0.000    2.333    1.667    1.250    1.167    2.333 
#    0.000    0.833    0.000    3.000    0.000    3.500 
#    0.000    0.000    0.000    0.000    0.000    0.000 
#
# Total GULP energy -1190302.549765 kJ/mol
# GULP energy per Si atom -12398.984893 kJ/mol
# Density = 1.750367 g / cm^3
# Si number density = 17.543603 Si / 1000 Ang^3
#
#
#
# Elastic Constant Matrix: (Units=GPa)
#
#
# Indices 1 2 3 4 5 6 
#
# 1 98.2996 61.4011 42.0032 0.0000 0.0000 0.0000
# 2 61.4011 98.2998 42.0035 0.0000 0.0000 0.0000
# 3 42.0032 42.0035 70.7961 0.0000 0.0000 0.0000
# 4 0.0000 0.0000 0.0000 20.1736 0.0000 0.0000
# 5 0.0000 0.0000 0.0000 0.0000 20.1737 0.0000
# 6 0.0000 0.0000 0.0000 0.0000 0.0000 25.5407
#
#
#
# Elastic Compliance Matrix: (Units=1/GPa)
#
#
# Indices 1 2 3 4 5 6 
#
# 1 0.018102 -0.008999 -0.005400 0.000000 0.000000 0.000000
# 2 -0.008999 0.018102 -0.005401 0.000000 0.000000 0.000000
# 3 -0.005400 -0.005401 0.020533 0.000000 0.000000 0.000000
# 4 0.000000 0.000000 0.000000 0.049570 0.000000 0.000000
# 5 0.000000 0.000000 0.000000 0.000000 0.049570 0.000000
# 6 0.000000 0.000000 0.000000 0.000000 0.000000 0.039153
#
#
# Mechanical properties :
#
#
# Convention : Reuss Voigt Hill
#
# Bulk Modulus (GPa) = 58.35574 62.02345 60.18960
# Shear Modulus (GPa) = 20.80363 21.31010 21.05686
#
# Velocity S-wave (km/s) = 3.44732 3.48903 3.46823
# Velocity P-wave (km/s) = 7.01290 7.18761 7.10079
#
# Compressibility (1/GPa) = 0.01713627
#
# Stress axis : x y z
#
# Youngs Moduli (GPa) = 55.24276 55.24269 48.70128
#
# Poissons Ratio (x) = 0.49715 0.26301
# Poissons Ratio (y) = 0.49715 0.26302
# Poissons Ratio (z) = 0.29834 0.29834
#
# Static dielectric constant tensor:
#      x y z
#    x 3.264840 0.000000 0.000000 
#    y 0.000000 3.264840 0.000000 
#    z 0.000000 0.000000 3.255280 
# 
# 
# High freq. dielectric constant tensor:
#      x y z
#    x 1.669320 0.000000 0.000000 
#    y 0.000000 1.669320 0.000000 
#    z 0.000000 0.000000 1.671580 
# 
# From -- ./inp_files/2111.got.cif
#   From: 2010.03.12/outbox.cif.g09.slc.cpg/sg127_2_cif.got.tgz:2111.got - 2010.04.06 17:03:15.
