data_PCOD8314098
_publ_section_title
;
Structure prediction by ZEFSAII (Michael W. Deem and Ramdas Pophale) SiO2 
 PCOD8314098
Probable space group: P 4/M B M
;
_chemical_formula_sum "Si O2"
_cell_formula_units_Z 128
_cell_length_a 20.850271
_cell_length_b 20.850271
_cell_length_c 17.066682
_cell_angle_alpha 90.000000
_cell_angle_beta 90.000000
_cell_angle_gamma 90.000000
_cell_volume 7419.463532
_symmetry_space_group_name_H-M "P 4/M B M"
_symmetry_group_IT_number 127
_symmetry_cell_setting 'tetragonal'
loop_
_space_group_symop_operation_xyz
x,y,z
-y,x,z
-x,-y,z
y,-x,z
1/2+x,1/2-y,-z
1/2-x,1/2+y,-z
1/2+y,1/2+x,-z
1/2-y,1/2-x,-z
-x,-y,-z
y,-x,-z
x,y,-z
-y,x,-z
1/2-x,1/2+y,z
1/2+x,1/2-y,z
1/2-y,1/2-x,z
1/2+y,1/2+x,z
loop_
_atom_site_type_symbol
_atom_site_label
_atom_site_fract_x
_atom_site_fract_y
_atom_site_fract_z
Si Si1 0.176779 0.959079 0.592072
Si Si2 0.394320 0.291748 0.087719
Si Si3 0.074253 0.674253 0.171879
Si Si4 0.139133 0.086097 0.671290
Si Si5 0.318948 0.922042 0.408875
Si Si6 0.234360 0.166451 0.758828
Si Si7 0.999656 0.603456 0.288432
Si Si8 0.460396 0.403614 0.162290
O O1 0.167707 0.953963 0.500000
O O2 0.116136 0.923375 0.630915
O O3 0.244168 0.925183 0.617086
O O4 0.174350 0.034082 0.616101
O O5 0.436564 0.226706 0.103136
O O6 0.336969 0.296645 0.152597
O O7 0.441360 0.351794 0.097316
O O8 0.365775 0.290366 0.000000
O O9 0.114434 0.614434 0.136606
O O10 0.115001 0.707902 0.241873
O O11 0.009255 0.650019 0.213189
O O12 0.185276 0.146508 0.690680
O O13 0.122434 0.048776 0.750404
O O14 0.325094 0.938830 0.500000
O O15 0.352190 0.852190 0.391209
O O16 0.356824 0.978091 0.364113
O O17 0.261929 0.238072 0.743041
O O18 0.945149 0.554852 0.261331
O O19 0.065584 0.565584 0.308580
O O20 0.534511 0.417150 0.148797
#
# Coordination Sequence:
#
# PCOD8314098 Si02
#       8
#    16  16  16  16  16  16  16  16
#     4  11  23  36  52  75 104 136 177 224 267 314
#     4   9  18  31  50  75 101 133 167 205 255 309
#     4   8  15  27  46  72 100 127 158 202 248 295
#     4  11  20  34  55  75 102 135 174 218 261 313
#     4   9  19  34  50  71 102 139 175 215 265 316
#     4   8  17  31  51  77 100 128 166 209 253 301
#     4   9  16  27  47  74 101 130 168 213 256 304
#     4  10  20  34  51  74 102 135 169 213 265 310
#
# _framework density 17.251920999999999
#
# number of rings (size 3 to 8) (size 9 to 14) (size 15 to 20)
#    0.750    1.875    1.250    1.125    0.000    2.500 
#    0.000    2.500    0.000    2.250    0.000    1.750 
#    0.000    0.000    0.000    0.000    0.000    0.000 
#
# Total GULP energy -1585830.108779 kJ/mol
# GULP energy per Si atom -12389.297725 kJ/mol
# Density = 1.721265 g / cm^3
# Si number density = 17.251921 Si / 1000 Ang^3
#
#
#
# Elastic Constant Matrix: (Units=GPa)
#
#
# Indices 1 2 3 4 5 6 
#
# 1 63.0600 54.5848 31.4672 0.0000 0.0000 0.0000
# 2 54.5848 63.0600 31.4672 0.0000 0.0000 0.0000
# 3 31.4672 31.4672 63.0941 0.0000 0.0000 0.0000
# 4 0.0000 0.0000 0.0000 14.9791 0.0000 0.0000
# 5 0.0000 0.0000 0.0000 0.0000 14.9791 0.0000
# 6 0.0000 0.0000 0.0000 0.0000 0.0000 19.7140
#
#
#
# Elastic Compliance Matrix: (Units=1/GPa)
#
#
# Indices 1 2 3 4 5 6 
#
# 1 0.064792 -0.053199 -0.005782 0.000000 0.000000 0.000000
# 2 -0.053199 0.064792 -0.005782 0.000000 0.000000 0.000000
# 3 -0.005782 -0.005782 0.021617 0.000000 0.000000 0.000000
# 4 0.000000 0.000000 0.000000 0.066760 0.000000 0.000000
# 5 0.000000 0.000000 0.000000 0.000000 0.066760 0.000000
# 6 0.000000 0.000000 0.000000 0.000000 0.000000 0.050725
#
#
# Mechanical properties :
#
#
# Convention : Reuss Voigt Hill
#
# Bulk Modulus (GPa) = 46.13537 47.13915 46.63726
# Shear Modulus (GPa) = 10.58886 14.71413 12.65149
#
# Velocity S-wave (km/s) = 2.48014 2.92361 2.71096
# Velocity P-wave (km/s) = 5.91622 6.22736 6.07378
#
# Compressibility (1/GPa) = 0.02167534
#
# Stress axis : x y z
#
# Youngs Moduli (GPa) = 15.43406 15.43406 46.26068
#
# Poissons Ratio (x) = 0.82107 0.26748
# Poissons Ratio (y) = 0.82107 0.26748
# Poissons Ratio (z) = 0.08924 0.08924
#
# Static dielectric constant tensor:
#      x y z
#    x 3.230360 0.000000 0.000000 
#    y 0.000000 3.230360 0.000000 
#    z 0.000000 0.000000 2.952940 
# 
# 
# High freq. dielectric constant tensor:
#      x y z
#    x 1.658500 0.000000 0.000000 
#    y 0.000000 1.658500 0.000000 
#    z 0.000000 0.000000 1.645150 
# 
# From -- ./inp_files/5420.got.cif
#   From: 2010.03.12/outbox.cif.g09.slc.cpg/sg127_3_cif.got.tgz:5420.got - 2010.04.06 17:03:15.
