data_PCOD8314434
_publ_section_title
;
Structure prediction by ZEFSAII (Michael W. Deem and Ramdas Pophale) SiO2 
 PCOD8314434
Probable space group: P 4/M B M
;
_chemical_formula_sum "Si O2"
_cell_formula_units_Z 56
_cell_length_a 11.865297
_cell_length_b 11.865297
_cell_length_c 19.276712
_cell_angle_alpha 90.000000
_cell_angle_beta 90.000000
_cell_angle_gamma 90.000000
_cell_volume 2713.877160
_symmetry_space_group_name_H-M "P 4/M B M"
_symmetry_group_IT_number 127
_symmetry_cell_setting 'tetragonal'
loop_
_space_group_symop_operation_xyz
x,y,z
-y,x,z
-x,-y,z
y,-x,z
1/2+x,1/2-y,-z
1/2-x,1/2+y,-z
1/2+y,1/2+x,-z
1/2-y,1/2-x,-z
-x,-y,-z
y,-x,-z
x,y,-z
-y,x,-z
1/2-x,1/2+y,z
1/2+x,1/2-y,z
1/2-y,1/2-x,z
1/2+y,1/2+x,z
loop_
_atom_site_type_symbol
_atom_site_label
_atom_site_fract_x
_atom_site_fract_y
_atom_site_fract_z
Si Si1 0.495347 0.684915 0.922210
Si Si2 0.593083 0.093083 0.580635
Si Si3 0.681176 0.996962 0.787646
Si Si4 0.681095 0.525406 0.657329
O O1 0.386505 0.607960 0.910450
O O2 0.492828 0.786293 0.868064
O O3 0.493953 0.735491 0.000000
O O4 0.613647 0.113647 0.500000
O O5 0.547122 0.208305 0.612680
O O6 0.500000 0.000000 0.595905
O O7 0.625997 0.874004 0.773898
O O8 0.591187 0.091187 0.768448
O O9 0.789134 0.018246 0.739018
O O10 0.594712 0.625421 0.639364
#
# Coordination Sequence:
#
# PCOD8314434 Si02
#       4
#    16   8  16  16
#     4   9  19  36  56  80 114 158 210 267 325 385
#     4  11  26  46  72 103 138 176 214 264 326 390
#     4  11  23  37  58  88 125 165 212 268 328 387
#     4  11  25  44  70 101 133 174 223 271 324 389
#
# _framework density 20.634684
#
# number of rings (size 3 to 8) (size 9 to 14) (size 15 to 20)
#    0.000    1.571    1.429    3.429    4.000    8.000 
#    0.000    5.714    0.000    0.000    0.000    0.000 
#    0.000    0.000    0.000    0.000    0.000    0.000 
#
# Total GULP energy -694502.845502 kJ/mol
# GULP energy per Si atom -12401.836527 kJ/mol
# Density = 2.058772 g / cm^3
# Si number density = 20.634684 Si / 1000 Ang^3
#
#
#
# Elastic Constant Matrix: (Units=GPa)
#
#
# Indices 1 2 3 4 5 6 
#
# 1 104.4741 43.5929 60.7410 0.0000 0.0000 0.0000
# 2 43.5929 104.4741 60.7410 0.0000 0.0000 0.0000
# 3 60.7410 60.7410 123.4865 0.0000 0.0000 0.0000
# 4 0.0000 0.0000 0.0000 30.2553 0.0000 0.0000
# 5 0.0000 0.0000 0.0000 0.0000 30.2553 0.0000
# 6 0.0000 0.0000 0.0000 0.0000 0.0000 21.1554
#
#
#
# Elastic Compliance Matrix: (Units=1/GPa)
#
#
# Indices 1 2 3 4 5 6 
#
# 1 0.013874 -0.002551 -0.005570 0.000000 0.000000 0.000000
# 2 -0.002551 0.013874 -0.005570 0.000000 0.000000 0.000000
# 3 -0.005570 -0.005570 0.013577 0.000000 0.000000 0.000000
# 4 0.000000 0.000000 0.000000 0.033052 0.000000 0.000000
# 5 0.000000 0.000000 0.000000 0.000000 0.033052 0.000000
# 6 0.000000 0.000000 0.000000 0.000000 0.000000 0.047269
#
#
# Mechanical properties :
#
#
# Convention : Reuss Voigt Hill
#
# Bulk Modulus (GPa) = 71.70981 73.62053 72.66517
# Shear Modulus (GPa) = 26.77672 27.49053 27.13362
#
# Velocity S-wave (km/s) = 3.60621 3.65396 3.63016
# Velocity P-wave (km/s) = 7.22268 7.31829 7.27064
#
# Compressibility (1/GPa) = 0.01394509
#
# Stress axis : x y z
#
# Youngs Moduli (GPa) = 72.07487 72.07487 73.65129
#
# Poissons Ratio (x) = 0.18386 0.41023
# Poissons Ratio (y) = 0.18386 0.41023
# Poissons Ratio (z) = 0.40145 0.40145
#
# Static dielectric constant tensor:
#      x y z
#    x 3.710280 0.000000 0.000000 
#    y 0.000000 3.710280 0.000000 
#    z 0.000000 0.000000 3.753240 
# 
# 
# High freq. dielectric constant tensor:
#      x y z
#    x 1.809080 0.000000 0.000000 
#    y 0.000000 1.809080 0.000000 
#    z 0.000000 0.000000 1.810930 
# 
# From -- ./inp_files/5455.got.cif
#   From: 2010.03.12/outbox.cif.g09.slc.cpg/sg127_3_cif.got.tgz:5455.got - 2010.04.06 17:03:15.
