data_PCOD8314238
_publ_section_title
;
Structure prediction by ZEFSAII (Michael W. Deem and Ramdas Pophale) SiO2 
 PCOD8314238
Probable space group: P 4/M B M
;
_chemical_formula_sum "Si O2"
_cell_formula_units_Z 64
_cell_length_a 20.780269
_cell_length_b 20.780269
_cell_length_c 7.692565
_cell_angle_alpha 90.000000
_cell_angle_beta 90.000000
_cell_angle_gamma 90.000000
_cell_volume 3321.800185
_symmetry_space_group_name_H-M "P 4/M B M"
_symmetry_group_IT_number 127
_symmetry_cell_setting 'tetragonal'
loop_
_space_group_symop_operation_xyz
x,y,z
-y,x,z
-x,-y,z
y,-x,z
1/2+x,1/2-y,-z
1/2-x,1/2+y,-z
1/2+y,1/2+x,-z
1/2-y,1/2-x,-z
-x,-y,-z
y,-x,-z
x,y,-z
-y,x,-z
1/2-x,1/2+y,z
1/2+x,1/2-y,z
1/2-y,1/2-x,z
1/2+y,1/2+x,z
loop_
_atom_site_type_symbol
_atom_site_label
_atom_site_fract_x
_atom_site_fract_y
_atom_site_fract_z
Si Si1 0.008029 0.898431 0.293802
Si Si2 0.251908 0.518572 0.698475
Si Si3 0.270824 0.874334 0.693500
Si Si4 0.206115 0.813596 0.000000
Si Si5 0.104111 0.712128 0.000000
O O1 0.005940 0.897720 0.500000
O O2 0.068521 0.941361 0.227000
O O3 0.013318 0.825045 0.227679
O O4 0.251018 0.545216 0.500000
O O5 0.216592 0.449901 0.706782
O O6 0.208982 0.562991 0.823210
O O7 0.246249 0.856148 0.500000
O O8 0.337387 0.837387 0.737615
O O9 0.214346 0.855676 0.826298
O O10 0.136597 0.782178 0.000000
O O11 0.257642 0.757642 0.000000
O O12 0.152885 0.652885 0.000000
#
# Coordination Sequence:
#
# PCOD8314238 Si02
#       5
#    16  16  16   8   8
#     4   8  15  29  49  76 111 147 183 222 263 317
#     4  10  21  36  58  82 108 149 188 230 282 331
#     4   9  18  34  58  86 111 140 185 235 284 335
#     4   9  19  34  52  76 111 147 176 223 277 324
#     4  11  25  40  53  78 114 148 190 234 274 333
#
# _framework density 19.266662
#
# number of rings (size 3 to 8) (size 9 to 14) (size 15 to 20)
#    0.000    2.750    0.000    1.500    3.500    1.500 
#    0.000    2.500    0.000    3.000    0.000    3.500 
#    0.000    0.000    0.000    0.000    0.000    0.000 
#
# Total GULP energy -793295.790224 kJ/mol
# GULP energy per Si atom -12395.246722 kJ/mol
# Density = 1.922281 g / cm^3
# Si number density = 19.266662 Si / 1000 Ang^3
#
#
#
# Elastic Constant Matrix: (Units=GPa)
#
#
# Indices 1 2 3 4 5 6 
#
# 1 82.6623 40.8909 43.5006 0.0000 0.0000 0.0000
# 2 40.8909 82.6623 43.5006 0.0000 0.0000 0.0000
# 3 43.5006 43.5006 115.2395 0.0000 0.0000 0.0000
# 4 0.0000 0.0000 0.0000 -25.1843 0.0000 0.0000
# 5 0.0000 0.0000 0.0000 0.0000 -25.1843 0.0000
# 6 0.0000 0.0000 0.0000 0.0000 0.0000 27.7195
#
#
#
# Elastic Compliance Matrix: (Units=1/GPa)
#
#
# Indices 1 2 3 4 5 6 
#
# 1 0.017482 -0.006458 -0.004161 0.000000 0.000000 0.000000
# 2 -0.006458 0.017482 -0.004161 0.000000 0.000000 0.000000
# 3 -0.004161 -0.004161 0.011819 0.000000 0.000000 0.000000
# 4 0.000000 0.000000 0.000000 -0.039707 0.000000 0.000000
# 5 0.000000 0.000000 0.000000 0.000000 -0.039707 0.000000
# 6 0.000000 0.000000 0.000000 0.000000 0.000000 0.036076
#
#
# Mechanical properties :
#
#
# Convention : Reuss Voigt Hill
#
# Bulk Modulus (GPa) = 58.06600 59.59428 58.83014
# Shear Modulus (GPa) = 129.04619 5.64831 67.34725
#
# Velocity S-wave (km/s) = 8.19295 1.71406 5.91872
# Velocity P-wave (km/s) = 10.94087 5.90896 8.79257
#
# Compressibility (1/GPa) = 0.01722178
#
# Stress axis : x y z
#
# Youngs Moduli (GPa) = 57.20216 57.20216 84.60806
#
# Poissons Ratio (x) = 0.36941 0.35208
# Poissons Ratio (y) = 0.36941 0.35208
# Poissons Ratio (z) = 0.23804 0.23804
#
# Static dielectric constant tensor:
#      x y z
#    x 3.455170 0.000000 0.000000 
#    y 0.000000 3.455170 0.000000 
#    z 0.000000 0.000000 3.717760 
# 
# 
# High freq. dielectric constant tensor:
#      x y z
#    x 1.732200 0.000000 0.000000 
#    y 0.000000 1.732200 0.000000 
#    z 0.000000 0.000000 1.751440 
# 
# From -- ./inp_files/1446.got.cif
#   From: 2010.03.12/outbox.cif.g09.slc.cpg/sg127_1_cif.got.tgz:1446.got - 2010.04.06 17:03:15.
