data_PCOD8314220
_publ_section_title
;
Structure prediction by ZEFSAII (Michael W. Deem and Ramdas Pophale) SiO2 
 PCOD8314220
Probable space group: P 4/M B M
;
_chemical_formula_sum "Si O2"
_cell_formula_units_Z 92
_cell_length_a 14.282718
_cell_length_b 14.282718
_cell_length_c 22.121133
_cell_angle_alpha 90.000000
_cell_angle_beta 90.000000
_cell_angle_gamma 90.000000
_cell_volume 4512.623388
_symmetry_space_group_name_H-M "P 4/M B M"
_symmetry_group_IT_number 127
_symmetry_cell_setting 'tetragonal'
loop_
_space_group_symop_operation_xyz
x,y,z
-y,x,z
-x,-y,z
y,-x,z
1/2+x,1/2-y,-z
1/2-x,1/2+y,-z
1/2+y,1/2+x,-z
1/2-y,1/2-x,-z
-x,-y,-z
y,-x,-z
x,y,-z
-y,x,-z
1/2-x,1/2+y,z
1/2+x,1/2-y,z
1/2-y,1/2-x,z
1/2+y,1/2+x,z
loop_
_atom_site_type_symbol
_atom_site_label
_atom_site_fract_x
_atom_site_fract_y
_atom_site_fract_z
Si Si1 0.896364 0.760926 0.124341
Si Si2 0.091796 0.591796 0.500000
Si Si3 0.068731 0.568731 0.364873
Si Si4 0.099395 0.753563 0.182754
Si Si5 0.718214 0.062644 0.500000
Si Si6 0.444649 0.269044 0.320029
Si Si7 0.556282 0.354007 0.000000
Si Si8 0.718129 0.630075 0.373993
O O1 0.832348 0.667653 0.126875
O O2 0.842508 0.849192 0.153231
O O3 0.994153 0.740711 0.158292
O O4 0.919936 0.788566 0.056264
O O5 0.053944 0.553944 0.436406
O O6 0.199123 0.551386 0.500000
O O7 0.165929 0.533890 0.340968
O O8 0.000000 0.500000 0.330505
O O9 0.158590 0.658590 0.170454
O O10 0.096678 0.776882 0.253421
O O11 0.618517 0.118517 0.500000
O O12 0.777936 0.090393 0.558361
O O13 0.370202 0.302270 0.369622
O O14 0.548239 0.312292 0.326607
O O15 0.619657 0.446920 0.000000
O O16 0.812891 0.687110 0.356826
#
# Coordination Sequence:
#
# PCOD8314220 Si02
#       8
#    16   4   8  16   8  16   8  16
#     4  11  24  43  70 101 140 181 219 282 338 387
#     4  12  21  38  64 100 126 156 224 293 338 405
#     4  12  23  38  68  98 124 169 221 287 341 391
#     4  11  24  43  65  98 136 177 226 274 337 405
#     4  10  21  35  60  89 122 159 208 273 346 400
#     4  12  24  43  65  91 134 173 223 272 334 417
#     4  11  21  42  74 103 136 178 236 277 316 396
#     4  11  24  42  61  92 125 168 219 278 343 407
#
# _framework density 20.387253000000001
#
# number of rings (size 3 to 8) (size 9 to 14) (size 15 to 20)
#    0.000    0.783    5.217    2.609    0.000    5.217 
#    0.000    2.174    0.000    2.087    0.000    0.000 
#    0.000    0.000    0.000    0.000    0.000    0.000 
#
# Total GULP energy -1139796.166966 kJ/mol
# GULP energy per Si atom -12389.088771 kJ/mol
# Density = 2.034085 g / cm^3
# Si number density = 20.387253 Si / 1000 Ang^3
#
#
#
# Elastic Constant Matrix: (Units=GPa)
#
#
# Indices 1 2 3 4 5 6 
#
# 1 124.9782 42.5555 48.1458 0.0000 0.0000 0.0000
# 2 42.5555 124.9782 48.1458 0.0000 0.0000 0.0000
# 3 48.1458 48.1458 118.8893 0.0000 0.0000 0.0000
# 4 0.0000 0.0000 0.0000 29.7038 0.0000 0.0000
# 5 0.0000 0.0000 0.0000 0.0000 29.7038 0.0000
# 6 0.0000 0.0000 0.0000 0.0000 0.0000 33.3391
#
#
#
# Elastic Compliance Matrix: (Units=1/GPa)
#
#
# Indices 1 2 3 4 5 6 
#
# 1 0.009956 -0.002176 -0.003150 0.000000 0.000000 0.000000
# 2 -0.002176 0.009956 -0.003150 0.000000 0.000000 0.000000
# 3 -0.003150 -0.003150 0.010963 0.000000 0.000000 0.000000
# 4 0.000000 0.000000 0.000000 0.033666 0.000000 0.000000
# 5 0.000000 0.000000 0.000000 0.000000 0.033666 0.000000
# 6 0.000000 0.000000 0.000000 0.000000 0.000000 0.029995
#
#
# Mechanical properties :
#
#
# Convention : Reuss Voigt Hill
#
# Bulk Modulus (GPa) = 71.83750 71.83776 71.83763
# Shear Modulus (GPa) = 33.37862 33.88257 33.63060
#
# Velocity S-wave (km/s) = 4.05066 4.08112 4.06592
# Velocity P-wave (km/s) = 7.56241 7.58423 7.57333
#
# Compressibility (1/GPa) = 0.01392031
#
# Stress axis : x y z
#
# Youngs Moduli (GPa) = 100.44042 100.44042 91.21707
#
# Poissons Ratio (x) = 0.21860 0.28738
# Poissons Ratio (y) = 0.21860 0.28738
# Poissons Ratio (z) = 0.31644 0.31644
#
# Static dielectric constant tensor:
#      x y z
#    x 3.713600 0.000000 0.000000 
#    y 0.000000 3.713600 0.000000 
#    z 0.000000 0.000000 5.060210 
# 
# 
# High freq. dielectric constant tensor:
#      x y z
#    x 1.800770 0.000000 0.000000 
#    y 0.000000 1.800770 0.000000 
#    z 0.000000 0.000000 1.801050 
# 
# From -- ./inp_files/5847.got.cif
#   From: 2010.03.12/outbox.cif.g09.slc.cpg/sg127_3_cif.got.tgz:5847.got - 2010.04.06 17:03:15.
