data_PCOD8314415
_publ_section_title
;
Structure prediction by ZEFSAII (Michael W. Deem and Ramdas Pophale) SiO2 
 PCOD8314415
Probable space group: P 4/M B M
;
_chemical_formula_sum "Si O2"
_cell_formula_units_Z 112
_cell_length_a 14.554554
_cell_length_b 14.554554
_cell_length_c 28.823301
_cell_angle_alpha 90.000000
_cell_angle_beta 90.000000
_cell_angle_gamma 90.000000
_cell_volume 6105.785182
_symmetry_space_group_name_H-M "P 4/M B M"
_symmetry_group_IT_number 127
_symmetry_cell_setting 'tetragonal'
loop_
_space_group_symop_operation_xyz
x,y,z
-y,x,z
-x,-y,z
y,-x,z
1/2+x,1/2-y,-z
1/2-x,1/2+y,-z
1/2+y,1/2+x,-z
1/2-y,1/2-x,-z
-x,-y,-z
y,-x,-z
x,y,-z
-y,x,-z
1/2-x,1/2+y,z
1/2+x,1/2-y,z
1/2-y,1/2-x,z
1/2+y,1/2+x,z
loop_
_atom_site_type_symbol
_atom_site_label
_atom_site_fract_x
_atom_site_fract_y
_atom_site_fract_z
Si Si1 0.576430 0.076430 0.330203
Si Si2 0.645691 0.459611 0.287218
Si Si3 0.559563 0.786341 0.632180
Si Si4 0.466900 0.354269 0.553673
Si Si5 0.322380 0.673046 0.856334
Si Si6 0.576565 0.076565 0.773779
Si Si7 0.000439 0.235027 0.807958
Si Si8 0.885923 0.099438 0.948238
O O1 0.536297 0.161147 0.359259
O O2 0.607298 0.107298 0.278325
O O3 0.500000 0.000000 0.323596
O O4 0.611756 0.563274 0.292521
O O5 0.714507 0.427376 0.326824
O O6 0.696023 0.452598 0.238178
O O7 0.645681 0.854320 0.631790
O O8 0.553861 0.736375 0.582867
O O9 0.567836 0.392291 0.565840
O O10 0.460606 0.326796 0.500000
O O11 0.261482 0.761482 0.844171
O O12 0.414670 0.672780 0.825133
O O13 0.266054 0.579989 0.846161
O O14 0.347365 0.675833 0.910802
O O15 0.662033 0.035673 0.801471
O O16 0.500000 0.000000 0.770764
O O17 0.991367 0.126796 0.940826
O O18 0.853555 0.127610 0.000000
#
# Coordination Sequence:
#
# PCOD8314415 Si02
#       8
#     8  16  16  16  16   8  16  16
#     4   9  20  36  57  76 111 161 193 222 279 339
#     4  11  23  39  58  82 116 156 196 239 291 339
#     4  11  22  38  58  87 119 152 193 237 285 346
#     4   9  19  40  66  87 113 150 189 235 294 351
#     4  12  24  37  59  89 119 155 202 248 302 360
#     4  11  22  42  60  79 121 172 202 239 297 355
#     4  12  23  38  59  88 117 155 203 251 294 351
#     4   9  18  35  61  87 112 149 194 242 302 365
#
# _framework density 18.343260000000001
#
# number of rings (size 3 to 8) (size 9 to 14) (size 15 to 20)
#    0.000    1.429    5.000    2.143    0.000    2.571 
#    6.429    0.357    0.000    1.286    0.000    0.000 
#    0.000    4.571    0.000    0.000    0.000    0.000 
#
# Total GULP energy -1388993.880054 kJ/mol
# GULP energy per Si atom -12401.731072 kJ/mol
# Density = 1.830151 g / cm^3
# Si number density = 18.343260 Si / 1000 Ang^3
#
#
#
# Elastic Constant Matrix: (Units=GPa)
#
#
# Indices 1 2 3 4 5 6 
#
# 1 67.0462 26.6361 31.2867 0.0000 0.0000 0.0000
# 2 26.6361 67.0462 31.2867 0.0000 0.0000 0.0000
# 3 31.2867 31.2867 97.4378 0.0000 0.0000 0.0000
# 4 0.0000 0.0000 0.0000 -180.6128 0.0000 0.0000
# 5 0.0000 0.0000 0.0000 0.0000 -180.6128 0.0000
# 6 0.0000 0.0000 0.0000 0.0000 0.0000 22.7655
#
#
#
# Elastic Compliance Matrix: (Units=1/GPa)
#
#
# Indices 1 2 3 4 5 6 
#
# 1 0.019168 -0.005579 -0.004363 0.000000 0.000000 0.000000
# 2 -0.005579 0.019168 -0.004363 0.000000 0.000000 0.000000
# 3 -0.004363 -0.004363 0.013065 0.000000 0.000000 0.000000
# 4 0.000000 0.000000 0.000000 -0.005537 0.000000 0.000000
# 5 0.000000 0.000000 0.000000 0.000000 -0.005537 0.000000
# 6 0.000000 0.000000 0.000000 0.000000 0.000000 0.043926
#
#
# Mechanical properties :
#
#
# Convention : Reuss Voigt Hill
#
# Bulk Modulus (GPa) = 43.88005 45.54994 44.71499
# Shear Modulus (GPa) = 41.50757 -58.20397 -8.34820
#
# Velocity S-wave (km/s) = 4.76208 -5.63909 -2.13564
# Velocity P-wave (km/s) = 7.36275 4.18488 4.28350
#
# Compressibility (1/GPa) = 0.02278940
#
# Stress axis : x y z
#
# Youngs Moduli (GPa) = 52.17158 52.17158 76.54039
#
# Poissons Ratio (x) = 0.29105 0.33397
# Poissons Ratio (y) = 0.29105 0.33397
# Poissons Ratio (z) = 0.22764 0.22764
#
# Static dielectric constant tensor:
#      x y z
#    x 3.374570 0.000000 0.000000 
#    y 0.000000 3.374570 0.000000 
#    z 0.000000 0.000000 3.416350 
# 
# 
# High freq. dielectric constant tensor:
#      x y z
#    x 1.705490 0.000000 0.000000 
#    y 0.000000 1.705490 0.000000 
#    z 0.000000 0.000000 1.715930 
# 
# From -- ./inp_files/6431.got.cif
#   From: 2010.03.12/outbox.cif.g09.slc.cpg/sg127_4_cif.got.tgz:6431.got - 2010.04.06 17:03:15.
