data_PCOD8314849
_publ_section_title
;
Structure prediction by ZEFSAII (Michael W. Deem and Ramdas Pophale) SiO2 
 PCOD8314849
Probable space group: P 4/M N C
;
_chemical_formula_sum "Si O2"
_cell_formula_units_Z 80
_cell_length_a 11.184063
_cell_length_b 11.184063
_cell_length_c 33.516750
_cell_angle_alpha 90.000000
_cell_angle_beta 90.000000
_cell_angle_gamma 90.000000
_cell_volume 4192.384528
_symmetry_space_group_name_H-M "P 4/M N C"
_symmetry_group_IT_number 128
_symmetry_cell_setting 'tetragonal'
loop_
_space_group_symop_operation_xyz
x,y,z
-y,x,z
-x,-y,z
y,-x,z
1/2+x,1/2-y,1/2-z
1/2-x,1/2+y,1/2-z
1/2+y,1/2+x,1/2-z
1/2-y,1/2-x,1/2-z
-x,-y,-z
y,-x,-z
x,y,-z
-y,x,-z
1/2-x,1/2+y,1/2+z
1/2+x,1/2-y,1/2+z
1/2-y,1/2-x,1/2+z
1/2+y,1/2+x,1/2+z
loop_
_atom_site_type_symbol
_atom_site_label
_atom_site_fract_x
_atom_site_fract_y
_atom_site_fract_z
Si Si1 0.552624 0.309524 0.145378
Si Si2 0.073465 0.379565 0.888253
Si Si3 0.956049 0.808195 0.268188
Si Si4 0.196138 0.965166 0.182082
Si Si5 0.307887 0.472541 0.453638
O O1 0.644565 0.418044 0.140156
O O2 0.585196 0.213149 0.111904
O O3 0.564381 0.242860 0.189140
O O4 0.042894 0.294359 0.851608
O O5 0.043995 0.313849 0.929471
O O6 0.000000 0.500000 0.884806
O O7 0.945203 0.738270 0.225779
O O8 0.087686 0.860146 0.268021
O O9 0.095282 0.863762 0.177642
O O10 0.400519 0.367327 0.442615
O O11 0.274793 0.468091 0.500000
#
# Coordination Sequence:
#
# PCOD8314849 Si02
#       5
#    16  16  16  16  16
#     4   9  20  38  56  73 109 161 203 231 268 330
#     4  12  25  33  55  88 122 145 182 231 285 339
#     4   7  12  29  54  74  96 145 203 241 280 328
#     4   9  18  34  57  80 108 145 192 251 303 332
#     4   9  20  42  70  93 113 141 177 225 288 348
#
# _framework density 19.082218999999998
#
# number of rings (size 3 to 8) (size 9 to 14) (size 15 to 20)
#    0.000    2.800    0.000    4.200    5.600    2.800 
#    0.000    2.000    0.000    0.000    0.000    1.400 
#    0.000    0.000    0.000    0.000    0.000    0.000 
#
# Total GULP energy -991050.156239 kJ/mol
# GULP energy per Si atom -12388.126953 kJ/mol
# Density = 1.903879 g / cm^3
# Si number density = 19.082219 Si / 1000 Ang^3
#
#
#
# Elastic Constant Matrix: (Units=GPa)
#
#
# Indices 1 2 3 4 5 6 
#
# 1 80.9960 27.0342 24.8132 0.0000 0.0000 0.0000
# 2 27.0342 80.9960 24.8132 0.0000 0.0000 0.0000
# 3 24.8132 24.8132 45.9774 0.0000 0.0000 0.0000
# 4 0.0000 0.0000 0.0000 20.8851 0.0000 0.0000
# 5 0.0000 0.0000 0.0000 0.0000 20.8851 0.0000
# 6 0.0000 0.0000 0.0000 0.0000 0.0000 14.8915
#
#
#
# Elastic Compliance Matrix: (Units=1/GPa)
#
#
# Indices 1 2 3 4 5 6 
#
# 1 0.015420 -0.003112 -0.006642 0.000000 0.000000 0.000000
# 2 -0.003112 0.015420 -0.006642 0.000000 0.000000 0.000000
# 3 -0.006642 -0.006642 0.028919 0.000000 0.000000 0.000000
# 4 0.000000 0.000000 0.000000 0.047881 0.000000 0.000000
# 5 0.000000 0.000000 0.000000 0.000000 0.047881 0.000000
# 6 0.000000 0.000000 0.000000 0.000000 0.000000 0.067153
#
#
# Mechanical properties :
#
#
# Convention : Reuss Voigt Hill
#
# Bulk Modulus (GPa) = 37.08408 40.14342 38.61375
# Shear Modulus (GPa) = 18.90677 20.08627 19.49652
#
# Velocity S-wave (km/s) = 3.15112 3.24793 3.19989
# Velocity P-wave (km/s) = 5.71974 5.92858 5.82510
#
# Compressibility (1/GPa) = 0.02696575
#
# Stress axis : x y z
#
# Youngs Moduli (GPa) = 64.85153 64.85153 34.57881
#
# Poissons Ratio (x) = 0.20180 0.22969
# Poissons Ratio (y) = 0.20180 0.22969
# Poissons Ratio (z) = 0.43077 0.43077
#
# Static dielectric constant tensor:
#      x y z
#    x 3.335480 0.000000 0.000000 
#    y 0.000000 3.335480 0.000000 
#    z 0.000000 0.000000 3.629260 
# 
# 
# High freq. dielectric constant tensor:
#      x y z
#    x 1.726430 0.000000 0.000000 
#    y 0.000000 1.726430 0.000000 
#    z 0.000000 0.000000 1.738140 
# 
# From -- ./inp_files/7150.got.cif
#   From: 2010.03.12/outbox.cif.g09.slc.cpg/sg128_4_cif.got.tgz:7150.got - 2010.04.06 17:11:05.
