data_PCOD8314663
_publ_section_title
;
Structure prediction by ZEFSAII (Michael W. Deem and Ramdas Pophale) SiO2 
 PCOD8314663
Probable space group: P 4/M N C
;
_chemical_formula_sum "Si O2"
_cell_formula_units_Z 96
_cell_length_a 15.145044
_cell_length_b 15.145044
_cell_length_c 18.669710
_cell_angle_alpha 90.000000
_cell_angle_beta 90.000000
_cell_angle_gamma 90.000000
_cell_volume 4282.315401
_symmetry_space_group_name_H-M "P 4/M N C"
_symmetry_group_IT_number 128
_symmetry_cell_setting 'tetragonal'
loop_
_space_group_symop_operation_xyz
x,y,z
-y,x,z
-x,-y,z
y,-x,z
1/2+x,1/2-y,1/2-z
1/2-x,1/2+y,1/2-z
1/2+y,1/2+x,1/2-z
1/2-y,1/2-x,1/2-z
-x,-y,-z
y,-x,-z
x,y,-z
-y,x,-z
1/2-x,1/2+y,1/2+z
1/2+x,1/2-y,1/2+z
1/2-y,1/2-x,1/2+z
1/2+y,1/2+x,1/2+z
loop_
_atom_site_type_symbol
_atom_site_label
_atom_site_fract_x
_atom_site_fract_y
_atom_site_fract_z
Si Si1 0.856433 0.597985 0.580107
Si Si2 0.625865 0.342708 0.420375
Si Si3 0.460793 0.634675 0.278559
Si Si4 0.313646 0.095049 0.915203
Si Si5 0.608886 0.721681 0.915528
Si Si6 0.075763 0.235374 0.647474
O O1 0.898940 0.595192 0.500000
O O2 0.761296 0.643846 0.574213
O O3 0.851395 0.498659 0.613680
O O4 0.915371 0.660269 0.631049
O O5 0.599828 0.378313 0.500000
O O6 0.545130 0.355092 0.364887
O O7 0.713470 0.388879 0.388217
O O8 0.392197 0.558604 0.255797
O O9 0.433749 0.721952 0.233633
O O10 0.374246 0.176683 0.890841
O O11 0.307390 0.087843 0.000000
O O12 0.510586 0.695985 0.891494
O O13 0.681220 0.659383 0.879914
O O14 0.618729 0.711641 0.000000
#
# Coordination Sequence:
#
# PCOD8314663 Si02
#       6
#    16  16  16  16  16  16
#     4  10  20  37  64  97 131 168 217 269 328 394
#     4  10  20  39  68  96 123 162 214 273 338 406
#     4  11  24  41  59  90 135 172 215 275 333 393
#     4   9  19  37  63  99 134 163 209 281 338 389
#     4  11  22  39  64  94 131 177 231 275 319 384
#     4  12  23  40  60  92 134 182 224 268 325 389
#
# _framework density 22.417777999999998
#
# number of rings (size 3 to 8) (size 9 to 14) (size 15 to 20)
#    0.000    1.500    3.333    2.500    0.000    3.667 
#    0.000    4.167    0.000    0.000    0.000    2.333 
#    0.000    0.000    0.000    0.000    0.000    0.000 
#
# Total GULP energy -1190005.714959 kJ/mol
# GULP energy per Si atom -12395.892864 kJ/mol
# Density = 2.236675 g / cm^3
# Si number density = 22.417778 Si / 1000 Ang^3
#
#
#
# Elastic Constant Matrix: (Units=GPa)
#
#
# Indices 1 2 3 4 5 6 
#
# 1 90.8704 24.6888 26.5152 0.0000 0.0000 0.0000
# 2 24.6888 90.8704 26.5152 0.0000 0.0000 0.0000
# 3 26.5152 26.5152 90.9386 0.0000 0.0000 0.0000
# 4 0.0000 0.0000 0.0000 25.0445 0.0000 0.0000
# 5 0.0000 0.0000 0.0000 0.0000 25.0445 0.0000
# 6 0.0000 0.0000 0.0000 0.0000 0.0000 30.2003
#
#
#
# Elastic Compliance Matrix: (Units=1/GPa)
#
#
# Indices 1 2 3 4 5 6 
#
# 1 0.012550 -0.002560 -0.002913 0.000000 0.000000 0.000000
# 2 -0.002560 0.012550 -0.002913 0.000000 0.000000 0.000000
# 3 -0.002913 -0.002913 0.012695 0.000000 0.000000 0.000000
# 4 0.000000 0.000000 0.000000 0.039929 0.000000 0.000000
# 5 0.000000 0.000000 0.000000 0.000000 0.039929 0.000000
# 6 0.000000 0.000000 0.000000 0.000000 0.000000 0.033112
#
#
# Mechanical properties :
#
#
# Convention : Reuss Voigt Hill
#
# Bulk Modulus (GPa) = 47.56449 47.56866 47.56657
# Shear Modulus (GPa) = 28.64597 29.05521 28.85059
#
# Velocity S-wave (km/s) = 3.57854 3.60402 3.59130
# Velocity P-wave (km/s) = 6.19177 6.21159 6.20169
#
# Compressibility (1/GPa) = 0.02102409
#
# Stress axis : x y z
#
# Youngs Moduli (GPa) = 79.68046 79.68046 78.77067
#
# Poissons Ratio (x) = 0.20397 0.22945
# Poissons Ratio (y) = 0.20397 0.22945
# Poissons Ratio (z) = 0.23210 0.23210
#
# Static dielectric constant tensor:
#      x y z
#    x 4.079750 0.000000 0.000000 
#    y 0.000000 4.079750 0.000000 
#    z 0.000000 0.000000 3.794810 
# 
# 
# High freq. dielectric constant tensor:
#      x y z
#    x 1.880920 0.000000 0.000000 
#    y 0.000000 1.880920 0.000000 
#    z 0.000000 0.000000 1.855870 
# 
# From -- ./inp_files/5744.got.cif
#   From: 2010.03.12/outbox.cif.g09.slc.cpg/sg128_3_cif.got.tgz:5744.got - 2010.04.06 17:11:05.
