data_PCOD8314477
_publ_section_title
;
Structure prediction by ZEFSAII (Michael W. Deem and Ramdas Pophale) SiO2 
 PCOD8314477
Probable space group: P 4/M B M
;
_chemical_formula_sum "Si O2"
_cell_formula_units_Z 72
_cell_length_a 20.943954
_cell_length_b 20.943954
_cell_length_c 9.718306
_cell_angle_alpha 90.000000
_cell_angle_beta 90.000000
_cell_angle_gamma 90.000000
_cell_volume 4262.927241
_symmetry_space_group_name_H-M "P 4/M B M"
_symmetry_group_IT_number 127
_symmetry_cell_setting 'tetragonal'
loop_
_space_group_symop_operation_xyz
x,y,z
-y,x,z
-x,-y,z
y,-x,z
1/2+x,1/2-y,-z
1/2-x,1/2+y,-z
1/2+y,1/2+x,-z
1/2-y,1/2-x,-z
-x,-y,-z
y,-x,-z
x,y,-z
-y,x,-z
1/2-x,1/2+y,z
1/2+x,1/2-y,z
1/2-y,1/2-x,z
1/2+y,1/2+x,z
loop_
_atom_site_type_symbol
_atom_site_label
_atom_site_fract_x
_atom_site_fract_y
_atom_site_fract_z
Si Si1 0.483921 0.806833 0.840537
Si Si2 0.656447 0.394761 0.658322
Si Si3 0.037229 0.189438 0.659224
Si Si4 0.551382 0.051382 0.163300
Si Si5 0.627585 0.769413 0.843182
O O1 0.448963 0.752359 0.750524
O O2 0.464643 0.877003 0.786289
O O3 0.559090 0.800668 0.817722
O O4 0.464545 0.797422 0.000000
O O5 0.674035 0.383543 0.500000
O O6 0.588091 0.365241 0.695154
O O7 0.656938 0.469633 0.695536
O O8 0.708783 0.358608 0.748573
O O9 0.040700 0.210254 0.500000
O O10 0.500000 0.000000 0.223651
O O11 0.547869 0.047869 0.000000
O O12 0.677943 0.822058 0.799523
O O13 0.635582 0.747294 0.000000
#
# Coordination Sequence:
#
# PCOD8314477 Si02
#       5
#    16  16  16   8  16
#     4   9  17  30  49  71  96 124 154 193 236 276
#     4   9  18  32  50  70  93 122 156 194 237 283
#     4   9  18  33  50  69  94 123 156 195 238 282
#     4   9  16  28  49  75  97 123 161 197 231 278
#     4   9  17  30  48  70  94 122 157 195 232 272
#
# _framework density 16.889804000000002
#
# number of rings (size 3 to 8) (size 9 to 14) (size 15 to 20)
#    0.000    3.000    0.000    0.667    0.000    4.444 
#    2.000    2.778    0.000    2.667    0.000    6.222 
#    0.000    0.000    0.000    0.000    0.000    0.000 
#
# Total GULP energy -892753.885536 kJ/mol
# GULP energy per Si atom -12399.359521 kJ/mol
# Density = 1.685136 g / cm^3
# Si number density = 16.889804 Si / 1000 Ang^3
#
#
#
# Elastic Constant Matrix: (Units=GPa)
#
#
# Indices 1 2 3 4 5 6 
#
# 1 103.6266 66.9659 48.6550 0.0000 0.0000 0.0000
# 2 66.9659 103.6266 48.6550 0.0000 0.0000 0.0000
# 3 48.6550 48.6550 54.2882 0.0000 0.0000 0.0000
# 4 0.0000 0.0000 0.0000 26.9101 0.0000 0.0000
# 5 0.0000 0.0000 0.0000 0.0000 26.9101 0.0000
# 6 0.0000 0.0000 0.0000 0.0000 0.0000 30.2532
#
#
#
# Elastic Compliance Matrix: (Units=1/GPa)
#
#
# Indices 1 2 3 4 5 6 
#
# 1 0.019635 -0.007642 -0.010749 0.000000 0.000000 0.000000
# 2 -0.007642 0.019635 -0.010749 0.000000 0.000000 0.000000
# 3 -0.010749 -0.010749 0.037687 0.000000 0.000000 0.000000
# 4 0.000000 0.000000 0.000000 0.037161 0.000000 0.000000
# 5 0.000000 0.000000 0.000000 0.000000 0.037161 0.000000
# 6 0.000000 0.000000 0.000000 0.000000 0.000000 0.033054
#
#
# Mechanical properties :
#
#
# Convention : Reuss Voigt Hill
#
# Bulk Modulus (GPa) = 53.53754 65.56591 59.55172
# Shear Modulus (GPa) = 20.09332 23.29905 21.69619
#
# Velocity S-wave (km/s) = 3.45290 3.71816 3.58798
# Velocity P-wave (km/s) = 6.90389 7.57212 7.24571
#
# Compressibility (1/GPa) = 0.01867848
#
# Stress axis : x y z
#
# Youngs Moduli (GPa) = 50.92879 50.92879 26.53423
#
# Poissons Ratio (x) = 0.38920 0.28521
# Poissons Ratio (y) = 0.38920 0.28521
# Poissons Ratio (z) = 0.54742 0.54742
#
# Static dielectric constant tensor:
#      x y z
#    x 3.205770 0.000000 0.000000 
#    y 0.000000 3.205770 0.000000 
#    z 0.000000 0.000000 3.126650 
# 
# 
# High freq. dielectric constant tensor:
#      x y z
#    x 1.649670 0.000000 0.000000 
#    y 0.000000 1.649670 0.000000 
#    z 0.000000 0.000000 1.637960 
# 
# From -- ./inp_files/1512.got.cif
#   From: 2010.03.12/outbox.cif.g09.slc.cpg/sg127_1_cif.got.tgz:1512.got - 2010.04.06 17:03:15.
