data_PCOD8314329
_publ_section_title
;
Structure prediction by ZEFSAII (Michael W. Deem and Ramdas Pophale) SiO2 
 PCOD8314329
Probable space group: P 4/M B M
;
_chemical_formula_sum "Si O2"
_cell_formula_units_Z 64
_cell_length_a 13.394243
_cell_length_b 13.394243
_cell_length_c 18.632335
_cell_angle_alpha 90.000000
_cell_angle_beta 90.000000
_cell_angle_gamma 90.000000
_cell_volume 3342.747952
_symmetry_space_group_name_H-M "P 4/M B M"
_symmetry_group_IT_number 127
_symmetry_cell_setting 'tetragonal'
loop_
_space_group_symop_operation_xyz
x,y,z
-y,x,z
-x,-y,z
y,-x,z
1/2+x,1/2-y,-z
1/2-x,1/2+y,-z
1/2+y,1/2+x,-z
1/2-y,1/2-x,-z
-x,-y,-z
y,-x,-z
x,y,-z
-y,x,-z
1/2-x,1/2+y,z
1/2+x,1/2-y,z
1/2-y,1/2-x,z
1/2+y,1/2+x,z
loop_
_atom_site_type_symbol
_atom_site_label
_atom_site_fract_x
_atom_site_fract_y
_atom_site_fract_z
Si Si1 0.162229 0.503625 0.417705
Si Si2 0.907423 0.759201 0.160157
Si Si3 0.335953 0.481921 0.306777
Si Si4 0.735948 0.398513 0.081219
O O1 0.195851 0.514756 0.500000
O O2 0.088608 0.411393 0.408373
O O3 0.259816 0.480503 0.372256
O O4 0.105198 0.605198 0.392912
O O5 0.834228 0.665773 0.168469
O O6 0.848478 0.858317 0.135718
O O7 0.968182 0.775654 0.233290
O O8 0.988110 0.735540 0.098991
O O9 0.412489 0.390750 0.311572
O O10 0.836083 0.336083 0.090667
O O11 0.695097 0.391030 0.000000
#
# Coordination Sequence:
#
# PCOD8314329 Si02
#       4
#    16  16  16  16
#     4   9  20  40  64  90 121 158 199 240 287 347
#     4  11  22  39  61  85 117 158 200 246 301 361
#     4  11  23  39  60  87 121 158 197 244 295 347
#     4  10  22  39  60  87 117 153 199 249 302 362
#
# _framework density 19.145924999999998
#
# number of rings (size 3 to 8) (size 9 to 14) (size 15 to 20)
#    0.000    1.750    2.500    2.250    0.000    6.500 
#    0.000    6.250    0.000    0.000    0.000    0.000 
#    0.000    0.000    0.000    0.000    0.000    0.000 
#
# Total GULP energy -793682.517603 kJ/mol
# GULP energy per Si atom -12401.289338 kJ/mol
# Density = 1.910235 g / cm^3
# Si number density = 19.145925 Si / 1000 Ang^3
#
#
#
# Elastic Constant Matrix: (Units=GPa)
#
#
# Indices 1 2 3 4 5 6 
#
# 1 117.8588 42.3421 60.3865 0.0000 0.0000 0.0000
# 2 42.3421 117.8588 60.3865 0.0000 0.0000 0.0000
# 3 60.3865 60.3865 100.7954 0.0000 0.0000 0.0000
# 4 0.0000 0.0000 0.0000 38.4239 0.0000 0.0000
# 5 0.0000 0.0000 0.0000 0.0000 38.4239 0.0000
# 6 0.0000 0.0000 0.0000 0.0000 0.0000 15.3703
#
#
#
# Elastic Compliance Matrix: (Units=1/GPa)
#
#
# Indices 1 2 3 4 5 6 
#
# 1 0.012313 -0.000929 -0.006820 0.000000 0.000000 0.000000
# 2 -0.000929 0.012313 -0.006820 0.000000 0.000000 0.000000
# 3 -0.006820 -0.006820 0.018093 0.000000 0.000000 0.000000
# 4 0.000000 0.000000 0.000000 0.026025 0.000000 0.000000
# 5 0.000000 0.000000 0.000000 0.000000 0.026025 0.000000
# 6 0.000000 0.000000 0.000000 0.000000 0.000000 0.065061
#
#
# Mechanical properties :
#
#
# Convention : Reuss Voigt Hill
#
# Bulk Modulus (GPa) = 73.63636 73.63814 73.63725
# Shear Modulus (GPa) = 25.84047 30.00347 27.92197
#
# Velocity S-wave (km/s) = 3.67776 3.96295 3.82301
# Velocity P-wave (km/s) = 7.52188 7.71265 7.61786
#
# Compressibility (1/GPa) = 0.01358025
#
# Stress axis : x y z
#
# Youngs Moduli (GPa) = 81.21595 81.21595 55.27092
#
# Poissons Ratio (x) = 0.07547 0.37694
# Poissons Ratio (y) = 0.07547 0.37694
# Poissons Ratio (z) = 0.55389 0.55389
#
# Static dielectric constant tensor:
#      x y z
#    x 3.458100 0.000000 0.000000 
#    y 0.000000 3.458100 0.000000 
#    z 0.000000 0.000000 3.540490 
# 
# 
# High freq. dielectric constant tensor:
#      x y z
#    x 1.745790 0.000000 0.000000 
#    y 0.000000 1.745790 0.000000 
#    z 0.000000 0.000000 1.752450 
# 
# From -- ./inp_files/4075.got.cif
#   From: 2010.03.12/outbox.cif.g09.slc.cpg/sg127_3_cif.got.tgz:4075.got - 2010.04.06 17:03:15.
