data_PCOD8314816
_publ_section_title
;
Structure prediction by ZEFSAII (Michael W. Deem and Ramdas Pophale) SiO2 
 PCOD8314816
Probable space group: P 4/M N C
;
_chemical_formula_sum "Si O2"
_cell_formula_units_Z 96
_cell_length_a 14.864011
_cell_length_b 14.864011
_cell_length_c 22.851200
_cell_angle_alpha 90.000000
_cell_angle_beta 90.000000
_cell_angle_gamma 90.000000
_cell_volume 5048.717232
_symmetry_space_group_name_H-M "P 4/M N C"
_symmetry_group_IT_number 128
_symmetry_cell_setting 'tetragonal'
loop_
_space_group_symop_operation_xyz
x,y,z
-y,x,z
-x,-y,z
y,-x,z
1/2+x,1/2-y,1/2-z
1/2-x,1/2+y,1/2-z
1/2+y,1/2+x,1/2-z
1/2-y,1/2-x,1/2-z
-x,-y,-z
y,-x,-z
x,y,-z
-y,x,-z
1/2-x,1/2+y,1/2+z
1/2+x,1/2-y,1/2+z
1/2-y,1/2-x,1/2+z
1/2+y,1/2+x,1/2+z
loop_
_atom_site_type_symbol
_atom_site_label
_atom_site_fract_x
_atom_site_fract_y
_atom_site_fract_z
Si Si1 0.873625 0.924899 0.636863
Si Si2 0.390861 0.203915 0.068309
Si Si3 0.446741 0.915747 0.931700
Si Si4 0.926401 0.128228 0.230670
Si Si5 0.386757 0.277545 0.617473
Si Si6 0.254133 0.423120 0.568810
O O1 0.804913 0.879876 0.591639
O O2 0.840277 0.907330 0.703087
O O3 0.968970 0.879171 0.625297
O O4 0.493695 0.173225 0.079634
O O5 0.325619 0.137637 0.104197
O O6 0.365084 0.200136 0.000000
O O7 0.346536 0.905618 0.904860
O O8 0.500000 0.000000 0.903213
O O9 0.435272 0.934869 0.000000
O O10 0.883598 0.201488 0.186863
O O11 0.032645 0.120474 0.219398
O O12 0.315929 0.338988 0.583652
O O13 0.487109 0.297898 0.595304
O O14 0.249570 0.435257 0.500000
#
# Coordination Sequence:
#
# PCOD8314816 Si02
#       6
#    16  16  16  16  16  16
#     4   9  21  41  63  84 111 147 197 257 307 353
#     4  11  23  37  58  89 118 153 199 241 297 365
#     4   9  18  36  56  74 110 158 192 224 276 348
#     4   9  18  38  61  83 112 155 200 237 294 358
#     4  12  22  35  58  88 120 157 199 244 286 357
#     4  11  22  35  53  86 124 158 192 238 293 350
#
# _framework density 19.014731000000001
#
# number of rings (size 3 to 8) (size 9 to 14) (size 15 to 20)
#    0.000    1.833    3.333    2.500    2.333    1.667 
#    0.000    1.667    0.000    1.000    0.000    0.000 
#    0.000    0.000    0.000    0.000    0.000    0.000 
#
# Total GULP energy -1190373.578892 kJ/mol
# GULP energy per Si atom -12399.724780 kJ/mol
# Density = 1.897145 g / cm^3
# Si number density = 19.014731 Si / 1000 Ang^3
#
#
#
# Elastic Constant Matrix: (Units=GPa)
#
#
# Indices 1 2 3 4 5 6 
#
# 1 73.1518 25.4323 23.5647 0.0000 0.0000 0.0000
# 2 25.4323 73.1518 23.5647 0.0000 0.0000 0.0000
# 3 23.5647 23.5647 56.5478 0.0000 0.0000 0.0000
# 4 0.0000 0.0000 0.0000 27.6463 0.0000 0.0000
# 5 0.0000 0.0000 0.0000 0.0000 27.6463 0.0000
# 6 0.0000 0.0000 0.0000 0.0000 0.0000 23.1860
#
#
#
# Elastic Compliance Matrix: (Units=1/GPa)
#
#
# Indices 1 2 3 4 5 6 
#
# 1 0.016811 -0.004144 -0.005279 0.000000 0.000000 0.000000
# 2 -0.004144 0.016811 -0.005279 0.000000 0.000000 0.000000
# 3 -0.005279 -0.005279 0.022084 0.000000 0.000000 0.000000
# 4 0.000000 0.000000 0.000000 0.036171 0.000000 0.000000
# 5 0.000000 0.000000 0.000000 0.000000 0.036171 0.000000
# 6 0.000000 0.000000 0.000000 0.000000 0.000000 0.043130
#
#
# Mechanical properties :
#
#
# Convention : Reuss Voigt Hill
#
# Bulk Modulus (GPa) = 38.01814 38.66387 38.34101
# Shear Modulus (GPa) = 23.88350 24.38170 24.13260
#
# Velocity S-wave (km/s) = 3.54793 3.58474 3.56638
# Velocity P-wave (km/s) = 6.06805 6.12467 6.09642
#
# Compressibility (1/GPa) = 0.02630323
#
# Stress axis : x y z
#
# Youngs Moduli (GPa) = 59.48319 59.48319 45.28244
#
# Poissons Ratio (x) = 0.24652 0.23903
# Poissons Ratio (y) = 0.24652 0.23903
# Poissons Ratio (z) = 0.31399 0.31399
#
# Static dielectric constant tensor:
#      x y z
#    x 3.462870 0.000000 0.000000 
#    y 0.000000 3.462870 0.000000 
#    z 0.000000 0.000000 3.270270 
# 
# 
# High freq. dielectric constant tensor:
#      x y z
#    x 1.739420 0.000000 0.000000 
#    y 0.000000 1.739420 0.000000 
#    z 0.000000 0.000000 1.716090 
# 
# From -- ./inp_files/5726.got.cif
#   From: 2010.03.12/outbox.cif.g09.slc.cpg/sg128_3_cif.got.tgz:5726.got - 2010.04.06 17:11:05.
