data_PCOD8314883
_publ_section_title
;
Structure prediction by ZEFSAII (Michael W. Deem and Ramdas Pophale) SiO2 
 PCOD8314883
Probable space group: P 4/N M M
;
_chemical_formula_sum "Si O2"
_cell_formula_units_Z 128
_cell_length_a 19.850688
_cell_length_b 19.850688
_cell_length_c 25.004096
_cell_angle_alpha 90.000000
_cell_angle_beta 90.000000
_cell_angle_gamma 90.000000
_cell_volume 9852.859380
_symmetry_space_group_name_H-M "P 4/N M M"
_symmetry_group_IT_number 129
_symmetry_cell_setting 'tetragonal'
loop_
_space_group_symop_operation_xyz
x,y,z
1/2-y,x,z
1/2-x,1/2-y,z
y,1/2-x,z
1/2+x,-y,-z
-x,1/2+y,-z
1/2+y,1/2+x,-z
-y,-x,-z
-x,-y,-z
1/2+y,-x,-z
1/2+x,1/2+y,-z
-y,1/2+x,-z
1/2-x,y,z
x,1/2-y,z
1/2-y,1/2-x,z
y,x,z
loop_
_atom_site_type_symbol
_atom_site_label
_atom_site_fract_x
_atom_site_fract_y
_atom_site_fract_z
Si Si1 0.169784 0.921526 0.347164
Si Si2 0.672833 0.393084 0.842048
Si Si3 0.934290 0.674701 0.926235
Si Si4 0.327752 0.586317 0.040457
Si Si5 0.136740 0.468481 0.189559
Si Si6 0.325600 0.670261 0.559879
Si Si7 0.328965 0.821797 0.260136
Si Si8 0.563420 0.673955 0.692955
O O1 0.250000 0.921543 0.346825
O O2 0.141696 0.882926 0.399874
O O3 0.139886 0.880918 0.296175
O O4 0.146018 0.999014 0.341010
O O5 0.750000 0.418689 0.836625
O O6 0.658568 0.374935 0.903507
O O7 0.626110 0.452696 0.819917
O O8 0.657902 0.330532 0.803363
O O9 0.912897 0.750000 0.944344
O O10 0.879155 0.620846 0.947292
O O11 0.937450 0.675147 0.861760
O O12 0.007029 0.656327 0.951897
O O13 0.250000 0.596906 0.022143
O O14 0.380109 0.619892 0.000000
O O15 0.062274 0.437727 0.194279
O O16 0.177019 0.453340 0.243940
O O17 0.348991 0.651010 0.500000
O O18 0.250000 0.641382 0.572367
O O19 0.321342 0.750000 0.565438
O O20 0.250000 0.819896 0.271773
O O21 0.361113 0.750000 0.276525
O O22 0.581845 0.750000 0.675218
O O23 0.626365 0.626365 0.679572
#
# Coordination Sequence:
#
# PCOD8314883 Si02
#       8
#    16  16  16  16  16  16  16  16
#     4   9  15  23  35  50  70  93 117 145 178 214
#     4   9  15  25  37  49  70  93 115 145 180 212
#     4   9  17  28  42  58  74  92 115 146 186 228
#     4   9  18  29  40  53  71  96 125 153 181 213
#     4   9  15  24  38  53  70  93 118 144 176 212
#     4   8  13  21  34  53  75  96 118 145 175 206
#     4   9  15  21  32  50  69  89 113 141 174 211
#     4  10  18  26  37  51  68  93 122 152 185 217
#
# _framework density 12.991153000000001
#
# number of rings (size 3 to 8) (size 9 to 14) (size 15 to 20)
#    0.000    3.000    1.250    2.625    0.000    2.625 
#    0.000    1.250    0.000    2.625    0.000    0.000 
#    0.000    0.000    0.000    0.000    0.000    0.000 
#
# Total GULP energy -1585672.187789 kJ/mol
# GULP energy per Si atom -12388.063967 kJ/mol
# Density = 1.296158 g / cm^3
# Si number density = 12.991153 Si / 1000 Ang^3
#
#
#
# Elastic Constant Matrix: (Units=GPa)
#
#
# Indices 1 2 3 4 5 6 
#
# 1 59.7198 35.1738 33.1176 0.0000 0.0000 0.0000
# 2 35.1738 59.7208 33.1178 0.0000 0.0000 0.0000
# 3 33.1176 33.1178 71.5669 0.0000 0.0000 0.0000
# 4 0.0000 0.0000 0.0000 12.1066 0.0000 0.0000
# 5 0.0000 0.0000 0.0000 0.0000 12.1065 0.0000
# 6 0.0000 0.0000 0.0000 0.0000 0.0000 12.6533
#
#
#
# Elastic Compliance Matrix: (Units=1/GPa)
#
#
# Indices 1 2 3 4 5 6 
#
# 1 0.028153 -0.012587 -0.007203 0.000000 0.000000 0.000000
# 2 -0.012587 0.028152 -0.007203 0.000000 0.000000 0.000000
# 3 -0.007203 -0.007203 0.020639 0.000000 0.000000 0.000000
# 4 0.000000 0.000000 0.000000 0.082599 0.000000 0.000000
# 5 0.000000 0.000000 0.000000 0.000000 0.082600 0.000000
# 6 0.000000 0.000000 0.000000 0.000000 0.000000 0.079031
#
#
# Mechanical properties :
#
#
# Convention : Reuss Voigt Hill
#
# Bulk Modulus (GPa) = 43.55664 43.75844 43.65754
# Shear Modulus (GPa) = 13.06121 13.34651 13.20386
#
# Velocity S-wave (km/s) = 3.17423 3.20871 3.19152
# Velocity P-wave (km/s) = 6.85821 6.89088 6.87456
#
# Compressibility (1/GPa) = 0.02295861
#
# Stress axis : x y z
#
# Youngs Moduli (GPa) = 35.52067 35.52124 48.45097
#
# Poissons Ratio (x) = 0.44709 0.34900
# Poissons Ratio (y) = 0.44709 0.34900
# Poissons Ratio (z) = 0.25586 0.25586
#
# Static dielectric constant tensor:
#      x y z
#    x 2.496310 0.000000 0.000000 
#    y 0.000000 2.496310 0.000000 
#    z 0.000000 0.000000 2.671940 
# 
# 
# High freq. dielectric constant tensor:
#      x y z
#    x 1.466300 0.000000 0.000000 
#    y 0.000000 1.466300 0.000000 
#    z 0.000000 0.000000 1.484730 
# 
# From -- ./inp_files/7372.got.cif
#   From: 2010.03.12/outbox.cif.g09.slc.cpg/sg129_4_cif.got.tgz:7372.got - 2010.04.06 17:19:44.
