data_PCOD8314955
_publ_section_title
;
Structure prediction by ZEFSAII (Michael W. Deem and Ramdas Pophale) SiO2 
 PCOD8314955
Probable space group: P 4/N M M
;
_chemical_formula_sum "Si O2"
_cell_formula_units_Z 112
_cell_length_a 24.619907
_cell_length_b 24.619907
_cell_length_c 11.024286
_cell_angle_alpha 90.000000
_cell_angle_beta 90.000000
_cell_angle_gamma 90.000000
_cell_volume 6682.258739
_symmetry_space_group_name_H-M "P 4/N M M"
_symmetry_group_IT_number 129
_symmetry_cell_setting 'tetragonal'
loop_
_space_group_symop_operation_xyz
x,y,z
1/2-y,x,z
1/2-x,1/2-y,z
y,1/2-x,z
1/2+x,-y,-z
-x,1/2+y,-z
1/2+y,1/2+x,-z
-y,-x,-z
-x,-y,-z
1/2+y,-x,-z
1/2+x,1/2+y,-z
-y,1/2+x,-z
1/2-x,y,z
x,1/2-y,z
1/2-y,1/2-x,z
y,x,z
loop_
_atom_site_type_symbol
_atom_site_label
_atom_site_fract_x
_atom_site_fract_y
_atom_site_fract_z
Si Si1 0.893178 0.981263 0.540607
Si Si2 0.898766 0.688403 0.631617
Si Si3 0.501584 0.690272 0.100925
Si Si4 0.908218 0.997737 0.265786
Si Si5 0.043842 0.610273 0.775908
Si Si6 0.150060 0.437237 0.116894
Si Si7 0.686585 0.104446 0.947557
O O1 0.947621 0.947621 0.578970
O O2 0.842146 0.940296 0.541671
O O3 0.900281 0.007090 0.408714
O O4 0.882762 0.030813 0.632938
O O5 0.892367 0.750000 0.587789
O O6 0.840022 0.659979 0.626145
O O7 0.922097 0.686998 0.768073
O O8 0.503872 0.750000 0.158826
O O9 0.517335 0.648990 0.206512
O O10 0.546369 0.688205 0.994288
O O11 0.441786 0.678912 0.048457
O O12 0.948829 0.948829 0.238905
O O13 0.929561 0.051928 0.201515
O O14 0.084652 0.657460 0.822774
O O15 0.987710 0.611199 0.849856
O O16 0.112915 0.387086 0.077258
O O17 0.750000 0.115751 0.919420
O O18 0.659095 0.159095 0.000000
#
# Coordination Sequence:
#
# PCOD8314955 Si02
#       7
#    16  16  16  16  16  16  16
#     4   9  19  32  47  70 101 135 165 195 242 303
#     4   9  17  30  47  67  92 123 164 208 248 294
#     4  10  20  32  46  68 102 135 165 205 246 293
#     4  11  20  31  50  74 102 135 167 204 251 302
#     4  10  18  31  50  75 101 128 157 201 249 297
#     4   9  17  29  47  70  96 127 160 199 250 303
#     4  10  20  36  53  74 100 128 167 207 249 294
#
# _framework density 16.7608
#
# number of rings (size 3 to 8) (size 9 to 14) (size 15 to 20)
#    0.000    2.286    1.429    3.429    0.000    5.429 
#    0.000    2.143    0.000    0.000    0.000    0.000 
#    0.000    2.571    0.000    0.571    0.000    0.000 
#
# Total GULP energy -1388693.096115 kJ/mol
# GULP energy per Si atom -12399.045501 kJ/mol
# Density = 1.672265 g / cm^3
# Si number density = 16.760800 Si / 1000 Ang^3
#
#
#
# Elastic Constant Matrix: (Units=GPa)
#
#
# Indices 1 2 3 4 5 6 
#
# 1 98.8122 40.4572 32.3266 0.0000 0.0000 0.0000
# 2 40.4572 98.8122 32.3266 0.0000 0.0000 0.0000
# 3 32.3266 32.3266 57.4430 0.0000 0.0000 0.0000
# 4 0.0000 0.0000 0.0000 18.3840 0.0000 0.0000
# 5 0.0000 0.0000 0.0000 0.0000 18.3840 0.0000
# 6 0.0000 0.0000 0.0000 0.0000 0.0000 17.2759
#
#
#
# Elastic Compliance Matrix: (Units=1/GPa)
#
#
# Indices 1 2 3 4 5 6 
#
# 1 0.013428 -0.003708 -0.005470 0.000000 0.000000 0.000000
# 2 -0.003708 0.013428 -0.005470 0.000000 0.000000 0.000000
# 3 -0.005470 -0.005470 0.023565 0.000000 0.000000 0.000000
# 4 0.000000 0.000000 0.000000 0.054395 0.000000 0.000000
# 5 0.000000 0.000000 0.000000 0.000000 0.054395 0.000000
# 6 0.000000 0.000000 0.000000 0.000000 0.000000 0.057884
#
#
# Mechanical properties :
#
#
# Convention : Reuss Voigt Hill
#
# Bulk Modulus (GPa) = 47.33744 51.69868 49.51806
# Shear Modulus (GPa) = 19.72911 20.80593 20.26752
#
# Velocity S-wave (km/s) = 3.43461 3.52709 3.48116
# Velocity P-wave (km/s) = 6.63573 6.89196 6.76506
#
# Compressibility (1/GPa) = 0.02112493
#
# Stress axis : x y z
#
# Youngs Moduli (GPa) = 74.47102 74.47102 42.43597
#
# Poissons Ratio (x) = 0.27617 0.23212
# Poissons Ratio (y) = 0.27617 0.23212
# Poissons Ratio (z) = 0.40734 0.40734
#
# Static dielectric constant tensor:
#      x y z
#    x 3.053190 0.000000 0.000000 
#    y 0.000000 3.053190 0.000000 
#    z 0.000000 0.000000 3.042850 
# 
# 
# High freq. dielectric constant tensor:
#      x y z
#    x 1.637040 0.000000 0.000000 
#    y 0.000000 1.637040 0.000000 
#    z 0.000000 0.000000 1.631840 
# 
# From -- ./inp_files/4070.got.cif
#   From: 2010.03.12/outbox.cif.g09.slc.cpg/sg129_3_cif.got.tgz:4070.got - 2010.04.06 17:19:44.
