data_PCOD8314718
_publ_section_title
;
Structure prediction by ZEFSAII (Michael W. Deem and Ramdas Pophale) SiO2 
 PCOD8314718
Probable space group: P 4/M N C
;
_chemical_formula_sum "Si O2"
_cell_formula_units_Z 96
_cell_length_a 23.819984
_cell_length_b 23.819984
_cell_length_c 8.797093
_cell_angle_alpha 90.000000
_cell_angle_beta 90.000000
_cell_angle_gamma 90.000000
_cell_volume 4991.397005
_symmetry_space_group_name_H-M "P 4/M N C"
_symmetry_group_IT_number 128
_symmetry_cell_setting 'tetragonal'
loop_
_space_group_symop_operation_xyz
x,y,z
-y,x,z
-x,-y,z
y,-x,z
1/2+x,1/2-y,1/2-z
1/2-x,1/2+y,1/2-z
1/2+y,1/2+x,1/2-z
1/2-y,1/2-x,1/2-z
-x,-y,-z
y,-x,-z
x,y,-z
-y,x,-z
1/2-x,1/2+y,1/2+z
1/2+x,1/2-y,1/2+z
1/2-y,1/2-x,1/2+z
1/2+y,1/2+x,1/2+z
loop_
_atom_site_type_symbol
_atom_site_label
_atom_site_fract_x
_atom_site_fract_y
_atom_site_fract_z
Si Si1 0.065827 0.237282 0.679732
Si Si2 0.548299 0.422459 0.168397
Si Si3 0.142484 0.442774 0.321214
Si Si4 0.153184 0.568840 0.324031
Si Si5 0.552451 0.720740 0.318994
Si Si6 0.645697 0.631851 0.325744
O O1 0.062965 0.241301 0.500000
O O2 0.074306 0.298621 0.748494
O O3 0.122225 0.202831 0.729781
O O4 0.007781 0.208136 0.739705
O O5 0.575993 0.482607 0.187326
O O6 0.572506 0.385531 0.304280
O O7 0.563574 0.398112 0.000000
O O8 0.092881 0.407120 0.250000
O O9 0.146777 0.431984 0.500000
O O10 0.128339 0.507606 0.284571
O O11 0.117370 0.617370 0.250000
O O12 0.150927 0.580789 0.500000
O O13 0.217400 0.572064 0.267973
O O14 0.543221 0.716179 0.500000
O O15 0.603114 0.679893 0.263533
O O16 0.661282 0.642991 0.500000
#
# Coordination Sequence:
#
# PCOD8314718 Si02
#       6
#    16  16  16  16  16  16
#     4  11  22  36  56  81 110 145 185 230 280 330
#     4   9  18  31  45  65  96 130 168 222 282 333
#     4  10  21  39  61  86 116 146 179 219 266 323
#     4   9  19  36  58  84 114 144 176 217 264 319
#     4   9  20  38  56  77 108 147 187 229 278 327
#     4  11  21  33  51  73 101 140 186 231 274 325
#
# _framework density 19.233093
#
# number of rings (size 3 to 8) (size 9 to 14) (size 15 to 20)
#    0.000    2.167    0.000    5.000    0.000    8.333 
#    0.000    3.333    0.000    2.000    0.000    0.000 
#    0.000    0.000    0.000    0.000    0.000    0.000 
#
# Total GULP energy -1189768.656323 kJ/mol
# GULP energy per Si atom -12393.423503 kJ/mol
# Density = 1.918932 g / cm^3
# Si number density = 19.233093 Si / 1000 Ang^3
#
#
#
# Elastic Constant Matrix: (Units=GPa)
#
#
# Indices 1 2 3 4 5 6 
#
# 1 76.7012 52.1002 34.8074 0.0000 0.0000 0.0000
# 2 52.1002 76.6931 34.8143 0.0000 0.0000 0.0000
# 3 34.8074 34.8143 74.5657 0.0000 0.0000 0.0000
# 4 0.0000 0.0000 0.0000 31.1535 0.0000 0.0000
# 5 0.0000 0.0000 0.0000 0.0000 31.1535 0.0000
# 6 0.0000 0.0000 0.0000 0.0000 0.0000 40.2458
#
#
#
# Elastic Compliance Matrix: (Units=1/GPa)
#
#
# Indices 1 2 3 4 5 6 
#
# 1 0.025517 -0.015135 -0.004845 0.000000 0.000000 0.000000
# 2 -0.015135 0.025523 -0.004851 0.000000 0.000000 0.000000
# 3 -0.004845 -0.004851 0.017938 0.000000 0.000000 0.000000
# 4 0.000000 0.000000 0.000000 0.032099 0.000000 0.000000
# 5 0.000000 0.000000 0.000000 0.000000 0.032099 0.000000
# 6 0.000000 0.000000 0.000000 0.000000 0.000000 0.024847
#
#
# Mechanical properties :
#
#
# Convention : Reuss Voigt Hill
#
# Bulk Modulus (GPa) = 51.77385 52.37820 52.07603
# Shear Modulus (GPa) = 23.35084 27.59308 25.47196
#
# Velocity S-wave (km/s) = 3.48817 3.79181 3.64315
# Velocity P-wave (km/s) = 6.57272 6.81637 6.69566
#
# Compressibility (1/GPa) = 0.01931477
#
# Stress axis : x y z
#
# Youngs Moduli (GPa) = 39.18944 39.18004 55.74858
#
# Poissons Ratio (x) = 0.59300 0.27009
# Poissons Ratio (y) = 0.59315 0.27046
# Poissons Ratio (z) = 0.18987 0.19008
#
# Static dielectric constant tensor:
#      x y z
#    x 3.724970 0.000000 0.000000 
#    y 0.000000 3.724960 0.000000 
#    z 0.000000 0.000000 3.486830 
# 
# 
# High freq. dielectric constant tensor:
#      x y z
#    x 1.743670 0.000000 0.000000 
#    y 0.000000 1.743670 0.000000 
#    z 0.000000 0.000000 1.746590 
# 
# From -- ./inp_files/1412.got.cif
#   From: 2010.03.12/outbox.cif.g09.slc.cpg/sg128_1_cif.got.tgz:1412.got - 2010.04.06 17:11:05.
