data_PCOD8314932
_publ_section_title
;
Structure prediction by ZEFSAII (Michael W. Deem and Ramdas Pophale) SiO2 
 PCOD8314932
Probable space group: P 4/N M M
;
_chemical_formula_sum "Si O2"
_cell_formula_units_Z 128
_cell_length_a 22.086917
_cell_length_b 22.086917
_cell_length_c 13.924943
_cell_angle_alpha 90.000000
_cell_angle_beta 90.000000
_cell_angle_gamma 90.000000
_cell_volume 6793.031437
_symmetry_space_group_name_H-M "P 4/N M M"
_symmetry_group_IT_number 129
_symmetry_cell_setting 'tetragonal'
loop_
_space_group_symop_operation_xyz
x,y,z
1/2-y,x,z
1/2-x,1/2-y,z
y,1/2-x,z
1/2+x,-y,-z
-x,1/2+y,-z
1/2+y,1/2+x,-z
-y,-x,-z
-x,-y,-z
1/2+y,-x,-z
1/2+x,1/2+y,-z
-y,1/2+x,-z
1/2-x,y,z
x,1/2-y,z
1/2-y,1/2-x,z
y,x,z
loop_
_atom_site_type_symbol
_atom_site_label
_atom_site_fract_x
_atom_site_fract_y
_atom_site_fract_z
Si Si1 0.623045 0.524987 0.763909
Si Si2 0.921497 0.821397 0.947675
Si Si3 0.909227 0.110861 0.753416
Si Si4 0.183291 0.987591 0.890999
Si Si5 0.316498 0.995304 0.422162
Si Si6 0.409740 0.184048 0.734695
Si Si7 0.014043 0.391778 0.602930
Si Si8 0.683543 0.142483 0.606299
O O1 0.557473 0.557473 0.768219
O O2 0.668197 0.555417 0.840100
O O3 0.618037 0.453436 0.785790
O O4 0.653513 0.536797 0.660047
O O5 0.906631 0.750000 0.964530
O O6 0.861239 0.861239 0.968960
O O7 0.976800 0.843349 0.016847
O O8 0.932123 0.142325 0.852112
O O9 0.863608 0.156524 0.693979
O O10 0.963855 0.095694 0.682212
O O11 0.250000 0.961469 0.915398
O O12 0.188887 0.035956 0.807613
O O13 0.250000 0.021238 0.451327
O O14 0.308247 0.928575 0.382332
O O15 0.362515 0.986151 0.509042
O O16 0.383567 0.250000 0.709965
O O17 0.355836 0.144165 0.779704
O O18 0.434300 0.154248 0.637759
O O19 0.043621 0.456380 0.577682
O O20 0.661119 0.161119 0.500000
O O21 0.750000 0.172842 0.623916
#
# Coordination Sequence:
#
# PCOD8314932 Si02
#       8
#    16  16  16  16  16  16  16  16
#     4  10  21  34  51  77 109 141 181 227 272 327
#     4  10  21  38  59  84 113 145 182 227 275 325
#     4  10  20  35  53  80 109 146 179 217 274 333
#     4   9  19  35  55  76 103 137 178 224 273 332
#     4  10  19  32  50  70 100 141 177 214 264 320
#     4   9  17  28  43  67  96 129 169 213 261 318
#     4  10  18  29  49  73 100 133 174 220 262 314
#     4  10  20  34  50  73 104 139 179 220 263 313
#
# _framework density 18.842839999999999
#
# number of rings (size 3 to 8) (size 9 to 14) (size 15 to 20)
#    0.000    2.250    1.250    1.875    0.000    3.875 
#    0.000    3.125    0.000    2.250    0.000    0.000 
#    0.000   10.000    0.000    0.000    0.000    0.125 
#
# Total GULP energy -1586067.886563 kJ/mol
# GULP energy per Si atom -12391.155364 kJ/mol
# Density = 1.879995 g / cm^3
# Si number density = 18.842840 Si / 1000 Ang^3
#
#
#
# Elastic Constant Matrix: (Units=GPa)
#
#
# Indices 1 2 3 4 5 6 
#
# 1 75.0174 23.8443 15.0540 0.0000 0.0000 0.0000
# 2 23.8443 75.0174 15.0540 0.0000 0.0000 0.0000
# 3 15.0540 15.0540 65.5812 0.0000 0.0000 0.0000
# 4 0.0000 0.0000 0.0000 24.6241 0.0000 0.0000
# 5 0.0000 0.0000 0.0000 0.0000 24.6241 0.0000
# 6 0.0000 0.0000 0.0000 0.0000 0.0000 6.6067
#
#
#
# Elastic Compliance Matrix: (Units=1/GPa)
#
#
# Indices 1 2 3 4 5 6 
#
# 1 0.015208 -0.004333 -0.002496 0.000000 0.000000 0.000000
# 2 -0.004333 0.015208 -0.002496 0.000000 0.000000 0.000000
# 3 -0.002496 -0.002496 0.016394 0.000000 0.000000 0.000000
# 4 0.000000 0.000000 0.000000 0.040611 0.000000 0.000000
# 5 0.000000 0.000000 0.000000 0.000000 0.040611 0.000000
# 6 0.000000 0.000000 0.000000 0.000000 0.000000 0.151361
#
#
# Mechanical properties :
#
#
# Convention : Reuss Voigt Hill
#
# Bulk Modulus (GPa) = 35.51196 35.94670 35.72933
# Shear Modulus (GPa) = 16.26374 21.94855 19.10615
#
# Velocity S-wave (km/s) = 2.94109 3.41665 3.18775
# Velocity P-wave (km/s) = 5.51549 5.88924 5.70543
#
# Compressibility (1/GPa) = 0.02815953
#
# Stress axis : x y z
#
# Youngs Moduli (GPa) = 65.75280 65.75280 60.99656
#
# Poissons Ratio (x) = 0.28491 0.15227
# Poissons Ratio (y) = 0.28491 0.15227
# Poissons Ratio (z) = 0.16415 0.16415
#
# Static dielectric constant tensor:
#      x y z
#    x 3.650560 0.000000 0.000000 
#    y 0.000000 3.650560 0.000000 
#    z 0.000000 0.000000 3.403610 
# 
# 
# High freq. dielectric constant tensor:
#      x y z
#    x 1.723190 0.000000 0.000000 
#    y 0.000000 1.723190 0.000000 
#    z 0.000000 0.000000 1.722220 
# 
# From -- ./inp_files/4236.got.cif
#   From: 2010.03.12/outbox.cif.g09.slc.cpg/sg129_3_cif.got.tgz:4236.got - 2010.04.06 17:19:44.
