data_PCOD8314057
_publ_section_title
;
Structure prediction by ZEFSAII (Michael W. Deem and Ramdas Pophale) SiO2 
 PCOD8314057
Probable space group: P 4/M B M
;
_chemical_formula_sum "Si O2"
_cell_formula_units_Z 80
_cell_length_a 27.340165
_cell_length_b 27.340165
_cell_length_c 7.905174
_cell_angle_alpha 90.000000
_cell_angle_beta 90.000000
_cell_angle_gamma 90.000000
_cell_volume 5908.996001
_symmetry_space_group_name_H-M "P 4/M B M"
_symmetry_group_IT_number 127
_symmetry_cell_setting 'tetragonal'
loop_
_space_group_symop_operation_xyz
x,y,z
-y,x,z
-x,-y,z
y,-x,z
1/2+x,1/2-y,-z
1/2-x,1/2+y,-z
1/2+y,1/2+x,-z
1/2-y,1/2-x,-z
-x,-y,-z
y,-x,-z
x,y,-z
-y,x,-z
1/2-x,1/2+y,z
1/2+x,1/2-y,z
1/2-y,1/2-x,z
1/2+y,1/2+x,z
loop_
_atom_site_type_symbol
_atom_site_label
_atom_site_fract_x
_atom_site_fract_y
_atom_site_fract_z
Si Si1 0.791970 0.126145 0.685803
Si Si2 0.628642 0.452553 0.307219
Si Si3 0.330314 0.751894 0.000000
Si Si4 0.371415 0.441293 0.191226
Si Si5 0.330716 0.247657 0.000000
Si Si6 0.625586 0.707684 0.311833
O O1 0.766612 0.122587 0.500000
O O2 0.821419 0.076025 0.719125
O O3 0.829974 0.170200 0.685247
O O4 0.751850 0.135992 0.831756
O O5 0.629612 0.470101 0.500000
O O6 0.581095 0.418962 0.280920
O O7 0.625466 0.500229 0.191244
O O8 0.678111 0.423228 0.261818
O O9 0.290432 0.709122 0.000000
O O10 0.304648 0.804648 0.000000
O O11 0.370400 0.421736 0.000000
O O12 0.364241 0.251451 0.831180
O O13 0.305153 0.194848 0.000000
O O14 0.620544 0.731574 0.500000
#
# Coordination Sequence:
#
# PCOD8314057 Si02
#       6
#    16  16   8  16   8  16
#     4   9  16  28  41  55  75  98 118 145 185 227
#     4  10  20  32  43  56  73  98 126 159 197 236
#     4   9  16  26  39  58  75  91 116 145 177 224
#     4  11  20  30  44  59  73  96 127 161 197 237
#     4   9  16  24  39  56  73  91 110 139 177 220
#     4   8  16  27  40  54  72  94 117 143 179 223
#
# _framework density 13.538678000000001
#
# number of rings (size 3 to 8) (size 9 to 14) (size 15 to 20)
#    0.000    2.600    1.000    3.600    5.600    1.200 
#    0.000    6.000    0.000    0.000    0.000    0.000 
#    0.000    0.000    0.000    0.000    0.000    0.000 
#
# Total GULP energy -991693.538743 kJ/mol
# GULP energy per Si atom -12396.169234 kJ/mol
# Density = 1.350786 g / cm^3
# Si number density = 13.538678 Si / 1000 Ang^3
#
#
#
# Elastic Constant Matrix: (Units=GPa)
#
#
# Indices 1 2 3 4 5 6 
#
# 1 40.1078 39.5567 30.6202 0.0000 0.0000 0.0000
# 2 39.5567 40.1081 30.6207 0.0000 0.0000 0.0000
# 3 30.6202 30.6207 97.7077 0.0000 0.0000 0.0000
# 4 0.0000 0.0000 0.0000 15.6648 0.0000 0.0000
# 5 0.0000 0.0000 0.0000 0.0000 15.6650 0.0000
# 6 0.0000 0.0000 0.0000 0.0000 0.0000 12.4183
#
#
#
# Elastic Compliance Matrix: (Units=1/GPa)
#
#
# Indices 1 2 3 4 5 6 
#
# 1 0.915279 -0.898742 -0.005179 0.000000 0.000000 0.000000
# 2 -0.898742 0.915277 -0.005186 0.000000 0.000000 0.000000
# 3 -0.005179 -0.005186 0.013483 0.000000 0.000000 0.000000
# 4 0.000000 0.000000 0.000000 0.063837 0.000000 0.000000
# 5 0.000000 0.000000 0.000000 0.000000 0.063837 0.000000
# 6 0.000000 0.000000 0.000000 0.000000 0.000000 0.080526
#
#
# Mechanical properties :
#
#
# Convention : Reuss Voigt Hill
#
# Bulk Modulus (GPa) = 38.72013 42.16875 40.44444
# Shear Modulus (GPa) = 1.28897 13.89135 7.59016
#
# Velocity S-wave (km/s) = 0.97680 3.20668 2.37033
# Velocity P-wave (km/s) = 5.47119 6.70260 6.11795
#
# Compressibility (1/GPa) = 0.02582636
#
# Stress axis : x y z
#
# Youngs Moduli (GPa) = 1.09256 1.09256 74.16872
#
# Poissons Ratio (x) = 0.98193 0.38409
# Poissons Ratio (y) = 0.98193 0.38465
# Poissons Ratio (z) = 0.00566 0.00567
#
# Static dielectric constant tensor:
#      x y z
#    x 2.404780 0.000000 0.000000 
#    y 0.000000 2.404780 0.000000 
#    z 0.000000 0.000000 3.077730 
# 
# 
# High freq. dielectric constant tensor:
#      x y z
#    x 1.469000 0.000000 0.000000 
#    y 0.000000 1.469000 0.000000 
#    z 0.000000 0.000000 1.543440 
# 
# From -- ./inp_files/1888.got.cif
#   From: 2010.03.12/outbox.cif.g09.slc.cpg/sg127_1_cif.got.tgz:1888.got - 2010.04.06 17:03:15.
