data_PCOD8314354
_publ_section_title
;
Structure prediction by ZEFSAII (Michael W. Deem and Ramdas Pophale) SiO2 
 PCOD8314354
Probable space group: P 4/M B M
;
_chemical_formula_sum "Si O2"
_cell_formula_units_Z 128
_cell_length_a 21.185349
_cell_length_b 21.185349
_cell_length_c 18.926114
_cell_angle_alpha 90.000000
_cell_angle_beta 90.000000
_cell_angle_gamma 90.000000
_cell_volume 8494.399791
_symmetry_space_group_name_H-M "P 4/M B M"
_symmetry_group_IT_number 127
_symmetry_cell_setting 'tetragonal'
loop_
_space_group_symop_operation_xyz
x,y,z
-y,x,z
-x,-y,z
y,-x,z
1/2+x,1/2-y,-z
1/2-x,1/2+y,-z
1/2+y,1/2+x,-z
1/2-y,1/2-x,-z
-x,-y,-z
y,-x,-z
x,y,-z
-y,x,-z
1/2-x,1/2+y,z
1/2+x,1/2-y,z
1/2-y,1/2-x,z
1/2+y,1/2+x,z
loop_
_atom_site_type_symbol
_atom_site_label
_atom_site_fract_x
_atom_site_fract_y
_atom_site_fract_z
Si Si1 0.577881 0.817936 0.581480
Si Si2 0.645194 0.242855 0.319494
Si Si3 0.589444 0.446891 0.079914
Si Si4 0.398979 0.474923 0.421088
Si Si5 0.844474 0.243910 0.310249
Si Si6 0.162080 0.436543 0.582046
Si Si7 0.161881 0.947099 0.720108
Si Si8 0.344806 0.580165 0.215891
O O1 0.577439 0.794995 0.500000
O O2 0.619631 0.880370 0.589862
O O3 0.604355 0.761372 0.629962
O O4 0.508215 0.835281 0.609991
O O5 0.686465 0.186465 0.282823
O O6 0.692895 0.297659 0.346083
O O7 0.606855 0.216435 0.385473
O O8 0.595404 0.275296 0.265993
O O9 0.584760 0.521636 0.093855
O O10 0.641701 0.415897 0.131829
O O11 0.611696 0.433541 0.000000
O O12 0.454824 0.424970 0.410319
O O13 0.370029 0.468040 0.500000
O O14 0.344577 0.462593 0.363440
O O15 0.805843 0.305843 0.285566
O O16 0.876882 0.214309 0.240190
O O17 0.175546 0.435799 0.500000
O O18 0.093133 0.406868 0.599742
O O19 0.099826 0.908982 0.744065
O O20 0.171106 0.008635 0.765994
#
# Coordination Sequence:
#
# PCOD8314354 Si02
#       8
#    16  16  16  16  16  16  16  16
#     4   9  17  30  47  64  83 108 141 186 234 277
#     4   9  19  32  42  54  77 109 145 181 213 249
#     4   9  17  29  45  69 100 125 141 167 211 263
#     4   9  17  28  38  52  81 113 136 169 216 261
#     4   9  19  33  45  61  84 116 156 189 216 252
#     4   9  17  29  44  60  78 101 134 182 236 280
#     4  11  19  27  44  65  85 110 146 181 215 260
#     4  11  19  28  46  69  90 116 142 179 214 261
#
# _framework density 15.068752
#
# number of rings (size 3 to 8) (size 9 to 14) (size 15 to 20)
#    0.000    2.500    2.500    1.500    0.000    1.500 
#    0.000    6.250    0.000    0.375    0.000    0.000 
#    0.000    0.500    0.000    0.000    0.000    0.000 
#
# Total GULP energy -1586364.413563 kJ/mol
# GULP energy per Si atom -12393.471981 kJ/mol
# Density = 1.503445 g / cm^3
# Si number density = 15.068752 Si / 1000 Ang^3
#
#
#
# Elastic Constant Matrix: (Units=GPa)
#
#
# Indices 1 2 3 4 5 6 
#
# 1 74.0180 33.8502 33.5436 0.0000 0.0000 0.0000
# 2 33.8502 74.0180 33.5436 0.0000 0.0000 0.0000
# 3 33.5436 33.5436 85.4010 0.0000 0.0000 0.0000
# 4 0.0000 0.0000 0.0000 16.4077 0.0000 0.0000
# 5 0.0000 0.0000 0.0000 0.0000 16.4077 0.0000
# 6 0.0000 0.0000 0.0000 0.0000 0.0000 17.6937
#
#
#
# Elastic Compliance Matrix: (Units=1/GPa)
#
#
# Indices 1 2 3 4 5 6 
#
# 1 0.018581 -0.006314 -0.004818 0.000000 0.000000 0.000000
# 2 -0.006314 0.018581 -0.004818 0.000000 0.000000 0.000000
# 3 -0.004818 -0.004818 0.015494 0.000000 0.000000 0.000000
# 4 0.000000 0.000000 0.000000 0.060947 0.000000 0.000000
# 5 0.000000 0.000000 0.000000 0.000000 0.060947 0.000000
# 6 0.000000 0.000000 0.000000 0.000000 0.000000 0.056517
#
#
# Mechanical properties :
#
#
# Convention : Reuss Voigt Hill
#
# Bulk Modulus (GPa) = 48.17928 48.36796 48.27362
# Shear Modulus (GPa) = 18.52618 18.93515 18.73066
#
# Velocity S-wave (km/s) = 3.51015 3.54868 3.52946
# Velocity P-wave (km/s) = 6.96208 6.99705 6.97959
#
# Compressibility (1/GPa) = 0.02075581
#
# Stress axis : x y z
#
# Youngs Moduli (GPa) = 53.81730 53.81730 64.53905
#
# Poissons Ratio (x) = 0.33981 0.31097
# Poissons Ratio (y) = 0.33981 0.31097
# Poissons Ratio (z) = 0.25931 0.25931
#
# Static dielectric constant tensor:
#      x y z
#    x 2.980670 0.000000 0.000000 
#    y 0.000000 2.980670 0.000000 
#    z 0.000000 0.000000 2.656870 
# 
# 
# High freq. dielectric constant tensor:
#      x y z
#    x 1.574630 0.000000 0.000000 
#    y 0.000000 1.574630 0.000000 
#    z 0.000000 0.000000 1.535490 
# 
# From -- ./inp_files/5414.got.cif
#   From: 2010.03.12/outbox.cif.g09.slc.cpg/sg127_3_cif.got.tgz:5414.got - 2010.04.06 17:03:15.
