data_PCOD8314825
_publ_section_title
;
Structure prediction by ZEFSAII (Michael W. Deem and Ramdas Pophale) SiO2 
 PCOD8314825
Probable space group: P 4/M N C
;
_chemical_formula_sum "Si O2"
_cell_formula_units_Z 88
_cell_length_a 15.062340
_cell_length_b 15.062340
_cell_length_c 18.824562
_cell_angle_alpha 90.000000
_cell_angle_beta 90.000000
_cell_angle_gamma 90.000000
_cell_volume 4270.805303
_symmetry_space_group_name_H-M "P 4/M N C"
_symmetry_group_IT_number 128
_symmetry_cell_setting 'tetragonal'
loop_
_space_group_symop_operation_xyz
x,y,z
-y,x,z
-x,-y,z
y,-x,z
1/2+x,1/2-y,1/2-z
1/2-x,1/2+y,1/2-z
1/2+y,1/2+x,1/2-z
1/2-y,1/2-x,1/2-z
-x,-y,-z
y,-x,-z
x,y,-z
-y,x,-z
1/2-x,1/2+y,1/2+z
1/2+x,1/2-y,1/2+z
1/2-y,1/2-x,1/2+z
1/2+y,1/2+x,1/2+z
loop_
_atom_site_type_symbol
_atom_site_label
_atom_site_fract_x
_atom_site_fract_y
_atom_site_fract_z
Si Si1 0.739148 0.482882 0.304223
Si Si2 0.745285 0.467765 0.861552
Si Si3 0.936150 0.425408 0.834514
Si Si4 0.188534 0.844262 0.135276
Si Si5 0.793584 0.166005 0.584021
Si Si6 0.369491 0.433499 0.500000
O O1 0.734836 0.455088 0.222473
O O2 0.830483 0.478511 0.348139
O O3 0.713888 0.586645 0.302878
O O4 0.680760 0.412416 0.347245
O O5 0.845651 0.438486 0.878079
O O6 0.729375 0.567579 0.888579
O O7 0.680852 0.398336 0.901342
O O8 0.928596 0.428596 0.750000
O O9 0.000000 0.500000 0.865443
O O10 0.258886 0.763191 0.127235
O O11 0.189768 0.904555 0.065828
O O12 0.774461 0.173602 0.500000
O O13 0.461962 0.381666 0.500000
#
# Coordination Sequence:
#
# PCOD8314825 Si02
#       6
#    16  16  16  16  16   8
#     4  11  23  38  66 101 133 167 214 279 341 393
#     4  11  24  43  66  95 130 171 226 281 330 386
#     4   9  18  36  61  91 127 164 205 264 334 391
#     4  12  23  40  67  98 134 172 214 270 335 400
#     4  12  26  45  68  92 133 183 228 272 325 398
#     4  11  22  40  62  92 130 175 210 252 330 415
#
# _framework density 20.605014000000001
#
# number of rings (size 3 to 8) (size 9 to 14) (size 15 to 20)
#    0.000    1.000    4.545    2.727    0.000    4.364 
#    0.000    2.727    0.000    2.182    0.000    0.000 
#    0.000    0.000    0.000    0.000    0.000    0.000 
#
# Total GULP energy -1090561.349549 kJ/mol
# GULP energy per Si atom -12392.742609 kJ/mol
# Density = 2.055812 g / cm^3
# Si number density = 20.605014 Si / 1000 Ang^3
#
#
#
# Elastic Constant Matrix: (Units=GPa)
#
#
# Indices 1 2 3 4 5 6 
#
# 1 125.6387 44.2655 17.5428 0.0000 0.0000 0.0000
# 2 44.2655 125.6387 17.5428 0.0000 0.0000 0.0000
# 3 17.5428 17.5428 57.9641 0.0000 0.0000 0.0000
# 4 0.0000 0.0000 0.0000 26.2685 0.0000 0.0000
# 5 0.0000 0.0000 0.0000 0.0000 26.2685 0.0000
# 6 0.0000 0.0000 0.0000 0.0000 0.0000 42.7390
#
#
#
# Elastic Compliance Matrix: (Units=1/GPa)
#
#
# Indices 1 2 3 4 5 6 
#
# 1 0.009284 -0.003006 -0.001900 0.000000 0.000000 0.000000
# 2 -0.003006 0.009284 -0.001900 0.000000 0.000000 0.000000
# 3 -0.001900 -0.001900 0.018402 0.000000 0.000000 0.000000
# 4 0.000000 0.000000 0.000000 0.038068 0.000000 0.000000
# 5 0.000000 0.000000 0.000000 0.000000 0.038068 0.000000
# 6 0.000000 0.000000 0.000000 0.000000 0.000000 0.023398
#
#
# Mechanical properties :
#
#
# Convention : Reuss Voigt Hill
#
# Bulk Modulus (GPa) = 42.81181 51.99374 47.40278
# Shear Modulus (GPa) = 31.66539 34.38123 33.02331
#
# Velocity S-wave (km/s) = 3.92443 4.08926 4.00770
# Velocity P-wave (km/s) = 6.43097 6.89815 6.66865
#
# Compressibility (1/GPa) = 0.02335804
#
# Stress axis : x y z
#
# Youngs Moduli (GPa) = 107.71753 107.71753 54.34152
#
# Poissons Ratio (x) = 0.32375 0.10325
# Poissons Ratio (y) = 0.32375 0.10325
# Poissons Ratio (z) = 0.20467 0.20467
#
# Static dielectric constant tensor:
#      x y z
#    x 3.820840 0.000000 0.000000 
#    y 0.000000 3.820840 0.000000 
#    z 0.000000 0.000000 3.542000 
# 
# 
# High freq. dielectric constant tensor:
#      x y z
#    x 1.816060 0.000000 0.000000 
#    y 0.000000 1.816060 0.000000 
#    z 0.000000 0.000000 1.792660 
# 
# From -- ./inp_files/5674.got.cif
#   From: 2010.03.12/outbox.cif.g09.slc.cpg/sg128_3_cif.got.tgz:5674.got - 2010.04.06 17:11:05.
