data_PCOD8314291
_publ_section_title
;
Structure prediction by ZEFSAII (Michael W. Deem and Ramdas Pophale) SiO2 
 PCOD8314291
Probable space group: P 4/M B M
;
_chemical_formula_sum "Si O2"
_cell_formula_units_Z 72
_cell_length_a 20.962777
_cell_length_b 20.962777
_cell_length_c 8.808255
_cell_angle_alpha 90.000000
_cell_angle_beta 90.000000
_cell_angle_gamma 90.000000
_cell_volume 3870.682133
_symmetry_space_group_name_H-M "P 4/M B M"
_symmetry_group_IT_number 127
_symmetry_cell_setting 'tetragonal'
loop_
_space_group_symop_operation_xyz
x,y,z
-y,x,z
-x,-y,z
y,-x,z
1/2+x,1/2-y,-z
1/2-x,1/2+y,-z
1/2+y,1/2+x,-z
1/2-y,1/2-x,-z
-x,-y,-z
y,-x,-z
x,y,-z
-y,x,-z
1/2-x,1/2+y,z
1/2+x,1/2-y,z
1/2-y,1/2-x,z
1/2+y,1/2+x,z
loop_
_atom_site_type_symbol
_atom_site_label
_atom_site_fract_x
_atom_site_fract_y
_atom_site_fract_z
Si Si1 0.179394 0.492616 0.673414
Si Si2 0.872978 0.270749 0.671409
Si Si3 0.551153 0.051153 0.178453
Si Si4 0.403538 0.354795 0.177344
Si Si5 0.823350 0.034148 0.320478
O O1 0.165183 0.474035 0.500000
O O2 0.180395 0.568810 0.696929
O O3 0.123200 0.464135 0.773814
O O4 0.248437 0.465156 0.724378
O O5 0.878565 0.242373 0.500000
O O6 0.807119 0.307119 0.694653
O O7 0.874040 0.214755 0.793609
O O8 0.500000 0.000000 0.247967
O O9 0.547439 0.047439 0.000000
O O10 0.355387 0.403860 0.252702
O O11 0.473098 0.359589 0.251894
O O12 0.409150 0.368518 0.000000
O O13 0.831624 0.031991 0.500000
#
# Coordination Sequence:
#
# PCOD8314291 Si02
#       5
#    16  16   8  16  16
#     4   9  19  36  58  80 105 142 188 233 271 315
#     4   9  18  35  58  82 108 145 190 229 269 326
#     4  11  23  35  51  81 117 151 185 225 283 342
#     4  11  22  36  57  86 116 144 179 229 286 335
#     4  10  21  40  61  81 109 147 189 229 275 332
#
# _framework density 18.601372000000001
#
# number of rings (size 3 to 8) (size 9 to 14) (size 15 to 20)
#    0.000    2.111    0.000    5.000    0.000    7.111 
#    2.000    2.222    0.000    0.000    0.000    0.000 
#    0.000    0.000    0.000    0.000    0.000    0.000 
#
# Total GULP energy -892842.140233 kJ/mol
# GULP energy per Si atom -12400.585281 kJ/mol
# Density = 1.855903 g / cm^3
# Si number density = 18.601372 Si / 1000 Ang^3
#
#
#
# Elastic Constant Matrix: (Units=GPa)
#
#
# Indices 1 2 3 4 5 6 
#
# 1 86.9332 61.5921 46.6794 0.0000 0.0000 0.0000
# 2 61.5921 86.9332 46.6794 0.0000 0.0000 0.0000
# 3 46.6794 46.6794 105.8481 0.0000 0.0000 0.0000
# 4 0.0000 0.0000 0.0000 23.5114 0.0000 0.0000
# 5 0.0000 0.0000 0.0000 0.0000 23.5114 0.0000
# 6 0.0000 0.0000 0.0000 0.0000 0.0000 32.5028
#
#
#
# Elastic Compliance Matrix: (Units=1/GPa)
#
#
# Indices 1 2 3 4 5 6 
#
# 1 0.024388 -0.015073 -0.004108 0.000000 0.000000 0.000000
# 2 -0.015073 0.024388 -0.004108 0.000000 0.000000 0.000000
# 3 -0.004108 -0.004108 0.013071 0.000000 0.000000 0.000000
# 4 0.000000 0.000000 0.000000 0.042533 0.000000 0.000000
# 5 0.000000 0.000000 0.000000 0.000000 0.042533 0.000000
# 6 0.000000 0.000000 0.000000 0.000000 0.000000 0.030767
#
#
# Mechanical properties :
#
#
# Convention : Reuss Voigt Hill
#
# Bulk Modulus (GPa) = 65.49243 65.51294 65.50268
# Shear Modulus (GPa) = 21.80101 24.22269 23.01185
#
# Velocity S-wave (km/s) = 3.42718 3.61251 3.52107
# Velocity P-wave (km/s) = 7.13762 7.25922 7.19867
#
# Compressibility (1/GPa) = 0.01526894
#
# Stress axis : x y z
#
# Youngs Moduli (GPa) = 41.00326 41.00326 76.50675
#
# Poissons Ratio (x) = 0.61805 0.31429
# Poissons Ratio (y) = 0.61805 0.31429
# Poissons Ratio (z) = 0.16844 0.16844
#
# Static dielectric constant tensor:
#      x y z
#    x 3.397950 0.000000 0.000000 
#    y 0.000000 3.397950 0.000000 
#    z 0.000000 0.000000 3.390330 
# 
# 
# High freq. dielectric constant tensor:
#      x y z
#    x 1.722180 0.000000 0.000000 
#    y 0.000000 1.722180 0.000000 
#    z 0.000000 0.000000 1.721980 
# 
# From -- ./inp_files/1577.got.cif
#   From: 2010.03.12/outbox.cif.g09.slc.cpg/sg127_1_cif.got.tgz:1577.got - 2010.04.06 17:03:15.
