data_PCOD8314240
_publ_section_title
;
Structure prediction by ZEFSAII (Michael W. Deem and Ramdas Pophale) SiO2 
 PCOD8314240
Probable space group: P 4/M B M
;
_chemical_formula_sum "Si O2"
_cell_formula_units_Z 72
_cell_length_a 20.683801
_cell_length_b 20.683801
_cell_length_c 7.885687
_cell_angle_alpha 90.000000
_cell_angle_beta 90.000000
_cell_angle_gamma 90.000000
_cell_volume 3373.651646
_symmetry_space_group_name_H-M "P 4/M B M"
_symmetry_group_IT_number 127
_symmetry_cell_setting 'tetragonal'
loop_
_space_group_symop_operation_xyz
x,y,z
-y,x,z
-x,-y,z
y,-x,z
1/2+x,1/2-y,-z
1/2-x,1/2+y,-z
1/2+y,1/2+x,-z
1/2-y,1/2-x,-z
-x,-y,-z
y,-x,-z
x,y,-z
-y,x,-z
1/2-x,1/2+y,z
1/2+x,1/2-y,z
1/2-y,1/2-x,z
1/2+y,1/2+x,z
loop_
_atom_site_type_symbol
_atom_site_label
_atom_site_fract_x
_atom_site_fract_y
_atom_site_fract_z
Si Si1 0.498958 0.101444 0.298323
Si Si2 0.578608 0.430221 0.000000
Si Si3 0.407896 0.335173 0.307729
Si Si4 0.830061 0.773194 0.196297
Si Si5 0.474572 0.757269 0.299699
O O1 0.499232 0.103849 0.500000
O O2 0.559522 0.059522 0.232687
O O3 0.505757 0.173092 0.223287
O O4 0.432248 0.067753 0.235619
O O5 0.590729 0.505572 0.000000
O O6 0.606471 0.401803 0.825513
O O7 0.420348 0.360149 0.500000
O O8 0.336264 0.303200 0.298141
O O9 0.465921 0.288884 0.248275
O O10 0.789755 0.710246 0.259741
O O11 0.906647 0.764070 0.222376
O O12 0.816813 0.785721 0.000000
O O13 0.466156 0.759451 0.500000
#
# Coordination Sequence:
#
# PCOD8314240 Si02
#       5
#    16   8  16  16  16
#     4   8  14  27  50  82 119 156 198 252 314 381
#     4  11  24  42  65  90 122 161 199 256 322 378
#     4  11  24  41  64  94 126 165 214 264 320 387
#     4  11  24  41  63  92 128 172 219 266 323 390
#     4  10  21  36  60  91 122 162 213 267 321 385
#
# _framework density 21.341858999999999
#
# number of rings (size 3 to 8) (size 9 to 14) (size 15 to 20)
#    0.000    1.889    1.111    3.333    1.556    6.222 
#    0.000    3.333    0.000    0.667    0.000    3.111 
#    0.000    0.000    0.000    0.000    0.000    0.000 
#
# Total GULP energy -892425.520243 kJ/mol
# GULP energy per Si atom -12394.798892 kJ/mol
# Density = 2.129328 g / cm^3
# Si number density = 21.341859 Si / 1000 Ang^3
#
#
#
# Elastic Constant Matrix: (Units=GPa)
#
#
# Indices 1 2 3 4 5 6 
#
# 1 157.2021 23.5403 21.4722 0.0000 0.0000 0.0000
# 2 23.5403 157.2021 21.4722 0.0000 0.0000 0.0000
# 3 21.4722 21.4722 72.6365 0.0000 0.0000 0.0000
# 4 0.0000 0.0000 0.0000 16.6728 0.0000 0.0000
# 5 0.0000 0.0000 0.0000 0.0000 16.6728 0.0000
# 6 0.0000 0.0000 0.0000 0.0000 0.0000 41.4730
#
#
#
# Elastic Compliance Matrix: (Units=1/GPa)
#
#
# Indices 1 2 3 4 5 6 
#
# 1 0.006716 -0.000765 -0.001759 0.000000 0.000000 0.000000
# 2 -0.000765 0.006716 -0.001759 0.000000 0.000000 0.000000
# 3 -0.001759 -0.001759 0.014807 0.000000 0.000000 0.000000
# 4 0.000000 0.000000 0.000000 0.059978 0.000000 0.000000
# 5 0.000000 0.000000 0.000000 0.000000 0.059978 0.000000
# 6 0.000000 0.000000 0.000000 0.000000 0.000000 0.024112
#
#
# Mechanical properties :
#
#
# Convention : Reuss Voigt Hill
#
# Bulk Modulus (GPa) = 50.83313 57.77891 54.30602
# Shear Modulus (GPa) = 26.67630 36.33410 31.50520
#
# Velocity S-wave (km/s) = 3.53930 4.13059 3.84632
# Velocity P-wave (km/s) = 6.36965 7.06264 6.72507
#
# Compressibility (1/GPa) = 0.01967221
#
# Stress axis : x y z
#
# Youngs Moduli (GPa) = 148.89515 148.89515 67.53472
#
# Poissons Ratio (x) = 0.11397 0.11880
# Poissons Ratio (y) = 0.11397 0.11880
# Poissons Ratio (z) = 0.26192 0.26192
#
# Static dielectric constant tensor:
#      x y z
#    x 4.097810 0.000000 0.000000 
#    y 0.000000 4.097810 0.000000 
#    z 0.000000 0.000000 3.594340 
# 
# 
# High freq. dielectric constant tensor:
#      x y z
#    x 1.841100 0.000000 0.000000 
#    y 0.000000 1.841100 0.000000 
#    z 0.000000 0.000000 1.822280 
# 
# From -- ./inp_files/1521.got.cif
#   From: 2010.03.12/outbox.cif.g09.slc.cpg/sg127_1_cif.got.tgz:1521.got - 2010.04.06 17:03:15.
