data_PCOD8314785
_publ_section_title
;
Structure prediction by ZEFSAII (Michael W. Deem and Ramdas Pophale) SiO2 
 PCOD8314785
Probable space group: P 4/M N C
;
_chemical_formula_sum "Si O2"
_cell_formula_units_Z 112
_cell_length_a 14.001595
_cell_length_b 14.001595
_cell_length_c 26.651209
_cell_angle_alpha 90.000000
_cell_angle_beta 90.000000
_cell_angle_gamma 90.000000
_cell_volume 5224.827275
_symmetry_space_group_name_H-M "P 4/M N C"
_symmetry_group_IT_number 128
_symmetry_cell_setting 'tetragonal'
loop_
_space_group_symop_operation_xyz
x,y,z
-y,x,z
-x,-y,z
y,-x,z
1/2+x,1/2-y,1/2-z
1/2-x,1/2+y,1/2-z
1/2+y,1/2+x,1/2-z
1/2-y,1/2-x,1/2-z
-x,-y,-z
y,-x,-z
x,y,-z
-y,x,-z
1/2-x,1/2+y,1/2+z
1/2+x,1/2-y,1/2+z
1/2-y,1/2-x,1/2+z
1/2+y,1/2+x,1/2+z
loop_
_atom_site_type_symbol
_atom_site_label
_atom_site_fract_x
_atom_site_fract_y
_atom_site_fract_z
Si Si1 0.894342 0.512302 0.056959
Si Si2 0.145850 0.052921 0.351381
Si Si3 0.241168 0.139114 0.442548
Si Si4 0.616422 0.241564 0.283029
Si Si5 0.095358 0.750989 0.746305
Si Si6 0.039126 0.145169 0.940794
Si Si7 0.298465 0.839197 0.103720
O O1 0.845419 0.408669 0.058848
O O2 0.838404 0.589199 0.090866
O O3 0.000000 0.500000 0.078948
O O4 0.896881 0.551599 0.000000
O O5 0.174001 0.070731 0.409197
O O6 0.230469 0.078163 0.312839
O O7 0.056320 0.121070 0.340999
O O8 0.202467 0.143962 0.500000
O O9 0.249021 0.243747 0.418706
O O10 0.654510 0.154510 0.250000
O O11 0.502047 0.246227 0.278337
O O12 0.661437 0.343033 0.267933
O O13 0.655046 0.216344 0.337626
O O14 0.150638 0.650638 0.750000
O O15 0.067948 0.248238 0.920160
O O16 0.933947 0.115704 0.921523
O O17 0.039104 0.148404 0.000000
#
# Coordination Sequence:
#
# PCOD8314785 Si02
#       7
#    16  16  16  16  16  16  16
#     4  10  24  43  66  98 138 182 229 278 340 415
#     4  11  23  42  72  96 128 179 223 285 359 416
#     4  11  24  41  66 100 137 180 230 285 344 424
#     4  11  27  46  67 106 133 179 232 290 345 421
#     4  11  24  46  73  97 137 180 232 291 352 408
#     4   9  20  38  62  94 132 174 221 271 330 400
#     4  12  25  42  69  97 138 181 230 281 351 409
#
# _framework density 21.436115999999998
#
# number of rings (size 3 to 8) (size 9 to 14) (size 15 to 20)
#    0.000    1.286    1.429    4.286    6.000    3.429 
#    0.000    0.714    0.000    0.000    0.000    0.000 
#    0.000    0.000    0.000    0.000    0.000    0.000 
#
# Total GULP energy -1389018.894912 kJ/mol
# GULP energy per Si atom -12401.954419 kJ/mol
# Density = 2.138733 g / cm^3
# Si number density = 21.436116 Si / 1000 Ang^3
#
#
#
# Elastic Constant Matrix: (Units=GPa)
#
#
# Indices 1 2 3 4 5 6 
#
# 1 86.5508 63.0978 41.2080 0.0000 0.0000 0.0000
# 2 63.0978 86.5508 41.2080 0.0000 0.0000 0.0000
# 3 41.2080 41.2080 138.7257 0.0000 0.0000 0.0000
# 4 0.0000 0.0000 0.0000 27.4350 0.0000 0.0000
# 5 0.0000 0.0000 0.0000 0.0000 27.4350 0.0000
# 6 0.0000 0.0000 0.0000 0.0000 0.0000 -1.4638
#
#
#
# Elastic Compliance Matrix: (Units=1/GPa)
#
#
# Indices 1 2 3 4 5 6 
#
# 1 0.025314 -0.017325 -0.002373 0.000000 0.000000 0.000000
# 2 -0.017325 0.025314 -0.002373 0.000000 0.000000 0.000000
# 3 -0.002373 -0.002373 0.008618 0.000000 0.000000 0.000000
# 4 0.000000 0.000000 0.000000 0.036450 0.000000 0.000000
# 5 0.000000 0.000000 0.000000 0.000000 0.036450 0.000000
# 6 0.000000 0.000000 0.000000 0.000000 0.000000 -0.683142
#
#
# Mechanical properties :
#
#
# Convention : Reuss Voigt Hill
#
# Bulk Modulus (GPa) = 66.20675 66.98389 66.59532
# Shear Modulus (GPa) = -9.96373 21.76882 5.90254
#
# Velocity S-wave (km/s) = -2.15829 3.19018 1.66118
# Velocity P-wave (km/s) = 4.97411 6.69968 5.90031
#
# Compressibility (1/GPa) = 0.01510420
#
# Stress axis : x y z
#
# Youngs Moduli (GPa) = 39.50402 39.50402 116.03119
#
# Poissons Ratio (x) = 0.68439 0.27537
# Poissons Ratio (y) = 0.68439 0.27537
# Poissons Ratio (z) = 0.09375 0.09375
#
# Static dielectric constant tensor:
#      x y z
#    x 4.406250 0.000000 0.000000 
#    y 0.000000 4.406250 0.000000 
#    z 0.000000 0.000000 2.783300 
# 
# 
# High freq. dielectric constant tensor:
#      x y z
#    x 1.844190 0.000000 0.000000 
#    y 0.000000 1.844190 0.000000 
#    z 0.000000 0.000000 1.841430 
# 
# From -- ./inp_files/6460.got.cif
#   From: 2010.03.12/outbox.cif.g09.slc.cpg/sg128_4_cif.got.tgz:6460.got - 2010.04.06 17:11:05.
