data_PCOD8314298
_publ_section_title
;
Structure prediction by ZEFSAII (Michael W. Deem and Ramdas Pophale) SiO2 
 PCOD8314298
Probable space group: P 4/M B M
;
_chemical_formula_sum "Si O2"
_cell_formula_units_Z 96
_cell_length_a 15.553025
_cell_length_b 15.553025
_cell_length_c 23.159723
_cell_angle_alpha 90.000000
_cell_angle_beta 90.000000
_cell_angle_gamma 90.000000
_cell_volume 5602.257941
_symmetry_space_group_name_H-M "P 4/M B M"
_symmetry_group_IT_number 127
_symmetry_cell_setting 'tetragonal'
loop_
_space_group_symop_operation_xyz
x,y,z
-y,x,z
-x,-y,z
y,-x,z
1/2+x,1/2-y,-z
1/2-x,1/2+y,-z
1/2+y,1/2+x,-z
1/2-y,1/2-x,-z
-x,-y,-z
y,-x,-z
x,y,-z
-y,x,-z
1/2-x,1/2+y,z
1/2+x,1/2-y,z
1/2-y,1/2-x,z
1/2+y,1/2+x,z
loop_
_atom_site_type_symbol
_atom_site_label
_atom_site_fract_x
_atom_site_fract_y
_atom_site_fract_z
Si Si1 0.425193 0.619249 0.064751
Si Si2 0.119702 0.241082 0.833886
Si Si3 0.637643 0.995651 0.219441
Si Si4 0.666536 0.309934 0.289950
Si Si5 0.359906 0.996434 0.564506
Si Si6 0.753041 0.482219 0.326189
O O1 0.383835 0.526633 0.074507
O O2 0.383297 0.681788 0.110659
O O3 0.404818 0.652156 0.000000
O O4 0.182266 0.317735 0.850969
O O5 0.156471 0.187490 0.779567
O O6 0.024895 0.281320 0.819653
O O7 0.584907 0.915093 0.191786
O O8 0.667169 0.968445 0.283106
O O9 0.577530 0.077530 0.228123
O O10 0.738197 0.238197 0.307248
O O11 0.688580 0.403621 0.314452
O O12 0.574448 0.289608 0.316807
O O13 0.320880 0.987688 0.500000
O O14 0.407279 0.907279 0.582204
O O15 0.427842 0.072159 0.565538
O O16 0.283526 0.019776 0.607852
#
# Coordination Sequence:
#
# PCOD8314298 Si02
#       6
#    16  16  16  16  16  16
#     4   9  19  35  53  72  96 132 175 209 244 301
#     4   9  19  33  49  76 106 128 163 216 261 308
#     4   9  17  30  50  73  97 132 171 209 267 324
#     4  10  22  35  51  80 108 138 181 217 259 326
#     4   9  17  30  52  80 103 131 180 233 274 313
#     4  11  20  34  51  71 110 144 169 219 268 309
#
# _framework density 17.135947999999999
#
# number of rings (size 3 to 8) (size 9 to 14) (size 15 to 20)
#    0.000    2.500    0.000    5.000    4.667    2.000 
#    0.000    0.833    0.000    4.500    0.000    3.500 
#    0.000    0.000    0.000    0.000    0.000    0.000 
#
# Total GULP energy -1189957.547139 kJ/mol
# GULP energy per Si atom -12395.391116 kJ/mol
# Density = 1.709695 g / cm^3
# Si number density = 17.135948 Si / 1000 Ang^3
#
#
#
# Elastic Constant Matrix: (Units=GPa)
#
#
# Indices 1 2 3 4 5 6 
#
# 1 84.7348 41.7986 47.7006 0.0000 0.0000 0.0000
# 2 41.7986 84.7348 47.7006 0.0000 0.0000 0.0000
# 3 47.7006 47.7006 112.2904 0.0000 0.0000 0.0000
# 4 0.0000 0.0000 0.0000 22.3397 0.0000 0.0000
# 5 0.0000 0.0000 0.0000 0.0000 22.3397 0.0000
# 6 0.0000 0.0000 0.0000 0.0000 0.0000 16.8516
#
#
#
# Elastic Compliance Matrix: (Units=1/GPa)
#
#
# Indices 1 2 3 4 5 6 
#
# 1 0.017459 -0.005832 -0.004939 0.000000 0.000000 0.000000
# 2 -0.005832 0.017459 -0.004939 0.000000 0.000000 0.000000
# 3 -0.004939 -0.004939 0.013102 0.000000 0.000000 0.000000
# 4 0.000000 0.000000 0.000000 0.044763 0.000000 0.000000
# 5 0.000000 0.000000 0.000000 0.000000 0.044763 0.000000
# 6 0.000000 0.000000 0.000000 0.000000 0.000000 0.059342
#
#
# Mechanical properties :
#
#
# Convention : Reuss Voigt Hill
#
# Bulk Modulus (GPa) = 60.24381 61.79552 61.01966
# Shear Modulus (GPa) = 21.38212 21.94353 21.66283
#
# Velocity S-wave (km/s) = 3.53624 3.58237 3.55938
# Velocity P-wave (km/s) = 7.20459 7.29735 7.25112
#
# Compressibility (1/GPa) = 0.01659922
#
# Stress axis : x y z
#
# Youngs Moduli (GPa) = 57.27818 57.27818 76.32612
#
# Poissons Ratio (x) = 0.33403 0.37698
# Poissons Ratio (y) = 0.33403 0.37698
# Poissons Ratio (z) = 0.28290 0.28290
#
# Static dielectric constant tensor:
#      x y z
#    x 3.183300 0.000000 0.000000 
#    y 0.000000 3.183300 0.000000 
#    z 0.000000 0.000000 3.230160 
# 
# 
# High freq. dielectric constant tensor:
#      x y z
#    x 1.655320 0.000000 0.000000 
#    y 0.000000 1.655320 0.000000 
#    z 0.000000 0.000000 1.648940 
# 
# From -- ./inp_files/5781.got.cif
#   From: 2010.03.12/outbox.cif.g09.slc.cpg/sg127_3_cif.got.tgz:5781.got - 2010.04.06 17:03:15.
