data_PCOD8314773
_publ_section_title
;
Structure prediction by ZEFSAII (Michael W. Deem and Ramdas Pophale) SiO2 
 PCOD8314773
Probable space group: P 4/M N C
;
_chemical_formula_sum "Si O2"
_cell_formula_units_Z 88
_cell_length_a 11.108668
_cell_length_b 11.108668
_cell_length_c 30.963705
_cell_angle_alpha 90.000000
_cell_angle_beta 90.000000
_cell_angle_gamma 90.000000
_cell_volume 3820.998753
_symmetry_space_group_name_H-M "P 4/M N C"
_symmetry_group_IT_number 128
_symmetry_cell_setting 'tetragonal'
loop_
_space_group_symop_operation_xyz
x,y,z
-y,x,z
-x,-y,z
y,-x,z
1/2+x,1/2-y,1/2-z
1/2-x,1/2+y,1/2-z
1/2+y,1/2+x,1/2-z
1/2-y,1/2-x,1/2-z
-x,-y,-z
y,-x,-z
x,y,-z
-y,x,-z
1/2-x,1/2+y,1/2+z
1/2+x,1/2-y,1/2+z
1/2-y,1/2-x,1/2+z
1/2+y,1/2+x,1/2+z
loop_
_atom_site_type_symbol
_atom_site_label
_atom_site_fract_x
_atom_site_fract_y
_atom_site_fract_z
Si Si1 0.938902 0.809762 0.094203
Si Si2 0.273843 0.116679 0.315562
Si Si3 0.312649 0.436974 0.500000
Si Si4 0.453339 0.692869 0.952976
Si Si5 0.797105 0.615771 0.134108
Si Si6 0.427925 0.319836 0.278220
O O1 0.905826 0.712497 0.131014
O O2 0.075969 0.850409 0.100354
O O3 0.915220 0.748212 0.046457
O O4 0.178947 0.175013 0.348880
O O5 0.383636 0.206230 0.305590
O O6 0.201896 0.083892 0.272558
O O7 0.331625 0.994868 0.334853
O O8 0.426002 0.350958 0.500000
O O9 0.357004 0.587168 0.949450
O O10 0.434450 0.783716 0.914061
O O11 0.436401 0.757226 0.000000
O O12 0.565942 0.345074 0.290570
#
# Coordination Sequence:
#
# PCOD8314773 Si02
#       6
#    16  16   8  16  16  16
#     4   9  20  39  63  92 133 189 251 296 349 411
#     4  11  24  40  67 107 136 174 228 281 351 427
#     4   7  12  30  60  90 120 173 250 309 333 393
#     4   9  18  33  57  91 132 186 242 277 322 408
#     4  12  22  38  66  97 147 181 222 291 356 413
#     4  10  22  46  77  99 131 179 230 282 350 429
#
# _framework density 23.030626000000002
#
# number of rings (size 3 to 8) (size 9 to 14) (size 15 to 20)
#    0.000    2.091    3.636    1.636    1.273    1.818 
#    0.000    5.455    0.000    0.000    0.000    6.364 
#    0.000    0.000    0.000    0.000    0.000    0.000 
#
# Total GULP energy -1090677.968739 kJ/mol
# GULP energy per Si atom -12394.067827 kJ/mol
# Density = 2.297821 g / cm^3
# Si number density = 23.030626 Si / 1000 Ang^3
#
#
#
# Elastic Constant Matrix: (Units=GPa)
#
#
# Indices 1 2 3 4 5 6 
#
# 1 102.5571 58.5912 54.0478 0.0000 0.0000 0.0000
# 2 58.5912 102.5571 54.0478 0.0000 0.0000 0.0000
# 3 54.0478 54.0478 108.0981 0.0000 0.0000 0.0000
# 4 0.0000 0.0000 0.0000 38.7164 0.0000 0.0000
# 5 0.0000 0.0000 0.0000 0.0000 38.7164 0.0000
# 6 0.0000 0.0000 0.0000 0.0000 0.0000 18.0763
#
#
#
# Elastic Compliance Matrix: (Units=1/GPa)
#
#
# Indices 1 2 3 4 5 6 
#
# 1 0.016041 -0.006704 -0.004668 0.000000 0.000000 0.000000
# 2 -0.006704 0.016041 -0.004668 0.000000 0.000000 0.000000
# 3 -0.004668 -0.004668 0.013919 0.000000 0.000000 0.000000
# 4 0.000000 0.000000 0.000000 0.025829 0.000000 0.000000
# 5 0.000000 0.000000 0.000000 0.000000 0.025829 0.000000
# 6 0.000000 0.000000 0.000000 0.000000 0.000000 0.055321
#
#
# Mechanical properties :
#
#
# Convention : Reuss Voigt Hill
#
# Bulk Modulus (GPa) = 71.84150 71.84287 71.84218
# Shear Modulus (GPa) = 26.35731 28.87021 27.61376
#
# Velocity S-wave (km/s) = 3.38664 3.54440 3.46642
# Velocity P-wave (km/s) = 6.82305 6.92911 6.87629
#
# Compressibility (1/GPa) = 0.01391953
#
# Stress axis : x y z
#
# Youngs Moduli (GPa) = 62.34060 62.34060 71.84377
#
# Poissons Ratio (x) = 0.41793 0.33539
# Poissons Ratio (y) = 0.41793 0.33539
# Poissons Ratio (z) = 0.29103 0.29103
#
# Static dielectric constant tensor:
#      x y z
#    x 3.840070 0.000000 0.000000 
#    y 0.000000 3.840070 0.000000 
#    z 0.000000 0.000000 4.586060 
# 
# 
# High freq. dielectric constant tensor:
#      x y z
#    x 1.886300 0.000000 0.000000 
#    y 0.000000 1.886300 0.000000 
#    z 0.000000 0.000000 1.938010 
# 
# From -- ./inp_files/7252.got.cif
#   From: 2010.03.12/outbox.cif.g09.slc.cpg/sg128_4_cif.got.tgz:7252.got - 2010.04.06 17:11:05.
