data_PCOD8314222
_publ_section_title
;
Structure prediction by ZEFSAII (Michael W. Deem and Ramdas Pophale) SiO2 
 PCOD8314222
Probable space group: P 4/M B M
;
_chemical_formula_sum "Si O2"
_cell_formula_units_Z 96
_cell_length_a 24.260300
_cell_length_b 24.260300
_cell_length_c 8.796168
_cell_angle_alpha 90.000000
_cell_angle_beta 90.000000
_cell_angle_gamma 90.000000
_cell_volume 5177.091603
_symmetry_space_group_name_H-M "P 4/M B M"
_symmetry_group_IT_number 127
_symmetry_cell_setting 'tetragonal'
loop_
_space_group_symop_operation_xyz
x,y,z
-y,x,z
-x,-y,z
y,-x,z
1/2+x,1/2-y,-z
1/2-x,1/2+y,-z
1/2+y,1/2+x,-z
1/2-y,1/2-x,-z
-x,-y,-z
y,-x,-z
x,y,-z
-y,x,-z
1/2-x,1/2+y,z
1/2+x,1/2-y,z
1/2-y,1/2-x,z
1/2+y,1/2+x,z
loop_
_atom_site_type_symbol
_atom_site_label
_atom_site_fract_x
_atom_site_fract_y
_atom_site_fract_z
Si Si1 0.398194 0.191151 0.828782
Si Si2 0.660162 0.000832 0.670136
Si Si3 0.194506 0.857162 0.177576
Si Si4 0.386875 0.886875 0.681242
Si Si5 0.201581 0.298420 0.318896
Si Si6 0.029428 0.212485 0.330703
Si Si7 0.804631 0.907823 0.322587
O O1 0.341413 0.158588 0.820585
O O2 0.448261 0.151262 0.777954
O O3 0.393277 0.241538 0.713722
O O4 0.409174 0.212367 0.000000
O O5 0.639402 0.986661 0.500000
O O6 0.626656 0.052060 0.740669
O O7 0.723188 0.018416 0.664897
O O8 0.238164 0.817019 0.260843
O O9 0.201373 0.921651 0.213839
O O10 0.132201 0.843312 0.226136
O O11 0.202049 0.847481 0.000000
O O12 0.384087 0.884087 0.500000
O O13 0.342682 0.842682 0.744024
O O14 0.203588 0.296413 0.500000
O O15 0.046945 0.192585 0.500000
O O16 0.972070 0.182707 0.280582
O O17 0.814627 0.897519 0.500000
#
# Coordination Sequence:
#
# PCOD8314222 Si02
#       7
#    16  16  16   8   8  16  16
#     4  10  21  36  52  73 106 143 180 228 281 331
#     4   9  17  32  54  77 100 136 186 229 270 323
#     4  12  24  36  55  87 122 147 177 226 282 332
#     4   9  16  31  54  78 103 136 180 231 270 312
#     4  11  21  37  57  78 114 153 186 224 269 326
#     4   9  18  36  59  80 105 144 189 224 264 327
#     4  10  22  39  60  82 107 147 190 225 266 323
#
# _framework density 18.543230999999999
#
# number of rings (size 3 to 8) (size 9 to 14) (size 15 to 20)
#    0.000    2.000    1.667    3.750    1.167    4.667 
#    0.000    0.833    0.000    3.000    0.000    3.500 
#    0.000    0.000    0.000    0.000    0.000    0.000 
#
# Total GULP energy -1190197.029463 kJ/mol
# GULP energy per Si atom -12397.885724 kJ/mol
# Density = 1.850103 g / cm^3
# Si number density = 18.543231 Si / 1000 Ang^3
#
#
#
# Elastic Constant Matrix: (Units=GPa)
#
#
# Indices 1 2 3 4 5 6 
#
# 1 69.1178 29.6535 31.8647 0.0000 0.0000 0.0000
# 2 29.6535 69.1175 31.8644 0.0000 0.0000 0.0000
# 3 31.8647 31.8644 86.7687 0.0000 0.0000 0.0000
# 4 0.0000 0.0000 0.0000 21.8327 0.0000 0.0000
# 5 0.0000 0.0000 0.0000 0.0000 21.8327 0.0000
# 6 0.0000 0.0000 0.0000 0.0000 0.0000 24.0919
#
#
#
# Elastic Compliance Matrix: (Units=1/GPa)
#
#
# Indices 1 2 3 4 5 6 
#
# 1 0.019304 -0.006036 -0.004873 0.000000 0.000000 0.000000
# 2 -0.006036 0.019304 -0.004873 0.000000 0.000000 0.000000
# 3 -0.004873 -0.004873 0.015104 0.000000 0.000000 0.000000
# 4 0.000000 0.000000 0.000000 0.045803 0.000000 0.000000
# 5 0.000000 0.000000 0.000000 0.000000 0.045803 0.000000
# 6 0.000000 0.000000 0.000000 0.000000 0.000000 0.041508
#
#
# Mechanical properties :
#
#
# Convention : Reuss Voigt Hill
#
# Bulk Modulus (GPa) = 45.14690 45.75212 45.44951
# Shear Modulus (GPa) = 22.14646 22.32622 22.23634
#
# Velocity S-wave (km/s) = 3.45964 3.47365 3.46665
# Velocity P-wave (km/s) = 6.35283 6.38867 6.37078
#
# Compressibility (1/GPa) = 0.02214992
#
# Stress axis : x y z
#
# Youngs Moduli (GPa) = 51.80311 51.80308 66.20906
#
# Poissons Ratio (x) = 0.31266 0.32261
# Poissons Ratio (y) = 0.31266 0.32261
# Poissons Ratio (z) = 0.25242 0.25241
#
# Static dielectric constant tensor:
#      x y z
#    x 3.546680 0.000000 0.000000 
#    y 0.000000 3.546680 0.000000 
#    z 0.000000 0.000000 3.389460 
# 
# 
# High freq. dielectric constant tensor:
#      x y z
#    x 1.708770 0.000000 0.000000 
#    y 0.000000 1.708770 0.000000 
#    z 0.000000 0.000000 1.714190 
# 
# From -- ./inp_files/2094.got.cif
#   From: 2010.03.12/outbox.cif.g09.slc.cpg/sg127_2_cif.got.tgz:2094.got - 2010.04.06 17:03:15.
