data_PCOD8314790
_publ_section_title
;
Structure prediction by ZEFSAII (Michael W. Deem and Ramdas Pophale) SiO2 
 PCOD8314790
Probable space group: P 4/M N C
;
_chemical_formula_sum "Si O2"
_cell_formula_units_Z 120
_cell_length_a 17.633870
_cell_length_b 17.633870
_cell_length_c 23.419164
_cell_angle_alpha 90.000000
_cell_angle_beta 90.000000
_cell_angle_gamma 90.000000
_cell_volume 7282.267996
_symmetry_space_group_name_H-M "P 4/M N C"
_symmetry_group_IT_number 128
_symmetry_cell_setting 'tetragonal'
loop_
_space_group_symop_operation_xyz
x,y,z
-y,x,z
-x,-y,z
y,-x,z
1/2+x,1/2-y,1/2-z
1/2-x,1/2+y,1/2-z
1/2+y,1/2+x,1/2-z
1/2-y,1/2-x,1/2-z
-x,-y,-z
y,-x,-z
x,y,-z
-y,x,-z
1/2-x,1/2+y,1/2+z
1/2+x,1/2-y,1/2+z
1/2-y,1/2-x,1/2+z
1/2+y,1/2+x,1/2+z
loop_
_atom_site_type_symbol
_atom_site_label
_atom_site_fract_x
_atom_site_fract_y
_atom_site_fract_z
Si Si1 0.849299 0.159119 0.390490
Si Si2 0.318815 0.685587 0.564332
Si Si3 0.570990 0.600385 0.000000
Si Si4 0.318256 0.146699 0.565256
Si Si5 0.189725 0.362171 0.066933
Si Si6 0.589183 0.586915 0.347727
Si Si7 0.085064 0.500837 0.067550
Si Si8 0.589022 0.413724 0.780118
O O1 0.906542 0.138372 0.440728
O O2 0.850829 0.249647 0.390482
O O3 0.768562 0.120256 0.402189
O O4 0.870196 0.136889 0.326820
O O5 0.348896 0.673425 0.500000
O O6 0.233178 0.651459 0.567932
O O7 0.330630 0.774585 0.580251
O O8 0.368840 0.638599 0.607273
O O9 0.481968 0.605322 0.000000
O O10 0.291415 0.129688 0.500000
O O11 0.376658 0.081203 0.585616
O O12 0.129337 0.425113 0.089574
O O13 0.203538 0.372541 0.000000
O O14 0.501379 0.605238 0.357191
O O15 0.612131 0.612544 0.283610
O O16 0.000000 0.500000 0.093538
O O17 0.080613 0.496271 0.000000
O O18 0.604948 0.501662 0.789511
#
# Coordination Sequence:
#
# PCOD8314790 Si02
#       8
#    16  16   8  16  16  16  16  16
#     4  11  18  29  47  70  98 137 169 198 249 298
#     4   9  18  33  51  77 104 126 156 207 266 311
#     4  11  22  26  36  70 106 136 170 203 242 292
#     4   9  18  31  46  70 104 132 163 208 257 299
#     4   9  18  31  46  70 104 132 163 208 257 299
#     4   9  19  36  54  72  99 131 161 200 254 311
#     4   9  18  30  46  66  94 138 178 204 247 308
#     4   9  19  33  47  68 102 136 169 204 235 289
#
# _framework density 16.478383000000001
#
# number of rings (size 3 to 8) (size 9 to 14) (size 15 to 20)
#    0.000    2.600    1.333    2.400    3.733    2.667 
#    0.000    6.000    0.000    0.000    0.000    0.000 
#    0.000    0.000    0.000    0.000    0.000    0.000 
#
# Total GULP energy -1486930.769348 kJ/mol
# GULP energy per Si atom -12391.089745 kJ/mol
# Density = 1.644088 g / cm^3
# Si number density = 16.478383 Si / 1000 Ang^3
#
#
#
# Elastic Constant Matrix: (Units=GPa)
#
#
# Indices 1 2 3 4 5 6 
#
# 1 78.7186 53.0223 38.5928 0.0000 0.0000 0.0000
# 2 53.0223 78.7186 38.5928 0.0000 0.0000 0.0000
# 3 38.5928 38.5928 84.6754 0.0000 0.0000 0.0000
# 4 0.0000 0.0000 0.0000 25.6412 0.0000 0.0000
# 5 0.0000 0.0000 0.0000 0.0000 25.6412 0.0000
# 6 0.0000 0.0000 0.0000 0.0000 0.0000 31.3784
#
#
#
# Elastic Compliance Matrix: (Units=1/GPa)
#
#
# Indices 1 2 3 4 5 6 
#
# 1 0.024636 -0.014280 -0.004720 0.000000 0.000000 0.000000
# 2 -0.014280 0.024636 -0.004720 0.000000 0.000000 0.000000
# 3 -0.004720 -0.004720 0.016112 0.000000 0.000000 0.000000
# 4 0.000000 0.000000 0.000000 0.039000 0.000000 0.000000
# 5 0.000000 0.000000 0.000000 0.000000 0.039000 0.000000
# 6 0.000000 0.000000 0.000000 0.000000 0.000000 0.031869
#
#
# Mechanical properties :
#
#
# Convention : Reuss Voigt Hill
#
# Bulk Modulus (GPa) = 55.72778 55.83651 55.78215
# Shear Modulus (GPa) = 21.86513 23.99247 22.92880
#
# Velocity S-wave (km/s) = 3.64661 3.81989 3.73426
# Velocity P-wave (km/s) = 7.18488 7.30847 7.24694
#
# Compressibility (1/GPa) = 0.01794437
#
# Stress axis : x y z
#
# Youngs Moduli (GPa) = 40.59088 40.59088 62.06424
#
# Poissons Ratio (x) = 0.57964 0.29294
# Poissons Ratio (y) = 0.57964 0.29294
# Poissons Ratio (z) = 0.19159 0.19159
#
# Static dielectric constant tensor:
#      x y z
#    x 3.148810 0.000000 0.000000 
#    y 0.000000 3.148810 0.000000 
#    z 0.000000 0.000000 2.822660 
# 
# 
# High freq. dielectric constant tensor:
#      x y z
#    x 1.633070 0.000000 0.000000 
#    y 0.000000 1.633070 0.000000 
#    z 0.000000 0.000000 1.602160 
# 
# From -- ./inp_files/6021.got.cif
#   From: 2010.03.12/outbox.cif.g09.slc.cpg/sg128_4_cif.got.tgz:6021.got - 2010.04.06 17:11:05.
