data_PCOD8314139
_publ_section_title
;
Structure prediction by ZEFSAII (Michael W. Deem and Ramdas Pophale) SiO2 
 PCOD8314139
Probable space group: P 4/M B M
;
_chemical_formula_sum "Si O2"
_cell_formula_units_Z 120
_cell_length_a 26.733149
_cell_length_b 26.733149
_cell_length_c 9.350559
_cell_angle_alpha 90.000000
_cell_angle_beta 90.000000
_cell_angle_gamma 90.000000
_cell_volume 6682.482234
_symmetry_space_group_name_H-M "P 4/M B M"
_symmetry_group_IT_number 127
_symmetry_cell_setting 'tetragonal'
loop_
_space_group_symop_operation_xyz
x,y,z
-y,x,z
-x,-y,z
y,-x,z
1/2+x,1/2-y,-z
1/2-x,1/2+y,-z
1/2+y,1/2+x,-z
1/2-y,1/2-x,-z
-x,-y,-z
y,-x,-z
x,y,-z
-y,x,-z
1/2-x,1/2+y,z
1/2+x,1/2-y,z
1/2-y,1/2-x,z
1/2+y,1/2+x,z
loop_
_atom_site_type_symbol
_atom_site_label
_atom_site_fract_x
_atom_site_fract_y
_atom_site_fract_z
Si Si1 0.630404 0.546365 0.727548
Si Si2 0.059157 0.764440 0.836175
Si Si3 0.487435 0.580960 0.000000
Si Si4 0.861024 0.939521 0.653470
Si Si5 0.777313 0.358839 0.668865
Si Si6 0.057177 0.236653 0.834874
Si Si7 0.638320 0.219977 0.331406
Si Si8 0.792517 0.790272 0.159826
O O1 0.617712 0.516039 0.869542
O O2 0.630407 0.498946 0.621359
O O3 0.589077 0.587395 0.690109
O O4 0.684940 0.570805 0.751892
O O5 0.070987 0.819370 0.772859
O O6 0.086465 0.720865 0.742175
O O7 0.001124 0.751533 0.825753
O O8 0.077951 0.763167 0.000000
O O9 0.443401 0.541323 0.000000
O O10 0.842590 0.918029 0.500000
O O11 0.767916 0.361698 0.500000
O O12 0.827892 0.327892 0.701690
O O13 0.728987 0.335618 0.747419
O O14 0.084431 0.281801 0.747031
O O15 0.075301 0.234929 0.000000
O O16 0.633726 0.230381 0.500000
O O17 0.668833 0.168833 0.303320
O O18 0.663190 0.267368 0.253380
O O19 0.750080 0.749921 0.139274
O O20 0.810559 0.807287 0.000000
#
# Coordination Sequence:
#
# PCOD8314139 Si02
#       8
#    16  16   8  16  16  16  16  16
#     4  11  22  36  55  72  98 128 174 218 275 325
#     4  10  23  39  56  78 105 137 174 214 258 311
#     4  11  20  34  56  76  91 130 174 232 283 325
#     4  11  24  38  52  72 100 131 170 221 272 322
#     4  10  20  35  56  80 107 138 171 210 257 308
#     4  10  22  37  56  77 103 138 174 215 262 315
#     4  10  21  36  54  77 105 136 173 216 261 313
#     4   9  17  30  49  73 101 133 171 213 255 299
#
# _framework density 17.9574
#
# number of rings (size 3 to 8) (size 9 to 14) (size 15 to 20)
#    0.000    1.800    2.000    2.000    3.733    6.667 
#    0.000    0.667    0.000    0.000    0.000    0.000 
#    0.000    0.533    0.000    5.867    0.000    4.267 
#
# Total GULP energy -1487012.579713 kJ/mol
# GULP energy per Si atom -12391.771498 kJ/mol
# Density = 1.791653 g / cm^3
# Si number density = 17.957400 Si / 1000 Ang^3
#
#
#
# Elastic Constant Matrix: (Units=GPa)
#
#
# Indices 1 2 3 4 5 6 
#
# 1 71.8726 43.5069 43.5819 0.0000 0.0000 0.0000
# 2 43.5069 71.8726 43.5819 0.0000 0.0000 0.0000
# 3 43.5819 43.5819 139.9098 0.0000 0.0000 0.0000
# 4 0.0000 0.0000 0.0000 23.7072 0.0000 0.0000
# 5 0.0000 0.0000 0.0000 0.0000 23.7072 0.0000
# 6 0.0000 0.0000 0.0000 0.0000 0.0000 34.6819
#
#
#
# Elastic Compliance Matrix: (Units=1/GPa)
#
#
# Indices 1 2 3 4 5 6 
#
# 1 0.023294 -0.011960 -0.003531 0.000000 0.000000 0.000000
# 2 -0.011960 0.023294 -0.003531 0.000000 0.000000 0.000000
# 3 -0.003531 -0.003531 0.009347 0.000000 0.000000 0.000000
# 4 0.000000 0.000000 0.000000 0.042181 0.000000 0.000000
# 5 0.000000 0.000000 0.000000 0.000000 0.042181 0.000000
# 6 0.000000 0.000000 0.000000 0.000000 0.000000 0.028833
#
#
# Mechanical properties :
#
#
# Convention : Reuss Voigt Hill
#
# Bulk Modulus (GPa) = 55.88751 60.55515 58.22133
# Shear Modulus (GPa) = 23.45903 26.61822 25.03862
#
# Velocity S-wave (km/s) = 3.61830 3.85424 3.73813
# Velocity P-wave (km/s) = 6.97466 7.32131 7.15009
#
# Compressibility (1/GPa) = 0.01789309
#
# Stress axis : x y z
#
# Youngs Moduli (GPa) = 42.92945 42.92945 106.98573
#
# Poissons Ratio (x) = 0.51343 0.37773
# Poissons Ratio (y) = 0.51343 0.37773
# Poissons Ratio (z) = 0.15157 0.15157
#
# Static dielectric constant tensor:
#      x y z
#    x 3.248000 0.000000 0.000000 
#    y 0.000000 3.248000 0.000000 
#    z 0.000000 0.000000 3.574440 
# 
# 
# High freq. dielectric constant tensor:
#      x y z
#    x 1.671990 0.000000 0.000000 
#    y 0.000000 1.671990 0.000000 
#    z 0.000000 0.000000 1.720980 
# 
# From -- ./inp_files/2400.got.cif
#   From: 2010.03.12/outbox.cif.g09.slc.cpg/sg127_2_cif.got.tgz:2400.got - 2010.04.06 17:03:15.
