data_PCOD8314158
_publ_section_title
;
Structure prediction by ZEFSAII (Michael W. Deem and Ramdas Pophale) SiO2 
 PCOD8314158
Probable space group: P 4/M B M
;
_chemical_formula_sum "Si O2"
_cell_formula_units_Z 64
_cell_length_a 20.068560
_cell_length_b 20.068560
_cell_length_c 8.448992
_cell_angle_alpha 90.000000
_cell_angle_beta 90.000000
_cell_angle_gamma 90.000000
_cell_volume 3402.807030
_symmetry_space_group_name_H-M "P 4/M B M"
_symmetry_group_IT_number 127
_symmetry_cell_setting 'tetragonal'
loop_
_space_group_symop_operation_xyz
x,y,z
-y,x,z
-x,-y,z
y,-x,z
1/2+x,1/2-y,-z
1/2-x,1/2+y,-z
1/2+y,1/2+x,-z
1/2-y,1/2-x,-z
-x,-y,-z
y,-x,-z
x,y,-z
-y,x,-z
1/2-x,1/2+y,z
1/2+x,1/2-y,z
1/2-y,1/2-x,z
1/2+y,1/2+x,z
loop_
_atom_site_type_symbol
_atom_site_label
_atom_site_fract_x
_atom_site_fract_y
_atom_site_fract_z
Si Si1 0.683674 0.076101 0.686961
Si Si2 0.325632 0.566773 0.684350
Si Si3 0.575565 0.327787 0.182927
Si Si4 0.926900 0.323045 0.686454
O O1 0.696341 0.079766 0.500000
O O2 0.627968 0.127968 0.743551
O O3 0.752193 0.093663 0.773678
O O4 0.659208 0.002423 0.737681
O O5 0.323913 0.547729 0.500000
O O6 0.377582 0.624823 0.714529
O O7 0.346051 0.500678 0.779376
O O8 0.252172 0.590565 0.740645
O O9 0.590115 0.340716 0.000000
O O10 0.920111 0.329036 0.500000
O O11 0.875187 0.375187 0.767002
#
# Coordination Sequence:
#
# PCOD8314158 Si02
#       4
#    16  16  16  16
#     4   9  18  33  53  77 106 142 182 220 261 313
#     4  10  20  36  56  78 105 138 175 215 262 319
#     4  11  22  36  54  78 107 138 174 218 267 316
#     4   8  15  29  51  79 106 132 169 219 265 302
#
# _framework density 18.808001000000001
#
# number of rings (size 3 to 8) (size 9 to 14) (size 15 to 20)
#    0.000    2.500    0.000    4.500    0.000    2.500 
#    0.000    7.500    0.000   18.000    0.000    7.000 
#    0.000    0.000    0.000    0.000    0.000    0.000 
#
# Total GULP energy -793561.084876 kJ/mol
# GULP energy per Si atom -12399.391951 kJ/mol
# Density = 1.876519 g / cm^3
# Si number density = 18.808001 Si / 1000 Ang^3
#
#
#
# Elastic Constant Matrix: (Units=GPa)
#
#
# Indices 1 2 3 4 5 6 
#
# 1 102.0546 102.3324 7.4411 0.0000 0.0000 0.0000
# 2 102.3324 102.0546 7.4411 0.0000 0.0000 0.0000
# 3 7.4411 7.4411 39.7424 0.0000 0.0000 0.0000
# 4 0.0000 0.0000 0.0000 15.9201 0.0000 0.0000
# 5 0.0000 0.0000 0.0000 0.0000 15.9201 0.0000
# 6 0.0000 0.0000 0.0000 0.0000 0.0000 47.2194
#
#
#
# Elastic Compliance Matrix: (Units=1/GPa)
#
#
# Indices 1 2 3 4 5 6 
#
# 1 -1.797387 1.802348 -0.000929 0.000000 0.000000 0.000000
# 2 1.802348 -1.797387 -0.000929 0.000000 0.000000 0.000000
# 3 -0.000929 -0.000929 0.025510 0.000000 0.000000 0.000000
# 4 0.000000 0.000000 0.000000 0.062814 0.000000 0.000000
# 5 0.000000 0.000000 0.000000 0.000000 0.062814 0.000000
# 6 0.000000 0.000000 0.000000 0.000000 0.000000 0.021178
#
#
# Mechanical properties :
#
#
# Convention : Reuss Voigt Hill
#
# Bulk Modulus (GPa) = 31.53031 53.14228 42.33629
# Shear Modulus (GPa) = -0.71297 24.25439 11.77071
#
# Velocity S-wave (km/s) = -0.61636 3.59497 2.50438
# Velocity P-wave (km/s) = 4.03660 6.74894 5.56068
#
# Compressibility (1/GPa) = 0.03171552
#
# Stress axis : x y z
#
# Youngs Moduli (GPa) = -0.55636 -0.55636 39.20057
#
# Poissons Ratio (x) = 1.00276 0.03641
# Poissons Ratio (y) = 1.00276 0.03641
# Poissons Ratio (z) = -0.00052 -0.00052
#
# Static dielectric constant tensor:
#      x y z
#    x 3.573870 0.000000 0.000000 
#    y 0.000000 3.573870 0.000000 
#    z 0.000000 0.000000 3.147620 
# 
# 
# High freq. dielectric constant tensor:
#      x y z
#    x 1.733940 0.000000 0.000000 
#    y 0.000000 1.733940 0.000000 
#    z 0.000000 0.000000 1.707550 
# 
# From -- ./inp_files/1356.got.cif
#   From: 2010.03.12/outbox.cif.g09.slc.cpg/sg127_1_cif.got.tgz:1356.got - 2010.04.06 17:03:15.
