data_PCOD8314251
_publ_section_title
;
Structure prediction by ZEFSAII (Michael W. Deem and Ramdas Pophale) SiO2 
 PCOD8314251
Probable space group: P 4/M B M
;
_chemical_formula_sum "Si O2"
_cell_formula_units_Z 96
_cell_length_a 23.998836
_cell_length_b 23.998836
_cell_length_c 8.381694
_cell_angle_alpha 90.000000
_cell_angle_beta 90.000000
_cell_angle_gamma 90.000000
_cell_volume 4827.387453
_symmetry_space_group_name_H-M "P 4/M B M"
_symmetry_group_IT_number 127
_symmetry_cell_setting 'tetragonal'
loop_
_space_group_symop_operation_xyz
x,y,z
-y,x,z
-x,-y,z
y,-x,z
1/2+x,1/2-y,-z
1/2-x,1/2+y,-z
1/2+y,1/2+x,-z
1/2-y,1/2-x,-z
-x,-y,-z
y,-x,-z
x,y,-z
-y,x,-z
1/2-x,1/2+y,z
1/2+x,1/2-y,z
1/2-y,1/2-x,z
1/2+y,1/2+x,z
loop_
_atom_site_type_symbol
_atom_site_label
_atom_site_fract_x
_atom_site_fract_y
_atom_site_fract_z
Si Si1 0.202295 0.875824 0.685056
Si Si2 0.879451 0.207038 0.812817
Si Si3 0.606571 0.893430 0.174316
Si Si4 0.725701 0.504523 0.817445
Si Si5 0.679590 0.179590 0.312939
Si Si6 0.303644 0.196357 0.171633
Si Si7 0.502650 0.841276 0.318098
Si Si8 0.594808 0.094808 0.815255
O O1 0.191081 0.868564 0.500000
O O2 0.148392 0.852486 0.778369
O O3 0.203095 0.941774 0.722616
O O4 0.257113 0.838741 0.731809
O O5 0.836422 0.253323 0.735462
O O6 0.943433 0.207921 0.744881
O O7 0.884431 0.219815 0.000000
O O8 0.651310 0.848691 0.129083
O O9 0.562651 0.865542 0.289684
O O10 0.584071 0.915930 0.000000
O O11 0.791939 0.508738 0.805792
O O12 0.706289 0.509840 0.000000
O O13 0.668193 0.168193 0.500000
O O14 0.641561 0.141561 0.203143
O O15 0.280584 0.219417 0.000000
O O16 0.495694 0.820183 0.500000
O O17 0.460439 0.889726 0.277811
O O18 0.583201 0.083201 0.000000
#
# Coordination Sequence:
#
# PCOD8314251 Si02
#       8
#    16  16   8  16   8   8  16   8
#     4  11  23  38  59  89 126 160 195 245 299 355
#     4  10  21  38  61  89 121 157 199 245 291 350
#     4  11  21  39  61  84 115 156 207 250 290 353
#     4  11  22  39  63  88 117 159 202 243 292 355
#     4  10  21  37  56  86 125 158 191 244 297 346
#     4   9  17  34  59  88 120 152 193 245 289 335
#     4  12  24  39  58  85 119 156 199 253 306 350
#     4  12  24  38  60  84 110 158 209 251 293 350
#
# _framework density 19.886534000000001
#
# number of rings (size 3 to 8) (size 9 to 14) (size 15 to 20)
#    0.000    1.167    3.333    4.000    0.000    2.333 
#    0.000    1.667    0.000    0.500    0.000    3.500 
#    0.000    0.000    0.000    0.000    0.000    0.000 
#
# Total GULP energy -1189523.594900 kJ/mol
# GULP energy per Si atom -12390.870780 kJ/mol
# Density = 1.984127 g / cm^3
# Si number density = 19.886534 Si / 1000 Ang^3
#
#
#
# Elastic Constant Matrix: (Units=GPa)
#
#
# Indices 1 2 3 4 5 6 
#
# 1 108.3585 40.3549 13.7801 0.0000 0.0000 0.0000
# 2 40.3549 108.3579 13.7802 0.0000 0.0000 0.0000
# 3 13.7801 13.7802 54.6752 0.0000 0.0000 0.0000
# 4 0.0000 0.0000 0.0000 24.2410 0.0000 0.0000
# 5 0.0000 0.0000 0.0000 0.0000 24.2409 0.0000
# 6 0.0000 0.0000 0.0000 0.0000 0.0000 35.6132
#
#
#
# Elastic Compliance Matrix: (Units=1/GPa)
#
#
# Indices 1 2 3 4 5 6 
#
# 1 0.010879 -0.003826 -0.001778 0.000000 0.000000 0.000000
# 2 -0.003826 0.010880 -0.001778 0.000000 0.000000 0.000000
# 3 -0.001778 -0.001778 0.019186 0.000000 0.000000 0.000000
# 4 0.000000 0.000000 0.000000 0.041252 0.000000 0.000000
# 5 0.000000 0.000000 0.000000 0.000000 0.041253 0.000000
# 6 0.000000 0.000000 0.000000 0.000000 0.000000 0.028079
#
#
# Mechanical properties :
#
#
# Convention : Reuss Voigt Hill
#
# Bulk Modulus (GPa) = 38.19367 45.24690 41.72029
# Shear Modulus (GPa) = 28.56822 30.38410 29.47616
#
# Velocity S-wave (km/s) = 3.79431 3.91304 3.85413
# Velocity P-wave (km/s) = 6.20026 6.57402 6.38988
#
# Compressibility (1/GPa) = 0.02618235
#
# Stress axis : x y z
#
# Youngs Moduli (GPa) = 91.91630 91.91567 52.12135
#
# Poissons Ratio (x) = 0.35164 0.09266
# Poissons Ratio (y) = 0.35164 0.09266
# Poissons Ratio (z) = 0.16341 0.16341
#
# Static dielectric constant tensor:
#      x y z
#    x 3.595450 0.000000 0.000000 
#    y 0.000000 3.595450 0.000000 
#    z 0.000000 0.000000 3.490580 
# 
# 
# High freq. dielectric constant tensor:
#      x y z
#    x 1.767990 0.000000 0.000000 
#    y 0.000000 1.767990 0.000000 
#    z 0.000000 0.000000 1.765710 
# 
# From -- ./inp_files/2153.got.cif
#   From: 2010.03.12/outbox.cif.g09.slc.cpg/sg127_2_cif.got.tgz:2153.got - 2010.04.06 17:03:15.
