data_PCOD8314972
_publ_section_title
;
Structure prediction by ZEFSAII (Michael W. Deem and Ramdas Pophale) SiO2 
 PCOD8314972
Probable space group: P 4/N M M
;
_chemical_formula_sum "Si O2"
_cell_formula_units_Z 112
_cell_length_a 23.672651
_cell_length_b 23.672651
_cell_length_c 11.238079
_cell_angle_alpha 90.000000
_cell_angle_beta 90.000000
_cell_angle_gamma 90.000000
_cell_volume 6297.756599
_symmetry_space_group_name_H-M "P 4/N M M"
_symmetry_group_IT_number 129
_symmetry_cell_setting 'tetragonal'
loop_
_space_group_symop_operation_xyz
x,y,z
1/2-y,x,z
1/2-x,1/2-y,z
y,1/2-x,z
1/2+x,-y,-z
-x,1/2+y,-z
1/2+y,1/2+x,-z
-y,-x,-z
-x,-y,-z
1/2+y,-x,-z
1/2+x,1/2+y,-z
-y,1/2+x,-z
1/2-x,y,z
x,1/2-y,z
1/2-y,1/2-x,z
y,x,z
loop_
_atom_site_type_symbol
_atom_site_label
_atom_site_fract_x
_atom_site_fract_y
_atom_site_fract_z
Si Si1 0.016870 0.630192 0.069034
Si Si2 0.519588 0.686416 0.399940
Si Si3 0.021799 0.568459 0.833535
Si Si4 0.091936 0.316054 0.824442
Si Si5 0.685631 0.136714 0.611751
Si Si6 0.186820 0.590493 0.759694
Si Si7 0.613171 0.034128 0.570806
O O1 0.024624 0.573408 0.148736
O O2 0.067991 0.671529 0.108744
O O3 0.955686 0.657753 0.089197
O O4 0.025273 0.618801 0.929365
O O5 0.522234 0.750000 0.452015
O O6 0.572164 0.676956 0.311909
O O7 0.461382 0.676459 0.328953
O O8 0.521316 0.638617 0.503853
O O9 0.019585 0.594316 0.702828
O O10 0.963897 0.536104 0.857878
O O11 0.100825 0.250000 0.856399
O O12 0.150723 0.349278 0.842925
O O13 0.679473 0.179473 0.500000
O O14 0.750000 0.137181 0.656486
O O15 0.644276 0.149820 0.722174
O O16 0.667454 0.075292 0.566180
O O17 0.250000 0.612616 0.758110
O O18 0.559864 0.059864 0.500000
#
# Coordination Sequence:
#
# PCOD8314972 Si02
#       7
#    16  16  16  16  16  16  16
#     4  10  19  37  55  75 105 139 177 216 263 323
#     4   9  17  31  50  72 103 140 174 211 257 315
#     4  11  22  34  55  79 103 136 175 220 264 315
#     4  10  20  35  58  84 109 141 178 221 275 331
#     4  11  20  31  48  75 109 146 184 229 272 311
#     4  10  18  32  53  74 101 139 183 224 262 308
#     4  11  19  32  50  76 109 139 174 217 269 320
#
# _framework density 17.784110999999999
#
# number of rings (size 3 to 8) (size 9 to 14) (size 15 to 20)
#    0.000    1.714    4.286    4.714    0.000    2.000 
#    0.000    2.857    0.000    0.000    0.000    0.000 
#    0.000    0.000    0.000    3.571    0.000    0.000 
#
# Total GULP energy -1388367.917134 kJ/mol
# GULP energy per Si atom -12396.142117 kJ/mol
# Density = 1.774363 g / cm^3
# Si number density = 17.784111 Si / 1000 Ang^3
#
#
#
# Elastic Constant Matrix: (Units=GPa)
#
#
# Indices 1 2 3 4 5 6 
#
# 1 65.8791 36.8412 20.4845 0.0000 0.0000 0.0000
# 2 36.8412 65.8791 20.4845 0.0000 0.0000 0.0000
# 3 20.4845 20.4845 85.7471 0.0000 0.0000 0.0000
# 4 0.0000 0.0000 0.0000 17.8600 0.0000 0.0000
# 5 0.0000 0.0000 0.0000 0.0000 17.8600 0.0000
# 6 0.0000 0.0000 0.0000 0.0000 0.0000 19.8923
#
#
#
# Elastic Compliance Matrix: (Units=1/GPa)
#
#
# Indices 1 2 3 4 5 6 
#
# 1 0.022599 -0.011839 -0.002571 0.000000 0.000000 0.000000
# 2 -0.011839 0.022599 -0.002571 0.000000 0.000000 0.000000
# 3 -0.002571 -0.002571 0.012890 0.000000 0.000000 0.000000
# 4 0.000000 0.000000 0.000000 0.055991 0.000000 0.000000
# 5 0.000000 0.000000 0.000000 0.000000 0.055991 0.000000
# 6 0.000000 0.000000 0.000000 0.000000 0.000000 0.050271
#
#
# Mechanical properties :
#
#
# Convention : Reuss Voigt Hill
#
# Bulk Modulus (GPa) = 41.44418 41.45843 41.45131
# Shear Modulus (GPa) = 19.05893 20.43545 19.74719
#
# Velocity S-wave (km/s) = 3.27721 3.39349 3.33586
# Velocity P-wave (km/s) = 6.13798 6.22230 6.18028
#
# Compressibility (1/GPa) = 0.02412884
#
# Stress axis : x y z
#
# Youngs Moduli (GPa) = 44.24961 44.24961 77.57704
#
# Poissons Ratio (x) = 0.52385 0.19942
# Poissons Ratio (y) = 0.52385 0.19942
# Poissons Ratio (z) = 0.11375 0.11375
#
# Static dielectric constant tensor:
#      x y z
#    x 3.229040 0.000000 0.000000 
#    y 0.000000 3.229040 0.000000 
#    z 0.000000 0.000000 3.210340 
# 
# 
# High freq. dielectric constant tensor:
#      x y z
#    x 1.672740 0.000000 0.000000 
#    y 0.000000 1.672740 0.000000 
#    z 0.000000 0.000000 1.671480 
# 
# From -- ./inp_files/4130.got.cif
#   From: 2010.03.12/outbox.cif.g09.slc.cpg/sg129_3_cif.got.tgz:4130.got - 2010.04.06 17:19:44.
