data_PCOD8314157
_publ_section_title
;
Structure prediction by ZEFSAII (Michael W. Deem and Ramdas Pophale) SiO2 
 PCOD8314157
Probable space group: P 4/M B M
;
_chemical_formula_sum "Si O2"
_cell_formula_units_Z 80
_cell_length_a 13.671035
_cell_length_b 13.671035
_cell_length_c 23.450611
_cell_angle_alpha 90.000000
_cell_angle_beta 90.000000
_cell_angle_gamma 90.000000
_cell_volume 4382.853487
_symmetry_space_group_name_H-M "P 4/M B M"
_symmetry_group_IT_number 127
_symmetry_cell_setting 'tetragonal'
loop_
_space_group_symop_operation_xyz
x,y,z
-y,x,z
-x,-y,z
y,-x,z
1/2+x,1/2-y,-z
1/2-x,1/2+y,-z
1/2+y,1/2+x,-z
1/2-y,1/2-x,-z
-x,-y,-z
y,-x,-z
x,y,-z
-y,x,-z
1/2-x,1/2+y,z
1/2+x,1/2-y,z
1/2-y,1/2-x,z
1/2+y,1/2+x,z
loop_
_atom_site_type_symbol
_atom_site_label
_atom_site_fract_x
_atom_site_fract_y
_atom_site_fract_z
Si Si1 0.840011 0.498160 0.148674
Si Si2 0.498482 0.659024 0.934304
Si Si3 0.158213 0.494826 0.275349
Si Si4 0.255826 0.082770 0.617314
Si Si5 0.773177 0.116742 0.436056
O O1 0.914855 0.585146 0.135717
O O2 0.754310 0.503135 0.103712
O O3 0.794750 0.511278 0.212348
O O4 0.894175 0.394175 0.142692
O O5 0.402922 0.595231 0.920506
O O6 0.498251 0.691585 0.000000
O O7 0.110869 0.389132 0.293134
O O8 0.239476 0.532255 0.320206
O O9 0.070399 0.570399 0.271896
O O10 0.352424 0.147577 0.604946
O O11 0.158786 0.148794 0.609971
O O12 0.248406 0.997130 0.571387
O O13 0.814056 0.134412 0.500000
O O14 0.670593 0.170593 0.427311
#
# Coordination Sequence:
#
# PCOD8314157 Si02
#       5
#    16  16  16  16  16
#     4   9  18  33  53  80 110 136 170 222 275 316
#     4   9  19  36  54  73 104 147 188 224 262 306
#     4   8  15  31  54  76 101 134 171 213 260 312
#     4  10  20  36  55  75 104 141 177 215 263 319
#     4  10  21  35  53  79 106 134 173 219 264 313
#
# _framework density 18.252946999999999
#
# number of rings (size 3 to 8) (size 9 to 14) (size 15 to 20)
#    0.000    2.800    0.000    3.000    0.000    4.400 
#    3.600    5.000    0.000    0.000    0.000    0.000 
#    0.000    0.000    0.000    0.000    0.000    0.000 
#
# Total GULP energy -991617.316598 kJ/mol
# GULP energy per Si atom -12395.216457 kJ/mol
# Density = 1.821140 g / cm^3
# Si number density = 18.252947 Si / 1000 Ang^3
#
#
#
# Elastic Constant Matrix: (Units=GPa)
#
#
# Indices 1 2 3 4 5 6 
#
# 1 96.6769 32.7591 53.0575 0.0000 0.0000 0.0000
# 2 32.7591 96.6769 53.0575 0.0000 0.0000 0.0000
# 3 53.0575 53.0575 103.9259 0.0000 0.0000 0.0000
# 4 0.0000 0.0000 0.0000 28.6116 0.0000 0.0000
# 5 0.0000 0.0000 0.0000 0.0000 28.6116 0.0000
# 6 0.0000 0.0000 0.0000 0.0000 0.0000 15.8883
#
#
#
# Elastic Compliance Matrix: (Units=1/GPa)
#
#
# Indices 1 2 3 4 5 6 
#
# 1 0.014466 -0.001179 -0.006784 0.000000 0.000000 0.000000
# 2 -0.001179 0.014466 -0.006784 0.000000 0.000000 0.000000
# 3 -0.006784 -0.006784 0.016549 0.000000 0.000000 0.000000
# 4 0.000000 0.000000 0.000000 0.034951 0.000000 0.000000
# 5 0.000000 0.000000 0.000000 0.000000 0.034951 0.000000
# 6 0.000000 0.000000 0.000000 0.000000 0.000000 0.062939
#
#
# Mechanical properties :
#
#
# Convention : Reuss Voigt Hill
#
# Bulk Modulus (GPa) = 62.54353 63.89199 63.21776
# Shear Modulus (GPa) = 23.45839 25.18269 24.32054
#
# Velocity S-wave (km/s) = 3.58883 3.71839 3.65419
# Velocity P-wave (km/s) = 7.17720 7.31539 7.24663
#
# Compressibility (1/GPa) = 0.01598886
#
# Stress axis : x y z
#
# Youngs Moduli (GPa) = 69.12714 69.12714 60.42790
#
# Poissons Ratio (x) = 0.08150 0.40991
# Poissons Ratio (y) = 0.08150 0.40991
# Poissons Ratio (z) = 0.46892 0.46892
#
# Static dielectric constant tensor:
#      x y z
#    x 3.206710 0.000000 0.000000 
#    y 0.000000 3.206710 0.000000 
#    z 0.000000 0.000000 3.478510 
# 
# 
# High freq. dielectric constant tensor:
#      x y z
#    x 1.695260 0.000000 0.000000 
#    y 0.000000 1.695260 0.000000 
#    z 0.000000 0.000000 1.710680 
# 
# From -- ./inp_files/5618.got.cif
#   From: 2010.03.12/outbox.cif.g09.slc.cpg/sg127_3_cif.got.tgz:5618.got - 2010.04.06 17:03:15.
