data_PCOD8314161
_publ_section_title
;
Structure prediction by ZEFSAII (Michael W. Deem and Ramdas Pophale) SiO2 
 PCOD8314161
Probable space group: P 4/M B M
;
_chemical_formula_sum "Si O2"
_cell_formula_units_Z 72
_cell_length_a 18.753943
_cell_length_b 18.753943
_cell_length_c 11.702451
_cell_angle_alpha 90.000000
_cell_angle_beta 90.000000
_cell_angle_gamma 90.000000
_cell_volume 4115.873465
_symmetry_space_group_name_H-M "P 4/M B M"
_symmetry_group_IT_number 127
_symmetry_cell_setting 'tetragonal'
loop_
_space_group_symop_operation_xyz
x,y,z
-y,x,z
-x,-y,z
y,-x,z
1/2+x,1/2-y,-z
1/2-x,1/2+y,-z
1/2+y,1/2+x,-z
1/2-y,1/2-x,-z
-x,-y,-z
y,-x,-z
x,y,-z
-y,x,-z
1/2-x,1/2+y,z
1/2+x,1/2-y,z
1/2-y,1/2-x,z
1/2+y,1/2+x,z
loop_
_atom_site_type_symbol
_atom_site_label
_atom_site_fract_x
_atom_site_fract_y
_atom_site_fract_z
Si Si1 0.183785 0.196531 0.000000
Si Si2 0.440374 0.059627 0.369123
Si Si3 0.365315 0.748105 0.232161
Si Si4 0.703853 0.977526 0.244639
Si Si5 0.649743 0.733430 0.630677
Si Si6 0.917598 0.297657 0.000000
O O1 0.135076 0.206657 0.888550
O O2 0.219334 0.118277 0.000000
O O3 0.247235 0.252766 0.000000
O O4 0.421462 0.078539 0.500000
O O5 0.370544 0.029895 0.308730
O O6 0.500000 0.000000 0.361148
O O7 0.321424 0.821424 0.222771
O O8 0.444965 0.765026 0.269989
O O9 0.332721 0.697168 0.328869
O O10 0.760670 0.920527 0.292246
O O11 0.692608 0.967557 0.109752
O O12 0.628252 0.720750 0.500000
O O13 0.693179 0.806822 0.647272
O O14 0.857760 0.357760 0.000000
#
# Coordination Sequence:
#
# PCOD8314161 Si02
#       6
#     8   8  16  16  16   8
#     4   9  17  34  56  80 111 144 183 240 286 333
#     4  11  24  39  55  81 123 166 193 222 281 354
#     4  10  21  36  56  84 115 145 186 238 285 332
#     4  12  21  36  59  86 115 151 193 236 286 346
#     4  10  20  36  57  81 110 149 198 240 276 332
#     4  11  19  34  60  87 110 147 194 234 284 347
#
# _framework density 17.49325
#
# number of rings (size 3 to 8) (size 9 to 14) (size 15 to 20)
#    0.000    1.444    4.444    2.000    0.000    1.778 
#    0.000    4.444    0.000    0.667    0.000    3.111 
#    0.000    0.000    0.000    0.000    0.000    0.000 
#
# Total GULP energy -893123.736691 kJ/mol
# GULP energy per Si atom -12404.496343 kJ/mol
# Density = 1.745343 g / cm^3
# Si number density = 17.493250 Si / 1000 Ang^3
#
#
#
# Elastic Constant Matrix: (Units=GPa)
#
#
# Indices 1 2 3 4 5 6 
#
# 1 86.3281 46.1859 41.6722 0.0000 0.0000 0.0000
# 2 46.1859 86.3277 41.6721 0.0000 0.0000 0.0000
# 3 41.6722 41.6721 135.6401 0.0000 0.0000 0.0000
# 4 0.0000 0.0000 0.0000 19.4646 0.0000 0.0000
# 5 0.0000 0.0000 0.0000 0.0000 19.4645 0.0000
# 6 0.0000 0.0000 0.0000 0.0000 0.0000 19.9728
#
#
#
# Elastic Compliance Matrix: (Units=1/GPa)
#
#
# Indices 1 2 3 4 5 6 
#
# 1 0.017133 -0.007779 -0.002874 0.000000 0.000000 0.000000
# 2 -0.007779 0.017133 -0.002874 0.000000 0.000000 0.000000
# 3 -0.002874 -0.002874 0.009138 0.000000 0.000000 0.000000
# 4 0.000000 0.000000 0.000000 0.051375 0.000000 0.000000
# 5 0.000000 0.000000 0.000000 0.000000 0.051376 0.000000
# 6 0.000000 0.000000 0.000000 0.000000 0.000000 0.050068
#
#
# Mechanical properties :
#
#
# Convention : Reuss Voigt Hill
#
# Bulk Modulus (GPa) = 61.15868 63.03961 62.09914
# Shear Modulus (GPa) = 21.86025 23.69809 22.77917
#
# Velocity S-wave (km/s) = 3.53886 3.68462 3.61247
# Velocity P-wave (km/s) = 7.19272 7.36319 7.27846
#
# Compressibility (1/GPa) = 0.01635091
#
# Stress axis : x y z
#
# Youngs Moduli (GPa) = 58.36815 58.36785 109.43051
#
# Poissons Ratio (x) = 0.45404 0.31447
# Poissons Ratio (y) = 0.45404 0.31447
# Poissons Ratio (z) = 0.16773 0.16773
#
# Static dielectric constant tensor:
#      x y z
#    x 3.109660 0.000000 0.000000 
#    y 0.000000 3.109660 0.000000 
#    z 0.000000 0.000000 3.516660 
# 
# 
# High freq. dielectric constant tensor:
#      x y z
#    x 1.660020 0.000000 0.000000 
#    y 0.000000 1.660020 0.000000 
#    z 0.000000 0.000000 1.695870 
# 
# From -- ./inp_files/3213.got.cif
#   From: 2010.03.12/outbox.cif.g09.slc.cpg/sg127_2_cif.got.tgz:3213.got - 2010.04.06 17:03:15.
