data_PCOD8314703
_publ_section_title
;
Structure prediction by ZEFSAII (Michael W. Deem and Ramdas Pophale) SiO2 
 PCOD8314703
Probable space group: P 4/M N C
;
_chemical_formula_sum "Si O2"
_cell_formula_units_Z 64
_cell_length_a 13.822743
_cell_length_b 13.822743
_cell_length_c 17.486113
_cell_angle_alpha 90.000000
_cell_angle_beta 90.000000
_cell_angle_gamma 90.000000
_cell_volume 3341.040556
_symmetry_space_group_name_H-M "P 4/M N C"
_symmetry_group_IT_number 128
_symmetry_cell_setting 'tetragonal'
loop_
_space_group_symop_operation_xyz
x,y,z
-y,x,z
-x,-y,z
y,-x,z
1/2+x,1/2-y,1/2-z
1/2-x,1/2+y,1/2-z
1/2+y,1/2+x,1/2-z
1/2-y,1/2-x,1/2-z
-x,-y,-z
y,-x,-z
x,y,-z
-y,x,-z
1/2-x,1/2+y,1/2+z
1/2+x,1/2-y,1/2+z
1/2-y,1/2-x,1/2+z
1/2+y,1/2+x,1/2+z
loop_
_atom_site_type_symbol
_atom_site_label
_atom_site_fract_x
_atom_site_fract_y
_atom_site_fract_z
Si Si1 0.736489 0.260602 0.164166
Si Si2 0.088710 0.869599 0.416049
Si Si3 0.405629 0.887788 0.909815
Si Si4 0.404153 0.107211 0.660053
O O1 0.723194 0.223194 0.250000
O O2 0.688362 0.365981 0.154127
O O3 0.682684 0.185465 0.108728
O O4 0.847668 0.290443 0.144397
O O5 0.118593 0.828245 0.500000
O O6 0.975416 0.867368 0.408199
O O7 0.511180 0.854383 0.877971
O O8 0.376975 0.990213 0.874211
O O9 0.414310 0.897381 0.000000
O O10 0.411826 0.088175 0.750000
#
# Coordination Sequence:
#
# PCOD8314703 Si02
#       4
#    16  16  16  16
#     4  11  22  34  53  78 107 144 181 217 261 312
#     4   9  18  33  55  83 109 130 159 210 276 334
#     4  11  22  36  57  82 110 143 179 223 271 320
#     4  10  21  38  58  80 110 144 181 224 267 319
#
# _framework density 19.155708000000001
#
# number of rings (size 3 to 8) (size 9 to 14) (size 15 to 20)
#    0.000    1.750    0.000    7.500    0.000    8.000 
#    0.000    0.000    0.000    0.750    0.000    1.750 
#    0.000    0.000    0.000    0.000    0.000    0.000 
#
# Total GULP energy -792938.598223 kJ/mol
# GULP energy per Si atom -12389.665597 kJ/mol
# Density = 1.911211 g / cm^3
# Si number density = 19.155708 Si / 1000 Ang^3
#
#
#
# Elastic Constant Matrix: (Units=GPa)
#
#
# Indices 1 2 3 4 5 6 
#
# 1 56.6998 38.5376 33.5369 0.0000 0.0000 0.0000
# 2 38.5376 56.7000 33.5370 0.0000 0.0000 0.0000
# 3 33.5369 33.5370 125.4031 0.0000 0.0000 0.0000
# 4 0.0000 0.0000 0.0000 30.9550 0.0000 0.0000
# 5 0.0000 0.0000 0.0000 0.0000 30.9550 0.0000
# 6 0.0000 0.0000 0.0000 0.0000 0.0000 42.4706
#
#
#
# Elastic Compliance Matrix: (Units=1/GPa)
#
#
# Indices 1 2 3 4 5 6 
#
# 1 0.033998 -0.021061 -0.003460 0.000000 0.000000 0.000000
# 2 -0.021061 0.033998 -0.003460 0.000000 0.000000 0.000000
# 3 -0.003460 -0.003460 0.009825 0.000000 0.000000 0.000000
# 4 0.000000 0.000000 0.000000 0.032305 0.000000 0.000000
# 5 0.000000 0.000000 0.000000 0.000000 0.032305 0.000000
# 6 0.000000 0.000000 0.000000 0.000000 0.000000 0.023546
#
#
# Mechanical properties :
#
#
# Convention : Reuss Voigt Hill
#
# Bulk Modulus (GPa) = 45.74709 50.00287 47.87498
# Shear Modulus (GPa) = 21.81275 29.75554 25.78415
#
# Velocity S-wave (km/s) = 3.37814 3.94553 3.67281
# Velocity P-wave (km/s) = 6.25694 6.84955 6.55994
#
# Compressibility (1/GPa) = 0.02185931
#
# Stress axis : x y z
#
# Youngs Moduli (GPa) = 29.41359 29.41365 101.78369
#
# Poissons Ratio (x) = 0.61949 0.35214
# Poissons Ratio (y) = 0.61949 0.35214
# Poissons Ratio (z) = 0.10176 0.10176
#
# Static dielectric constant tensor:
#      x y z
#    x 3.651180 0.000000 0.000000 
#    y 0.000000 3.651180 0.000000 
#    z 0.000000 0.000000 3.551040 
# 
# 
# High freq. dielectric constant tensor:
#      x y z
#    x 1.745500 0.000000 0.000000 
#    y 0.000000 1.745500 0.000000 
#    z 0.000000 0.000000 1.746350 
# 
# From -- ./inp_files/3503.got.cif
#   From: 2010.03.12/outbox.cif.g09.slc.cpg/sg128_2_cif.got.tgz:3503.got - 2010.04.06 17:11:05.
