data_PCOD8314760
_publ_section_title
;
Structure prediction by ZEFSAII (Michael W. Deem and Ramdas Pophale) SiO2 
 PCOD8314760
Probable space group: P 4/M N C
;
_chemical_formula_sum "Si O2"
_cell_formula_units_Z 96
_cell_length_a 14.294449
_cell_length_b 14.294449
_cell_length_c 22.972961
_cell_angle_alpha 90.000000
_cell_angle_beta 90.000000
_cell_angle_gamma 90.000000
_cell_volume 4694.094348
_symmetry_space_group_name_H-M "P 4/M N C"
_symmetry_group_IT_number 128
_symmetry_cell_setting 'tetragonal'
loop_
_space_group_symop_operation_xyz
x,y,z
-y,x,z
-x,-y,z
y,-x,z
1/2+x,1/2-y,1/2-z
1/2-x,1/2+y,1/2-z
1/2+y,1/2+x,1/2-z
1/2-y,1/2-x,1/2-z
-x,-y,-z
y,-x,-z
x,y,-z
-y,x,-z
1/2-x,1/2+y,1/2+z
1/2+x,1/2-y,1/2+z
1/2-y,1/2-x,1/2+z
1/2+y,1/2+x,1/2+z
loop_
_atom_site_type_symbol
_atom_site_label
_atom_site_fract_x
_atom_site_fract_y
_atom_site_fract_z
Si Si1 0.521133 0.735474 0.114174
Si Si2 0.434667 0.911356 0.065905
Si Si3 0.740073 0.629586 0.611312
Si Si4 0.162848 0.191511 0.333883
Si Si5 0.362867 0.429533 0.277037
Si Si6 0.099736 0.121442 0.000000
Si Si7 0.054241 0.856630 0.500000
O O1 0.486662 0.841227 0.109259
O O2 0.429359 0.672698 0.126386
O O3 0.597303 0.725398 0.165481
O O4 0.575961 0.705165 0.056197
O O5 0.330543 0.930734 0.090764
O O6 0.500000 0.000000 0.065513
O O7 0.425127 0.870915 0.000000
O O8 0.773950 0.725686 0.640879
O O9 0.679685 0.575042 0.658685
O O10 0.671914 0.645022 0.556213
O O11 0.121229 0.208235 0.268704
O O12 0.460534 0.376234 0.267505
O O13 0.987001 0.130722 0.000000
O O14 0.119872 0.945277 0.500000
#
# Coordination Sequence:
#
# PCOD8314760 Si02
#       7
#    16  16  16  16  16   8   8
#     4  11  21  35  60  89 126 163 206 257 313 391
#     4  10  22  41  62  90 131 177 214 258 320 388
#     4  11  24  42  65  94 131 171 221 270 326 398
#     4  11  23  39  62  92 130 165 209 261 322 388
#     4  11  23  42  69  95 124 165 214 276 337 383
#     4  11  24  44  69 100 132 167 219 289 343 379
#     4  11  20  28  49  86 128 156 187 243 313 374
#
# _framework density 20.451229999999999
#
# number of rings (size 3 to 8) (size 9 to 14) (size 15 to 20)
#    0.000    1.167    5.000    1.500    0.000    5.000 
#    0.000    0.000    0.000    4.000    0.000    0.000 
#    0.000    0.000    0.000    0.000    0.000    0.000 
#
# Total GULP energy -1189923.900999 kJ/mol
# GULP energy per Si atom -12395.040635 kJ/mol
# Density = 2.040468 g / cm^3
# Si number density = 20.451230 Si / 1000 Ang^3
#
#
#
# Elastic Constant Matrix: (Units=GPa)
#
#
# Indices 1 2 3 4 5 6 
#
# 1 77.8135 37.3602 32.1917 0.0000 0.0000 0.0000
# 2 37.3602 77.8135 32.1917 0.0000 0.0000 0.0000
# 3 32.1917 32.1917 121.5140 0.0000 0.0000 0.0000
# 4 0.0000 0.0000 0.0000 32.1394 0.0000 0.0000
# 5 0.0000 0.0000 0.0000 0.0000 32.1394 0.0000
# 6 0.0000 0.0000 0.0000 0.0000 0.0000 40.1141
#
#
#
# Elastic Compliance Matrix: (Units=1/GPa)
#
#
# Indices 1 2 3 4 5 6 
#
# 1 0.017456 -0.007264 -0.002700 0.000000 0.000000 0.000000
# 2 -0.007264 0.017456 -0.002700 0.000000 0.000000 0.000000
# 3 -0.002700 -0.002700 0.009660 0.000000 0.000000 0.000000
# 4 0.000000 0.000000 0.000000 0.031114 0.000000 0.000000
# 5 0.000000 0.000000 0.000000 0.000000 0.031114 0.000000
# 6 0.000000 0.000000 0.000000 0.000000 0.000000 0.024929
#
#
# Mechanical properties :
#
#
# Convention : Reuss Voigt Hill
#
# Bulk Modulus (GPa) = 51.96509 53.40313 52.68411
# Shear Modulus (GPa) = 30.58618 32.57172 31.57895
#
# Velocity S-wave (km/s) = 3.87145 3.99514 3.93378
# Velocity P-wave (km/s) = 6.74156 6.88844 6.81539
#
# Compressibility (1/GPa) = 0.01924369
#
# Stress axis : x y z
#
# Youngs Moduli (GPa) = 57.28725 57.28725 103.51851
#
# Poissons Ratio (x) = 0.41613 0.27951
# Poissons Ratio (y) = 0.41613 0.27951
# Poissons Ratio (z) = 0.15468 0.15468
#
# Static dielectric constant tensor:
#      x y z
#    x 3.572680 0.000000 0.000000 
#    y 0.000000 3.572680 0.000000 
#    z 0.000000 0.000000 3.861670 
# 
# 
# High freq. dielectric constant tensor:
#      x y z
#    x 1.791060 0.000000 0.000000 
#    y 0.000000 1.791060 0.000000 
#    z 0.000000 0.000000 1.807870 
# 
# From -- ./inp_files/5784.got.cif
#   From: 2010.03.12/outbox.cif.g09.slc.cpg/sg128_3_cif.got.tgz:5784.got - 2010.04.06 17:11:05.
