data_PCOD8314037
_publ_section_title
;
Structure prediction by ZEFSAII (Michael W. Deem and Ramdas Pophale) SiO2 
 PCOD8314037
Probable space group: P 4/M B M
;
_chemical_formula_sum "Si O2"
_cell_formula_units_Z 72
_cell_length_a 20.667594
_cell_length_b 20.667594
_cell_length_c 7.915353
_cell_angle_alpha 90.000000
_cell_angle_beta 90.000000
_cell_angle_gamma 90.000000
_cell_volume 3381.038615
_symmetry_space_group_name_H-M "P 4/M B M"
_symmetry_group_IT_number 127
_symmetry_cell_setting 'tetragonal'
loop_
_space_group_symop_operation_xyz
x,y,z
-y,x,z
-x,-y,z
y,-x,z
1/2+x,1/2-y,-z
1/2-x,1/2+y,-z
1/2+y,1/2+x,-z
1/2-y,1/2-x,-z
-x,-y,-z
y,-x,-z
x,y,-z
-y,x,-z
1/2-x,1/2+y,z
1/2+x,1/2-y,z
1/2-y,1/2-x,z
1/2+y,1/2+x,z
loop_
_atom_site_type_symbol
_atom_site_label
_atom_site_fract_x
_atom_site_fract_y
_atom_site_fract_z
Si Si1 0.000421 0.398428 0.700531
Si Si2 0.520541 0.755058 0.700669
Si Si3 0.336706 0.406337 0.188470
Si Si4 0.167646 0.771810 0.300142
Si Si5 0.569296 0.420855 0.500000
O O1 0.995533 0.396454 0.500000
O O2 0.067915 0.432086 0.756652
O O3 0.940441 0.440441 0.771565
O O4 0.996150 0.326208 0.771822
O O5 0.513599 0.750047 0.500000
O O6 0.467248 0.709207 0.783472
O O7 0.593248 0.738047 0.758782
O O8 0.302335 0.336148 0.211027
O O9 0.393137 0.401856 0.327701
O O10 0.366012 0.412302 0.000000
O O11 0.171466 0.780665 0.500000
O O12 0.210079 0.710079 0.242754
O O13 0.591359 0.493852 0.500000
#
# Coordination Sequence:
#
# PCOD8314037 Si02
#       5
#    16  16  16  16   8
#     4   8  14  26  49  85 123 157 200 253 309 376
#     4  10  19  35  60  89 123 166 214 263 317 383
#     4  12  25  41  63  93 128 166 210 263 323 386
#     4  10  21  39  64  92 125 168 218 271 324 381
#     4  11  24  44  67  90 120 157 203 260 318 380
#
# _framework density 21.295231999999999
#
# number of rings (size 3 to 8) (size 9 to 14) (size 15 to 20)
#    0.000    1.889    2.222    2.667    0.000    7.556 
#    0.000    3.333    0.000    2.000    0.000    1.556 
#    0.000    0.000    0.000    0.000    0.000    0.000 
#
# Total GULP energy -892479.902364 kJ/mol
# GULP energy per Si atom -12395.554200 kJ/mol
# Density = 2.124676 g / cm^3
# Si number density = 21.295232 Si / 1000 Ang^3
#
#
#
# Elastic Constant Matrix: (Units=GPa)
#
#
# Indices 1 2 3 4 5 6 
#
# 1 143.5355 32.3203 33.3939 0.0000 0.0000 0.0000
# 2 32.3203 143.5355 33.3939 0.0000 0.0000 0.0000
# 3 33.3939 33.3939 91.3595 0.0000 0.0000 0.0000
# 4 0.0000 0.0000 0.0000 4.0248 0.0000 0.0000
# 5 0.0000 0.0000 0.0000 0.0000 4.0248 0.0000
# 6 0.0000 0.0000 0.0000 0.0000 0.0000 36.7098
#
#
#
# Elastic Compliance Matrix: (Units=1/GPa)
#
#
# Indices 1 2 3 4 5 6 
#
# 1 0.007797 -0.001194 -0.002414 0.000000 0.000000 0.000000
# 2 -0.001194 0.007797 -0.002414 0.000000 0.000000 0.000000
# 3 -0.002414 -0.002414 0.012710 0.000000 0.000000 0.000000
# 4 0.000000 0.000000 0.000000 0.248459 0.000000 0.000000
# 5 0.000000 0.000000 0.000000 0.000000 0.248459 0.000000
# 6 0.000000 0.000000 0.000000 0.000000 0.000000 0.027241
#
#
# Mechanical properties :
#
#
# Convention : Reuss Voigt Hill
#
# Bulk Modulus (GPa) = 61.49264 64.07186 62.78225
# Shear Modulus (GPa) = 8.77306 27.57337 18.17322
#
# Velocity S-wave (km/s) = 2.03191 3.60226 2.92446
# Velocity P-wave (km/s) = 5.86889 6.88872 6.39915
#
# Compressibility (1/GPa) = 0.01626211
#
# Stress axis : x y z
#
# Youngs Moduli (GPa) = 128.24865 128.24865 78.67693
#
# Poissons Ratio (x) = 0.15316 0.18989
# Poissons Ratio (y) = 0.15316 0.18989
# Poissons Ratio (z) = 0.30954 0.30954
#
# Static dielectric constant tensor:
#      x y z
#    x 4.098200 0.000000 0.000000 
#    y 0.000000 4.098200 0.000000 
#    z 0.000000 0.000000 3.548260 
# 
# 
# High freq. dielectric constant tensor:
#      x y z
#    x 1.840780 0.000000 0.000000 
#    y 0.000000 1.840780 0.000000 
#    z 0.000000 0.000000 1.806210 
# 
# From -- ./inp_files/1560.got.cif
#   From: 2010.03.12/outbox.cif.g09.slc.cpg/sg127_1_cif.got.tgz:1560.got - 2010.04.06 17:03:15.
