data_PCOD8314956
_publ_section_title
;
Structure prediction by ZEFSAII (Michael W. Deem and Ramdas Pophale) SiO2 
 PCOD8314956
Probable space group: P 4/N M M
;
_chemical_formula_sum "Si O2"
_cell_formula_units_Z 96
_cell_length_a 22.569849
_cell_length_b 22.569849
_cell_length_c 10.244967
_cell_angle_alpha 90.000000
_cell_angle_beta 90.000000
_cell_angle_gamma 90.000000
_cell_volume 5218.766559
_symmetry_space_group_name_H-M "P 4/N M M"
_symmetry_group_IT_number 129
_symmetry_cell_setting 'tetragonal'
loop_
_space_group_symop_operation_xyz
x,y,z
1/2-y,x,z
1/2-x,1/2-y,z
y,1/2-x,z
1/2+x,-y,-z
-x,1/2+y,-z
1/2+y,1/2+x,-z
-y,-x,-z
-x,-y,-z
1/2+y,-x,-z
1/2+x,1/2+y,-z
-y,1/2+x,-z
1/2-x,y,z
x,1/2-y,z
1/2-y,1/2-x,z
y,x,z
loop_
_atom_site_type_symbol
_atom_site_label
_atom_site_fract_x
_atom_site_fract_y
_atom_site_fract_z
Si Si1 0.181340 0.922091 0.260217
Si Si2 0.912959 0.818676 0.081530
Si Si3 0.892493 0.318397 0.789310
Si Si4 0.183792 0.089770 0.610608
Si Si5 0.963722 0.179769 0.539941
Si Si6 0.373325 0.532419 0.011755
O O1 0.250000 0.936752 0.248838
O O2 0.169183 0.854203 0.217705
O O3 0.157941 0.933069 0.407185
O O4 0.145607 0.964571 0.162694
O O5 0.915052 0.750000 0.028122
O O6 0.849867 0.849867 0.045385
O O7 0.921137 0.816885 0.235538
O O8 0.964377 0.862339 0.027590
O O9 0.876579 0.250000 0.777129
O O10 0.930479 0.344024 0.668114
O O11 0.926748 0.330316 0.923794
O O12 0.250000 0.103544 0.562160
O O13 0.144836 0.144836 0.565668
O O14 0.157292 0.031411 0.541666
O O15 0.963592 0.250000 0.550976
O O16 0.441341 0.558660 0.000000
#
# Coordination Sequence:
#
# PCOD8314956 Si02
#       6
#    16  16  16  16  16  16
#     4  10  20  31  47  73 101 131 171 217 260 307
#     4  10  19  33  55  80 107 139 175 218 267 319
#     4  10  18  31  51  70  96 134 173 215 262 311
#     4   9  17  30  52  78 102 132 167 207 258 315
#     4   9  17  31  49  69  94 129 169 202 245 307
#     4  10  20  34  53  77 103 139 179 217 257 312
#
# _framework density 18.395150999999998
#
# number of rings (size 3 to 8) (size 9 to 14) (size 15 to 20)
#    0.000    2.333    1.667    2.000    0.000    1.000 
#    0.000    2.500    0.000    9.000    0.000    0.000 
#    0.000    4.000    0.000    0.000    0.000    0.000 
#
# Total GULP energy -1189687.112399 kJ/mol
# GULP energy per Si atom -12392.574087 kJ/mol
# Density = 1.835328 g / cm^3
# Si number density = 18.395151 Si / 1000 Ang^3
#
#
#
# Elastic Constant Matrix: (Units=GPa)
#
#
# Indices 1 2 3 4 5 6 
#
# 1 73.6769 35.4711 2.0902 0.0000 0.0000 0.0000
# 2 35.4711 73.6774 2.0905 0.0000 0.0000 0.0000
# 3 2.0902 2.0905 59.5934 0.0000 0.0000 0.0000
# 4 0.0000 0.0000 0.0000 19.8117 0.0000 0.0000
# 5 0.0000 0.0000 0.0000 0.0000 19.8115 0.0000
# 6 0.0000 0.0000 0.0000 0.0000 0.0000 23.9970
#
#
#
# Elastic Compliance Matrix: (Units=1/GPa)
#
#
# Indices 1 2 3 4 5 6 
#
# 1 0.017674 -0.008500 -0.000322 0.000000 0.000000 0.000000
# 2 -0.008500 0.017674 -0.000322 0.000000 0.000000 0.000000
# 3 -0.000322 -0.000322 0.016803 0.000000 0.000000 0.000000
# 4 0.000000 0.000000 0.000000 0.050475 0.000000 0.000000
# 5 0.000000 0.000000 0.000000 0.000000 0.050476 0.000000
# 6 0.000000 0.000000 0.000000 0.000000 0.000000 0.041672
#
#
# Mechanical properties :
#
#
# Convention : Reuss Voigt Hill
#
# Bulk Modulus (GPa) = 29.52979 31.80571 30.66775
# Shear Modulus (GPa) = 22.28674 23.87711 23.08192
#
# Velocity S-wave (km/s) = 3.48452 3.60670 3.54613
# Velocity P-wave (km/s) = 5.68129 5.88831 5.78572
#
# Compressibility (1/GPa) = 0.03386410
#
# Stress axis : x y z
#
# Youngs Moduli (GPa) = 56.58009 56.58045 59.51333
#
# Poissons Ratio (x) = 0.48092 0.01915
# Poissons Ratio (y) = 0.48092 0.01915
# Poissons Ratio (z) = 0.01820 0.01821
#
# Static dielectric constant tensor:
#      x y z
#    x 3.350850 0.000000 0.000000 
#    y 0.000000 3.350840 0.000000 
#    z 0.000000 0.000000 3.420010 
# 
# 
# High freq. dielectric constant tensor:
#      x y z
#    x 1.699880 0.000000 0.000000 
#    y 0.000000 1.699880 0.000000 
#    z 0.000000 0.000000 1.705730 
# 
# From -- ./inp_files/2679.got.cif
#   From: 2010.03.12/outbox.cif.g09.slc.cpg/sg129_2_cif.got.tgz:2679.got - 2010.04.06 17:19:44.
