data_PCOD8314784
_publ_section_title
;
Structure prediction by ZEFSAII (Michael W. Deem and Ramdas Pophale) SiO2 
 PCOD8314784
Probable space group: P 4/M N C
;
_chemical_formula_sum "Si O2"
_cell_formula_units_Z 64
_cell_length_a 11.796326
_cell_length_b 11.796326
_cell_length_c 21.963504
_cell_angle_alpha 90.000000
_cell_angle_beta 90.000000
_cell_angle_gamma 90.000000
_cell_volume 3056.294217
_symmetry_space_group_name_H-M "P 4/M N C"
_symmetry_group_IT_number 128
_symmetry_cell_setting 'tetragonal'
loop_
_space_group_symop_operation_xyz
x,y,z
-y,x,z
-x,-y,z
y,-x,z
1/2+x,1/2-y,1/2-z
1/2-x,1/2+y,1/2-z
1/2+y,1/2+x,1/2-z
1/2-y,1/2-x,1/2-z
-x,-y,-z
y,-x,-z
x,y,-z
-y,x,-z
1/2-x,1/2+y,1/2+z
1/2+x,1/2-y,1/2+z
1/2-y,1/2-x,1/2+z
1/2+y,1/2+x,1/2+z
loop_
_atom_site_type_symbol
_atom_site_label
_atom_site_fract_x
_atom_site_fract_y
_atom_site_fract_z
Si Si1 0.184119 0.993134 0.237701
Si Si2 0.635137 0.807092 0.432587
Si Si3 0.002661 0.366394 0.339120
Si Si4 0.594922 0.233416 0.612188
O O1 0.298869 0.002163 0.276067
O O2 0.218685 0.982092 0.167549
O O3 0.107810 0.883900 0.252741
O O4 0.681380 0.838695 0.500000
O O5 0.498610 0.800382 0.437908
O O6 0.677187 0.682957 0.413512
O O7 0.673442 0.902111 0.384054
O O8 0.121973 0.333969 0.369784
O O9 0.000000 0.500000 0.325059
#
# Coordination Sequence:
#
# PCOD8314784 Si02
#       4
#    16  16  16  16
#     4  11  22  40  64  91 129 163 208 265 320 383
#     4  11  24  41  64  92 126 169 216 261 312 378
#     4  10  24  40  62  93 126 166 208 258 321 377
#     4  11  22  41  62  90 126 165 211 263 321 371
#
# _framework density 20.940393
#
# number of rings (size 3 to 8) (size 9 to 14) (size 15 to 20)
#    0.000    1.250    2.500    3.000    0.000   13.000 
#    0.000    1.250    0.000    0.000    0.000    5.250 
#    0.000    0.000    0.000    0.000    0.000    0.000 
#
# Total GULP energy -793568.782014 kJ/mol
# GULP energy per Si atom -12399.512219 kJ/mol
# Density = 2.089273 g / cm^3
# Si number density = 20.940393 Si / 1000 Ang^3
#
#
#
# Elastic Constant Matrix: (Units=GPa)
#
#
# Indices 1 2 3 4 5 6 
#
# 1 78.2899 15.2892 31.2577 0.0000 0.0000 0.0000
# 2 15.2892 78.2899 31.2577 0.0000 0.0000 0.0000
# 3 31.2577 31.2577 120.2654 0.0000 0.0000 0.0000
# 4 0.0000 0.0000 0.0000 23.7889 0.0000 0.0000
# 5 0.0000 0.0000 0.0000 0.0000 23.7889 0.0000
# 6 0.0000 0.0000 0.0000 0.0000 0.0000 25.4339
#
#
#
# Elastic Compliance Matrix: (Units=1/GPa)
#
#
# Indices 1 2 3 4 5 6 
#
# 1 0.014402 -0.001471 -0.003361 0.000000 0.000000 0.000000
# 2 -0.001471 0.014402 -0.003361 0.000000 0.000000 0.000000
# 3 -0.003361 -0.003361 0.010062 0.000000 0.000000 0.000000
# 4 0.000000 0.000000 0.000000 0.042036 0.000000 0.000000
# 5 0.000000 0.000000 0.000000 0.000000 0.042036 0.000000
# 6 0.000000 0.000000 0.000000 0.000000 0.000000 0.039318
#
#
# Mechanical properties :
#
#
# Convention : Reuss Voigt Hill
#
# Bulk Modulus (GPa) = 44.48190 48.05046 46.26618
# Shear Modulus (GPa) = 26.86215 27.87172 27.36693
#
# Velocity S-wave (km/s) = 3.58549 3.65225 3.61902
# Velocity P-wave (km/s) = 6.19914 6.38603 6.29328
#
# Compressibility (1/GPa) = 0.02248105
#
# Stress axis : x y z
#
# Youngs Moduli (GPa) = 69.43412 69.43412 99.38375
#
# Poissons Ratio (x) = 0.10212 0.33402
# Poissons Ratio (y) = 0.10212 0.33402
# Poissons Ratio (z) = 0.23336 0.23336
#
# Static dielectric constant tensor:
#      x y z
#    x 3.873270 0.000000 0.000000 
#    y 0.000000 3.873270 0.000000 
#    z 0.000000 0.000000 3.666930 
# 
# 
# High freq. dielectric constant tensor:
#      x y z
#    x 1.821820 0.000000 0.000000 
#    y 0.000000 1.821820 0.000000 
#    z 0.000000 0.000000 1.815310 
# 
# From -- ./inp_files/5394.got.cif
#   From: 2010.03.12/outbox.cif.g09.slc.cpg/sg128_3_cif.got.tgz:5394.got - 2010.04.06 17:11:05.
