data_PCOD8314020
_publ_section_title
;
Structure prediction by ZEFSAII (Michael W. Deem and Ramdas Pophale) SiO2 
 PCOD8314020
Probable space group: P 4/M B M
;
_chemical_formula_sum "Si O2"
_cell_formula_units_Z 72
_cell_length_a 18.695102
_cell_length_b 18.695102
_cell_length_c 11.920131
_cell_angle_alpha 90.000000
_cell_angle_beta 90.000000
_cell_angle_gamma 90.000000
_cell_volume 4166.167304
_symmetry_space_group_name_H-M "P 4/M B M"
_symmetry_group_IT_number 127
_symmetry_cell_setting 'tetragonal'
loop_
_space_group_symop_operation_xyz
x,y,z
-y,x,z
-x,-y,z
y,-x,z
1/2+x,1/2-y,-z
1/2-x,1/2+y,-z
1/2+y,1/2+x,-z
1/2-y,1/2-x,-z
-x,-y,-z
y,-x,-z
x,y,-z
-y,x,-z
1/2-x,1/2+y,z
1/2+x,1/2-y,z
1/2-y,1/2-x,z
1/2+y,1/2+x,z
loop_
_atom_site_type_symbol
_atom_site_label
_atom_site_fract_x
_atom_site_fract_y
_atom_site_fract_z
Si Si1 0.943303 0.556698 0.633445
Si Si2 0.092487 0.289226 0.000000
Si Si3 0.144116 0.236777 0.229744
Si Si4 0.071330 0.685676 0.000000
Si Si5 0.518417 0.214538 0.632850
Si Si6 0.738501 0.877848 0.234112
O O1 0.943238 0.556763 0.500000
O O2 0.865571 0.534050 0.678535
O O3 0.000000 0.500000 0.681785
O O4 0.106901 0.240232 0.891835
O O5 0.142828 0.357173 0.000000
O O6 0.013434 0.321774 0.000000
O O7 0.196369 0.303632 0.248991
O O8 0.186398 0.162954 0.242218
O O9 0.082930 0.235871 0.324466
O O10 0.096781 0.730272 0.106955
O O11 0.106609 0.606609 0.000000
O O12 0.514922 0.217929 0.500000
O O13 0.443594 0.241627 0.680793
O O14 0.673442 0.826559 0.270659
#
# Coordination Sequence:
#
# PCOD8314020 Si02
#       6
#     8   8  16   8  16  16
#     4   9  18  32  50  73 109 149 179 215 265 328
#     4  10  19  34  57  84 112 143 180 219 272 336
#     4  10  20  36  57  80 109 147 187 228 274 326
#     4  10  19  34  55  84 116 142 175 222 277 335
#     4  11  21  34  53  80 111 148 190 225 270 328
#     4  10  21  36  56  82 112 145 184 230 274 324
#
# _framework density 17.282070999999998
#
# number of rings (size 3 to 8) (size 9 to 14) (size 15 to 20)
#    0.000    1.889    3.333    1.333    0.000    5.111 
#    0.000    2.222    0.000    0.667    0.000    3.111 
#    0.000    0.000    0.000    0.000    0.000    0.000 
#
# Total GULP energy -893034.392585 kJ/mol
# GULP energy per Si atom -12403.255453 kJ/mol
# Density = 1.724274 g / cm^3
# Si number density = 17.282071 Si / 1000 Ang^3
#
#
#
# Elastic Constant Matrix: (Units=GPa)
#
#
# Indices 1 2 3 4 5 6 
#
# 1 107.7698 65.6468 52.0624 0.0000 0.0000 0.0000
# 2 65.6468 107.7678 52.0621 0.0000 0.0000 0.0000
# 3 52.0624 52.0621 103.1569 0.0000 0.0000 0.0000
# 4 0.0000 0.0000 0.0000 18.9916 0.0000 0.0000
# 5 0.0000 0.0000 0.0000 0.0000 18.9905 0.0000
# 6 0.0000 0.0000 0.0000 0.0000 0.0000 24.0008
#
#
#
# Elastic Compliance Matrix: (Units=1/GPa)
#
#
# Indices 1 2 3 4 5 6 
#
# 1 0.016007 -0.007733 -0.004176 0.000000 0.000000 0.000000
# 2 -0.007733 0.016007 -0.004176 0.000000 0.000000 0.000000
# 3 -0.004176 -0.004176 0.013909 0.000000 0.000000 0.000000
# 4 0.000000 0.000000 0.000000 0.052655 0.000000 0.000000
# 5 0.000000 0.000000 0.000000 0.000000 0.052658 0.000000
# 6 0.000000 0.000000 0.000000 0.000000 0.000000 0.041665
#
#
# Mechanical properties :
#
#
# Convention : Reuss Voigt Hill
#
# Bulk Modulus (GPa) = 72.70834 73.13744 72.92289
# Shear Modulus (GPa) = 21.77178 22.32479 22.04828
#
# Velocity S-wave (km/s) = 3.55320 3.59805 3.57569
# Velocity P-wave (km/s) = 7.68092 7.72483 7.70291
#
# Compressibility (1/GPa) = 0.01375358
#
# Stress axis : x y z
#
# Youngs Moduli (GPa) = 62.47288 62.47158 71.89700
#
# Poissons Ratio (x) = 0.48312 0.30021
# Poissons Ratio (y) = 0.48313 0.30022
# Poissons Ratio (z) = 0.26086 0.26086
#
# Static dielectric constant tensor:
#      x y z
#    x 3.175300 0.000000 0.000000 
#    y 0.000000 3.175300 0.000000 
#    z 0.000000 0.000000 3.206900 
# 
# 
# High freq. dielectric constant tensor:
#      x y z
#    x 1.656750 0.000000 0.000000 
#    y 0.000000 1.656750 0.000000 
#    z 0.000000 0.000000 1.672330 
# 
# From -- ./inp_files/3217.got.cif
#   From: 2010.03.12/outbox.cif.g09.slc.cpg/sg127_2_cif.got.tgz:3217.got - 2010.04.06 17:03:15.
