data_PCOD8314290
_publ_section_title
;
Structure prediction by ZEFSAII (Michael W. Deem and Ramdas Pophale) SiO2 
 PCOD8314290
Probable space group: P 4/M B M
;
_chemical_formula_sum "Si O2"
_cell_formula_units_Z 72
_cell_length_a 13.806867
_cell_length_b 13.806867
_cell_length_c 19.508349
_cell_angle_alpha 90.000000
_cell_angle_beta 90.000000
_cell_angle_gamma 90.000000
_cell_volume 3718.868305
_symmetry_space_group_name_H-M "P 4/M B M"
_symmetry_group_IT_number 127
_symmetry_cell_setting 'tetragonal'
loop_
_space_group_symop_operation_xyz
x,y,z
-y,x,z
-x,-y,z
y,-x,z
1/2+x,1/2-y,-z
1/2-x,1/2+y,-z
1/2+y,1/2+x,-z
1/2-y,1/2-x,-z
-x,-y,-z
y,-x,-z
x,y,-z
-y,x,-z
1/2-x,1/2+y,z
1/2+x,1/2-y,z
1/2-y,1/2-x,z
1/2+y,1/2+x,z
loop_
_atom_site_type_symbol
_atom_site_label
_atom_site_fract_x
_atom_site_fract_y
_atom_site_fract_z
Si Si1 0.219982 0.053646 0.772304
Si Si2 0.173131 0.673131 0.578334
Si Si3 0.867991 0.915924 0.369816
Si Si4 0.919547 0.419547 0.703588
Si Si5 0.363059 0.712055 0.144855
Si Si6 0.579363 0.360857 0.000000
O O1 0.146572 0.086350 0.712119
O O2 0.326440 0.039639 0.742136
O O3 0.218195 0.135342 0.831034
O O4 0.189899 0.954253 0.807555
O O5 0.149322 0.649322 0.500000
O O6 0.285698 0.648070 0.593080
O O7 0.105808 0.605808 0.625155
O O8 0.970358 0.867259 0.391148
O O9 0.000000 0.500000 0.703395
O O10 0.320020 0.820020 0.154578
O O11 0.387755 0.699126 0.065663
O O12 0.630146 0.464408 0.000000
#
# Coordination Sequence:
#
# PCOD8314290 Si02
#       6
#    16   8  16   8  16   8
#     4  11  21  36  64  91 119 156 200 260 314 361
#     4  10  24  43  62  95 133 167 209 256 316 387
#     4  10  21  39  67  95 124 164 213 266 317 374
#     4  10  22  43  62  93 125 157 209 253 309 382
#     4  12  23  38  60  87 124 164 204 255 320 375
#     4  11  23  38  58  84 119 165 212 258 310 374
#
# _framework density 19.360728999999999
#
# number of rings (size 3 to 8) (size 9 to 14) (size 15 to 20)
#    0.000    1.222    5.556    1.000    0.000    1.556 
#    8.000    1.111    0.000    0.000    0.000    4.667 
#    0.000    0.000    0.000    0.000    0.000    0.000 
#
# Total GULP energy -892693.085062 kJ/mol
# GULP energy per Si atom -12398.515070 kJ/mol
# Density = 1.931666 g / cm^3
# Si number density = 19.360729 Si / 1000 Ang^3
#
#
#
# Elastic Constant Matrix: (Units=GPa)
#
#
# Indices 1 2 3 4 5 6 
#
# 1 94.9447 50.9555 39.9236 0.0000 0.0000 0.0000
# 2 50.9555 94.9447 39.9236 0.0000 0.0000 0.0000
# 3 39.9236 39.9236 125.4204 0.0000 0.0000 0.0000
# 4 0.0000 0.0000 0.0000 21.1799 0.0000 0.0000
# 5 0.0000 0.0000 0.0000 0.0000 21.1799 0.0000
# 6 0.0000 0.0000 0.0000 0.0000 0.0000 36.7307
#
#
#
# Elastic Compliance Matrix: (Units=1/GPa)
#
#
# Indices 1 2 3 4 5 6 
#
# 1 0.015516 -0.007216 -0.002642 0.000000 0.000000 0.000000
# 2 -0.007216 0.015516 -0.002642 0.000000 0.000000 0.000000
# 3 -0.002642 -0.002642 0.009655 0.000000 0.000000 0.000000
# 4 0.000000 0.000000 0.000000 0.047215 0.000000 0.000000
# 5 0.000000 0.000000 0.000000 0.000000 0.047215 0.000000
# 6 0.000000 0.000000 0.000000 0.000000 0.000000 0.027225
#
#
# Mechanical properties :
#
#
# Convention : Reuss Voigt Hill
#
# Bulk Modulus (GPa) = 63.74727 64.10169 63.92448
# Shear Modulus (GPa) = 25.96428 28.11857 27.04143
#
# Velocity S-wave (km/s) = 3.66605 3.81511 3.74132
# Velocity P-wave (km/s) = 7.13565 7.25174 7.19393
#
# Compressibility (1/GPa) = 0.01568695
#
# Stress axis : x y z
#
# Youngs Moduli (GPa) = 64.44805 64.44805 103.57129
#
# Poissons Ratio (x) = 0.46509 0.27364
# Poissons Ratio (y) = 0.46509 0.27364
# Poissons Ratio (z) = 0.17027 0.17027
#
# Static dielectric constant tensor:
#      x y z
#    x 3.484820 0.000000 0.000000 
#    y 0.000000 3.484820 0.000000 
#    z 0.000000 0.000000 3.511480 
# 
# 
# High freq. dielectric constant tensor:
#      x y z
#    x 1.751980 0.000000 0.000000 
#    y 0.000000 1.751980 0.000000 
#    z 0.000000 0.000000 1.754460 
# 
# From -- ./inp_files/4992.got.cif
#   From: 2010.03.12/outbox.cif.g09.slc.cpg/sg127_3_cif.got.tgz:4992.got - 2010.04.06 17:03:15.
