data_PCOD8314259
_publ_section_title
;
Structure prediction by ZEFSAII (Michael W. Deem and Ramdas Pophale) SiO2 
 PCOD8314259
Probable space group: P 4/M B M
;
_chemical_formula_sum "Si O2"
_cell_formula_units_Z 96
_cell_length_a 23.622192
_cell_length_b 23.622192
_cell_length_c 8.986549
_cell_angle_alpha 90.000000
_cell_angle_beta 90.000000
_cell_angle_gamma 90.000000
_cell_volume 5014.565829
_symmetry_space_group_name_H-M "P 4/M B M"
_symmetry_group_IT_number 127
_symmetry_cell_setting 'tetragonal'
loop_
_space_group_symop_operation_xyz
x,y,z
-y,x,z
-x,-y,z
y,-x,z
1/2+x,1/2-y,-z
1/2-x,1/2+y,-z
1/2+y,1/2+x,-z
1/2-y,1/2-x,-z
-x,-y,-z
y,-x,-z
x,y,-z
-y,x,-z
1/2-x,1/2+y,z
1/2+x,1/2-y,z
1/2-y,1/2-x,z
1/2+y,1/2+x,z
loop_
_atom_site_type_symbol
_atom_site_label
_atom_site_fract_x
_atom_site_fract_y
_atom_site_fract_z
Si Si1 0.927072 0.236548 0.174868
Si Si2 0.443931 0.719028 0.171548
Si Si3 0.451874 0.421101 0.163698
Si Si4 0.059918 0.348793 0.827916
Si Si5 0.946479 0.353318 0.327348
Si Si6 0.865795 0.142157 0.327672
O O1 0.923763 0.299064 0.240211
O O2 0.873469 0.202327 0.244188
O O3 0.989373 0.208673 0.210694
O O4 0.918435 0.241090 0.000000
O O5 0.427657 0.783494 0.209132
O O6 0.400024 0.681590 0.265066
O O7 0.433315 0.704346 0.000000
O O8 0.518256 0.423144 0.177893
O O9 0.427301 0.385334 0.299022
O O10 0.435824 0.395489 0.000000
O O11 0.115858 0.384143 0.787746
O O12 0.008209 0.371901 0.729940
O O13 0.042709 0.355363 0.000000
O O14 0.949963 0.337694 0.500000
O O15 0.905194 0.405194 0.295664
O O16 0.854300 0.152846 0.500000
#
# Coordination Sequence:
#
# PCOD8314259 Si02
#       6
#    16  16  16  16  16  16
#     4  10  21  38  59  79 104 144 190 232 272 318
#     4   9  19  36  56  77 104 141 184 229 275 321
#     4   9  18  32  48  66  92 129 173 222 274 325
#     4   9  19  37  61  87 113 144 184 225 263 313
#     4  10  21  37  58  86 119 148 174 213 269 329
#     4  12  23  32  48  75 105 139 180 226 276 328
#
# _framework density 19.144227999999998
#
# number of rings (size 3 to 8) (size 9 to 14) (size 15 to 20)
#    0.000    2.167    0.000    5.000    0.000   10.000 
#    0.000    3.333    0.000    3.000    0.000    0.000 
#    0.000    0.000    0.000    0.000    0.000    0.000 
#
# Total GULP energy -1189900.083836 kJ/mol
# GULP energy per Si atom -12394.792540 kJ/mol
# Density = 1.910065 g / cm^3
# Si number density = 19.144228 Si / 1000 Ang^3
#
#
#
# Elastic Constant Matrix: (Units=GPa)
#
#
# Indices 1 2 3 4 5 6 
#
# 1 74.7538 49.9446 54.6546 0.0000 0.0000 0.0000
# 2 49.9446 74.7538 54.6546 0.0000 0.0000 0.0000
# 3 54.6546 54.6546 113.3383 0.0000 0.0000 0.0000
# 4 0.0000 0.0000 0.0000 27.2839 0.0000 0.0000
# 5 0.0000 0.0000 0.0000 0.0000 27.2839 0.0000
# 6 0.0000 0.0000 0.0000 0.0000 0.0000 34.4058
#
#
#
# Elastic Compliance Matrix: (Units=1/GPa)
#
#
# Indices 1 2 3 4 5 6 
#
# 1 0.027100 -0.013208 -0.006699 0.000000 0.000000 0.000000
# 2 -0.013208 0.027100 -0.006699 0.000000 0.000000 0.000000
# 3 -0.006699 -0.006699 0.015284 0.000000 0.000000 0.000000
# 4 0.000000 0.000000 0.000000 0.036652 0.000000 0.000000
# 5 0.000000 0.000000 0.000000 0.000000 0.036652 0.000000
# 6 0.000000 0.000000 0.000000 0.000000 0.000000 0.029065
#
#
# Mechanical properties :
#
#
# Convention : Reuss Voigt Hill
#
# Bulk Modulus (GPa) = 61.45725 64.59483 63.02604
# Shear Modulus (GPa) = 21.69326 24.70088 23.19707
#
# Velocity S-wave (km/s) = 3.36988 3.59590 3.48472
# Velocity P-wave (km/s) = 6.87847 7.14529 7.01315
#
# Compressibility (1/GPa) = 0.01627147
#
# Stress axis : x y z
#
# Youngs Moduli (GPa) = 36.90094 36.90094 65.42876
#
# Poissons Ratio (x) = 0.48739 0.43829
# Poissons Ratio (y) = 0.48739 0.43829
# Poissons Ratio (z) = 0.24719 0.24719
#
# Static dielectric constant tensor:
#      x y z
#    x 3.563900 0.000000 0.000000 
#    y 0.000000 3.563900 0.000000 
#    z 0.000000 0.000000 3.490360 
# 
# 
# High freq. dielectric constant tensor:
#      x y z
#    x 1.740650 0.000000 0.000000 
#    y 0.000000 1.740650 0.000000 
#    z 0.000000 0.000000 1.739080 
# 
# From -- ./inp_files/2044.got.cif
#   From: 2010.03.12/outbox.cif.g09.slc.cpg/sg127_2_cif.got.tgz:2044.got - 2010.04.06 17:03:15.
