data_PCOD8314038
_publ_section_title
;
Structure prediction by ZEFSAII (Michael W. Deem and Ramdas Pophale) SiO2 
 PCOD8314038
Probable space group: P 4/M B M
;
_chemical_formula_sum "Si O2"
_cell_formula_units_Z 96
_cell_length_a 14.800866
_cell_length_b 14.800866
_cell_length_c 21.730538
_cell_angle_alpha 90.000000
_cell_angle_beta 90.000000
_cell_angle_gamma 90.000000
_cell_volume 4760.414092
_symmetry_space_group_name_H-M "P 4/M B M"
_symmetry_group_IT_number 127
_symmetry_cell_setting 'tetragonal'
loop_
_space_group_symop_operation_xyz
x,y,z
-y,x,z
-x,-y,z
y,-x,z
1/2+x,1/2-y,-z
1/2-x,1/2+y,-z
1/2+y,1/2+x,-z
1/2-y,1/2-x,-z
-x,-y,-z
y,-x,-z
x,y,-z
-y,x,-z
1/2-x,1/2+y,z
1/2+x,1/2-y,z
1/2-y,1/2-x,z
1/2+y,1/2+x,z
loop_
_atom_site_type_symbol
_atom_site_label
_atom_site_fract_x
_atom_site_fract_y
_atom_site_fract_z
Si Si1 0.824695 0.175808 0.836166
Si Si2 0.750384 0.100849 0.382963
Si Si3 0.572576 0.072576 0.933392
Si Si4 0.352429 0.464471 0.500000
Si Si5 0.853684 0.498416 0.721564
Si Si6 0.767191 0.500929 0.146795
Si Si7 0.392655 0.395052 0.289861
O O1 0.733737 0.233737 0.839728
O O2 0.806131 0.078750 0.866616
O O3 0.849473 0.158937 0.765869
O O4 0.905354 0.224174 0.873237
O O5 0.681350 0.181350 0.400729
O O6 0.839258 0.142526 0.349374
O O7 0.786161 0.048604 0.442413
O O8 0.701994 0.027473 0.338657
O O9 0.647412 0.021505 0.894287
O O10 0.500000 0.000000 0.950506
O O11 0.609593 0.109593 0.000000
O O12 0.434252 0.392337 0.500000
O O13 0.901256 0.401256 0.709818
O O14 0.789572 0.493807 0.780835
O O15 0.927942 0.572058 0.737978
O O16 0.497932 0.374377 0.289768
#
# Coordination Sequence:
#
# PCOD8314038 Si02
#       7
#    16  16   8   8  16  16  16
#     4  12  22  36  60  95 134 173 219 276 339 398
#     4  11  22  39  61  90 123 159 208 273 331 391
#     4  11  24  46  72  98 132 180 240 292 338 405
#     4  11  25  46  66  81 111 165 218 261 322 407
#     4  10  19  35  61  91 126 166 210 264 330 389
#     4  12  23  39  64  99 137 178 221 278 339 405
#     4  11  21  35  56  88 129 172 211 259 325 401
#
# _framework density 20.166312000000001
#
# number of rings (size 3 to 8) (size 9 to 14) (size 15 to 20)
#    0.000    0.833    5.000    3.250    0.000    1.667 
#    0.000    7.083    0.000    2.000    0.000    1.167 
#    0.000    0.000    0.000    0.000    0.000    0.000 
#
# Total GULP energy -1190025.027583 kJ/mol
# GULP energy per Si atom -12396.094037 kJ/mol
# Density = 2.012041 g / cm^3
# Si number density = 20.166312 Si / 1000 Ang^3
#
#
#
# Elastic Constant Matrix: (Units=GPa)
#
#
# Indices 1 2 3 4 5 6 
#
# 1 105.7554 37.4681 29.1232 0.0000 0.0000 0.0000
# 2 37.4681 105.7554 29.1232 0.0000 0.0000 0.0000
# 3 29.1232 29.1232 78.2252 0.0000 0.0000 0.0000
# 4 0.0000 0.0000 0.0000 6.9489 0.0000 0.0000
# 5 0.0000 0.0000 0.0000 0.0000 6.9489 0.0000
# 6 0.0000 0.0000 0.0000 0.0000 0.0000 37.8529
#
#
#
# Elastic Compliance Matrix: (Units=1/GPa)
#
#
# Indices 1 2 3 4 5 6 
#
# 1 0.011436 -0.003208 -0.003063 0.000000 0.000000 0.000000
# 2 -0.003208 0.011436 -0.003063 0.000000 0.000000 0.000000
# 3 -0.003063 -0.003063 0.015064 0.000000 0.000000 0.000000
# 4 0.000000 0.000000 0.000000 0.143908 0.000000 0.000000
# 5 0.000000 0.000000 0.000000 0.000000 0.143908 0.000000
# 6 0.000000 0.000000 0.000000 0.000000 0.000000 0.026418
#
#
# Mechanical properties :
#
#
# Convention : Reuss Voigt Hill
#
# Bulk Modulus (GPa) = 51.90144 53.46277 52.68210
# Shear Modulus (GPa) = 13.25343 23.28490 18.26916
#
# Velocity S-wave (km/s) = 2.56638 3.40169 3.01312
# Velocity P-wave (km/s) = 5.88000 6.48052 6.18755
#
# Compressibility (1/GPa) = 0.01926729
#
# Stress axis : x y z
#
# Youngs Moduli (GPa) = 87.44365 87.44365 66.38131
#
# Poissons Ratio (x) = 0.28053 0.20334
# Poissons Ratio (y) = 0.28053 0.20334
# Poissons Ratio (z) = 0.26786 0.26786
#
# Static dielectric constant tensor:
#      x y z
#    x 4.008020 0.000000 0.000000 
#    y 0.000000 4.008020 0.000000 
#    z 0.000000 0.000000 3.452830 
# 
# 
# High freq. dielectric constant tensor:
#      x y z
#    x 1.801300 0.000000 0.000000 
#    y 0.000000 1.801300 0.000000 
#    z 0.000000 0.000000 1.755420 
# 
# From -- ./inp_files/5842.got.cif
#   From: 2010.03.12/outbox.cif.g09.slc.cpg/sg127_3_cif.got.tgz:5842.got - 2010.04.06 17:03:15.
