data_PCOD8314575
_publ_section_title
;
Structure prediction by ZEFSAII (Michael W. Deem and Ramdas Pophale) SiO2 
 PCOD8314575
Probable space group: P 4/M N C
;
_chemical_formula_sum "Si O2"
_cell_formula_units_Z 116
_cell_length_a 26.913801
_cell_length_b 26.913801
_cell_length_c 8.975907
_cell_angle_alpha 90.000000
_cell_angle_beta 90.000000
_cell_angle_gamma 90.000000
_cell_volume 6501.722329
_symmetry_space_group_name_H-M "P 4/M N C"
_symmetry_group_IT_number 128
_symmetry_cell_setting 'tetragonal'
loop_
_space_group_symop_operation_xyz
x,y,z
-y,x,z
-x,-y,z
y,-x,z
1/2+x,1/2-y,1/2-z
1/2-x,1/2+y,1/2-z
1/2+y,1/2+x,1/2-z
1/2-y,1/2-x,1/2-z
-x,-y,-z
y,-x,-z
x,y,-z
-y,x,-z
1/2-x,1/2+y,1/2+z
1/2+x,1/2-y,1/2+z
1/2-y,1/2-x,1/2+z
1/2+y,1/2+x,1/2+z
loop_
_atom_site_type_symbol
_atom_site_label
_atom_site_fract_x
_atom_site_fract_y
_atom_site_fract_z
Si Si1 0.404288 0.335429 0.327043
Si Si2 0.000000 0.000000 0.722127
Si Si3 0.057646 0.630757 0.672382
Si Si4 0.131570 0.441813 0.825661
Si Si5 0.884274 0.995073 0.330260
Si Si6 0.329069 0.403672 0.174246
Si Si7 0.230157 0.555081 0.328338
Si Si8 0.941464 0.733529 0.175649
O O1 0.395343 0.347248 0.500000
O O2 0.455520 0.361254 0.281911
O O3 0.357806 0.355151 0.232883
O O4 0.409035 0.276624 0.297172
O O5 0.004078 0.942038 0.694818
O O6 0.086172 0.586172 0.750000
O O7 0.070402 0.629393 0.500000
O O8 0.075527 0.684027 0.733946
O O9 0.999763 0.623076 0.705657
O O10 0.085848 0.414153 0.750000
O O11 0.182405 0.423513 0.749947
O O12 0.133806 0.429764 0.000000
O O13 0.871162 0.980163 0.500000
O O14 0.862623 0.048739 0.288498
O O15 0.276908 0.407398 0.258479
O O16 0.318941 0.397866 0.000000
O O17 0.214207 0.555674 0.500000
O O18 0.244327 0.498814 0.281172
O O19 0.933277 0.730335 0.000000
#
# Coordination Sequence:
#
# PCOD8314575 Si02
#       8
#    16   4  16  16  16  16  16  16
#     4  11  22  35  51  74 103 136 181 234 286 334
#     4  12  21  36  49  66 101 148 189 222 285 352
#     4  10  21  36  58  87 119 152 186 220 262 317
#     4  10  21  37  58  88 120 154 188 221 263 318
#     4  11  21  33  49  67  96 138 182 227 277 338
#     4  11  22  34  51  75 103 140 184 232 283 337
#     4   9  19  35  55  78 107 142 184 231 278 327
#     4  10  19  35  57  80 108 144 185 234 280 326
#
# _framework density 17.841425000000001
#
# number of rings (size 3 to 8) (size 9 to 14) (size 15 to 20)
#    0.000    1.655    2.759    2.690    0.000    4.138 
#    0.000    1.724    0.000    0.828    0.000    1.931 
#    0.000    0.000    0.000    0.000    0.000    0.000 
#
# Total GULP energy -1437036.090013 kJ/mol
# GULP energy per Si atom -12388.242155 kJ/mol
# Density = 1.780082 g / cm^3
# Si number density = 17.841425 Si / 1000 Ang^3
#
#
#
# Elastic Constant Matrix: (Units=GPa)
#
#
# Indices 1 2 3 4 5 6 
#
# 1 89.7546 55.3970 55.2901 0.0000 0.0000 0.0000
# 2 55.3970 89.7432 55.2901 0.0000 0.0000 0.0000
# 3 55.2901 55.2901 102.8617 0.0000 0.0000 0.0000
# 4 0.0000 0.0000 0.0000 37.0683 0.0000 0.0000
# 5 0.0000 0.0000 0.0000 0.0000 37.0686 0.0000
# 6 0.0000 0.0000 0.0000 0.0000 0.0000 17.3692
#
#
#
# Elastic Compliance Matrix: (Units=1/GPa)
#
#
# Indices 1 2 3 4 5 6 
#
# 1 0.020387 -0.008721 -0.006271 0.000000 0.000000 0.000000
# 2 -0.008721 0.020391 -0.006273 0.000000 0.000000 0.000000
# 3 -0.006271 -0.006273 0.016464 0.000000 0.000000 0.000000
# 4 0.000000 0.000000 0.000000 0.026977 0.000000 0.000000
# 5 0.000000 0.000000 0.000000 0.000000 0.026977 0.000000
# 6 0.000000 0.000000 0.000000 0.000000 0.000000 0.057573
#
#
# Mechanical properties :
#
#
# Convention : Reuss Voigt Hill
#
# Bulk Modulus (GPa) = 67.96731 68.25711 68.11221
# Shear Modulus (GPa) = 23.12641 26.06005 24.59323
#
# Velocity S-wave (km/s) = 3.60421 3.82599 3.71675
# Velocity P-wave (km/s) = 7.44972 7.60646 7.52850
#
# Compressibility (1/GPa) = 0.01471296
#
# Stress axis : x y z
#
# Youngs Moduli (GPa) = 49.05049 49.04130 60.73865
#
# Poissons Ratio (x) = 0.42771 0.38087
# Poissons Ratio (y) = 0.42779 0.38099
# Poissons Ratio (z) = 0.30757 0.30762
#
# Static dielectric constant tensor:
#      x y z
#    x -1.248450 0.000000 0.000000 
#    y 0.000000 -1.247990 0.000000 
#    z 0.000000 0.000000 3.361610 
# 
# 
# High freq. dielectric constant tensor:
#      x y z
#    x 1.685290 0.000000 0.000000 
#    y 0.000000 1.685290 0.000000 
#    z 0.000000 0.000000 1.694180 
# 
# From -- ./inp_files/1766.got.cif
#   From: 2010.03.12/outbox.cif.g09.slc.cpg/sg128_1_cif.got.tgz:1766.got - 2010.04.06 17:11:05.
