data_PCOD8314462
_publ_section_title
;
Structure prediction by ZEFSAII (Michael W. Deem and Ramdas Pophale) SiO2 
 PCOD8314462
Probable space group: P 4/M B M
;
_chemical_formula_sum "Si O2"
_cell_formula_units_Z 96
_cell_length_a 24.269123
_cell_length_b 24.269123
_cell_length_c 9.730544
_cell_angle_alpha 90.000000
_cell_angle_beta 90.000000
_cell_angle_gamma 90.000000
_cell_volume 5731.196333
_symmetry_space_group_name_H-M "P 4/M B M"
_symmetry_group_IT_number 127
_symmetry_cell_setting 'tetragonal'
loop_
_space_group_symop_operation_xyz
x,y,z
-y,x,z
-x,-y,z
y,-x,z
1/2+x,1/2-y,-z
1/2-x,1/2+y,-z
1/2+y,1/2+x,-z
1/2-y,1/2-x,-z
-x,-y,-z
y,-x,-z
x,y,-z
-y,x,-z
1/2-x,1/2+y,z
1/2+x,1/2-y,z
1/2-y,1/2-x,z
1/2+y,1/2+x,z
loop_
_atom_site_type_symbol
_atom_site_label
_atom_site_fract_x
_atom_site_fract_y
_atom_site_fract_z
Si Si1 0.861112 0.554600 0.336275
Si Si2 0.488529 0.693172 0.338829
Si Si3 0.196643 0.550817 0.662411
Si Si4 0.255175 0.882343 0.662446
Si Si5 0.410327 0.504825 0.157022
Si Si6 0.328363 0.171638 0.664610
Si Si7 0.740421 0.240421 0.336042
O O1 0.857767 0.553949 0.500000
O O2 0.920209 0.579792 0.287504
O O3 0.850443 0.492141 0.282861
O O4 0.812992 0.594626 0.279249
O O5 0.493361 0.680733 0.500000
O O6 0.527953 0.743647 0.295967
O O7 0.425076 0.706639 0.297321
O O8 0.509888 0.640943 0.257201
O O9 0.192089 0.554864 0.500000
O O10 0.187143 0.611442 0.724769
O O11 0.260201 0.879319 0.500000
O O12 0.243516 0.820794 0.719240
O O13 0.443090 0.448871 0.187490
O O14 0.389882 0.505604 0.000000
O O15 0.327972 0.172029 0.500000
O O16 0.284278 0.215723 0.722759
O O17 0.741681 0.241681 0.500000
#
# Coordination Sequence:
#
# PCOD8314462 Si02
#       7
#    16  16  16  16  16   8   8
#     4   8  11  18  33  48  68 101 138 178 215 247
#     4   9  17  28  45  69  92 111 140 188 232 258
#     4   8  15  25  35  53  83 114 141 173 218 262
#     4   8  13  21  34  57  83 104 135 177 218 259
#     4   9  19  35  50  63  84 116 150 180 214 264
#     4   9  16  24  31  44  78 123 148 164 205 269
#     4   9  14  20  32  49  75 111 145 172 207 263
#
# _framework density 16.750429
#
# number of rings (size 3 to 8) (size 9 to 14) (size 15 to 20)
#    0.000    3.500    0.833    2.500    0.000    2.000 
#    0.000    4.583    0.000    2.500    0.000    1.167 
#    0.000    4.000    0.000    0.000    0.000    5.667 
#
# Total GULP energy -1189335.098557 kJ/mol
# GULP energy per Si atom -12388.907277 kJ/mol
# Density = 1.671230 g / cm^3
# Si number density = 16.750429 Si / 1000 Ang^3
#
#
#
# Elastic Constant Matrix: (Units=GPa)
#
#
# Indices 1 2 3 4 5 6 
#
# 1 125.7874 62.1491 20.9854 0.0000 0.0000 0.0000
# 2 62.1491 125.7875 20.9855 0.0000 0.0000 0.0000
# 3 20.9854 20.9855 20.5213 0.0000 0.0000 0.0000
# 4 0.0000 0.0000 0.0000 5.1787 0.0000 0.0000
# 5 0.0000 0.0000 0.0000 0.0000 5.1788 0.0000
# 6 0.0000 0.0000 0.0000 0.0000 0.0000 21.8692
#
#
#
# Elastic Compliance Matrix: (Units=1/GPa)
#
#
# Indices 1 2 3 4 5 6 
#
# 1 0.011305 -0.004409 -0.007052 0.000000 0.000000 0.000000
# 2 -0.004409 0.011305 -0.007052 0.000000 0.000000 0.000000
# 3 -0.007052 -0.007052 0.063152 0.000000 0.000000 0.000000
# 4 0.000000 0.000000 0.000000 0.193097 0.000000 0.000000
# 5 0.000000 0.000000 0.000000 0.000000 0.193097 0.000000
# 6 0.000000 0.000000 0.000000 0.000000 0.000000 0.045726
#
#
# Mechanical properties :
#
#
# Convention : Reuss Voigt Hill
#
# Bulk Modulus (GPa) = 20.51833 53.37069 36.94451
# Shear Modulus (GPa) = 8.75729 17.64376 13.20053
#
# Velocity S-wave (km/s) = 2.28898 3.24903 2.81031
# Velocity P-wave (km/s) = 4.38885 6.78280 5.71263
#
# Compressibility (1/GPa) = 0.04873690
#
# Stress axis : x y z
#
# Youngs Moduli (GPa) = 88.45811 88.45807 15.83474
#
# Poissons Ratio (x) = 0.39001 0.11166
# Poissons Ratio (y) = 0.39001 0.11166
# Poissons Ratio (z) = 0.62378 0.62378
#
# Static dielectric constant tensor:
#      x y z
#    x 3.403950 0.000000 0.000000 
#    y 0.000000 3.403950 0.000000 
#    z 0.000000 0.000000 2.401930 
# 
# 
# High freq. dielectric constant tensor:
#      x y z
#    x 1.649690 0.000000 0.000000 
#    y 0.000000 1.649690 0.000000 
#    z 0.000000 0.000000 1.560470 
# 
# From -- ./inp_files/3697.got.cif
#   From: 2010.03.12/outbox.cif.g09.slc.cpg/sg127_2_cif.got.tgz:3697.got - 2010.04.06 17:03:15.
