data_PCOD8314638
_publ_section_title
;
Structure prediction by ZEFSAII (Michael W. Deem and Ramdas Pophale) SiO2 
 PCOD8314638
Probable space group: P 4/M N C
;
_chemical_formula_sum "Si O2"
_cell_formula_units_Z 88
_cell_length_a 17.458054
_cell_length_b 17.458054
_cell_length_c 15.661432
_cell_angle_alpha 90.000000
_cell_angle_beta 90.000000
_cell_angle_gamma 90.000000
_cell_volume 4773.348401
_symmetry_space_group_name_H-M "P 4/M N C"
_symmetry_group_IT_number 128
_symmetry_cell_setting 'tetragonal'
loop_
_space_group_symop_operation_xyz
x,y,z
-y,x,z
-x,-y,z
y,-x,z
1/2+x,1/2-y,1/2-z
1/2-x,1/2+y,1/2-z
1/2+y,1/2+x,1/2-z
1/2-y,1/2-x,1/2-z
-x,-y,-z
y,-x,-z
x,y,-z
-y,x,-z
1/2-x,1/2+y,1/2+z
1/2+x,1/2-y,1/2+z
1/2-y,1/2-x,1/2+z
1/2+y,1/2+x,1/2+z
loop_
_atom_site_type_symbol
_atom_site_label
_atom_site_fract_x
_atom_site_fract_y
_atom_site_fract_z
Si Si1 0.256907 0.975798 0.902418
Si Si2 0.640478 0.333656 0.167189
Si Si3 0.879895 0.034207 0.200668
Si Si4 0.302687 0.768534 0.600551
Si Si5 0.236301 0.627820 0.703934
Si Si6 0.085130 0.907182 0.500000
O O1 0.283723 0.045849 0.840859
O O2 0.166080 0.961114 0.888174
O O3 0.291850 0.891641 0.880820
O O4 0.273446 0.999040 0.000000
O O5 0.559896 0.326847 0.218988
O O6 0.666961 0.247082 0.148169
O O7 0.702099 0.382244 0.221367
O O8 0.633380 0.380748 0.081541
O O9 0.948315 0.093313 0.206675
O O10 0.286783 0.767858 0.500000
O O11 0.275636 0.686061 0.636364
O O12 0.159619 0.659619 0.750000
O O13 0.995441 0.893193 0.500000
#
# Coordination Sequence:
#
# PCOD8314638 Si02
#       6
#    16  16  16  16  16   8
#     4  11  21  36  58  87 122 156 196 247 301 357
#     4  11  20  37  54  78 118 158 201 241 286 353
#     4  11  21  33  53  83 123 159 187 230 289 365
#     4  10  20  35  56  83 116 154 201 253 297 355
#     4  10  21  36  59  83 118 161 198 245 299 360
#     4  11  24  36  54  82 120 158 192 239 300 368
#
# _framework density 18.435697000000001
#
# number of rings (size 3 to 8) (size 9 to 14) (size 15 to 20)
#    0.000    1.364    4.545    1.636    0.000    3.636 
#    0.000    0.909    0.000    0.000    0.000    2.545 
#    0.000   13.091    0.000    0.000    0.000    0.000 
#
# Total GULP energy -1090183.385020 kJ/mol
# GULP energy per Si atom -12388.447557 kJ/mol
# Density = 1.839374 g / cm^3
# Si number density = 18.435697 Si / 1000 Ang^3
#
#
#
# Elastic Constant Matrix: (Units=GPa)
#
#
# Indices 1 2 3 4 5 6 
#
# 1 94.9389 40.1317 32.5631 0.0000 0.0000 0.0000
# 2 40.1317 94.9389 32.5631 0.0000 0.0000 0.0000
# 3 32.5631 32.5631 80.8510 0.0000 0.0000 0.0000
# 4 0.0000 0.0000 0.0000 32.5458 0.0000 0.0000
# 5 0.0000 0.0000 0.0000 0.0000 32.5458 0.0000
# 6 0.0000 0.0000 0.0000 0.0000 0.0000 36.1721
#
#
#
# Elastic Compliance Matrix: (Units=1/GPa)
#
#
# Indices 1 2 3 4 5 6 
#
# 1 0.013717 -0.004529 -0.003700 0.000000 0.000000 0.000000
# 2 -0.004529 0.013717 -0.003700 0.000000 0.000000 0.000000
# 3 -0.003700 -0.003700 0.015349 0.000000 0.000000 0.000000
# 4 0.000000 0.000000 0.000000 0.030726 0.000000 0.000000
# 5 0.000000 0.000000 0.000000 0.000000 0.030726 0.000000
# 6 0.000000 0.000000 0.000000 0.000000 0.000000 0.027646
#
#
# Mechanical properties :
#
#
# Convention : Reuss Voigt Hill
#
# Bulk Modulus (GPa) = 52.84575 53.47164 53.15870
# Shear Modulus (GPa) = 30.85517 31.28414 31.06966
#
# Velocity S-wave (km/s) = 4.09548 4.12385 4.10969
# Velocity P-wave (km/s) = 7.14780 7.19321 7.17054
#
# Compressibility (1/GPa) = 0.01892300
#
# Stress axis : x y z
#
# Youngs Moduli (GPa) = 72.90354 72.90354 65.15030
#
# Poissons Ratio (x) = 0.33018 0.24108
# Poissons Ratio (y) = 0.33018 0.24108
# Poissons Ratio (z) = 0.26977 0.26977
#
# Static dielectric constant tensor:
#      x y z
#    x 3.454980 0.000000 0.000000 
#    y 0.000000 3.454980 0.000000 
#    z 0.000000 0.000000 3.590600 
# 
# 
# High freq. dielectric constant tensor:
#      x y z
#    x 1.702500 0.000000 0.000000 
#    y 0.000000 1.702500 0.000000 
#    z 0.000000 0.000000 1.728570 
# 
# From -- ./inp_files/3861.got.cif
#   From: 2010.03.12/outbox.cif.g09.slc.cpg/sg128_2_cif.got.tgz:3861.got - 2010.04.06 17:11:05.
