data_PCOD8314842
_publ_section_title
;
Structure prediction by ZEFSAII (Michael W. Deem and Ramdas Pophale) SiO2 
 PCOD8314842
Probable space group: P 4/M N C
;
_chemical_formula_sum "Si O2"
_cell_formula_units_Z 88
_cell_length_a 14.143168
_cell_length_b 14.143168
_cell_length_c 20.206609
_cell_angle_alpha 90.000000
_cell_angle_beta 90.000000
_cell_angle_gamma 90.000000
_cell_volume 4041.911855
_symmetry_space_group_name_H-M "P 4/M N C"
_symmetry_group_IT_number 128
_symmetry_cell_setting 'tetragonal'
loop_
_space_group_symop_operation_xyz
x,y,z
-y,x,z
-x,-y,z
y,-x,z
1/2+x,1/2-y,1/2-z
1/2-x,1/2+y,1/2-z
1/2+y,1/2+x,1/2-z
1/2-y,1/2-x,1/2-z
-x,-y,-z
y,-x,-z
x,y,-z
-y,x,-z
1/2-x,1/2+y,1/2+z
1/2+x,1/2-y,1/2+z
1/2-y,1/2-x,1/2+z
1/2+y,1/2+x,1/2+z
loop_
_atom_site_type_symbol
_atom_site_label
_atom_site_fract_x
_atom_site_fract_y
_atom_site_fract_z
Si Si1 0.747332 0.915913 0.370492
Si Si2 0.081853 0.868205 0.248873
Si Si3 0.524464 0.654096 0.000000
Si Si4 0.405823 0.942374 0.675570
Si Si5 0.427778 0.774857 0.425371
Si Si6 0.634945 0.726752 0.380887
O O1 0.835587 0.891843 0.322953
O O2 0.781152 0.968598 0.435881
O O3 0.694695 0.821078 0.391369
O O4 0.680759 0.986385 0.330148
O O5 0.125560 0.794302 0.197152
O O6 0.969719 0.871599 0.237810
O O7 0.422106 0.607449 0.000000
O O8 0.403244 0.903244 0.750000
O O9 0.395994 0.856404 0.624900
O O10 0.500000 0.000000 0.659172
O O11 0.419454 0.814615 0.500000
O O12 0.533406 0.739661 0.413475
O O13 0.359390 0.685325 0.417767
#
# Coordination Sequence:
#
# PCOD8314842 Si02
#       6
#    16  16   8  16  16  16
#     4  12  27  43  76 105 145 188 245 303 371 451
#     4  11  24  45  70 102 141 190 242 301 363 433
#     4  11  28  52  73 106 150 193 244 311 381 450
#     4  11  26  47  71 106 149 187 235 302 375 438
#     4  12  28  47  74 102 146 189 243 302 365 440
#     4  12  26  47  69 106 140 191 246 299 361 433
#
# _framework density 21.771874
#
# number of rings (size 3 to 8) (size 9 to 14) (size 15 to 20)
#    0.000    0.455    3.636    3.273   11.455    2.182 
#    0.000    0.909    0.000    0.000    0.000    0.000 
#    0.000    0.000    0.000    0.000    0.000    0.000 
#
# Total GULP energy -1092035.392692 kJ/mol
# GULP energy per Si atom -12409.493099 kJ/mol
# Density = 2.172232 g / cm^3
# Si number density = 21.771874 Si / 1000 Ang^3
#
#
#
# Elastic Constant Matrix: (Units=GPa)
#
#
# Indices 1 2 3 4 5 6 
#
# 1 74.3797 37.0830 16.9090 0.0000 0.0000 0.0000
# 2 37.0830 74.3797 16.9090 0.0000 0.0000 0.0000
# 3 16.9090 16.9090 134.9601 0.0000 0.0000 0.0000
# 4 0.0000 0.0000 0.0000 97.0993 0.0000 0.0000
# 5 0.0000 0.0000 0.0000 0.0000 97.0993 0.0000
# 6 0.0000 0.0000 0.0000 0.0000 0.0000 27.3251
#
#
#
# Elastic Compliance Matrix: (Units=1/GPa)
#
#
# Indices 1 2 3 4 5 6 
#
# 1 0.018069 -0.008743 -0.001168 0.000000 0.000000 0.000000
# 2 -0.008743 0.018069 -0.001168 0.000000 0.000000 0.000000
# 3 -0.001168 -0.001168 0.007702 0.000000 0.000000 0.000000
# 4 0.000000 0.000000 0.000000 0.010299 0.000000 0.000000
# 5 0.000000 0.000000 0.000000 0.000000 0.010299 0.000000
# 6 0.000000 0.000000 0.000000 0.000000 0.000000 0.036596
#
#
# Mechanical properties :
#
#
# Convention : Reuss Voigt Hill
#
# Bulk Modulus (GPa) = 46.12376 47.28016 46.70196
# Shear Modulus (GPa) = 38.33735 58.49264 48.41499
#
# Velocity S-wave (km/s) = 4.20082 5.18888 4.72077
# Velocity P-wave (km/s) = 6.69031 7.59359 7.15621
#
# Compressibility (1/GPa) = 0.02168080
#
# Stress axis : x y z
#
# Youngs Moduli (GPa) = 55.34316 55.34316 129.82994
#
# Poissons Ratio (x) = 0.48386 0.15170
# Poissons Ratio (y) = 0.48386 0.15170
# Poissons Ratio (z) = 0.06467 0.06467
#
# Static dielectric constant tensor:
#      x y z
#    x 4.013360 0.000000 0.000000 
#    y 0.000000 4.013360 0.000000 
#    z 0.000000 0.000000 4.008750 
# 
# 
# High freq. dielectric constant tensor:
#      x y z
#    x 1.866850 0.000000 0.000000 
#    y 0.000000 1.866850 0.000000 
#    z 0.000000 0.000000 1.866000 
# 
# From -- ./inp_files/5672.got.cif
#   From: 2010.03.12/outbox.cif.g09.slc.cpg/sg128_3_cif.got.tgz:5672.got - 2010.04.06 17:11:05.
