data_PCOD8314071
_publ_section_title
;
Structure prediction by ZEFSAII (Michael W. Deem and Ramdas Pophale) SiO2 
 PCOD8314071
Probable space group: P 4/M B M
;
_chemical_formula_sum "Si O2"
_cell_formula_units_Z 96
_cell_length_a 24.067769
_cell_length_b 24.067769
_cell_length_c 8.539246
_cell_angle_alpha 90.000000
_cell_angle_beta 90.000000
_cell_angle_gamma 90.000000
_cell_volume 4946.422329
_symmetry_space_group_name_H-M "P 4/M B M"
_symmetry_group_IT_number 127
_symmetry_cell_setting 'tetragonal'
loop_
_space_group_symop_operation_xyz
x,y,z
-y,x,z
-x,-y,z
y,-x,z
1/2+x,1/2-y,-z
1/2-x,1/2+y,-z
1/2+y,1/2+x,-z
1/2-y,1/2-x,-z
-x,-y,-z
y,-x,-z
x,y,-z
-y,x,-z
1/2-x,1/2+y,z
1/2+x,1/2-y,z
1/2-y,1/2-x,z
1/2+y,1/2+x,z
loop_
_atom_site_type_symbol
_atom_site_label
_atom_site_fract_x
_atom_site_fract_y
_atom_site_fract_z
Si Si1 0.775329 0.811105 0.186054
Si Si2 0.417206 0.529340 0.186320
Si Si3 0.932678 0.201126 0.815108
Si Si4 0.412532 0.000181 0.685974
Si Si5 0.775805 0.633358 0.819686
Si Si6 0.289214 0.984252 0.682485
O O1 0.719878 0.780123 0.251511
O O2 0.779939 0.873180 0.256129
O O3 0.829647 0.776337 0.235337
O O4 0.771843 0.812269 0.000000
O O5 0.429786 0.466478 0.244436
O O6 0.358649 0.550024 0.257151
O O7 0.414930 0.529599 0.000000
O O8 0.978939 0.245736 0.775421
O O9 0.927303 0.195539 0.000000
O O10 0.410983 0.996317 0.500000
O O11 0.442688 0.057313 0.739197
O O12 0.447618 0.947618 0.751332
O O13 0.350157 0.998597 0.752267
O O14 0.832576 0.667425 0.796800
O O15 0.776454 0.580171 0.708919
O O16 0.768967 0.614872 0.000000
O O17 0.285073 0.998233 0.500000
#
# Coordination Sequence:
#
# PCOD8314071 Si02
#       6
#    16  16  16  16  16  16
#     4   8  16  32  53  77 103 133 171 215 262 309
#     4   8  15  28  48  75  98 118 160 220 265 298
#     4  10  20  32  52  76 100 136 173 210 254 306
#     4   8  15  30  51  71  93 128 172 210 244 288
#     4   9  18  34  57  81 104 133 172 217 261 308
#     4  11  22  33  48  76 110 138 168 210 257 308
#
# _framework density 19.407965999999998
#
# number of rings (size 3 to 8) (size 9 to 14) (size 15 to 20)
#    0.000    3.000    0.000    3.000    2.333    1.667 
#    0.000    0.833    0.000    2.500    0.000    7.000 
#    0.000    0.000    0.000    0.000    0.000    0.000 
#
# Total GULP energy -1190020.310001 kJ/mol
# GULP energy per Si atom -12396.044896 kJ/mol
# Density = 1.936379 g / cm^3
# Si number density = 19.407966 Si / 1000 Ang^3
#
#
#
# Elastic Constant Matrix: (Units=GPa)
#
#
# Indices 1 2 3 4 5 6 
#
# 1 143.0383 94.0865 6.3694 0.0000 0.0000 0.0000
# 2 94.0865 143.0383 6.3694 0.0000 0.0000 0.0000
# 3 6.3694 6.3694 8.9375 0.0000 0.0000 0.0000
# 4 0.0000 0.0000 0.0000 15.4284 0.0000 0.0000
# 5 0.0000 0.0000 0.0000 0.0000 15.4284 0.0000
# 6 0.0000 0.0000 0.0000 0.0000 0.0000 24.9267
#
#
#
# Elastic Compliance Matrix: (Units=1/GPa)
#
#
# Indices 1 2 3 4 5 6 
#
# 1 0.012407 -0.008022 -0.003125 0.000000 0.000000 0.000000
# 2 -0.008022 0.012407 -0.003125 0.000000 0.000000 0.000000
# 3 -0.003125 -0.003125 0.116342 0.000000 0.000000 0.000000
# 4 0.000000 0.000000 0.000000 0.064815 0.000000 0.000000
# 5 0.000000 0.000000 0.000000 0.000000 0.064815 0.000000
# 6 0.000000 0.000000 0.000000 0.000000 0.000000 0.040118
#
#
# Mechanical properties :
#
#
# Convention : Reuss Voigt Hill
#
# Bulk Modulus (GPa) = 8.88004 56.51830 32.69917
# Shear Modulus (GPa) = 13.26313 23.70263 18.48288
#
# Velocity S-wave (km/s) = 2.61700 3.49848 3.08934
# Velocity P-wave (km/s) = 3.70365 6.74563 5.44153
#
# Compressibility (1/GPa) = 0.11261207
#
# Stress axis : x y z
#
# Youngs Moduli (GPa) = 80.60185 80.60185 8.59534
#
# Poissons Ratio (x) = 0.64655 0.02686
# Poissons Ratio (y) = 0.64655 0.02686
# Poissons Ratio (z) = 0.25189 0.25189
#
# Static dielectric constant tensor:
#      x y z
#    x 3.823430 0.000000 0.000000 
#    y 0.000000 3.823430 0.000000 
#    z 0.000000 0.000000 2.907560 
# 
# 
# High freq. dielectric constant tensor:
#      x y z
#    x 1.763980 0.000000 0.000000 
#    y 0.000000 1.763980 0.000000 
#    z 0.000000 0.000000 1.695630 
# 
# From -- ./inp_files/1993.got.cif
#   From: 2010.03.12/outbox.cif.g09.slc.cpg/sg127_1_cif.got.tgz:1993.got - 2010.04.06 17:03:15.
