data_PCOD8314263
_publ_section_title
;
Structure prediction by ZEFSAII (Michael W. Deem and Ramdas Pophale) SiO2 
 PCOD8314263
Probable space group: P 4/M B M
;
_chemical_formula_sum "Si O2"
_cell_formula_units_Z 64
_cell_length_a 13.237183
_cell_length_b 13.237183
_cell_length_c 18.561903
_cell_angle_alpha 90.000000
_cell_angle_beta 90.000000
_cell_angle_gamma 90.000000
_cell_volume 3252.472585
_symmetry_space_group_name_H-M "P 4/M B M"
_symmetry_group_IT_number 127
_symmetry_cell_setting 'tetragonal'
loop_
_space_group_symop_operation_xyz
x,y,z
-y,x,z
-x,-y,z
y,-x,z
1/2+x,1/2-y,-z
1/2-x,1/2+y,-z
1/2+y,1/2+x,-z
1/2-y,1/2-x,-z
-x,-y,-z
y,-x,-z
x,y,-z
-y,x,-z
1/2-x,1/2+y,z
1/2+x,1/2-y,z
1/2-y,1/2-x,z
1/2+y,1/2+x,z
loop_
_atom_site_type_symbol
_atom_site_label
_atom_site_fract_x
_atom_site_fract_y
_atom_site_fract_z
Si Si1 0.483379 0.336797 0.083499
Si Si2 0.500135 0.163928 0.194404
Si Si3 0.875976 0.209387 0.579188
Si Si4 0.430505 0.764372 0.656491
O O1 0.588928 0.390960 0.102300
O O2 0.470591 0.234873 0.128283
O O3 0.480199 0.306952 0.000000
O O4 0.402532 0.097469 0.216982
O O5 0.535323 0.234261 0.260513
O O6 0.591051 0.091051 0.169988
O O7 0.897446 0.161121 0.500000
O O8 0.785959 0.285959 0.570707
O O9 0.841758 0.124688 0.637499
O O10 0.972297 0.271265 0.606058
O O11 0.360970 0.860970 0.638926
#
# Coordination Sequence:
#
# PCOD8314263 Si02
#       4
#    16  16  16  16
#     4   9  20  39  61  87 121 158 196 238 286 345
#     4  10  22  38  58  86 118 155 199 242 288 348
#     4  10  21  37  59  85 112 149 196 241 288 348
#     4  10  22  39  57  82 119 154 188 241 296 346
#
# _framework density 19.677339
#
# number of rings (size 3 to 8) (size 9 to 14) (size 15 to 20)
#    0.000    2.250    0.000    2.250    3.500    5.500 
#    0.000    6.250    0.000    0.000    0.000    0.000 
#    0.000    0.000    0.000    0.000    0.000    0.000 
#
# Total GULP energy -793530.242437 kJ/mol
# GULP energy per Si atom -12398.910038 kJ/mol
# Density = 1.963255 g / cm^3
# Si number density = 19.677339 Si / 1000 Ang^3
#
#
#
# Elastic Constant Matrix: (Units=GPa)
#
#
# Indices 1 2 3 4 5 6 
#
# 1 85.6325 16.8525 53.9487 0.0000 0.0000 0.0000
# 2 16.8525 85.6325 53.9487 0.0000 0.0000 0.0000
# 3 53.9487 53.9487 105.5499 0.0000 0.0000 0.0000
# 4 0.0000 0.0000 0.0000 29.8926 0.0000 0.0000
# 5 0.0000 0.0000 0.0000 0.0000 29.8926 0.0000
# 6 0.0000 0.0000 0.0000 0.0000 0.0000 19.2875
#
#
#
# Elastic Compliance Matrix: (Units=1/GPa)
#
#
# Indices 1 2 3 4 5 6 
#
# 1 0.017832 0.003293 -0.010798 0.000000 0.000000 0.000000
# 2 0.003293 0.017832 -0.010798 0.000000 0.000000 0.000000
# 3 -0.010798 -0.010798 0.020512 0.000000 0.000000 0.000000
# 4 0.000000 0.000000 0.000000 0.033453 0.000000 0.000000
# 5 0.000000 0.000000 0.000000 0.000000 0.033453 0.000000
# 6 0.000000 0.000000 0.000000 0.000000 0.000000 0.051847
#
#
# Mechanical properties :
#
#
# Convention : Reuss Voigt Hill
#
# Bulk Modulus (GPa) = 51.09271 58.47943 54.78607
# Shear Modulus (GPa) = 22.92967 25.95220 24.44093
#
# Velocity S-wave (km/s) = 3.41733 3.63559 3.52815
# Velocity P-wave (km/s) = 6.44922 6.88528 6.67081
#
# Compressibility (1/GPa) = 0.01957226
#
# Stress axis : x y z
#
# Youngs Moduli (GPa) = 56.07813 56.07813 48.75202
#
# Poissons Ratio (x) = -0.18467 0.52641
# Poissons Ratio (y) = -0.18467 0.52641
# Poissons Ratio (z) = 0.60551 0.60551
#
# Static dielectric constant tensor:
#      x y z
#    x 3.553320 0.000000 0.000000 
#    y 0.000000 3.553320 0.000000 
#    z 0.000000 0.000000 3.665590 
# 
# 
# High freq. dielectric constant tensor:
#      x y z
#    x 1.763720 0.000000 0.000000 
#    y 0.000000 1.763720 0.000000 
#    z 0.000000 0.000000 1.768250 
# 
# From -- ./inp_files/4085.got.cif
#   From: 2010.03.12/outbox.cif.g09.slc.cpg/sg127_3_cif.got.tgz:4085.got - 2010.04.06 17:03:15.
