data_PCOD8314558
_publ_section_title
;
Structure prediction by ZEFSAII (Michael W. Deem and Ramdas Pophale) SiO2 
 PCOD8314558
Probable space group: P 4/M N C
;
_chemical_formula_sum "Si O2"
_cell_formula_units_Z 128
_cell_length_a 19.710599
_cell_length_b 19.710599
_cell_length_c 19.342307
_cell_angle_alpha 90.000000
_cell_angle_beta 90.000000
_cell_angle_gamma 90.000000
_cell_volume 7514.635456
_symmetry_space_group_name_H-M "P 4/M N C"
_symmetry_group_IT_number 128
_symmetry_cell_setting 'tetragonal'
loop_
_space_group_symop_operation_xyz
x,y,z
-y,x,z
-x,-y,z
y,-x,z
1/2+x,1/2-y,1/2-z
1/2-x,1/2+y,1/2-z
1/2+y,1/2+x,1/2-z
1/2-y,1/2-x,1/2-z
-x,-y,-z
y,-x,-z
x,y,-z
-y,x,-z
1/2-x,1/2+y,1/2+z
1/2+x,1/2-y,1/2+z
1/2-y,1/2-x,1/2+z
1/2+y,1/2+x,1/2+z
loop_
_atom_site_type_symbol
_atom_site_label
_atom_site_fract_x
_atom_site_fract_y
_atom_site_fract_z
Si Si1 0.318791 0.921222 0.578495
Si Si2 0.691252 0.924457 0.921651
Si Si3 0.811203 0.079790 0.827094
Si Si4 0.420211 0.311202 0.672906
Si Si5 0.850128 0.740931 0.292733
Si Si6 0.649871 0.759071 0.792733
Si Si7 0.808746 0.575545 0.421651
Si Si8 0.921223 0.318793 0.578495
O O1 0.289779 0.912410 0.500000
O O2 0.269596 0.888356 0.634837
O O3 0.388924 0.881109 0.586609
O O4 0.332056 0.999999 0.595068
O O5 0.752227 0.891649 0.877672
O O6 0.618889 0.888927 0.913389
O O7 0.678923 0.000001 0.894068
O O8 0.716768 0.922903 0.000000
O O9 0.880706 0.119296 0.844327
O O10 0.785979 0.096791 0.750301
O O11 0.752228 0.108353 0.877671
O O12 0.825146 0.000001 0.836223
O O13 0.403210 0.285977 0.749698
O O14 0.827370 0.672631 0.250000
O O15 0.781828 0.781830 0.309919
O O16 0.672629 0.827372 0.750000
O O17 0.611643 0.769598 0.865164
O O18 0.783230 0.577098 0.500000
O O19 0.912411 0.289782 0.500000
#
# Coordination Sequence:
#
# PCOD8314558 Si02
#       8
#    16  16  16  16  16  16  16  16
#     4  10  20  33  51  75 103 135 170 213 260 303
#     4   9  18  32  49  70  98 134 172 207 250 306
#     4  10  20  34  53  75 101 135 171 213 261 308
#     4  10  20  34  53  75 101 135 171 213 261 308
#     4  10  19  33  52  75 101 131 170 214 260 311
#     4  10  19  33  52  75 101 131 170 214 260 311
#     4   9  18  32  49  70  98 134 172 207 250 306
#     4  10  20  33  51  75 103 135 170 213 260 303
#
# _framework density 17.033428000000001
#
# number of rings (size 3 to 8) (size 9 to 14) (size 15 to 20)
#    0.000    2.250    2.500    0.750    0.000    1.750 
#    0.000    5.000    0.000    0.000    0.000    3.500 
#    0.000    0.000    0.000   23.250    0.000    0.250 
#
# Total GULP energy -1586477.565205 kJ/mol
# GULP energy per Si atom -12394.355978 kJ/mol
# Density = 1.699466 g / cm^3
# Si number density = 17.033428 Si / 1000 Ang^3
#
#
#
# Elastic Constant Matrix: (Units=GPa)
#
#
# Indices 1 2 3 4 5 6 
#
# 1 96.6125 45.8632 50.1000 0.0000 0.0000 0.0000
# 2 45.8632 96.6125 50.1000 0.0000 0.0000 0.0000
# 3 50.1000 50.1000 101.0670 0.0000 0.0000 0.0000
# 4 0.0000 0.0000 0.0000 26.5874 0.0000 0.0000
# 5 0.0000 0.0000 0.0000 0.0000 26.5874 0.0000
# 6 0.0000 0.0000 0.0000 0.0000 0.0000 23.2059
#
#
#
# Elastic Compliance Matrix: (Units=1/GPa)
#
#
# Indices 1 2 3 4 5 6 
#
# 1 0.015240 -0.004465 -0.005341 0.000000 0.000000 0.000000
# 2 -0.004465 0.015240 -0.005341 0.000000 0.000000 0.000000
# 3 -0.005341 -0.005341 0.015190 0.000000 0.000000 0.000000
# 4 0.000000 0.000000 0.000000 0.037612 0.000000 0.000000
# 5 0.000000 0.000000 0.000000 0.000000 0.037612 0.000000
# 6 0.000000 0.000000 0.000000 0.000000 0.000000 0.043092
#
#
# Mechanical properties :
#
#
# Convention : Reuss Voigt Hill
#
# Bulk Modulus (GPa) = 65.04119 65.15759 65.09939
# Shear Modulus (GPa) = 25.07448 25.15807 25.11627
#
# Velocity S-wave (km/s) = 3.84092 3.84732 3.84412
# Velocity P-wave (km/s) = 7.61168 7.62048 7.61608
#
# Compressibility (1/GPa) = 0.01537487
#
# Stress axis : x y z
#
# Youngs Moduli (GPa) = 65.61702 65.61702 65.83285
#
# Poissons Ratio (x) = 0.29296 0.35164
# Poissons Ratio (y) = 0.29296 0.35164
# Poissons Ratio (z) = 0.35049 0.35049
#
# Static dielectric constant tensor:
#      x y z
#    x 3.107000 0.000000 0.000000 
#    y 0.000000 3.107000 0.000000 
#    z 0.000000 0.000000 3.320670 
# 
# 
# High freq. dielectric constant tensor:
#      x y z
#    x 1.646420 0.000000 0.000000 
#    y 0.000000 1.646420 0.000000 
#    z 0.000000 0.000000 1.665240 
# 
# From -- ./inp_files/5114.got.cif
#   From: 2010.03.12/outbox.cif.g09.slc.cpg/sg128_3_cif.got.tgz:5114.got - 2010.04.06 17:11:05.
