data_PCOD8314250
_publ_section_title
;
Structure prediction by ZEFSAII (Michael W. Deem and Ramdas Pophale) SiO2 
 PCOD8314250
Probable space group: P 4/M B M
;
_chemical_formula_sum "Si O2"
_cell_formula_units_Z 88
_cell_length_a 13.963792
_cell_length_b 13.963792
_cell_length_c 22.958961
_cell_angle_alpha 90.000000
_cell_angle_beta 90.000000
_cell_angle_gamma 90.000000
_cell_volume 4476.710110
_symmetry_space_group_name_H-M "P 4/M B M"
_symmetry_group_IT_number 127
_symmetry_cell_setting 'tetragonal'
loop_
_space_group_symop_operation_xyz
x,y,z
-y,x,z
-x,-y,z
y,-x,z
1/2+x,1/2-y,-z
1/2-x,1/2+y,-z
1/2+y,1/2+x,-z
1/2-y,1/2-x,-z
-x,-y,-z
y,-x,-z
x,y,-z
-y,x,-z
1/2-x,1/2+y,z
1/2+x,1/2-y,z
1/2-y,1/2-x,z
1/2+y,1/2+x,z
loop_
_atom_site_type_symbol
_atom_site_label
_atom_site_fract_x
_atom_site_fract_y
_atom_site_fract_z
Si Si1 0.368685 0.587511 0.564664
Si Si2 0.950641 0.702987 0.859043
Si Si3 0.578273 0.366423 0.066618
Si Si4 0.419069 0.080932 0.067115
Si Si5 0.615757 0.731280 0.679707
Si Si6 0.254454 0.914840 0.731885
O O1 0.370094 0.473905 0.573112
O O2 0.330054 0.613306 0.500000
O O3 0.300617 0.634262 0.613124
O O4 0.893847 0.606154 0.850116
O O5 0.884664 0.779411 0.894036
O O6 0.967505 0.746146 0.794972
O O7 0.044589 0.674840 0.897259
O O8 0.628138 0.465383 0.081956
O O9 0.594658 0.339536 0.000000
O O10 0.500000 0.000000 0.063875
O O11 0.390890 0.109111 0.000000
O O12 0.668953 0.831048 0.691004
O O13 0.659566 0.650211 0.723045
O O14 0.503101 0.749554 0.687591
O O15 0.349119 0.849119 0.721584
#
# Coordination Sequence:
#
# PCOD8314250 Si02
#       6
#    16  16  16   8  16  16
#     4   9  17  33  59  89 120 156 201 254 302 348
#     4  10  21  37  56  80 111 142 183 233 278 339
#     4   9  19  36  54  74 104 138 174 221 280 338
#     4   9  18  34  58  82 106 144 187 230 288 346
#     4  11  22  38  62  87 120 161 200 245 296 363
#     4  10  24  40  56  87 120 153 200 248 300 360
#
# _framework density 19.657294
#
# number of rings (size 3 to 8) (size 9 to 14) (size 15 to 20)
#    0.000    2.273    1.818    1.636    3.818    2.182 
#    1.636    0.000    0.000    0.545    0.000    1.273 
#    0.000    0.000    0.000    0.000    0.000    0.000 
#
# Total GULP energy -1090548.998123 kJ/mol
# GULP energy per Si atom -12392.602251 kJ/mol
# Density = 1.961255 g / cm^3
# Si number density = 19.657294 Si / 1000 Ang^3
#
#
#
# Elastic Constant Matrix: (Units=GPa)
#
#
# Indices 1 2 3 4 5 6 
#
# 1 73.8587 12.7186 26.4599 0.0000 0.0000 0.0000
# 2 12.7186 73.8586 26.4598 0.0000 0.0000 0.0000
# 3 26.4599 26.4598 115.7575 0.0000 0.0000 0.0000
# 4 0.0000 0.0000 0.0000 27.5264 0.0000 0.0000
# 5 0.0000 0.0000 0.0000 0.0000 27.5264 0.0000
# 6 0.0000 0.0000 0.0000 0.0000 0.0000 17.2256
#
#
#
# Elastic Compliance Matrix: (Units=1/GPa)
#
#
# Indices 1 2 3 4 5 6 
#
# 1 0.014891 -0.001465 -0.003069 0.000000 0.000000 0.000000
# 2 -0.001465 0.014891 -0.003069 0.000000 0.000000 0.000000
# 3 -0.003069 -0.003069 0.010042 0.000000 0.000000 0.000000
# 4 0.000000 0.000000 0.000000 0.036329 0.000000 0.000000
# 5 0.000000 0.000000 0.000000 0.000000 0.036329 0.000000
# 6 0.000000 0.000000 0.000000 0.000000 0.000000 0.058053
#
#
# Mechanical properties :
#
#
# Convention : Reuss Voigt Hill
#
# Bulk Modulus (GPa) = 40.62004 43.86127 42.24065
# Shear Modulus (GPa) = 25.78035 27.64479 26.71257
#
# Velocity S-wave (km/s) = 3.62538 3.75418 3.69034
# Velocity P-wave (km/s) = 6.18332 6.41508 6.30027
#
# Compressibility (1/GPa) = 0.02461839
#
# Stress axis : x y z
#
# Youngs Moduli (GPa) = 67.15432 67.15426 99.58405
#
# Poissons Ratio (x) = 0.09837 0.30562
# Poissons Ratio (y) = 0.09837 0.30562
# Poissons Ratio (z) = 0.20610 0.20609
#
# Static dielectric constant tensor:
#      x y z
#    x 3.403760 0.000000 0.000000 
#    y 0.000000 3.403760 0.000000 
#    z 0.000000 0.000000 3.715840 
# 
# 
# High freq. dielectric constant tensor:
#      x y z
#    x 1.751130 0.000000 0.000000 
#    y 0.000000 1.751130 0.000000 
#    z 0.000000 0.000000 1.771420 
# 
# From -- ./inp_files/5689.got.cif
#   From: 2010.03.12/outbox.cif.g09.slc.cpg/sg127_3_cif.got.tgz:5689.got - 2010.04.06 17:03:15.
