data_PCOD8314176
_publ_section_title
;
Structure prediction by ZEFSAII (Michael W. Deem and Ramdas Pophale) SiO2 
 PCOD8314176
Probable space group: P 4/M B M
;
_chemical_formula_sum "Si O2"
_cell_formula_units_Z 72
_cell_length_a 22.105003
_cell_length_b 22.105003
_cell_length_c 7.656223
_cell_angle_alpha 90.000000
_cell_angle_beta 90.000000
_cell_angle_gamma 90.000000
_cell_volume 3741.069108
_symmetry_space_group_name_H-M "P 4/M B M"
_symmetry_group_IT_number 127
_symmetry_cell_setting 'tetragonal'
loop_
_space_group_symop_operation_xyz
x,y,z
-y,x,z
-x,-y,z
y,-x,z
1/2+x,1/2-y,-z
1/2-x,1/2+y,-z
1/2+y,1/2+x,-z
1/2-y,1/2-x,-z
-x,-y,-z
y,-x,-z
x,y,-z
-y,x,-z
1/2-x,1/2+y,z
1/2+x,1/2-y,z
1/2-y,1/2-x,z
1/2+y,1/2+x,z
loop_
_atom_site_type_symbol
_atom_site_label
_atom_site_fract_x
_atom_site_fract_y
_atom_site_fract_z
Si Si1 0.868512 0.108857 0.698194
Si Si2 0.899803 0.500527 0.500000
Si Si3 0.256381 0.851614 0.206089
Si Si4 0.807087 0.519781 0.799849
Si Si5 0.982798 0.179229 0.290849
O O1 0.886889 0.097532 0.500000
O O2 0.810009 0.152193 0.709904
O O3 0.926002 0.141663 0.786655
O O4 0.853050 0.043706 0.783667
O O5 0.943203 0.443203 0.500000
O O6 0.859663 0.495736 0.674702
O O7 0.937281 0.562720 0.500000
O O8 0.294747 0.794747 0.275697
O O9 0.290399 0.912678 0.263608
O O10 0.249220 0.850321 0.000000
O O11 0.747249 0.478348 0.782775
O O12 0.830413 0.518589 0.000000
O O13 0.983601 0.182612 0.500000
#
# Coordination Sequence:
#
# PCOD8314176 Si02
#       5
#    16   8  16  16  16
#     4   9  18  30  50  77 108 147 186 227 276 329
#     4  11  24  40  60  86 114 143 180 230 278 333
#     4   9  18  32  51  77 105 134 179 234 280 326
#     4  10  20  37  60  83 111 148 184 225 280 333
#     4   9  17  33  53  79 113 149 189 231 277 328
#
# _framework density 19.245833999999999
#
# number of rings (size 3 to 8) (size 9 to 14) (size 15 to 20)
#    0.000    2.556    1.111    0.667    1.556    3.556 
#    0.000    4.444    0.000    0.000    0.000    6.222 
#    0.000    0.000    0.000    0.000    0.000    0.000 
#
# Total GULP energy -892652.414633 kJ/mol
# GULP energy per Si atom -12397.950203 kJ/mol
# Density = 1.920203 g / cm^3
# Si number density = 19.245834 Si / 1000 Ang^3
#
#
#
# Elastic Constant Matrix: (Units=GPa)
#
#
# Indices 1 2 3 4 5 6 
#
# 1 126.2557 84.1635 27.7884 0.0000 0.0000 0.0000
# 2 84.1635 126.2523 27.7882 0.0000 0.0000 0.0000
# 3 27.7884 27.7882 60.7880 0.0000 0.0000 0.0000
# 4 0.0000 0.0000 0.0000 14.4041 0.0000 0.0000
# 5 0.0000 0.0000 0.0000 0.0000 14.4050 0.0000
# 6 0.0000 0.0000 0.0000 0.0000 0.0000 31.0659
#
#
#
# Elastic Compliance Matrix: (Units=1/GPa)
#
#
# Indices 1 2 3 4 5 6 
#
# 1 0.014581 -0.009177 -0.002471 0.000000 0.000000 0.000000
# 2 -0.009177 0.014582 -0.002471 0.000000 0.000000 0.000000
# 3 -0.002471 -0.002471 0.018710 0.000000 0.000000 0.000000
# 4 0.000000 0.000000 0.000000 0.069425 0.000000 0.000000
# 5 0.000000 0.000000 0.000000 0.000000 0.069421 0.000000
# 6 0.000000 0.000000 0.000000 0.000000 0.000000 0.032190
#
#
# Mechanical properties :
#
#
# Convention : Reuss Voigt Hill
#
# Bulk Modulus (GPa) = 50.92586 65.86403 58.39495
# Shear Modulus (GPa) = 19.70910 23.54539 21.62725
#
# Velocity S-wave (km/s) = 3.20358 3.50151 3.35585
# Velocity P-wave (km/s) = 6.34051 7.11648 6.73967
#
# Compressibility (1/GPa) = 0.01963639
#
# Stress axis : x y z
#
# Youngs Moduli (GPa) = 68.58007 68.57818 53.44838
#
# Poissons Ratio (x) = 0.62932 0.13206
# Poissons Ratio (y) = 0.62933 0.13207
# Poissons Ratio (z) = 0.16945 0.16945
#
# Static dielectric constant tensor:
#      x y z
#    x 3.578850 0.000000 0.000000 
#    y 0.000000 3.578850 0.000000 
#    z 0.000000 0.000000 3.352680 
# 
# 
# High freq. dielectric constant tensor:
#      x y z
#    x 1.738870 0.000000 0.000000 
#    y 0.000000 1.738870 0.000000 
#    z 0.000000 0.000000 1.743160 
# 
# From -- ./inp_files/1556.got.cif
#   From: 2010.03.12/outbox.cif.g09.slc.cpg/sg127_1_cif.got.tgz:1556.got - 2010.04.06 17:03:15.
