data_PCOD8314686
_publ_section_title
;
Structure prediction by ZEFSAII (Michael W. Deem and Ramdas Pophale) SiO2 
 PCOD8314686
Probable space group: P 4/M N C
;
_chemical_formula_sum "Si O2"
_cell_formula_units_Z 56
_cell_length_a 17.180049
_cell_length_b 17.180049
_cell_length_c 9.389430
_cell_angle_alpha 90.000000
_cell_angle_beta 90.000000
_cell_angle_gamma 90.000000
_cell_volume 2771.328608
_symmetry_space_group_name_H-M "P 4/M N C"
_symmetry_group_IT_number 128
_symmetry_cell_setting 'tetragonal'
loop_
_space_group_symop_operation_xyz
x,y,z
-y,x,z
-x,-y,z
y,-x,z
1/2+x,1/2-y,1/2-z
1/2-x,1/2+y,1/2-z
1/2+y,1/2+x,1/2-z
1/2-y,1/2-x,1/2-z
-x,-y,-z
y,-x,-z
x,y,-z
-y,x,-z
1/2-x,1/2+y,1/2+z
1/2+x,1/2-y,1/2+z
1/2-y,1/2-x,1/2+z
1/2+y,1/2+x,1/2+z
loop_
_atom_site_type_symbol
_atom_site_label
_atom_site_fract_x
_atom_site_fract_y
_atom_site_fract_z
Si Si1 0.061901 0.777783 0.828785
Si Si2 0.140764 0.359237 0.250000
Si Si3 0.391949 0.691224 0.659736
Si Si4 0.872085 0.471553 0.839053
O O1 0.130217 0.833171 0.766158
O O2 0.071203 0.696459 0.747836
O O3 0.979257 0.814522 0.778454
O O4 0.064025 0.763616 0.000000
O O5 0.220570 0.360037 0.338688
O O6 0.138501 0.435199 0.149769
O O7 0.395424 0.661313 0.500000
O O8 0.949891 0.449891 0.750000
O O9 0.876603 0.439239 0.000000
#
# Coordination Sequence:
#
# PCOD8314686 Si02
#       4
#    16   8  16  16
#     4   9  19  36  57  84 116 150 190 231 277 331
#     4  10  21  36  56  82 114 149 186 228 282 340
#     4   9  18  34  56  82 112 147 187 231 276 328
#     4  11  23  38  57  83 115 150 190 234 283 337
#
# _framework density 20.206914999999999
#
# number of rings (size 3 to 8) (size 9 to 14) (size 15 to 20)
#    0.000    2.286    0.000    2.143    2.000    5.143 
#    0.000    8.571    0.000    0.000    0.000    8.000 
#    0.000    0.000    0.000    0.000    0.000    0.000 
#
# Total GULP energy -693926.477428 kJ/mol
# GULP energy per Si atom -12391.544240 kJ/mol
# Density = 2.016092 g / cm^3
# Si number density = 20.206915 Si / 1000 Ang^3
#
#
#
# Elastic Constant Matrix: (Units=GPa)
#
#
# Indices 1 2 3 4 5 6 
#
# 1 114.8339 80.0376 28.4374 0.0000 0.0000 0.0000
# 2 80.0376 114.8342 28.4376 0.0000 0.0000 0.0000
# 3 28.4374 28.4376 91.1299 0.0000 0.0000 0.0000
# 4 0.0000 0.0000 0.0000 18.2867 0.0000 0.0000
# 5 0.0000 0.0000 0.0000 0.0000 18.2869 0.0000
# 6 0.0000 0.0000 0.0000 0.0000 0.0000 42.0557
#
#
#
# Elastic Compliance Matrix: (Units=1/GPa)
#
#
# Indices 1 2 3 4 5 6 
#
# 1 0.017192 -0.011546 -0.001762 0.000000 0.000000 0.000000
# 2 -0.011546 0.017192 -0.001762 0.000000 0.000000 0.000000
# 3 -0.001762 -0.001762 0.012073 0.000000 0.000000 0.000000
# 4 0.000000 0.000000 0.000000 0.054684 0.000000 0.000000
# 5 0.000000 0.000000 0.000000 0.000000 0.054684 0.000000
# 6 0.000000 0.000000 0.000000 0.000000 0.000000 0.023778
#
#
# Mechanical properties :
#
#
# Convention : Reuss Voigt Hill
#
# Bulk Modulus (GPa) = 61.28470 66.06925 63.67697
# Shear Modulus (GPa) = 23.23607 27.98489 25.61048
#
# Velocity S-wave (km/s) = 3.39471 3.72548 3.56393
# Velocity P-wave (km/s) = 6.76460 7.16052 6.96537
#
# Compressibility (1/GPa) = 0.01631729
#
# Stress axis : x y z
#
# Youngs Moduli (GPa) = 58.16601 58.16610 82.83019
#
# Poissons Ratio (x) = 0.67161 0.14593
# Poissons Ratio (y) = 0.67161 0.14593
# Poissons Ratio (z) = 0.10247 0.10248
#
# Static dielectric constant tensor:
#      x y z
#    x 3.832130 0.000000 0.000000 
#    y 0.000000 3.832130 0.000000 
#    z 0.000000 0.000000 3.252410 
# 
# 
# High freq. dielectric constant tensor:
#      x y z
#    x 1.795250 0.000000 0.000000 
#    y 0.000000 1.795250 0.000000 
#    z 0.000000 0.000000 1.751380 
# 
# From -- ./inp_files/781.got.cif
#   From: 2010.03.12/outbox.cif.g09.slc.cpg/sg128_1_cif.got.tgz:781.got - 2010.04.06 17:11:05.
