data_PCOD8314833
_publ_section_title
;
Structure prediction by ZEFSAII (Michael W. Deem and Ramdas Pophale) SiO2 
 PCOD8314833
Probable space group: P 4/M N C
;
_chemical_formula_sum "Si O2"
_cell_formula_units_Z 104
_cell_length_a 21.820891
_cell_length_b 21.820891
_cell_length_c 13.602735
_cell_angle_alpha 90.000000
_cell_angle_beta 90.000000
_cell_angle_gamma 90.000000
_cell_volume 6476.959737
_symmetry_space_group_name_H-M "P 4/M N C"
_symmetry_group_IT_number 128
_symmetry_cell_setting 'tetragonal'
loop_
_space_group_symop_operation_xyz
x,y,z
-y,x,z
-x,-y,z
y,-x,z
1/2+x,1/2-y,1/2-z
1/2-x,1/2+y,1/2-z
1/2+y,1/2+x,1/2-z
1/2-y,1/2-x,1/2-z
-x,-y,-z
y,-x,-z
x,y,-z
-y,x,-z
1/2-x,1/2+y,1/2+z
1/2+x,1/2-y,1/2+z
1/2-y,1/2-x,1/2+z
1/2+y,1/2+x,1/2+z
loop_
_atom_site_type_symbol
_atom_site_label
_atom_site_fract_x
_atom_site_fract_y
_atom_site_fract_z
Si Si1 0.179264 0.992322 0.193750
Si Si2 0.399700 0.504301 0.500000
Si Si3 0.800681 0.732784 0.393063
Si Si4 0.398961 0.500020 0.889416
Si Si5 0.388773 0.251579 0.711801
Si Si6 0.165605 0.697139 0.393397
Si Si7 0.214165 0.854249 0.211253
O O1 0.149320 0.000791 0.301300
O O2 0.201839 0.923374 0.179732
O O3 0.234803 0.040590 0.188349
O O4 0.137152 0.008284 0.101284
O O5 0.436519 0.441806 0.500000
O O6 0.830562 0.722789 0.500000
O O7 0.747806 0.782425 0.395066
O O8 0.853495 0.757810 0.321316
O O9 0.768165 0.670308 0.358818
O O10 0.439573 0.439624 0.877402
O O11 0.369174 0.500210 0.000000
O O12 0.365666 0.199250 0.637345
O O13 0.386322 0.220728 0.819575
O O14 0.347689 0.313518 0.704294
O O15 0.135055 0.687950 0.500000
#
# Coordination Sequence:
#
# PCOD8314833 Si02
#       7
#    16   8  16  16  16  16  16
#     4  12  22  31  46  70  98 123 160 207 237 281
#     4  11  24  36  44  60  96 148 182 197 224 262
#     4   8  15  30  50  65  84 115 152 195 242 295
#     4   9  18  32  46  58  80 122 167 202 234 262
#     4   9  18  30  45  68  91 120 158 193 237 281
#     4   8  15  30  50  65  84 115 152 195 242 295
#     4   9  18  30  45  68  91 120 158 193 237 281
#
# _framework density 16.056916000000001
#
# number of rings (size 3 to 8) (size 9 to 14) (size 15 to 20)
#    0.000    2.692    0.000    5.077    2.154    2.462 
#    0.000    3.077    0.000    0.000    0.000    0.000 
#    0.000    9.846    0.000   11.077    0.000    0.000 
#
# Total GULP energy -1288695.018825 kJ/mol
# GULP energy per Si atom -12391.298258 kJ/mol
# Density = 1.602037 g / cm^3
# Si number density = 16.056916 Si / 1000 Ang^3
#
#
#
# Elastic Constant Matrix: (Units=GPa)
#
#
# Indices 1 2 3 4 5 6 
#
# 1 26.5837 -7.8834 1.7565 0.0000 0.0000 0.0000
# 2 -7.8834 26.5837 1.7565 0.0000 0.0000 0.0000
# 3 1.7565 1.7565 98.7153 0.0000 0.0000 0.0000
# 4 0.0000 0.0000 0.0000 14.1055 0.0000 0.0000
# 5 0.0000 0.0000 0.0000 0.0000 14.1055 0.0000
# 6 0.0000 0.0000 0.0000 0.0000 0.0000 47.7935
#
#
#
# Elastic Compliance Matrix: (Units=1/GPa)
#
#
# Indices 1 2 3 4 5 6 
#
# 1 0.041334 0.012321 -0.000955 0.000000 0.000000 0.000000
# 2 0.012321 0.041334 -0.000955 0.000000 0.000000 0.000000
# 3 -0.000955 -0.000955 0.010164 0.000000 0.000000 0.000000
# 4 0.000000 0.000000 0.000000 0.070895 0.000000 0.000000
# 5 0.000000 0.000000 0.000000 0.000000 0.070895 0.000000
# 6 0.000000 0.000000 0.000000 0.000000 0.000000 0.020923
#
#
# Mechanical properties :
#
#
# Convention : Reuss Voigt Hill
#
# Bulk Modulus (GPa) = 8.79861 15.90463 12.35162
# Shear Modulus (GPa) = 18.34147 25.61777 21.97962
#
# Velocity S-wave (km/s) = 3.38343 3.99862 3.70382
# Velocity P-wave (km/s) = 4.55576 5.58975 5.09903
#
# Compressibility (1/GPa) = 0.11365437
#
# Stress axis : x y z
#
# Youngs Moduli (GPa) = 24.19327 24.19327 98.38535
#
# Poissons Ratio (x) = -0.29808 0.09393
# Poissons Ratio (y) = -0.29808 0.09393
# Poissons Ratio (z) = 0.02310 0.02310
#
# Static dielectric constant tensor:
#      x y z
#    x 2.780770 0.000000 0.000000 
#    y 0.000000 2.780770 0.000000 
#    z 0.000000 0.000000 3.913010 
# 
# 
# High freq. dielectric constant tensor:
#      x y z
#    x 1.581540 0.000000 0.000000 
#    y 0.000000 1.581540 0.000000 
#    z 0.000000 0.000000 1.640950 
# 
# From -- ./inp_files/4046.got.cif
#   From: 2010.03.12/outbox.cif.g09.slc.cpg/sg128_3_cif.got.tgz:4046.got - 2010.04.06 17:11:05.
