data_PCOD8314542
_publ_section_title
;
Structure prediction by ZEFSAII (Michael W. Deem and Ramdas Pophale) SiO2 
 PCOD8314542
Probable space group: P 4/M N C
;
_chemical_formula_sum "Si O2"
_cell_formula_units_Z 128
_cell_length_a 20.162835
_cell_length_b 20.162835
_cell_length_c 18.049493
_cell_angle_alpha 90.000000
_cell_angle_beta 90.000000
_cell_angle_gamma 90.000000
_cell_volume 7337.839354
_symmetry_space_group_name_H-M "P 4/M N C"
_symmetry_group_IT_number 128
_symmetry_cell_setting 'tetragonal'
loop_
_space_group_symop_operation_xyz
x,y,z
-y,x,z
-x,-y,z
y,-x,z
1/2+x,1/2-y,1/2-z
1/2-x,1/2+y,1/2-z
1/2+y,1/2+x,1/2-z
1/2-y,1/2-x,1/2-z
-x,-y,-z
y,-x,-z
x,y,-z
-y,x,-z
1/2-x,1/2+y,1/2+z
1/2+x,1/2-y,1/2+z
1/2-y,1/2-x,1/2+z
1/2+y,1/2+x,1/2+z
loop_
_atom_site_type_symbol
_atom_site_label
_atom_site_fract_x
_atom_site_fract_y
_atom_site_fract_z
Si Si1 0.573503 0.425917 0.161958
Si Si2 0.320042 0.179957 0.088269
Si Si3 0.682245 0.324188 0.837205
Si Si4 0.326897 0.826896 0.334881
Si Si5 0.426254 0.073750 0.087889
Si Si6 0.925493 0.574510 0.087648
Si Si7 0.824191 0.182248 0.162804
Si Si8 0.425918 0.426496 0.338033
O O1 0.592716 0.499646 0.133761
O O2 0.625952 0.373077 0.130947
O O3 0.574183 0.424053 0.249995
O O4 0.341746 0.251012 0.119445
O O5 0.373376 0.126630 0.118332
O O6 0.248992 0.158249 0.119458
O O7 0.317248 0.182739 0.000000
O O8 0.658050 0.249695 0.853775
O O9 0.695976 0.333497 0.750005
O O10 0.342571 0.842571 0.250000
O O11 0.373041 0.873034 0.383336
O O12 0.341946 0.750301 0.353771
O O13 0.500293 0.092745 0.115750
O O14 0.407256 0.999711 0.115749
O O15 0.425809 0.074196 0.000000
O O16 0.922983 0.577019 0.000000
O O17 0.873079 0.125955 0.130956
O O18 0.499648 0.407284 0.366230
#
# Coordination Sequence:
#
# PCOD8314542 Si02
#       8
#    16  16  16  16  16  16  16  16
#     4   8  14  26  46  71  95 120 153 189 223 265
#     4  10  19  32  49  68  91 119 154 193 227 267
#     4   9  18  32  48  68  96 125 151 185 229 271
#     4   9  18  30  43  67  99 121 146 190 231 263
#     4   8  17  33  50  68  90 117 153 195 230 266
#     4   9  17  33  53  67  86 121 157 186 227 280
#     4   9  18  32  48  68  96 125 151 185 229 271
#     4   8  14  26  46  71  95 120 153 189 223 265
#
# _framework density 17.443826999999999
#
# number of rings (size 3 to 8) (size 9 to 14) (size 15 to 20)
#    0.000    3.250    0.000    2.625    0.000    4.000 
#    0.000    6.250    0.000    1.500    0.000    1.750 
#    0.000    0.000    0.000    0.000    0.000    0.000 
#
# Total GULP energy -1586601.102761 kJ/mol
# GULP energy per Si atom -12395.321115 kJ/mol
# Density = 1.740412 g / cm^3
# Si number density = 17.443827 Si / 1000 Ang^3
#
#
#
# Elastic Constant Matrix: (Units=GPa)
#
#
# Indices 1 2 3 4 5 6 
#
# 1 142.7466 116.2860 32.2054 0.0000 0.0000 0.0000
# 2 116.2860 142.7466 32.2054 0.0000 0.0000 0.0000
# 3 32.2054 32.2054 31.2378 0.0000 0.0000 0.0000
# 4 0.0000 0.0000 0.0000 20.1810 0.0000 0.0000
# 5 0.0000 0.0000 0.0000 0.0000 20.1810 0.0000
# 6 0.0000 0.0000 0.0000 0.0000 0.0000 44.0969
#
#
#
# Elastic Compliance Matrix: (Units=1/GPa)
#
#
# Indices 1 2 3 4 5 6 
#
# 1 0.021492 -0.016300 -0.005352 0.000000 0.000000 0.000000
# 2 -0.016300 0.021492 -0.005352 0.000000 0.000000 0.000000
# 3 -0.005352 -0.005352 0.043048 0.000000 0.000000 0.000000
# 4 0.000000 0.000000 0.000000 0.049552 0.000000 0.000000
# 5 0.000000 0.000000 0.000000 0.000000 0.049552 0.000000
# 6 0.000000 0.000000 0.000000 0.000000 0.000000 0.022677
#
#
# Mechanical properties :
#
#
# Convention : Reuss Voigt Hill
#
# Bulk Modulus (GPa) = 31.22805 75.34717 53.28761
# Shear Modulus (GPa) = 18.34889 25.96072 22.15481
#
# Velocity S-wave (km/s) = 3.24680 3.86197 3.56766
# Velocity P-wave (km/s) = 5.65654 7.94823 6.89822
#
# Compressibility (1/GPa) = 0.03202249
#
# Stress axis : x y z
#
# Youngs Moduli (GPa) = 46.52954 46.52954 23.22962
#
# Poissons Ratio (x) = 0.75845 0.12433
# Poissons Ratio (y) = 0.75845 0.12433
# Poissons Ratio (z) = 0.24904 0.24904
#
# Static dielectric constant tensor:
#      x y z
#    x 3.492770 0.000000 0.000000 
#    y 0.000000 3.492770 0.000000 
#    z 0.000000 0.000000 2.819560 
# 
# 
# High freq. dielectric constant tensor:
#      x y z
#    x 1.680040 0.000000 0.000000 
#    y 0.000000 1.680040 0.000000 
#    z 0.000000 0.000000 1.633100 
# 
# From -- ./inp_files/5116.got.cif
#   From: 2010.03.12/outbox.cif.g09.slc.cpg/sg128_3_cif.got.tgz:5116.got - 2010.04.06 17:11:05.
