data_PCOD8314631
_publ_section_title
;
Structure prediction by ZEFSAII (Michael W. Deem and Ramdas Pophale) SiO2 
 PCOD8314631
Probable space group: P 4/M N C
;
_chemical_formula_sum "Si O2"
_cell_formula_units_Z 96
_cell_length_a 23.842590
_cell_length_b 23.842590
_cell_length_c 8.926820
_cell_angle_alpha 90.000000
_cell_angle_beta 90.000000
_cell_angle_gamma 90.000000
_cell_volume 5074.621313
_symmetry_space_group_name_H-M "P 4/M N C"
_symmetry_group_IT_number 128
_symmetry_cell_setting 'tetragonal'
loop_
_space_group_symop_operation_xyz
x,y,z
-y,x,z
-x,-y,z
y,-x,z
1/2+x,1/2-y,1/2-z
1/2-x,1/2+y,1/2-z
1/2+y,1/2+x,1/2-z
1/2-y,1/2-x,1/2-z
-x,-y,-z
y,-x,-z
x,y,-z
-y,x,-z
1/2-x,1/2+y,1/2+z
1/2+x,1/2-y,1/2+z
1/2-y,1/2-x,1/2+z
1/2+y,1/2+x,1/2+z
loop_
_atom_site_type_symbol
_atom_site_label
_atom_site_fract_x
_atom_site_fract_y
_atom_site_fract_z
Si Si1 0.999652 0.417671 0.323328
Si Si2 0.082884 0.030927 0.322022
Si Si3 0.519652 0.210003 0.826642
Si Si4 0.307486 0.273722 0.675989
Si Si5 0.298658 0.575281 0.176357
Si Si6 0.135430 0.283782 0.175141
O O1 0.943971 0.443971 0.250000
O O2 0.999768 0.429528 0.500000
O O3 0.054639 0.445362 0.250000
O O4 0.999501 0.352214 0.285364
O O5 0.084528 0.030311 0.500000
O O6 0.071422 0.967348 0.265171
O O7 0.141952 0.053007 0.259613
O O8 0.470032 0.251752 0.783727
O O9 0.573207 0.228119 0.731505
O O10 0.536143 0.214859 0.000000
O O11 0.282047 0.217954 0.750000
O O12 0.309776 0.264174 0.500000
O O13 0.368895 0.283179 0.737775
O O14 0.269756 0.327237 0.719986
O O15 0.301514 0.587623 0.000000
O O16 0.160049 0.339952 0.250000
O O17 0.134886 0.294581 0.000000
#
# Coordination Sequence:
#
# PCOD8314631 Si02
#       6
#    16  16  16  16  16  16
#     4  10  20  35  54  77 106 140 180 224 270 326
#     4   8  15  29  51  81 112 144 186 231 275 326
#     4  10  22  36  53  84 118 146 184 228 275 335
#     4  10  22  40  59  81 110 147 190 234 283 339
#     4  10  21  35  56  85 115 151 189 232 282 331
#     4  10  21  37  59  84 110 146 188 235 286 335
#
# _framework density 18.917667999999999
#
# number of rings (size 3 to 8) (size 9 to 14) (size 15 to 20)
#    0.000    2.333    0.000    3.000    2.333    6.000 
#    0.000    1.667    0.000    0.000    0.000    1.167 
#    0.000    0.000    0.000    0.000    0.000    0.000 
#
# Total GULP energy -1190638.559234 kJ/mol
# GULP energy per Si atom -12402.484992 kJ/mol
# Density = 1.887461 g / cm^3
# Si number density = 18.917668 Si / 1000 Ang^3
#
#
#
# Elastic Constant Matrix: (Units=GPa)
#
#
# Indices 1 2 3 4 5 6 
#
# 1 144.4440 94.8149 51.0994 0.0000 0.0000 0.0000
# 2 94.8149 144.4444 51.1018 0.0000 0.0000 0.0000
# 3 51.0994 51.1018 67.9224 0.0000 0.0000 0.0000
# 4 0.0000 0.0000 0.0000 26.1152 0.0000 0.0000
# 5 0.0000 0.0000 0.0000 0.0000 26.1154 0.0000
# 6 0.0000 0.0000 0.0000 0.0000 0.0000 24.0722
#
#
#
# Elastic Compliance Matrix: (Units=1/GPa)
#
#
# Indices 1 2 3 4 5 6 
#
# 1 0.013154 -0.006995 -0.004633 0.000000 0.000000 0.000000
# 2 -0.006995 0.013154 -0.004634 0.000000 0.000000 0.000000
# 3 -0.004633 -0.004634 0.021695 0.000000 0.000000 0.000000
# 4 0.000000 0.000000 0.000000 0.038292 0.000000 0.000000
# 5 0.000000 0.000000 0.000000 0.000000 0.038292 0.000000
# 6 0.000000 0.000000 0.000000 0.000000 0.000000 0.041542
#
#
# Mechanical properties :
#
#
# Convention : Reuss Voigt Hill
#
# Bulk Modulus (GPa) = 64.60697 83.42697 74.01697
# Shear Modulus (GPa) = 24.53241 25.91353 25.22297
#
# Velocity S-wave (km/s) = 3.60502 3.70510 3.65540
# Velocity P-wave (km/s) = 7.18011 7.90566 7.55161
#
# Compressibility (1/GPa) = 0.01547821
#
# Stress axis : x y z
#
# Youngs Moduli (GPa) = 76.02309 76.02081 46.09440
#
# Poissons Ratio (x) = 0.53179 0.21356
# Poissons Ratio (y) = 0.53180 0.21360
# Poissons Ratio (z) = 0.35222 0.35228
#
# Static dielectric constant tensor:
#      x y z
#    x 3.589440 0.000000 0.000000 
#    y 0.000000 3.589430 0.000000 
#    z 0.000000 0.000000 3.305170 
# 
# 
# High freq. dielectric constant tensor:
#      x y z
#    x 1.741800 0.000000 0.000000 
#    y 0.000000 1.741800 0.000000 
#    z 0.000000 0.000000 1.719910 
# 
# From -- ./inp_files/1458.got.cif
#   From: 2010.03.12/outbox.cif.g09.slc.cpg/sg128_1_cif.got.tgz:1458.got - 2010.04.06 17:11:05.
