data_PCOD8314853
_publ_section_title
;
Structure prediction by ZEFSAII (Michael W. Deem and Ramdas Pophale) SiO2 
 PCOD8314853
Probable space group: P 4/M N C
;
_chemical_formula_sum "Si O2"
_cell_formula_units_Z 80
_cell_length_a 16.370700
_cell_length_b 16.370700
_cell_length_c 18.370563
_cell_angle_alpha 90.000000
_cell_angle_beta 90.000000
_cell_angle_gamma 90.000000
_cell_volume 4923.307550
_symmetry_space_group_name_H-M "P 4/M N C"
_symmetry_group_IT_number 128
_symmetry_cell_setting 'tetragonal'
loop_
_space_group_symop_operation_xyz
x,y,z
-y,x,z
-x,-y,z
y,-x,z
1/2+x,1/2-y,1/2-z
1/2-x,1/2+y,1/2-z
1/2+y,1/2+x,1/2-z
1/2-y,1/2-x,1/2-z
-x,-y,-z
y,-x,-z
x,y,-z
-y,x,-z
1/2-x,1/2+y,1/2+z
1/2+x,1/2-y,1/2+z
1/2-y,1/2-x,1/2+z
1/2+y,1/2+x,1/2+z
loop_
_atom_site_type_symbol
_atom_site_label
_atom_site_fract_x
_atom_site_fract_y
_atom_site_fract_z
Si Si1 0.444118 0.379613 0.416026
Si Si2 0.280345 0.092691 0.667992
Si Si3 0.780345 0.407309 0.667992
Si Si4 0.933136 0.433136 0.585852
Si Si5 0.379613 0.555882 0.083974
O O1 0.539091 0.393343 0.397885
O O2 0.433197 0.355676 0.500000
O O3 0.408180 0.308601 0.366607
O O4 0.313448 0.186552 0.668499
O O5 0.276226 0.057609 0.750000
O O6 0.345795 0.039334 0.620859
O O7 0.191399 0.091820 0.633393
O O8 0.845795 0.460666 0.620859
O O9 0.923041 0.423041 0.500000
O O10 0.000000 0.500000 0.606721
O O11 0.393343 0.460909 0.102115
O O12 0.355676 0.566803 0.000000
#
# Coordination Sequence:
#
# PCOD8314853 Si02
#       5
#    16  16  16  16  16
#     4   9  18  33  53  76 101 133 174 214 251 296
#     4   9  19  32  49  74 103 133 164 206 256 303
#     4   9  19  32  49  74 103 133 164 206 256 303
#     4   9  17  31  53  75  97 131 170 207 252 301
#     4   9  18  33  53  76 101 133 174 214 251 296
#
# _framework density 16.24924
#
# number of rings (size 3 to 8) (size 9 to 14) (size 15 to 20)
#    1.200    1.800    0.000    2.400    0.000    3.200 
#    0.000    4.000    0.000    2.400    0.000    0.000 
#    0.000    0.000    0.000    0.000    0.000    0.000 
#
# Total GULP energy -991243.564818 kJ/mol
# GULP energy per Si atom -12390.544560 kJ/mol
# Density = 1.621226 g / cm^3
# Si number density = 16.249240 Si / 1000 Ang^3
#
#
#
# Elastic Constant Matrix: (Units=GPa)
#
#
# Indices 1 2 3 4 5 6 
#
# 1 83.7190 36.9291 54.8131 0.0000 0.0000 0.0000
# 2 36.9291 83.7190 54.8131 0.0000 0.0000 0.0000
# 3 54.8131 54.8131 113.0143 0.0000 0.0000 0.0000
# 4 0.0000 0.0000 0.0000 21.7980 0.0000 0.0000
# 5 0.0000 0.0000 0.0000 0.0000 21.7980 0.0000
# 6 0.0000 0.0000 0.0000 0.0000 0.0000 17.1886
#
#
#
# Elastic Compliance Matrix: (Units=1/GPa)
#
#
# Indices 1 2 3 4 5 6 
#
# 1 0.018096 -0.003276 -0.007188 0.000000 0.000000 0.000000
# 2 -0.003276 0.018096 -0.007188 0.000000 0.000000 0.000000
# 3 -0.007188 -0.007188 0.015821 0.000000 0.000000 0.000000
# 4 0.000000 0.000000 0.000000 0.045876 0.000000 0.000000
# 5 0.000000 0.000000 0.000000 0.000000 0.045876 0.000000
# 6 0.000000 0.000000 0.000000 0.000000 0.000000 0.058178
#
#
# Mechanical properties :
#
#
# Convention : Reuss Voigt Hill
#
# Bulk Modulus (GPa) = 59.84736 63.72921 61.78828
# Shear Modulus (GPa) = 20.59181 21.08337 20.83759
#
# Velocity S-wave (km/s) = 3.56370 3.60599 3.58491
# Velocity P-wave (km/s) = 7.33786 7.52612 7.43258
#
# Compressibility (1/GPa) = 0.01670918
#
# Stress axis : x y z
#
# Youngs Moduli (GPa) = 55.26127 55.26127 63.20861
#
# Poissons Ratio (x) = 0.18105 0.45432
# Poissons Ratio (y) = 0.18105 0.45432
# Poissons Ratio (z) = 0.39720 0.39720
#
# Static dielectric constant tensor:
#      x y z
#    x 2.845580 0.000000 0.000000 
#    y 0.000000 2.845580 0.000000 
#    z 0.000000 0.000000 3.097330 
# 
# 
# High freq. dielectric constant tensor:
#      x y z
#    x 1.606670 0.000000 0.000000 
#    y 0.000000 1.606670 0.000000 
#    z 0.000000 0.000000 1.638910 
# 
# From -- ./inp_files/3718.got.cif
#   From: 2010.03.12/outbox.cif.g09.slc.cpg/sg128_2_cif.got.tgz:3718.got - 2010.04.06 17:11:05.
