data_PCOD8314213
_publ_section_title
;
Structure prediction by ZEFSAII (Michael W. Deem and Ramdas Pophale) SiO2 
 PCOD8314213
Probable space group: P 4/M B M
;
_chemical_formula_sum "Si O2"
_cell_formula_units_Z 104
_cell_length_a 18.794176
_cell_length_b 18.794176
_cell_length_c 16.592471
_cell_angle_alpha 90.000000
_cell_angle_beta 90.000000
_cell_angle_gamma 90.000000
_cell_volume 5860.810054
_symmetry_space_group_name_H-M "P 4/M B M"
_symmetry_group_IT_number 127
_symmetry_cell_setting 'tetragonal'
loop_
_space_group_symop_operation_xyz
x,y,z
-y,x,z
-x,-y,z
y,-x,z
1/2+x,1/2-y,-z
1/2-x,1/2+y,-z
1/2+y,1/2+x,-z
1/2-y,1/2-x,-z
-x,-y,-z
y,-x,-z
x,y,-z
-y,x,-z
1/2-x,1/2+y,z
1/2+x,1/2-y,z
1/2-y,1/2-x,z
1/2+y,1/2+x,z
loop_
_atom_site_type_symbol
_atom_site_label
_atom_site_fract_x
_atom_site_fract_y
_atom_site_fract_z
Si Si1 0.499797 0.880116 0.500000
Si Si2 0.108835 0.990257 0.406812
Si Si3 0.740965 0.358350 0.252958
Si Si4 0.305814 0.584681 0.090192
Si Si5 0.196957 0.922091 0.088862
Si Si6 0.766112 0.497432 0.356418
Si Si7 0.128819 0.255178 0.245893
O O1 0.427115 0.927115 0.500000
O O2 0.503050 0.830189 0.420908
O O3 0.568072 0.931929 0.500000
O O4 0.093769 0.991463 0.500000
O O5 0.192095 0.981148 0.395984
O O6 0.064171 0.923244 0.369585
O O7 0.802725 0.302725 0.266940
O O8 0.744951 0.383332 0.159496
O O9 0.756871 0.421466 0.314597
O O10 0.664431 0.320678 0.271863
O O11 0.319642 0.502993 0.111330
O O12 0.382431 0.621669 0.093273
O O13 0.271884 0.594459 0.000000
O O14 0.253014 0.888719 0.150945
O O15 0.231234 0.914889 0.000000
O O16 0.779218 0.557935 0.290963
O O17 0.184041 0.315960 0.264229
#
# Coordination Sequence:
#
# PCOD8314213 Si02
#       7
#     8  16  16  16  16  16  16
#     4  11  26  44  60  79 100 130 182 235 278 330
#     4   9  18  33  54  80 107 135 167 201 243 306
#     4  10  21  35  53  81 111 138 175 220 264 315
#     4   9  17  31  51  76 108 144 179 215 259 313
#     4   9  17  31  51  76 108 144 179 215 259 313
#     4  12  20  38  59  78 104 142 172 216 273 318
#     4  10  21  35  53  81 111 138 175 220 264 315
#
# _framework density 17.744986999999998
#
# number of rings (size 3 to 8) (size 9 to 14) (size 15 to 20)
#    0.000    2.077    2.308    2.308    0.000    0.923 
#    0.000    4.615    0.000    3.692    0.000    0.000 
#    0.000    2.462    0.000    0.000    0.000    0.000 
#
# Total GULP energy -1288573.851723 kJ/mol
# GULP energy per Si atom -12390.133190 kJ/mol
# Density = 1.770460 g / cm^3
# Si number density = 17.744987 Si / 1000 Ang^3
#
#
#
# Elastic Constant Matrix: (Units=GPa)
#
#
# Indices 1 2 3 4 5 6 
#
# 1 80.3315 3.5490 24.8607 0.0000 0.0000 0.0000
# 2 3.5490 80.3318 24.8607 0.0000 0.0000 0.0000
# 3 24.8607 24.8607 74.0239 0.0000 0.0000 0.0000
# 4 0.0000 0.0000 0.0000 19.1068 0.0000 0.0000
# 5 0.0000 0.0000 0.0000 0.0000 19.1075 0.0000
# 6 0.0000 0.0000 0.0000 0.0000 0.0000 20.7712
#
#
#
# Elastic Compliance Matrix: (Units=1/GPa)
#
#
# Indices 1 2 3 4 5 6 
#
# 1 0.013954 0.000931 -0.004999 0.000000 0.000000 0.000000
# 2 0.000931 0.013954 -0.004999 0.000000 0.000000 0.000000
# 3 -0.004999 -0.004999 0.016867 0.000000 0.000000 0.000000
# 4 0.000000 0.000000 0.000000 0.052337 0.000000 0.000000
# 5 0.000000 0.000000 0.000000 0.000000 0.052336 0.000000
# 6 0.000000 0.000000 0.000000 0.000000 0.000000 0.048143
#
#
# Mechanical properties :
#
#
# Convention : Reuss Voigt Hill
#
# Bulk Modulus (GPa) = 37.53661 37.91421 37.72541
# Shear Modulus (GPa) = 22.26107 23.89156 23.07631
#
# Velocity S-wave (km/s) = 3.54573 3.67329 3.61008
# Velocity P-wave (km/s) = 6.16135 6.27720 6.21955
#
# Compressibility (1/GPa) = 0.02664066
#
# Stress axis : x y z
#
# Youngs Moduli (GPa) = 71.66196 71.66229 59.28741
#
# Poissons Ratio (x) = -0.06669 0.29638
# Poissons Ratio (y) = -0.06669 0.29638
# Poissons Ratio (z) = 0.35824 0.35824
#
# Static dielectric constant tensor:
#      x y z
#    x 3.282560 0.000000 0.000000 
#    y 0.000000 3.282560 0.000000 
#    z 0.000000 0.000000 3.403130 
# 
# 
# High freq. dielectric constant tensor:
#      x y z
#    x 1.682100 0.000000 0.000000 
#    y 0.000000 1.682100 0.000000 
#    z 0.000000 0.000000 1.689520 
# 
# From -- ./inp_files/5216.got.cif
#   From: 2010.03.12/outbox.cif.g09.slc.cpg/sg127_3_cif.got.tgz:5216.got - 2010.04.06 17:03:15.
