data_PCOD8314327
_publ_section_title
;
Structure prediction by ZEFSAII (Michael W. Deem and Ramdas Pophale) SiO2 
 PCOD8314327
Probable space group: P 4/M B M
;
_chemical_formula_sum "Si O2"
_cell_formula_units_Z 88
_cell_length_a 12.064627
_cell_length_b 12.064627
_cell_length_c 28.159566
_cell_angle_alpha 90.000000
_cell_angle_beta 90.000000
_cell_angle_gamma 90.000000
_cell_volume 4098.771955
_symmetry_space_group_name_H-M "P 4/M B M"
_symmetry_group_IT_number 127
_symmetry_cell_setting 'tetragonal'
loop_
_space_group_symop_operation_xyz
x,y,z
-y,x,z
-x,-y,z
y,-x,z
1/2+x,1/2-y,-z
1/2-x,1/2+y,-z
1/2+y,1/2+x,-z
1/2-y,1/2-x,-z
-x,-y,-z
y,-x,-z
x,y,-z
-y,x,-z
1/2-x,1/2+y,z
1/2+x,1/2-y,z
1/2-y,1/2-x,z
1/2+y,1/2+x,z
loop_
_atom_site_type_symbol
_atom_site_label
_atom_site_fract_x
_atom_site_fract_y
_atom_site_fract_z
Si Si1 0.179583 0.988454 0.718864
Si Si2 0.256816 0.425059 0.616004
Si Si3 0.501670 0.820900 0.807488
Si Si4 0.474803 0.680003 0.104136
Si Si5 0.605242 0.716096 0.552244
Si Si6 0.590058 0.090058 0.943915
O O1 0.217595 0.988270 0.664593
O O2 0.102691 0.883306 0.729327
O O3 0.285675 0.984794 0.752982
O O4 0.172078 0.327923 0.627579
O O5 0.207173 0.512682 0.577954
O O6 0.368732 0.383442 0.589203
O O7 0.622945 0.877056 0.814198
O O8 0.484468 0.713351 0.840509
O O9 0.409119 0.909119 0.822096
O O10 0.376587 0.593296 0.092446
O O11 0.450351 0.789967 0.073964
O O12 0.564389 0.675427 0.500000
O O13 0.716940 0.783061 0.544793
O O14 0.500000 0.000000 0.926527
O O15 0.596368 0.096368 0.000000
#
# Coordination Sequence:
#
# PCOD8314327 Si02
#       6
#    16  16  16  16  16   8
#     4  11  23  40  62  89 123 164 211 263 325 393
#     4  11  22  39  61  85 117 155 197 250 313 380
#     4  11  24  41  66  99 137 180 229 278 339 412
#     4  11  25  45  73 108 148 195 248 305 364 430
#     4  10  22  39  60  86 115 152 197 247 307 379
#     4  11  26  46  74 109 151 201 253 312 373 427
#
# _framework density 21.469846
#
# number of rings (size 3 to 8) (size 9 to 14) (size 15 to 20)
#    0.000    1.182    2.727    2.727    2.545    7.636 
#    0.000    2.727    0.000    0.000    0.000    0.000 
#    0.000    0.000    0.000    0.000    0.000    0.000 
#
# Total GULP energy -1090905.462749 kJ/mol
# GULP energy per Si atom -12396.652986 kJ/mol
# Density = 2.142098 g / cm^3
# Si number density = 21.469846 Si / 1000 Ang^3
#
#
#
# Elastic Constant Matrix: (Units=GPa)
#
#
# Indices 1 2 3 4 5 6 
#
# 1 117.6094 50.5561 46.3243 0.0000 0.0000 0.0000
# 2 50.5561 117.6094 46.3243 0.0000 0.0000 0.0000
# 3 46.3243 46.3243 114.2942 0.0000 0.0000 0.0000
# 4 0.0000 0.0000 0.0000 30.5239 0.0000 0.0000
# 5 0.0000 0.0000 0.0000 0.0000 30.5239 0.0000
# 6 0.0000 0.0000 0.0000 0.0000 0.0000 23.2022
#
#
#
# Elastic Compliance Matrix: (Units=1/GPa)
#
#
# Indices 1 2 3 4 5 6 
#
# 1 0.011285 -0.003629 -0.003103 0.000000 0.000000 0.000000
# 2 -0.003629 0.011285 -0.003103 0.000000 0.000000 0.000000
# 3 -0.003103 -0.003103 0.011265 0.000000 0.000000 0.000000
# 4 0.000000 0.000000 0.000000 0.032761 0.000000 0.000000
# 5 0.000000 0.000000 0.000000 0.000000 0.032761 0.000000
# 6 0.000000 0.000000 0.000000 0.000000 0.000000 0.043099
#
#
# Mechanical properties :
#
#
# Convention : Reuss Voigt Hill
#
# Bulk Modulus (GPa) = 70.59820 70.65806 70.62813
# Shear Modulus (GPa) = 29.96749 30.60389 30.28569
#
# Velocity S-wave (km/s) = 3.74009 3.77959 3.75989
# Velocity P-wave (km/s) = 7.18365 7.21311 7.19839
#
# Compressibility (1/GPa) = 0.01416467
#
# Stress axis : x y z
#
# Youngs Moduli (GPa) = 88.61465 88.61465 88.77244
#
# Poissons Ratio (x) = 0.32156 0.27547
# Poissons Ratio (y) = 0.32156 0.27547
# Poissons Ratio (z) = 0.27498 0.27498
#
# Static dielectric constant tensor:
#      x y z
#    x 3.827760 0.000000 0.000000 
#    y 0.000000 3.827760 0.000000 
#    z 0.000000 0.000000 3.940070 
# 
# 
# High freq. dielectric constant tensor:
#      x y z
#    x 1.840640 0.000000 0.000000 
#    y 0.000000 1.840640 0.000000 
#    z 0.000000 0.000000 1.853210 
# 
# From -- ./inp_files/6504.got.cif
#   From: 2010.03.12/outbox.cif.g09.slc.cpg/sg127_4_cif.got.tgz:6504.got - 2010.04.06 17:03:15.
