data_PCOD8314519
_publ_section_title
;
Structure prediction by ZEFSAII (Michael W. Deem and Ramdas Pophale) SiO2 
 PCOD8314519
Probable space group: P 4/M N C
;
_chemical_formula_sum "Si O2"
_cell_formula_units_Z 112
_cell_length_a 15.631134
_cell_length_b 15.631134
_cell_length_c 28.244045
_cell_angle_alpha 90.000000
_cell_angle_beta 90.000000
_cell_angle_gamma 90.000000
_cell_volume 6900.933892
_symmetry_space_group_name_H-M "P 4/M N C"
_symmetry_group_IT_number 128
_symmetry_cell_setting 'tetragonal'
loop_
_space_group_symop_operation_xyz
x,y,z
-y,x,z
-x,-y,z
y,-x,z
1/2+x,1/2-y,1/2-z
1/2-x,1/2+y,1/2-z
1/2+y,1/2+x,1/2-z
1/2-y,1/2-x,1/2-z
-x,-y,-z
y,-x,-z
x,y,-z
-y,x,-z
1/2-x,1/2+y,1/2+z
1/2+x,1/2-y,1/2+z
1/2-y,1/2-x,1/2+z
1/2+y,1/2+x,1/2+z
loop_
_atom_site_type_symbol
_atom_site_label
_atom_site_fract_x
_atom_site_fract_y
_atom_site_fract_z
Si Si1 0.521135 0.736993 0.445451
Si Si2 0.348015 0.776704 0.055496
Si Si3 0.427162 0.620181 0.209608
Si Si4 0.876972 0.071646 0.606962
Si Si5 0.076368 0.120519 0.811770
Si Si6 0.351356 0.681938 0.405055
Si Si7 0.955507 0.583056 0.055785
O O1 0.549322 0.735640 0.500000
O O2 0.433214 0.684212 0.439765
O O3 0.594437 0.698072 0.413430
O O4 0.504301 0.832672 0.425937
O O5 0.392380 0.687183 0.067708
O O6 0.260540 0.787616 0.084959
O O7 0.412091 0.854795 0.068641
O O8 0.325291 0.778073 0.000000
O O9 0.385390 0.528111 0.209559
O O10 0.403048 0.663109 0.159008
O O11 0.399614 0.662361 0.259926
O O12 0.969625 0.114927 0.600337
O O13 0.116723 0.183552 0.850697
O O14 0.974140 0.115668 0.817536
O O15 0.000000 0.500000 0.079553
O O16 0.966778 0.578912 0.000000
#
# Coordination Sequence:
#
# PCOD8314519 Si02
#       7
#    16  16  16  16  16  16  16
#     4  10  19  29  42  61  93 129 160 194 230 271
#     4  10  21  33  45  67  99 125 156 206 240 272
#     4   7  12  25  47  70  93 117 146 187 240 294
#     4   9  18  34  54  74  93 117 147 189 257 320
#     4   9  15  26  45  71  95 124 161 196 230 276
#     4  11  19  30  42  65  96 128 163 192 234 271
#     4   8  16  32  49  62  82 123 169 196 221 267
#
# _framework density 16.229687999999999
#
# number of rings (size 3 to 8) (size 9 to 14) (size 15 to 20)
#    0.000    2.857    1.429    3.857    0.000    2.000 
#    0.000    3.571    0.000    0.000    0.000    0.000 
#    0.000    4.571    0.000    0.000    0.000    0.000 
#
# Total GULP energy -1387543.179790 kJ/mol
# GULP energy per Si atom -12388.778391 kJ/mol
# Density = 1.619275 g / cm^3
# Si number density = 16.229688 Si / 1000 Ang^3
#
#
#
# Elastic Constant Matrix: (Units=GPa)
#
#
# Indices 1 2 3 4 5 6 
#
# 1 73.9120 46.6619 24.2533 0.0000 0.0000 0.0000
# 2 46.6619 73.9120 24.2533 0.0000 0.0000 0.0000
# 3 24.2533 24.2533 60.8051 0.0000 0.0000 0.0000
# 4 0.0000 0.0000 0.0000 18.6266 0.0000 0.0000
# 5 0.0000 0.0000 0.0000 0.0000 18.6266 0.0000
# 6 0.0000 0.0000 0.0000 0.0000 0.0000 23.8399
#
#
#
# Elastic Compliance Matrix: (Units=1/GPa)
#
#
# Indices 1 2 3 4 5 6 
#
# 1 0.023288 -0.013409 -0.003940 0.000000 0.000000 0.000000
# 2 -0.013409 0.023288 -0.003940 0.000000 0.000000 0.000000
# 3 -0.003940 -0.003940 0.019589 0.000000 0.000000 0.000000
# 4 0.000000 0.000000 0.000000 0.053687 0.000000 0.000000
# 5 0.000000 0.000000 0.000000 0.000000 0.053687 0.000000
# 6 0.000000 0.000000 0.000000 0.000000 0.000000 0.041947
#
#
# Mechanical properties :
#
#
# Convention : Reuss Voigt Hill
#
# Bulk Modulus (GPa) = 42.39875 44.32958 43.36416
# Shear Modulus (GPa) = 18.80217 19.78266 19.29241
#
# Velocity S-wave (km/s) = 3.40737 3.49509 3.45151
# Velocity P-wave (km/s) = 6.45455 6.60762 6.53153
#
# Compressibility (1/GPa) = 0.02358560
#
# Stress axis : x y z
#
# Youngs Moduli (GPa) = 42.94059 42.94059 51.04803
#
# Poissons Ratio (x) = 0.57579 0.20115
# Poissons Ratio (y) = 0.57579 0.20115
# Poissons Ratio (z) = 0.16920 0.16920
#
# Static dielectric constant tensor:
#      x y z
#    x 2.942780 0.000000 0.000000 
#    y 0.000000 2.942780 0.000000 
#    z 0.000000 0.000000 3.242220 
# 
# 
# High freq. dielectric constant tensor:
#      x y z
#    x 1.602330 0.000000 0.000000 
#    y 0.000000 1.602330 0.000000 
#    z 0.000000 0.000000 1.619830 
# 
# From -- ./inp_files/6903.got.cif
#   From: 2010.03.12/outbox.cif.g09.slc.cpg/sg128_4_cif.got.tgz:6903.got - 2010.04.06 17:11:05.
