data_PCOD8314502
_publ_section_title
;
Structure prediction by ZEFSAII (Michael W. Deem and Ramdas Pophale) SiO2 
 PCOD8314502
Probable space group: P 4/M N C
;
_chemical_formula_sum "Si O2"
_cell_formula_units_Z 96
_cell_length_a 22.652777
_cell_length_b 22.652777
_cell_length_c 9.117515
_cell_angle_alpha 90.000000
_cell_angle_beta 90.000000
_cell_angle_gamma 90.000000
_cell_volume 4678.637375
_symmetry_space_group_name_H-M "P 4/M N C"
_symmetry_group_IT_number 128
_symmetry_cell_setting 'tetragonal'
loop_
_space_group_symop_operation_xyz
x,y,z
-y,x,z
-x,-y,z
y,-x,z
1/2+x,1/2-y,1/2-z
1/2-x,1/2+y,1/2-z
1/2+y,1/2+x,1/2-z
1/2-y,1/2-x,1/2-z
-x,-y,-z
y,-x,-z
x,y,-z
-y,x,-z
1/2-x,1/2+y,1/2+z
1/2+x,1/2-y,1/2+z
1/2-y,1/2-x,1/2+z
1/2+y,1/2+x,1/2+z
loop_
_atom_site_type_symbol
_atom_site_label
_atom_site_fract_x
_atom_site_fract_y
_atom_site_fract_z
Si Si1 0.802103 0.374468 0.343166
Si Si2 0.494661 0.655484 0.829489
Si Si3 0.499968 0.914152 0.825626
Si Si4 0.479466 0.218143 0.164228
Si Si5 0.119558 0.115367 0.177007
Si Si6 0.796535 0.780474 0.840761
O O1 0.860743 0.360743 0.250000
O O2 0.824022 0.397721 0.500000
O O3 0.764215 0.424721 0.266099
O O4 0.763306 0.316632 0.362457
O O5 0.477197 0.725522 0.822444
O O6 0.447637 0.620184 0.732303
O O7 0.558748 0.646176 0.758228
O O8 0.494480 0.634303 0.000000
O O9 0.558627 0.941374 0.750000
O O10 0.492851 0.844484 0.788696
O O11 0.443251 0.943251 0.750000
O O12 0.500688 0.926414 0.000000
O O13 0.454723 0.212382 0.000000
O O14 0.154529 0.175027 0.228150
O O15 0.123030 0.107968 0.000000
O O16 0.778993 0.721008 0.750000
O O17 0.819191 0.758708 0.000000
#
# Coordination Sequence:
#
# PCOD8314502 Si02
#       6
#    16  16  16  16  16  16
#     4  10  18  29  49  80 114 147 185 227 281 340
#     4  11  24  42  65  91 119 156 198 250 308 367
#     4  10  20  35  54  81 116 158 201 245 292 344
#     4  10  21  36  55  82 115 150 193 241 294 350
#     4  11  23  43  65  92 125 159 201 250 301 361
#     4   9  19  34  56  86 120 155 191 235 290 348
#
# _framework density 20.518794
#
# number of rings (size 3 to 8) (size 9 to 14) (size 15 to 20)
#    0.000    1.833    1.667    3.000    0.000    5.667 
#    0.000    2.500    0.000    4.000    0.000    0.000 
#    0.000    0.000    0.000    0.000    0.000    0.000 
#
# Total GULP energy -1189342.490532 kJ/mol
# GULP energy per Si atom -12388.984276 kJ/mol
# Density = 2.047209 g / cm^3
# Si number density = 20.518794 Si / 1000 Ang^3
#
#
#
# Elastic Constant Matrix: (Units=GPa)
#
#
# Indices 1 2 3 4 5 6 
#
# 1 74.7960 40.9454 35.9794 0.0000 0.0000 0.0000
# 2 40.9454 74.7973 35.9794 0.0000 0.0000 0.0000
# 3 35.9794 35.9794 115.0795 0.0000 0.0000 0.0000
# 4 0.0000 0.0000 0.0000 25.1512 0.0000 0.0000
# 5 0.0000 0.0000 0.0000 0.0000 25.1508 0.0000
# 6 0.0000 0.0000 0.0000 0.0000 0.0000 25.5103
#
#
#
# Elastic Compliance Matrix: (Units=1/GPa)
#
#
# Indices 1 2 3 4 5 6 
#
# 1 0.020133 -0.009408 -0.003353 0.000000 0.000000 0.000000
# 2 -0.009408 0.020133 -0.003353 0.000000 0.000000 0.000000
# 3 -0.003353 -0.003353 0.010786 0.000000 0.000000 0.000000
# 4 0.000000 0.000000 0.000000 0.039760 0.000000 0.000000
# 5 0.000000 0.000000 0.000000 0.000000 0.039760 0.000000
# 6 0.000000 0.000000 0.000000 0.000000 0.000000 0.039200
#
#
# Mechanical properties :
#
#
# Convention : Reuss Voigt Hill
#
# Bulk Modulus (GPa) = 53.12566 54.49791 53.81178
# Shear Modulus (GPa) = 24.00681 25.28037 24.64359
#
# Velocity S-wave (km/s) = 3.42422 3.51388 3.46934
# Velocity P-wave (km/s) = 6.44835 6.56359 6.50623
#
# Compressibility (1/GPa) = 0.01882330
#
# Stress axis : x y z
#
# Youngs Moduli (GPa) = 49.66980 49.67083 92.71045
#
# Poissons Ratio (x) = 0.46731 0.31086
# Poissons Ratio (y) = 0.46730 0.31085
# Poissons Ratio (z) = 0.16655 0.16654
#
# Static dielectric constant tensor:
#      x y z
#    x 3.555040 0.000000 0.000000 
#    y 0.000000 3.555030 0.000000 
#    z 0.000000 0.000000 4.232070 
# 
# 
# High freq. dielectric constant tensor:
#      x y z
#    x 1.784970 0.000000 0.000000 
#    y 0.000000 1.784960 0.000000 
#    z 0.000000 0.000000 1.815200 
# 
# From -- ./inp_files/1488.got.cif
#   From: 2010.03.12/outbox.cif.g09.slc.cpg/sg128_1_cif.got.tgz:1488.got - 2010.04.06 17:11:05.
