data_PCOD8314950
_publ_section_title
;
Structure prediction by ZEFSAII (Michael W. Deem and Ramdas Pophale) SiO2 
 PCOD8314950
Probable space group: P 4/N M M
;
_chemical_formula_sum "Si O2"
_cell_formula_units_Z 80
_cell_length_a 17.980702
_cell_length_b 17.980702
_cell_length_c 13.792214
_cell_angle_alpha 90.000000
_cell_angle_beta 90.000000
_cell_angle_gamma 90.000000
_cell_volume 4459.100635
_symmetry_space_group_name_H-M "P 4/N M M"
_symmetry_group_IT_number 129
_symmetry_cell_setting 'tetragonal'
loop_
_space_group_symop_operation_xyz
x,y,z
1/2-y,x,z
1/2-x,1/2-y,z
y,1/2-x,z
1/2+x,-y,-z
-x,1/2+y,-z
1/2+y,1/2+x,-z
-y,-x,-z
-x,-y,-z
1/2+y,-x,-z
1/2+x,1/2+y,-z
-y,1/2+x,-z
1/2-x,y,z
x,1/2-y,z
1/2-y,1/2-x,z
y,x,z
loop_
_atom_site_type_symbol
_atom_site_label
_atom_site_fract_x
_atom_site_fract_y
_atom_site_fract_z
Si Si1 0.668388 0.550730 0.616141
Si Si2 0.063061 0.436940 0.101085
Si Si3 0.954791 0.336519 0.774125
Si Si4 0.061540 0.061540 0.881956
Si Si5 0.512633 0.393143 0.567016
Si Si6 0.835152 0.044151 0.792245
O O1 0.750000 0.583408 0.635010
O O2 0.610010 0.610010 0.655885
O O3 0.659350 0.537002 0.501561
O O4 0.656744 0.474870 0.677757
O O5 0.137239 0.470857 0.149665
O O6 0.000815 0.499186 0.113399
O O7 0.083787 0.416214 0.990854
O O8 0.943913 0.250000 0.799510
O O9 0.960853 0.346145 0.658564
O O10 0.883470 0.382131 0.814318
O O11 0.029736 0.366482 0.825517
O O12 0.581219 0.418782 0.500000
O O13 0.465861 0.465861 0.602162
O O14 0.750000 0.060604 0.821728
#
# Coordination Sequence:
#
# PCOD8314950 Si02
#       6
#    16   8  16   8  16  16
#     4  10  19  31  50  77 106 139 178 219 267 320
#     4   9  18  36  59  77 106 136 175 228 276 320
#     4  11  21  35  56  80 111 147 184 224 273 327
#     4   9  20  36  56  84 101 131 185 232 271 319
#     4  10  18  30  53  77 104 143 183 229 267 313
#     4  10  20  34  54  81 112 143 180 222 269 325
#
# _framework density 17.940837999999999
#
# number of rings (size 3 to 8) (size 9 to 14) (size 15 to 20)
#    0.000    2.000    4.000    0.600    0.000    1.400 
#    0.000    0.000    0.000    0.600    0.000    7.000 
#    0.000    0.000    0.000    0.000    0.000    0.000 
#
# Total GULP energy -991756.355632 kJ/mol
# GULP energy per Si atom -12396.954445 kJ/mol
# Density = 1.790000 g / cm^3
# Si number density = 17.940838 Si / 1000 Ang^3
#
#
#
# Elastic Constant Matrix: (Units=GPa)
#
#
# Indices 1 2 3 4 5 6 
#
# 1 103.4641 54.8449 27.1729 0.0000 0.0000 0.0000
# 2 54.8449 103.4642 27.1728 0.0000 0.0000 0.0000
# 3 27.1729 27.1728 85.5863 0.0000 0.0000 0.0000
# 4 0.0000 0.0000 0.0000 15.8275 0.0000 0.0000
# 5 0.0000 0.0000 0.0000 0.0000 15.8273 0.0000
# 6 0.0000 0.0000 0.0000 0.0000 0.0000 16.3619
#
#
#
# Elastic Compliance Matrix: (Units=1/GPa)
#
#
# Indices 1 2 3 4 5 6 
#
# 1 0.013829 -0.006739 -0.002251 0.000000 0.000000 0.000000
# 2 -0.006739 0.013829 -0.002251 0.000000 0.000000 0.000000
# 3 -0.002251 -0.002251 0.013113 0.000000 0.000000 0.000000
# 4 0.000000 0.000000 0.000000 0.063181 0.000000 0.000000
# 5 0.000000 0.000000 0.000000 0.000000 0.063182 0.000000
# 6 0.000000 0.000000 0.000000 0.000000 0.000000 0.061117
#
#
# Mechanical properties :
#
#
# Convention : Reuss Voigt Hill
#
# Bulk Modulus (GPa) = 54.67795 56.76620 55.72207
# Shear Modulus (GPa) = 19.46816 21.82494 20.64655
#
# Velocity S-wave (km/s) = 3.29771 3.49161 3.39604
# Velocity P-wave (km/s) = 6.71139 6.92565 6.81936
#
# Compressibility (1/GPa) = 0.01828891
#
# Stress axis : x y z
#
# Youngs Moduli (GPa) = 72.31318 72.31336 76.25820
#
# Poissons Ratio (x) = 0.48734 0.17165
# Poissons Ratio (y) = 0.48734 0.17164
# Poissons Ratio (z) = 0.16277 0.16276
#
# Static dielectric constant tensor:
#      x y z
#    x 3.147080 0.000000 0.000000 
#    y 0.000000 3.147080 0.000000 
#    z 0.000000 0.000000 3.356370 
# 
# 
# High freq. dielectric constant tensor:
#      x y z
#    x 1.674100 0.000000 0.000000 
#    y 0.000000 1.674100 0.000000 
#    z 0.000000 0.000000 1.695420 
# 
# From -- ./inp_files/4649.got.cif
#   From: 2010.03.12/outbox.cif.g09.slc.cpg/sg129_3_cif.got.tgz:4649.got - 2010.04.06 17:19:44.
