data_PCOD8314599
_publ_section_title
;
Structure prediction by ZEFSAII (Michael W. Deem and Ramdas Pophale) SiO2 
 PCOD8314599
Probable space group: P 4/M N C
;
_chemical_formula_sum "Si O2"
_cell_formula_units_Z 96
_cell_length_a 25.045559
_cell_length_b 25.045559
_cell_length_c 8.802211
_cell_angle_alpha 90.000000
_cell_angle_beta 90.000000
_cell_angle_gamma 90.000000
_cell_volume 5521.451142
_symmetry_space_group_name_H-M "P 4/M N C"
_symmetry_group_IT_number 128
_symmetry_cell_setting 'tetragonal'
loop_
_space_group_symop_operation_xyz
x,y,z
-y,x,z
-x,-y,z
y,-x,z
1/2+x,1/2-y,1/2-z
1/2-x,1/2+y,1/2-z
1/2+y,1/2+x,1/2-z
1/2-y,1/2-x,1/2-z
-x,-y,-z
y,-x,-z
x,y,-z
-y,x,-z
1/2-x,1/2+y,1/2+z
1/2+x,1/2-y,1/2+z
1/2-y,1/2-x,1/2+z
1/2+y,1/2+x,1/2+z
loop_
_atom_site_type_symbol
_atom_site_label
_atom_site_fract_x
_atom_site_fract_y
_atom_site_fract_z
Si Si1 0.563467 0.749205 0.829042
Si Si2 0.554762 0.641376 0.320417
Si Si3 0.135888 0.939449 0.319722
Si Si4 0.859280 0.560812 0.323850
Si Si5 0.563273 0.246031 0.167908
Si Si6 0.437614 0.142751 0.679334
O O1 0.580966 0.697307 0.733285
O O2 0.500179 0.751877 0.832067
O O3 0.585938 0.802381 0.748467
O O4 0.586665 0.745265 0.000000
O O5 0.544200 0.642792 0.500000
O O6 0.594996 0.594480 0.278319
O O7 0.500424 0.629737 0.231082
O O8 0.124673 0.935544 0.500000
O O9 0.195321 0.917026 0.280419
O O10 0.907164 0.592837 0.250000
O O11 0.865120 0.568448 0.500000
O O12 0.801125 0.583921 0.276691
O O13 0.864669 0.499322 0.274367
O O14 0.584793 0.232798 0.000000
O O15 0.406960 0.093041 0.750000
O O16 0.429834 0.144254 0.500000
#
# Coordination Sequence:
#
# PCOD8314599 Si02
#       6
#    16  16  16  16  16  16
#     4   9  17  32  52  72  96 130 168 205 243 292
#     4  11  21  33  51  77 105 132 165 207 250 295
#     4  10  20  35  53  74 101 135 169 203 247 299
#     4  10  20  32  49  72 100 131 165 203 246 294
#     4   8  16  31  51  71  93 124 165 205 241 285
#     4  10  20  33  50  74 101 132 167 207 250 295
#
# _framework density 17.386734000000001
#
# number of rings (size 3 to 8) (size 9 to 14) (size 15 to 20)
#    0.000    2.333    0.000    4.500    0.000    7.333 
#    0.000    3.333    0.000    1.000    0.000    2.333 
#    0.000    0.000    0.000    0.000    0.000    0.000 
#
# Total GULP energy -1190211.631255 kJ/mol
# GULP energy per Si atom -12398.037826 kJ/mol
# Density = 1.734716 g / cm^3
# Si number density = 17.386734 Si / 1000 Ang^3
#
#
#
# Elastic Constant Matrix: (Units=GPa)
#
#
# Indices 1 2 3 4 5 6 
#
# 1 84.2428 31.6971 30.8430 0.0000 0.0000 0.0000
# 2 31.6971 84.2297 30.8738 0.0000 0.0000 0.0000
# 3 30.8430 30.8738 74.7815 0.0000 0.0000 0.0000
# 4 0.0000 0.0000 0.0000 29.1927 0.0000 0.0000
# 5 0.0000 0.0000 0.0000 0.0000 29.1922 0.0000
# 6 0.0000 0.0000 0.0000 0.0000 0.0000 -0.1991
#
#
#
# Elastic Compliance Matrix: (Units=1/GPa)
#
#
# Indices 1 2 3 4 5 6 
#
# 1 0.015040 -0.003990 -0.004556 0.000000 0.000000 0.000000
# 2 -0.003990 0.015048 -0.004567 0.000000 0.000000 0.000000
# 3 -0.004556 -0.004567 0.017137 0.000000 0.000000 0.000000
# 4 0.000000 0.000000 0.000000 0.034255 0.000000 0.000000
# 5 0.000000 0.000000 0.000000 0.000000 0.034256 0.000000
# 6 0.000000 0.000000 0.000000 0.000000 0.000000 -5.023521
#
#
# Mechanical properties :
#
#
# Convention : Reuss Voigt Hill
#
# Bulk Modulus (GPa) = 47.62112 47.78687 47.70400
# Shear Modulus (GPa) = -1.02573 21.62649 10.30038
#
# Velocity S-wave (km/s) = -0.76892 3.53065 2.43662
# Velocity P-wave (km/s) = 5.16338 6.64568 5.95086
#
# Compressibility (1/GPa) = 0.02099908
#
# Stress axis : x y z
#
# Youngs Moduli (GPa) = 66.49111 66.45530 58.35410
#
# Poissons Ratio (x) = 0.26514 0.26585
# Poissons Ratio (y) = 0.26529 0.26650
# Poissons Ratio (z) = 0.30292 0.30350
#
# Static dielectric constant tensor:
#      x y z
#    x 3.249940 0.000000 0.000000 
#    y 0.000000 3.249960 0.000000 
#    z 0.000000 0.000000 3.405660 
# 
# 
# High freq. dielectric constant tensor:
#      x y z
#    x 1.654980 0.000000 0.000000 
#    y 0.000000 1.654980 0.000000 
#    z 0.000000 0.000000 1.687020 
# 
# From -- ./inp_files/1453.got.cif
#   From: 2010.03.12/outbox.cif.g09.slc.cpg/sg128_1_cif.got.tgz:1453.got - 2010.04.06 17:11:05.
