data_PCOD8314577
_publ_section_title
;
Structure prediction by ZEFSAII (Michael W. Deem and Ramdas Pophale) SiO2 
 PCOD8314577
Probable space group: P 4/M N C
;
_chemical_formula_sum "Si O2"
_cell_formula_units_Z 120
_cell_length_a 25.215863
_cell_length_b 25.215863
_cell_length_c 9.716763
_cell_angle_alpha 90.000000
_cell_angle_beta 90.000000
_cell_angle_gamma 90.000000
_cell_volume 6178.304126
_symmetry_space_group_name_H-M "P 4/M N C"
_symmetry_group_IT_number 128
_symmetry_cell_setting 'tetragonal'
loop_
_space_group_symop_operation_xyz
x,y,z
-y,x,z
-x,-y,z
y,-x,z
1/2+x,1/2-y,1/2-z
1/2-x,1/2+y,1/2-z
1/2+y,1/2+x,1/2-z
1/2-y,1/2-x,1/2-z
-x,-y,-z
y,-x,-z
x,y,-z
-y,x,-z
1/2-x,1/2+y,1/2+z
1/2+x,1/2-y,1/2+z
1/2-y,1/2-x,1/2+z
1/2+y,1/2+x,1/2+z
loop_
_atom_site_type_symbol
_atom_site_label
_atom_site_fract_x
_atom_site_fract_y
_atom_site_fract_z
Si Si1 0.470885 0.202340 0.346421
Si Si2 0.621835 0.061245 0.850932
Si Si3 0.506898 0.410807 0.500000
Si Si4 0.370115 0.203663 0.160806
Si Si5 0.118263 0.823731 0.655736
Si Si6 0.207129 0.903433 0.343134
Si Si7 0.319856 0.506475 0.714588
Si Si8 0.145612 0.291688 0.846535
O O1 0.450336 0.186819 0.500000
O O2 0.516698 0.162305 0.296363
O O3 0.427129 0.194105 0.229249
O O4 0.491867 0.262710 0.360491
O O5 0.571752 0.071752 0.750000
O O6 0.652936 0.116219 0.869098
O O7 0.598857 0.044385 0.000000
O O8 0.556317 0.451644 0.500000
O O9 0.511468 0.370737 0.627642
O O10 0.326539 0.173462 0.250000
O O11 0.356642 0.265564 0.172950
O O12 0.370802 0.185501 0.000000
O O13 0.103436 0.835927 0.500000
O O14 0.161252 0.864728 0.710298
O O15 0.065094 0.833061 0.738181
O O16 0.224852 0.890684 0.500000
O O17 0.253682 0.894629 0.234312
O O18 0.186524 0.963953 0.337515
O O19 0.197624 0.302377 0.750000
O O20 0.161267 0.269525 0.000000
#
# Coordination Sequence:
#
# PCOD8314577 Si02
#       8
#    16  16   8  16  16  16  16  16
#     4  10  19  35  58  85 114 148 194 238 284 342
#     4   9  18  32  50  78 114 150 182 230 279 338
#     4  11  24  38  56  84 118 154 196 253 318 376
#     4  10  21  38  60  84 116 151 193 239 288 346
#     4   9  21  39  56  83 112 146 195 242 293 356
#     4  11  22  36  58  82 112 152 194 243 297 354
#     4  11  20  37  58  80 111 149 193 244 297 357
#     4  10  20  35  53  80 117 152 190 232 286 351
#
# _framework density 19.422805
#
# number of rings (size 3 to 8) (size 9 to 14) (size 15 to 20)
#    0.000    1.933    2.000    2.000    0.933    2.133 
#    1.200    1.333    0.000    0.400    0.000    8.400 
#    0.000    0.000    0.000    0.000    0.000    0.000 
#
# Total GULP energy -1486963.507406 kJ/mol
# GULP energy per Si atom -12391.362562 kJ/mol
# Density = 1.937860 g / cm^3
# Si number density = 19.422805 Si / 1000 Ang^3
#
#
#
# Elastic Constant Matrix: (Units=GPa)
#
#
# Indices 1 2 3 4 5 6 
#
# 1 59.3088 30.8636 35.7718 0.0000 0.0000 0.0000
# 2 30.8636 59.3040 35.7705 0.0000 0.0000 0.0000
# 3 35.7718 35.7705 117.5931 0.0000 0.0000 0.0000
# 4 0.0000 0.0000 0.0000 25.2709 0.0000 0.0000
# 5 0.0000 0.0000 0.0000 0.0000 25.2701 0.0000
# 6 0.0000 0.0000 0.0000 0.0000 0.0000 34.2097
#
#
#
# Elastic Compliance Matrix: (Units=1/GPa)
#
#
# Indices 1 2 3 4 5 6 
#
# 1 0.024887 -0.010270 -0.004447 0.000000 0.000000 0.000000
# 2 -0.010270 0.024889 -0.004447 0.000000 0.000000 0.000000
# 3 -0.004447 -0.004447 0.011209 0.000000 0.000000 0.000000
# 4 0.000000 0.000000 0.000000 0.039571 0.000000 0.000000
# 5 0.000000 0.000000 0.000000 0.000000 0.039572 0.000000
# 6 0.000000 0.000000 0.000000 0.000000 0.000000 0.029231
#
#
# Mechanical properties :
#
#
# Convention : Reuss Voigt Hill
#
# Bulk Modulus (GPa) = 44.13314 49.00196 46.56755
# Shear Modulus (GPa) = 23.22977 25.87016 24.54996
#
# Velocity S-wave (km/s) = 3.46208 3.65354 3.55910
# Velocity P-wave (km/s) = 6.22519 6.56367 6.39667
#
# Compressibility (1/GPa) = 0.02265871
#
# Stress axis : x y z
#
# Youngs Moduli (GPa) = 40.18115 40.17786 89.21169
#
# Poissons Ratio (x) = 0.41263 0.39670
# Poissons Ratio (y) = 0.41266 0.39672
# Poissons Ratio (z) = 0.17867 0.17867
#
# Static dielectric constant tensor:
#      x y z
#    x 3.466270 0.000000 0.000000 
#    y 0.000000 3.466260 0.000000 
#    z 0.000000 0.000000 3.790880 
# 
# 
# High freq. dielectric constant tensor:
#      x y z
#    x 1.744790 0.000000 0.000000 
#    y 0.000000 1.744790 0.000000 
#    z 0.000000 0.000000 1.762400 
# 
# From -- ./inp_files/1807.got.cif
#   From: 2010.03.12/outbox.cif.g09.slc.cpg/sg128_1_cif.got.tgz:1807.got - 2010.04.06 17:11:05.
