data_PCOD8314294
_publ_section_title
;
Structure prediction by ZEFSAII (Michael W. Deem and Ramdas Pophale) SiO2 
 PCOD8314294
Probable space group: P 4/M B M
;
_chemical_formula_sum "Si O2"
_cell_formula_units_Z 72
_cell_length_a 13.884531
_cell_length_b 13.884531
_cell_length_c 19.226039
_cell_angle_alpha 90.000000
_cell_angle_beta 90.000000
_cell_angle_gamma 90.000000
_cell_volume 3706.399665
_symmetry_space_group_name_H-M "P 4/M B M"
_symmetry_group_IT_number 127
_symmetry_cell_setting 'tetragonal'
loop_
_space_group_symop_operation_xyz
x,y,z
-y,x,z
-x,-y,z
y,-x,z
1/2+x,1/2-y,-z
1/2-x,1/2+y,-z
1/2+y,1/2+x,-z
1/2-y,1/2-x,-z
-x,-y,-z
y,-x,-z
x,y,-z
-y,x,-z
1/2-x,1/2+y,z
1/2+x,1/2-y,z
1/2-y,1/2-x,z
1/2+y,1/2+x,z
loop_
_atom_site_type_symbol
_atom_site_label
_atom_site_fract_x
_atom_site_fract_y
_atom_site_fract_z
Si Si1 0.896517 0.761946 0.854800
Si Si2 0.562951 0.776291 0.629582
Si Si3 0.418921 0.918921 0.421387
Si Si4 0.742748 0.403014 0.783218
Si Si5 0.643446 0.570836 0.000000
Si Si6 0.561835 0.645275 0.500000
O O1 0.835001 0.665000 0.847319
O O2 0.852177 0.847164 0.808006
O O3 0.003867 0.739142 0.830171
O O4 0.896811 0.795274 0.934083
O O5 0.641498 0.858503 0.626749
O O6 0.457601 0.823997 0.617901
O O7 0.564589 0.723836 0.703877
O O8 0.589287 0.702112 0.569355
O O9 0.390603 0.890603 0.500000
O O10 0.500000 0.000000 0.422632
O O11 0.837189 0.337189 0.790949
O O12 0.543077 0.627296 0.000000
O O13 0.449304 0.625192 0.500000
#
# Coordination Sequence:
#
# PCOD8314294 Si02
#       6
#    16  16   8  16   8   8
#     4  11  23  42  66  94 129 166 203 254 316 370
#     4  10  21  41  62  87 118 153 203 255 302 360
#     4   9  16  32  60  86 112 147 193 251 299 343
#     4  10  24  41  62  95 128 161 209 259 310 377
#     4  11  21  40  68  95 124 166 212 255 302 366
#     4  11  25  41  54  81 120 161 202 249 309 364
#
# _framework density 19.425861000000001
#
# number of rings (size 3 to 8) (size 9 to 14) (size 15 to 20)
#    0.000    1.667    3.333    0.667    4.667    0.889 
#    4.000    0.556    0.000    1.333    0.000    0.000 
#    0.000    0.000    0.000    0.000    0.000    0.000 
#
# Total GULP energy -893060.403835 kJ/mol
# GULP energy per Si atom -12403.616720 kJ/mol
# Density = 1.938165 g / cm^3
# Si number density = 19.425861 Si / 1000 Ang^3
#
#
#
# Elastic Constant Matrix: (Units=GPa)
#
#
# Indices 1 2 3 4 5 6 
#
# 1 69.4042 15.0025 36.0569 0.0000 0.0000 0.0000
# 2 15.0025 69.4042 36.0569 0.0000 0.0000 0.0000
# 3 36.0569 36.0569 152.2377 0.0000 0.0000 0.0000
# 4 0.0000 0.0000 0.0000 11.8881 0.0000 0.0000
# 5 0.0000 0.0000 0.0000 0.0000 11.8881 0.0000
# 6 0.0000 0.0000 0.0000 0.0000 0.0000 8.6436
#
#
#
# Elastic Compliance Matrix: (Units=1/GPa)
#
#
# Indices 1 2 3 4 5 6 
#
# 1 0.016617 -0.001764 -0.003518 0.000000 0.000000 0.000000
# 2 -0.001764 0.016617 -0.003518 0.000000 0.000000 0.000000
# 3 -0.003518 -0.003518 0.008235 0.000000 0.000000 0.000000
# 4 0.000000 0.000000 0.000000 0.084118 0.000000 0.000000
# 5 0.000000 0.000000 0.000000 0.000000 0.084118 0.000000
# 6 0.000000 0.000000 0.000000 0.000000 0.000000 0.115693
#
#
# Mechanical properties :
#
#
# Convention : Reuss Voigt Hill
#
# Bulk Modulus (GPa) = 41.89453 51.69766 46.79609
# Shear Modulus (GPa) = 14.24682 20.07926 17.16304
#
# Velocity S-wave (km/s) = 2.71106 3.21851 2.97562
# Velocity P-wave (km/s) = 5.60473 6.36257 5.99564
#
# Compressibility (1/GPa) = 0.02386947
#
# Stress axis : x y z
#
# Youngs Moduli (GPa) = 60.17810 60.17810 121.43200
#
# Poissons Ratio (x) = 0.10618 0.42718
# Poissons Ratio (y) = 0.10618 0.42718
# Poissons Ratio (z) = 0.21170 0.21170
#
# Static dielectric constant tensor:
#      x y z
#    x 3.517930 0.000000 0.000000 
#    y 0.000000 3.517930 0.000000 
#    z 0.000000 0.000000 3.841590 
# 
# 
# High freq. dielectric constant tensor:
#      x y z
#    x 1.754350 0.000000 0.000000 
#    y 0.000000 1.754350 0.000000 
#    z 0.000000 0.000000 1.769300 
# 
# From -- ./inp_files/4983.got.cif
#   From: 2010.03.12/outbox.cif.g09.slc.cpg/sg127_3_cif.got.tgz:4983.got - 2010.04.06 17:03:15.
