data_PCOD8314480
_publ_section_title
;
Structure prediction by ZEFSAII (Michael W. Deem and Ramdas Pophale) SiO2 
 PCOD8314480
Probable space group: P 4/M N C
;
_chemical_formula_sum "Si O2"
_cell_formula_units_Z 96
_cell_length_a 29.321816
_cell_length_b 29.321816
_cell_length_c 8.874616
_cell_angle_alpha 90.000000
_cell_angle_beta 90.000000
_cell_angle_gamma 90.000000
_cell_volume 7630.118779
_symmetry_space_group_name_H-M "P 4/M N C"
_symmetry_group_IT_number 128
_symmetry_cell_setting 'tetragonal'
loop_
_space_group_symop_operation_xyz
x,y,z
-y,x,z
-x,-y,z
y,-x,z
1/2+x,1/2-y,1/2-z
1/2-x,1/2+y,1/2-z
1/2+y,1/2+x,1/2-z
1/2-y,1/2-x,1/2-z
-x,-y,-z
y,-x,-z
x,y,-z
-y,x,-z
1/2-x,1/2+y,1/2+z
1/2+x,1/2-y,1/2+z
1/2-y,1/2-x,1/2+z
1/2+y,1/2+x,1/2+z
loop_
_atom_site_type_symbol
_atom_site_label
_atom_site_fract_x
_atom_site_fract_y
_atom_site_fract_z
Si Si1 0.383783 0.691528 0.170263
Si Si2 0.315710 0.245653 0.821515
Si Si3 0.375413 0.447508 0.679399
Si Si4 0.811081 0.889138 0.333324
Si Si5 0.747032 0.183079 0.821165
Si Si6 0.876781 0.950163 0.176962
O O1 0.428316 0.671739 0.253584
O O2 0.344760 0.653616 0.173777
O O3 0.365953 0.736817 0.256135
O O4 0.396742 0.704866 0.000000
O O5 0.304640 0.195361 0.750000
O O6 0.368522 0.260856 0.792638
O O7 0.283820 0.279527 0.727607
O O8 0.304657 0.248068 0.000000
O O9 0.372098 0.445432 0.500000
O O10 0.382254 0.498824 0.741037
O O11 0.418551 0.417896 0.738906
O O12 0.810619 0.910510 0.500000
O O13 0.827688 0.928941 0.222163
O O14 0.698116 0.198116 0.750000
O O15 0.743091 0.180126 0.000000
O O16 0.878920 0.952117 0.000000
#
# Coordination Sequence:
#
# PCOD8314480 Si02
#       6
#    16  16  16  16  16  16
#     4   9  16  26  37  49  64  83 104 128 158 194
#     4   9  15  22  32  48  67  86 105 125 148 182
#     4   9  17  28  39  52  65  81 105 136 174 214
#     4   8  15  25  35  47  64  82 102 126 156 193
#     4  10  16  22  33  49  68  87 104 123 146 180
#     4   9  17  27  39  51  64  81 105 136 173 213
#
# _framework density 12.581716999999999
#
# number of rings (size 3 to 8) (size 9 to 14) (size 15 to 20)
#    0.000    3.000    0.000    4.500    0.000    5.667 
#    0.000    1.667    0.000    0.000    0.000    4.667 
#    0.000    0.000    0.000    0.000    0.000    0.000 
#
# Total GULP energy -1189300.657032 kJ/mol
# GULP energy per Si atom -12388.548511 kJ/mol
# Density = 1.255308 g / cm^3
# Si number density = 12.581717 Si / 1000 Ang^3
#
#
#
# Elastic Constant Matrix: (Units=GPa)
#
#
# Indices 1 2 3 4 5 6 
#
# 1 53.9748 52.6923 25.1399 0.0000 0.0000 0.0000
# 2 52.6923 53.9755 25.1399 0.0000 0.0000 0.0000
# 3 25.1399 25.1399 54.7426 0.0000 0.0000 0.0000
# 4 0.0000 0.0000 0.0000 15.1848 0.0000 0.0000
# 5 0.0000 0.0000 0.0000 0.0000 15.1847 0.0000
# 6 0.0000 0.0000 0.0000 0.0000 0.0000 15.0599
#
#
#
# Elastic Compliance Matrix: (Units=1/GPa)
#
#
# Indices 1 2 3 4 5 6 
#
# 1 0.395744 -0.383776 -0.005497 0.000000 0.000000 0.000000
# 2 -0.383776 0.395737 -0.005493 0.000000 0.000000 0.000000
# 3 -0.005497 -0.005493 0.023314 0.000000 0.000000 0.000000
# 4 0.000000 0.000000 0.000000 0.065855 0.000000 0.000000
# 5 0.000000 0.000000 0.000000 0.000000 0.065856 0.000000
# 6 0.000000 0.000000 0.000000 0.000000 0.000000 0.066402
#
#
# Mechanical properties :
#
#
# Convention : Reuss Voigt Hill
#
# Bulk Modulus (GPa) = 39.58046 40.95969 40.27008
# Shear Modulus (GPa) = 2.76112 13.06725 7.91418
#
# Velocity S-wave (km/s) = 1.48301 3.22621 2.51075
# Velocity P-wave (km/s) = 5.87021 6.81935 6.36251
#
# Compressibility (1/GPa) = 0.02526499
#
# Stress axis : x y z
#
# Youngs Moduli (GPa) = 2.52688 2.52693 42.89242
#
# Poissons Ratio (x) = 0.96977 0.23577
# Poissons Ratio (y) = 0.96976 0.23560
# Poissons Ratio (z) = 0.01389 0.01388
#
# Static dielectric constant tensor:
#      x y z
#    x 2.678910 0.000000 0.000000 
#    y 0.000000 2.678910 0.000000 
#    z 0.000000 0.000000 2.621340 
# 
# 
# High freq. dielectric constant tensor:
#      x y z
#    x 1.441880 0.000000 0.000000 
#    y 0.000000 1.441880 0.000000 
#    z 0.000000 0.000000 1.488590 
# 
# From -- ./inp_files/1638.got.cif
#   From: 2010.03.12/outbox.cif.g09.slc.cpg/sg128_1_cif.got.tgz:1638.got - 2010.04.06 17:11:05.
