data_PCOD8314111
_publ_section_title
;
Structure prediction by ZEFSAII (Michael W. Deem and Ramdas Pophale) SiO2 
 PCOD8314111
Probable space group: P 4/M B M
;
_chemical_formula_sum "Si O2"
_cell_formula_units_Z 112
_cell_length_a 15.707315
_cell_length_b 15.707315
_cell_length_c 24.001258
_cell_angle_alpha 90.000000
_cell_angle_beta 90.000000
_cell_angle_gamma 90.000000
_cell_volume 5921.584242
_symmetry_space_group_name_H-M "P 4/M B M"
_symmetry_group_IT_number 127
_symmetry_cell_setting 'tetragonal'
loop_
_space_group_symop_operation_xyz
x,y,z
-y,x,z
-x,-y,z
y,-x,z
1/2+x,1/2-y,-z
1/2-x,1/2+y,-z
1/2+y,1/2+x,-z
1/2-y,1/2-x,-z
-x,-y,-z
y,-x,-z
x,y,-z
-y,x,-z
1/2-x,1/2+y,z
1/2+x,1/2-y,z
1/2-y,1/2-x,z
1/2+y,1/2+x,z
loop_
_atom_site_type_symbol
_atom_site_label
_atom_site_fract_x
_atom_site_fract_y
_atom_site_fract_z
Si Si1 0.919205 0.116307 0.253289
Si Si2 0.950333 0.129139 0.564949
Si Si3 0.002259 0.362697 0.267906
Si Si4 0.584364 0.776409 0.939185
Si Si5 0.314841 0.676374 0.149762
Si Si6 0.749639 0.892585 0.656779
Si Si7 0.183636 0.452892 0.151341
O O1 0.891203 0.162502 0.196953
O O2 0.876777 0.169379 0.303419
O O3 0.021139 0.117124 0.256994
O O4 0.942456 0.149465 0.500000
O O5 0.918798 0.213570 0.596703
O O6 0.047920 0.107909 0.580904
O O7 0.934525 0.434525 0.253630
O O8 0.971357 0.306301 0.319899
O O9 0.093723 0.406278 0.282430
O O10 0.006412 0.302873 0.212807
O O11 0.659328 0.840673 0.950980
O O12 0.622164 0.694886 0.906867
O O13 0.517479 0.822629 0.899344
O O14 0.546129 0.749688 0.000000
O O15 0.228365 0.728365 0.165611
O O16 0.390834 0.739652 0.137913
O O17 0.693070 0.806931 0.652053
O O18 0.093326 0.406675 0.153426
#
# Coordination Sequence:
#
# PCOD8314111 Si02
#       7
#    16  16  16  16  16  16  16
#     4  11  22  35  53  77 106 139 176 216 260 315
#     4   9  19  38  61  81 106 144 187 227 266 308
#     4   9  18  33  53  78 109 143 176 213 264 323
#     4  10  21  35  50  70  98 131 166 207 257 313
#     4  10  20  35  53  73 100 131 165 208 261 316
#     4  11  21  33  54  83 114 144 176 219 267 315
#     4  10  20  34  55  78  98 126 168 216 261 310
#
# _framework density 18.913858000000001
#
# number of rings (size 3 to 8) (size 9 to 14) (size 15 to 20)
#    0.000    2.000    0.000    4.714    0.000    5.429 
#    0.000    6.429    0.000    1.286    0.000    5.000 
#    0.000    0.000    0.000    0.000    0.000    0.000 
#
# Total GULP energy -1388571.808065 kJ/mol
# GULP energy per Si atom -12397.962572 kJ/mol
# Density = 1.887081 g / cm^3
# Si number density = 18.913858 Si / 1000 Ang^3
#
#
#
# Elastic Constant Matrix: (Units=GPa)
#
#
# Indices 1 2 3 4 5 6 
#
# 1 82.7767 29.7518 56.1689 0.0000 0.0000 0.0000
# 2 29.7518 82.7767 56.1689 0.0000 0.0000 0.0000
# 3 56.1689 56.1689 131.0833 0.0000 0.0000 0.0000
# 4 0.0000 0.0000 0.0000 22.5325 0.0000 0.0000
# 5 0.0000 0.0000 0.0000 0.0000 22.5325 0.0000
# 6 0.0000 0.0000 0.0000 0.0000 0.0000 23.3541
#
#
#
# Elastic Compliance Matrix: (Units=1/GPa)
#
#
# Indices 1 2 3 4 5 6 
#
# 1 0.017194 -0.001665 -0.006654 0.000000 0.000000 0.000000
# 2 -0.001665 0.017194 -0.006654 0.000000 0.000000 0.000000
# 3 -0.006654 -0.006654 0.013332 0.000000 0.000000 0.000000
# 4 0.000000 0.000000 0.000000 0.044380 0.000000 0.000000
# 5 0.000000 0.000000 0.000000 0.000000 0.044380 0.000000
# 6 0.000000 0.000000 0.000000 0.000000 0.000000 0.042819
#
#
# Mechanical properties :
#
#
# Convention : Reuss Voigt Hill
#
# Bulk Modulus (GPa) = 56.26417 64.53511 60.39964
# Shear Modulus (GPa) = 23.23721 23.98694 23.61208
#
# Velocity S-wave (km/s) = 3.50891 3.56507 3.53710
# Velocity P-wave (km/s) = 6.79918 7.15129 6.97745
#
# Compressibility (1/GPa) = 0.01777330
#
# Stress axis : x y z
#
# Youngs Moduli (GPa) = 58.15828 58.15828 75.00973
#
# Poissons Ratio (x) = 0.09681 0.49915
# Poissons Ratio (y) = 0.09681 0.49915
# Poissons Ratio (z) = 0.38701 0.38701
#
# Static dielectric constant tensor:
#      x y z
#    x 3.522710 0.000000 0.000000 
#    y 0.000000 3.522710 0.000000 
#    z 0.000000 0.000000 3.222160 
# 
# 
# High freq. dielectric constant tensor:
#      x y z
#    x 1.734970 0.000000 0.000000 
#    y 0.000000 1.734970 0.000000 
#    z 0.000000 0.000000 1.727150 
# 
# From -- ./inp_files/6165.got.cif
#   From: 2010.03.12/outbox.cif.g09.slc.cpg/sg127_4_cif.got.tgz:6165.got - 2010.04.06 17:03:15.
