data_PCOD8314609
_publ_section_title
;
Structure prediction by ZEFSAII (Michael W. Deem and Ramdas Pophale) SiO2 
 PCOD8314609
Probable space group: P 4/M N C
;
_chemical_formula_sum "Si O2"
_cell_formula_units_Z 96
_cell_length_a 24.026617
_cell_length_b 24.026617
_cell_length_c 8.737445
_cell_angle_alpha 90.000000
_cell_angle_beta 90.000000
_cell_angle_gamma 90.000000
_cell_volume 5043.937610
_symmetry_space_group_name_H-M "P 4/M N C"
_symmetry_group_IT_number 128
_symmetry_cell_setting 'tetragonal'
loop_
_space_group_symop_operation_xyz
x,y,z
-y,x,z
-x,-y,z
y,-x,z
1/2+x,1/2-y,1/2-z
1/2-x,1/2+y,1/2-z
1/2+y,1/2+x,1/2-z
1/2-y,1/2-x,1/2-z
-x,-y,-z
y,-x,-z
x,y,-z
-y,x,-z
1/2-x,1/2+y,1/2+z
1/2+x,1/2-y,1/2+z
1/2-y,1/2-x,1/2+z
1/2+y,1/2+x,1/2+z
loop_
_atom_site_type_symbol
_atom_site_label
_atom_site_fract_x
_atom_site_fract_y
_atom_site_fract_z
Si Si1 0.715243 0.864679 0.678837
Si Si2 0.297573 0.009961 0.680370
Si Si3 0.804784 0.776898 0.681503
Si Si4 0.799509 0.071795 0.682014
Si Si5 0.416947 0.470500 0.817894
Si Si6 0.916463 0.498745 0.318649
O O1 0.658043 0.841958 0.750000
O O2 0.709441 0.857335 0.500000
O O3 0.723539 0.928578 0.724673
O O4 0.767900 0.829212 0.738992
O O5 0.309693 0.004473 0.500000
O O6 0.352543 0.995022 0.773435
O O7 0.249557 0.968599 0.736866
O O8 0.780197 0.719804 0.750000
O O9 0.805008 0.771867 0.500000
O O10 0.866752 0.786352 0.745494
O O11 0.803339 0.072412 0.500000
O O12 0.858273 0.050386 0.751006
O O13 0.466489 0.429570 0.761752
O O14 0.414498 0.469794 0.000000
O O15 0.941676 0.441676 0.250000
O O16 0.923437 0.497935 0.500000
O O17 0.948670 0.551331 0.250000
#
# Coordination Sequence:
#
# PCOD8314609 Si02
#       6
#    16  16  16  16  16  16
#     4   9  18  31  50  72  97 130 169 212 258 303
#     4  10  20  33  49  76 108 139 174 215 261 312
#     4   9  18  33  50  70  96 132 172 211 256 305
#     4   9  18  29  46  70 102 140 176 214 261 315
#     4   8  14  24  41  69 103 137 173 216 266 317
#     4  11  22  38  59  81 106 138 173 214 260 313
#
# _framework density 19.032748999999999
#
# number of rings (size 3 to 8) (size 9 to 14) (size 15 to 20)
#    0.000    2.667    0.000    3.000    2.333    2.667 
#    0.000    2.500    0.000    0.000    0.000    0.000 
#    0.000    0.000    0.000    7.333    0.000    6.667 
#
# Total GULP energy -1190327.066710 kJ/mol
# GULP energy per Si atom -12399.240278 kJ/mol
# Density = 1.898943 g / cm^3
# Si number density = 19.032749 Si / 1000 Ang^3
#
#
#
# Elastic Constant Matrix: (Units=GPa)
#
#
# Indices 1 2 3 4 5 6 
#
# 1 169.2810 94.3121 33.0675 0.0000 0.0000 0.0000
# 2 94.3121 169.2814 33.0706 0.0000 0.0000 0.0000
# 3 33.0675 33.0706 40.9780 0.0000 0.0000 0.0000
# 4 0.0000 0.0000 0.0000 19.0361 0.0000 0.0000
# 5 0.0000 0.0000 0.0000 0.0000 19.0361 0.0000
# 6 0.0000 0.0000 0.0000 0.0000 0.0000 27.8459
#
#
#
# Elastic Compliance Matrix: (Units=1/GPa)
#
#
# Indices 1 2 3 4 5 6 
#
# 1 0.009048 -0.004291 -0.003838 0.000000 0.000000 0.000000
# 2 -0.004291 0.009048 -0.003839 0.000000 0.000000 0.000000
# 3 -0.003838 -0.003839 0.030599 0.000000 0.000000 0.000000
# 4 0.000000 0.000000 0.000000 0.052532 0.000000 0.000000
# 5 0.000000 0.000000 0.000000 0.000000 0.052532 0.000000
# 6 0.000000 0.000000 0.000000 0.000000 0.000000 0.035912
#
#
# Mechanical properties :
#
#
# Convention : Reuss Voigt Hill
#
# Bulk Modulus (GPa) = 40.39143 77.82676 59.10909
# Shear Modulus (GPa) = 22.53672 27.78962 25.16317
#
# Velocity S-wave (km/s) = 3.44481 3.82526 3.64001
# Velocity P-wave (km/s) = 6.09019 7.77753 6.98500
#
# Compressibility (1/GPa) = 0.02475772
#
# Stress axis : x y z
#
# Youngs Moduli (GPa) = 110.52504 110.52139 32.68067
#
# Poissons Ratio (x) = 0.47424 0.12543
# Poissons Ratio (y) = 0.47426 0.12548
# Poissons Ratio (z) = 0.42421 0.42434
#
# Static dielectric constant tensor:
#      x y z
#    x 3.764160 0.000000 0.000000 
#    y 0.000000 3.764120 0.000000 
#    z 0.000000 0.000000 3.045420 
# 
# 
# High freq. dielectric constant tensor:
#      x y z
#    x 1.747340 0.000000 0.000000 
#    y 0.000000 1.747340 0.000000 
#    z 0.000000 0.000000 1.695410 
# 
# From -- ./inp_files/1420.got.cif
#   From: 2010.03.12/outbox.cif.g09.slc.cpg/sg128_1_cif.got.tgz:1420.got - 2010.04.06 17:11:05.
