data_PCOD8314673
_publ_section_title
;
Structure prediction by ZEFSAII (Michael W. Deem and Ramdas Pophale) SiO2 
 PCOD8314673
Probable space group: P 4/M N C
;
_chemical_formula_sum "Si O2"
_cell_formula_units_Z 72
_cell_length_a 12.267002
_cell_length_b 12.267002
_cell_length_c 24.557766
_cell_angle_alpha 90.000000
_cell_angle_beta 90.000000
_cell_angle_gamma 90.000000
_cell_volume 3695.436372
_symmetry_space_group_name_H-M "P 4/M N C"
_symmetry_group_IT_number 128
_symmetry_cell_setting 'tetragonal'
loop_
_space_group_symop_operation_xyz
x,y,z
-y,x,z
-x,-y,z
y,-x,z
1/2+x,1/2-y,1/2-z
1/2-x,1/2+y,1/2-z
1/2+y,1/2+x,1/2-z
1/2-y,1/2-x,1/2-z
-x,-y,-z
y,-x,-z
x,y,-z
-y,x,-z
1/2-x,1/2+y,1/2+z
1/2+x,1/2-y,1/2+z
1/2-y,1/2-x,1/2+z
1/2+y,1/2+x,1/2+z
loop_
_atom_site_type_symbol
_atom_site_label
_atom_site_fract_x
_atom_site_fract_y
_atom_site_fract_z
Si Si1 0.411774 0.342404 0.233978
Si Si2 0.187270 0.645769 0.328260
Si Si3 0.500000 0.000000 0.642498
Si Si4 0.732935 0.814928 0.560451
Si Si5 0.679358 0.057383 0.560364
O O1 0.541556 0.352974 0.227690
O O2 0.386655 0.292220 0.293414
O O3 0.361879 0.263160 0.188439
O O4 0.223358 0.649623 0.391949
O O5 0.090389 0.557661 0.319626
O O6 0.416147 0.935178 0.604199
O O7 0.690093 0.779784 0.500000
O O8 0.850460 0.766811 0.573127
O O9 0.744692 0.944699 0.564234
O O10 0.628251 0.072635 0.500000
#
# Coordination Sequence:
#
# PCOD8314673 Si02
#       5
#    16  16   8  16  16
#     4  10  24  42  60  85 115 154 198 246 295 337
#     4  10  23  38  63  86 116 155 190 247 284 359
#     4  10  21  33  54  88 108 152 189 233 290 346
#     4   9  19  34  55  88 119 153 192 236 292 348
#     4   9  18  33  52  80 119 153 191 234 284 344
#
# _framework density 19.483491000000001
#
# number of rings (size 3 to 8) (size 9 to 14) (size 15 to 20)
#    0.000    2.444    0.000    0.333    9.333    4.889 
#    0.000    2.222    0.000    0.000    0.000    1.556 
#    0.000    0.000    0.000    0.000    0.000    0.000 
#
# Total GULP energy -892560.248380 kJ/mol
# GULP energy per Si atom -12396.670116 kJ/mol
# Density = 1.943915 g / cm^3
# Si number density = 19.483491 Si / 1000 Ang^3
#
#
#
# Elastic Constant Matrix: (Units=GPa)
#
#
# Indices 1 2 3 4 5 6 
#
# 1 78.1245 43.0554 23.0007 0.0000 0.0000 0.0000
# 2 43.0554 78.1245 23.0007 0.0000 0.0000 0.0000
# 3 23.0007 23.0007 91.9197 0.0000 0.0000 0.0000
# 4 0.0000 0.0000 0.0000 24.7985 0.0000 0.0000
# 5 0.0000 0.0000 0.0000 0.0000 24.7985 0.0000
# 6 0.0000 0.0000 0.0000 0.0000 0.0000 30.4448
#
#
#
# Elastic Compliance Matrix: (Units=1/GPa)
#
#
# Indices 1 2 3 4 5 6 
#
# 1 0.018817 -0.009698 -0.002282 0.000000 0.000000 0.000000
# 2 -0.009698 0.018817 -0.002282 0.000000 0.000000 0.000000
# 3 -0.002282 -0.002282 0.012021 0.000000 0.000000 0.000000
# 4 0.000000 0.000000 0.000000 0.040325 0.000000 0.000000
# 5 0.000000 0.000000 0.000000 0.000000 0.040325 0.000000
# 6 0.000000 0.000000 0.000000 0.000000 0.000000 0.032846
#
#
# Mechanical properties :
#
#
# Convention : Reuss Voigt Hill
#
# Bulk Modulus (GPa) = 47.32380 47.36467 47.34423
# Shear Modulus (GPa) = 25.16130 26.61581 25.88855
#
# Velocity S-wave (km/s) = 3.59753 3.70005 3.64915
# Velocity P-wave (km/s) = 6.44966 6.52815 6.48903
#
# Compressibility (1/GPa) = 0.02113102
#
# Stress axis : x y z
#
# Youngs Moduli (GPa) = 53.14417 53.14417 83.18839
#
# Poissons Ratio (x) = 0.51541 0.18981
# Poissons Ratio (y) = 0.51541 0.18981
# Poissons Ratio (z) = 0.12126 0.12126
#
# Static dielectric constant tensor:
#      x y z
#    x 3.444530 0.000000 0.000000 
#    y 0.000000 3.444530 0.000000 
#    z 0.000000 0.000000 3.863250 
# 
# 
# High freq. dielectric constant tensor:
#      x y z
#    x 1.746240 0.000000 0.000000 
#    y 0.000000 1.746240 0.000000 
#    z 0.000000 0.000000 1.774820 
# 
# From -- ./inp_files/6752.got.cif
#   From: 2010.03.12/outbox.cif.g09.slc.cpg/sg128_4_cif.got.tgz:6752.got - 2010.04.06 17:11:05.
