data_PCOD8314274
_publ_section_title
;
Structure prediction by ZEFSAII (Michael W. Deem and Ramdas Pophale) SiO2 
 PCOD8314274
Probable space group: P 4/M B M
;
_chemical_formula_sum "Si O2"
_cell_formula_units_Z 96
_cell_length_a 14.083690
_cell_length_b 14.083690
_cell_length_c 23.306004
_cell_angle_alpha 90.000000
_cell_angle_beta 90.000000
_cell_angle_gamma 90.000000
_cell_volume 4622.753445
_symmetry_space_group_name_H-M "P 4/M B M"
_symmetry_group_IT_number 127
_symmetry_cell_setting 'tetragonal'
loop_
_space_group_symop_operation_xyz
x,y,z
-y,x,z
-x,-y,z
y,-x,z
1/2+x,1/2-y,-z
1/2-x,1/2+y,-z
1/2+y,1/2+x,-z
1/2-y,1/2-x,-z
-x,-y,-z
y,-x,-z
x,y,-z
-y,x,-z
1/2-x,1/2+y,z
1/2+x,1/2-y,z
1/2-y,1/2-x,z
1/2+y,1/2+x,z
loop_
_atom_site_type_symbol
_atom_site_label
_atom_site_fract_x
_atom_site_fract_y
_atom_site_fract_z
Si Si1 0.256252 0.093424 0.748520
Si Si2 0.158790 0.011483 0.640530
Si Si3 0.114498 0.227214 0.936322
Si Si4 0.999370 0.653043 0.567805
Si Si5 0.650779 0.997887 0.857126
Si Si6 0.606256 0.612539 0.833929
O O1 0.330798 0.169203 0.721556
O O2 0.212396 0.023714 0.700968
O O3 0.173267 0.152721 0.782101
O O4 0.306228 0.028901 0.796119
O O5 0.086869 0.100653 0.634700
O O6 0.241019 0.008445 0.592860
O O7 0.198180 0.301821 0.941330
O O8 0.021767 0.272190 0.905926
O O9 0.149241 0.139804 0.896478
O O10 0.086578 0.190771 0.000000
O O11 0.998214 0.664687 0.500000
O O12 0.902790 0.597211 0.587393
O O13 0.090249 0.590249 0.586989
O O14 0.591055 0.091055 0.843788
O O15 0.586980 0.913021 0.882507
O O16 0.495645 0.632350 0.826460
#
# Coordination Sequence:
#
# PCOD8314274 Si02
#       6
#    16  16  16  16  16  16
#     4  11  22  39  62  87 116 156 207 260 317 381
#     4  11  25  42  61  94 138 178 222 272 326 393
#     4  10  21  38  59  83 109 140 188 248 310 383
#     4   9  20  42  71 102 138 180 227 278 326 373
#     4   9  19  37  60  85 111 142 186 246 315 381
#     4  11  22  38  57  77 110 152 192 241 307 378
#
# _framework density 20.766843999999999
#
# number of rings (size 3 to 8) (size 9 to 14) (size 15 to 20)
#    0.000    1.833    1.667    2.500    0.000    5.000 
#    0.000    6.667    0.000    0.000    0.000    0.000 
#    0.000    0.000    0.000    0.000    0.000    0.000 
#
# Total GULP energy -1189448.149263 kJ/mol
# GULP energy per Si atom -12390.084888 kJ/mol
# Density = 2.071958 g / cm^3
# Si number density = 20.766844 Si / 1000 Ang^3
#
#
#
# Elastic Constant Matrix: (Units=GPa)
#
#
# Indices 1 2 3 4 5 6 
#
# 1 104.2351 34.2605 38.7535 0.0000 0.0000 0.0000
# 2 34.2605 104.2351 38.7535 0.0000 0.0000 0.0000
# 3 38.7535 38.7535 94.1201 0.0000 0.0000 0.0000
# 4 0.0000 0.0000 0.0000 33.7646 0.0000 0.0000
# 5 0.0000 0.0000 0.0000 0.0000 33.7646 0.0000
# 6 0.0000 0.0000 0.0000 0.0000 0.0000 18.5556
#
#
#
# Elastic Compliance Matrix: (Units=1/GPa)
#
#
# Indices 1 2 3 4 5 6 
#
# 1 0.011837 -0.002454 -0.003863 0.000000 0.000000 0.000000
# 2 -0.002454 0.011837 -0.003863 0.000000 0.000000 0.000000
# 3 -0.003863 -0.003863 0.013806 0.000000 0.000000 0.000000
# 4 0.000000 0.000000 0.000000 0.029617 0.000000 0.000000
# 5 0.000000 0.000000 0.000000 0.000000 0.029617 0.000000
# 6 0.000000 0.000000 0.000000 0.000000 0.000000 0.053892
#
#
# Mechanical properties :
#
#
# Convention : Reuss Voigt Hill
#
# Bulk Modulus (GPa) = 58.41748 58.45839 58.43794
# Shear Modulus (GPa) = 28.30102 29.93850 29.11976
#
# Velocity S-wave (km/s) = 3.69561 3.80102 3.74869
# Velocity P-wave (km/s) = 6.81185 6.89019 6.85113
#
# Compressibility (1/GPa) = 0.01711816
#
# Stress axis : x y z
#
# Youngs Moduli (GPa) = 84.48337 84.48337 72.43226
#
# Poissons Ratio (x) = 0.20734 0.27982
# Poissons Ratio (y) = 0.20734 0.27982
# Poissons Ratio (z) = 0.32637 0.32637
#
# Static dielectric constant tensor:
#      x y z
#    x 3.976190 0.000000 0.000000 
#    y 0.000000 3.976190 0.000000 
#    z 0.000000 0.000000 3.832520 
# 
# 
# High freq. dielectric constant tensor:
#      x y z
#    x 1.820340 0.000000 0.000000 
#    y 0.000000 1.820340 0.000000 
#    z 0.000000 0.000000 1.800110 
# 
# From -- ./inp_files/5779.got.cif
#   From: 2010.03.12/outbox.cif.g09.slc.cpg/sg127_3_cif.got.tgz:5779.got - 2010.04.06 17:03:15.
