data_PCOD8314362
_publ_section_title
;
Structure prediction by ZEFSAII (Michael W. Deem and Ramdas Pophale) SiO2 
 PCOD8314362
Probable space group: P 4/M B M
;
_chemical_formula_sum "Si O2"
_cell_formula_units_Z 64
_cell_length_a 15.062552
_cell_length_b 15.062552
_cell_length_c 15.840646
_cell_angle_alpha 90.000000
_cell_angle_beta 90.000000
_cell_angle_gamma 90.000000
_cell_volume 3593.933253
_symmetry_space_group_name_H-M "P 4/M B M"
_symmetry_group_IT_number 127
_symmetry_cell_setting 'tetragonal'
loop_
_space_group_symop_operation_xyz
x,y,z
-y,x,z
-x,-y,z
y,-x,z
1/2+x,1/2-y,-z
1/2-x,1/2+y,-z
1/2+y,1/2+x,-z
1/2-y,1/2-x,-z
-x,-y,-z
y,-x,-z
x,y,-z
-y,x,-z
1/2-x,1/2+y,z
1/2+x,1/2-y,z
1/2-y,1/2-x,z
1/2+y,1/2+x,z
loop_
_atom_site_type_symbol
_atom_site_label
_atom_site_fract_x
_atom_site_fract_y
_atom_site_fract_z
Si Si1 0.719403 0.780598 0.100027
Si Si2 0.857457 0.019993 0.000000
Si Si3 0.852507 0.998029 0.317787
Si Si4 0.145982 0.001967 0.500000
Si Si5 0.867442 0.632559 0.899322
Si Si6 0.481396 0.243394 0.153774
O O1 0.792791 0.707210 0.126794
O O2 0.622853 0.758143 0.136794
O O3 0.712469 0.787532 0.000000
O O4 0.803531 0.032620 0.085315
O O5 0.924417 0.100040 0.000000
O O6 0.777126 0.997969 0.247876
O O7 0.911876 0.085772 0.307455
O O8 0.802103 0.997283 0.410051
O O9 0.085408 0.087749 0.500000
O O10 0.964441 0.652080 0.858435
O O11 0.874327 0.625674 0.000000
#
# Coordination Sequence:
#
# PCOD8314362 Si02
#       6
#     8   8  16   8   8  16
#     4  11  22  37  53  72 104 140 175 220 265 304
#     4  11  20  30  48  73  98 124 160 213 270 311
#     4   9  16  28  49  77 104 129 165 215 272 326
#     4   7  12  24  44  72 104 131 154 200 274 335
#     4  11  22  37  53  72 104 140 175 220 265 304
#     4  12  22  34  51  72 100 140 178 211 252 303
#
# _framework density 17.807787000000001
#
# number of rings (size 3 to 8) (size 9 to 14) (size 15 to 20)
#    0.000    1.750    2.500    6.000    0.000    2.500 
#    0.000    1.250    0.000    1.500    0.000    7.000 
#    0.000    2.000    0.000    0.000    0.000    0.000 
#
# Total GULP energy -792867.601155 kJ/mol
# GULP energy per Si atom -12388.556268 kJ/mol
# Density = 1.776726 g / cm^3
# Si number density = 17.807787 Si / 1000 Ang^3
#
#
#
# Elastic Constant Matrix: (Units=GPa)
#
#
# Indices 1 2 3 4 5 6 
#
# 1 37.5459 -6.4132 16.2231 0.0000 0.0000 0.0000
# 2 -6.4132 37.5458 16.2233 0.0000 0.0000 0.0000
# 3 16.2231 16.2233 157.5004 0.0000 0.0000 0.0000
# 4 0.0000 0.0000 0.0000 8.3084 0.0000 0.0000
# 5 0.0000 0.0000 0.0000 0.0000 8.3021 0.0000
# 6 0.0000 0.0000 0.0000 0.0000 0.0000 33.5853
#
#
#
# Elastic Compliance Matrix: (Units=1/GPa)
#
#
# Indices 1 2 3 4 5 6 
#
# 1 0.029366 0.006617 -0.003706 0.000000 0.000000 0.000000
# 2 0.006617 0.029366 -0.003706 0.000000 0.000000 0.000000
# 3 -0.003706 -0.003706 0.007113 0.000000 0.000000 0.000000
# 4 0.000000 0.000000 0.000000 0.120360 0.000000 0.000000
# 5 0.000000 0.000000 0.000000 0.000000 0.120451 0.000000
# 6 0.000000 0.000000 0.000000 0.000000 0.000000 0.029775
#
#
# Mechanical properties :
#
#
# Convention : Reuss Voigt Hill
#
# Bulk Modulus (GPa) = 15.56328 31.62872 23.59600
# Shear Modulus (GPa) = 13.91058 23.80977 18.86017
#
# Velocity S-wave (km/s) = 2.79794 3.66053 3.25791
# Velocity P-wave (km/s) = 4.38138 5.97207 5.23747
#
# Compressibility (1/GPa) = 0.06425379
#
# Stress axis : x y z
#
# Youngs Moduli (GPa) = 34.05312 34.05303 140.59267
#
# Poissons Ratio (x) = -0.22534 0.52109
# Poissons Ratio (y) = -0.22535 0.52110
# Poissons Ratio (z) = 0.12622 0.12622
#
# Static dielectric constant tensor:
#      x y z
#    x 3.194030 0.000000 0.000000 
#    y 0.000000 3.194030 0.000000 
#    z 0.000000 0.000000 3.675040 
# 
# 
# High freq. dielectric constant tensor:
#      x y z
#    x 1.665440 0.000000 0.000000 
#    y 0.000000 1.665440 0.000000 
#    z 0.000000 0.000000 1.692330 
# 
# From -- ./inp_files/4906.got.cif
#   From: 2010.03.12/outbox.cif.g09.slc.cpg/sg127_3_cif.got.tgz:4906.got - 2010.04.06 17:03:15.
