data_PCOD8314320
_publ_section_title
;
Structure prediction by ZEFSAII (Michael W. Deem and Ramdas Pophale) SiO2 
 PCOD8314320
Probable space group: P 4/M B M
;
_chemical_formula_sum "Si O2"
_cell_formula_units_Z 88
_cell_length_a 13.483648
_cell_length_b 13.483648
_cell_length_c 26.215107
_cell_angle_alpha 90.000000
_cell_angle_beta 90.000000
_cell_angle_gamma 90.000000
_cell_volume 4766.136186
_symmetry_space_group_name_H-M "P 4/M B M"
_symmetry_group_IT_number 127
_symmetry_cell_setting 'tetragonal'
loop_
_space_group_symop_operation_xyz
x,y,z
-y,x,z
-x,-y,z
y,-x,z
1/2+x,1/2-y,-z
1/2-x,1/2+y,-z
1/2+y,1/2+x,-z
1/2-y,1/2-x,-z
-x,-y,-z
y,-x,-z
x,y,-z
-y,x,-z
1/2-x,1/2+y,z
1/2+x,1/2-y,z
1/2-y,1/2-x,z
1/2+y,1/2+x,z
loop_
_atom_site_type_symbol
_atom_site_label
_atom_site_fract_x
_atom_site_fract_y
_atom_site_fract_z
Si Si1 0.897861 0.872335 0.444176
Si Si2 0.226932 0.880450 0.342059
Si Si3 0.661879 0.512005 0.000000
Si Si4 0.498914 0.162873 0.191785
Si Si5 0.259771 0.081227 0.703980
Si Si6 0.487660 0.665444 0.110878
O O1 0.864912 0.830968 0.500000
O O2 0.849317 0.810489 0.398326
O O3 0.015389 0.863556 0.438909
O O4 0.335385 0.835385 0.333995
O O5 0.153915 0.835369 0.298407
O O6 0.237310 0.997473 0.337442
O O7 0.589481 0.603819 0.000000
O O8 0.718532 0.516228 0.054427
O O9 0.596956 0.096956 0.202769
O O10 0.468797 0.226410 0.241151
O O11 0.522111 0.242966 0.148755
O O12 0.408195 0.091806 0.174989
O O13 0.358703 0.141298 0.688306
O O14 0.395339 0.590106 0.118552
#
# Coordination Sequence:
#
# PCOD8314320 Si02
#       6
#    16  16   8  16  16  16
#     4   9  17  32  54  79 109 141 173 221 279 321
#     4  11  21  35  59  83 106 145 186 222 269 317
#     4   7  12  28  52  77 110 142 172 221 274 319
#     4  10  22  39  55  74 108 150 182 219 275 326
#     4  10  23  39  55  81 111 141 182 224 269 325
#     4   9  18  33  56  85 110 139 182 227 273 320
#
# _framework density 18.463591999999998
#
# number of rings (size 3 to 8) (size 9 to 14) (size 15 to 20)
#    0.000    2.455    1.818    2.182    2.545    2.545 
#    0.000    0.909    0.000    4.909    0.000    1.273 
#    0.000    0.000    0.000    0.000    0.000    0.000 
#
# Total GULP energy -1090291.794587 kJ/mol
# GULP energy per Si atom -12389.679484 kJ/mol
# Density = 1.842157 g / cm^3
# Si number density = 18.463592 Si / 1000 Ang^3
#
#
#
# Elastic Constant Matrix: (Units=GPa)
#
#
# Indices 1 2 3 4 5 6 
#
# 1 74.4383 20.2149 35.4825 0.0000 0.0000 0.0000
# 2 20.2149 74.4383 35.4825 0.0000 0.0000 0.0000
# 3 35.4825 35.4825 116.5819 0.0000 0.0000 0.0000
# 4 0.0000 0.0000 0.0000 18.1642 0.0000 0.0000
# 5 0.0000 0.0000 0.0000 0.0000 18.1642 0.0000
# 6 0.0000 0.0000 0.0000 0.0000 0.0000 16.1493
#
#
#
# Elastic Compliance Matrix: (Units=1/GPa)
#
#
# Indices 1 2 3 4 5 6 
#
# 1 0.016065 -0.002377 -0.004166 0.000000 0.000000 0.000000
# 2 -0.002377 0.016065 -0.004166 0.000000 0.000000 0.000000
# 3 -0.004166 -0.004166 0.011114 0.000000 0.000000 0.000000
# 4 0.000000 0.000000 0.000000 0.055053 0.000000 0.000000
# 5 0.000000 0.000000 0.000000 0.000000 0.055053 0.000000
# 6 0.000000 0.000000 0.000000 0.000000 0.000000 0.061922
#
#
# Mechanical properties :
#
#
# Convention : Reuss Voigt Hill
#
# Bulk Modulus (GPa) = 45.81726 49.75758 47.78742
# Shear Modulus (GPa) = 20.49455 22.11410 21.30432
#
# Velocity S-wave (km/s) = 3.33528 3.46455 3.40053
# Velocity P-wave (km/s) = 6.30086 6.55833 6.43089
#
# Compressibility (1/GPa) = 0.02182584
#
# Stress axis : x y z
#
# Youngs Moduli (GPa) = 62.24595 62.24595 89.97941
#
# Poissons Ratio (x) = 0.14795 0.37487
# Poissons Ratio (y) = 0.14795 0.37487
# Poissons Ratio (z) = 0.25933 0.25933
#
# Static dielectric constant tensor:
#      x y z
#    x 3.219030 0.000000 0.000000 
#    y 0.000000 3.219030 0.000000 
#    z 0.000000 0.000000 3.647080 
# 
# 
# High freq. dielectric constant tensor:
#      x y z
#    x 1.700120 0.000000 0.000000 
#    y 0.000000 1.700120 0.000000 
#    z 0.000000 0.000000 1.726240 
# 
# From -- ./inp_files/6066.got.cif
#   From: 2010.03.12/outbox.cif.g09.slc.cpg/sg127_4_cif.got.tgz:6066.got - 2010.04.06 17:03:15.
