data_PCOD8314836
_publ_section_title
;
Structure prediction by ZEFSAII (Michael W. Deem and Ramdas Pophale) SiO2 
 PCOD8314836
Probable space group: P 4/M N C
;
_chemical_formula_sum "Si O2"
_cell_formula_units_Z 48
_cell_length_a 7.978968
_cell_length_b 7.978968
_cell_length_c 33.269179
_cell_angle_alpha 90.000000
_cell_angle_beta 90.000000
_cell_angle_gamma 90.000000
_cell_volume 2118.046694
_symmetry_space_group_name_H-M "P 4/M N C"
_symmetry_group_IT_number 128
_symmetry_cell_setting 'tetragonal'
loop_
_space_group_symop_operation_xyz
x,y,z
-y,x,z
-x,-y,z
y,-x,z
1/2+x,1/2-y,1/2-z
1/2-x,1/2+y,1/2-z
1/2+y,1/2+x,1/2-z
1/2-y,1/2-x,1/2-z
-x,-y,-z
y,-x,-z
x,y,-z
-y,x,-z
1/2-x,1/2+y,1/2+z
1/2+x,1/2-y,1/2+z
1/2-y,1/2-x,1/2+z
1/2+y,1/2+x,1/2+z
loop_
_atom_site_type_symbol
_atom_site_label
_atom_site_fract_x
_atom_site_fract_y
_atom_site_fract_z
Si Si1 0.265386 0.079622 0.287723
Si Si2 0.500000 0.000000 0.355728
Si Si3 0.264479 0.915137 0.500000
Si Si4 0.918072 0.735184 0.923531
O O1 0.385180 0.114821 0.250000
O O2 0.372614 0.107315 0.328177
O O3 0.111861 0.206863 0.286682
O O4 0.608220 0.127134 0.383170
O O5 0.379664 0.882539 0.538662
O O6 0.106510 0.791740 0.500000
O O7 0.109966 0.792471 0.924585
#
# Coordination Sequence:
#
# PCOD8314836 Si02
#       4
#    16   8   8  16
#     4  11  24  43  68  96 129 171 217 267 324 387
#     4  12  23  41  64  94 132 166 210 263 319 384
#     4  11  24  43  66  91 122 164 212 261 316 379
#     4  11  24  41  64  93 126 166 210 260 317 377
#
# _framework density 22.662386999999999
#
# number of rings (size 3 to 8) (size 9 to 14) (size 15 to 20)
#    0.000    0.833    0.000    7.500    0.000    3.333 
#    0.000    6.667    0.000    0.000    0.000    0.000 
#    0.000    0.000    0.000    0.000    0.000    0.000 
#
# Total GULP energy -595475.557709 kJ/mol
# GULP energy per Si atom -12405.740786 kJ/mol
# Density = 2.261081 g / cm^3
# Si number density = 22.662387 Si / 1000 Ang^3
#
#
#
# Elastic Constant Matrix: (Units=GPa)
#
#
# Indices 1 2 3 4 5 6 
#
# 1 121.0578 50.4129 77.0823 0.0000 0.0000 0.0000
# 2 50.4129 121.0583 77.0824 0.0000 0.0000 0.0000
# 3 77.0823 77.0824 216.4209 0.0000 0.0000 0.0000
# 4 0.0000 0.0000 0.0000 12.6249 0.0000 0.0000
# 5 0.0000 0.0000 0.0000 0.0000 12.6297 0.0000
# 6 0.0000 0.0000 0.0000 0.0000 0.0000 38.9023
#
#
#
# Elastic Compliance Matrix: (Units=1/GPa)
#
#
# Indices 1 2 3 4 5 6 
#
# 1 0.011367 -0.002788 -0.003056 0.000000 0.000000 0.000000
# 2 -0.002788 0.011367 -0.003056 0.000000 0.000000 0.000000
# 3 -0.003056 -0.003056 0.006797 0.000000 0.000000 0.000000
# 4 0.000000 0.000000 0.000000 0.079209 0.000000 0.000000
# 5 0.000000 0.000000 0.000000 0.000000 0.079179 0.000000
# 6 0.000000 0.000000 0.000000 0.000000 0.000000 0.025705
#
#
# Mechanical properties :
#
#
# Convention : Reuss Voigt Hill
#
# Bulk Modulus (GPa) = 85.22952 96.41024 90.81988
# Shear Modulus (GPa) = 21.24638 29.76199 25.50419
#
# Velocity S-wave (km/s) = 3.06521 3.62785 3.35833
# Velocity P-wave (km/s) = 7.08642 7.75775 7.42967
#
# Compressibility (1/GPa) = 0.01173302
#
# Stress axis : x y z
#
# Youngs Moduli (GPa) = 87.97243 87.97277 147.11828
#
# Poissons Ratio (x) = 0.24527 0.44954
# Poissons Ratio (y) = 0.24527 0.44954
# Poissons Ratio (z) = 0.26881 0.26881
#
# Static dielectric constant tensor:
#      x y z
#    x 4.055430 0.000000 0.000000 
#    y 0.000000 4.055430 0.000000 
#    z 0.000000 0.000000 4.149280 
# 
# 
# High freq. dielectric constant tensor:
#      x y z
#    x 1.904570 0.000000 0.000000 
#    y 0.000000 1.904570 0.000000 
#    z 0.000000 0.000000 1.903880 
# 
# From -- ./inp_files/7031.got.cif
#   From: 2010.03.12/outbox.cif.g09.slc.cpg/sg128_4_cif.got.tgz:7031.got - 2010.04.06 17:11:05.
