data_PCOD8314226
_publ_section_title
;
Structure prediction by ZEFSAII (Michael W. Deem and Ramdas Pophale) SiO2 
 PCOD8314226
Probable space group: P 4/M B M
;
_chemical_formula_sum "Si O2"
_cell_formula_units_Z 64
_cell_length_a 19.496808
_cell_length_b 19.496808
_cell_length_c 8.847485
_cell_angle_alpha 90.000000
_cell_angle_beta 90.000000
_cell_angle_gamma 90.000000
_cell_volume 3363.154856
_symmetry_space_group_name_H-M "P 4/M B M"
_symmetry_group_IT_number 127
_symmetry_cell_setting 'tetragonal'
loop_
_space_group_symop_operation_xyz
x,y,z
-y,x,z
-x,-y,z
y,-x,z
1/2+x,1/2-y,-z
1/2-x,1/2+y,-z
1/2+y,1/2+x,-z
1/2-y,1/2-x,-z
-x,-y,-z
y,-x,-z
x,y,-z
-y,x,-z
1/2-x,1/2+y,z
1/2+x,1/2-y,z
1/2-y,1/2-x,z
1/2+y,1/2+x,z
loop_
_atom_site_type_symbol
_atom_site_label
_atom_site_fract_x
_atom_site_fract_y
_atom_site_fract_z
Si Si1 0.984636 0.759297 0.173675
Si Si2 0.272654 0.117479 0.321631
Si Si3 0.217759 0.830348 0.823025
Si Si4 0.988352 0.110888 0.331902
O O1 0.906502 0.760818 0.237813
O O2 0.016897 0.834226 0.199340
O O3 0.039928 0.711642 0.261629
O O4 0.984925 0.737449 0.000000
O O5 0.267387 0.115781 0.500000
O O6 0.335905 0.164096 0.265453
O O7 0.201248 0.150958 0.260314
O O8 0.283271 0.783271 0.789647
O O9 0.200144 0.834470 0.000000
O O10 0.985015 0.144752 0.500000
O O11 0.926184 0.060105 0.310922
#
# Coordination Sequence:
#
# PCOD8314226 Si02
#       4
#    16  16  16  16
#     4  11  21  31  49  75  99 128 165 205 252 300
#     4  10  21  36  54  76 102 134 171 209 251 300
#     4   9  19  36  55  76 104 135 169 210 253 300
#     4   9  18  31  45  64  95 133 166 197 237 287
#
# _framework density 19.02975
#
# number of rings (size 3 to 8) (size 9 to 14) (size 15 to 20)
#    0.000    2.250    0.000    3.750    0.000    8.500 
#    0.000    1.250    0.000    0.750    0.000    5.250 
#    0.000    0.000    0.000    0.000    0.000    0.000 
#
# Total GULP energy -793000.170204 kJ/mol
# GULP energy per Si atom -12390.627659 kJ/mol
# Density = 1.898644 g / cm^3
# Si number density = 19.029750 Si / 1000 Ang^3
#
#
#
# Elastic Constant Matrix: (Units=GPa)
#
#
# Indices 1 2 3 4 5 6 
#
# 1 70.6194 -1.1329 12.9390 0.0000 0.0000 0.0000
# 2 -1.1329 70.6194 12.9390 0.0000 0.0000 0.0000
# 3 12.9390 12.9390 47.7078 0.0000 0.0000 0.0000
# 4 0.0000 0.0000 0.0000 24.3442 0.0000 0.0000
# 5 0.0000 0.0000 0.0000 0.0000 24.3442 0.0000
# 6 0.0000 0.0000 0.0000 0.0000 0.0000 10.8184
#
#
#
# Elastic Compliance Matrix: (Units=1/GPa)
#
#
# Indices 1 2 3 4 5 6 
#
# 1 0.014973 0.001036 -0.004342 0.000000 0.000000 0.000000
# 2 0.001036 0.014973 -0.004342 0.000000 0.000000 0.000000
# 3 -0.004342 -0.004342 0.023316 0.000000 0.000000 0.000000
# 4 0.000000 0.000000 0.000000 0.041077 0.000000 0.000000
# 5 0.000000 0.000000 0.000000 0.000000 0.041077 0.000000
# 6 0.000000 0.000000 0.000000 0.000000 0.000000 0.092436
#
#
# Mechanical properties :
#
#
# Convention : Reuss Voigt Hill
#
# Bulk Modulus (GPa) = 26.33949 26.49296 26.41622
# Shear Modulus (GPa) = 19.54638 22.84814 21.19726
#
# Velocity S-wave (km/s) = 3.20839 3.46880 3.34114
# Velocity P-wave (km/s) = 5.25322 5.47682 5.36618
#
# Compressibility (1/GPa) = 0.03796581
#
# Stress axis : x y z
#
# Youngs Moduli (GPa) = 66.78910 66.78910 42.88908
#
# Poissons Ratio (x) = -0.06917 0.18621
# Poissons Ratio (y) = -0.06917 0.18621
# Poissons Ratio (z) = 0.28997 0.28997
#
# Static dielectric constant tensor:
#      x y z
#    x 3.613700 0.000000 0.000000 
#    y 0.000000 3.613700 0.000000 
#    z 0.000000 0.000000 3.397170 
# 
# 
# High freq. dielectric constant tensor:
#      x y z
#    x 1.730120 0.000000 0.000000 
#    y 0.000000 1.730120 0.000000 
#    z 0.000000 0.000000 1.733240 
# 
# From -- ./inp_files/1362.got.cif
#   From: 2010.03.12/outbox.cif.g09.slc.cpg/sg127_1_cif.got.tgz:1362.got - 2010.04.06 17:03:15.
