data_PCOD8314724
_publ_section_title
;
Structure prediction by ZEFSAII (Michael W. Deem and Ramdas Pophale) SiO2 
 PCOD8314724
Probable space group: P 4/M N C
;
_chemical_formula_sum "Si O2"
_cell_formula_units_Z 112
_cell_length_a 14.902409
_cell_length_b 14.902409
_cell_length_c 22.474658
_cell_angle_alpha 90.000000
_cell_angle_beta 90.000000
_cell_angle_gamma 90.000000
_cell_volume 4991.212368
_symmetry_space_group_name_H-M "P 4/M N C"
_symmetry_group_IT_number 128
_symmetry_cell_setting 'tetragonal'
loop_
_space_group_symop_operation_xyz
x,y,z
-y,x,z
-x,-y,z
y,-x,z
1/2+x,1/2-y,1/2-z
1/2-x,1/2+y,1/2-z
1/2+y,1/2+x,1/2-z
1/2-y,1/2-x,1/2-z
-x,-y,-z
y,-x,-z
x,y,-z
-y,x,-z
1/2-x,1/2+y,1/2+z
1/2+x,1/2-y,1/2+z
1/2-y,1/2-x,1/2+z
1/2+y,1/2+x,1/2+z
loop_
_atom_site_type_symbol
_atom_site_label
_atom_site_fract_x
_atom_site_fract_y
_atom_site_fract_z
Si Si1 0.378182 0.585373 0.641890
Si Si2 0.634403 0.119678 0.567593
Si Si3 0.248183 0.205966 0.932919
Si Si4 0.558587 0.756573 0.067362
Si Si5 0.599887 0.035411 0.189985
Si Si6 0.141330 0.027375 0.669814
Si Si7 0.760382 0.398965 0.737784
O O1 0.376311 0.477998 0.635938
O O2 0.316764 0.630405 0.592573
O O3 0.334889 0.612860 0.704639
O O4 0.590205 0.130753 0.500000
O O5 0.712320 0.192893 0.574302
O O6 0.573987 0.133910 0.626463
O O7 0.670283 0.019029 0.572430
O O8 0.348428 0.203631 0.904653
O O9 0.256278 0.175548 0.000000
O O10 0.530030 0.665201 0.100275
O O11 0.576731 0.727091 0.000000
O O12 0.599749 0.099749 0.250000
O O13 0.500000 0.000000 0.181200
O O14 0.666519 0.952991 0.200305
O O15 0.235714 0.046310 0.702706
O O16 0.069440 0.103344 0.686858
O O17 0.799990 0.299990 0.750000
#
# Coordination Sequence:
#
# PCOD8314724 Si02
#       7
#    16  16  16  16  16  16  16
#     4  11  25  45  70  98 132 179 232 291 350 419
#     4  10  22  41  67  98 138 182 234 292 353 427
#     4  10  22  42  66  98 136 181 234 290 351 423
#     4  10  21  39  65  97 137 180 225 284 351 424
#     4  11  23  41  65  99 134 178 228 290 352 423
#     4  11  24  41  64  95 132 176 227 284 345 423
#     4  12  24  43  68  93 133 175 223 289 357 428
#
# _framework density 22.439436000000001
#
# number of rings (size 3 to 8) (size 9 to 14) (size 15 to 20)
#    0.000    1.286    1.429    4.286    2.000    3.714 
#    0.000    7.143    0.000    0.000    0.000    0.000 
#    0.000    0.000    0.000    0.000    0.000    0.000 
#
# Total GULP energy -1388047.667253 kJ/mol
# GULP energy per Si atom -12393.282743 kJ/mol
# Density = 2.238836 g / cm^3
# Si number density = 22.439436 Si / 1000 Ang^3
#
#
#
# Elastic Constant Matrix: (Units=GPa)
#
#
# Indices 1 2 3 4 5 6 
#
# 1 112.4661 53.6659 41.6908 0.0000 0.0000 0.0000
# 2 53.6659 112.4661 41.6908 0.0000 0.0000 0.0000
# 3 41.6908 41.6908 120.1362 0.0000 0.0000 0.0000
# 4 0.0000 0.0000 0.0000 31.7400 0.0000 0.0000
# 5 0.0000 0.0000 0.0000 0.0000 31.7400 0.0000
# 6 0.0000 0.0000 0.0000 0.0000 0.0000 21.0265
#
#
#
# Elastic Compliance Matrix: (Units=1/GPa)
#
#
# Indices 1 2 3 4 5 6 
#
# 1 0.012148 -0.004859 -0.002529 0.000000 0.000000 0.000000
# 2 -0.004859 0.012148 -0.002529 0.000000 0.000000 0.000000
# 3 -0.002529 -0.002529 0.010079 0.000000 0.000000 0.000000
# 4 0.000000 0.000000 0.000000 0.031506 0.000000 0.000000
# 5 0.000000 0.000000 0.000000 0.000000 0.031506 0.000000
# 6 0.000000 0.000000 0.000000 0.000000 0.000000 0.047559
#
#
# Mechanical properties :
#
#
# Convention : Reuss Voigt Hill
#
# Bulk Modulus (GPa) = 68.77874 68.79592 68.78733
# Shear Modulus (GPa) = 29.47623 30.76936 30.12279
#
# Velocity S-wave (km/s) = 3.62828 3.70701 3.66786
# Velocity P-wave (km/s) = 6.94766 7.00340 6.97559
#
# Compressibility (1/GPa) = 0.01453938
#
# Stress axis : x y z
#
# Youngs Moduli (GPa) = 82.31950 82.31950 99.21161
#
# Poissons Ratio (x) = 0.39999 0.25095
# Poissons Ratio (y) = 0.39999 0.25095
# Poissons Ratio (z) = 0.20822 0.20822
#
# Static dielectric constant tensor:
#      x y z
#    x 4.037630 0.000000 0.000000 
#    y 0.000000 4.037630 0.000000 
#    z 0.000000 0.000000 4.506830 
# 
# 
# High freq. dielectric constant tensor:
#      x y z
#    x 1.881280 0.000000 0.000000 
#    y 0.000000 1.881280 0.000000 
#    z 0.000000 0.000000 1.900470 
# 
# From -- ./inp_files/6454.got.cif
#   From: 2010.03.12/outbox.cif.g09.slc.cpg/sg128_4_cif.got.tgz:6454.got - 2010.04.06 17:11:05.
