data_PCOD8314766
_publ_section_title
;
Structure prediction by ZEFSAII (Michael W. Deem and Ramdas Pophale) SiO2 
 PCOD8314766
Probable space group: P 4/M N C
;
_chemical_formula_sum "Si O2"
_cell_formula_units_Z 120
_cell_length_a 19.724640
_cell_length_b 19.724640
_cell_length_c 14.469206
_cell_angle_alpha 90.000000
_cell_angle_beta 90.000000
_cell_angle_gamma 90.000000
_cell_volume 5629.409878
_symmetry_space_group_name_H-M "P 4/M N C"
_symmetry_group_IT_number 128
_symmetry_cell_setting 'tetragonal'
loop_
_space_group_symop_operation_xyz
x,y,z
-y,x,z
-x,-y,z
y,-x,z
1/2+x,1/2-y,1/2-z
1/2-x,1/2+y,1/2-z
1/2+y,1/2+x,1/2-z
1/2-y,1/2-x,1/2-z
-x,-y,-z
y,-x,-z
x,y,-z
-y,x,-z
1/2-x,1/2+y,1/2+z
1/2+x,1/2-y,1/2+z
1/2-y,1/2-x,1/2+z
1/2+y,1/2+x,1/2+z
loop_
_atom_site_type_symbol
_atom_site_label
_atom_site_fract_x
_atom_site_fract_y
_atom_site_fract_z
Si Si1 0.104412 0.458963 0.106976
Si Si2 0.174482 0.463869 0.605496
Si Si3 0.368200 0.241012 0.899213
Si Si4 0.261049 0.480980 0.107383
Si Si5 0.588106 0.566545 0.394490
Si Si6 0.902823 0.394965 0.147047
Si Si7 0.400078 0.711170 0.720445
Si Si8 0.751373 0.748628 0.250000
O O1 0.074624 0.390101 0.152099
O O2 0.183455 0.463075 0.128777
O O3 0.068632 0.527730 0.143648
O O4 0.087221 0.453370 0.000000
O O5 0.188306 0.441280 0.500000
O O6 0.158953 0.543394 0.610396
O O7 0.241445 0.451963 0.664899
O O8 0.439594 0.276796 0.868513
O O9 0.387116 0.162649 0.917069
O O10 0.307099 0.247771 0.827371
O O11 0.345602 0.269837 0.000000
O O12 0.301054 0.429246 0.175347
O O13 0.279591 0.465853 0.000000
O O14 0.513225 0.593448 0.374347
O O15 0.608506 0.581716 0.500000
O O16 0.638015 0.606021 0.326599
O O17 0.878142 0.378142 0.250000
O O18 0.326502 0.745098 0.709573
#
# Coordination Sequence:
#
# PCOD8314766 Si02
#       8
#    16  16  16  16  16  16  16   8
#     4   9  18  33  51  75 118 168 212 253 298 350
#     4  11  22  34  52  86 127 166 209 258 312 372
#     4  10  22  42  64  86 124 166 208 260 316 381
#     4   9  20  40  63  85 118 170 218 259 311 379
#     4   9  21  44  71  98 128 164 210 268 337 404
#     4  11  20  33  56  84 117 159 218 261 296 359
#     4  12  25  38  65  93 131 166 212 268 331 401
#     4  12  28  42  60 100 132 164 212 262 340 400
#
# _framework density 21.316621000000001
#
# number of rings (size 3 to 8) (size 9 to 14) (size 15 to 20)
#    0.000    1.733    0.667    5.600    1.867    4.800 
#    0.000    1.333    0.000    0.000    0.000    0.933 
#    0.000    0.000    0.000    0.000    0.000    0.000 
#
# Total GULP energy -1487597.037210 kJ/mol
# GULP energy per Si atom -12396.641977 kJ/mol
# Density = 2.126810 g / cm^3
# Si number density = 21.316621 Si / 1000 Ang^3
#
#
#
# Elastic Constant Matrix: (Units=GPa)
#
#
# Indices 1 2 3 4 5 6 
#
# 1 71.3027 4.9337 23.5157 0.0000 0.0000 0.0000
# 2 4.9337 71.3035 23.5167 0.0000 0.0000 0.0000
# 3 23.5157 23.5167 84.8261 0.0000 0.0000 0.0000
# 4 0.0000 0.0000 0.0000 29.6308 0.0000 0.0000
# 5 0.0000 0.0000 0.0000 0.0000 29.6307 0.0000
# 6 0.0000 0.0000 0.0000 0.0000 0.0000 26.7747
#
#
#
# Elastic Compliance Matrix: (Units=1/GPa)
#
#
# Indices 1 2 3 4 5 6 
#
# 1 0.015445 0.000378 -0.004387 0.000000 0.000000 0.000000
# 2 0.000378 0.015445 -0.004387 0.000000 0.000000 0.000000
# 3 -0.004387 -0.004387 0.014221 0.000000 0.000000 0.000000
# 4 0.000000 0.000000 0.000000 0.033749 0.000000 0.000000
# 5 0.000000 0.000000 0.000000 0.000000 0.033749 0.000000
# 6 0.000000 0.000000 0.000000 0.000000 0.000000 0.037349
#
#
# Mechanical properties :
#
#
# Convention : Reuss Voigt Hill
#
# Bulk Modulus (GPa) = 35.30958 36.81828 36.06393
# Shear Modulus (GPa) = 28.37871 28.90499 28.64185
#
# Velocity S-wave (km/s) = 3.65265 3.68636 3.66955
# Velocity P-wave (km/s) = 5.86425 5.95220 5.90839
#
# Compressibility (1/GPa) = 0.02832093
#
# Stress axis : x y z
#
# Youngs Moduli (GPa) = 64.74487 64.74506 70.31836
#
# Poissons Ratio (x) = -0.02448 0.30846
# Poissons Ratio (y) = -0.02448 0.30847
# Poissons Ratio (z) = 0.28401 0.28402
#
# Static dielectric constant tensor:
#      x y z
#    x 3.706870 0.000000 0.000000 
#    y 0.000000 3.706880 0.000000 
#    z 0.000000 0.000000 3.827640 
# 
# 
# High freq. dielectric constant tensor:
#      x y z
#    x 1.820380 0.000000 0.000000 
#    y 0.000000 1.820380 0.000000 
#    z 0.000000 0.000000 1.842250 
# 
# From -- ./inp_files/4102.got.cif
#   From: 2010.03.12/outbox.cif.g09.slc.cpg/sg128_3_cif.got.tgz:4102.got - 2010.04.06 17:11:05.
