data_PCOD8314547
_publ_section_title
;
Structure prediction by ZEFSAII (Michael W. Deem and Ramdas Pophale) SiO2 
 PCOD8314547
Probable space group: P 4/M N C
;
_chemical_formula_sum "Si O2"
_cell_formula_units_Z 96
_cell_length_a 25.220938
_cell_length_b 25.220938
_cell_length_c 8.951248
_cell_angle_alpha 90.000000
_cell_angle_beta 90.000000
_cell_angle_gamma 90.000000
_cell_volume 5693.850484
_symmetry_space_group_name_H-M "P 4/M N C"
_symmetry_group_IT_number 128
_symmetry_cell_setting 'tetragonal'
loop_
_space_group_symop_operation_xyz
x,y,z
-y,x,z
-x,-y,z
y,-x,z
1/2+x,1/2-y,1/2-z
1/2-x,1/2+y,1/2-z
1/2+y,1/2+x,1/2-z
1/2-y,1/2-x,1/2-z
-x,-y,-z
y,-x,-z
x,y,-z
-y,x,-z
1/2-x,1/2+y,1/2+z
1/2+x,1/2-y,1/2+z
1/2-y,1/2-x,1/2+z
1/2+y,1/2+x,1/2+z
loop_
_atom_site_type_symbol
_atom_site_label
_atom_site_fract_x
_atom_site_fract_y
_atom_site_fract_z
Si Si1 0.047292 0.751466 0.168580
Si Si2 0.057990 0.867389 0.171557
Si Si3 0.862801 0.054771 0.674670
Si Si4 0.637344 0.940805 0.169463
Si Si5 0.141875 0.437213 0.675300
Si Si6 0.940906 0.745984 0.329359
O O1 0.079630 0.806440 0.183735
O O2 0.081885 0.697685 0.191351
O O3 0.002996 0.751355 0.295207
O O4 0.021834 0.748357 0.000000
O O5 0.093539 0.903015 0.277636
O O6 0.997509 0.870680 0.226086
O O7 0.060899 0.887031 0.000000
O O8 0.869631 0.040437 0.500000
O O9 0.805009 0.081998 0.703198
O O10 0.595577 0.904424 0.250000
O O11 0.635677 0.001617 0.226538
O O12 0.619299 0.939536 0.000000
O O13 0.094816 0.405185 0.750000
O O14 0.138194 0.429819 0.500000
O O15 0.199450 0.415134 0.729101
O O16 0.932368 0.729346 0.500000
#
# Coordination Sequence:
#
# PCOD8314547 Si02
#       6
#    16  16  16  16  16  16
#     4   8  16  31  48  67  92 122 159 198 232 272
#     4  10  19  32  51  72  95 126 163 197 234 283
#     4  10  20  33  49  72 101 127 155 195 241 285
#     4   9  18  31  47  69  96 125 155 191 234 278
#     4  10  20  33  49  70  97 126 158 196 237 281
#     4   9  17  30  49  70  92 122 159 195 234 281
#
# _framework density 16.860296000000002
#
# number of rings (size 3 to 8) (size 9 to 14) (size 15 to 20)
#    0.000    2.667    0.000    3.000    0.000    6.667 
#    0.000    3.333    0.000    1.000    0.000    4.667 
#    0.000    0.000    0.000    0.000    0.000    0.000 
#
# Total GULP energy -1189447.451646 kJ/mol
# GULP energy per Si atom -12390.077621 kJ/mol
# Density = 1.682192 g / cm^3
# Si number density = 16.860296 Si / 1000 Ang^3
#
#
#
# Elastic Constant Matrix: (Units=GPa)
#
#
# Indices 1 2 3 4 5 6 
#
# 1 81.7650 48.6883 33.0192 0.0000 0.0000 0.0000
# 2 48.6883 81.7574 33.0243 0.0000 0.0000 0.0000
# 3 33.0192 33.0243 63.6130 0.0000 0.0000 0.0000
# 4 0.0000 0.0000 0.0000 26.1772 0.0000 0.0000
# 5 0.0000 0.0000 0.0000 0.0000 26.1775 0.0000
# 6 0.0000 0.0000 0.0000 0.0000 0.0000 -3.1661
#
#
#
# Elastic Compliance Matrix: (Units=1/GPa)
#
#
# Indices 1 2 3 4 5 6 
#
# 1 0.020315 -0.009919 -0.005396 0.000000 0.000000 0.000000
# 2 -0.009919 0.020319 -0.005400 0.000000 0.000000 0.000000
# 3 -0.005396 -0.005400 0.021324 0.000000 0.000000 0.000000
# 4 0.000000 0.000000 0.000000 0.038201 0.000000 0.000000
# 5 0.000000 0.000000 0.000000 0.000000 0.038201 0.000000
# 6 0.000000 0.000000 0.000000 0.000000 0.000000 -0.315848
#
#
# Mechanical properties :
#
#
# Convention : Reuss Voigt Hill
#
# Bulk Modulus (GPa) = 48.70999 50.73324 49.72161
# Shear Modulus (GPa) = -38.69530 17.33131 -10.68199
#
# Velocity S-wave (km/s) = -4.79587 3.20962 -2.51979
# Velocity P-wave (km/s) = 1.30923 6.62505 4.59223
#
# Compressibility (1/GPa) = 0.02052967
#
# Stress axis : x y z
#
# Youngs Moduli (GPa) = 49.22374 49.21392 46.89481
#
# Poissons Ratio (x) = 0.48814 0.25303
# Poissons Ratio (y) = 0.48824 0.25324
# Poissons Ratio (z) = 0.26560 0.26577
#
# Static dielectric constant tensor:
#      x y z
#    x 3.151880 0.000000 0.000000 
#    y 0.000000 3.151880 0.000000 
#    z 0.000000 0.000000 3.243030 
# 
# 
# High freq. dielectric constant tensor:
#      x y z
#    x 1.631270 0.000000 0.000000 
#    y 0.000000 1.631270 0.000000 
#    z 0.000000 0.000000 1.664170 
# 
# From -- ./inp_files/1512.got.cif
#   From: 2010.03.12/outbox.cif.g09.slc.cpg/sg128_1_cif.got.tgz:1512.got - 2010.04.06 17:11:05.
