data_PCOD8314919
_publ_section_title
;
Structure prediction by ZEFSAII (Michael W. Deem and Ramdas Pophale) SiO2 
 PCOD8314919
Probable space group: P 4/N M M
;
_chemical_formula_sum "Si O2"
_cell_formula_units_Z 128
_cell_length_a 17.543461
_cell_length_b 17.543461
_cell_length_c 24.394124
_cell_angle_alpha 90.000000
_cell_angle_beta 90.000000
_cell_angle_gamma 90.000000
_cell_volume 7507.853308
_symmetry_space_group_name_H-M "P 4/N M M"
_symmetry_group_IT_number 129
_symmetry_cell_setting 'tetragonal'
loop_
_space_group_symop_operation_xyz
x,y,z
1/2-y,x,z
1/2-x,1/2-y,z
y,1/2-x,z
1/2+x,-y,-z
-x,1/2+y,-z
1/2+y,1/2+x,-z
-y,-x,-z
-x,-y,-z
1/2+y,-x,-z
1/2+x,1/2+y,-z
-y,1/2+x,-z
1/2-x,y,z
x,1/2-y,z
1/2-y,1/2-x,z
y,x,z
loop_
_atom_site_type_symbol
_atom_site_label
_atom_site_fract_x
_atom_site_fract_y
_atom_site_fract_z
Si Si1 0.332327 0.050243 0.496985
Si Si2 0.078358 0.547604 0.178780
Si Si3 0.465358 0.338586 0.269934
Si Si4 0.335495 0.042528 0.094416
Si Si5 0.994092 0.382817 0.980342
Si Si6 0.666610 0.105419 0.444628
Si Si7 0.893317 0.013769 0.614254
Si Si8 0.033006 0.162537 0.863861
O O1 0.250000 0.088614 0.495488
O O2 0.389653 0.110348 0.522231
O O3 0.335501 0.981728 0.538790
O O4 0.352445 0.027395 0.435607
O O5 0.133996 0.535411 0.230865
O O6 0.125556 0.530868 0.123031
O O7 0.011266 0.488735 0.185197
O O8 0.035965 0.629779 0.174621
O O9 0.446200 0.250000 0.258162
O O10 0.388884 0.388884 0.259742
O O11 0.495162 0.346633 0.331508
O O12 0.250000 0.052781 0.116276
O O13 0.381580 0.118421 0.111279
O O14 0.334480 0.031907 0.029102
O O15 0.040597 0.459404 0.966664
O O16 0.997452 0.333532 0.925133
O O17 0.909316 0.409316 0.000000
O O18 0.653492 0.153492 0.500000
O O19 0.750000 0.128205 0.421078
O O20 0.604276 0.113473 0.396688
O O21 0.980279 0.980279 0.618907
O O22 0.052263 0.250000 0.846134
O O23 0.109971 0.109971 0.860347
#
# Coordination Sequence:
#
# PCOD8314919 Si02
#       8
#    16  16  16  16  16  16  16  16
#     4   9  16  26  42  65  93 124 155 188 230 278
#     4   9  18  33  50  68  91 125 165 194 224 275
#     4  10  20  34  53  75  98 125 158 196 236 277
#     4  10  18  28  45  68  94 123 155 192 233 276
#     4   9  15  27  46  69  94 123 161 195 226 274
#     4   9  17  29  45  65  89 118 155 197 237 278
#     4   9  17  30  47  66  91 124 159 194 233 281
#     4  10  19  32  52  76 100 125 156 197 244 292
#
# _framework density 17.048815000000001
#
# number of rings (size 3 to 8) (size 9 to 14) (size 15 to 20)
#    0.000    2.625    1.250    1.500    0.000    2.625 
#    0.000    0.625    0.000    9.000    0.000    0.875 
#    0.000    0.000    0.000    7.875    0.000    0.000 
#
# Total GULP energy -1585814.026575 kJ/mol
# GULP energy per Si atom -12389.172083 kJ/mol
# Density = 1.701001 g / cm^3
# Si number density = 17.048815 Si / 1000 Ang^3
#
#
#
# Elastic Constant Matrix: (Units=GPa)
#
#
# Indices 1 2 3 4 5 6 
#
# 1 109.0209 37.2992 14.6914 0.0000 0.0000 0.0000
# 2 37.2992 109.0209 14.6914 0.0000 0.0000 0.0000
# 3 14.6914 14.6914 44.8809 0.0000 0.0000 0.0000
# 4 0.0000 0.0000 0.0000 13.0375 0.0000 0.0000
# 5 0.0000 0.0000 0.0000 0.0000 13.0375 0.0000
# 6 0.0000 0.0000 0.0000 0.0000 0.0000 13.3402
#
#
#
# Elastic Compliance Matrix: (Units=1/GPa)
#
#
# Indices 1 2 3 4 5 6 
#
# 1 0.010629 -0.003314 -0.002395 0.000000 0.000000 0.000000
# 2 -0.003314 0.010629 -0.002395 0.000000 0.000000 0.000000
# 3 -0.002395 -0.002395 0.023849 0.000000 0.000000 0.000000
# 4 0.000000 0.000000 0.000000 0.076702 0.000000 0.000000
# 5 0.000000 0.000000 0.000000 0.000000 0.076702 0.000000
# 6 0.000000 0.000000 0.000000 0.000000 0.000000 0.074961
#
#
# Mechanical properties :
#
#
# Convention : Reuss Voigt Hill
#
# Bulk Modulus (GPa) = 34.60088 44.03185 39.31636
# Shear Modulus (GPa) = 16.70502 20.96577 18.83540
#
# Velocity S-wave (km/s) = 3.13363 3.51058 3.32745
# Velocity P-wave (km/s) = 5.78205 6.50502 6.15416
#
# Compressibility (1/GPa) = 0.02890100
#
# Stress axis : x y z
#
# Youngs Moduli (GPa) = 94.08241 94.08241 41.93067
#
# Poissons Ratio (x) = 0.31177 0.10041
# Poissons Ratio (y) = 0.31177 0.10041
# Poissons Ratio (z) = 0.22529 0.22529
#
# Static dielectric constant tensor:
#      x y z
#    x 3.258070 0.000000 0.000000 
#    y 0.000000 3.258070 0.000000 
#    z 0.000000 0.000000 3.126680 
# 
# 
# High freq. dielectric constant tensor:
#      x y z
#    x 1.643370 0.000000 0.000000 
#    y 0.000000 1.643370 0.000000 
#    z 0.000000 0.000000 1.641680 
# 
# From -- ./inp_files/7333.got.cif
#   From: 2010.03.12/outbox.cif.g09.slc.cpg/sg129_4_cif.got.tgz:7333.got - 2010.04.06 17:19:44.
