data_PCOD8314217
_publ_section_title
;
Structure prediction by ZEFSAII (Michael W. Deem and Ramdas Pophale) SiO2 
 PCOD8314217
Probable space group: P 4/M B M
;
_chemical_formula_sum "Si O2"
_cell_formula_units_Z 96
_cell_length_a 22.879108
_cell_length_b 22.879108
_cell_length_c 9.566538
_cell_angle_alpha 90.000000
_cell_angle_beta 90.000000
_cell_angle_gamma 90.000000
_cell_volume 5007.638592
_symmetry_space_group_name_H-M "P 4/M B M"
_symmetry_group_IT_number 127
_symmetry_cell_setting 'tetragonal'
loop_
_space_group_symop_operation_xyz
x,y,z
-y,x,z
-x,-y,z
y,-x,z
1/2+x,1/2-y,-z
1/2-x,1/2+y,-z
1/2+y,1/2+x,-z
1/2-y,1/2-x,-z
-x,-y,-z
y,-x,-z
x,y,-z
-y,x,-z
1/2-x,1/2+y,z
1/2+x,1/2-y,z
1/2-y,1/2-x,z
1/2+y,1/2+x,z
loop_
_atom_site_type_symbol
_atom_site_label
_atom_site_fract_x
_atom_site_fract_y
_atom_site_fract_z
Si Si1 0.259449 0.143708 0.838774
Si Si2 0.729549 0.972052 0.658504
Si Si3 0.158945 0.965215 0.247579
Si Si4 0.282893 0.352288 0.157840
Si Si5 0.416473 0.453835 0.500000
Si Si6 0.009302 0.904819 0.000000
Si Si7 0.906826 0.684164 0.338695
O O1 0.314703 0.185298 0.818196
O O2 0.273916 0.084504 0.755629
O O3 0.201421 0.177543 0.783893
O O4 0.250311 0.126028 0.000000
O O5 0.715205 0.952732 0.500000
O O6 0.793118 0.000968 0.662772
O O7 0.685932 0.024858 0.710059
O O8 0.181119 0.912164 0.152902
O O9 0.132099 0.013165 0.142235
O O10 0.115135 0.935544 0.357687
O O11 0.226880 0.363198 0.254886
O O12 0.262433 0.336957 0.000000
O O13 0.476851 0.420977 0.500000
O O14 0.063228 0.947449 0.000000
O O15 0.904349 0.704492 0.500000
O O16 0.881674 0.618327 0.320048
#
# Coordination Sequence:
#
# PCOD8314217 Si02
#       7
#    16  16  16  16   8   8  16
#     4  10  23  40  59  83 112 146 182 227 280 332
#     4  10  22  37  57  84 110 141 181 226 277 336
#     4  11  22  36  55  80 109 148 196 238 281 328
#     4  10  21  35  55  83 113 149 185 230 276 326
#     4  11  24  38  52  72 108 156 200 247 289 319
#     4  11  24  36  50  74 108 152 202 247 281 317
#     4   9  19  37  59  85 115 145 181 225 273 329
#
# _framework density 19.170712999999999
#
# number of rings (size 3 to 8) (size 9 to 14) (size 15 to 20)
#    0.000    1.833    1.667    1.500    7.000    4.000 
#    0.000    0.000    0.000    0.500    0.000    3.500 
#    0.000    0.000    0.000    0.000    0.000    0.000 
#
# Total GULP energy -1190077.984388 kJ/mol
# GULP energy per Si atom -12396.645671 kJ/mol
# Density = 1.912708 g / cm^3
# Si number density = 19.170713 Si / 1000 Ang^3
#
#
#
# Elastic Constant Matrix: (Units=GPa)
#
#
# Indices 1 2 3 4 5 6 
#
# 1 78.8954 28.3807 23.5543 0.0000 0.0000 0.0000
# 2 28.3807 78.8954 23.5543 0.0000 0.0000 0.0000
# 3 23.5543 23.5543 81.1555 0.0000 0.0000 0.0000
# 4 0.0000 0.0000 0.0000 29.2570 0.0000 0.0000
# 5 0.0000 0.0000 0.0000 0.0000 29.2570 0.0000
# 6 0.0000 0.0000 0.0000 0.0000 0.0000 77.5945
#
#
#
# Elastic Compliance Matrix: (Units=1/GPa)
#
#
# Indices 1 2 3 4 5 6 
#
# 1 0.015240 -0.004556 -0.003101 0.000000 0.000000 0.000000
# 2 -0.004556 0.015240 -0.003101 0.000000 0.000000 0.000000
# 3 -0.003101 -0.003101 0.014122 0.000000 0.000000 0.000000
# 4 0.000000 0.000000 0.000000 0.034180 0.000000 0.000000
# 5 0.000000 0.000000 0.000000 0.000000 0.034180 0.000000
# 6 0.000000 0.000000 0.000000 0.000000 0.000000 0.012888
#
#
# Mechanical properties :
#
#
# Convention : Reuss Voigt Hill
#
# Bulk Modulus (GPa) = 43.31665 43.32499 43.32082
# Shear Modulus (GPa) = 32.24563 38.11881 35.18222
#
# Velocity S-wave (km/s) = 4.10570 4.46397 4.28858
# Velocity P-wave (km/s) = 6.71714 7.01556 6.86797
#
# Compressibility (1/GPa) = 0.02308581
#
# Stress axis : x y z
#
# Youngs Moduli (GPa) = 65.61767 65.61767 70.81199
#
# Poissons Ratio (x) = 0.29898 0.21957
# Poissons Ratio (y) = 0.29898 0.21957
# Poissons Ratio (z) = 0.20346 0.20346
#
# Static dielectric constant tensor:
#      x y z
#    x 3.480490 0.000000 0.000000 
#    y 0.000000 3.480490 0.000000 
#    z 0.000000 0.000000 3.567480 
# 
# 
# High freq. dielectric constant tensor:
#      x y z
#    x 1.734050 0.000000 0.000000 
#    y 0.000000 1.734050 0.000000 
#    z 0.000000 0.000000 1.751190 
# 
# From -- ./inp_files/2114.got.cif
#   From: 2010.03.12/outbox.cif.g09.slc.cpg/sg127_2_cif.got.tgz:2114.got - 2010.04.06 17:03:15.
