data_PCOD8314236
_publ_section_title
;
Structure prediction by ZEFSAII (Michael W. Deem and Ramdas Pophale) SiO2 
 PCOD8314236
Probable space group: P 4/M B M
;
_chemical_formula_sum "Si O2"
_cell_formula_units_Z 72
_cell_length_a 13.941298
_cell_length_b 13.941298
_cell_length_c 17.722796
_cell_angle_alpha 90.000000
_cell_angle_beta 90.000000
_cell_angle_gamma 90.000000
_cell_volume 3444.598907
_symmetry_space_group_name_H-M "P 4/M B M"
_symmetry_group_IT_number 127
_symmetry_cell_setting 'tetragonal'
loop_
_space_group_symop_operation_xyz
x,y,z
-y,x,z
-x,-y,z
y,-x,z
1/2+x,1/2-y,-z
1/2-x,1/2+y,-z
1/2+y,1/2+x,-z
1/2-y,1/2-x,-z
-x,-y,-z
y,-x,-z
x,y,-z
-y,x,-z
1/2-x,1/2+y,z
1/2+x,1/2-y,z
1/2-y,1/2-x,z
1/2+y,1/2+x,z
loop_
_atom_site_type_symbol
_atom_site_label
_atom_site_fract_x
_atom_site_fract_y
_atom_site_fract_z
Si Si1 0.915794 0.254912 0.652221
Si Si2 0.866085 0.921448 0.086123
Si Si3 0.797037 0.450905 0.182952
Si Si4 0.081059 0.418942 0.086877
Si Si5 0.883589 0.769435 0.414285
O O1 0.849046 0.349046 0.638750
O O2 0.968450 0.254305 0.733970
O O3 0.851980 0.159105 0.640677
O O4 0.003650 0.250507 0.594441
O O5 0.779622 0.884570 0.137954
O O6 0.965389 0.871649 0.105482
O O7 0.838125 0.904557 0.000000
O O8 0.894030 0.394030 0.194657
O O9 0.824918 0.544676 0.133017
O O10 0.000000 0.500000 0.082626
O O11 0.109374 0.390627 0.000000
O O12 0.864251 0.802845 0.500000
O O13 0.830165 0.669836 0.396566
#
# Coordination Sequence:
#
# PCOD8314236 Si02
#       5
#    16  16  16   8  16
#     4  10  23  40  60  90 126 159 201 257 311 370
#     4   9  19  36  55  76 109 151 192 237 290 346
#     4  10  21  36  57  85 116 152 193 244 297 348
#     4   9  18  34  56  82 117 157 195 240 295 350
#     4  10  22  41  65  91 122 159 199 249 309 376
#
# _framework density 20.902287999999999
#
# number of rings (size 3 to 8) (size 9 to 14) (size 15 to 20)
#    0.000    2.333    0.000    2.000    4.667    3.556 
#    2.000    2.222    0.000    0.000    0.000    0.000 
#    0.000    0.000    0.000    0.000    0.000    0.000 
#
# Total GULP energy -892271.627858 kJ/mol
# GULP energy per Si atom -12392.661498 kJ/mol
# Density = 2.085471 g / cm^3
# Si number density = 20.902288 Si / 1000 Ang^3
#
#
#
# Elastic Constant Matrix: (Units=GPa)
#
#
# Indices 1 2 3 4 5 6 
#
# 1 92.2629 13.8069 33.5166 0.0000 0.0000 0.0000
# 2 13.8069 92.2631 33.5166 0.0000 0.0000 0.0000
# 3 33.5166 33.5166 102.5611 0.0000 0.0000 0.0000
# 4 0.0000 0.0000 0.0000 27.4257 0.0000 0.0000
# 5 0.0000 0.0000 0.0000 0.0000 27.4257 0.0000
# 6 0.0000 0.0000 0.0000 0.0000 0.0000 17.9218
#
#
#
# Elastic Compliance Matrix: (Units=1/GPa)
#
#
# Indices 1 2 3 4 5 6 
#
# 1 0.012314 -0.000432 -0.003883 0.000000 0.000000 0.000000
# 2 -0.000432 0.012314 -0.003883 0.000000 0.000000 0.000000
# 3 -0.003883 -0.003883 0.012288 0.000000 0.000000 0.000000
# 4 0.000000 0.000000 0.000000 0.036462 0.000000 0.000000
# 5 0.000000 0.000000 0.000000 0.000000 0.036462 0.000000
# 6 0.000000 0.000000 0.000000 0.000000 0.000000 0.055798
#
#
# Mechanical properties :
#
#
# Convention : Reuss Voigt Hill
#
# Bulk Modulus (GPa) = 48.73329 49.86302 49.29815
# Shear Modulus (GPa) = 26.47269 28.30442 27.38856
#
# Velocity S-wave (km/s) = 3.56265 3.68384 3.62375
# Velocity P-wave (km/s) = 6.34734 6.48084 6.41444
#
# Compressibility (1/GPa) = 0.02051985
#
# Stress axis : x y z
#
# Youngs Moduli (GPa) = 81.20970 81.20978 81.37951
#
# Poissons Ratio (x) = 0.03510 0.31599
# Poissons Ratio (y) = 0.03510 0.31599
# Poissons Ratio (z) = 0.31533 0.31533
#
# Static dielectric constant tensor:
#      x y z
#    x 3.636380 0.000000 0.000000 
#    y 0.000000 3.636380 0.000000 
#    z 0.000000 0.000000 3.882300 
# 
# 
# High freq. dielectric constant tensor:
#      x y z
#    x 1.806790 0.000000 0.000000 
#    y 0.000000 1.806790 0.000000 
#    z 0.000000 0.000000 1.823850 
# 
# From -- ./inp_files/4965.got.cif
#   From: 2010.03.12/outbox.cif.g09.slc.cpg/sg127_3_cif.got.tgz:4965.got - 2010.04.06 17:03:15.
