data_PCOD8314509
_publ_section_title
;
Structure prediction by ZEFSAII (Michael W. Deem and Ramdas Pophale) SiO2 
 PCOD8314509
Probable space group: P 4/M N C
;
_chemical_formula_sum "Si O2"
_cell_formula_units_Z 96
_cell_length_a 23.858317
_cell_length_b 23.858317
_cell_length_c 8.690936
_cell_angle_alpha 90.000000
_cell_angle_beta 90.000000
_cell_angle_gamma 90.000000
_cell_volume 4947.048420
_symmetry_space_group_name_H-M "P 4/M N C"
_symmetry_group_IT_number 128
_symmetry_cell_setting 'tetragonal'
loop_
_space_group_symop_operation_xyz
x,y,z
-y,x,z
-x,-y,z
y,-x,z
1/2+x,1/2-y,1/2-z
1/2-x,1/2+y,1/2-z
1/2+y,1/2+x,1/2-z
1/2-y,1/2-x,1/2-z
-x,-y,-z
y,-x,-z
x,y,-z
-y,x,-z
1/2-x,1/2+y,1/2+z
1/2+x,1/2-y,1/2+z
1/2-y,1/2-x,1/2+z
1/2+y,1/2+x,1/2+z
loop_
_atom_site_type_symbol
_atom_site_label
_atom_site_fract_x
_atom_site_fract_y
_atom_site_fract_z
Si Si1 0.656076 0.241902 0.319151
Si Si2 0.546887 0.193177 0.826148
Si Si3 0.834800 0.864489 0.316604
Si Si4 0.880558 0.461939 0.319858
Si Si5 0.057948 0.933400 0.317035
Si Si6 0.774635 0.428217 0.825411
O O1 0.706027 0.206027 0.250000
O O2 0.663238 0.245150 0.500000
O O3 0.596688 0.214361 0.279999
O O4 0.660272 0.303071 0.249072
O O5 0.522075 0.134413 0.758652
O O6 0.495635 0.238521 0.824018
O O7 0.569092 0.183791 0.000000
O O8 0.836358 0.862406 0.500000
O O9 0.886265 0.900865 0.249479
O O10 0.777506 0.893579 0.258446
O O11 0.938422 0.438422 0.250000
O O12 0.887262 0.469809 0.500000
O O13 0.829885 0.418116 0.279453
O O14 0.058747 0.931377 0.500000
O O15 0.994503 0.921839 0.259142
O O16 0.788425 0.409320 0.000000
#
# Coordination Sequence:
#
# PCOD8314509 Si02
#       6
#    16  16  16  16  16  16
#     4  12  26  43  61  85 116 158 201 248 299 358
#     4   9  19  38  61  86 115 151 193 241 293 358
#     4  10  20  35  58  84 113 153 198 248 298 354
#     4  10  18  31  54  85 118 152 189 237 291 350
#     4   8  15  27  48  82 117 149 190 239 289 342
#     4   8  18  33  53  83 114 149 192 239 296 351
#
# _framework density 19.405511000000001
#
# number of rings (size 3 to 8) (size 9 to 14) (size 15 to 20)
#    1.000    1.500    0.000    3.500    2.333    1.333 
#    0.000    0.000    0.000    0.500    0.000    4.667 
#    0.000    0.000    0.000    0.000    0.000    0.000 
#
# Total GULP energy -1189620.769657 kJ/mol
# GULP energy per Si atom -12391.883017 kJ/mol
# Density = 1.936134 g / cm^3
# Si number density = 19.405511 Si / 1000 Ang^3
#
#
#
# Elastic Constant Matrix: (Units=GPa)
#
#
# Indices 1 2 3 4 5 6 
#
# 1 -4.5479 35.8621 -0.4027 0.0000 0.0000 0.0000
# 2 35.8621 -4.5479 -0.4027 0.0000 0.0000 0.0000
# 3 -0.4027 -0.4027 35.6524 0.0000 0.0000 0.0000
# 4 0.0000 0.0000 0.0000 24.9333 0.0000 0.0000
# 5 0.0000 0.0000 0.0000 0.0000 24.9333 0.0000
# 6 0.0000 0.0000 0.0000 0.0000 0.0000 39.2900
#
#
#
# Elastic Compliance Matrix: (Units=1/GPa)
#
#
# Indices 1 2 3 4 5 6 
#
# 1 0.003599 0.028345 0.000361 0.000000 0.000000 0.000000
# 2 0.028345 0.003599 0.000361 0.000000 0.000000 0.000000
# 3 0.000361 0.000361 0.028057 0.000000 0.000000 0.000000
# 4 0.000000 0.000000 0.000000 0.040107 0.000000 0.000000
# 5 0.000000 0.000000 0.000000 0.000000 0.040107 0.000000
# 6 0.000000 0.000000 0.000000 0.000000 0.000000 0.025452
#
#
# Mechanical properties :
#
#
# Convention : Reuss Voigt Hill
#
# Bulk Modulus (GPa) = 10.70813 10.74116 10.72465
# Shear Modulus (GPa) = 43.89213 17.26466 30.57839
#
# Velocity S-wave (km/s) = 4.76104 2.98598 3.97389
# Velocity P-wave (km/s) = 5.97941 4.17555 5.15697
#
# Compressibility (1/GPa) = 0.09338695
#
# Stress axis : x y z
#
# Youngs Moduli (GPa) = 277.88440 277.88440 35.64209
#
# Poissons Ratio (x) = -7.87663 -0.01286
# Poissons Ratio (y) = -7.87663 -0.01286
# Poissons Ratio (z) = -0.10025 -0.10025
#
# Static dielectric constant tensor:
#      x y z
#    x 3.511090 0.000000 0.000000 
#    y 0.000000 3.511090 0.000000 
#    z 0.000000 0.000000 3.271820 
# 
# 
# High freq. dielectric constant tensor:
#      x y z
#    x 1.748870 0.000000 0.000000 
#    y 0.000000 1.748870 0.000000 
#    z 0.000000 0.000000 1.736150 
# 
# From -- ./inp_files/1476.got.cif
#   From: 2010.03.12/outbox.cif.g09.slc.cpg/sg128_1_cif.got.tgz:1476.got - 2010.04.06 17:11:05.
