data_PCOD8314767
_publ_section_title
;
Structure prediction by ZEFSAII (Michael W. Deem and Ramdas Pophale) SiO2 
 PCOD8314767
Probable space group: P 4/M N C
;
_chemical_formula_sum "Si O2"
_cell_formula_units_Z 88
_cell_length_a 14.841771
_cell_length_b 14.841771
_cell_length_c 20.021660
_cell_angle_alpha 90.000000
_cell_angle_beta 90.000000
_cell_angle_gamma 90.000000
_cell_volume 4410.334553
_symmetry_space_group_name_H-M "P 4/M N C"
_symmetry_group_IT_number 128
_symmetry_cell_setting 'tetragonal'
loop_
_space_group_symop_operation_xyz
x,y,z
-y,x,z
-x,-y,z
y,-x,z
1/2+x,1/2-y,1/2-z
1/2-x,1/2+y,1/2-z
1/2+y,1/2+x,1/2-z
1/2-y,1/2-x,1/2-z
-x,-y,-z
y,-x,-z
x,y,-z
-y,x,-z
1/2-x,1/2+y,1/2+z
1/2+x,1/2-y,1/2+z
1/2-y,1/2-x,1/2+z
1/2+y,1/2+x,1/2+z
loop_
_atom_site_type_symbol
_atom_site_label
_atom_site_fract_x
_atom_site_fract_y
_atom_site_fract_z
Si Si1 0.873275 0.748358 0.115287
Si Si2 0.816807 0.185950 0.575550
Si Si3 0.582967 0.377860 0.500000
Si Si4 0.454841 0.642183 0.731522
Si Si5 0.729504 0.510229 0.871794
Si Si6 0.055286 0.412430 0.422914
O O1 0.766491 0.725236 0.119266
O O2 0.881399 0.831317 0.065897
O O3 0.919199 0.777582 0.184528
O O4 0.927942 0.661911 0.087771
O O5 0.816122 0.225009 0.500000
O O6 0.807599 0.077379 0.570729
O O7 0.907514 0.207949 0.614103
O O8 0.623914 0.476231 0.500000
O O9 0.388435 0.557713 0.719233
O O10 0.451962 0.683276 0.805153
O O11 0.837441 0.519330 0.871368
O O12 0.037496 0.384840 0.500000
O O13 0.000000 0.500000 0.403347
#
# Coordination Sequence:
#
# PCOD8314767 Si02
#       6
#    16  16   8  16  16  16
#     4  11  22  42  64  94 133 174 220 279 335 406
#     4  11  22  40  66 100 132 172 224 284 339 397
#     4  11  22  38  63  96 126 163 221 284 346 400
#     4  11  24  44  64  91 131 176 222 275 341 399
#     4  11  22  41  64  94 134 175 224 275 335 408
#     4  10  22  42  65  95 133 173 215 275 338 397
#
# _framework density 19.953133999999999
#
# number of rings (size 3 to 8) (size 9 to 14) (size 15 to 20)
#    0.000    1.182    3.636    3.818    0.000    7.636 
#    0.000    4.545    0.000    0.000    0.000    0.000 
#    0.000    0.000    0.000    0.000    0.000    0.000 
#
# Total GULP energy -1090888.032404 kJ/mol
# GULP energy per Si atom -12396.454914 kJ/mol
# Density = 1.990772 g / cm^3
# Si number density = 19.953134 Si / 1000 Ang^3
#
#
#
# Elastic Constant Matrix: (Units=GPa)
#
#
# Indices 1 2 3 4 5 6 
#
# 1 145.9763 41.1669 40.3696 0.0000 0.0000 0.0000
# 2 41.1669 145.9763 40.3696 0.0000 0.0000 0.0000
# 3 40.3696 40.3696 90.7964 0.0000 0.0000 0.0000
# 4 0.0000 0.0000 0.0000 36.3464 0.0000 0.0000
# 5 0.0000 0.0000 0.0000 0.0000 36.3464 0.0000
# 6 0.0000 0.0000 0.0000 0.0000 0.0000 32.6335
#
#
#
# Elastic Compliance Matrix: (Units=1/GPa)
#
#
# Indices 1 2 3 4 5 6 
#
# 1 0.008076 -0.001465 -0.002940 0.000000 0.000000 0.000000
# 2 -0.001465 0.008076 -0.002940 0.000000 0.000000 0.000000
# 3 -0.002940 -0.002940 0.013628 0.000000 0.000000 0.000000
# 4 0.000000 0.000000 0.000000 0.027513 0.000000 0.000000
# 5 0.000000 0.000000 0.000000 0.000000 0.027513 0.000000
# 6 0.000000 0.000000 0.000000 0.000000 0.000000 0.030643
#
#
# Mechanical properties :
#
#
# Convention : Reuss Voigt Hill
#
# Bulk Modulus (GPa) = 66.25823 69.61792 67.93807
# Shear Modulus (GPa) = 36.99072 38.45480 37.72276
#
# Velocity S-wave (km/s) = 4.31034 4.39482 4.35278
# Velocity P-wave (km/s) = 7.61913 7.79224 7.70617
#
# Compressibility (1/GPa) = 0.01509246
#
# Stress axis : x y z
#
# Youngs Moduli (GPa) = 123.81668 123.81668 73.37972
#
# Poissons Ratio (x) = 0.18135 0.21572
# Poissons Ratio (y) = 0.18135 0.21572
# Poissons Ratio (z) = 0.36399 0.36399
#
# Static dielectric constant tensor:
#      x y z
#    x 3.754340 0.000000 0.000000 
#    y 0.000000 3.754340 0.000000 
#    z 0.000000 0.000000 3.614990 
# 
# 
# High freq. dielectric constant tensor:
#      x y z
#    x 1.786240 0.000000 0.000000 
#    y 0.000000 1.786240 0.000000 
#    z 0.000000 0.000000 1.769130 
# 
# From -- ./inp_files/5647.got.cif
#   From: 2010.03.12/outbox.cif.g09.slc.cpg/sg128_3_cif.got.tgz:5647.got - 2010.04.06 17:11:05.
