data_PCOD8314081
_publ_section_title
;
Structure prediction by ZEFSAII (Michael W. Deem and Ramdas Pophale) SiO2 
 PCOD8314081
Probable space group: P 4/M B M
;
_chemical_formula_sum "Si O2"
_cell_formula_units_Z 72
_cell_length_a 21.062144
_cell_length_b 21.062144
_cell_length_c 9.187205
_cell_angle_alpha 90.000000
_cell_angle_beta 90.000000
_cell_angle_gamma 90.000000
_cell_volume 4075.571931
_symmetry_space_group_name_H-M "P 4/M B M"
_symmetry_group_IT_number 127
_symmetry_cell_setting 'tetragonal'
loop_
_space_group_symop_operation_xyz
x,y,z
-y,x,z
-x,-y,z
y,-x,z
1/2+x,1/2-y,-z
1/2-x,1/2+y,-z
1/2+y,1/2+x,-z
1/2-y,1/2-x,-z
-x,-y,-z
y,-x,-z
x,y,-z
-y,x,-z
1/2-x,1/2+y,z
1/2+x,1/2-y,z
1/2-y,1/2-x,z
1/2+y,1/2+x,z
loop_
_atom_site_type_symbol
_atom_site_label
_atom_site_fract_x
_atom_site_fract_y
_atom_site_fract_z
Si Si1 0.186009 0.416724 0.172800
Si Si2 0.879419 0.810596 0.338889
Si Si3 0.846094 0.242101 0.833528
Si Si4 0.405516 0.454427 0.500000
Si Si5 0.944499 0.346052 0.827075
O O1 0.138358 0.361643 0.223753
O O2 0.254496 0.405984 0.240562
O O3 0.158099 0.483635 0.230874
O O4 0.193851 0.417260 0.000000
O O5 0.860440 0.784660 0.500000
O O6 0.819119 0.843317 0.266360
O O7 0.933519 0.865182 0.356648
O O8 0.780379 0.280379 0.821065
O O9 0.904464 0.284845 0.775629
O O10 0.857272 0.221087 0.000000
O O11 0.471039 0.415880 0.500000
O O12 0.910349 0.410349 0.767773
O O13 0.943377 0.347866 0.000000
#
# Coordination Sequence:
#
# PCOD8314081 Si02
#       5
#    16  16  16   8  16
#     4  10  20  33  51  78 112 142 170 212 261 306
#     4  10  22  32  55  77  99 130 174 210 265 312
#     4   9  17  31  51  75 106 138 170 214 262 302
#     4   9  22  42  57  74 102 133 168 213 269 321
#     4   8  16  31  52  77 104 139 179 214 249 297
#
# _framework density 17.666232999999998
#
# number of rings (size 3 to 8) (size 9 to 14) (size 15 to 20)
#    0.667    2.111    0.000    2.667    3.111    4.000 
#    0.000    2.222    0.000    2.000    0.000    7.778 
#    0.000    0.000    0.000    0.000    0.000    0.000 
#
# Total GULP energy -892379.648872 kJ/mol
# GULP energy per Si atom -12394.161790 kJ/mol
# Density = 1.762602 g / cm^3
# Si number density = 17.666233 Si / 1000 Ang^3
#
#
#
# Elastic Constant Matrix: (Units=GPa)
#
#
# Indices 1 2 3 4 5 6 
#
# 1 137.1350 67.9185 28.7178 0.0000 0.0000 0.0000
# 2 67.9185 137.1350 28.7178 0.0000 0.0000 0.0000
# 3 28.7178 28.7178 35.9426 0.0000 0.0000 0.0000
# 4 0.0000 0.0000 0.0000 19.1827 0.0000 0.0000
# 5 0.0000 0.0000 0.0000 0.0000 19.1827 0.0000
# 6 0.0000 0.0000 0.0000 0.0000 0.0000 23.7227
#
#
#
# Elastic Compliance Matrix: (Units=1/GPa)
#
#
# Indices 1 2 3 4 5 6 
#
# 1 0.010365 -0.004082 -0.005020 0.000000 0.000000 0.000000
# 2 -0.004082 0.010365 -0.005020 0.000000 0.000000 0.000000
# 3 -0.005020 -0.005020 0.035844 0.000000 0.000000 0.000000
# 4 0.000000 0.000000 0.000000 0.052130 0.000000 0.000000
# 5 0.000000 0.000000 0.000000 0.000000 0.052130 0.000000
# 6 0.000000 0.000000 0.000000 0.000000 0.000000 0.042154
#
#
# Mechanical properties :
#
#
# Convention : Reuss Voigt Hill
#
# Bulk Modulus (GPa) = 35.29842 62.32455 48.81149
# Shear Modulus (GPa) = 20.77480 24.74152 22.75816
#
# Velocity S-wave (km/s) = 3.43295 3.74638 3.59309
# Velocity P-wave (km/s) = 5.97809 7.35319 6.70101
#
# Compressibility (1/GPa) = 0.02832988
#
# Stress axis : x y z
#
# Youngs Moduli (GPa) = 96.47723 96.47723 27.89865
#
# Poissons Ratio (x) = 0.39385 0.14005
# Poissons Ratio (y) = 0.39385 0.14005
# Poissons Ratio (z) = 0.48431 0.48431
#
# Static dielectric constant tensor:
#      x y z
#    x 3.412000 0.000000 0.000000 
#    y 0.000000 3.412000 0.000000 
#    z 0.000000 0.000000 2.960830 
# 
# 
# High freq. dielectric constant tensor:
#      x y z
#    x 1.687290 0.000000 0.000000 
#    y 0.000000 1.687290 0.000000 
#    z 0.000000 0.000000 1.650000 
# 
# From -- ./inp_files/1597.got.cif
#   From: 2010.03.12/outbox.cif.g09.slc.cpg/sg127_1_cif.got.tgz:1597.got - 2010.04.06 17:03:15.
