data_PCOD8314068
_publ_section_title
;
Structure prediction by ZEFSAII (Michael W. Deem and Ramdas Pophale) SiO2 
 PCOD8314068
Probable space group: P 4/M B M
;
_chemical_formula_sum "Si O2"
_cell_formula_units_Z 128
_cell_length_a 23.124424
_cell_length_b 23.124424
_cell_length_c 13.124720
_cell_angle_alpha 90.000000
_cell_angle_beta 90.000000
_cell_angle_gamma 90.000000
_cell_volume 7018.299456
_symmetry_space_group_name_H-M "P 4/M B M"
_symmetry_group_IT_number 127
_symmetry_cell_setting 'tetragonal'
loop_
_space_group_symop_operation_xyz
x,y,z
-y,x,z
-x,-y,z
y,-x,z
1/2+x,1/2-y,-z
1/2-x,1/2+y,-z
1/2+y,1/2+x,-z
1/2-y,1/2-x,-z
-x,-y,-z
y,-x,-z
x,y,-z
-y,x,-z
1/2-x,1/2+y,z
1/2+x,1/2-y,z
1/2-y,1/2-x,z
1/2+y,1/2+x,z
loop_
_atom_site_type_symbol
_atom_site_label
_atom_site_fract_x
_atom_site_fract_y
_atom_site_fract_z
Si Si1 0.224437 0.368778 0.381497
Si Si2 0.666253 0.928819 0.390380
Si Si3 0.711465 0.885169 0.805501
Si Si4 0.415871 0.455847 0.117896
Si Si5 0.491966 0.791414 0.115961
Si Si6 0.801510 0.088137 0.795002
Si Si7 0.365986 0.957094 0.294121
Si Si8 0.796512 0.206184 0.114362
O O1 0.242596 0.371634 0.500000
O O2 0.194108 0.305893 0.357792
O O3 0.281714 0.383452 0.313704
O O4 0.177918 0.417682 0.357290
O O5 0.695910 0.941931 0.500000
O O6 0.624309 0.875692 0.403480
O O7 0.714825 0.912460 0.307856
O O8 0.628632 0.982816 0.352774
O O9 0.654972 0.845029 0.823402
O O10 0.769976 0.848720 0.816494
O O11 0.709546 0.938314 0.884218
O O12 0.475958 0.423039 0.138525
O O13 0.368983 0.429899 0.197563
O O14 0.396523 0.446175 0.000000
O O15 0.468216 0.734236 0.172333
O O16 0.466764 0.845966 0.177535
O O17 0.470207 0.795025 0.000000
O O18 0.789087 0.138004 0.877041
O O19 0.429133 0.929133 0.290286
O O20 0.736264 0.236264 0.146457
O O21 0.813099 0.223131 0.000000
#
# Coordination Sequence:
#
# PCOD8314068 Si02
#       8
#    16  16  16  16  16  16  16  16
#     4   9  18  34  54  74 102 139 174 213 264 320
#     4   9  17  30  49  72  98 128 167 219 268 303
#     4   9  19  35  52  72 101 137 176 213 257 319
#     4   9  19  35  54  78 109 145 180 217 270 329
#     4  10  20  32  49  75 103 134 173 217 264 312
#     4  11  21  33  53  81 108 133 179 225 264 314
#     4   9  18  31  47  69  98 134 172 209 255 312
#     4  10  20  33  50  74 106 139 167 205 261 320
#
# _framework density 18.238035
#
# number of rings (size 3 to 8) (size 9 to 14) (size 15 to 20)
#    0.000    2.500    0.000    2.625    1.750    2.500 
#    0.000    1.250    0.000    3.000    0.000    4.375 
#    0.000    0.000    0.000    0.000    0.000    0.000 
#
# Total GULP energy -1586387.600020 kJ/mol
# GULP energy per Si atom -12393.653125 kJ/mol
# Density = 1.819652 g / cm^3
# Si number density = 18.238035 Si / 1000 Ang^3
#
#
#
# Elastic Constant Matrix: (Units=GPa)
#
#
# Indices 1 2 3 4 5 6 
#
# 1 71.0907 20.1068 27.2581 0.0000 0.0000 0.0000
# 2 20.1068 71.0907 27.2581 0.0000 0.0000 0.0000
# 3 27.2581 27.2581 110.5184 0.0000 0.0000 0.0000
# 4 0.0000 0.0000 0.0000 21.0369 0.0000 0.0000
# 5 0.0000 0.0000 0.0000 0.0000 21.0369 0.0000
# 6 0.0000 0.0000 0.0000 0.0000 0.0000 24.5478
#
#
#
# Elastic Compliance Matrix: (Units=1/GPa)
#
#
# Indices 1 2 3 4 5 6 
#
# 1 0.016238 -0.003376 -0.003172 0.000000 0.000000 0.000000
# 2 -0.003376 0.016238 -0.003172 0.000000 0.000000 0.000000
# 3 -0.003172 -0.003172 0.010613 0.000000 0.000000 0.000000
# 4 0.000000 0.000000 0.000000 0.047536 0.000000 0.000000
# 5 0.000000 0.000000 0.000000 0.000000 0.047536 0.000000
# 6 0.000000 0.000000 0.000000 0.000000 0.000000 0.040737
#
#
# Mechanical properties :
#
#
# Convention : Reuss Voigt Hill
#
# Bulk Modulus (GPa) = 42.28794 44.66062 43.47428
# Shear Modulus (GPa) = 24.24595 25.19610 24.72103
#
# Velocity S-wave (km/s) = 3.65007 3.72090 3.68566
# Velocity P-wave (km/s) = 6.40321 6.55751 6.48082
#
# Compressibility (1/GPa) = 0.02364740
#
# Stress axis : x y z
#
# Youngs Moduli (GPa) = 61.58492 61.58492 94.22400
#
# Poissons Ratio (x) = 0.20793 0.29889
# Poissons Ratio (y) = 0.20793 0.29889
# Poissons Ratio (z) = 0.19536 0.19536
#
# Static dielectric constant tensor:
#      x y z
#    x 3.286730 0.000000 0.000000 
#    y 0.000000 3.286730 0.000000 
#    z 0.000000 0.000000 3.726210 
# 
# 
# High freq. dielectric constant tensor:
#      x y z
#    x 1.698140 0.000000 0.000000 
#    y 0.000000 1.698140 0.000000 
#    z 0.000000 0.000000 1.699270 
# 
# From -- ./inp_files/3836.got.cif
#   From: 2010.03.12/outbox.cif.g09.slc.cpg/sg127_2_cif.got.tgz:3836.got - 2010.04.06 17:03:15.
