data_PCOD8314425
_publ_section_title
;
Structure prediction by ZEFSAII (Michael W. Deem and Ramdas Pophale) SiO2 
 PCOD8314425
Probable space group: P 4/M B M
;
_chemical_formula_sum "Si O2"
_cell_formula_units_Z 64
_cell_length_a 15.110624
_cell_length_b 15.110624
_cell_length_c 16.629277
_cell_angle_alpha 90.000000
_cell_angle_beta 90.000000
_cell_angle_gamma 90.000000
_cell_volume 3796.978743
_symmetry_space_group_name_H-M "P 4/M B M"
_symmetry_group_IT_number 127
_symmetry_cell_setting 'tetragonal'
loop_
_space_group_symop_operation_xyz
x,y,z
-y,x,z
-x,-y,z
y,-x,z
1/2+x,1/2-y,-z
1/2-x,1/2+y,-z
1/2+y,1/2+x,-z
1/2-y,1/2-x,-z
-x,-y,-z
y,-x,-z
x,y,-z
-y,x,-z
1/2-x,1/2+y,z
1/2+x,1/2-y,z
1/2-y,1/2-x,z
1/2+y,1/2+x,z
loop_
_atom_site_type_symbol
_atom_site_label
_atom_site_fract_x
_atom_site_fract_y
_atom_site_fract_z
Si Si1 0.895210 0.899314 0.500000
Si Si2 0.893531 0.897670 0.326052
Si Si3 0.180982 0.829773 0.168131
Si Si4 0.931095 0.431095 0.904481
Si Si5 0.241117 0.010925 0.094557
O O1 0.858134 0.863649 0.414289
O O2 0.997565 0.877917 0.500000
O O3 0.835777 0.843378 0.262055
O O4 0.997585 0.877283 0.315099
O O5 0.247853 0.747853 0.152433
O O6 0.090728 0.824742 0.116347
O O7 0.224469 0.920652 0.140775
O O8 0.835236 0.456478 0.872844
O O9 0.000000 0.500000 0.867184
O O10 0.933055 0.433055 0.000000
O O11 0.238089 0.992120 0.000000
#
# Coordination Sequence:
#
# PCOD8314425 Si02
#       5
#     8  16  16   8  16
#     4   7  12  24  49  78 100 128 165 201 250 318
#     4   9  16  31  53  77 104 133 165 208 263 320
#     4  12  23  36  54  79 108 137 178 225 269 317
#     4   9  18  36  56  72  94 134 186 224 256 305
#     4  11  23  37  54  75 104 141 179 223 269 312
#
# _framework density 16.855506999999999
#
# number of rings (size 3 to 8) (size 9 to 14) (size 15 to 20)
#    0.000    2.000    3.750    3.000    0.000    3.000 
#    0.000    1.875    0.000    0.000    0.000    0.000 
#    0.000    0.000    0.000   13.750    0.000    0.000 
#
# Total GULP energy -793025.917420 kJ/mol
# GULP energy per Si atom -12391.029960 kJ/mol
# Density = 1.681714 g / cm^3
# Si number density = 16.855507 Si / 1000 Ang^3
#
#
#
# Elastic Constant Matrix: (Units=GPa)
#
#
# Indices 1 2 3 4 5 6 
#
# 1 61.1429 14.2101 17.2360 0.0000 0.0000 0.0000
# 2 14.2101 61.1429 17.2360 0.0000 0.0000 0.0000
# 3 17.2360 17.2360 73.2907 0.0000 0.0000 0.0000
# 4 0.0000 0.0000 0.0000 17.0272 0.0000 0.0000
# 5 0.0000 0.0000 0.0000 0.0000 17.0272 0.0000
# 6 0.0000 0.0000 0.0000 0.0000 0.0000 27.1473
#
#
#
# Elastic Compliance Matrix: (Units=1/GPa)
#
#
# Indices 1 2 3 4 5 6 
#
# 1 0.018089 -0.003218 -0.003497 0.000000 0.000000 0.000000
# 2 -0.003218 0.018089 -0.003497 0.000000 0.000000 0.000000
# 3 -0.003497 -0.003497 0.015289 0.000000 0.000000 0.000000
# 4 0.000000 0.000000 0.000000 0.058730 0.000000 0.000000
# 5 0.000000 0.000000 0.000000 0.000000 0.058730 0.000000
# 6 0.000000 0.000000 0.000000 0.000000 0.000000 0.036836
#
#
# Mechanical properties :
#
#
# Convention : Reuss Voigt Hill
#
# Bulk Modulus (GPa) = 32.21455 32.54898 32.38177
# Shear Modulus (GPa) = 21.13853 22.03328 21.58591
#
# Velocity S-wave (km/s) = 3.54517 3.61943 3.58249
# Velocity P-wave (km/s) = 5.99261 6.06791 6.03037
#
# Compressibility (1/GPa) = 0.03104187
#
# Stress axis : x y z
#
# Youngs Moduli (GPa) = 55.28254 55.28254 65.40569
#
# Poissons Ratio (x) = 0.17791 0.22874
# Poissons Ratio (y) = 0.17791 0.22874
# Poissons Ratio (z) = 0.19333 0.19333
#
# Static dielectric constant tensor:
#      x y z
#    x 3.066480 0.000000 0.000000 
#    y 0.000000 3.066480 0.000000 
#    z 0.000000 0.000000 3.386900 
# 
# 
# High freq. dielectric constant tensor:
#      x y z
#    x 1.634660 0.000000 0.000000 
#    y 0.000000 1.634660 0.000000 
#    z 0.000000 0.000000 1.651560 
# 
# From -- ./inp_files/4901.got.cif
#   From: 2010.03.12/outbox.cif.g09.slc.cpg/sg127_3_cif.got.tgz:4901.got - 2010.04.06 17:03:15.
