data_PCOD8314374
_publ_section_title
;
Structure prediction by ZEFSAII (Michael W. Deem and Ramdas Pophale) SiO2 
 PCOD8314374
Probable space group: P 4/M B M
;
_chemical_formula_sum "Si O2"
_cell_formula_units_Z 112
_cell_length_a 14.920899
_cell_length_b 14.920899
_cell_length_c 29.771405
_cell_angle_alpha 90.000000
_cell_angle_beta 90.000000
_cell_angle_gamma 90.000000
_cell_volume 6628.103967
_symmetry_space_group_name_H-M "P 4/M B M"
_symmetry_group_IT_number 127
_symmetry_cell_setting 'tetragonal'
loop_
_space_group_symop_operation_xyz
x,y,z
-y,x,z
-x,-y,z
y,-x,z
1/2+x,1/2-y,-z
1/2-x,1/2+y,-z
1/2+y,1/2+x,-z
1/2-y,1/2-x,-z
-x,-y,-z
y,-x,-z
x,y,-z
-y,x,-z
1/2-x,1/2+y,z
1/2+x,1/2-y,z
1/2-y,1/2-x,z
1/2+y,1/2+x,z
loop_
_atom_site_type_symbol
_atom_site_label
_atom_site_fract_x
_atom_site_fract_y
_atom_site_fract_z
Si Si1 0.254233 0.607625 0.868160
Si Si2 0.395555 0.394872 0.201787
Si Si3 0.000019 0.643126 0.797720
Si Si4 0.608580 0.255349 0.728058
Si Si5 0.359078 0.541363 0.949073
Si Si6 0.543129 0.357311 0.355335
Si Si7 0.858273 0.042775 0.452634
O O1 0.193629 0.693629 0.877127
O O2 0.344440 0.641220 0.842461
O O3 0.203767 0.532501 0.838945
O O4 0.278066 0.564336 0.915926
O O5 0.500407 0.374992 0.202211
O O6 0.344019 0.356421 0.245380
O O7 0.918690 0.581310 0.815573
O O8 0.966883 0.704184 0.756801
O O9 0.081844 0.581844 0.779820
O O10 0.693804 0.193804 0.718213
O O11 0.564173 0.282179 0.681148
O O12 0.391086 0.440654 0.939934
O O13 0.324303 0.551525 0.000000
O O14 0.609521 0.441409 0.349407
O O15 0.557569 0.309428 0.404551
O O16 0.803026 0.059478 0.500000
O O17 0.890941 0.941513 0.453070
#
# Coordination Sequence:
#
# PCOD8314374 Si02
#       7
#    16  16  16  16  16  16  16
#     4  11  21  34  54  79 101 125 165 205 238 282
#     4  11  21  34  49  69  98 129 159 193 244 294
#     4   9  20  38  54  68  94 133 170 203 237 279
#     4  11  21  33  47  67  96 128 167 206 239 283
#     4   9  19  37  57  76 102 134 162 191 237 292
#     4   9  17  29  44  66  96 125 153 193 251 300
#     4   7  10  19  38  62  86 115 153 192 230 286
#
# _framework density 16.897742999999998
#
# number of rings (size 3 to 8) (size 9 to 14) (size 15 to 20)
#    0.000    2.429    1.429    3.857    0.000    2.571 
#    0.000    0.000    0.000    1.714    0.000    2.000 
#    0.000    1.714    0.000    3.571    0.000    0.000 
#
# Total GULP energy -1387635.320184 kJ/mol
# GULP energy per Si atom -12389.601073 kJ/mol
# Density = 1.685928 g / cm^3
# Si number density = 16.897743 Si / 1000 Ang^3
#
#
#
# Elastic Constant Matrix: (Units=GPa)
#
#
# Indices 1 2 3 4 5 6 
#
# 1 79.5432 36.7640 58.0124 0.0000 0.0000 0.0000
# 2 36.7640 79.5432 58.0124 0.0000 0.0000 0.0000
# 3 58.0124 58.0124 162.6879 0.0000 0.0000 0.0000
# 4 0.0000 0.0000 0.0000 14.3668 0.0000 0.0000
# 5 0.0000 0.0000 0.0000 0.0000 14.3668 0.0000
# 6 0.0000 0.0000 0.0000 0.0000 0.0000 17.2673
#
#
#
# Elastic Compliance Matrix: (Units=1/GPa)
#
#
# Indices 1 2 3 4 5 6 
#
# 1 0.018360 -0.005015 -0.004759 0.000000 0.000000 0.000000
# 2 -0.005015 0.018360 -0.004759 0.000000 0.000000 0.000000
# 3 -0.004759 -0.004759 0.009540 0.000000 0.000000 0.000000
# 4 0.000000 0.000000 0.000000 0.069605 0.000000 0.000000
# 5 0.000000 0.000000 0.000000 0.000000 0.069605 0.000000
# 6 0.000000 0.000000 0.000000 0.000000 0.000000 0.057913
#
#
# Mechanical properties :
#
#
# Convention : Reuss Voigt Hill
#
# Bulk Modulus (GPa) = 58.15340 69.70575 63.92958
# Shear Modulus (GPa) = 17.97385 20.46587 19.21986
#
# Velocity S-wave (km/s) = 3.26495 3.48395 3.37623
# Velocity P-wave (km/s) = 6.97874 7.58452 7.28793
#
# Compressibility (1/GPa) = 0.01719590
#
# Stress axis : x y z
#
# Youngs Moduli (GPa) = 54.46495 54.46495 104.81633
#
# Poissons Ratio (x) = 0.27316 0.49879
# Poissons Ratio (y) = 0.27316 0.49879
# Poissons Ratio (z) = 0.25918 0.25918
#
# Static dielectric constant tensor:
#      x y z
#    x 3.028250 0.000000 0.000000 
#    y 0.000000 3.028250 0.000000 
#    z 0.000000 0.000000 3.476970 
# 
# 
# High freq. dielectric constant tensor:
#      x y z
#    x 1.629980 0.000000 0.000000 
#    y 0.000000 1.629980 0.000000 
#    z 0.000000 0.000000 1.658610 
# 
# From -- ./inp_files/6389.got.cif
#   From: 2010.03.12/outbox.cif.g09.slc.cpg/sg127_4_cif.got.tgz:6389.got - 2010.04.06 17:03:15.
