data_PCOD8314687
_publ_section_title
;
Structure prediction by ZEFSAII (Michael W. Deem and Ramdas Pophale) SiO2 
 PCOD8314687
Probable space group: P 4/M N C
;
_chemical_formula_sum "Si O2"
_cell_formula_units_Z 96
_cell_length_a 23.192514
_cell_length_b 23.192514
_cell_length_c 9.105524
_cell_angle_alpha 90.000000
_cell_angle_beta 90.000000
_cell_angle_gamma 90.000000
_cell_volume 4897.794941
_symmetry_space_group_name_H-M "P 4/M N C"
_symmetry_group_IT_number 128
_symmetry_cell_setting 'tetragonal'
loop_
_space_group_symop_operation_xyz
x,y,z
-y,x,z
-x,-y,z
y,-x,z
1/2+x,1/2-y,1/2-z
1/2-x,1/2+y,1/2-z
1/2+y,1/2+x,1/2-z
1/2-y,1/2-x,1/2-z
-x,-y,-z
y,-x,-z
x,y,-z
-y,x,-z
1/2-x,1/2+y,1/2+z
1/2+x,1/2-y,1/2+z
1/2-y,1/2-x,1/2+z
1/2+y,1/2+x,1/2+z
loop_
_atom_site_type_symbol
_atom_site_label
_atom_site_fract_x
_atom_site_fract_y
_atom_site_fract_z
Si Si1 0.786067 0.834364 0.836054
Si Si2 0.860632 0.723506 0.175052
Si Si3 0.108820 0.089060 0.162842
Si Si4 0.515403 0.358436 0.837025
Si Si5 0.228016 0.481658 0.835322
Si Si6 0.604753 0.815156 0.825581
O O1 0.823692 0.779990 0.777055
O O2 0.825620 0.890785 0.844607
O O3 0.734388 0.850585 0.727679
O O4 0.761998 0.820866 0.000000
O O5 0.831743 0.668258 0.250000
O O6 0.926851 0.723758 0.228915
O O7 0.861463 0.717774 0.000000
O O8 0.073497 0.139506 0.242326
O O9 0.101756 0.031547 0.257658
O O10 0.084233 0.078208 0.000000
O O11 0.494839 0.292967 0.842304
O O12 0.526111 0.382858 0.000000
O O13 0.192989 0.537766 0.777523
O O14 0.207874 0.463793 0.000000
O O15 0.625289 0.874712 0.750000
O O16 0.609493 0.818630 0.000000
#
# Coordination Sequence:
#
# PCOD8314687 Si02
#       6
#    16  16  16  16  16  16
#     4  10  21  36  57  87 120 155 192 236 289 343
#     4  11  23  39  60  89 121 155 195 237 289 345
#     4  11  22  37  57  83 114 151 199 248 292 341
#     4  11  22  38  58  82 112 153 200 245 294 344
#     4  10  22  39  60  85 116 153 192 235 287 348
#     4  11  23  39  60  89 121 155 195 237 289 345
#
# _framework density 19.600657000000002
#
# number of rings (size 3 to 8) (size 9 to 14) (size 15 to 20)
#    0.000    1.333    3.333    2.500    0.000    5.667 
#    0.000    1.667    0.000    0.500    0.000    3.500 
#    0.000    0.000    0.000    0.000    0.000    0.000 
#
# Total GULP energy -1190135.365124 kJ/mol
# GULP energy per Si atom -12397.243387 kJ/mol
# Density = 1.955605 g / cm^3
# Si number density = 19.600657 Si / 1000 Ang^3
#
#
#
# Elastic Constant Matrix: (Units=GPa)
#
#
# Indices 1 2 3 4 5 6 
#
# 1 76.1912 34.2639 44.7283 0.0000 0.0000 0.0000
# 2 34.2639 76.1919 44.7288 0.0000 0.0000 0.0000
# 3 44.7283 44.7288 121.9134 0.0000 0.0000 0.0000
# 4 0.0000 0.0000 0.0000 32.5089 0.0000 0.0000
# 5 0.0000 0.0000 0.0000 0.0000 32.5089 0.0000
# 6 0.0000 0.0000 0.0000 0.0000 0.0000 30.2166
#
#
#
# Elastic Compliance Matrix: (Units=1/GPa)
#
#
# Indices 1 2 3 4 5 6 
#
# 1 0.018366 -0.005485 -0.004726 0.000000 0.000000 0.000000
# 2 -0.005485 0.018366 -0.004726 0.000000 0.000000 0.000000
# 3 -0.004726 -0.004726 0.011670 0.000000 0.000000 0.000000
# 4 0.000000 0.000000 0.000000 0.030761 0.000000 0.000000
# 5 0.000000 0.000000 0.000000 0.000000 0.030761 0.000000
# 6 0.000000 0.000000 0.000000 0.000000 0.000000 0.033094
#
#
# Mechanical properties :
#
#
# Convention : Reuss Voigt Hill
#
# Bulk Modulus (GPa) = 53.97057 57.97094 55.97076
# Shear Modulus (GPa) = 27.92254 29.08527 28.50391
#
# Velocity S-wave (km/s) = 3.77844 3.85631 3.81758
# Velocity P-wave (km/s) = 6.82864 7.03338 6.93177
#
# Compressibility (1/GPa) = 0.01852862
#
# Stress axis : x y z
#
# Youngs Moduli (GPa) = 54.44913 54.44948 85.68809
#
# Poissons Ratio (x) = 0.29865 0.40494
# Poissons Ratio (y) = 0.29865 0.40495
# Poissons Ratio (z) = 0.25732 0.25732
#
# Static dielectric constant tensor:
#      x y z
#    x 3.428480 0.000000 0.000000 
#    y 0.000000 3.428480 0.000000 
#    z 0.000000 0.000000 3.663230 
# 
# 
# High freq. dielectric constant tensor:
#      x y z
#    x 1.749280 0.000000 0.000000 
#    y 0.000000 1.749280 0.000000 
#    z 0.000000 0.000000 1.774060 
# 
# From -- ./inp_files/1425.got.cif
#   From: 2010.03.12/outbox.cif.g09.slc.cpg/sg128_1_cif.got.tgz:1425.got - 2010.04.06 17:11:05.
