data_PCOD8314596
_publ_section_title
;
Structure prediction by ZEFSAII (Michael W. Deem and Ramdas Pophale) SiO2 
 PCOD8314596
Probable space group: P 4/M N C
;
_chemical_formula_sum "Si O2"
_cell_formula_units_Z 96
_cell_length_a 24.310478
_cell_length_b 24.310478
_cell_length_c 10.236942
_cell_angle_alpha 90.000000
_cell_angle_beta 90.000000
_cell_angle_gamma 90.000000
_cell_volume 6050.025972
_symmetry_space_group_name_H-M "P 4/M N C"
_symmetry_group_IT_number 128
_symmetry_cell_setting 'tetragonal'
loop_
_space_group_symop_operation_xyz
x,y,z
-y,x,z
-x,-y,z
y,-x,z
1/2+x,1/2-y,1/2-z
1/2-x,1/2+y,1/2-z
1/2+y,1/2+x,1/2-z
1/2-y,1/2-x,1/2-z
-x,-y,-z
y,-x,-z
x,y,-z
-y,x,-z
1/2-x,1/2+y,1/2+z
1/2+x,1/2-y,1/2+z
1/2-y,1/2-x,1/2+z
1/2+y,1/2+x,1/2+z
loop_
_atom_site_type_symbol
_atom_site_label
_atom_site_fract_x
_atom_site_fract_y
_atom_site_fract_z
Si Si1 0.194405 0.241054 0.500000
Si Si2 0.729810 0.408144 0.223362
Si Si3 0.989724 0.829075 0.350392
Si Si4 0.363492 0.683834 0.227076
Si Si5 0.173390 0.218980 0.000000
Si Si6 0.287453 0.151541 0.500000
Si Si7 0.911239 0.985000 0.858632
Si Si8 0.374484 0.236804 0.500000
O O1 0.158181 0.230635 0.371167
O O2 0.218399 0.303184 0.500000
O O3 0.246104 0.201798 0.500000
O O4 0.723791 0.471117 0.171632
O O5 0.673184 0.371755 0.212907
O O6 0.752200 0.410703 0.371204
O O7 0.777075 0.382745 0.131862
O O8 0.990893 0.848170 0.500000
O O9 0.927333 0.825229 0.304245
O O10 0.023523 0.871778 0.262148
O O11 0.363077 0.708501 0.372229
O O12 0.223394 0.177182 0.000000
O O13 0.349942 0.174660 0.500000
O O14 0.937547 0.044545 0.848745
O O15 0.880817 0.979574 0.000000
#
# Coordination Sequence:
#
# PCOD8314596 Si02
#       8
#     8  16  16  16   8   8  16   8
#     4   9  16  31  50  68  91 114 146 191 231 275
#     4  10  20  32  47  69  92 120 156 191 231 277
#     4  12  23  33  45  64  94 124 152 191 238 281
#     4  10  20  32  47  69  92 120 156 191 231 277
#     4   9  18  31  50  70  87 112 150 195 235 271
#     4   9  16  31  50  68  91 114 146 191 231 275
#     4   9  20  36  50  62  78 110 158 206 243 271
#     4   9  18  31  50  70  87 112 150 195 235 271
#
# _framework density 15.867702
#
# number of rings (size 3 to 8) (size 9 to 14) (size 15 to 20)
#    0.000    2.167    1.667    2.500    2.333    6.000 
#    0.000    0.833    0.000    0.000    0.000    0.000 
#    0.000    0.000    0.000    0.000    0.000   58.333 
#
# Total GULP energy -1189605.683884 kJ/mol
# GULP energy per Si atom -12391.725874 kJ/mol
# Density = 1.583159 g / cm^3
# Si number density = 15.867702 Si / 1000 Ang^3
#
#
#
# Elastic Constant Matrix: (Units=GPa)
#
#
# Indices 1 2 3 4 5 6 
#
# 1 28.6962 12.0053 20.0522 0.0000 0.0000 0.0000
# 2 12.0053 28.6962 20.0522 0.0000 0.0000 0.0000
# 3 20.0522 20.0522 143.0391 0.0000 0.0000 0.0000
# 4 0.0000 0.0000 0.0000 259.8869 0.0000 0.0000
# 5 0.0000 0.0000 0.0000 0.0000 259.8869 0.0000
# 6 0.0000 0.0000 0.0000 0.0000 0.0000 8.2556
#
#
#
# Elastic Compliance Matrix: (Units=1/GPa)
#
#
# Indices 1 2 3 4 5 6 
#
# 1 0.044210 -0.015703 -0.003996 0.000000 0.000000 0.000000
# 2 -0.015703 0.044210 -0.003996 0.000000 0.000000 0.000000
# 3 -0.003996 -0.003996 0.008112 0.000000 0.000000 0.000000
# 4 0.000000 0.000000 0.000000 0.003848 0.000000 0.000000
# 5 0.000000 0.000000 0.000000 0.000000 0.003848 0.000000
# 6 0.000000 0.000000 0.000000 0.000000 0.000000 0.121130
#
#
# Mechanical properties :
#
#
# Convention : Reuss Voigt Hill
#
# Bulk Modulus (GPa) = 20.35004 33.85012 27.10008
# Shear Modulus (GPa) = 17.29339 115.49402 66.39370
#
# Velocity S-wave (km/s) = 3.30487 8.54070 6.47556
# Velocity P-wave (km/s) = 5.23598 10.89207 8.54555
#
# Compressibility (1/GPa) = 0.04913996
#
# Stress axis : x y z
#
# Youngs Moduli (GPa) = 22.61945 22.61945 123.28108
#
# Poissons Ratio (x) = 0.35519 0.49267
# Poissons Ratio (y) = 0.35519 0.49267
# Poissons Ratio (z) = 0.09039 0.09039
#
# Static dielectric constant tensor:
#      x y z
#    x 2.912440 0.000000 0.000000 
#    y 0.000000 2.912440 0.000000 
#    z 0.000000 0.000000 3.435700 
# 
# 
# High freq. dielectric constant tensor:
#      x y z
#    x 1.573940 0.000000 0.000000 
#    y 0.000000 1.573940 0.000000 
#    z 0.000000 0.000000 1.637280 
# 
# From -- ./inp_files/1587.got.cif
#   From: 2010.03.12/outbox.cif.g09.slc.cpg/sg128_1_cif.got.tgz:1587.got - 2010.04.06 17:11:05.
