data_PCOD8314662
_publ_section_title
;
Structure prediction by ZEFSAII (Michael W. Deem and Ramdas Pophale) SiO2 
 PCOD8314662
Probable space group: P 4/M N C
;
_chemical_formula_sum "Si O2"
_cell_formula_units_Z 56
_cell_length_a 13.344593
_cell_length_b 13.344593
_cell_length_c 15.805653
_cell_angle_alpha 90.000000
_cell_angle_beta 90.000000
_cell_angle_gamma 90.000000
_cell_volume 2814.641641
_symmetry_space_group_name_H-M "P 4/M N C"
_symmetry_group_IT_number 128
_symmetry_cell_setting 'tetragonal'
loop_
_space_group_symop_operation_xyz
x,y,z
-y,x,z
-x,-y,z
y,-x,z
1/2+x,1/2-y,1/2-z
1/2-x,1/2+y,1/2-z
1/2+y,1/2+x,1/2-z
1/2-y,1/2-x,1/2-z
-x,-y,-z
y,-x,-z
x,y,-z
-y,x,-z
1/2-x,1/2+y,1/2+z
1/2+x,1/2-y,1/2+z
1/2-y,1/2-x,1/2+z
1/2+y,1/2+x,1/2+z
loop_
_atom_site_type_symbol
_atom_site_label
_atom_site_fract_x
_atom_site_fract_y
_atom_site_fract_z
Si Si1 0.336463 0.480538 0.000000
Si Si2 0.931623 0.852009 0.000000
Si Si3 0.161535 0.661535 0.250000
Si Si4 0.045290 0.279436 0.325955
Si Si5 0.855023 0.764329 0.168376
O O1 0.412905 0.389357 0.000000
O O2 0.272557 0.473849 0.084880
O O3 0.906909 0.790300 0.082207
O O4 0.048396 0.868362 0.000000
O O5 0.163549 0.555656 0.201609
O O6 0.179581 0.748232 0.179256
O O7 0.074574 0.203438 0.248544
O O8 0.142967 0.349818 0.334839
#
# Coordination Sequence:
#
# PCOD8314662 Si02
#       5
#     8   8   8  16  16
#     4  11  21  34  58  89 119 152 197 253 306 357
#     4  11  23  40  62  86 115 156 201 246 304 363
#     4  10  20  37  62  83 116 164 196 240 300 360
#     4  10  21  38  59  86 120 158 199 240 302 360
#     4  10  22  38  59  87 123 155 199 255 292 353
#
# _framework density 19.895959000000001
#
# number of rings (size 3 to 8) (size 9 to 14) (size 15 to 20)
#    0.000    2.000    0.000    6.000    0.000    3.429 
#    0.000    4.286    0.000   10.286    0.000    0.000 
#    0.000    0.000    0.000    0.000    0.000    0.000 
#
# Total GULP energy -693802.628580 kJ/mol
# GULP energy per Si atom -12389.332653 kJ/mol
# Density = 1.985067 g / cm^3
# Si number density = 19.895959 Si / 1000 Ang^3
#
#
#
# Elastic Constant Matrix: (Units=GPa)
#
#
# Indices 1 2 3 4 5 6 
#
# 1 131.0786 38.5707 72.7579 0.0000 0.0000 0.0000
# 2 38.5707 131.0786 72.7579 0.0000 0.0000 0.0000
# 3 72.7579 72.7579 218.8445 0.0000 0.0000 0.0000
# 4 0.0000 0.0000 0.0000 43.6905 0.0000 0.0000
# 5 0.0000 0.0000 0.0000 0.0000 43.6905 0.0000
# 6 0.0000 0.0000 0.0000 0.0000 0.0000**********
#
#
#
# Elastic Compliance Matrix: (Units=1/GPa)
#
#
# Indices 1 2 3 4 5 6 
#
# 1 0.009528 -0.001282 -0.002742 0.000000 0.000000 0.000000
# 2 -0.001282 0.009528 -0.002742 0.000000 0.000000 0.000000
# 3 -0.002742 -0.002742 0.006392 0.000000 0.000000 0.000000
# 4 0.000000 0.000000 0.000000 0.022888 0.000000 0.000000
# 5 0.000000 0.000000 0.000000 0.000000 0.022888 0.000000
# 6 0.000000 0.000000 0.000000 0.000000 0.000000 -0.000024
#
#
# Mechanical properties :
#
#
# Convention : Reuss Voigt Hill
#
# Bulk Modulus (GPa) = 83.90397 94.35274 89.12836
# Shear Modulus (GPa) = 56.36760 -8279.52896 -4111.58068
#
# Velocity S-wave (km/s) = 5.32848 -64.57899 -45.50854
# Velocity P-wave (km/s) = 8.95097 74.25005 52.11981
#
# Compressibility (1/GPa) = 0.01191839
#
# Stress axis : x y z
#
# Youngs Moduli (GPa) = 104.95426 104.95426 156.43673
#
# Poissons Ratio (x) = 0.13454 0.42887
# Poissons Ratio (y) = 0.13454 0.42887
# Poissons Ratio (z) = 0.28773 0.28773
#
# Static dielectric constant tensor:
#      x y z
#    x 3.621430 0.000000 0.000000 
#    y 0.000000 3.621430 0.000000 
#    z 0.000000 0.000000 4.480840 
# 
# 
# High freq. dielectric constant tensor:
#      x y z
#    x 1.769850 0.000000 0.000000 
#    y 0.000000 1.769850 0.000000 
#    z 0.000000 0.000000 1.797250 
# 
# From -- ./inp_files/3484.got.cif
#   From: 2010.03.12/outbox.cif.g09.slc.cpg/sg128_2_cif.got.tgz:3484.got - 2010.04.06 17:11:05.
