data_PCOD8314387
_publ_section_title
;
Structure prediction by ZEFSAII (Michael W. Deem and Ramdas Pophale) SiO2 
 PCOD8314387
Probable space group: P 4/M B M
;
_chemical_formula_sum "Si O2"
_cell_formula_units_Z 88
_cell_length_a 13.718386
_cell_length_b 13.718386
_cell_length_c 26.338502
_cell_angle_alpha 90.000000
_cell_angle_beta 90.000000
_cell_angle_gamma 90.000000
_cell_volume 4956.751060
_symmetry_space_group_name_H-M "P 4/M B M"
_symmetry_group_IT_number 127
_symmetry_cell_setting 'tetragonal'
loop_
_space_group_symop_operation_xyz
x,y,z
-y,x,z
-x,-y,z
y,-x,z
1/2+x,1/2-y,-z
1/2-x,1/2+y,-z
1/2+y,1/2+x,-z
1/2-y,1/2-x,-z
-x,-y,-z
y,-x,-z
x,y,-z
-y,x,-z
1/2-x,1/2+y,z
1/2+x,1/2-y,z
1/2-y,1/2-x,z
1/2+y,1/2+x,z
loop_
_atom_site_type_symbol
_atom_site_label
_atom_site_fract_x
_atom_site_fract_y
_atom_site_fract_z
Si Si1 0.916640 0.138066 0.500000
Si Si2 0.341421 0.003572 0.942071
Si Si3 0.409475 0.749200 0.342107
Si Si4 0.766367 0.890647 0.605746
Si Si5 0.485277 0.659697 0.130049
Si Si6 0.526552 0.342431 0.244206
O O1 0.879013 0.195120 0.548897
O O2 0.032582 0.131888 0.500000
O O3 0.413580 0.913580 0.936523
O O4 0.397176 0.102825 0.925323
O O5 0.249100 0.981261 0.907812
O O6 0.305911 0.013912 0.000000
O O7 0.347620 0.847620 0.347392
O O8 0.345187 0.654381 0.355358
O O9 0.497367 0.753571 0.381738
O O10 0.452267 0.742229 0.284917
O O11 0.664606 0.835395 0.611028
O O12 0.395891 0.586574 0.120542
O O13 0.473639 0.700758 0.187281
O O14 0.610237 0.421811 0.252788
#
# Coordination Sequence:
#
# PCOD8314387 Si02
#       6
#     8  16  16  16  16  16
#     4  11  21  36  62  89 110 142 188 235 278 324
#     4   9  19  36  55  75 104 146 192 231 272 327
#     4  11  22  36  59  85 110 148 191 227 275 334
#     4  11  23  39  58  84 117 147 182 231 279 328
#     4   9  19  34  53  83 114 141 178 227 281 332
#     4   9  17  33  57  80 107 142 181 226 273 323
#
# _framework density 17.753564999999998
#
# number of rings (size 3 to 8) (size 9 to 14) (size 15 to 20)
#    0.000    2.091    3.636    1.909    0.000    2.909 
#    0.000    6.818    0.000    1.091    0.000    0.000 
#    0.000    0.000    0.000    0.000    0.000    0.000 
#
# Total GULP energy -1091130.171331 kJ/mol
# GULP energy per Si atom -12399.206492 kJ/mol
# Density = 1.771316 g / cm^3
# Si number density = 17.753565 Si / 1000 Ang^3
#
#
#
# Elastic Constant Matrix: (Units=GPa)
#
#
# Indices 1 2 3 4 5 6 
#
# 1 82.3114 25.1039 37.3202 0.0000 0.0000 0.0000
# 2 25.1039 82.3114 37.3202 0.0000 0.0000 0.0000
# 3 37.3202 37.3202 109.8798 0.0000 0.0000 0.0000
# 4 0.0000 0.0000 0.0000 28.3843 0.0000 0.0000
# 5 0.0000 0.0000 0.0000 0.0000 28.3843 0.0000
# 6 0.0000 0.0000 0.0000 0.0000 0.0000 8.7576
#
#
#
# Elastic Compliance Matrix: (Units=1/GPa)
#
#
# Indices 1 2 3 4 5 6 
#
# 1 0.014833 -0.002647 -0.004139 0.000000 0.000000 0.000000
# 2 -0.002647 0.014833 -0.004139 0.000000 0.000000 0.000000
# 3 -0.004139 -0.004139 0.011912 0.000000 0.000000 0.000000
# 4 0.000000 0.000000 0.000000 0.035231 0.000000 0.000000
# 5 0.000000 0.000000 0.000000 0.000000 0.035231 0.000000
# 6 0.000000 0.000000 0.000000 0.000000 0.000000 0.114187
#
#
# Mechanical properties :
#
#
# Convention : Reuss Voigt Hill
#
# Bulk Modulus (GPa) = 50.68846 52.66568 51.67707
# Shear Modulus (GPa) = 19.63461 24.75580 22.19521
#
# Velocity S-wave (km/s) = 3.32920 3.73823 3.53963
# Velocity P-wave (km/s) = 6.58720 6.95426 6.77322
#
# Compressibility (1/GPa) = 0.01972836
#
# Stress axis : x y z
#
# Youngs Moduli (GPa) = 67.41763 67.41763 83.94696
#
# Poissons Ratio (x) = 0.17848 0.34744
# Poissons Ratio (y) = 0.17848 0.34744
# Poissons Ratio (z) = 0.27903 0.27903
#
# Static dielectric constant tensor:
#      x y z
#    x 3.133710 0.000000 0.000000 
#    y 0.000000 3.133710 0.000000 
#    z 0.000000 0.000000 3.360420 
# 
# 
# High freq. dielectric constant tensor:
#      x y z
#    x 1.676630 0.000000 0.000000 
#    y 0.000000 1.676630 0.000000 
#    z 0.000000 0.000000 1.697930 
# 
# From -- ./inp_files/6554.got.cif
#   From: 2010.03.12/outbox.cif.g09.slc.cpg/sg127_4_cif.got.tgz:6554.got - 2010.04.06 17:03:15.
