data_PCOD8314789
_publ_section_title
;
Structure prediction by ZEFSAII (Michael W. Deem and Ramdas Pophale) SiO2 
 PCOD8314789
Probable space group: P 4/M N C
;
_chemical_formula_sum "Si O2"
_cell_formula_units_Z 56
_cell_length_a 16.625707
_cell_length_b 16.625707
_cell_length_c 9.592033
_cell_angle_alpha 90.000000
_cell_angle_beta 90.000000
_cell_angle_gamma 90.000000
_cell_volume 2651.373488
_symmetry_space_group_name_H-M "P 4/M N C"
_symmetry_group_IT_number 128
_symmetry_cell_setting 'tetragonal'
loop_
_space_group_symop_operation_xyz
x,y,z
-y,x,z
-x,-y,z
y,-x,z
1/2+x,1/2-y,1/2-z
1/2-x,1/2+y,1/2-z
1/2+y,1/2+x,1/2-z
1/2-y,1/2-x,1/2-z
-x,-y,-z
y,-x,-z
x,y,-z
-y,x,-z
1/2-x,1/2+y,1/2+z
1/2+x,1/2-y,1/2+z
1/2-y,1/2-x,1/2+z
1/2+y,1/2+x,1/2+z
loop_
_atom_site_type_symbol
_atom_site_label
_atom_site_fract_x
_atom_site_fract_y
_atom_site_fract_z
Si Si1 0.224908 0.724908 0.750000
Si Si2 0.375930 0.456883 0.000000
Si Si3 0.810940 0.514434 0.500000
Si Si4 0.338069 0.128929 0.500000
Si Si5 0.259054 0.404574 0.762516
Si Si6 0.436098 0.857477 0.000000
O O1 0.157690 0.712301 0.632485
O O2 0.317598 0.714724 0.701706
O O3 0.450605 0.398160 0.000000
O O4 0.327640 0.442682 0.858350
O O5 0.822794 0.420232 0.500000
O O6 0.758792 0.536630 0.634842
O O7 0.901153 0.552235 0.500000
O O8 0.351311 0.032889 0.500000
O O9 0.181032 0.396871 0.861986
#
# Coordination Sequence:
#
# PCOD8314789 Si02
#       6
#     8   8   8   8  16   8
#     4  12  24  44  61 101 124 176 216 268 314 390
#     4  10  25  46  69  93 121 171 229 275 315 379
#     4  12  23  44  62 103 136 174 201 273 340 383
#     4  12  27  37  72  97 134 159 232 268 316 380
#     4  11  24  41  69  89 134 175 215 259 327 395
#     4  11  22  45  63  97 130 186 211 256 329 404
#
# _framework density 21.121127999999999
#
# number of rings (size 3 to 8) (size 9 to 14) (size 15 to 20)
#    0.000    0.714    2.857    4.714   12.000    0.000 
#    0.000    4.286    0.000    1.714    0.000    0.000 
#    0.000    0.000    0.000    0.000    0.000    0.000 
#
# Total GULP energy -694409.061257 kJ/mol
# GULP energy per Si atom -12400.161808 kJ/mol
# Density = 2.107306 g / cm^3
# Si number density = 21.121128 Si / 1000 Ang^3
#
#
#
# Elastic Constant Matrix: (Units=GPa)
#
#
# Indices 1 2 3 4 5 6 
#
# 1 131.5204 16.0035 28.1533 0.0000 0.0000 0.0000
# 2 16.0035 131.5204 28.1533 0.0000 0.0000 0.0000
# 3 28.1533 28.1533 112.3392 0.0000 0.0000 0.0000
# 4 0.0000 0.0000 0.0000 19.5010 0.0000 0.0000
# 5 0.0000 0.0000 0.0000 0.0000 19.5010 0.0000
# 6 0.0000 0.0000 0.0000 0.0000 0.0000 44.0151
#
#
#
# Elastic Compliance Matrix: (Units=1/GPa)
#
#
# Indices 1 2 3 4 5 6 
#
# 1 0.008076 -0.000581 -0.001878 0.000000 0.000000 0.000000
# 2 -0.000581 0.008076 -0.001878 0.000000 0.000000 0.000000
# 3 -0.001878 -0.001878 0.009843 0.000000 0.000000 0.000000
# 4 0.000000 0.000000 0.000000 0.051279 0.000000 0.000000
# 5 0.000000 0.000000 0.000000 0.000000 0.051279 0.000000
# 6 0.000000 0.000000 0.000000 0.000000 0.000000 0.022719
#
#
# Mechanical properties :
#
#
# Convention : Reuss Voigt Hill
#
# Bulk Modulus (GPa) = 57.73550 57.77782 57.75666
# Shear Modulus (GPa) = 30.17097 36.80807 33.48952
#
# Velocity S-wave (km/s) = 3.78362 4.17911 3.98627
# Velocity P-wave (km/s) = 6.81780 7.12050 6.97079
#
# Compressibility (1/GPa) = 0.01732037
#
# Stress axis : x y z
#
# Youngs Moduli (GPa) = 123.82162 123.82162 101.59370
#
# Poissons Ratio (x) = 0.07189 0.19084
# Poissons Ratio (y) = 0.07189 0.19084
# Poissons Ratio (z) = 0.23259 0.23259
#
# Static dielectric constant tensor:
#      x y z
#    x 3.829970 0.000000 0.000000 
#    y 0.000000 3.829970 0.000000 
#    z 0.000000 0.000000 3.715240 
# 
# 
# High freq. dielectric constant tensor:
#      x y z
#    x 1.834080 0.000000 0.000000 
#    y 0.000000 1.834080 0.000000 
#    z 0.000000 0.000000 1.833050 
# 
# From -- ./inp_files/858.got.cif
#   From: 2010.03.12/outbox.cif.g09.slc.cpg/sg128_1_cif.got.tgz:858.got - 2010.04.06 17:11:05.
