data_PCOD8314496
_publ_section_title
;
Structure prediction by ZEFSAII (Michael W. Deem and Ramdas Pophale) SiO2 
 PCOD8314496
Probable space group: P 4/M N C
;
_chemical_formula_sum "Si O2"
_cell_formula_units_Z 128
_cell_length_a 17.364403
_cell_length_b 17.364403
_cell_length_c 23.345361
_cell_angle_alpha 90.000000
_cell_angle_beta 90.000000
_cell_angle_gamma 90.000000
_cell_volume 7039.151415
_symmetry_space_group_name_H-M "P 4/M N C"
_symmetry_group_IT_number 128
_symmetry_cell_setting 'tetragonal'
loop_
_space_group_symop_operation_xyz
x,y,z
-y,x,z
-x,-y,z
y,-x,z
1/2+x,1/2-y,1/2-z
1/2-x,1/2+y,1/2-z
1/2+y,1/2+x,1/2-z
1/2-y,1/2-x,1/2-z
-x,-y,-z
y,-x,-z
x,y,-z
-y,x,-z
1/2-x,1/2+y,1/2+z
1/2+x,1/2-y,1/2+z
1/2-y,1/2-x,1/2+z
1/2+y,1/2+x,1/2+z
loop_
_atom_site_type_symbol
_atom_site_label
_atom_site_fract_x
_atom_site_fract_y
_atom_site_fract_z
Si Si1 0.417426 0.591710 0.566772
Si Si2 0.673045 0.842544 0.317943
Si Si3 0.706995 0.091258 0.231034
Si Si4 0.046503 0.885674 0.229933
Si Si5 0.487296 0.626438 0.064783
Si Si6 0.825536 0.831531 0.157892
Si Si7 0.418732 0.023007 0.810778
Si Si8 0.481799 0.283109 0.173022
O O1 0.393609 0.505493 0.585565
O O2 0.408069 0.603052 0.500000
O O3 0.360565 0.653019 0.595534
O O4 0.671267 0.828734 0.250000
O O5 0.698269 0.762006 0.347577
O O6 0.590716 0.872105 0.342853
O O7 0.733349 0.906206 0.337664
O O8 0.672672 0.172672 0.250000
O O9 0.775260 0.114527 0.189032
O O10 0.638592 0.048549 0.196753
O O11 0.738914 0.041523 0.284777
O O12 0.086495 0.818601 0.192592
O O13 0.047297 0.862001 0.296668
O O14 0.958826 0.901533 0.213990
O O15 0.417027 0.568024 0.073822
O O16 0.480523 0.695113 0.111737
O O17 0.483772 0.660681 0.000000
O O18 0.442672 0.057329 0.750000
O O19 0.500000 0.000000 0.842388
#
# Coordination Sequence:
#
# PCOD8314496 Si02
#       8
#    16  16  16  16  16  16  16  16
#     4   9  20  39  59  76 103 150 196 226 264 338
#     4  11  21  34  50  77 120 148 178 232 289 335
#     4  12  23  34  53  82 117 149 186 222 286 346
#     4  11  21  30  46  76 110 143 175 211 272 346
#     4   9  20  38  58  79 106 147 197 238 276 337
#     4  12  23  33  49  83 119 143 172 232 295 341
#     4  10  17  36  55  71 103 153 196 225 250 328
#     4  12  21  36  54  80 113 152 186 231 284 339
#
# _framework density 18.184010000000001
#
# number of rings (size 3 to 8) (size 9 to 14) (size 15 to 20)
#    0.000    1.250    6.250    2.625    1.750    2.000 
#    0.000    0.625    0.000    0.750    0.000    0.000 
#    0.000    3.000    0.000    0.000    0.000    0.000 
#
# Total GULP energy -1586217.470272 kJ/mol
# GULP energy per Si atom -12392.323986 kJ/mol
# Density = 1.814262 g / cm^3
# Si number density = 18.184010 Si / 1000 Ang^3
#
#
#
# Elastic Constant Matrix: (Units=GPa)
#
#
# Indices 1 2 3 4 5 6 
#
# 1 96.7244 41.4166 32.8801 0.0000 0.0000 0.0000
# 2 41.4166 96.7242 32.8802 0.0000 0.0000 0.0000
# 3 32.8801 32.8802 66.5596 0.0000 0.0000 0.0000
# 4 0.0000 0.0000 0.0000 17.1777 0.0000 0.0000
# 5 0.0000 0.0000 0.0000 0.0000 17.1779 0.0000
# 6 0.0000 0.0000 0.0000 0.0000 0.0000 26.0093
#
#
#
# Elastic Compliance Matrix: (Units=1/GPa)
#
#
# Indices 1 2 3 4 5 6 
#
# 1 0.013773 -0.004308 -0.004676 0.000000 0.000000 0.000000
# 2 -0.004308 0.013773 -0.004676 0.000000 0.000000 0.000000
# 3 -0.004676 -0.004676 0.019644 0.000000 0.000000 0.000000
# 4 0.000000 0.000000 0.000000 0.058215 0.000000 0.000000
# 5 0.000000 0.000000 0.000000 0.000000 0.058214 0.000000
# 6 0.000000 0.000000 0.000000 0.000000 0.000000 0.038448
#
#
# Mechanical properties :
#
#
# Convention : Reuss Voigt Hill
#
# Bulk Modulus (GPa) = 50.32503 52.70689 51.51596
# Shear Modulus (GPa) = 21.18577 22.26175 21.72376
#
# Velocity S-wave (km/s) = 3.41703 3.50272 3.46014
# Velocity P-wave (km/s) = 6.58055 6.73847 6.65998
#
# Compressibility (1/GPa) = 0.01987083
#
# Stress axis : x y z
#
# Youngs Moduli (GPa) = 72.60756 72.60739 50.90741
#
# Poissons Ratio (x) = 0.31279 0.23802
# Poissons Ratio (y) = 0.31279 0.23802
# Poissons Ratio (z) = 0.33948 0.33948
#
# Static dielectric constant tensor:
#      x y z
#    x 3.574330 0.000000 0.000000 
#    y 0.000000 3.574320 0.000000 
#    z 0.000000 0.000000 2.986810 
# 
# 
# High freq. dielectric constant tensor:
#      x y z
#    x 1.709790 0.000000 0.000000 
#    y 0.000000 1.709790 0.000000 
#    z 0.000000 0.000000 1.654620 
# 
# From -- ./inp_files/6622.got.cif
#   From: 2010.03.12/outbox.cif.g09.slc.cpg/sg128_4_cif.got.tgz:6622.got - 2010.04.06 17:11:05.
