data_PCOD8314632
_publ_section_title
;
Structure prediction by ZEFSAII (Michael W. Deem and Ramdas Pophale) SiO2 
 PCOD8314632
Probable space group: P 4/M N C
;
_chemical_formula_sum "Si O2"
_cell_formula_units_Z 96
_cell_length_a 24.093089
_cell_length_b 24.093089
_cell_length_c 8.761404
_cell_angle_alpha 90.000000
_cell_angle_beta 90.000000
_cell_angle_gamma 90.000000
_cell_volume 5085.792963
_symmetry_space_group_name_H-M "P 4/M N C"
_symmetry_group_IT_number 128
_symmetry_cell_setting 'tetragonal'
loop_
_space_group_symop_operation_xyz
x,y,z
-y,x,z
-x,-y,z
y,-x,z
1/2+x,1/2-y,1/2-z
1/2-x,1/2+y,1/2-z
1/2+y,1/2+x,1/2-z
1/2-y,1/2-x,1/2-z
-x,-y,-z
y,-x,-z
x,y,-z
-y,x,-z
1/2-x,1/2+y,1/2+z
1/2+x,1/2-y,1/2+z
1/2-y,1/2-x,1/2+z
1/2+y,1/2+x,1/2+z
loop_
_atom_site_type_symbol
_atom_site_label
_atom_site_fract_x
_atom_site_fract_y
_atom_site_fract_z
Si Si1 0.348096 0.353789 0.820674
Si Si2 0.560805 0.859865 0.179595
Si Si3 0.351310 0.228286 0.178698
Si Si4 0.563868 0.436124 0.321773
Si Si5 0.770123 0.648424 0.319272
Si Si6 0.435346 0.855798 0.181364
O O1 0.365349 0.291249 0.775484
O O2 0.396438 0.395876 0.773206
O O3 0.291741 0.366327 0.731753
O O4 0.337294 0.360014 0.000000
O O5 0.582662 0.917339 0.250000
O O6 0.597864 0.808773 0.241215
O O7 0.498544 0.848811 0.232653
O O8 0.564471 0.865249 0.000000
O O9 0.293338 0.206663 0.250000
O O10 0.344423 0.222070 0.000000
O O11 0.577344 0.499990 0.279462
O O12 0.574029 0.425862 0.500000
O O13 0.793576 0.706425 0.250000
O O14 0.773600 0.652698 0.500000
O O15 0.806299 0.597774 0.258984
O O16 0.413906 0.913906 0.250000
O O17 0.427007 0.854135 0.000000
#
# Coordination Sequence:
#
# PCOD8314632 Si02
#       6
#    16  16  16  16  16  16
#     4  11  22  35  56  85 112 141 180 222 267 328
#     4   9  19  35  54  76 105 140 178 222 269 317
#     4   9  19  35  53  76 106 139 174 216 266 316
#     4   9  20  40  61  81 110 145 181 225 275 325
#     4  11  22  37  56  79 110 145 181 224 274 326
#     4  10  20  35  54  77 107 142 181 226 272 319
#
# _framework density 18.876113
#
# number of rings (size 3 to 8) (size 9 to 14) (size 15 to 20)
#    0.000    2.167    0.000    4.500    0.000    6.333 
#    0.000    4.167    0.000    0.000    0.000    0.000 
#    0.000    0.000    0.000    0.000    0.000    0.000 
#
# Total GULP energy -1190404.338000 kJ/mol
# GULP energy per Si atom -12400.045187 kJ/mol
# Density = 1.883315 g / cm^3
# Si number density = 18.876113 Si / 1000 Ang^3
#
#
#
# Elastic Constant Matrix: (Units=GPa)
#
#
# Indices 1 2 3 4 5 6 
#
# 1 128.0841 66.1545 51.0703 0.0000 0.0000 0.0000
# 2 66.1545 128.0813 51.0729 0.0000 0.0000 0.0000
# 3 51.0703 51.0729 84.7360 0.0000 0.0000 0.0000
# 4 0.0000 0.0000 0.0000 31.5674 0.0000 0.0000
# 5 0.0000 0.0000 0.0000 0.0000 31.5683 0.0000
# 6 0.0000 0.0000 0.0000 0.0000 0.0000 26.0612
#
#
#
# Elastic Compliance Matrix: (Units=1/GPa)
#
#
# Indices 1 2 3 4 5 6 
#
# 1 0.011842 -0.004305 -0.004542 0.000000 0.000000 0.000000
# 2 -0.004305 0.011843 -0.004543 0.000000 0.000000 0.000000
# 3 -0.004542 -0.004543 0.017277 0.000000 0.000000 0.000000
# 4 0.000000 0.000000 0.000000 0.031678 0.000000 0.000000
# 5 0.000000 0.000000 0.000000 0.000000 0.031677 0.000000
# 6 0.000000 0.000000 0.000000 0.000000 0.000000 0.038371
#
#
# Mechanical properties :
#
#
# Convention : Reuss Voigt Hill
#
# Bulk Modulus (GPa) = 70.51856 75.27741 72.89798
# Shear Modulus (GPa) = 28.70300 29.34630 29.02465
#
# Velocity S-wave (km/s) = 3.90372 3.94722 3.92553
# Velocity P-wave (km/s) = 7.59989 7.79361 7.69736
#
# Compressibility (1/GPa) = 0.01418066
#
# Stress axis : x y z
#
# Youngs Moduli (GPa) = 84.44417 84.43909 57.87908
#
# Poissons Ratio (x) = 0.36353 0.26291
# Poissons Ratio (y) = 0.36355 0.26296
# Poissons Ratio (z) = 0.38358 0.38363
#
# Static dielectric constant tensor:
#      x y z
#    x 3.602840 0.000000 0.000000 
#    y 0.000000 3.602860 0.000000 
#    z 0.000000 0.000000 3.421130 
# 
# 
# High freq. dielectric constant tensor:
#      x y z
#    x 1.736840 0.000000 0.000000 
#    y 0.000000 1.736840 0.000000 
#    z 0.000000 0.000000 1.735700 
# 
# From -- ./inp_files/1474.got.cif
#   From: 2010.03.12/outbox.cif.g09.slc.cpg/sg128_1_cif.got.tgz:1474.got - 2010.04.06 17:11:05.
