data_PCOD8314856
_publ_section_title
;
Structure prediction by ZEFSAII (Michael W. Deem and Ramdas Pophale) SiO2 
 PCOD8314856
Probable space group: P 4/N M M
;
_chemical_formula_sum "Si O2"
_cell_formula_units_Z 56
_cell_length_a 21.008370
_cell_length_b 21.008370
_cell_length_c 9.339291
_cell_angle_alpha 90.000000
_cell_angle_beta 90.000000
_cell_angle_gamma 90.000000
_cell_volume 4121.911120
_symmetry_space_group_name_H-M "P 4/N M M"
_symmetry_group_IT_number 129
_symmetry_cell_setting 'tetragonal'
loop_
_space_group_symop_operation_xyz
x,y,z
1/2-y,x,z
1/2-x,1/2-y,z
y,1/2-x,z
1/2+x,-y,-z
-x,1/2+y,-z
1/2+y,1/2+x,-z
-y,-x,-z
-x,-y,-z
1/2+y,-x,-z
1/2+x,1/2+y,-z
-y,1/2+x,-z
1/2-x,y,z
x,1/2-y,z
1/2-y,1/2-x,z
y,x,z
loop_
_atom_site_type_symbol
_atom_site_label
_atom_site_fract_x
_atom_site_fract_y
_atom_site_fract_z
Si Si1 0.821036 0.321036 0.500000
Si Si2 0.438455 0.956601 0.160610
Si Si3 0.178291 0.949409 0.349976
Si Si4 0.998530 0.403506 0.579799
O O1 0.828895 0.250000 0.567244
O O2 0.873673 0.330768 0.376713
O O3 0.368041 0.970469 0.221846
O O4 0.475029 0.902572 0.254870
O O5 0.477326 0.022675 0.165990
O O6 0.431162 0.931162 0.000000
O O7 0.250000 0.965880 0.304373
O O8 0.163214 0.988909 0.497281
O O9 0.953816 0.453816 0.500000
O O10 0.071722 0.428279 0.571223
#
# Coordination Sequence:
#
# PCOD8314856 Si02
#       4
#     8  16  16  16
#     4   9  16  24  35  50  72 104 135 162 190 223
#     4   9  16  27  41  56  77 103 130 159 201 244
#     4  10  16  25  39  57  75  97 134 167 195 229
#     4   8  13  24  39  54  71  93 123 156 193 232
#
# _framework density 13.585931
#
# number of rings (size 3 to 8) (size 9 to 14) (size 15 to 20)
#    0.000    3.000    4.286    2.571    0.000    0.000 
#    0.000    2.857    0.000    0.000    0.000    0.000 
#    0.000    9.143    0.000    0.000    0.000   64.000 
#
# Total GULP energy -693736.002631 kJ/mol
# GULP energy per Si atom -12388.142904 kJ/mol
# Density = 1.355501 g / cm^3
# Si number density = 13.585931 Si / 1000 Ang^3
#
#
#
# Elastic Constant Matrix: (Units=GPa)
#
#
# Indices 1 2 3 4 5 6 
#
# 1 63.0014 33.1269 32.5477 0.0000 0.0000 0.0000
# 2 33.1269 63.0014 32.5477 0.0000 0.0000 0.0000
# 3 32.5477 32.5477 104.2798 0.0000 0.0000 0.0000
# 4 0.0000 0.0000 0.0000 14.8171 0.0000 0.0000
# 5 0.0000 0.0000 0.0000 0.0000 14.8171 0.0000
# 6 0.0000 0.0000 0.0000 0.0000 0.0000 15.9968
#
#
#
# Elastic Compliance Matrix: (Units=1/GPa)
#
#
# Indices 1 2 3 4 5 6 
#
# 1 0.023332 -0.010141 -0.004117 0.000000 0.000000 0.000000
# 2 -0.010141 0.023332 -0.004117 0.000000 0.000000 0.000000
# 3 -0.004117 -0.004117 0.012160 0.000000 0.000000 0.000000
# 4 0.000000 0.000000 0.000000 0.067489 0.000000 0.000000
# 5 0.000000 0.000000 0.000000 0.000000 0.067489 0.000000
# 6 0.000000 0.000000 0.000000 0.000000 0.000000 0.062513
#
#
# Mechanical properties :
#
#
# Convention : Reuss Voigt Hill
#
# Bulk Modulus (GPa) = 45.30469 47.41414 46.35941
# Shear Modulus (GPa) = 16.64316 17.93023 17.28670
#
# Velocity S-wave (km/s) = 3.50384 3.63680 3.57094
# Velocity P-wave (km/s) = 7.05609 7.25329 7.15537
#
# Compressibility (1/GPa) = 0.02207277
#
# Stress axis : x y z
#
# Youngs Moduli (GPa) = 42.85956 42.85956 82.23941
#
# Poissons Ratio (x) = 0.43465 0.33859
# Poissons Ratio (y) = 0.43465 0.33859
# Poissons Ratio (z) = 0.17646 0.17646
#
# Static dielectric constant tensor:
#      x y z
#    x 2.706050 0.000000 0.000000 
#    y 0.000000 2.706050 0.000000 
#    z 0.000000 0.000000 2.868360 
# 
# 
# High freq. dielectric constant tensor:
#      x y z
#    x 1.495880 0.000000 0.000000 
#    y 0.000000 1.495880 0.000000 
#    z 0.000000 0.000000 1.504180 
# 
# From -- ./inp_files/1921.got.cif
#   From: 2010.03.12/outbox.cif.g09.slc.cpg/sg129_1_cif.got.tgz:1921.got - 2010.04.06 17:19:44.
