data_PCOD8314979
_publ_section_title
;
Structure prediction by ZEFSAII (Michael W. Deem and Ramdas Pophale) SiO2 
 PCOD8314979
Probable space group: P 4/N M M
;
_chemical_formula_sum "Si O2"
_cell_formula_units_Z 104
_cell_length_a 19.724144
_cell_length_b 19.724144
_cell_length_c 18.032503
_cell_angle_alpha 90.000000
_cell_angle_beta 90.000000
_cell_angle_gamma 90.000000
_cell_volume 7015.398445
_symmetry_space_group_name_H-M "P 4/N M M"
_symmetry_group_IT_number 129
_symmetry_cell_setting 'tetragonal'
loop_
_space_group_symop_operation_xyz
x,y,z
1/2-y,x,z
1/2-x,1/2-y,z
y,1/2-x,z
1/2+x,-y,-z
-x,1/2+y,-z
1/2+y,1/2+x,-z
-y,-x,-z
-x,-y,-z
1/2+y,-x,-z
1/2+x,1/2+y,-z
-y,1/2+x,-z
1/2-x,y,z
x,1/2-y,z
1/2-y,1/2-x,z
y,x,z
loop_
_atom_site_type_symbol
_atom_site_label
_atom_site_fract_x
_atom_site_fract_y
_atom_site_fract_z
Si Si1 0.394023 0.827157 0.428769
Si Si2 0.171267 0.829616 0.720636
Si Si3 0.170691 0.670691 0.000000
Si Si4 0.827374 0.935977 0.636683
Si Si5 0.329896 0.586317 0.142077
Si Si6 0.171603 0.440806 0.193510
Si Si7 0.505380 0.891974 0.497730
O O1 0.360401 0.860401 0.500000
O O2 0.372924 0.750000 0.428853
O O3 0.367072 0.858243 0.352120
O O4 0.475683 0.838077 0.437999
O O5 0.250000 0.846347 0.735436
O O6 0.159825 0.750000 0.709056
O O7 0.128359 0.859990 0.788837
O O8 0.122818 0.645838 0.932969
O O9 0.159032 0.750000 0.019857
O O10 0.750000 0.924365 0.614386
O O11 0.863328 0.863328 0.629785
O O12 0.835046 0.963223 0.720585
O O13 0.859791 0.990113 0.580043
O O14 0.250000 0.592443 0.147639
O O15 0.350916 0.506797 0.145490
O O16 0.250000 0.419924 0.176499
O O17 0.122478 0.377523 0.173579
O O18 0.454054 0.954054 0.500000
O O19 0.579238 0.920763 0.472807
#
# Coordination Sequence:
#
# PCOD8314979 Si02
#       7
#    16  16   8  16  16  16  16
#     4  10  19  27  38  55  77 106 137 168 204 247
#     4   9  17  28  40  57  82 110 140 175 213 250
#     4   9  16  28  47  68  88 112 143 176 208 247
#     4   9  17  29  44  60  79 104 137 178 220 258
#     4   9  17  28  44  64  85 110 141 176 213 250
#     4   9  18  30  45  65  87 113 143 176 216 260
#     4   9  18  29  39  53  73 102 139 173 203 241
#
# _framework density 14.824532
#
# number of rings (size 3 to 8) (size 9 to 14) (size 15 to 20)
#    0.000    2.846    0.000    1.385    4.308    2.923 
#    0.000    1.923    0.000    0.000    0.000    0.000 
#    0.000    0.000    0.000    0.000    0.000    0.615 
#
# Total GULP energy -1288598.302360 kJ/mol
# GULP energy per Si atom -12390.368292 kJ/mol
# Density = 1.479079 g / cm^3
# Si number density = 14.824532 Si / 1000 Ang^3
#
#
#
# Elastic Constant Matrix: (Units=GPa)
#
#
# Indices 1 2 3 4 5 6 
#
# 1 71.8849 31.3787 48.2942 0.0000 0.0000 0.0000
# 2 31.3787 71.8849 48.2942 0.0000 0.0000 0.0000
# 3 48.2942 48.2942 100.4364 0.0000 0.0000 0.0000
# 4 0.0000 0.0000 0.0000 17.1487 0.0000 0.0000
# 5 0.0000 0.0000 0.0000 0.0000 17.1487 0.0000
# 6 0.0000 0.0000 0.0000 0.0000 0.0000 20.7273
#
#
#
# Elastic Compliance Matrix: (Units=1/GPa)
#
#
# Indices 1 2 3 4 5 6 
#
# 1 0.021144 -0.003544 -0.008463 0.000000 0.000000 0.000000
# 2 -0.003544 0.021144 -0.008463 0.000000 0.000000 0.000000
# 3 -0.008463 -0.008463 0.018095 0.000000 0.000000 0.000000
# 4 0.000000 0.000000 0.000000 0.058314 0.000000 0.000000
# 5 0.000000 0.000000 0.000000 0.000000 0.058314 0.000000
# 6 0.000000 0.000000 0.000000 0.000000 0.000000 0.048246
#
#
# Mechanical properties :
#
#
# Convention : Reuss Voigt Hill
#
# Bulk Modulus (GPa) = 51.43099 55.57114 53.50107
# Shear Modulus (GPa) = 18.33688 18.75419 18.54554
#
# Velocity S-wave (km/s) = 3.52081 3.56065 3.54079
# Velocity P-wave (km/s) = 7.16217 7.38049 7.27215
#
# Compressibility (1/GPa) = 0.01944353
#
# Stress axis : x y z
#
# Youngs Moduli (GPa) = 47.29574 47.29574 55.26400
#
# Poissons Ratio (x) = 0.16762 0.46768
# Poissons Ratio (y) = 0.16762 0.46768
# Poissons Ratio (z) = 0.40025 0.40025
#
# Static dielectric constant tensor:
#      x y z
#    x 3.479230 0.000000 0.000000 
#    y 0.000000 3.479230 0.000000 
#    z 0.000000 0.000000 2.928730 
# 
# 
# High freq. dielectric constant tensor:
#      x y z
#    x 1.555910 0.000000 0.000000 
#    y 0.000000 1.555910 0.000000 
#    z 0.000000 0.000000 1.549830 
# 
# From -- ./inp_files/5072.got.cif
#   From: 2010.03.12/outbox.cif.g09.slc.cpg/sg129_3_cif.got.tgz:5072.got - 2010.04.06 17:19:44.
