data_PCOD8314855
_publ_section_title
;
Structure prediction by ZEFSAII (Michael W. Deem and Ramdas Pophale) SiO2 
 PCOD8314855
Probable space group: P 4/N M M
;
_chemical_formula_sum "Si O2"
_cell_formula_units_Z 74
_cell_length_a 16.462221
_cell_length_b 16.462221
_cell_length_c 17.405730
_cell_angle_alpha 90.000000
_cell_angle_beta 90.000000
_cell_angle_gamma 90.000000
_cell_volume 4717.034989
_symmetry_space_group_name_H-M "P 4/N M M"
_symmetry_group_IT_number 129
_symmetry_cell_setting 'tetragonal'
loop_
_space_group_symop_operation_xyz
x,y,z
1/2-y,x,z
1/2-x,1/2-y,z
y,1/2-x,z
1/2+x,-y,-z
-x,1/2+y,-z
1/2+y,1/2+x,-z
-y,-x,-z
-x,-y,-z
1/2+y,-x,-z
1/2+x,1/2+y,-z
-y,1/2+x,-z
1/2-x,y,z
x,1/2-y,z
1/2-y,1/2-x,z
y,x,z
loop_
_atom_site_type_symbol
_atom_site_label
_atom_site_fract_x
_atom_site_fract_y
_atom_site_fract_z
Si Si1 0.447103 0.923870 0.590003
Si Si2 0.601658 0.250000 0.388942
Si Si3 0.250000 0.658004 0.224618
Si Si4 0.843994 0.156007 0.000000
Si Si5 0.345390 0.910810 0.841046
Si Si6 0.023566 0.346202 0.707388
Si Si7 0.250000 0.750000 0.500000
O O1 0.431354 0.931354 0.500000
O O2 0.456234 0.828916 0.609678
O O3 0.530650 0.969351 0.612794
O O4 0.373023 0.962901 0.638937
O O5 0.658809 0.250000 0.315499
O O6 0.664938 0.250000 0.457338
O O7 0.250000 0.750000 0.193060
O O8 0.169640 0.612430 0.194152
O O9 0.864911 0.091262 0.067741
O O10 0.750000 0.144739 0.972467
O O11 0.250000 0.904709 0.827320
O O12 0.374245 0.988445 0.791456
O O13 0.036956 0.250000 0.701490
O O14 0.110441 0.389560 0.697568
#
# Coordination Sequence:
#
# PCOD8314855 Si02
#       7
#    16   8   8   8  16  16   2
#     4  10  22  35  48  70  99 129 156 191 237 282
#     4  12  20  30  50  71  99 125 159 199 237 292
#     4  10  16  24  40  65  95 123 150 183 229 284
#     4   9  14  22  39  66  96 126 151 174 223 296
#     4   9  16  26  42  65  95 123 151 187 228 282
#     4  10  21  35  50  67  93 127 164 203 243 283
#     4  12  24  24  44  84  96 122 164 196 248 296
#
# _framework density 15.68782
#
# number of rings (size 3 to 8) (size 9 to 14) (size 15 to 20)
#    0.000    2.054    4.865    0.000    3.027    0.216 
#    0.000    0.541    0.000    0.324    0.000    0.000 
#    0.000    0.000    0.000    0.000    0.000    0.000 
#
# Total GULP energy -916770.303839 kJ/mol
# GULP energy per Si atom -12388.787890 kJ/mol
# Density = 1.565211 g / cm^3
# Si number density = 15.687820 Si / 1000 Ang^3
#
#
#
# Elastic Constant Matrix: (Units=GPa)
#
#
# Indices 1 2 3 4 5 6 
#
# 1 84.9927 43.7061 26.5005 0.0000 0.0000 0.0000
# 2 43.7061 84.9932 26.5004 0.0000 0.0000 0.0000
# 3 26.5005 26.5004 91.3523 0.0000 0.0000 0.0000
# 4 0.0000 0.0000 0.0000 14.0598 0.0000 0.0000
# 5 0.0000 0.0000 0.0000 0.0000 14.0598 0.0000
# 6 0.0000 0.0000 0.0000 0.0000 0.0000 12.4580
#
#
#
# Elastic Compliance Matrix: (Units=1/GPa)
#
#
# Indices 1 2 3 4 5 6 
#
# 1 0.016523 -0.007698 -0.002560 0.000000 0.000000 0.000000
# 2 -0.007698 0.016522 -0.002560 0.000000 0.000000 0.000000
# 3 -0.002560 -0.002560 0.012432 0.000000 0.000000 0.000000
# 4 0.000000 0.000000 0.000000 0.071125 0.000000 0.000000
# 5 0.000000 0.000000 0.000000 0.000000 0.071125 0.000000
# 6 0.000000 0.000000 0.000000 0.000000 0.000000 0.080270
#
#
# Mechanical properties :
#
#
# Convention : Reuss Voigt Hill
#
# Bulk Modulus (GPa) = 50.40076 50.52803 50.46440
# Shear Modulus (GPa) = 16.65300 19.09091 17.87195
#
# Velocity S-wave (km/s) = 3.26164 3.49223 3.37890
# Velocity P-wave (km/s) = 6.81039 6.96701 6.88915
#
# Compressibility (1/GPa) = 0.01984097
#
# Stress axis : x y z
#
# Youngs Moduli (GPa) = 60.52322 60.52365 80.43882
#
# Poissons Ratio (x) = 0.46593 0.20591
# Poissons Ratio (y) = 0.46592 0.20591
# Poissons Ratio (z) = 0.15493 0.15493
#
# Static dielectric constant tensor:
#      x y z
#    x 2.860010 0.000000 0.000000 
#    y 0.000000 2.860000 0.000000 
#    z 0.000000 0.000000 3.160840 
# 
# 
# High freq. dielectric constant tensor:
#      x y z
#    x 1.572680 0.000000 0.000000 
#    y 0.000000 1.572680 0.000000 
#    z 0.000000 0.000000 1.617440 
# 
# From -- ./inp_files/6374.got.cif
#   From: 2010.03.12/outbox.cif.g09.slc.cpg/sg129_4_cif.got.tgz:6374.got - 2010.04.06 17:19:44.
