data_PCOD8314658
_publ_section_title
;
Structure prediction by ZEFSAII (Michael W. Deem and Ramdas Pophale) SiO2 
 PCOD8314658
Probable space group: P 4/M N C
;
_chemical_formula_sum "Si O2"
_cell_formula_units_Z 72
_cell_length_a 12.326738
_cell_length_b 12.326738
_cell_length_c 24.445616
_cell_angle_alpha 90.000000
_cell_angle_beta 90.000000
_cell_angle_gamma 90.000000
_cell_volume 3714.473943
_symmetry_space_group_name_H-M "P 4/M N C"
_symmetry_group_IT_number 128
_symmetry_cell_setting 'tetragonal'
loop_
_space_group_symop_operation_xyz
x,y,z
-y,x,z
-x,-y,z
y,-x,z
1/2+x,1/2-y,1/2-z
1/2-x,1/2+y,1/2-z
1/2+y,1/2+x,1/2-z
1/2-y,1/2-x,1/2-z
-x,-y,-z
y,-x,-z
x,y,-z
-y,x,-z
1/2-x,1/2+y,1/2+z
1/2+x,1/2-y,1/2+z
1/2-y,1/2-x,1/2+z
1/2+y,1/2+x,1/2+z
loop_
_atom_site_type_symbol
_atom_site_label
_atom_site_fract_x
_atom_site_fract_y
_atom_site_fract_z
Si Si1 0.571334 0.178977 0.303047
Si Si2 0.664672 0.753040 0.694276
Si Si3 0.000000 0.500000 0.887695
Si Si4 0.341296 0.167464 0.079585
Si Si5 0.154154 0.090807 0.500000
Si Si6 0.663260 0.419126 0.500000
O O1 0.616546 0.116546 0.250000
O O2 0.460814 0.242577 0.289809
O O3 0.641048 0.280735 0.324989
O O4 0.559674 0.089910 0.350448
O O5 0.724892 0.775109 0.750000
O O6 0.686786 0.834866 0.644534
O O7 0.085088 0.558159 0.928390
O O8 0.369240 0.282487 0.053396
O O9 0.231979 0.115197 0.053810
O O10 0.038155 0.146803 0.500000
O O11 0.644062 0.548606 0.500000
#
# Coordination Sequence:
#
# PCOD8314658 Si02
#       6
#    16  16   8  16   8   8
#     4  10  20  37  60  85 129 160 206 248 304 373
#     4  10  22  38  61  96 123 165 201 253 313 368
#     4  10  21  35  60  92 112 166 197 251 302 370
#     4  10  23  39  65  89 120 163 208 253 304 383
#     4  10  24  43  62  86 120 163 208 268 314 348
#     4  10  24  41  60  90 126 161 202 264 322 360
#
# _framework density 19.383631999999999
#
# number of rings (size 3 to 8) (size 9 to 14) (size 15 to 20)
#    0.000    2.000    0.000    3.000    9.333    4.000 
#    0.000    0.000    0.000    0.000    0.000    0.000 
#    0.000    0.000    0.000    0.000    0.000    0.000 
#
# Total GULP energy -892206.445736 kJ/mol
# GULP energy per Si atom -12391.756191 kJ/mol
# Density = 1.933951 g / cm^3
# Si number density = 19.383632 Si / 1000 Ang^3
#
#
#
# Elastic Constant Matrix: (Units=GPa)
#
#
# Indices 1 2 3 4 5 6 
#
# 1 99.0373 103.5076 29.4792 0.0000 0.0000 0.0000
# 2 103.5076 99.0359 29.4757 0.0000 0.0000 0.0000
# 3 29.4792 29.4757 91.8894 0.0000 0.0000 0.0000
# 4 0.0000 0.0000 0.0000 12.2594 0.0000 0.0000
# 5 0.0000 0.0000 0.0000 0.0000 12.2527 0.0000
# 6 0.0000 0.0000 0.0000 0.0000 0.0000 43.1730
#
#
#
# Elastic Compliance Matrix: (Units=1/GPa)
#
#
# Indices 1 2 3 4 5 6 
#
# 1 -0.109109 0.114554 -0.001743 0.000000 0.000000 0.000000
# 2 0.114554 -0.109108 -0.001751 0.000000 0.000000 0.000000
# 3 -0.001743 -0.001751 0.012003 0.000000 0.000000 0.000000
# 4 0.000000 0.000000 0.000000 0.081570 0.000000 0.000000
# 5 0.000000 0.000000 0.000000 0.000000 0.081615 0.000000
# 6 0.000000 0.000000 0.000000 0.000000 0.000000 0.023163
#
#
# Mechanical properties :
#
#
# Convention : Reuss Voigt Hill
#
# Bulk Modulus (GPa) = 62.86513 68.32086 65.59300
# Shear Modulus (GPa) = -21.12515 22.03701 0.45593
#
# Velocity S-wave (km/s) = -3.30486 3.37543 0.48552
# Velocity P-wave (km/s) = 4.23552 7.10736 5.85040
#
# Compressibility (1/GPa) = 0.01590707
#
# Stress axis : x y z
#
# Youngs Moduli (GPa) = -9.16514 -9.16522 83.30932
#
# Poissons Ratio (x) = 1.04992 0.14517
# Poissons Ratio (y) = 1.04991 0.14590
# Poissons Ratio (z) = -0.01597 -0.01605
#
# Static dielectric constant tensor:
#      x y z
#    x 3.782960 0.000000 0.000000 
#    y 0.000000 3.782980 0.000000 
#    z 0.000000 0.000000 3.720440 
# 
# 
# High freq. dielectric constant tensor:
#      x y z
#    x 1.760260 0.000000 0.000000 
#    y 0.000000 1.760260 0.000000 
#    z 0.000000 0.000000 1.757960 
# 
# From -- ./inp_files/6812.got.cif
#   From: 2010.03.12/outbox.cif.g09.slc.cpg/sg128_4_cif.got.tgz:6812.got - 2010.04.06 17:11:05.
