data_PCOD8314033
_publ_section_title
;
Structure prediction by ZEFSAII (Michael W. Deem and Ramdas Pophale) SiO2 
 PCOD8314033
Probable space group: P 4/M B M
;
_chemical_formula_sum "Si O2"
_cell_formula_units_Z 96
_cell_length_a 24.846382
_cell_length_b 24.846382
_cell_length_c 8.502939
_cell_angle_alpha 90.000000
_cell_angle_beta 90.000000
_cell_angle_gamma 90.000000
_cell_volume 5249.227307
_symmetry_space_group_name_H-M "P 4/M B M"
_symmetry_group_IT_number 127
_symmetry_cell_setting 'tetragonal'
loop_
_space_group_symop_operation_xyz
x,y,z
-y,x,z
-x,-y,z
y,-x,z
1/2+x,1/2-y,-z
1/2-x,1/2+y,-z
1/2+y,1/2+x,-z
1/2-y,1/2-x,-z
-x,-y,-z
y,-x,-z
x,y,-z
-y,x,-z
1/2-x,1/2+y,z
1/2+x,1/2-y,z
1/2-y,1/2-x,z
1/2+y,1/2+x,z
loop_
_atom_site_type_symbol
_atom_site_label
_atom_site_fract_x
_atom_site_fract_y
_atom_site_fract_z
Si Si1 0.840653 0.340653 0.687681
Si Si2 0.876456 0.916835 0.683734
Si Si3 0.740804 0.400705 0.685633
Si Si4 0.348810 0.469713 0.182442
Si Si5 0.519825 0.237203 0.313798
Si Si6 0.377548 0.965123 0.182408
Si Si7 0.926901 0.426901 0.313988
O O1 0.841036 0.341036 0.500000
O O2 0.781382 0.355561 0.753369
O O3 0.883812 0.383812 0.750479
O O4 0.889557 0.908568 0.500000
O O5 0.820377 0.887881 0.733815
O O6 0.921924 0.890831 0.790480
O O7 0.870347 0.980082 0.716783
O O8 0.745391 0.403376 0.500000
O O9 0.760354 0.458527 0.748658
O O10 0.289356 0.450663 0.238770
O O11 0.347880 0.485198 0.000000
O O12 0.524883 0.241570 0.500000
O O13 0.544970 0.180966 0.258300
O O14 0.410824 0.910824 0.213153
O O15 0.410443 0.014231 0.256832
O O16 0.370237 0.977381 0.000000
O O17 0.927276 0.427276 0.500000
#
# Coordination Sequence:
#
# PCOD8314033 Si02
#       7
#     8  16  16  16  16  16   8
#     4   9  14  26  50  81 106 132 172 230 280 317
#     4  10  20  36  57  84 113 148 186 226 269 328
#     4   8  15  28  51  79 106 132 171 224 273 314
#     4  11  22  37  58  85 115 147 179 222 279 336
#     4  10  19  35  57  80 104 140 187 228 268 329
#     4  11  23  36  50  74 111 149 185 232 290 340
#     4  11  20  32  53  78 108 144 188 234 280 332
#
# _framework density 18.288406999999999
#
# number of rings (size 3 to 8) (size 9 to 14) (size 15 to 20)
#    0.000    2.000    1.667    4.500    0.000    2.667 
#    0.000    1.667    1.833    0.000    0.000    0.000 
#    0.000    0.000    0.000    0.000    0.000    0.000 
#
# Total GULP energy -1190192.597634 kJ/mol
# GULP energy per Si atom -12397.839559 kJ/mol
# Density = 1.824678 g / cm^3
# Si number density = 18.288407 Si / 1000 Ang^3
#
#
#
# Elastic Constant Matrix: (Units=GPa)
#
#
# Indices 1 2 3 4 5 6 
#
# 1 93.7493 47.3614 22.2083 0.0000 0.0000 0.0000
# 2 47.3614 93.7493 22.2083 0.0000 0.0000 0.0000
# 3 22.2083 22.2083 64.3878 0.0000 0.0000 0.0000
# 4 0.0000 0.0000 0.0000 24.4390 0.0000 0.0000
# 5 0.0000 0.0000 0.0000 0.0000 24.4390 0.0000
# 6 0.0000 0.0000 0.0000 0.0000 0.0000 27.0256
#
#
#
# Elastic Compliance Matrix: (Units=1/GPa)
#
#
# Indices 1 2 3 4 5 6 
#
# 1 0.014754 -0.006804 -0.002742 0.000000 0.000000 0.000000
# 2 -0.006804 0.014754 -0.002742 0.000000 0.000000 0.000000
# 3 -0.002742 -0.002742 0.017422 0.000000 0.000000 0.000000
# 4 0.000000 0.000000 0.000000 0.040918 0.000000 0.000000
# 5 0.000000 0.000000 0.000000 0.000000 0.040918 0.000000
# 6 0.000000 0.000000 0.000000 0.000000 0.000000 0.037002
#
#
# Mechanical properties :
#
#
# Convention : Reuss Voigt Hill
#
# Bulk Modulus (GPa) = 44.73491 48.38250 46.55871
# Shear Modulus (GPa) = 25.27872 25.85459 25.56666
#
# Velocity S-wave (km/s) = 3.72186 3.76402 3.74300
# Velocity P-wave (km/s) = 6.55619 6.73819 6.64781
#
# Compressibility (1/GPa) = 0.02235390
#
# Stress axis : x y z
#
# Youngs Moduli (GPa) = 67.78030 67.78030 57.39744
#
# Poissons Ratio (x) = 0.46117 0.15738
# Poissons Ratio (y) = 0.46117 0.15738
# Poissons Ratio (z) = 0.18585 0.18585
#
# Static dielectric constant tensor:
#      x y z
#    x 3.465950 0.000000 0.000000 
#    y 0.000000 3.465950 0.000000 
#    z 0.000000 0.000000 3.228990 
# 
# 
# High freq. dielectric constant tensor:
#      x y z
#    x 1.701390 0.000000 0.000000 
#    y 0.000000 1.701390 0.000000 
#    z 0.000000 0.000000 1.701480 
# 
# From -- ./inp_files/2113.got.cif
#   From: 2010.03.12/outbox.cif.g09.slc.cpg/sg127_2_cif.got.tgz:2113.got - 2010.04.06 17:03:15.
