data_PCOD8314396
_publ_section_title
;
Structure prediction by ZEFSAII (Michael W. Deem and Ramdas Pophale) SiO2 
 PCOD8314396
Probable space group: P 4/M B M
;
_chemical_formula_sum "Si O2"
_cell_formula_units_Z 96
_cell_length_a 24.109635
_cell_length_b 24.109635
_cell_length_c 9.146223
_cell_angle_alpha 90.000000
_cell_angle_beta 90.000000
_cell_angle_gamma 90.000000
_cell_volume 5316.466200
_symmetry_space_group_name_H-M "P 4/M B M"
_symmetry_group_IT_number 127
_symmetry_cell_setting 'tetragonal'
loop_
_space_group_symop_operation_xyz
x,y,z
-y,x,z
-x,-y,z
y,-x,z
1/2+x,1/2-y,-z
1/2-x,1/2+y,-z
1/2+y,1/2+x,-z
1/2-y,1/2-x,-z
-x,-y,-z
y,-x,-z
x,y,-z
-y,x,-z
1/2-x,1/2+y,z
1/2+x,1/2-y,z
1/2-y,1/2-x,z
1/2+y,1/2+x,z
loop_
_atom_site_type_symbol
_atom_site_label
_atom_site_fract_x
_atom_site_fract_y
_atom_site_fract_z
Si Si1 0.358455 0.230647 0.331764
Si Si2 0.637220 0.947264 0.669557
Si Si3 0.560011 0.567691 0.328837
Si Si4 0.067070 0.342648 0.330781
Si Si5 0.656515 0.361488 0.826893
Si Si6 0.265030 0.853664 0.828584
O O1 0.352382 0.249556 0.500000
O O2 0.302223 0.197778 0.283415
O O3 0.410882 0.191566 0.310650
O O4 0.374115 0.282236 0.230706
O O5 0.624033 0.956305 0.500000
O O6 0.584617 0.915384 0.741676
O O7 0.646219 0.007151 0.741997
O O8 0.495342 0.577251 0.288121
O O9 0.569135 0.578191 0.500000
O O10 0.597942 0.610569 0.240566
O O11 0.062935 0.325898 0.500000
O O12 0.102158 0.397843 0.306514
O O13 0.093260 0.291031 0.248059
O O14 0.646199 0.298349 0.778007
O O15 0.655149 0.369205 0.000000
O O16 0.297061 0.797061 0.779564
O O17 0.270640 0.861582 0.000000
#
# Coordination Sequence:
#
# PCOD8314396 Si02
#       6
#    16  16  16  16  16  16
#     4   9  18  33  52  73 100 136 175 213 253 299
#     4   8  15  29  48  71 100 131 163 203 250 293
#     4   9  20  40  61  78 100 132 168 206 250 302
#     4   9  17  29  48  74  99 126 165 209 247 286
#     4  11  22  34  53  80 105 131 166 207 254 310
#     4   9  19  35  50  66  97 137 167 197 244 296
#
# _framework density 18.057106999999998
#
# number of rings (size 3 to 8) (size 9 to 14) (size 15 to 20)
#    0.000    2.833    0.000    2.500    0.000    4.667 
#    0.000   10.000    0.000    1.500    0.000    2.333 
#    0.000    0.000    0.000    0.000    0.000    0.000 
#
# Total GULP energy -1189947.962562 kJ/mol
# GULP energy per Si atom -12395.291277 kJ/mol
# Density = 1.801601 g / cm^3
# Si number density = 18.057107 Si / 1000 Ang^3
#
#
#
# Elastic Constant Matrix: (Units=GPa)
#
#
# Indices 1 2 3 4 5 6 
#
# 1 -128.5338 280.8884 34.7499 0.0000 0.0000 0.0000
# 2 280.8884 -128.5338 34.7499 0.0000 0.0000 0.0000
# 3 34.7499 34.7499 35.0638 0.0000 0.0000 0.0000
# 4 0.0000 0.0000 0.0000 8.3366 0.0000 0.0000
# 5 0.0000 0.0000 0.0000 0.0000 8.3366 0.0000
# 6 0.0000 0.0000 0.0000 0.0000 0.0000 24.2778
#
#
#
# Elastic Compliance Matrix: (Units=1/GPa)
#
#
# Indices 1 2 3 4 5 6 
#
# 1 0.004768 0.007211 -0.011872 0.000000 0.000000 0.000000
# 2 0.007211 0.004768 -0.011872 0.000000 0.000000 0.000000
# 3 -0.011872 -0.011872 0.052051 0.000000 0.000000 0.000000
# 4 0.000000 0.000000 0.000000 0.119953 0.000000 0.000000
# 5 0.000000 0.000000 0.000000 0.000000 0.119953 0.000000
# 6 0.000000 0.000000 0.000000 0.000000 0.000000 0.041190
#
#
# Mechanical properties :
#
#
# Convention : Reuss Voigt Hill
#
# Bulk Modulus (GPa) = 35.06143 53.19696 44.12919
# Shear Modulus (GPa) = 12.97835 -29.96925 -8.49545
#
# Velocity S-wave (km/s) = 2.68384 -4.07835 -2.17140
# Velocity P-wave (km/s) = 5.39102 2.71055 4.26674
#
# Compressibility (1/GPa) = 0.02852137
#
# Stress axis : x y z
#
# Youngs Moduli (GPa) = 209.71206 209.71206 19.21188
#
# Poissons Ratio (x) = -1.51221 0.22809
# Poissons Ratio (y) = -1.51221 0.22809
# Poissons Ratio (z) = 2.48973 2.48973
#
# Static dielectric constant tensor:
#      x y z
#    x 3.503840 0.000000 0.000000 
#    y 0.000000 3.503840 0.000000 
#    z 0.000000 0.000000 3.111010 
# 
# 
# High freq. dielectric constant tensor:
#      x y z
#    x 1.705430 0.000000 0.000000 
#    y 0.000000 1.705430 0.000000 
#    z 0.000000 0.000000 1.674810 
# 
# From -- ./inp_files/1938.got.cif
#   From: 2010.03.12/outbox.cif.g09.slc.cpg/sg127_1_cif.got.tgz:1938.got - 2010.04.06 17:03:15.
