data_PCOD8314042
_publ_section_title
;
Structure prediction by ZEFSAII (Michael W. Deem and Ramdas Pophale) SiO2 
 PCOD8314042
Probable space group: P 4/M B M
;
_chemical_formula_sum "Si O2"
_cell_formula_units_Z 120
_cell_length_a 24.702032
_cell_length_b 24.702032
_cell_length_c 9.924242
_cell_angle_alpha 90.000000
_cell_angle_beta 90.000000
_cell_angle_gamma 90.000000
_cell_volume 6055.677046
_symmetry_space_group_name_H-M "P 4/M B M"
_symmetry_group_IT_number 127
_symmetry_cell_setting 'tetragonal'
loop_
_space_group_symop_operation_xyz
x,y,z
-y,x,z
-x,-y,z
y,-x,z
1/2+x,1/2-y,-z
1/2-x,1/2+y,-z
1/2+y,1/2+x,-z
1/2-y,1/2-x,-z
-x,-y,-z
y,-x,-z
x,y,-z
-y,x,-z
1/2-x,1/2+y,z
1/2+x,1/2-y,z
1/2-y,1/2-x,z
1/2+y,1/2+x,z
loop_
_atom_site_type_symbol
_atom_site_label
_atom_site_fract_x
_atom_site_fract_y
_atom_site_fract_z
Si Si1 0.438227 0.145610 0.348765
Si Si2 0.070141 0.865192 0.344959
Si Si3 0.256679 0.413635 0.840668
Si Si4 0.617650 0.747062 0.340156
Si Si5 0.792111 0.206140 0.149419
Si Si6 0.951915 0.847337 0.340096
Si Si7 0.859809 0.549776 0.756475
Si Si8 0.087336 0.502927 0.000000
O O1 0.418534 0.150305 0.500000
O O2 0.409279 0.090722 0.287886
O O3 0.412970 0.199917 0.281427
O O4 0.504166 0.145822 0.358022
O O5 0.082678 0.873826 0.500000
O O6 0.079739 0.803487 0.302241
O O7 0.112775 0.906341 0.276871
O O8 0.008037 0.878984 0.312755
O O9 0.279468 0.354692 0.804964
O O10 0.292412 0.453452 0.748216
O O11 0.194475 0.418075 0.792435
O O12 0.260943 0.426977 0.000000
O O13 0.630436 0.749352 0.500000
O O14 0.672942 0.738285 0.258998
O O15 0.734040 0.234040 0.141432
O O16 0.819584 0.207040 0.000000
O O17 0.946115 0.832782 0.500000
O O18 0.906729 0.593272 0.723173
O O19 0.874909 0.507502 0.873563
O O20 0.038730 0.461271 0.000000
O O21 0.063957 0.563957 0.000000
#
# Coordination Sequence:
#
# PCOD8314042 Si02
#       8
#    16  16  16  16  16  16  16   8
#     4  10  22  39  59  85 120 160 200 248 306 360
#     4   9  18  33  57  87 117 150 191 241 290 341
#     4  11  22  38  59  87 120 156 195 243 307 368
#     4  10  19  37  60  84 115 154 197 242 295 355
#     4  10  21  36  56  83 116 151 190 240 294 354
#     4  10  20  37  60  86 118 156 199 244 293 354
#     4  11  22  38  60  84 114 154 200 248 301 359
#     4   9  18  34  56  80 106 144 194 243 286 338
#
# _framework density 19.816116000000001
#
# number of rings (size 3 to 8) (size 9 to 14) (size 15 to 20)
#    0.000    1.933    2.000    2.000    0.000    4.267 
#    1.200    3.333    0.000    2.400    0.000    0.933 
#    0.000    0.000    0.000    0.000    0.000    0.000 
#
# Total GULP energy -1486747.471779 kJ/mol
# GULP energy per Si atom -12389.562265 kJ/mol
# Density = 1.977101 g / cm^3
# Si number density = 19.816116 Si / 1000 Ang^3
#
#
#
# Elastic Constant Matrix: (Units=GPa)
#
#
# Indices 1 2 3 4 5 6 
#
# 1 107.6538 63.7454 29.4400 0.0000 0.0000 0.0000
# 2 63.7454 107.6539 29.4401 0.0000 0.0000 0.0000
# 3 29.4400 29.4401 48.9294 0.0000 0.0000 0.0000
# 4 0.0000 0.0000 0.0000 24.0737 0.0000 0.0000
# 5 0.0000 0.0000 0.0000 0.0000 24.0733 0.0000
# 6 0.0000 0.0000 0.0000 0.0000 0.0000 33.5509
#
#
#
# Elastic Compliance Matrix: (Units=1/GPa)
#
#
# Indices 1 2 3 4 5 6 
#
# 1 0.015065 -0.007710 -0.004425 0.000000 0.000000 0.000000
# 2 -0.007710 0.015065 -0.004425 0.000000 0.000000 0.000000
# 3 -0.004425 -0.004425 0.025763 0.000000 0.000000 0.000000
# 4 0.000000 0.000000 0.000000 0.041539 0.000000 0.000000
# 5 0.000000 0.000000 0.000000 0.000000 0.041540 0.000000
# 6 0.000000 0.000000 0.000000 0.000000 0.000000 0.029805
#
#
# Mechanical properties :
#
#
# Convention : Reuss Voigt Hill
#
# Bulk Modulus (GPa) = 43.91500 56.60979 50.26240
# Shear Modulus (GPa) = 23.86783 25.78035 24.82409
#
# Velocity S-wave (km/s) = 3.47431 3.61082 3.54322
# Velocity P-wave (km/s) = 6.18900 6.78333 6.49297
#
# Compressibility (1/GPa) = 0.02277126
#
# Stress axis : x y z
#
# Youngs Moduli (GPa) = 66.38088 66.38096 38.81597
#
# Poissons Ratio (x) = 0.51180 0.17176
# Poissons Ratio (y) = 0.51180 0.17176
# Poissons Ratio (z) = 0.29374 0.29374
#
# Static dielectric constant tensor:
#      x y z
#    x 3.642460 0.000000 0.000000 
#    y 0.000000 3.642460 0.000000 
#    z 0.000000 0.000000 3.528490 
# 
# 
# High freq. dielectric constant tensor:
#      x y z
#    x 1.778750 0.000000 0.000000 
#    y 0.000000 1.778750 0.000000 
#    z 0.000000 0.000000 1.746730 
# 
# From -- ./inp_files/3839.got.cif
#   From: 2010.03.12/outbox.cif.g09.slc.cpg/sg127_2_cif.got.tgz:3839.got - 2010.04.06 17:03:15.
