data_PCOD8314811
_publ_section_title
;
Structure prediction by ZEFSAII (Michael W. Deem and Ramdas Pophale) SiO2 
 PCOD8314811
Probable space group: P 4/M N C
;
_chemical_formula_sum "Si O2"
_cell_formula_units_Z 64
_cell_length_a 14.262416
_cell_length_b 14.262416
_cell_length_c 14.928191
_cell_angle_alpha 90.000000
_cell_angle_beta 90.000000
_cell_angle_gamma 90.000000
_cell_volume 3036.640516
_symmetry_space_group_name_H-M "P 4/M N C"
_symmetry_group_IT_number 128
_symmetry_cell_setting 'tetragonal'
loop_
_space_group_symop_operation_xyz
x,y,z
-y,x,z
-x,-y,z
y,-x,z
1/2+x,1/2-y,1/2-z
1/2-x,1/2+y,1/2-z
1/2+y,1/2+x,1/2-z
1/2-y,1/2-x,1/2-z
-x,-y,-z
y,-x,-z
x,y,-z
-y,x,-z
1/2-x,1/2+y,1/2+z
1/2+x,1/2-y,1/2+z
1/2-y,1/2-x,1/2+z
1/2+y,1/2+x,1/2+z
loop_
_atom_site_type_symbol
_atom_site_label
_atom_site_fract_x
_atom_site_fract_y
_atom_site_fract_z
Si Si1 0.621816 0.413830 0.105171
Si Si2 0.879334 0.314064 0.344168
Si Si3 0.413653 0.778738 0.500000
Si Si4 0.062154 0.408798 0.647629
Si Si5 0.376324 0.251318 0.500000
O O1 0.627559 0.522630 0.132857
O O2 0.702584 0.358562 0.158951
O O3 0.640525 0.401987 0.000000
O O4 0.863958 0.363958 0.250000
O O5 0.810102 0.362699 0.412332
O O6 0.988727 0.324738 0.372549
O O7 0.400792 0.845616 0.586433
O O8 0.513062 0.723683 0.500000
O O9 0.339086 0.694062 0.500000
O O10 0.095547 0.404454 0.750000
O O11 0.000000 0.500000 0.625620
#
# Coordination Sequence:
#
# PCOD8314811 Si02
#       5
#    16  16   8  16   8
#     4   9  20  39  64  95 134 168 204 265 339 394
#     4  12  23  40  66  98 131 165 218 274 321 394
#     4  12  26  44  70  94 128 180 216 271 325 391
#     4  11  21  42  70  97 129 159 209 277 338 376
#     4  12  27  45  63  92 132 174 229 262 321 383
#
# _framework density 21.075923
#
# number of rings (size 3 to 8) (size 9 to 14) (size 15 to 20)
#    0.000    1.000    6.250    1.875    3.500    1.250 
#    4.500    0.000    0.000    0.000    0.000    0.000 
#    0.000    0.000    0.000    0.000    0.000    0.000 
#
# Total GULP energy -793327.514788 kJ/mol
# GULP energy per Si atom -12395.742419 kJ/mol
# Density = 2.102795 g / cm^3
# Si number density = 21.075923 Si / 1000 Ang^3
#
#
#
# Elastic Constant Matrix: (Units=GPa)
#
#
# Indices 1 2 3 4 5 6 
#
# 1 105.7674 43.8910 51.4183 0.0000 0.0000 0.0000
# 2 43.8910 105.7676 51.4182 0.0000 0.0000 0.0000
# 3 51.4183 51.4182 104.0413 0.0000 0.0000 0.0000
# 4 0.0000 0.0000 0.0000 18.1600 0.0000 0.0000
# 5 0.0000 0.0000 0.0000 0.0000 18.1593 0.0000
# 6 0.0000 0.0000 0.0000 0.0000 0.0000 37.4132
#
#
#
# Elastic Compliance Matrix: (Units=1/GPa)
#
#
# Indices 1 2 3 4 5 6 
#
# 1 0.013140 -0.003022 -0.005000 0.000000 0.000000 0.000000
# 2 -0.003022 0.013140 -0.005000 0.000000 0.000000 0.000000
# 3 -0.005000 -0.005000 0.014554 0.000000 0.000000 0.000000
# 4 0.000000 0.000000 0.000000 0.055066 0.000000 0.000000
# 5 0.000000 0.000000 0.000000 0.000000 0.055068 0.000000
# 6 0.000000 0.000000 0.000000 0.000000 0.000000 0.026729
#
#
# Mechanical properties :
#
#
# Convention : Reuss Voigt Hill
#
# Bulk Modulus (GPa) = 67.62097 67.67015 67.64556
# Shear Modulus (GPa) = 23.96129 26.00309 24.98219
#
# Velocity S-wave (km/s) = 3.37546 3.51633 3.44662
# Velocity P-wave (km/s) = 6.88082 6.97593 6.92854
#
# Compressibility (1/GPa) = 0.01478831
#
# Stress axis : x y z
#
# Youngs Moduli (GPa) = 76.10611 76.10639 68.70967
#
# Poissons Ratio (x) = 0.22997 0.34357
# Poissons Ratio (y) = 0.22997 0.34357
# Poissons Ratio (z) = 0.38056 0.38056
#
# Static dielectric constant tensor:
#      x y z
#    x 3.958850 0.000000 0.000000 
#    y 0.000000 3.958850 0.000000 
#    z 0.000000 0.000000 3.628430 
# 
# 
# High freq. dielectric constant tensor:
#      x y z
#    x 1.829630 0.000000 0.000000 
#    y 0.000000 1.829630 0.000000 
#    z 0.000000 0.000000 1.811790 
# 
# From -- ./inp_files/4508.got.cif
#   From: 2010.03.12/outbox.cif.g09.slc.cpg/sg128_3_cif.got.tgz:4508.got - 2010.04.06 17:11:05.
