data_PCOD8314027
_publ_section_title
;
Structure prediction by ZEFSAII (Michael W. Deem and Ramdas Pophale) SiO2 
 PCOD8314027
Probable space group: P 4/M B M
;
_chemical_formula_sum "Si O2"
_cell_formula_units_Z 120
_cell_length_a 27.083146
_cell_length_b 27.083146
_cell_length_c 8.266751
_cell_angle_alpha 90.000000
_cell_angle_beta 90.000000
_cell_angle_gamma 90.000000
_cell_volume 6063.635382
_symmetry_space_group_name_H-M "P 4/M B M"
_symmetry_group_IT_number 127
_symmetry_cell_setting 'tetragonal'
loop_
_space_group_symop_operation_xyz
x,y,z
-y,x,z
-x,-y,z
y,-x,z
1/2+x,1/2-y,-z
1/2-x,1/2+y,-z
1/2+y,1/2+x,-z
1/2-y,1/2-x,-z
-x,-y,-z
y,-x,-z
x,y,-z
-y,x,-z
1/2-x,1/2+y,z
1/2+x,1/2-y,z
1/2-y,1/2-x,z
1/2+y,1/2+x,z
loop_
_atom_site_type_symbol
_atom_site_label
_atom_site_fract_x
_atom_site_fract_y
_atom_site_fract_z
Si Si1 0.666071 0.622703 0.311557
Si Si2 0.076260 0.497751 0.500000
Si Si3 0.410919 0.304281 0.812122
Si Si4 0.697179 0.880442 0.189061
Si Si5 0.690521 0.517423 0.321259
Si Si6 0.800026 0.556016 0.322888
Si Si7 0.654654 0.232327 0.813422
Si Si8 0.136568 0.521370 0.182538
O O1 0.678134 0.619748 0.500000
O O2 0.615209 0.650592 0.278507
O O3 0.661777 0.565615 0.247749
O O4 0.709924 0.654349 0.230158
O O5 0.026099 0.526099 0.500000
O O6 0.100192 0.512839 0.329623
O O7 0.060711 0.439290 0.500000
O O8 0.390459 0.252080 0.737804
O O9 0.469522 0.312290 0.791811
O O10 0.398258 0.306920 0.000000
O O11 0.668100 0.831901 0.260990
O O12 0.664720 0.928368 0.224572
O O13 0.703520 0.872535 0.000000
O O14 0.670188 0.503369 0.500000
O O15 0.745999 0.534772 0.335560
O O16 0.826444 0.548761 0.500000
O O17 0.798603 0.613771 0.283669
O O18 0.826981 0.525541 0.182578
O O19 0.708284 0.208284 0.773994
O O20 0.641553 0.226771 0.000000
O O21 0.113072 0.524379 0.000000
#
# Coordination Sequence:
#
# PCOD8314027 Si02
#       8
#    16   8  16  16  16  16  16  16
#     4  10  22  39  58  83 118 159 198 238 291 355
#     4  11  26  44  58  78 110 148 196 254 313 372
#     4  11  21  34  59  90 118 153 195 243 295 351
#     4   9  19  35  56  86 121 156 196 243 300 365
#     4   9  19  36  58  82 113 153 195 240 283 338
#     4  10  19  34  57  84 114 148 190 240 291 348
#     4  10  21  36  55  81 115 155 197 241 291 348
#     4  11  21  38  63  86 113 152 198 251 310 369
#
# _framework density 19.790106999999999
#
# number of rings (size 3 to 8) (size 9 to 14) (size 15 to 20)
#    0.000    1.933    2.000    2.800    0.000    5.867 
#    1.200    2.000    0.000    0.400    0.000    2.800 
#    0.000    0.000    0.000    0.000    0.000    0.000 
#
# Total GULP energy -1486798.379012 kJ/mol
# GULP energy per Si atom -12389.986492 kJ/mol
# Density = 1.974506 g / cm^3
# Si number density = 19.790107 Si / 1000 Ang^3
#
#
#
# Elastic Constant Matrix: (Units=GPa)
#
#
# Indices 1 2 3 4 5 6 
#
# 1 102.6061 56.0166 27.9040 0.0000 0.0000 0.0000
# 2 56.0166 102.6076 27.9047 0.0000 0.0000 0.0000
# 3 27.9040 27.9047 76.6823 0.0000 0.0000 0.0000
# 4 0.0000 0.0000 0.0000 24.5561 0.0000 0.0000
# 5 0.0000 0.0000 0.0000 0.0000 24.5558 0.0000
# 6 0.0000 0.0000 0.0000 0.0000 0.0000 32.2212
#
#
#
# Elastic Compliance Matrix: (Units=1/GPa)
#
#
# Indices 1 2 3 4 5 6 
#
# 1 0.014347 -0.007117 -0.002631 0.000000 0.000000 0.000000
# 2 -0.007117 0.014347 -0.002631 0.000000 0.000000 0.000000
# 3 -0.002631 -0.002631 0.014956 0.000000 0.000000 0.000000
# 4 0.000000 0.000000 0.000000 0.040723 0.000000 0.000000
# 5 0.000000 0.000000 0.000000 0.000000 0.040724 0.000000
# 6 0.000000 0.000000 0.000000 0.000000 0.000000 0.031036
#
#
# Mechanical properties :
#
#
# Convention : Reuss Voigt Hill
#
# Bulk Modulus (GPa) = 52.93344 56.17185 54.55265
# Shear Modulus (GPa) = 26.71140 27.60467 27.15803
#
# Velocity S-wave (km/s) = 3.67786 3.73885 3.70848
# Velocity P-wave (km/s) = 6.69634 6.86179 6.77957
#
# Compressibility (1/GPa) = 0.01889165
#
# Stress axis : x y z
#
# Youngs Moduli (GPa) = 69.70159 69.70239 66.86470
#
# Poissons Ratio (x) = 0.49607 0.17591
# Poissons Ratio (y) = 0.49606 0.17592
# Poissons Ratio (z) = 0.18338 0.18339
#
# Static dielectric constant tensor:
#      x y z
#    x 3.828160 0.000000 0.000000 
#    y 0.000000 3.828170 0.000000 
#    z 0.000000 0.000000 3.559720 
# 
# 
# High freq. dielectric constant tensor:
#      x y z
#    x 1.761630 0.000000 0.000000 
#    y 0.000000 1.761630 0.000000 
#    z 0.000000 0.000000 1.767450 
# 
# From -- ./inp_files/2378.got.cif
#   From: 2010.03.12/outbox.cif.g09.slc.cpg/sg127_2_cif.got.tgz:2378.got - 2010.04.06 17:03:15.
