data_PCOD8314419
_publ_section_title
;
Structure prediction by ZEFSAII (Michael W. Deem and Ramdas Pophale) SiO2 
 PCOD8314419
Probable space group: P 4/M B M
;
_chemical_formula_sum "Si O2"
_cell_formula_units_Z 96
_cell_length_a 15.222579
_cell_length_b 15.222579
_cell_length_c 21.994498
_cell_angle_alpha 90.000000
_cell_angle_beta 90.000000
_cell_angle_gamma 90.000000
_cell_volume 5096.717090
_symmetry_space_group_name_H-M "P 4/M B M"
_symmetry_group_IT_number 127
_symmetry_cell_setting 'tetragonal'
loop_
_space_group_symop_operation_xyz
x,y,z
-y,x,z
-x,-y,z
y,-x,z
1/2+x,1/2-y,-z
1/2-x,1/2+y,-z
1/2+y,1/2+x,-z
1/2-y,1/2-x,-z
-x,-y,-z
y,-x,-z
x,y,-z
-y,x,-z
1/2-x,1/2+y,z
1/2+x,1/2-y,z
1/2-y,1/2-x,z
1/2+y,1/2+x,z
loop_
_atom_site_type_symbol
_atom_site_label
_atom_site_fract_x
_atom_site_fract_y
_atom_site_fract_z
Si Si1 0.431369 0.931369 0.237432
Si Si2 0.514120 0.258221 0.619152
Si Si3 0.431275 0.931275 0.381960
Si Si4 0.011776 0.242420 0.761525
Si Si5 0.669934 0.682107 0.184584
Si Si6 0.313031 0.670117 0.570690
Si Si7 0.399901 0.604051 0.931076
O O1 0.432430 0.932430 0.309709
O O2 0.457286 0.836269 0.213259
O O3 0.500000 0.000000 0.209807
O O4 0.543756 0.164046 0.593847
O O5 0.491254 0.258450 0.690139
O O6 0.428594 0.281887 0.581142
O O7 0.595573 0.322595 0.606875
O O8 0.500000 0.000000 0.409541
O O9 0.092662 0.178038 0.776323
O O10 0.922420 0.222191 0.795958
O O11 0.749213 0.750788 0.196650
O O12 0.665172 0.657761 0.113260
O O13 0.330166 0.685923 0.500000
O O14 0.239885 0.739885 0.595028
O O15 0.378271 0.502325 0.918691
O O16 0.375353 0.629547 0.000000
#
# Coordination Sequence:
#
# PCOD8314419 Si02
#       7
#     8  16   8  16  16  16  16
#     4   9  18  36  54  79 119 160 194 230 290 357
#     4  11  22  40  62  86 121 157 193 240 305 361
#     4   9  18  34  61  88 111 148 200 241 281 349
#     4  11  23  36  58  89 121 158 195 245 298 363
#     4  12  23  37  59  90 125 159 204 249 300 359
#     4  11  24  42  63  87 116 152 198 250 298 352
#     4   9  18  36  61  85 115 158 205 253 301 345
#
# _framework density 18.835653000000001
#
# number of rings (size 3 to 8) (size 9 to 14) (size 15 to 20)
#    0.000    1.500    3.333    3.000    0.000    4.333 
#    0.000    2.500    0.000    2.000    0.000    0.000 
#    0.000    5.333    0.000    0.000    0.000    0.000 
#
# Total GULP energy -1190521.682162 kJ/mol
# GULP energy per Si atom -12401.267523 kJ/mol
# Density = 1.879278 g / cm^3
# Si number density = 18.835653 Si / 1000 Ang^3
#
#
#
# Elastic Constant Matrix: (Units=GPa)
#
#
# Indices 1 2 3 4 5 6 
#
# 1 96.1057 27.0103 14.7661 0.0000 0.0000 0.0000
# 2 27.0103 96.1057 14.7661 0.0000 0.0000 0.0000
# 3 14.7661 14.7661 54.6805 0.0000 0.0000 0.0000
# 4 0.0000 0.0000 0.0000 21.9444 0.0000 0.0000
# 5 0.0000 0.0000 0.0000 0.0000 21.9444 0.0000
# 6 0.0000 0.0000 0.0000 0.0000 0.0000 37.4058
#
#
#
# Elastic Compliance Matrix: (Units=1/GPa)
#
#
# Indices 1 2 3 4 5 6 
#
# 1 0.011579 -0.002894 -0.002345 0.000000 0.000000 0.000000
# 2 -0.002894 0.011579 -0.002345 0.000000 0.000000 0.000000
# 3 -0.002345 -0.002345 0.019555 0.000000 0.000000 0.000000
# 4 0.000000 0.000000 0.000000 0.045570 0.000000 0.000000
# 5 0.000000 0.000000 0.000000 0.000000 0.045570 0.000000
# 6 0.000000 0.000000 0.000000 0.000000 0.000000 0.026734
#
#
# Mechanical properties :
#
#
# Convention : Reuss Voigt Hill
#
# Bulk Modulus (GPa) = 36.30629 39.99743 38.15186
# Shear Modulus (GPa) = 27.03640 28.94889 27.99264
#
# Velocity S-wave (km/s) = 3.79276 3.92461 3.85925
# Velocity P-wave (km/s) = 6.20461 6.46667 6.33699
#
# Compressibility (1/GPa) = 0.02754344
#
# Stress axis : x y z
#
# Youngs Moduli (GPa) = 86.36421 86.36421 51.13847
#
# Poissons Ratio (x) = 0.24993 0.11994
# Poissons Ratio (y) = 0.24993 0.11994
# Poissons Ratio (z) = 0.20255 0.20255
#
# Static dielectric constant tensor:
#      x y z
#    x 3.521260 0.000000 0.000000 
#    y 0.000000 3.521260 0.000000 
#    z 0.000000 0.000000 3.251490 
# 
# 
# High freq. dielectric constant tensor:
#      x y z
#    x 1.736950 0.000000 0.000000 
#    y 0.000000 1.736950 0.000000 
#    z 0.000000 0.000000 1.717100 
# 
# From -- ./inp_files/5817.got.cif
#   From: 2010.03.12/outbox.cif.g09.slc.cpg/sg127_3_cif.got.tgz:5817.got - 2010.04.06 17:03:15.
