data_PCOD8314458
_publ_section_title
;
Structure prediction by ZEFSAII (Michael W. Deem and Ramdas Pophale) SiO2 
 PCOD8314458
Probable space group: P 4/M B M
;
_chemical_formula_sum "Si O2"
_cell_formula_units_Z 96
_cell_length_a 14.761580
_cell_length_b 14.761580
_cell_length_c 19.033669
_cell_angle_alpha 90.000000
_cell_angle_beta 90.000000
_cell_angle_gamma 90.000000
_cell_volume 4147.517256
_symmetry_space_group_name_H-M "P 4/M B M"
_symmetry_group_IT_number 127
_symmetry_cell_setting 'tetragonal'
loop_
_space_group_symop_operation_xyz
x,y,z
-y,x,z
-x,-y,z
y,-x,z
1/2+x,1/2-y,-z
1/2-x,1/2+y,-z
1/2+y,1/2+x,-z
1/2-y,1/2-x,-z
-x,-y,-z
y,-x,-z
x,y,-z
-y,x,-z
1/2-x,1/2+y,z
1/2+x,1/2-y,z
1/2-y,1/2-x,z
1/2+y,1/2+x,z
loop_
_atom_site_type_symbol
_atom_site_label
_atom_site_fract_x
_atom_site_fract_y
_atom_site_fract_z
Si Si1 0.011250 0.266260 0.225961
Si Si2 0.500080 0.145418 0.361842
Si Si3 0.999978 0.146957 0.416932
Si Si4 0.852474 0.496444 0.077289
Si Si5 0.169077 0.814015 0.788090
Si Si6 0.395260 0.604507 0.921444
O O1 0.103625 0.218448 0.250233
O O2 0.001121 0.353483 0.276135
O O3 0.010912 0.286606 0.142787
O O4 0.930946 0.195894 0.243603
O O5 0.409545 0.090456 0.386105
O O6 0.499954 0.249887 0.387259
O O7 0.588978 0.088978 0.387915
O O8 0.999896 0.156774 0.500000
O O9 0.909771 0.090184 0.393605
O O10 0.898397 0.398397 0.085378
O O11 0.927055 0.572946 0.079616
O O12 0.802677 0.500844 0.000000
O O13 0.221119 0.721119 0.774839
O O14 0.165504 0.833415 0.871547
O O15 0.375089 0.499744 0.906087
O O16 0.368384 0.630915 0.000000
#
# Coordination Sequence:
#
# PCOD8314458 Si02
#       6
#    16  16  16  16  16  16
#     4  12  26  43  61  90 135 168 217 287 347 408
#     4  11  25  44  69 101 142 193 239 287 349 411
#     4   9  21  45  76 112 153 193 233 278 332 396
#     4   9  18  36  62  85 112 161 219 275 340 408
#     4  12  25  40  64  90 114 161 214 263 332 407
#     4   9  18  37  61  83 113 151 193 255 335 409
#
# _framework density 23.146376
#
# number of rings (size 3 to 8) (size 9 to 14) (size 15 to 20)
#    0.000    1.667    1.667    4.500    2.333    4.667 
#    0.000    2.500    0.000    0.000    0.000    0.000 
#    0.000    0.000    0.000    0.000    0.000    0.000 
#
# Total GULP energy -1189536.828360 kJ/mol
# GULP energy per Si atom -12391.008629 kJ/mol
# Density = 2.309369 g / cm^3
# Si number density = 23.146376 Si / 1000 Ang^3
#
#
#
# Elastic Constant Matrix: (Units=GPa)
#
#
# Indices 1 2 3 4 5 6 
#
# 1 139.1555 55.7965 29.0216 0.0000 0.0000 0.0000
# 2 55.7965 139.1555 29.0216 0.0000 0.0000 0.0000
# 3 29.0216 29.0216 55.6483 0.0000 0.0000 0.0000
# 4 0.0000 0.0000 0.0000 27.0617 0.0000 0.0000
# 5 0.0000 0.0000 0.0000 0.0000 27.0617 0.0000
# 6 0.0000 0.0000 0.0000 0.0000 0.0000 32.1644
#
#
#
# Elastic Compliance Matrix: (Units=1/GPa)
#
#
# Indices 1 2 3 4 5 6 
#
# 1 0.009034 -0.002962 -0.003167 0.000000 0.000000 0.000000
# 2 -0.002962 0.009034 -0.003167 0.000000 0.000000 0.000000
# 3 -0.003167 -0.003167 0.021273 0.000000 0.000000 0.000000
# 4 0.000000 0.000000 0.000000 0.036953 0.000000 0.000000
# 5 0.000000 0.000000 0.000000 0.000000 0.036953 0.000000
# 6 0.000000 0.000000 0.000000 0.000000 0.000000 0.031090
#
#
# Mechanical properties :
#
#
# Convention : Reuss Voigt Hill
#
# Bulk Modulus (GPa) = 48.19172 62.40429 55.29801
# Shear Modulus (GPa) = 29.43857 31.93222 30.68539
#
# Velocity S-wave (km/s) = 3.57016 3.71830 3.64498
# Velocity P-wave (km/s) = 6.15308 6.74192 6.45422
#
# Compressibility (1/GPa) = 0.02075045
#
# Stress axis : x y z
#
# Youngs Moduli (GPa) = 110.68913 110.68913 47.00773
#
# Poissons Ratio (x) = 0.32786 0.14887
# Poissons Ratio (y) = 0.32786 0.14887
# Poissons Ratio (z) = 0.35053 0.35053
#
# Static dielectric constant tensor:
#      x y z
#    x 4.229450 0.000000 0.000000 
#    y 0.000000 4.229450 0.000000 
#    z 0.000000 0.000000 3.678150 
# 
# 
# High freq. dielectric constant tensor:
#      x y z
#    x 1.919150 0.000000 0.000000 
#    y 0.000000 1.919150 0.000000 
#    z 0.000000 0.000000 1.897990 
# 
# From -- ./inp_files/5785.got.cif
#   From: 2010.03.12/outbox.cif.g09.slc.cpg/sg127_3_cif.got.tgz:5785.got - 2010.04.06 17:03:15.
