data_PCOD8314475
_publ_section_title
;
Structure prediction by ZEFSAII (Michael W. Deem and Ramdas Pophale) SiO2 
 PCOD8314475
Probable space group: P 4/M B M
;
_chemical_formula_sum "Si O2"
_cell_formula_units_Z 72
_cell_length_a 22.971058
_cell_length_b 22.971058
_cell_length_c 9.276123
_cell_angle_alpha 90.000000
_cell_angle_beta 90.000000
_cell_angle_gamma 90.000000
_cell_volume 4894.727238
_symmetry_space_group_name_H-M "P 4/M B M"
_symmetry_group_IT_number 127
_symmetry_cell_setting 'tetragonal'
loop_
_space_group_symop_operation_xyz
x,y,z
-y,x,z
-x,-y,z
y,-x,z
1/2+x,1/2-y,-z
1/2-x,1/2+y,-z
1/2+y,1/2+x,-z
1/2-y,1/2-x,-z
-x,-y,-z
y,-x,-z
x,y,-z
-y,x,-z
1/2-x,1/2+y,z
1/2+x,1/2-y,z
1/2-y,1/2-x,z
1/2+y,1/2+x,z
loop_
_atom_site_type_symbol
_atom_site_label
_atom_site_fract_x
_atom_site_fract_y
_atom_site_fract_z
Si Si1 0.327271 0.015539 0.670685
Si Si2 0.729588 0.866438 0.667196
Si Si3 0.453595 0.046406 0.327699
Si Si4 0.292913 0.888693 0.668773
Si Si5 0.690297 0.288110 0.837499
O O1 0.333018 0.012606 0.500000
O O2 0.283785 0.067481 0.715698
O O3 0.390925 0.028360 0.735726
O O4 0.304231 0.953675 0.728224
O O5 0.746852 0.862689 0.500000
O O6 0.672423 0.827578 0.697219
O O7 0.784993 0.845402 0.759003
O O8 0.451817 0.048184 0.500000
O O9 0.500000 0.000000 0.270700
O O10 0.278173 0.887880 0.500000
O O11 0.349884 0.849884 0.701266
O O12 0.236391 0.865403 0.752658
O O13 0.739819 0.239819 0.835038
O O14 0.672023 0.304260 0.000000
#
# Coordination Sequence:
#
# PCOD8314475 Si02
#       5
#    16  16   8  16  16
#     4   9  15  23  36  58  85 110 138 170 202 238
#     4   9  15  25  41  59  80 105 134 169 208 244
#     4   9  14  20  32  54  85 117 143 169 199 230
#     4   9  16  26  40  59  82 109 139 169 202 240
#     4   9  17  28  41  56  75 101 136 175 213 248
#
# _framework density 14.709706000000001
#
# number of rings (size 3 to 8) (size 9 to 14) (size 15 to 20)
#    0.000    3.000    1.111    1.333    0.000    5.333 
#    0.000    1.111    0.000    0.000    0.000    0.000 
#    0.000    6.222    0.000   10.222    0.000    4.000 
#
# Total GULP energy -892599.093019 kJ/mol
# GULP energy per Si atom -12397.209625 kJ/mol
# Density = 1.467623 g / cm^3
# Si number density = 14.709706 Si / 1000 Ang^3
#
#
#
# Elastic Constant Matrix: (Units=GPa)
#
#
# Indices 1 2 3 4 5 6 
#
# 1 94.8550 73.5697 39.0866 0.0000 0.0000 0.0000
# 2 73.5697 94.8551 39.0866 0.0000 0.0000 0.0000
# 3 39.0866 39.0866 52.2597 0.0000 0.0000 0.0000
# 4 0.0000 0.0000 0.0000 7.5452 0.0000 0.0000
# 5 0.0000 0.0000 0.0000 0.0000 7.5452 0.0000
# 6 0.0000 0.0000 0.0000 0.0000 0.0000 25.0309
#
#
#
# Elastic Compliance Matrix: (Units=1/GPa)
#
#
# Indices 1 2 3 4 5 6 
#
# 1 0.028038 -0.018943 -0.006802 0.000000 0.000000 0.000000
# 2 -0.018943 0.028038 -0.006802 0.000000 0.000000 0.000000
# 3 -0.006802 -0.006802 0.029310 0.000000 0.000000 0.000000
# 4 0.000000 0.000000 0.000000 0.132534 0.000000 0.000000
# 5 0.000000 0.000000 0.000000 0.000000 0.132534 0.000000
# 6 0.000000 0.000000 0.000000 0.000000 0.000000 0.039951
#
#
# Mechanical properties :
#
#
# Convention : Reuss Voigt Hill
#
# Bulk Modulus (GPa) = 49.28312 60.60619 54.94466
# Shear Modulus (GPa) = 10.81636 14.03939 12.42788
#
# Velocity S-wave (km/s) = 2.71462 3.09274 2.90983
# Velocity P-wave (km/s) = 6.58803 7.35148 6.98020
#
# Compressibility (1/GPa) = 0.02029092
#
# Stress axis : x y z
#
# Youngs Moduli (GPa) = 35.66644 35.66647 34.11786
#
# Poissons Ratio (x) = 0.67563 0.23207
# Poissons Ratio (y) = 0.67563 0.23207
# Poissons Ratio (z) = 0.24261 0.24261
#
# Static dielectric constant tensor:
#      x y z
#    x 2.827840 0.000000 0.000000 
#    y 0.000000 2.827840 0.000000 
#    z 0.000000 0.000000 2.639180 
# 
# 
# High freq. dielectric constant tensor:
#      x y z
#    x 1.544680 0.000000 0.000000 
#    y 0.000000 1.544680 0.000000 
#    z 0.000000 0.000000 1.534250 
# 
# From -- ./inp_files/1724.got.cif
#   From: 2010.03.12/outbox.cif.g09.slc.cpg/sg127_1_cif.got.tgz:1724.got - 2010.04.06 17:03:15.
