data_PCOD8314170
_publ_section_title
;
Structure prediction by ZEFSAII (Michael W. Deem and Ramdas Pophale) SiO2 
 PCOD8314170
Probable space group: P 4/M B M
;
_chemical_formula_sum "Si O2"
_cell_formula_units_Z 96
_cell_length_a 23.288249
_cell_length_b 23.288249
_cell_length_c 9.125343
_cell_angle_alpha 90.000000
_cell_angle_beta 90.000000
_cell_angle_gamma 90.000000
_cell_volume 4949.061715
_symmetry_space_group_name_H-M "P 4/M B M"
_symmetry_group_IT_number 127
_symmetry_cell_setting 'tetragonal'
loop_
_space_group_symop_operation_xyz
x,y,z
-y,x,z
-x,-y,z
y,-x,z
1/2+x,1/2-y,-z
1/2-x,1/2+y,-z
1/2+y,1/2+x,-z
1/2-y,1/2-x,-z
-x,-y,-z
y,-x,-z
x,y,-z
-y,x,-z
1/2-x,1/2+y,z
1/2+x,1/2-y,z
1/2-y,1/2-x,z
1/2+y,1/2+x,z
loop_
_atom_site_type_symbol
_atom_site_label
_atom_site_fract_x
_atom_site_fract_y
_atom_site_fract_z
Si Si1 0.813274 0.596011 0.828757
Si Si2 0.333154 0.708646 0.838443
Si Si3 0.364998 0.228400 0.169383
Si Si4 0.354891 0.511669 0.665167
Si Si5 0.104298 0.910082 0.162056
Si Si6 0.224487 0.514039 0.332822
O O1 0.876297 0.623704 0.807182
O O2 0.766740 0.642347 0.762891
O O3 0.813296 0.534690 0.747085
O O4 0.799434 0.585165 0.000000
O O5 0.279400 0.675573 0.761072
O O6 0.388834 0.668914 0.848765
O O7 0.310344 0.725291 0.000000
O O8 0.331509 0.168492 0.181520
O O9 0.424133 0.220146 0.256225
O O10 0.379533 0.243911 0.000000
O O11 0.375146 0.523541 0.500000
O O12 0.398305 0.466154 0.736878
O O13 0.359248 0.568972 0.761368
O O14 0.289536 0.490933 0.670836
O O15 0.079868 0.923800 0.000000
O O16 0.203048 0.520698 0.500000
#
# Coordination Sequence:
#
# PCOD8314170 Si02
#       6
#    16  16  16  16  16  16
#     4  10  20  36  60  88 116 147 187 232 279 332
#     4   9  17  31  55  86 116 143 178 231 283 326
#     4  10  20  36  60  88 116 147 187 232 279 332
#     4  11  23  38  54  77 112 152 192 235 282 332
#     4  11  21  35  58  81 105 146 196 242 280 327
#     4  11  23  37  56  81 116 155 187 223 275 340
#
# _framework density 19.397614999999998
#
# number of rings (size 3 to 8) (size 9 to 14) (size 15 to 20)
#    0.000    1.667    3.333    2.000    0.000    4.333 
#    0.000    2.500    0.000    2.500    0.000    3.500 
#    0.000    0.000    0.000    0.000    0.000    0.000 
#
# Total GULP energy -1189889.378243 kJ/mol
# GULP energy per Si atom -12394.681023 kJ/mol
# Density = 1.935347 g / cm^3
# Si number density = 19.397615 Si / 1000 Ang^3
#
#
#
# Elastic Constant Matrix: (Units=GPa)
#
#
# Indices 1 2 3 4 5 6 
#
# 1 72.5950 28.1531 35.8877 0.0000 0.0000 0.0000
# 2 28.1531 72.5950 35.8877 0.0000 0.0000 0.0000
# 3 35.8877 35.8877 108.3065 0.0000 0.0000 0.0000
# 4 0.0000 0.0000 0.0000 22.5006 0.0000 0.0000
# 5 0.0000 0.0000 0.0000 0.0000 22.5006 0.0000
# 6 0.0000 0.0000 0.0000 0.0000 0.0000 30.0222
#
#
#
# Elastic Compliance Matrix: (Units=1/GPa)
#
#
# Indices 1 2 3 4 5 6 
#
# 1 0.017747 -0.004754 -0.004305 0.000000 0.000000 0.000000
# 2 -0.004754 0.017747 -0.004305 0.000000 0.000000 0.000000
# 3 -0.004305 -0.004305 0.012086 0.000000 0.000000 0.000000
# 4 0.000000 0.000000 0.000000 0.044443 0.000000 0.000000
# 5 0.000000 0.000000 0.000000 0.000000 0.044443 0.000000
# 6 0.000000 0.000000 0.000000 0.000000 0.000000 0.033309
#
#
# Mechanical properties :
#
#
# Convention : Reuss Voigt Hill
#
# Bulk Modulus (GPa) = 47.95930 50.37262 49.16596
# Shear Modulus (GPa) = 24.57542 25.24254 24.90898
#
# Velocity S-wave (km/s) = 3.56326 3.61130 3.58736
# Velocity P-wave (km/s) = 6.45810 6.58889 6.52382
#
# Compressibility (1/GPa) = 0.02085101
#
# Stress axis : x y z
#
# Youngs Moduli (GPa) = 56.34729 56.34729 82.73926
#
# Poissons Ratio (x) = 0.26789 0.35621
# Poissons Ratio (y) = 0.26789 0.35621
# Poissons Ratio (z) = 0.24259 0.24259
#
# Static dielectric constant tensor:
#      x y z
#    x 3.352660 0.000000 0.000000 
#    y 0.000000 3.352660 0.000000 
#    z 0.000000 0.000000 3.438060 
# 
# 
# High freq. dielectric constant tensor:
#      x y z
#    x 1.743840 0.000000 0.000000 
#    y 0.000000 1.743840 0.000000 
#    z 0.000000 0.000000 1.734980 
# 
# From -- ./inp_files/1924.got.cif
#   From: 2010.03.12/outbox.cif.g09.slc.cpg/sg127_1_cif.got.tgz:1924.got - 2010.04.06 17:03:15.
