data_PCOD8314797
_publ_section_title
;
Structure prediction by ZEFSAII (Michael W. Deem and Ramdas Pophale) SiO2 
 PCOD8314797
Probable space group: P 4/M N C
;
_chemical_formula_sum "Si O2"
_cell_formula_units_Z 72
_cell_length_a 20.812476
_cell_length_b 20.812476
_cell_length_c 9.684239
_cell_angle_alpha 90.000000
_cell_angle_beta 90.000000
_cell_angle_gamma 90.000000
_cell_volume 4194.816804
_symmetry_space_group_name_H-M "P 4/M N C"
_symmetry_group_IT_number 128
_symmetry_cell_setting 'tetragonal'
loop_
_space_group_symop_operation_xyz
x,y,z
-y,x,z
-x,-y,z
y,-x,z
1/2+x,1/2-y,1/2-z
1/2-x,1/2+y,1/2-z
1/2+y,1/2+x,1/2-z
1/2-y,1/2-x,1/2-z
-x,-y,-z
y,-x,-z
x,y,-z
-y,x,-z
1/2-x,1/2+y,1/2+z
1/2+x,1/2-y,1/2+z
1/2-y,1/2-x,1/2+z
1/2+y,1/2+x,1/2+z
loop_
_atom_site_type_symbol
_atom_site_label
_atom_site_fract_x
_atom_site_fract_y
_atom_site_fract_z
Si Si1 0.920809 0.824777 0.849823
Si Si2 0.016665 0.896342 0.500000
Si Si3 0.652839 0.765443 0.842757
Si Si4 0.441693 0.334578 0.731077
Si Si5 0.158166 0.260413 0.656191
O O1 0.891773 0.895308 0.818429
O O2 0.901317 0.774224 0.731688
O O3 0.998015 0.826298 0.870905
O O4 0.892758 0.803612 0.000000
O O5 0.022185 0.851439 0.629457
O O6 0.947104 0.926567 0.500000
O O7 0.673141 0.826860 0.750000
O O8 0.595838 0.731870 0.756789
O O9 0.711824 0.717029 0.854657
O O10 0.632611 0.785504 0.000000
O O11 0.178536 0.321465 0.750000
O O12 0.138095 0.281482 0.500000
#
# Coordination Sequence:
#
# PCOD8314797 Si02
#       5
#    16   8  16  16  16
#     4  11  23  34  47  69  99 133 166 206 245 288
#     4  11  20  32  50  70  90 132 178 213 241 294
#     4   9  18  30  48  67  89 119 157 201 247 294
#     4  11  21  33  50  67  97 130 170 204 250 289
#     4   9  18  32  51  70  91 121 159 202 246 293
#
# _framework density 17.16404
#
# number of rings (size 3 to 8) (size 9 to 14) (size 15 to 20)
#    0.000    1.889    3.333    1.333    3.111    6.667 
#    0.000    1.111    0.000    0.000    0.000    0.000 
#    0.000    0.889    0.000    6.222    0.000    2.000 
#
# Total GULP energy -892304.556422 kJ/mol
# GULP energy per Si atom -12393.118839 kJ/mol
# Density = 1.712497 g / cm^3
# Si number density = 17.164040 Si / 1000 Ang^3
#
#
#
# Elastic Constant Matrix: (Units=GPa)
#
#
# Indices 1 2 3 4 5 6 
#
# 1 56.7385 45.0115 26.5033 0.0000 0.0000 0.0000
# 2 45.0115 56.7364 26.5026 0.0000 0.0000 0.0000
# 3 26.5033 26.5026 121.7379 0.0000 0.0000 0.0000
# 4 0.0000 0.0000 0.0000 21.8588 0.0000 0.0000
# 5 0.0000 0.0000 0.0000 0.0000 21.8590 0.0000
# 6 0.0000 0.0000 0.0000 0.0000 0.0000 27.0572
#
#
#
# Elastic Compliance Matrix: (Units=1/GPa)
#
#
# Indices 1 2 3 4 5 6 
#
# 1 0.048182 -0.037098 -0.002413 0.000000 0.000000 0.000000
# 2 -0.037098 0.048184 -0.002413 0.000000 0.000000 0.000000
# 3 -0.002413 -0.002413 0.009265 0.000000 0.000000 0.000000
# 4 0.000000 0.000000 0.000000 0.045748 0.000000 0.000000
# 5 0.000000 0.000000 0.000000 0.000000 0.045748 0.000000
# 6 0.000000 0.000000 0.000000 0.000000 0.000000 0.036959
#
#
# Mechanical properties :
#
#
# Convention : Reuss Voigt Hill
#
# Bulk Modulus (GPa) = 45.90841 47.91639 46.91240
# Shear Modulus (GPa) = 15.37537 23.30136 19.33837
#
# Velocity S-wave (km/s) = 2.99622 3.68852 3.36025
# Velocity P-wave (km/s) = 6.22693 6.79099 6.51507
#
# Compressibility (1/GPa) = 0.02178250
#
# Stress axis : x y z
#
# Youngs Moduli (GPa) = 20.75456 20.75384 107.93130
#
# Poissons Ratio (x) = 0.76992 0.26048
# Poissons Ratio (y) = 0.76995 0.26047
# Poissons Ratio (z) = 0.05009 0.05008
#
# Static dielectric constant tensor:
#      x y z
#    x 2.979240 0.000000 0.000000 
#    y 0.000000 2.979250 0.000000 
#    z 0.000000 0.000000 3.527500 
# 
# 
# High freq. dielectric constant tensor:
#      x y z
#    x 1.623980 0.000000 0.000000 
#    y 0.000000 1.623980 0.000000 
#    z 0.000000 0.000000 1.690420 
# 
# From -- ./inp_files/1136.got.cif
#   From: 2010.03.12/outbox.cif.g09.slc.cpg/sg128_1_cif.got.tgz:1136.got - 2010.04.06 17:11:05.
