data_PCOD8314648
_publ_section_title
;
Structure prediction by ZEFSAII (Michael W. Deem and Ramdas Pophale) SiO2 
 PCOD8314648
Probable space group: P 4/M N C
;
_chemical_formula_sum "Si O2"
_cell_formula_units_Z 72
_cell_length_a 19.330238
_cell_length_b 19.330238
_cell_length_c 10.194621
_cell_angle_alpha 90.000000
_cell_angle_beta 90.000000
_cell_angle_gamma 90.000000
_cell_volume 3809.302725
_symmetry_space_group_name_H-M "P 4/M N C"
_symmetry_group_IT_number 128
_symmetry_cell_setting 'tetragonal'
loop_
_space_group_symop_operation_xyz
x,y,z
-y,x,z
-x,-y,z
y,-x,z
1/2+x,1/2-y,1/2-z
1/2-x,1/2+y,1/2-z
1/2+y,1/2+x,1/2-z
1/2-y,1/2-x,1/2-z
-x,-y,-z
y,-x,-z
x,y,-z
-y,x,-z
1/2-x,1/2+y,1/2+z
1/2+x,1/2-y,1/2+z
1/2-y,1/2-x,1/2+z
1/2+y,1/2+x,1/2+z
loop_
_atom_site_type_symbol
_atom_site_label
_atom_site_fract_x
_atom_site_fract_y
_atom_site_fract_z
Si Si1 0.665935 0.078256 0.350310
Si Si2 0.418702 0.677576 0.144816
Si Si3 0.823723 0.936873 0.739289
Si Si4 0.020595 0.886037 0.000000
Si Si5 0.672867 0.917158 0.652190
O O1 0.615297 0.115297 0.250000
O O2 0.653097 0.103669 0.500000
O O3 0.744373 0.094469 0.305391
O O4 0.651848 0.996979 0.341918
O O5 0.380379 0.623289 0.236174
O O6 0.500973 0.662373 0.137059
O O7 0.387902 0.668556 0.000000
O O8 0.749132 0.904089 0.710763
O O9 0.832626 0.972098 0.880410
O O10 0.945219 0.920867 0.000000
O O11 0.622136 0.877865 0.750000
O O12 0.668482 0.891014 0.500000
#
# Coordination Sequence:
#
# PCOD8314648 Si02
#       5
#    16  16  16   8  16
#     4   9  20  40  60  85 115 146 192 240 290 351
#     4  10  20  36  58  82 113 155 195 240 287 345
#     4  11  21  38  57  82 121 156 197 241 291 346
#     4  11  22  38  56  88 126 159 201 251 293 343
#     4  10  23  41  62  89 118 151 194 247 298 356
#
# _framework density 18.901097
#
# number of rings (size 3 to 8) (size 9 to 14) (size 15 to 20)
#    0.000    1.889    2.222    3.333    1.556    2.667 
#    8.000    3.333    0.000    0.000    0.000    0.000 
#    0.000    0.000    0.000    0.000    0.000    0.000 
#
# Total GULP energy -892528.265390 kJ/mol
# GULP energy per Si atom -12396.225908 kJ/mol
# Density = 1.885808 g / cm^3
# Si number density = 18.901097 Si / 1000 Ang^3
#
#
#
# Elastic Constant Matrix: (Units=GPa)
#
#
# Indices 1 2 3 4 5 6 
#
# 1 76.8589 48.0599 39.1865 0.0000 0.0000 0.0000
# 2 48.0599 76.8546 39.1851 0.0000 0.0000 0.0000
# 3 39.1865 39.1851 103.8109 0.0000 0.0000 0.0000
# 4 0.0000 0.0000 0.0000 32.8174 0.0000 0.0000
# 5 0.0000 0.0000 0.0000 0.0000 32.8175 0.0000
# 6 0.0000 0.0000 0.0000 0.0000 0.0000 -57.5106
#
#
#
# Elastic Compliance Matrix: (Units=1/GPa)
#
#
# Indices 1 2 3 4 5 6 
#
# 1 0.022607 -0.012118 -0.003960 0.000000 0.000000 0.000000
# 2 -0.012118 0.022608 -0.003959 0.000000 0.000000 0.000000
# 3 -0.003960 -0.003959 0.012622 0.000000 0.000000 0.000000
# 4 0.000000 0.000000 0.000000 0.030472 0.000000 0.000000
# 5 0.000000 0.000000 0.000000 0.000000 0.030472 0.000000
# 6 0.000000 0.000000 0.000000 0.000000 0.000000 -0.017388
#
#
# Mechanical properties :
#
#
# Convention : Reuss Voigt Hill
#
# Bulk Modulus (GPa) = 56.29648 56.70970 56.50309
# Shear Modulus (GPa) = 33.92401 10.36441 22.14421
#
# Velocity S-wave (km/s) = 4.24112 2.34423 3.42655
# Velocity P-wave (km/s) = 7.33705 6.11520 6.75381
#
# Compressibility (1/GPa) = 0.01776310
#
# Stress axis : x y z
#
# Youngs Moduli (GPa) = 44.23375 44.23143 79.22603
#
# Poissons Ratio (x) = 0.53601 0.31370
# Poissons Ratio (y) = 0.53604 0.31369
# Poissons Ratio (z) = 0.17514 0.17513
#
# Static dielectric constant tensor:
#      x y z
#    x 3.328670 0.000000 0.000000 
#    y 0.000000 3.328670 0.000000 
#    z 0.000000 0.000000 3.486930 
# 
# 
# High freq. dielectric constant tensor:
#      x y z
#    x 1.727840 0.000000 0.000000 
#    y 0.000000 1.727840 0.000000 
#    z 0.000000 0.000000 1.743010 
# 
# From -- ./inp_files/1146.got.cif
#   From: 2010.03.12/outbox.cif.g09.slc.cpg/sg128_1_cif.got.tgz:1146.got - 2010.04.06 17:11:05.
