data_PCOD8314150
_publ_section_title
;
Structure prediction by ZEFSAII (Michael W. Deem and Ramdas Pophale) SiO2 
 PCOD8314150
Probable space group: P 4/M B M
;
_chemical_formula_sum "Si O2"
_cell_formula_units_Z 72
_cell_length_a 20.354039
_cell_length_b 20.354039
_cell_length_c 8.676519
_cell_angle_alpha 90.000000
_cell_angle_beta 90.000000
_cell_angle_gamma 90.000000
_cell_volume 3594.568191
_symmetry_space_group_name_H-M "P 4/M B M"
_symmetry_group_IT_number 127
_symmetry_cell_setting 'tetragonal'
loop_
_space_group_symop_operation_xyz
x,y,z
-y,x,z
-x,-y,z
y,-x,z
1/2+x,1/2-y,-z
1/2-x,1/2+y,-z
1/2+y,1/2+x,-z
1/2-y,1/2-x,-z
-x,-y,-z
y,-x,-z
x,y,-z
-y,x,-z
1/2-x,1/2+y,z
1/2+x,1/2-y,z
1/2-y,1/2-x,z
1/2+y,1/2+x,z
loop_
_atom_site_type_symbol
_atom_site_label
_atom_site_fract_x
_atom_site_fract_y
_atom_site_fract_z
Si Si1 0.768466 0.731535 0.179950
Si Si2 0.482927 0.178915 0.318685
Si Si3 0.053402 0.087291 0.683252
Si Si4 0.274909 0.402626 0.318881
Si Si5 0.165389 0.665389 0.683227
Si Si6 0.945640 0.554361 0.329410
O O1 0.756843 0.656477 0.226514
O O2 0.718043 0.781958 0.258189
O O3 0.759815 0.740186 0.000000
O O4 0.476405 0.165946 0.500000
O O5 0.526373 0.242820 0.280928
O O6 0.408096 0.184265 0.254941
O O7 0.522640 0.117315 0.243050
O O8 0.050720 0.088259 0.500000
O O9 0.092865 0.150398 0.741574
O O10 0.978184 0.089151 0.744476
O O11 0.269578 0.387150 0.500000
O O12 0.168252 0.668252 0.500000
O O13 0.922383 0.577618 0.500000
O O14 0.000000 0.500000 0.344454
#
# Coordination Sequence:
#
# PCOD8314150 Si02
#       6
#     8  16  16  16   8   8
#     4  12  27  43  54  75 117 163 199 236 286 341
#     4   9  17  29  53  90 119 143 179 230 285 338
#     4   8  15  28  50  84 118 140 169 226 293 343
#     4  10  20  35  60  86 110 145 192 238 285 340
#     4  10  20  36  61  92 122 149 186 235 286 342
#     4   9  13  22  40  71 116 147 168 213 275 326
#
# _framework density 20.030222999999999
#
# number of rings (size 3 to 8) (size 9 to 14) (size 15 to 20)
#    0.000    2.556    1.111    2.333    3.111    1.778 
#    0.000    1.111    0.000    0.000    0.000    3.111 
#    0.000    0.000    0.000    0.000    0.000    0.000 
#
# Total GULP energy -892201.165512 kJ/mol
# GULP energy per Si atom -12391.682854 kJ/mol
# Density = 1.998463 g / cm^3
# Si number density = 20.030223 Si / 1000 Ang^3
#
#
#
# Elastic Constant Matrix: (Units=GPa)
#
#
# Indices 1 2 3 4 5 6 
#
# 1 113.0425 49.3107 21.3784 0.0000 0.0000 0.0000
# 2 49.3107 113.0425 21.3785 0.0000 0.0000 0.0000
# 3 21.3784 21.3785 28.5467 0.0000 0.0000 0.0000
# 4 0.0000 0.0000 0.0000 2.6432 0.0000 0.0000
# 5 0.0000 0.0000 0.0000 0.0000 2.6433 0.0000
# 6 0.0000 0.0000 0.0000 0.0000 0.0000 39.6008
#
#
#
# Elastic Compliance Matrix: (Units=1/GPa)
#
#
# Indices 1 2 3 4 5 6 
#
# 1 0.011682 -0.004009 -0.005746 0.000000 0.000000 0.000000
# 2 -0.004009 0.011682 -0.005746 0.000000 0.000000 0.000000
# 3 -0.005746 -0.005746 0.043637 0.000000 0.000000 0.000000
# 4 0.000000 0.000000 0.000000 0.378328 0.000000 0.000000
# 5 0.000000 0.000000 0.000000 0.000000 0.378322 0.000000
# 6 0.000000 0.000000 0.000000 0.000000 0.000000 0.025252
#
#
# Mechanical properties :
#
#
# Convention : Reuss Voigt Hill
#
# Bulk Modulus (GPa) = 27.77939 48.75186 38.26563
# Shear Modulus (GPa) = 5.60599 19.81507 12.71053
#
# Velocity S-wave (km/s) = 1.67477 3.14866 2.52180
# Velocity P-wave (km/s) = 4.19984 6.13276 5.25592
#
# Compressibility (1/GPa) = 0.03599791
#
# Stress axis : x y z
#
# Youngs Moduli (GPa) = 85.60404 85.60393 22.91655
#
# Poissons Ratio (x) = 0.34319 0.13168
# Poissons Ratio (y) = 0.34319 0.13168
# Poissons Ratio (z) = 0.49188 0.49188
#
# Static dielectric constant tensor:
#      x y z
#    x 3.925190 0.000000 0.000000 
#    y 0.000000 3.925180 0.000000 
#    z 0.000000 0.000000 2.913160 
# 
# 
# High freq. dielectric constant tensor:
#      x y z
#    x 1.796780 0.000000 0.000000 
#    y 0.000000 1.796780 0.000000 
#    z 0.000000 0.000000 1.697200 
# 
# From -- ./inp_files/1668.got.cif
#   From: 2010.03.12/outbox.cif.g09.slc.cpg/sg127_1_cif.got.tgz:1668.got - 2010.04.06 17:03:15.
