data_PCOD8314985
_publ_section_title
;
Structure prediction by ZEFSAII (Michael W. Deem and Ramdas Pophale) SiO2 
 PCOD8314985
Probable space group: P 4/N M M
;
_chemical_formula_sum "Si O2"
_cell_formula_units_Z 96
_cell_length_a 18.333697
_cell_length_b 18.333697
_cell_length_c 18.821996
_cell_angle_alpha 90.000000
_cell_angle_beta 90.000000
_cell_angle_gamma 90.000000
_cell_volume 6326.532972
_symmetry_space_group_name_H-M "P 4/N M M"
_symmetry_group_IT_number 129
_symmetry_cell_setting 'tetragonal'
loop_
_space_group_symop_operation_xyz
x,y,z
1/2-y,x,z
1/2-x,1/2-y,z
y,1/2-x,z
1/2+x,-y,-z
-x,1/2+y,-z
1/2+y,1/2+x,-z
-y,-x,-z
-x,-y,-z
1/2+y,-x,-z
1/2+x,1/2+y,-z
-y,1/2+x,-z
1/2-x,y,z
x,1/2-y,z
1/2-y,1/2-x,z
y,x,z
loop_
_atom_site_type_symbol
_atom_site_label
_atom_site_fract_x
_atom_site_fract_y
_atom_site_fract_z
Si Si1 0.464727 0.664592 0.928459
Si Si2 0.836746 0.168828 0.576730
Si Si3 0.666844 0.094954 0.144042
Si Si4 0.049686 0.332995 0.211473
Si Si5 0.547196 0.666822 0.069265
Si Si6 0.834419 0.099670 0.720497
O O1 0.450761 0.750000 0.929437
O O2 0.385398 0.629353 0.916045
O O3 0.518419 0.642455 0.864528
O O4 0.502391 0.637938 0.000762
O O5 0.863172 0.136829 0.500000
O O6 0.750000 0.172196 0.573540
O O7 0.868213 0.250000 0.589899
O O8 0.863056 0.118079 0.641534
O O9 0.750000 0.120092 0.128554
O O10 0.644127 0.117580 0.223119
O O11 0.661400 0.006958 0.136810
O O12 0.077487 0.250000 0.209033
O O13 0.117528 0.382473 0.233438
O O14 0.986734 0.343327 0.270114
O O15 0.573812 0.750000 0.057128
O O16 0.617728 0.617728 0.083160
O O17 0.750000 0.122927 0.731786
#
# Coordination Sequence:
#
# PCOD8314985 Si02
#       6
#    16  16  16  16  16  16
#     4   9  18  31  45  62  84 109 138 171 207 248
#     4   8  13  22  39  63  87 111 139 166 191 224
#     4  10  19  28  41  63  88 115 143 166 194 237
#     4   9  17  28  42  60  80 105 139 176 215 257
#     4  10  21  35  48  62  79 101 136 180 221 258
#     4   9  17  28  42  61  87 117 143 166 196 238
#
# _framework density 15.174187999999999
#
# number of rings (size 3 to 8) (size 9 to 14) (size 15 to 20)
#    0.000    2.833    0.000    3.500    0.000    6.333 
#    0.000    0.833    0.000    9.500    0.000    0.000 
#    0.000    0.000    0.000    0.000    0.000   21.000 
#
# Total GULP energy -1189951.136755 kJ/mol
# GULP energy per Si atom -12395.324341 kJ/mol
# Density = 1.513965 g / cm^3
# Si number density = 15.174188 Si / 1000 Ang^3
#
#
#
# Elastic Constant Matrix: (Units=GPa)
#
#
# Indices 1 2 3 4 5 6 
#
# 1 73.7351 50.5129 38.3813 0.0000 0.0000 0.0000
# 2 50.5129 73.7352 38.3813 0.0000 0.0000 0.0000
# 3 38.3813 38.3813 105.0091 0.0000 0.0000 0.0000
# 4 0.0000 0.0000 0.0000 13.5677 0.0000 0.0000
# 5 0.0000 0.0000 0.0000 0.0000 13.5677 0.0000
# 6 0.0000 0.0000 0.0000 0.0000 0.0000 27.0549
#
#
#
# Elastic Compliance Matrix: (Units=1/GPa)
#
#
# Indices 1 2 3 4 5 6 
#
# 1 0.026729 -0.016333 -0.003800 0.000000 0.000000 0.000000
# 2 -0.016333 0.026729 -0.003800 0.000000 0.000000 0.000000
# 3 -0.003800 -0.003800 0.012301 0.000000 0.000000 0.000000
# 4 0.000000 0.000000 0.000000 0.073704 0.000000 0.000000
# 5 0.000000 0.000000 0.000000 0.000000 0.073705 0.000000
# 6 0.000000 0.000000 0.000000 0.000000 0.000000 0.036962
#
#
# Mechanical properties :
#
#
# Convention : Reuss Voigt Hill
#
# Bulk Modulus (GPa) = 55.88621 56.33674 56.11148
# Shear Modulus (GPa) = 16.44957 19.18498 17.81727
#
# Velocity S-wave (km/s) = 3.29606 3.55958 3.43035
# Velocity P-wave (km/s) = 7.16904 7.35537 7.26280
#
# Compressibility (1/GPa) = 0.01789350
#
# Stress axis : x y z
#
# Youngs Moduli (GPa) = 37.41239 37.41248 81.29643
#
# Poissons Ratio (x) = 0.61106 0.30891
# Poissons Ratio (y) = 0.61106 0.30891
# Poissons Ratio (z) = 0.14216 0.14216
#
# Static dielectric constant tensor:
#      x y z
#    x 2.762970 0.000000 0.000000 
#    y 0.000000 2.762970 0.000000 
#    z 0.000000 0.000000 3.082070 
# 
# 
# High freq. dielectric constant tensor:
#      x y z
#    x 1.564050 0.000000 0.000000 
#    y 0.000000 1.564050 0.000000 
#    z 0.000000 0.000000 1.567310 
# 
# From -- ./inp_files/5643.got.cif
#   From: 2010.03.12/outbox.cif.g09.slc.cpg/sg129_3_cif.got.tgz:5643.got - 2010.04.06 17:19:44.
