data_PCOD8314202
_publ_section_title
;
Structure prediction by ZEFSAII (Michael W. Deem and Ramdas Pophale) SiO2 
 PCOD8314202
Probable space group: P 4/M B M
;
_chemical_formula_sum "Si O2"
_cell_formula_units_Z 96
_cell_length_a 24.852199
_cell_length_b 24.852199
_cell_length_c 9.235674
_cell_angle_alpha 90.000000
_cell_angle_beta 90.000000
_cell_angle_gamma 90.000000
_cell_volume 5704.245912
_symmetry_space_group_name_H-M "P 4/M B M"
_symmetry_group_IT_number 127
_symmetry_cell_setting 'tetragonal'
loop_
_space_group_symop_operation_xyz
x,y,z
-y,x,z
-x,-y,z
y,-x,z
1/2+x,1/2-y,-z
1/2-x,1/2+y,-z
1/2+y,1/2+x,-z
1/2-y,1/2-x,-z
-x,-y,-z
y,-x,-z
x,y,-z
-y,x,-z
1/2-x,1/2+y,z
1/2+x,1/2-y,z
1/2-y,1/2-x,z
1/2+y,1/2+x,z
loop_
_atom_site_type_symbol
_atom_site_label
_atom_site_fract_x
_atom_site_fract_y
_atom_site_fract_z
Si Si1 0.887581 0.387581 0.827789
Si Si2 0.684656 0.096434 0.663636
Si Si3 0.141423 0.805846 0.172279
Si Si4 0.801742 0.301742 0.827505
Si Si5 0.525050 0.714548 0.162072
Si Si6 0.003032 0.660309 0.163487
Si Si7 0.408332 0.707371 0.172366
O O1 0.844707 0.344707 0.765521
O O2 0.874475 0.447605 0.774058
O O3 0.884235 0.384235 0.000000
O O4 0.700680 0.080734 0.500000
O O5 0.649706 0.149706 0.666614
O O6 0.650700 0.047657 0.733120
O O7 0.737047 0.109512 0.756626
O O8 0.180373 0.757682 0.230073
O O9 0.080907 0.802383 0.241000
O O10 0.163439 0.864291 0.218684
O O11 0.138038 0.799839 0.000000
O O12 0.801501 0.301501 0.000000
O O13 0.521925 0.778410 0.165362
O O14 0.468768 0.690980 0.228704
O O15 0.528818 0.692111 0.000000
O O16 0.987842 0.642900 0.000000
O O17 0.409759 0.716593 0.000000
#
# Coordination Sequence:
#
# PCOD8314202 Si02
#       7
#     8  16  16   8  16  16  16
#     4   9  14  24  44  72  97 116 144 188 235 271
#     4  10  21  35  47  60  86 124 156 184 227 277
#     4   9  15  23  39  67  98 120 144 183 226 270
#     4   9  14  20  36  66 100 123 140 173 231 282
#     4   8  13  24  40  62  93 121 146 179 220 263
#     4   9  16  28  48  70  89 115 153 192 226 265
#     4   9  18  29  47  72  90 114 153 191 222 261
#
# _framework density 16.82957
#
# number of rings (size 3 to 8) (size 9 to 14) (size 15 to 20)
#    0.000    3.000    1.667    1.500    1.167    1.333 
#    0.000    0.833    0.000    7.000    0.000    3.500 
#    0.000    0.000    0.000    6.000    0.000    6.667 
#
# Total GULP energy -1189426.267650 kJ/mol
# GULP energy per Si atom -12389.856955 kJ/mol
# Density = 1.679126 g / cm^3
# Si number density = 16.829570 Si / 1000 Ang^3
#
#
#
# Elastic Constant Matrix: (Units=GPa)
#
#
# Indices 1 2 3 4 5 6 
#
# 1 99.2619 59.3664 18.7215 0.0000 0.0000 0.0000
# 2 59.3664 99.2619 18.7215 0.0000 0.0000 0.0000
# 3 18.7215 18.7215 31.4394 0.0000 0.0000 0.0000
# 4 0.0000 0.0000 0.0000 4.2177 0.0000 0.0000
# 5 0.0000 0.0000 0.0000 0.0000 4.2177 0.0000
# 6 0.0000 0.0000 0.0000 0.0000 0.0000 26.4227
#
#
#
# Elastic Compliance Matrix: (Units=1/GPa)
#
#
# Indices 1 2 3 4 5 6 
#
# 1 0.016200 -0.008865 -0.004368 0.000000 0.000000 0.000000
# 2 -0.008865 0.016200 -0.004368 0.000000 0.000000 0.000000
# 3 -0.004368 -0.004368 0.037009 0.000000 0.000000 0.000000
# 4 0.000000 0.000000 0.000000 0.237099 0.000000 0.000000
# 5 0.000000 0.000000 0.000000 0.000000 0.237099 0.000000
# 6 0.000000 0.000000 0.000000 0.000000 0.000000 0.037846
#
#
# Mechanical properties :
#
#
# Convention : Reuss Voigt Hill
#
# Bulk Modulus (GPa) = 29.23309 47.06467 38.14888
# Shear Modulus (GPa) = 7.96105 15.84851 11.90478
#
# Velocity S-wave (km/s) = 2.17731 3.07205 2.66253
# Velocity P-wave (km/s) = 4.87121 6.37256 5.67178
#
# Compressibility (1/GPa) = 0.03420781
#
# Stress axis : x y z
#
# Youngs Moduli (GPa) = 61.72737 61.72737 27.02030
#
# Poissons Ratio (x) = 0.54723 0.11802
# Poissons Ratio (y) = 0.54723 0.11802
# Poissons Ratio (z) = 0.26962 0.26962
#
# Static dielectric constant tensor:
#      x y z
#    x 3.314050 0.000000 0.000000 
#    y 0.000000 3.314050 0.000000 
#    z 0.000000 0.000000 2.728040 
# 
# 
# High freq. dielectric constant tensor:
#      x y z
#    x 1.644790 0.000000 0.000000 
#    y 0.000000 1.644790 0.000000 
#    z 0.000000 0.000000 1.590780 
# 
# From -- ./inp_files/2089.got.cif
#   From: 2010.03.12/outbox.cif.g09.slc.cpg/sg127_2_cif.got.tgz:2089.got - 2010.04.06 17:03:15.
