data_PCOD8314783
_publ_section_title
;
Structure prediction by ZEFSAII (Michael W. Deem and Ramdas Pophale) SiO2 
 PCOD8314783
Probable space group: P 4/M N C
;
_chemical_formula_sum "Si O2"
_cell_formula_units_Z 72
_cell_length_a 12.526465
_cell_length_b 12.526465
_cell_length_c 24.419235
_cell_angle_alpha 90.000000
_cell_angle_beta 90.000000
_cell_angle_gamma 90.000000
_cell_volume 3831.678948
_symmetry_space_group_name_H-M "P 4/M N C"
_symmetry_group_IT_number 128
_symmetry_cell_setting 'tetragonal'
loop_
_space_group_symop_operation_xyz
x,y,z
-y,x,z
-x,-y,z
y,-x,z
1/2+x,1/2-y,1/2-z
1/2-x,1/2+y,1/2-z
1/2+y,1/2+x,1/2-z
1/2-y,1/2-x,1/2-z
-x,-y,-z
y,-x,-z
x,y,-z
-y,x,-z
1/2-x,1/2+y,1/2+z
1/2+x,1/2-y,1/2+z
1/2-y,1/2-x,1/2+z
1/2+y,1/2+x,1/2+z
loop_
_atom_site_type_symbol
_atom_site_label
_atom_site_fract_x
_atom_site_fract_y
_atom_site_fract_z
Si Si1 0.343406 0.577804 0.676542
Si Si2 0.264288 0.184037 0.000000
Si Si3 0.653243 0.416350 0.200454
Si Si4 0.000000 0.500000 0.585896
Si Si5 0.651266 0.826218 0.115810
Si Si6 0.949083 0.676060 0.000000
O O1 0.359333 0.452670 0.667105
O O2 0.302600 0.602662 0.738134
O O3 0.259648 0.614183 0.631625
O O4 0.334765 0.215413 0.946642
O O5 0.152082 0.245621 0.000000
O O6 0.249631 0.055125 0.000000
O O7 0.642284 0.541720 0.191437
O O8 0.728790 0.365082 0.155904
O O9 0.050110 0.594461 0.622481
O O10 0.097269 0.448595 0.551853
#
# Coordination Sequence:
#
# PCOD8314783 Si02
#       6
#    16   8  16   8  16   8
#     4   9  20  38  59  85 119 151 191 246 297 343
#     4  10  24  35  60  86 119 154 199 233 299 346
#     4   9  20  39  59  83 116 153 197 249 290 333
#     4   9  22  38  55  78 124 150 183 239 294 330
#     4  11  22  37  60  89 111 163 189 240 289 359
#     4   9  20  43  54  79 120 154 190 244 285 343
#
# _framework density 18.790717999999998
#
# number of rings (size 3 to 8) (size 9 to 14) (size 15 to 20)
#    0.000    2.444    0.000    2.667    9.333    0.222 
#    0.000    4.444    0.000    1.333    0.000    0.000 
#    0.000    0.000    0.000    0.000    0.000    0.000 
#
# Total GULP energy -892644.168358 kJ/mol
# GULP energy per Si atom -12397.835672 kJ/mol
# Density = 1.874795 g / cm^3
# Si number density = 18.790718 Si / 1000 Ang^3
#
#
#
# Elastic Constant Matrix: (Units=GPa)
#
#
# Indices 1 2 3 4 5 6 
#
# 1 75.7384 48.2858 37.4652 0.0000 0.0000 0.0000
# 2 48.2858 75.7384 37.4652 0.0000 0.0000 0.0000
# 3 37.4652 37.4652 102.1971 0.0000 0.0000 0.0000
# 4 0.0000 0.0000 0.0000 26.5951 0.0000 0.0000
# 5 0.0000 0.0000 0.0000 0.0000 26.5951 0.0000
# 6 0.0000 0.0000 0.0000 0.0000 0.0000 17.3954
#
#
#
# Elastic Compliance Matrix: (Units=1/GPa)
#
#
# Indices 1 2 3 4 5 6 
#
# 1 0.023392 -0.013035 -0.003797 0.000000 0.000000 0.000000
# 2 -0.013035 0.023392 -0.003797 0.000000 0.000000 0.000000
# 3 -0.003797 -0.003797 0.012569 0.000000 0.000000 0.000000
# 4 0.000000 0.000000 0.000000 0.037601 0.000000 0.000000
# 5 0.000000 0.000000 0.000000 0.000000 0.037601 0.000000
# 6 0.000000 0.000000 0.000000 0.000000 0.000000 0.057486
#
#
# Mechanical properties :
#
#
# Convention : Reuss Voigt Hill
#
# Bulk Modulus (GPa) = 55.26300 55.56735 55.41518
# Shear Modulus (GPa) = 20.89178 22.81431 21.85304
#
# Velocity S-wave (km/s) = 3.33800 3.48821 3.41393
# Velocity P-wave (km/s) = 6.65807 6.77196 6.71526
#
# Compressibility (1/GPa) = 0.01809529
#
# Stress axis : x y z
#
# Youngs Moduli (GPa) = 42.75039 42.75039 79.56212
#
# Poissons Ratio (x) = 0.55724 0.30208
# Poissons Ratio (y) = 0.55724 0.30208
# Poissons Ratio (z) = 0.16231 0.16231
#
# Static dielectric constant tensor:
#      x y z
#    x 3.341440 0.000000 0.000000 
#    y 0.000000 3.341440 0.000000 
#    z 0.000000 0.000000 3.519600 
# 
# 
# High freq. dielectric constant tensor:
#      x y z
#    x 1.725080 0.000000 0.000000 
#    y 0.000000 1.725080 0.000000 
#    z 0.000000 0.000000 1.735060 
# 
# From -- ./inp_files/6799.got.cif
#   From: 2010.03.12/outbox.cif.g09.slc.cpg/sg128_4_cif.got.tgz:6799.got - 2010.04.06 17:11:05.
