data_PCOD8314566
_publ_section_title
;
Structure prediction by ZEFSAII (Michael W. Deem and Ramdas Pophale) SiO2 
 PCOD8314566
Probable space group: P 4/M N C
;
_chemical_formula_sum "Si O2"
_cell_formula_units_Z 120
_cell_length_a 14.849468
_cell_length_b 14.849468
_cell_length_c 30.695257
_cell_angle_alpha 90.000000
_cell_angle_beta 90.000000
_cell_angle_gamma 90.000000
_cell_volume 6768.509823
_symmetry_space_group_name_H-M "P 4/M N C"
_symmetry_group_IT_number 128
_symmetry_cell_setting 'tetragonal'
loop_
_space_group_symop_operation_xyz
x,y,z
-y,x,z
-x,-y,z
y,-x,z
1/2+x,1/2-y,1/2-z
1/2-x,1/2+y,1/2-z
1/2+y,1/2+x,1/2-z
1/2-y,1/2-x,1/2-z
-x,-y,-z
y,-x,-z
x,y,-z
-y,x,-z
1/2-x,1/2+y,1/2+z
1/2+x,1/2-y,1/2+z
1/2-y,1/2-x,1/2+z
1/2+y,1/2+x,1/2+z
loop_
_atom_site_type_symbol
_atom_site_label
_atom_site_fract_x
_atom_site_fract_y
_atom_site_fract_z
Si Si1 0.257605 0.973001 0.811169
Si Si2 0.290571 0.808796 0.864419
Si Si3 0.682351 0.013078 0.677176
Si Si4 0.407154 0.907154 0.250000
Si Si5 0.871270 0.763171 0.951692
Si Si6 0.078096 0.743027 0.951532
Si Si7 0.638760 0.834298 0.635475
Si Si8 0.508249 0.645166 0.233944
O O1 0.237365 0.898362 0.847954
O O2 0.312460 0.917025 0.774552
O O3 0.170344 0.009291 0.785535
O O4 0.307907 0.058196 0.832080
O O5 0.389968 0.799521 0.844558
O O6 0.300589 0.820982 0.916692
O O7 0.228322 0.722971 0.853261
O O8 0.596654 0.017258 0.711624
O O9 0.770167 0.981061 0.702537
O O10 0.658948 0.939835 0.641074
O O11 0.834106 0.864485 0.947365
O O12 0.976420 0.770215 0.942222
O O13 0.851915 0.723537 0.000000
O O14 0.110662 0.672932 0.914976
O O15 0.089672 0.699967 0.000000
O O16 0.416159 0.593780 0.223555
#
# Coordination Sequence:
#
# PCOD8314566 Si02
#       8
#    16  16  16   8  16  16  16  16
#     4  10  19  34  51  76 105 134 169 213 259 312
#     4  10  20  35  52  77 107 135 175 217 258 305
#     4  10  21  36  53  73 102 136 181 220 258 305
#     4   8  20  33  48  70  96 126 166 213 246 298
#     4   9  17  32  53  76 108 141 171 210 256 308
#     4   9  18  33  52  78 107 137 172 210 255 310
#     4  11  21  33  55  77 101 141 174 211 261 309
#     4  10  20  34  52  74 102 136 175 222 270 311
#
# _framework density 17.729161000000001
#
# number of rings (size 3 to 8) (size 9 to 14) (size 15 to 20)
#    0.000    2.267    1.333    1.600    0.000    5.067 
#    0.000    7.333    0.000    1.600    0.000    0.000 
#    0.000    0.000    0.000   16.267    0.000    0.000 
#
# Total GULP energy -1486784.360240 kJ/mol
# GULP energy per Si atom -12389.869669 kJ/mol
# Density = 1.768881 g / cm^3
# Si number density = 17.729161 Si / 1000 Ang^3
#
#
#
# Elastic Constant Matrix: (Units=GPa)
#
#
# Indices 1 2 3 4 5 6 
#
# 1 81.8982 29.3432 42.9460 0.0000 0.0000 0.0000
# 2 29.3432 81.8982 42.9460 0.0000 0.0000 0.0000
# 3 42.9460 42.9460 107.3524 0.0000 0.0000 0.0000
# 4 0.0000 0.0000 0.0000 25.6110 0.0000 0.0000
# 5 0.0000 0.0000 0.0000 0.0000 25.6110 0.0000
# 6 0.0000 0.0000 0.0000 0.0000 0.0000 14.4708
#
#
#
# Elastic Compliance Matrix: (Units=1/GPa)
#
#
# Indices 1 2 3 4 5 6 
#
# 1 0.016017 -0.003010 -0.005203 0.000000 0.000000 0.000000
# 2 -0.003010 0.016017 -0.005203 0.000000 0.000000 0.000000
# 3 -0.005203 -0.005203 0.013478 0.000000 0.000000 0.000000
# 4 0.000000 0.000000 0.000000 0.039046 0.000000 0.000000
# 5 0.000000 0.000000 0.000000 0.000000 0.039046 0.000000
# 6 0.000000 0.000000 0.000000 0.000000 0.000000 0.069105
#
#
# Mechanical properties :
#
#
# Convention : Reuss Voigt Hill
#
# Bulk Modulus (GPa) = 53.53659 55.73550 54.63604
# Shear Modulus (GPa) = 22.14641 23.53279 22.83960
#
# Velocity S-wave (km/s) = 3.53817 3.64723 3.59311
# Velocity P-wave (km/s) = 6.85230 7.01725 6.93527
#
# Compressibility (1/GPa) = 0.01867882
#
# Stress axis : x y z
#
# Youngs Moduli (GPa) = 62.43194 62.43194 74.19277
#
# Poissons Ratio (x) = 0.18794 0.38606
# Poissons Ratio (y) = 0.18794 0.38606
# Poissons Ratio (z) = 0.32486 0.32486
#
# Static dielectric constant tensor:
#      x y z
#    x 3.146180 0.000000 0.000000 
#    y 0.000000 3.146180 0.000000 
#    z 0.000000 0.000000 3.595380 
# 
# 
# High freq. dielectric constant tensor:
#      x y z
#    x 1.674000 0.000000 0.000000 
#    y 0.000000 1.674000 0.000000 
#    z 0.000000 0.000000 1.695990 
# 
# From -- ./inp_files/7411.got.cif
#   From: 2010.03.12/outbox.cif.g09.slc.cpg/sg128_4_cif.got.tgz:7411.got - 2010.04.06 17:11:05.
