data_PCOD8314697
_publ_section_title
;
Structure prediction by ZEFSAII (Michael W. Deem and Ramdas Pophale) SiO2 
 PCOD8314697
Probable space group: P 4/M N C
;
_chemical_formula_sum "Si O2"
_cell_formula_units_Z 96
_cell_length_a 23.877823
_cell_length_b 23.877823
_cell_length_c 8.679577
_cell_angle_alpha 90.000000
_cell_angle_beta 90.000000
_cell_angle_gamma 90.000000
_cell_volume 4948.664569
_symmetry_space_group_name_H-M "P 4/M N C"
_symmetry_group_IT_number 128
_symmetry_cell_setting 'tetragonal'
loop_
_space_group_symop_operation_xyz
x,y,z
-y,x,z
-x,-y,z
y,-x,z
1/2+x,1/2-y,1/2-z
1/2-x,1/2+y,1/2-z
1/2+y,1/2+x,1/2-z
1/2-y,1/2-x,1/2-z
-x,-y,-z
y,-x,-z
x,y,-z
-y,x,-z
1/2-x,1/2+y,1/2+z
1/2+x,1/2-y,1/2+z
1/2-y,1/2-x,1/2+z
1/2+y,1/2+x,1/2+z
loop_
_atom_site_type_symbol
_atom_site_label
_atom_site_fract_x
_atom_site_fract_y
_atom_site_fract_z
Si Si1 0.584018 0.001205 0.318482
Si Si2 0.416975 0.530372 0.817095
Si Si3 0.704684 0.433497 0.181634
Si Si4 0.278774 0.861547 0.180477
Si Si5 0.221995 0.194885 0.319531
Si Si6 0.702956 0.011604 0.179554
O O1 0.558726 0.058726 0.250000
O O2 0.575864 0.001966 0.500000
O O3 0.552053 0.947948 0.250000
O O4 0.648742 0.995234 0.277189
O O5 0.428816 0.466935 0.758117
O O6 0.357499 0.552389 0.755497
O O7 0.416650 0.531307 0.000000
O O8 0.719511 0.369978 0.222627
O O9 0.747239 0.470753 0.276766
O O10 0.710148 0.445626 0.000000
O O11 0.335078 0.835078 0.250000
O O12 0.223926 0.833137 0.251580
O O13 0.277119 0.926418 0.223890
O O14 0.278921 0.850699 0.000000
O O15 0.278511 0.221490 0.250000
O O16 0.222389 0.205321 0.500000
O O17 0.688335 0.006512 0.000000
#
# Coordination Sequence:
#
# PCOD8314697 Si02
#       6
#    16  16  16  16  16  16
#     4  11  22  39  63  89 119 155 194 239 288 345
#     4   8  15  30  54  83 112 142 182 237 296 352
#     4  10  22  36  56  86 114 150 196 240 293 348
#     4  10  21  37  59  85 112 148 191 237 289 338
#     4  10  21  37  58  83 111 149 192 236 287 344
#     4  11  24  39  56  84 119 156 195 238 288 341
#
# _framework density 19.399173000000001
#
# number of rings (size 3 to 8) (size 9 to 14) (size 15 to 20)
#    0.000    2.000    0.000    5.500    2.333    6.000 
#    0.000    1.667    0.000    0.000    0.000    1.167 
#    0.000    0.000    0.000    0.000    0.000    0.000 
#
# Total GULP energy -1190635.446427 kJ/mol
# GULP energy per Si atom -12402.452567 kJ/mol
# Density = 1.935502 g / cm^3
# Si number density = 19.399173 Si / 1000 Ang^3
#
#
#
# Elastic Constant Matrix: (Units=GPa)
#
#
# Indices 1 2 3 4 5 6 
#
# 1 168.4298 51.1818 50.1057 0.0000 0.0000 0.0000
# 2 51.1818 168.4355 50.1058 0.0000 0.0000 0.0000
# 3 50.1057 50.1058 95.2100 0.0000 0.0000 0.0000
# 4 0.0000 0.0000 0.0000 25.4991 0.0000 0.0000
# 5 0.0000 0.0000 0.0000 0.0000 25.4986 0.0000
# 6 0.0000 0.0000 0.0000 0.0000 0.0000 23.3156
#
#
#
# Elastic Compliance Matrix: (Units=1/GPa)
#
#
# Indices 1 2 3 4 5 6 
#
# 1 0.007261 -0.001268 -0.003154 0.000000 0.000000 0.000000
# 2 -0.001268 0.007260 -0.003154 0.000000 0.000000 0.000000
# 3 -0.003154 -0.003154 0.013822 0.000000 0.000000 0.000000
# 4 0.000000 0.000000 0.000000 0.039217 0.000000 0.000000
# 5 0.000000 0.000000 0.000000 0.000000 0.039218 0.000000
# 6 0.000000 0.000000 0.000000 0.000000 0.000000 0.042890
#
#
# Mechanical properties :
#
#
# Convention : Reuss Voigt Hill
#
# Bulk Modulus (GPa) = 75.79888 81.65131 78.72510
# Shear Modulus (GPa) = 29.54793 33.57479 31.56136
#
# Velocity S-wave (km/s) = 3.90699 4.16472 4.03791
# Velocity P-wave (km/s) = 7.71433 8.08134 7.89997
#
# Compressibility (1/GPa) = 0.01319281
#
# Stress axis : x y z
#
# Youngs Moduli (GPa) = 137.72715 137.73264 72.34641
#
# Poissons Ratio (x) = 0.17466 0.22816
# Poissons Ratio (y) = 0.17466 0.22815
# Poissons Ratio (z) = 0.43435 0.43435
#
# Static dielectric constant tensor:
#      x y z
#    x 3.689200 0.000000 0.000000 
#    y 0.000000 3.689190 0.000000 
#    z 0.000000 0.000000 3.421600 
# 
# 
# High freq. dielectric constant tensor:
#      x y z
#    x 1.762000 0.000000 0.000000 
#    y 0.000000 1.762000 0.000000 
#    z 0.000000 0.000000 1.747500 
# 
# From -- ./inp_files/1509.got.cif
#   From: 2010.03.12/outbox.cif.g09.slc.cpg/sg128_1_cif.got.tgz:1509.got - 2010.04.06 17:11:05.
