data_PCOD8314795
_publ_section_title
;
Structure prediction by ZEFSAII (Michael W. Deem and Ramdas Pophale) SiO2 
 PCOD8314795
Probable space group: P 4/M N C
;
_chemical_formula_sum "Si O2"
_cell_formula_units_Z 112
_cell_length_a 14.846298
_cell_length_b 14.846298
_cell_length_c 24.868989
_cell_angle_alpha 90.000000
_cell_angle_beta 90.000000
_cell_angle_gamma 90.000000
_cell_volume 5481.437637
_symmetry_space_group_name_H-M "P 4/M N C"
_symmetry_group_IT_number 128
_symmetry_cell_setting 'tetragonal'
loop_
_space_group_symop_operation_xyz
x,y,z
-y,x,z
-x,-y,z
y,-x,z
1/2+x,1/2-y,1/2-z
1/2-x,1/2+y,1/2-z
1/2+y,1/2+x,1/2-z
1/2-y,1/2-x,1/2-z
-x,-y,-z
y,-x,-z
x,y,-z
-y,x,-z
1/2-x,1/2+y,1/2+z
1/2+x,1/2-y,1/2+z
1/2-y,1/2-x,1/2+z
1/2+y,1/2+x,1/2+z
loop_
_atom_site_type_symbol
_atom_site_label
_atom_site_fract_x
_atom_site_fract_y
_atom_site_fract_z
Si Si1 0.349819 0.849381 0.064696
Si Si2 0.931329 0.129550 0.191506
Si Si3 0.139736 0.049039 0.686671
Si Si4 0.835718 0.193827 0.908459
Si Si5 0.141999 0.557397 0.559969
Si Si6 0.075859 0.122942 0.000000
Si Si7 0.452804 0.356406 0.000000
Si Si8 0.962525 0.275723 0.404290
O O1 0.271474 0.791018 0.095132
O O2 0.433089 0.793767 0.087160
O O3 0.354927 0.955224 0.082963
O O4 0.341062 0.842803 0.000000
O O5 0.926269 0.166209 0.252100
O O6 0.882531 0.195751 0.149994
O O7 0.036265 0.119073 0.179810
O O8 0.054021 0.111761 0.674326
O O9 0.228871 0.065601 0.651766
O O10 0.893766 0.261906 0.944025
O O11 0.830037 0.101554 0.943778
O O12 0.100368 0.553100 0.500000
O O13 0.082337 0.625190 0.595693
O O14 0.971329 0.123407 0.000000
O O15 0.556956 0.387691 0.000000
O O16 0.428648 0.294381 0.050781
#
# Coordination Sequence:
#
# PCOD8314795 Si02
#       8
#    16  16  16  16  16   8   8  16
#     4  11  23  39  58  90 132 173 211 256 314 387
#     4   9  18  36  62  90 120 157 199 254 321 376
#     4   9  20  39  64  90 120 154 204 271 328 376
#     4  12  22  35  61  88 125 161 207 260 302 378
#     4  11  23  39  57  86 127 170 210 250 309 385
#     4  11  20  30  50  86 126 158 185 236 314 378
#     4  11  24  36  57  92 126 158 205 266 330 385
#     4  12  23  38  63  83 125 169 215 256 320 385
#
# _framework density 20.432596
#
# number of rings (size 3 to 8) (size 9 to 14) (size 15 to 20)
#    0.000    1.286    2.857    4.714    4.000    3.429 
#    0.000    0.714    0.000    2.571    0.000    6.000 
#    0.000    0.000    0.000    0.000    0.000    0.000 
#
# Total GULP energy -1387572.702245 kJ/mol
# GULP energy per Si atom -12389.041984 kJ/mol
# Density = 2.038609 g / cm^3
# Si number density = 20.432596 Si / 1000 Ang^3
#
#
#
# Elastic Constant Matrix: (Units=GPa)
#
#
# Indices 1 2 3 4 5 6 
#
# 1 62.3340 10.0369 36.4059 0.0000 0.0000 0.0000
# 2 10.0369 62.3340 36.4059 0.0000 0.0000 0.0000
# 3 36.4059 36.4059 113.1967 0.0000 0.0000 0.0000
# 4 0.0000 0.0000 0.0000 20.5515 0.0000 0.0000
# 5 0.0000 0.0000 0.0000 0.0000 20.5515 0.0000
# 6 0.0000 0.0000 0.0000 0.0000 0.0000 33.3716
#
#
#
# Elastic Compliance Matrix: (Units=1/GPa)
#
#
# Indices 1 2 3 4 5 6 
#
# 1 0.019775 0.000653 -0.006570 0.000000 0.000000 0.000000
# 2 0.000653 0.019775 -0.006570 0.000000 0.000000 0.000000
# 3 -0.006570 -0.006570 0.013060 0.000000 0.000000 0.000000
# 4 0.000000 0.000000 0.000000 0.048658 0.000000 0.000000
# 5 0.000000 0.000000 0.000000 0.000000 0.048658 0.000000
# 6 0.000000 0.000000 0.000000 0.000000 0.000000 0.029966
#
#
# Mechanical properties :
#
#
# Convention : Reuss Voigt Hill
#
# Bulk Modulus (GPa) = 36.18482 44.84023 40.51252
# Shear Modulus (GPa) = 23.35613 25.22932 24.29272
#
# Velocity S-wave (km/s) = 3.38462 3.51773 3.45181
# Velocity P-wave (km/s) = 5.74648 6.20421 5.97973
#
# Compressibility (1/GPa) = 0.02763590
#
# Stress axis : x y z
#
# Youngs Moduli (GPa) = 50.57012 50.57012 76.56909
#
# Poissons Ratio (x) = -0.03302 0.50305
# Poissons Ratio (y) = -0.03302 0.50305
# Poissons Ratio (z) = 0.33224 0.33224
#
# Static dielectric constant tensor:
#      x y z
#    x 3.757370 0.000000 0.000000 
#    y 0.000000 3.757370 0.000000 
#    z 0.000000 0.000000 3.508060 
# 
# 
# High freq. dielectric constant tensor:
#      x y z
#    x 1.801520 0.000000 0.000000 
#    y 0.000000 1.801520 0.000000 
#    z 0.000000 0.000000 1.770390 
# 
# From -- ./inp_files/6957.got.cif
#   From: 2010.03.12/outbox.cif.g09.slc.cpg/sg128_4_cif.got.tgz:6957.got - 2010.04.06 17:11:05.
