data_PCOD8314090
_publ_section_title
;
Structure prediction by ZEFSAII (Michael W. Deem and Ramdas Pophale) SiO2 
 PCOD8314090
Probable space group: P 4/M B M
;
_chemical_formula_sum "Si O2"
_cell_formula_units_Z 72
_cell_length_a 17.279263
_cell_length_b 17.279263
_cell_length_c 12.199237
_cell_angle_alpha 90.000000
_cell_angle_beta 90.000000
_cell_angle_gamma 90.000000
_cell_volume 3642.361933
_symmetry_space_group_name_H-M "P 4/M B M"
_symmetry_group_IT_number 127
_symmetry_cell_setting 'tetragonal'
loop_
_space_group_symop_operation_xyz
x,y,z
-y,x,z
-x,-y,z
y,-x,z
1/2+x,1/2-y,-z
1/2-x,1/2+y,-z
1/2+y,1/2+x,-z
1/2-y,1/2-x,-z
-x,-y,-z
y,-x,-z
x,y,-z
-y,x,-z
1/2-x,1/2+y,z
1/2+x,1/2-y,z
1/2-y,1/2-x,z
1/2+y,1/2+x,z
loop_
_atom_site_type_symbol
_atom_site_label
_atom_site_fract_x
_atom_site_fract_y
_atom_site_fract_z
Si Si1 0.780535 0.845093 0.765588
Si Si2 0.312767 0.942912 0.000000
Si Si3 0.565089 0.065089 0.377613
Si Si4 0.190632 0.819340 0.000000
Si Si5 0.968583 0.343698 0.780408
Si Si6 0.412575 0.589481 0.628356
O O1 0.738995 0.761006 0.751003
O O2 0.721403 0.912343 0.731317
O O3 0.856318 0.850334 0.689836
O O4 0.806774 0.860181 0.891117
O O5 0.228658 0.903786 0.000000
O O6 0.315984 0.994510 0.107422
O O7 0.382596 0.882596 0.000000
O O8 0.590594 0.090594 0.500000
O O9 0.532920 0.139618 0.312289
O O10 0.500000 0.000000 0.386416
O O11 0.257792 0.757792 0.000000
O O12 0.921660 0.421660 0.807469
O O13 0.392171 0.501094 0.661411
O O14 0.400644 0.601446 0.500000
#
# Coordination Sequence:
#
# PCOD8314090 Si02
#       6
#    16   8   8   8  16  16
#     4  10  21  38  60  86 120 156 195 238 295 358
#     4  11  20  32  55  81 112 153 198 234 286 354
#     4   9  18  33  51  79 119 152 187 237 287 337
#     4   9  21  37  52  78 116 153 186 243 296 341
#     4  10  20  33  54  83 115 154 194 236 287 355
#     4   9  20  40  64  88 115 151 199 252 295 337
#
# _framework density 19.767392999999998
#
# number of rings (size 3 to 8) (size 9 to 14) (size 15 to 20)
#    0.000    2.333    1.111    1.667    3.111    3.556 
#    0.000    2.222    0.000    1.333    0.000    0.000 
#    0.000    0.000    0.000    0.000    0.000    0.000 
#
# Total GULP energy -892768.060987 kJ/mol
# GULP energy per Si atom -12399.556403 kJ/mol
# Density = 1.972240 g / cm^3
# Si number density = 19.767393 Si / 1000 Ang^3
#
#
#
# Elastic Constant Matrix: (Units=GPa)
#
#
# Indices 1 2 3 4 5 6 
#
# 1 66.5554 26.6528 38.9983 0.0000 0.0000 0.0000
# 2 26.6528 66.5554 38.9983 0.0000 0.0000 0.0000
# 3 38.9983 38.9983 120.0345 0.0000 0.0000 0.0000
# 4 0.0000 0.0000 0.0000 38.7628 0.0000 0.0000
# 5 0.0000 0.0000 0.0000 0.0000 38.7628 0.0000
# 6 0.0000 0.0000 0.0000 0.0000 0.0000 35.4161
#
#
#
# Elastic Compliance Matrix: (Units=1/GPa)
#
#
# Indices 1 2 3 4 5 6 
#
# 1 0.019898 -0.005163 -0.004787 0.000000 0.000000 0.000000
# 2 -0.005163 0.019898 -0.004787 0.000000 0.000000 0.000000
# 3 -0.004787 -0.004787 0.011442 0.000000 0.000000 0.000000
# 4 0.000000 0.000000 0.000000 0.025798 0.000000 0.000000
# 5 0.000000 0.000000 0.000000 0.000000 0.025798 0.000000
# 6 0.000000 0.000000 0.000000 0.000000 0.000000 0.028236
#
#
# Mechanical properties :
#
#
# Convention : Reuss Voigt Hill
#
# Bulk Modulus (GPa) = 45.95149 51.38267 48.66708
# Shear Modulus (GPa) = 29.79778 32.48808 31.14293
#
# Velocity S-wave (km/s) = 3.88676 4.05843 3.97352
# Velocity P-wave (km/s) = 6.59084 6.92901 6.76204
#
# Compressibility (1/GPa) = 0.02176208
#
# Stress axis : x y z
#
# Youngs Moduli (GPa) = 50.25684 50.25684 87.40080
#
# Poissons Ratio (x) = 0.25949 0.41840
# Poissons Ratio (y) = 0.25949 0.41840
# Poissons Ratio (z) = 0.24059 0.24059
#
# Static dielectric constant tensor:
#      x y z
#    x 3.528970 0.000000 0.000000 
#    y 0.000000 3.528970 0.000000 
#    z 0.000000 0.000000 3.704630 
# 
# 
# High freq. dielectric constant tensor:
#      x y z
#    x 1.760050 0.000000 0.000000 
#    y 0.000000 1.760050 0.000000 
#    z 0.000000 0.000000 1.767770 
# 
# From -- ./inp_files/3216.got.cif
#   From: 2010.03.12/outbox.cif.g09.slc.cpg/sg127_2_cif.got.tgz:3216.got - 2010.04.06 17:03:15.
