data_PCOD8314308
_publ_section_title
;
Structure prediction by ZEFSAII (Michael W. Deem and Ramdas Pophale) SiO2 
 PCOD8314308
Probable space group: P 4/M B M
;
_chemical_formula_sum "Si O2"
_cell_formula_units_Z 96
_cell_length_a 23.525752
_cell_length_b 23.525752
_cell_length_c 9.152560
_cell_angle_alpha 90.000000
_cell_angle_beta 90.000000
_cell_angle_gamma 90.000000
_cell_volume 5065.585076
_symmetry_space_group_name_H-M "P 4/M B M"
_symmetry_group_IT_number 127
_symmetry_cell_setting 'tetragonal'
loop_
_space_group_symop_operation_xyz
x,y,z
-y,x,z
-x,-y,z
y,-x,z
1/2+x,1/2-y,-z
1/2-x,1/2+y,-z
1/2+y,1/2+x,-z
1/2-y,1/2-x,-z
-x,-y,-z
y,-x,-z
x,y,-z
-y,x,-z
1/2-x,1/2+y,z
1/2+x,1/2-y,z
1/2-y,1/2-x,z
1/2+y,1/2+x,z
loop_
_atom_site_type_symbol
_atom_site_label
_atom_site_fract_x
_atom_site_fract_y
_atom_site_fract_z
Si Si1 0.206016 0.481687 0.330390
Si Si2 0.071798 0.801518 0.670703
Si Si3 0.536383 0.585265 0.830508
Si Si4 0.223136 0.183991 0.828903
Si Si5 0.908807 0.500675 0.828363
Si Si6 0.236013 0.357306 0.333212
O O1 0.190465 0.480663 0.500000
O O2 0.261399 0.518599 0.297032
O O3 0.151480 0.505961 0.248413
O O4 0.220581 0.419089 0.272592
O O5 0.084904 0.807306 0.500000
O O6 0.059881 0.863852 0.733063
O O7 0.124330 0.770645 0.748562
O O8 0.470522 0.573410 0.793520
O O9 0.543236 0.601413 0.000000
O O10 0.278951 0.221050 0.792745
O O11 0.166973 0.214728 0.769063
O O12 0.215568 0.174197 0.000000
O O13 0.946105 0.446105 0.784227
O O14 0.942038 0.557963 0.778909
O O15 0.898595 0.502166 0.000000
O O16 0.258465 0.359385 0.500000
O O17 0.179483 0.320518 0.320548
#
# Coordination Sequence:
#
# PCOD8314308 Si02
#       6
#    16  16  16  16  16  16
#     4  10  22  37  54  83 117 148 185 229 278 335
#     4  11  24  38  56  85 120 155 192 234 283 342
#     4   9  20  40  63  87 116 149 188 237 290 341
#     4  10  22  40  60  82 109 146 194 239 283 338
#     4   9  19  36  57  82 113 149 189 234 283 333
#     4   9  18  35  59  84 112 145 181 229 286 336
#
# _framework density 18.951415000000001
#
# number of rings (size 3 to 8) (size 9 to 14) (size 15 to 20)
#    0.000    2.333    0.000    2.500    2.333    5.667 
#    0.000    6.667    0.000    0.000    0.000    0.000 
#    0.000    0.000    0.000    0.000    0.000    0.000 
#
# Total GULP energy -1190695.178778 kJ/mol
# GULP energy per Si atom -12403.074779 kJ/mol
# Density = 1.890828 g / cm^3
# Si number density = 18.951415 Si / 1000 Ang^3
#
#
#
# Elastic Constant Matrix: (Units=GPa)
#
#
# Indices 1 2 3 4 5 6 
#
# 1 90.8745 30.3254 43.9263 0.0000 0.0000 0.0000
# 2 30.3254 90.8745 43.9263 0.0000 0.0000 0.0000
# 3 43.9263 43.9263 79.2376 0.0000 0.0000 0.0000
# 4 0.0000 0.0000 0.0000 32.3374 0.0000 0.0000
# 5 0.0000 0.0000 0.0000 0.0000 32.3374 0.0000
# 6 0.0000 0.0000 0.0000 0.0000 0.0000 17.7720
#
#
#
# Elastic Compliance Matrix: (Units=1/GPa)
#
#
# Indices 1 2 3 4 5 6 
#
# 1 0.015155 -0.001361 -0.007647 0.000000 0.000000 0.000000
# 2 -0.001361 0.015155 -0.007647 0.000000 0.000000 0.000000
# 3 -0.007647 -0.007647 0.021098 0.000000 0.000000 0.000000
# 4 0.000000 0.000000 0.000000 0.030924 0.000000 0.000000
# 5 0.000000 0.000000 0.000000 0.000000 0.030924 0.000000
# 6 0.000000 0.000000 0.000000 0.000000 0.000000 0.056268
#
#
# Mechanical properties :
#
#
# Convention : Reuss Voigt Hill
#
# Bulk Modulus (GPa) = 55.25206 55.26031 55.25618
# Shear Modulus (GPa) = 23.93894 26.00995 24.97444
#
# Velocity S-wave (km/s) = 3.55797 3.70868 3.63411
# Velocity P-wave (km/s) = 6.78946 6.89647 6.84318
#
# Compressibility (1/GPa) = 0.01809887
#
# Stress axis : x y z
#
# Youngs Moduli (GPa) = 65.98688 65.98688 47.39723
#
# Poissons Ratio (x) = 0.08981 0.36243
# Poissons Ratio (y) = 0.08981 0.36243
# Poissons Ratio (z) = 0.50458 0.50458
#
# Static dielectric constant tensor:
#      x y z
#    x 3.490300 0.000000 0.000000 
#    y 0.000000 3.490300 0.000000 
#    z 0.000000 0.000000 3.411610 
# 
# 
# High freq. dielectric constant tensor:
#      x y z
#    x 1.741270 0.000000 0.000000 
#    y 0.000000 1.741270 0.000000 
#    z 0.000000 0.000000 1.734350 
# 
# From -- ./inp_files/1947.got.cif
#   From: 2010.03.12/outbox.cif.g09.slc.cpg/sg127_1_cif.got.tgz:1947.got - 2010.04.06 17:03:15.
