data_PCOD8314683
_publ_section_title
;
Structure prediction by ZEFSAII (Michael W. Deem and Ramdas Pophale) SiO2 
 PCOD8314683
Probable space group: P 4/M N C
;
_chemical_formula_sum "Si O2"
_cell_formula_units_Z 72
_cell_length_a 20.859215
_cell_length_b 20.859215
_cell_length_c 7.884117
_cell_angle_alpha 90.000000
_cell_angle_beta 90.000000
_cell_angle_gamma 90.000000
_cell_volume 3430.433316
_symmetry_space_group_name_H-M "P 4/M N C"
_symmetry_group_IT_number 128
_symmetry_cell_setting 'tetragonal'
loop_
_space_group_symop_operation_xyz
x,y,z
-y,x,z
-x,-y,z
y,-x,z
1/2+x,1/2-y,1/2-z
1/2-x,1/2+y,1/2-z
1/2+y,1/2+x,1/2-z
1/2-y,1/2-x,1/2-z
-x,-y,-z
y,-x,-z
x,y,-z
-y,x,-z
1/2-x,1/2+y,1/2+z
1/2+x,1/2-y,1/2+z
1/2-y,1/2-x,1/2+z
1/2+y,1/2+x,1/2+z
loop_
_atom_site_type_symbol
_atom_site_label
_atom_site_fract_x
_atom_site_fract_y
_atom_site_fract_z
Si Si1 0.189041 0.585278 0.201046
Si Si2 0.449304 0.849875 0.191231
Si Si3 0.168985 0.104625 0.805809
Si Si4 0.348143 0.750687 0.303220
Si Si5 0.542993 0.596782 0.000000
O O1 0.140457 0.640457 0.250000
O O2 0.162297 0.518076 0.278894
O O3 0.255009 0.599442 0.295878
O O4 0.201412 0.583048 0.000000
O O5 0.414358 0.914358 0.250000
O O6 0.404549 0.787650 0.207281
O O7 0.466970 0.861841 0.000000
O O8 0.148313 0.176490 0.755118
O O9 0.135924 0.057135 0.672119
O O10 0.147637 0.088650 0.000000
O O11 0.278999 0.778999 0.250000
O O12 0.359118 0.763073 0.500000
O O13 0.467740 0.583894 0.000000
#
# Coordination Sequence:
#
# PCOD8314683 Si02
#       5
#    16  16  16  16   8
#     4  11  24  41  63  94 133 175 223 278 335 396
#     4  10  22  38  61  90 126 173 220 272 329 392
#     4  11  25  42  70 101 130 175 222 274 334 400
#     4  10  21  35  58  92 126 165 217 274 328 390
#     4  11  28  50  72 100 136 173 217 275 333 401
#
# _framework density 20.988602
#
# number of rings (size 3 to 8) (size 9 to 14) (size 15 to 20)
#    0.000    1.444    1.111    4.000    6.222    6.667 
#    0.000    3.333    0.000    0.000    0.000    0.000 
#    0.000    0.000    0.000    0.000    0.000    0.000 
#
# Total GULP energy -892839.315214 kJ/mol
# GULP energy per Si atom -12400.546045 kJ/mol
# Density = 2.094083 g / cm^3
# Si number density = 20.988602 Si / 1000 Ang^3
#
#
#
# Elastic Constant Matrix: (Units=GPa)
#
#
# Indices 1 2 3 4 5 6 
#
# 1 110.7405 54.2266 27.1822 0.0000 0.0000 0.0000
# 2 54.2266 110.7405 27.1822 0.0000 0.0000 0.0000
# 3 27.1822 27.1822 83.8611 0.0000 0.0000 0.0000
# 4 0.0000 0.0000 0.0000 29.4115 0.0000 0.0000
# 5 0.0000 0.0000 0.0000 0.0000 29.4115 0.0000
# 6 0.0000 0.0000 0.0000 0.0000 0.0000 24.8861
#
#
#
# Elastic Compliance Matrix: (Units=1/GPa)
#
#
# Indices 1 2 3 4 5 6 
#
# 1 0.012241 -0.005454 -0.002200 0.000000 0.000000 0.000000
# 2 -0.005454 0.012241 -0.002200 0.000000 0.000000 0.000000
# 3 -0.002200 -0.002200 0.013351 0.000000 0.000000 0.000000
# 4 0.000000 0.000000 0.000000 0.034000 0.000000 0.000000
# 5 0.000000 0.000000 0.000000 0.000000 0.034000 0.000000
# 6 0.000000 0.000000 0.000000 0.000000 0.000000 0.040183
#
#
# Mechanical properties :
#
#
# Convention : Reuss Voigt Hill
#
# Bulk Modulus (GPa) = 55.17304 58.05825 56.61564
# Shear Modulus (GPa) = 29.10959 29.85855 29.48407
#
# Velocity S-wave (km/s) = 3.72818 3.77584 3.75209
# Velocity P-wave (km/s) = 6.69901 6.83602 6.76786
#
# Compressibility (1/GPa) = 0.01812480
#
# Stress axis : x y z
#
# Youngs Moduli (GPa) = 81.69426 81.69426 74.90327
#
# Poissons Ratio (x) = 0.44556 0.16477
# Poissons Ratio (y) = 0.44556 0.16477
# Poissons Ratio (z) = 0.17971 0.17971
#
# Static dielectric constant tensor:
#      x y z
#    x 3.627770 0.000000 0.000000 
#    y 0.000000 3.627770 0.000000 
#    z 0.000000 0.000000 3.849600 
# 
# 
# High freq. dielectric constant tensor:
#      x y z
#    x 1.825680 0.000000 0.000000 
#    y 0.000000 1.825680 0.000000 
#    z 0.000000 0.000000 1.830700 
# 
# From -- ./inp_files/1201.got.cif
#   From: 2010.03.12/outbox.cif.g09.slc.cpg/sg128_1_cif.got.tgz:1201.got - 2010.04.06 17:11:05.
