data_PCOD8314894
_publ_section_title
;
Structure prediction by ZEFSAII (Michael W. Deem and Ramdas Pophale) SiO2 
 PCOD8314894
Probable space group: P 4/N M M
;
_chemical_formula_sum "Si O2"
_cell_formula_units_Z 128
_cell_length_a 20.493668
_cell_length_b 20.493668
_cell_length_c 19.675919
_cell_angle_alpha 90.000000
_cell_angle_beta 90.000000
_cell_angle_gamma 90.000000
_cell_volume 8263.697644
_symmetry_space_group_name_H-M "P 4/N M M"
_symmetry_group_IT_number 129
_symmetry_cell_setting 'tetragonal'
loop_
_space_group_symop_operation_xyz
x,y,z
1/2-y,x,z
1/2-x,1/2-y,z
y,1/2-x,z
1/2+x,-y,-z
-x,1/2+y,-z
1/2+y,1/2+x,-z
-y,-x,-z
-x,-y,-z
1/2+y,-x,-z
1/2+x,1/2+y,-z
-y,1/2+x,-z
1/2-x,y,z
x,1/2-y,z
1/2-y,1/2-x,z
y,x,z
loop_
_atom_site_type_symbol
_atom_site_label
_atom_site_fract_x
_atom_site_fract_y
_atom_site_fract_z
Si Si1 0.175971 0.429996 0.387476
Si Si2 0.586474 0.480770 0.859753
Si Si3 0.001539 0.110719 0.661275
Si Si4 0.120539 0.017885 0.904982
Si Si5 0.486623 0.596066 0.705343
Si Si6 0.431741 0.826639 0.979243
Si Si7 0.572051 0.677321 0.226460
Si Si8 0.568506 0.825415 0.457520
O O1 0.250000 0.409304 0.374518
O O2 0.133518 0.366482 0.370538
O O3 0.158183 0.489761 0.337819
O O4 0.164818 0.453652 0.464761
O O5 0.550490 0.550490 0.874638
O O6 0.533769 0.423700 0.865164
O O7 0.616222 0.478210 0.784021
O O8 0.645307 0.465917 0.911514
O O9 0.052412 0.052412 0.668276
O O10 0.013050 0.161906 0.722082
O O11 0.009566 0.146819 0.588793
O O12 0.929159 0.080984 0.671453
O O13 0.073132 0.073132 0.937703
O O14 0.168825 0.049541 0.850885
O O15 0.164496 0.985208 0.962283
O O16 0.539552 0.539552 0.699527
O O17 0.414973 0.750000 0.969969
O O18 0.365917 0.865917 0.000000
O O19 0.596254 0.750000 0.237377
O O20 0.632998 0.632998 0.245318
O O21 0.582285 0.750000 0.440371
O O22 0.635339 0.864662 0.442249
#
# Coordination Sequence:
#
# PCOD8314894 Si02
#       8
#    16  16  16  16  16  16  16  16
#     4   9  18  30  44  64  89 118 148 178 214 258
#     4   9  16  29  48  68  88 110 140 183 226 263
#     4   9  16  27  42  60  84 113 144 181 224 261
#     4   9  16  29  47  66  86 110 143 183 222 258
#     4   9  16  28  46  66  88 111 141 180 224 266
#     4  10  20  31  45  66  90 116 146 178 216 265
#     4  10  18  27  41  61  87 119 150 179 212 254
#     4   9  17  28  41  60  88 120 153 183 213 255
#
# _framework density 15.489433999999999
#
# number of rings (size 3 to 8) (size 9 to 14) (size 15 to 20)
#    0.000    2.750    1.250    1.125    0.000    3.000 
#    0.000    3.750    0.000    2.250    0.000    0.000 
#    0.000    4.250    0.000    6.000    0.000    0.625 
#
# Total GULP energy -1586612.745483 kJ/mol
# GULP energy per Si atom -12395.412074 kJ/mol
# Density = 1.545418 g / cm^3
# Si number density = 15.489434 Si / 1000 Ang^3
#
#
#
# Elastic Constant Matrix: (Units=GPa)
#
#
# Indices 1 2 3 4 5 6 
#
# 1 76.5755 39.5603 46.1778 0.0000 0.0000 0.0000
# 2 39.5603 76.5755 46.1778 0.0000 0.0000 0.0000
# 3 46.1778 46.1778 97.6151 0.0000 0.0000 0.0000
# 4 0.0000 0.0000 0.0000 17.4777 0.0000 0.0000
# 5 0.0000 0.0000 0.0000 0.0000 17.4777 0.0000
# 6 0.0000 0.0000 0.0000 0.0000 0.0000 13.0879
#
#
#
# Elastic Compliance Matrix: (Units=1/GPa)
#
#
# Indices 1 2 3 4 5 6 
#
# 1 0.020410 -0.006606 -0.006530 0.000000 0.000000 0.000000
# 2 -0.006606 0.020410 -0.006530 0.000000 0.000000 0.000000
# 3 -0.006530 -0.006530 0.016422 0.000000 0.000000 0.000000
# 4 0.000000 0.000000 0.000000 0.057216 0.000000 0.000000
# 5 0.000000 0.000000 0.000000 0.000000 0.057216 0.000000
# 6 0.000000 0.000000 0.000000 0.000000 0.000000 0.076406
#
#
# Mechanical properties :
#
#
# Convention : Reuss Voigt Hill
#
# Bulk Modulus (GPa) = 55.83544 57.17752 56.50648
# Shear Modulus (GPa) = 17.04268 17.53203 17.28735
#
# Velocity S-wave (km/s) = 3.32064 3.36798 3.34439
# Velocity P-wave (km/s) = 7.12937 7.21931 7.17448
#
# Compressibility (1/GPa) = 0.01790977
#
# Stress axis : x y z
#
# Youngs Moduli (GPa) = 48.99640 48.99640 60.89282
#
# Poissons Ratio (x) = 0.32368 0.39762
# Poissons Ratio (y) = 0.32368 0.39762
# Poissons Ratio (z) = 0.31994 0.31994
#
# Static dielectric constant tensor:
#      x y z
#    x 2.831740 0.000000 0.000000 
#    y 0.000000 2.831740 0.000000 
#    z 0.000000 0.000000 3.096320 
# 
# 
# High freq. dielectric constant tensor:
#      x y z
#    x 1.570150 0.000000 0.000000 
#    y 0.000000 1.570150 0.000000 
#    z 0.000000 0.000000 1.605430 
# 
# From -- ./inp_files/6084.got.cif
#   From: 2010.03.12/outbox.cif.g09.slc.cpg/sg129_4_cif.got.tgz:6084.got - 2010.04.06 17:19:44.
