data_PCOD8314779
_publ_section_title
;
Structure prediction by ZEFSAII (Michael W. Deem and Ramdas Pophale) SiO2 
 PCOD8314779
Probable space group: P 4/M N C
;
_chemical_formula_sum "Si O2"
_cell_formula_units_Z 88
_cell_length_a 15.113181
_cell_length_b 15.113181
_cell_length_c 19.754212
_cell_angle_alpha 90.000000
_cell_angle_beta 90.000000
_cell_angle_gamma 90.000000
_cell_volume 4512.024794
_symmetry_space_group_name_H-M "P 4/M N C"
_symmetry_group_IT_number 128
_symmetry_cell_setting 'tetragonal'
loop_
_space_group_symop_operation_xyz
x,y,z
-y,x,z
-x,-y,z
y,-x,z
1/2+x,1/2-y,1/2-z
1/2-x,1/2+y,1/2-z
1/2+y,1/2+x,1/2-z
1/2-y,1/2-x,1/2-z
-x,-y,-z
y,-x,-z
x,y,-z
-y,x,-z
1/2-x,1/2+y,1/2+z
1/2+x,1/2-y,1/2+z
1/2-y,1/2-x,1/2+z
1/2+y,1/2+x,1/2+z
loop_
_atom_site_type_symbol
_atom_site_label
_atom_site_fract_x
_atom_site_fract_y
_atom_site_fract_z
Si Si1 0.808232 0.143081 0.922543
Si Si2 0.422579 0.623526 0.000000
Si Si3 0.200763 0.440431 0.227451
Si Si4 0.466607 0.258833 0.640035
Si Si5 0.825696 0.787858 0.620288
Si Si6 0.879808 0.337655 0.675406
O O1 0.888726 0.168203 0.871277
O O2 0.721258 0.198834 0.905100
O O3 0.779345 0.041005 0.915452
O O4 0.837830 0.160356 0.000000
O O5 0.379230 0.527593 0.000000
O O6 0.392761 0.676620 0.065279
O O7 0.120239 0.379762 0.250000
O O8 0.259276 0.486083 0.286577
O O9 0.270491 0.382350 0.187017
O O10 0.153061 0.514777 0.181180
O O11 0.419677 0.162061 0.632560
O O12 0.753337 0.861675 0.636867
O O13 0.835026 0.335026 0.750000
#
# Coordination Sequence:
#
# PCOD8314779 Si02
#       6
#    16   8  16  16  16  16
#     4  11  22  42  65  91 127 172 215 262 317 391
#     4  11  24  42  62  88 120 161 210 258 324 379
#     4  11  21  37  64  94 127 162 212 267 329 386
#     4  10  23  38  63  93 124 167 216 258 325 382
#     4  11  21  39  64  88 122 168 208 258 317 392
#     4   9  21  37  59  91 126 159 206 263 320 377
#
# _framework density 19.503439
#
# number of rings (size 3 to 8) (size 9 to 14) (size 15 to 20)
#    0.000    1.545    2.727    2.182    5.091    3.636 
#    0.000    0.909    0.000    1.091    0.000    0.000 
#    0.000    0.000    0.000    0.000    0.000    0.000 
#
# Total GULP energy -1090913.099311 kJ/mol
# GULP energy per Si atom -12396.739765 kJ/mol
# Density = 1.945905 g / cm^3
# Si number density = 19.503439 Si / 1000 Ang^3
#
#
#
# Elastic Constant Matrix: (Units=GPa)
#
#
# Indices 1 2 3 4 5 6 
#
# 1 101.8399 53.8282 52.1004 0.0000 0.0000 0.0000
# 2 53.8282 101.8394 52.1005 0.0000 0.0000 0.0000
# 3 52.1004 52.1005 77.9784 0.0000 0.0000 0.0000
# 4 0.0000 0.0000 0.0000 32.7414 0.0000 0.0000
# 5 0.0000 0.0000 0.0000 0.0000 32.7411 0.0000
# 6 0.0000 0.0000 0.0000 0.0000 0.0000 21.1837
#
#
#
# Elastic Compliance Matrix: (Units=1/GPa)
#
#
# Indices 1 2 3 4 5 6 
#
# 1 0.016225 -0.004603 -0.007765 0.000000 0.000000 0.000000
# 2 -0.004603 0.016225 -0.007765 0.000000 0.000000 0.000000
# 3 -0.007765 -0.007765 0.023200 0.000000 0.000000 0.000000
# 4 0.000000 0.000000 0.000000 0.030542 0.000000 0.000000
# 5 0.000000 0.000000 0.000000 0.000000 0.030543 0.000000
# 6 0.000000 0.000000 0.000000 0.000000 0.000000 0.047206
#
#
# Mechanical properties :
#
#
# Convention : Reuss Voigt Hill
#
# Bulk Modulus (GPa) = 65.00321 66.41288 65.70804
# Shear Modulus (GPa) = 23.88516 25.57515 24.73016
#
# Velocity S-wave (km/s) = 3.50332 3.62514 3.56475
# Velocity P-wave (km/s) = 7.05448 7.18665 7.12087
#
# Compressibility (1/GPa) = 0.01538386
#
# Stress axis : x y z
#
# Youngs Moduli (GPa) = 61.63377 61.63322 43.10340
#
# Poissons Ratio (x) = 0.28372 0.33469
# Poissons Ratio (y) = 0.28372 0.33469
# Poissons Ratio (z) = 0.47857 0.47857
#
# Static dielectric constant tensor:
#      x y z
#    x 3.604150 0.000000 0.000000 
#    y 0.000000 3.604150 0.000000 
#    z 0.000000 0.000000 3.532340 
# 
# 
# High freq. dielectric constant tensor:
#      x y z
#    x 1.761960 0.000000 0.000000 
#    y 0.000000 1.761960 0.000000 
#    z 0.000000 0.000000 1.751400 
# 
# From -- ./inp_files/5663.got.cif
#   From: 2010.03.12/outbox.cif.g09.slc.cpg/sg128_3_cif.got.tgz:5663.got - 2010.04.06 17:11:05.
