data_PCOD8314714
_publ_section_title
;
Structure prediction by ZEFSAII (Michael W. Deem and Ramdas Pophale) SiO2 
 PCOD8314714
Probable space group: P 4/M N C
;
_chemical_formula_sum "Si O2"
_cell_formula_units_Z 80
_cell_length_a 14.590150
_cell_length_b 14.590150
_cell_length_c 20.404868
_cell_angle_alpha 90.000000
_cell_angle_beta 90.000000
_cell_angle_gamma 90.000000
_cell_volume 4343.634794
_symmetry_space_group_name_H-M "P 4/M N C"
_symmetry_group_IT_number 128
_symmetry_cell_setting 'tetragonal'
loop_
_space_group_symop_operation_xyz
x,y,z
-y,x,z
-x,-y,z
y,-x,z
1/2+x,1/2-y,1/2-z
1/2-x,1/2+y,1/2-z
1/2+y,1/2+x,1/2-z
1/2-y,1/2-x,1/2-z
-x,-y,-z
y,-x,-z
x,y,-z
-y,x,-z
1/2-x,1/2+y,1/2+z
1/2+x,1/2-y,1/2+z
1/2-y,1/2-x,1/2+z
1/2+y,1/2+x,1/2+z
loop_
_atom_site_type_symbol
_atom_site_label
_atom_site_fract_x
_atom_site_fract_y
_atom_site_fract_z
Si Si1 0.207869 0.105677 0.867464
Si Si2 0.101429 0.666913 0.681909
Si Si3 0.577811 0.245992 0.573770
Si Si4 0.860873 0.949003 0.268656
Si Si5 0.099721 0.462553 0.073160
O O1 0.302517 0.156154 0.853418
O O2 0.137831 0.184318 0.885562
O O3 0.163579 0.051152 0.807558
O O4 0.226892 0.029348 0.922527
O O5 0.106159 0.606159 0.750000
O O6 0.089243 0.774436 0.692743
O O7 0.019057 0.642884 0.632895
O O8 0.610573 0.254382 0.500000
O O9 0.595028 0.142344 0.598474
O O10 0.946201 0.883843 0.286952
O O11 0.000000 0.500000 0.061653
O O12 0.148315 0.470100 0.000000
#
# Coordination Sequence:
#
# PCOD8314714 Si02
#       5
#    16  16  16  16  16
#     4  11  21  39  57  87 122 152 200 247 298 355
#     4  10  23  39  61  92 116 155 204 250 294 356
#     4  11  23  37  60  88 118 161 200 240 296 365
#     4  10  21  39  59  82 118 158 193 247 310 358
#     4  10  21  40  61  84 119 158 194 246 303 348
#
# _framework density 18.417753999999999
#
# number of rings (size 3 to 8) (size 9 to 14) (size 15 to 20)
#    0.000    1.600    4.000    0.600    2.800    1.600 
#    0.000    1.000    0.000    0.000    0.000    1.400 
#    0.000    0.000    0.000    0.000    0.000    0.000 
#
# Total GULP energy -991391.315914 kJ/mol
# GULP energy per Si atom -12392.391449 kJ/mol
# Density = 1.837583 g / cm^3
# Si number density = 18.417754 Si / 1000 Ang^3
#
#
#
# Elastic Constant Matrix: (Units=GPa)
#
#
# Indices 1 2 3 4 5 6 
#
# 1 108.5891 75.0336 44.9983 0.0000 0.0000 0.0000
# 2 75.0336 108.5891 44.9983 0.0000 0.0000 0.0000
# 3 44.9983 44.9983 67.5554 0.0000 0.0000 0.0000
# 4 0.0000 0.0000 0.0000 21.6520 0.0000 0.0000
# 5 0.0000 0.0000 0.0000 0.0000 21.6520 0.0000
# 6 0.0000 0.0000 0.0000 0.0000 0.0000 30.0818
#
#
#
# Elastic Compliance Matrix: (Units=1/GPa)
#
#
# Indices 1 2 3 4 5 6 
#
# 1 0.018944 -0.010858 -0.005386 0.000000 0.000000 0.000000
# 2 -0.010858 0.018944 -0.005386 0.000000 0.000000 0.000000
# 3 -0.005386 -0.005386 0.021978 0.000000 0.000000 0.000000
# 4 0.000000 0.000000 0.000000 0.046185 0.000000 0.000000
# 5 0.000000 0.000000 0.000000 0.000000 0.046185 0.000000
# 6 0.000000 0.000000 0.000000 0.000000 0.000000 0.033243
#
#
# Mechanical properties :
#
#
# Convention : Reuss Voigt Hill
#
# Bulk Modulus (GPa) = 60.22053 68.31045 64.26549
# Shear Modulus (GPa) = 21.34274 22.65737 22.00006
#
# Velocity S-wave (km/s) = 3.40783 3.51121 3.45991
# Velocity P-wave (km/s) = 6.94639 7.32176 7.13654
#
# Compressibility (1/GPa) = 0.01660563
#
# Stress axis : x y z
#
# Youngs Moduli (GPa) = 52.78852 52.78852 45.50101
#
# Poissons Ratio (x) = 0.57317 0.24506
# Poissons Ratio (y) = 0.57317 0.24506
# Poissons Ratio (z) = 0.28431 0.28431
#
# Static dielectric constant tensor:
#      x y z
#    x 3.493060 0.000000 0.000000 
#    y 0.000000 3.493060 0.000000 
#    z 0.000000 0.000000 3.527550 
# 
# 
# High freq. dielectric constant tensor:
#      x y z
#    x 1.718360 0.000000 0.000000 
#    y 0.000000 1.718360 0.000000 
#    z 0.000000 0.000000 1.709550 
# 
# From -- ./inp_files/5546.got.cif
#   From: 2010.03.12/outbox.cif.g09.slc.cpg/sg128_3_cif.got.tgz:5546.got - 2010.04.06 17:11:05.
