data_PCOD8314722
_publ_section_title
;
Structure prediction by ZEFSAII (Michael W. Deem and Ramdas Pophale) SiO2 
 PCOD8314722
Probable space group: P 4/M N C
;
_chemical_formula_sum "Si O2"
_cell_formula_units_Z 88
_cell_length_a 17.975784
_cell_length_b 17.975784
_cell_length_c 13.381865
_cell_angle_alpha 90.000000
_cell_angle_beta 90.000000
_cell_angle_gamma 90.000000
_cell_volume 4324.066119
_symmetry_space_group_name_H-M "P 4/M N C"
_symmetry_group_IT_number 128
_symmetry_cell_setting 'tetragonal'
loop_
_space_group_symop_operation_xyz
x,y,z
-y,x,z
-x,-y,z
y,-x,z
1/2+x,1/2-y,1/2-z
1/2-x,1/2+y,1/2-z
1/2+y,1/2+x,1/2-z
1/2-y,1/2-x,1/2-z
-x,-y,-z
y,-x,-z
x,y,-z
-y,x,-z
1/2-x,1/2+y,1/2+z
1/2+x,1/2-y,1/2+z
1/2-y,1/2-x,1/2+z
1/2+y,1/2+x,1/2+z
loop_
_atom_site_type_symbol
_atom_site_label
_atom_site_fract_x
_atom_site_fract_y
_atom_site_fract_z
Si Si1 0.208324 0.115447 0.388474
Si Si2 0.209836 0.269427 0.888651
Si Si3 0.329994 0.045711 0.745545
Si Si4 0.483403 0.295998 0.613034
Si Si5 0.141619 0.872571 0.201518
Si Si6 0.125309 0.374692 0.750000
O O1 0.187962 0.086438 0.500000
O O2 0.223719 0.202509 0.393057
O O3 0.278998 0.068028 0.349572
O O4 0.138165 0.106096 0.312364
O O5 0.192901 0.201599 0.813922
O O6 0.165065 0.341157 0.848455
O O7 0.178825 0.253348 0.000000
O O8 0.399837 0.100164 0.750000
O O9 0.279932 0.053452 0.845994
O O10 0.360574 0.962292 0.741143
O O11 0.510766 0.285403 0.500000
O O12 0.423562 0.362839 0.619388
O O13 0.550245 0.316532 0.687533
#
# Coordination Sequence:
#
# PCOD8314722 Si02
#       6
#    16  16  16  16  16   8
#     4  10  21  39  64  90 121 170 225 274 321 384
#     4  11  20  37  63  87 119 164 220 278 330 385
#     4  11  24  39  60  91 133 173 218 265 322 388
#     4  11  22  38  63  91 125 165 212 273 334 388
#     4  11  21  38  58  91 124 160 211 272 330 399
#     4  12  23  40  60  92 132 171 218 268 328 392
#
# _framework density 20.351213999999999
#
# number of rings (size 3 to 8) (size 9 to 14) (size 15 to 20)
#    0.000    1.091    3.636    4.091    0.000    3.273 
#    0.000    6.364    0.000    3.273    0.000    5.091 
#    0.000    0.000    0.000    0.000    0.000    0.000 
#
# Total GULP energy -1090718.641005 kJ/mol
# GULP energy per Si atom -12394.530011 kJ/mol
# Density = 2.030489 g / cm^3
# Si number density = 20.351214 Si / 1000 Ang^3
#
#
#
# Elastic Constant Matrix: (Units=GPa)
#
#
# Indices 1 2 3 4 5 6 
#
# 1 37.2344 101.6393 37.3326 0.0000 0.0000 0.0000
# 2 101.6393 37.2348 37.3350 0.0000 0.0000 0.0000
# 3 37.3326 37.3350 144.1163 0.0000 0.0000 0.0000
# 4 0.0000 0.0000 0.0000 17.0239 0.0000 0.0000
# 5 0.0000 0.0000 0.0000 0.0000 17.0238 0.0000
# 6 0.0000 0.0000 0.0000 0.0000 0.0000 38.4215
#
#
#
# Elastic Compliance Matrix: (Units=1/GPa)
#
#
# Indices 1 2 3 4 5 6 
#
# 1 -0.003580 0.011946 -0.002167 0.000000 0.000000 0.000000
# 2 0.011946 -0.003580 -0.002167 0.000000 0.000000 0.000000
# 3 -0.002167 -0.002167 0.008062 0.000000 0.000000 0.000000
# 4 0.000000 0.000000 0.000000 0.058741 0.000000 0.000000
# 5 0.000000 0.000000 0.000000 0.000000 0.058741 0.000000
# 6 0.000000 0.000000 0.000000 0.000000 0.000000 0.026027
#
#
# Mechanical properties :
#
#
# Convention : Reuss Voigt Hill
#
# Bulk Modulus (GPa) = 62.01636 63.46658 62.74147
# Shear Modulus (GPa) = 37.15781 17.31242 27.23511
#
# Velocity S-wave (km/s) = 4.27761 2.91981 3.66219
# Velocity P-wave (km/s) = 7.41191 6.52843 6.98415
#
# Compressibility (1/GPa) = 0.01612478
#
# Stress axis : x y z
#
# Youngs Moduli (GPa) = -279.30263 -279.29465 124.04326
#
# Poissons Ratio (x) = 3.33657 0.26885
# Poissons Ratio (y) = 3.33667 0.26881
# Poissons Ratio (z) = -0.60536 -0.60526
#
# Static dielectric constant tensor:
#      x y z
#    x 3.682210 0.000000 0.000000 
#    y 0.000000 3.682180 0.000000 
#    z 0.000000 0.000000 4.172980 
# 
# 
# High freq. dielectric constant tensor:
#      x y z
#    x 1.790650 0.000000 0.000000 
#    y 0.000000 1.790650 0.000000 
#    z 0.000000 0.000000 1.798490 
# 
# From -- ./inp_files/3855.got.cif
#   From: 2010.03.12/outbox.cif.g09.slc.cpg/sg128_2_cif.got.tgz:3855.got - 2010.04.06 17:11:05.
