data_PCOD8314031
_publ_section_title
;
Structure prediction by ZEFSAII (Michael W. Deem and Ramdas Pophale) SiO2 
 PCOD8314031
Probable space group: P 4/M B M
;
_chemical_formula_sum "Si O2"
_cell_formula_units_Z 104
_cell_length_a 18.452089
_cell_length_b 18.452089
_cell_length_c 16.396463
_cell_angle_alpha 90.000000
_cell_angle_beta 90.000000
_cell_angle_gamma 90.000000
_cell_volume 5582.660975
_symmetry_space_group_name_H-M "P 4/M B M"
_symmetry_group_IT_number 127
_symmetry_cell_setting 'tetragonal'
loop_
_space_group_symop_operation_xyz
x,y,z
-y,x,z
-x,-y,z
y,-x,z
1/2+x,1/2-y,-z
1/2-x,1/2+y,-z
1/2+y,1/2+x,-z
1/2-y,1/2-x,-z
-x,-y,-z
y,-x,-z
x,y,-z
-y,x,-z
1/2-x,1/2+y,z
1/2+x,1/2-y,z
1/2-y,1/2-x,z
1/2+y,1/2+x,z
loop_
_atom_site_type_symbol
_atom_site_label
_atom_site_fract_x
_atom_site_fract_y
_atom_site_fract_z
Si Si1 0.073238 0.808342 0.406830
Si Si2 0.577854 0.410681 0.841739
Si Si3 0.423719 0.656445 0.328874
Si Si4 0.003202 0.381434 0.500000
Si Si5 0.267725 0.349421 0.905766
Si Si6 0.667757 0.949943 0.665161
Si Si7 0.081753 0.302306 0.760672
O O1 0.065160 0.783500 0.500000
O O2 0.136377 0.866790 0.398975
O O3 0.096505 0.740312 0.349544
O O4 0.000488 0.843882 0.372475
O O5 0.602097 0.492666 0.867233
O O6 0.580642 0.402279 0.744159
O O7 0.634950 0.352585 0.882192
O O8 0.400246 0.734289 0.295779
O O9 0.079834 0.420167 0.500000
O O10 0.936423 0.436423 0.500000
O O11 0.999703 0.335637 0.583417
O O12 0.232811 0.267190 0.888770
O O13 0.219250 0.406704 0.855078
O O14 0.258016 0.368169 0.000000
O O15 0.598462 0.901539 0.679419
O O16 0.673760 0.998869 0.746079
O O17 0.132480 0.367521 0.732890
#
# Coordination Sequence:
#
# PCOD8314031 Si02
#       7
#    16  16  16   8  16  16  16
#     4  11  21  34  51  74 106 143 188 231 273 331
#     4  10  19  34  59  88 119 150 185 236 288 340
#     4  10  20  34  52  75 107 145 181 225 274 328
#     4   9  16  28  48  72 100 135 174 222 275 316
#     4   9  19  37  60  85 116 152 185 223 280 350
#     4  10  20  34  53  78 107 141 184 233 282 327
#     4   9  19  35  56  80 106 138 183 227 271 335
#
# _framework density 18.629107999999999
#
# number of rings (size 3 to 8) (size 9 to 14) (size 15 to 20)
#    0.000    2.231    2.308    0.923    0.000    2.462 
#    0.000    1.538    0.000    0.462    0.000    2.154 
#    0.000    0.000    0.000    0.000    0.000    0.000 
#
# Total GULP energy -1288487.695358 kJ/mol
# GULP energy per Si atom -12389.304763 kJ/mol
# Density = 1.858671 g / cm^3
# Si number density = 18.629108 Si / 1000 Ang^3
#
#
#
# Elastic Constant Matrix: (Units=GPa)
#
#
# Indices 1 2 3 4 5 6 
#
# 1 72.0363 49.6497 26.6617 0.0000 0.0000 0.0000
# 2 49.6497 72.0356 26.6618 0.0000 0.0000 0.0000
# 3 26.6617 26.6618 66.7359 0.0000 0.0000 0.0000
# 4 0.0000 0.0000 0.0000 20.9980 0.0000 0.0000
# 5 0.0000 0.0000 0.0000 0.0000 20.9978 0.0000
# 6 0.0000 0.0000 0.0000 0.0000 0.0000 27.9159
#
#
#
# Elastic Compliance Matrix: (Units=1/GPa)
#
#
# Indices 1 2 3 4 5 6 
#
# 1 0.027316 -0.017354 -0.003980 0.000000 0.000000 0.000000
# 2 -0.017354 0.027316 -0.003980 0.000000 0.000000 0.000000
# 3 -0.003980 -0.003980 0.018164 0.000000 0.000000 0.000000
# 4 0.000000 0.000000 0.000000 0.047623 0.000000 0.000000
# 5 0.000000 0.000000 0.000000 0.000000 0.047624 0.000000
# 6 0.000000 0.000000 0.000000 0.000000 0.000000 0.035822
#
#
# Mechanical properties :
#
#
# Convention : Reuss Voigt Hill
#
# Bulk Modulus (GPa) = 45.10864 46.30602 45.70733
# Shear Modulus (GPa) = 19.09248 21.17134 20.13191
#
# Velocity S-wave (km/s) = 3.20484 3.37481 3.29092
# Velocity P-wave (km/s) = 6.16127 6.33218 6.24731
#
# Compressibility (1/GPa) = 0.02216870
#
# Stress axis : x y z
#
# Youngs Moduli (GPa) = 36.60876 36.60828 55.05251
#
# Poissons Ratio (x) = 0.63530 0.21910
# Poissons Ratio (y) = 0.63531 0.21911
# Poissons Ratio (z) = 0.14570 0.14570
#
# Static dielectric constant tensor:
#      x y z
#    x 3.453230 0.000000 0.000000 
#    y 0.000000 3.453230 0.000000 
#    z 0.000000 0.000000 3.441290 
# 
# 
# High freq. dielectric constant tensor:
#      x y z
#    x 1.717250 0.000000 0.000000 
#    y 0.000000 1.717250 0.000000 
#    z 0.000000 0.000000 1.710740 
# 
# From -- ./inp_files/5211.got.cif
#   From: 2010.03.12/outbox.cif.g09.slc.cpg/sg127_3_cif.got.tgz:5211.got - 2010.04.06 17:03:15.
