data_PCOD8314508
_publ_section_title
;
Structure prediction by ZEFSAII (Michael W. Deem and Ramdas Pophale) SiO2 
 PCOD8314508
Probable space group: P 4/M N C
;
_chemical_formula_sum "Si O2"
_cell_formula_units_Z 80
_cell_length_a 12.862206
_cell_length_b 12.862206
_cell_length_c 26.889051
_cell_angle_alpha 90.000000
_cell_angle_beta 90.000000
_cell_angle_gamma 90.000000
_cell_volume 4448.426269
_symmetry_space_group_name_H-M "P 4/M N C"
_symmetry_group_IT_number 128
_symmetry_cell_setting 'tetragonal'
loop_
_space_group_symop_operation_xyz
x,y,z
-y,x,z
-x,-y,z
y,-x,z
1/2+x,1/2-y,1/2-z
1/2-x,1/2+y,1/2-z
1/2+y,1/2+x,1/2-z
1/2-y,1/2-x,1/2-z
-x,-y,-z
y,-x,-z
x,y,-z
-y,x,-z
1/2-x,1/2+y,1/2+z
1/2+x,1/2-y,1/2+z
1/2-y,1/2-x,1/2+z
1/2+y,1/2+x,1/2+z
loop_
_atom_site_type_symbol
_atom_site_label
_atom_site_fract_x
_atom_site_fract_y
_atom_site_fract_z
Si Si1 0.236700 0.297249 0.140278
Si Si2 0.269092 0.615727 0.224523
Si Si3 0.888839 0.552857 0.803241
Si Si4 0.605006 0.367730 0.942158
Si Si5 0.631674 0.400320 0.672815
O O1 0.321071 0.328929 0.181924
O O2 0.131850 0.361584 0.153724
O O3 0.281669 0.327187 0.086622
O O4 0.214297 0.173268 0.144169
O O5 0.175804 0.675804 0.250000
O O6 0.211852 0.520494 0.197487
O O7 0.353798 0.594610 0.267323
O O8 0.890787 0.609214 0.750000
O O9 0.000000 0.500000 0.814910
O O10 0.643772 0.483467 0.928457
O O11 0.622582 0.345788 0.000000
O O12 0.643705 0.519380 0.656289
#
# Coordination Sequence:
#
# PCOD8314508 Si02
#       5
#    16  16  16  16  16
#     4  11  21  31  54  80 105 142 186 220 271 323
#     4  10  18  31  48  72 107 142 184 220 256 310
#     4  11  20  32  49  75 113 152 182 222 269 319
#     4   9  19  38  61  84 109 134 167 220 285 341
#     4  10  21  34  49  72 109 152 187 221 258 304
#
# _framework density 17.983886999999999
#
# number of rings (size 3 to 8) (size 9 to 14) (size 15 to 20)
#    0.000    1.800    2.000    6.000    2.800    0.000 
#    0.000    2.000    0.000    1.800    0.000    1.400 
#    0.000    0.000    0.000    0.000    0.000    0.000 
#
# Total GULP energy -991538.825756 kJ/mol
# GULP energy per Si atom -12394.235322 kJ/mol
# Density = 1.794296 g / cm^3
# Si number density = 17.983887 Si / 1000 Ang^3
#
#
#
# Elastic Constant Matrix: (Units=GPa)
#
#
# Indices 1 2 3 4 5 6 
#
# 1 75.6433 44.4879 33.7023 0.0000 0.0000 0.0000
# 2 44.4879 75.6425 33.7020 0.0000 0.0000 0.0000
# 3 33.7023 33.7020 61.3821 0.0000 0.0000 0.0000
# 4 0.0000 0.0000 0.0000 25.0642 0.0000 0.0000
# 5 0.0000 0.0000 0.0000 0.0000 25.0640 0.0000
# 6 0.0000 0.0000 0.0000 0.0000 0.0000 28.4792
#
#
#
# Elastic Compliance Matrix: (Units=1/GPa)
#
#
# Indices 1 2 3 4 5 6 
#
# 1 0.022064 -0.010034 -0.006605 0.000000 0.000000 0.000000
# 2 -0.010034 0.022064 -0.006605 0.000000 0.000000 0.000000
# 3 -0.006605 -0.006605 0.023545 0.000000 0.000000 0.000000
# 4 0.000000 0.000000 0.000000 0.039898 0.000000 0.000000
# 5 0.000000 0.000000 0.000000 0.000000 0.039898 0.000000
# 6 0.000000 0.000000 0.000000 0.000000 0.000000 0.035113
#
#
# Mechanical properties :
#
#
# Convention : Reuss Voigt Hill
#
# Bulk Modulus (GPa) = 47.20493 48.49469 47.84981
# Shear Modulus (GPa) = 21.17461 22.43985 21.80723
#
# Velocity S-wave (km/s) = 3.43508 3.53622 3.48602
# Velocity P-wave (km/s) = 6.48371 6.61039 6.54736
#
# Compressibility (1/GPa) = 0.02118423
#
# Stress axis : x y z
#
# Youngs Moduli (GPa) = 45.32278 45.32242 42.47211
#
# Poissons Ratio (x) = 0.45474 0.28055
# Poissons Ratio (y) = 0.45475 0.28054
# Poissons Ratio (z) = 0.29938 0.29937
#
# Static dielectric constant tensor:
#      x y z
#    x 3.345390 0.000000 0.000000 
#    y 0.000000 3.345380 0.000000 
#    z 0.000000 0.000000 2.938860 
# 
# 
# High freq. dielectric constant tensor:
#      x y z
#    x 1.701750 0.000000 0.000000 
#    y 0.000000 1.701750 0.000000 
#    z 0.000000 0.000000 1.641450 
# 
# From -- ./inp_files/6300.got.cif
#   From: 2010.03.12/outbox.cif.g09.slc.cpg/sg128_4_cif.got.tgz:6300.got - 2010.04.06 17:11:05.
