data_PCOD8314483
_publ_section_title
;
Structure prediction by ZEFSAII (Michael W. Deem and Ramdas Pophale) SiO2 
 PCOD8314483
Probable space group: P 4/M N C
;
_chemical_formula_sum "Si O2"
_cell_formula_units_Z 128
_cell_length_a 20.702743
_cell_length_b 20.702743
_cell_length_c 17.416469
_cell_angle_alpha 90.000000
_cell_angle_beta 90.000000
_cell_angle_gamma 90.000000
_cell_volume 7464.760751
_symmetry_space_group_name_H-M "P 4/M N C"
_symmetry_group_IT_number 128
_symmetry_cell_setting 'tetragonal'
loop_
_space_group_symop_operation_xyz
x,y,z
-y,x,z
-x,-y,z
y,-x,z
1/2+x,1/2-y,1/2-z
1/2-x,1/2+y,1/2-z
1/2+y,1/2+x,1/2-z
1/2-y,1/2-x,1/2-z
-x,-y,-z
y,-x,-z
x,y,-z
-y,x,-z
1/2-x,1/2+y,1/2+z
1/2+x,1/2-y,1/2+z
1/2-y,1/2-x,1/2+z
1/2+y,1/2+x,1/2+z
loop_
_atom_site_type_symbol
_atom_site_label
_atom_site_fract_x
_atom_site_fract_y
_atom_site_fract_z
Si Si1 0.818889 0.541251 0.190091
Si Si2 0.324152 0.749524 0.682451
Si Si3 0.621721 0.306629 0.821512
Si Si4 0.153097 0.605029 0.828971
Si Si5 0.356943 0.913363 0.856483
Si Si6 0.744614 0.795371 0.408843
Si Si7 0.025207 0.569133 0.914075
Si Si8 0.060238 0.086976 0.584988
O O1 0.749831 0.569938 0.166971
O O2 0.814347 0.464819 0.178636
O O3 0.870311 0.578171 0.136896
O O4 0.842998 0.554261 0.275294
O O5 0.298019 0.798019 0.750000
O O6 0.359017 0.692280 0.730622
O O7 0.370916 0.792245 0.626602
O O8 0.270048 0.716087 0.629632
O O9 0.682980 0.299314 0.877205
O O10 0.588779 0.373129 0.844566
O O11 0.144675 0.644675 0.750000
O O12 0.200336 0.644885 0.884341
O O13 0.082571 0.595977 0.863113
O O14 0.374043 0.970979 0.914891
O O15 0.744777 0.790069 0.500000
O O16 0.000000 0.500000 0.880618
O O17 0.050486 0.558194 0.000000
O O18 0.078985 0.114369 0.500000
O O19 0.983892 0.088409 0.593434
#
# Coordination Sequence:
#
# PCOD8314483 Si02
#       8
#    16  16  16  16  16  16  16  16
#     4  10  19  32  57  81  99 134 189 229 262 313
#     4   9  17  35  55  75 100 130 178 224 264 314
#     4  10  19  36  55  80 106 134 184 234 259 312
#     4  12  23  36  56  79 106 147 190 226 277 331
#     4  10  16  35  54  73 100 134 175 222 266 318
#     4  11  23  38  53  75 111 149 179 225 283 324
#     4  11  23  34  47  75 113 143 176 225 275 331
#     4   9  19  35  52  75 112 149 173 208 273 334
#
# _framework density 17.147234000000001
#
# number of rings (size 3 to 8) (size 9 to 14) (size 15 to 20)
#    0.000    1.750    6.250    2.250    1.750    0.750 
#    0.000    1.875    0.000    0.000    0.000    0.000 
#    0.000    0.000    0.000    1.375    0.000    0.000 
#
# Total GULP energy -1586079.361838 kJ/mol
# GULP energy per Si atom -12391.245014 kJ/mol
# Density = 1.710821 g / cm^3
# Si number density = 17.147234 Si / 1000 Ang^3
#
#
#
# Elastic Constant Matrix: (Units=GPa)
#
#
# Indices 1 2 3 4 5 6 
#
# 1 80.6111 50.5612 41.4793 0.0000 0.0000 0.0000
# 2 50.5612 80.6111 41.4793 0.0000 0.0000 0.0000
# 3 41.4793 41.4793 68.1101 0.0000 0.0000 0.0000
# 4 0.0000 0.0000 0.0000 20.5837 0.0000 0.0000
# 5 0.0000 0.0000 0.0000 0.0000 20.5837 0.0000
# 6 0.0000 0.0000 0.0000 0.0000 0.0000 34.2965
#
#
#
# Elastic Compliance Matrix: (Units=1/GPa)
#
#
# Indices 1 2 3 4 5 6 
#
# 1 0.022839 -0.010439 -0.007551 0.000000 0.000000 0.000000
# 2 -0.010439 0.022839 -0.007551 0.000000 0.000000 0.000000
# 3 -0.007551 -0.007551 0.023880 0.000000 0.000000 0.000000
# 4 0.000000 0.000000 0.000000 0.048582 0.000000 0.000000
# 5 0.000000 0.000000 0.000000 0.000000 0.048582 0.000000
# 6 0.000000 0.000000 0.000000 0.000000 0.000000 0.029157
#
#
# Mechanical properties :
#
#
# Convention : Reuss Voigt Hill
#
# Bulk Modulus (GPa) = 54.13233 55.15244 54.64239
# Shear Modulus (GPa) = 19.75352 21.48030 20.61691
#
# Velocity S-wave (km/s) = 3.39779 3.54319 3.47125
# Velocity P-wave (km/s) = 6.85791 6.99805 6.92834
#
# Compressibility (1/GPa) = 0.01847325
#
# Stress axis : x y z
#
# Youngs Moduli (GPa) = 43.78553 43.78553 41.87688
#
# Poissons Ratio (x) = 0.45709 0.31622
# Poissons Ratio (y) = 0.45709 0.31622
# Poissons Ratio (z) = 0.33063 0.33063
#
# Static dielectric constant tensor:
#      x y z
#    x 3.259890 0.000000 0.000000 
#    y 0.000000 3.259890 0.000000 
#    z 0.000000 0.000000 3.115620 
# 
# 
# High freq. dielectric constant tensor:
#      x y z
#    x 1.657510 0.000000 0.000000 
#    y 0.000000 1.657510 0.000000 
#    z 0.000000 0.000000 1.642990 
# 
# From -- ./inp_files/5126.got.cif
#   From: 2010.03.12/outbox.cif.g09.slc.cpg/sg128_3_cif.got.tgz:5126.got - 2010.04.06 17:11:05.
