data_PCOD8314924
_publ_section_title
;
Structure prediction by ZEFSAII (Michael W. Deem and Ramdas Pophale) SiO2 
 PCOD8314924
Probable space group: P 4/N M M
;
_chemical_formula_sum "Si O2"
_cell_formula_units_Z 96
_cell_length_a 25.443963
_cell_length_b 25.443963
_cell_length_c 9.855966
_cell_angle_alpha 90.000000
_cell_angle_beta 90.000000
_cell_angle_gamma 90.000000
_cell_volume 6380.705604
_symmetry_space_group_name_H-M "P 4/N M M"
_symmetry_group_IT_number 129
_symmetry_cell_setting 'tetragonal'
loop_
_space_group_symop_operation_xyz
x,y,z
1/2-y,x,z
1/2-x,1/2-y,z
y,1/2-x,z
1/2+x,-y,-z
-x,1/2+y,-z
1/2+y,1/2+x,-z
-y,-x,-z
-x,-y,-z
1/2+y,-x,-z
1/2+x,1/2+y,-z
-y,1/2+x,-z
1/2-x,y,z
x,1/2-y,z
1/2-y,1/2-x,z
y,x,z
loop_
_atom_site_type_symbol
_atom_site_label
_atom_site_fract_x
_atom_site_fract_y
_atom_site_fract_z
Si Si1 0.192672 0.390421 0.773734
Si Si2 0.690847 0.969008 0.456682
Si Si3 0.011679 0.576607 0.096352
Si Si4 0.579616 0.492447 0.407872
Si Si5 0.396213 0.191070 0.291211
Si Si6 0.935869 0.648344 0.966623
O O1 0.250000 0.365342 0.753385
O O2 0.150765 0.349236 0.717348
O O3 0.186748 0.444363 0.692299
O O4 0.184697 0.403073 0.931203
O O5 0.750000 0.995262 0.474805
O O6 0.683669 0.922669 0.564053
O O7 0.639503 0.006254 0.467260
O O8 0.028970 0.582354 0.253327
O O9 0.966068 0.533933 0.090510
O O10 0.059939 0.559939 0.000000
O O11 0.991431 0.632169 0.034343
O O12 0.549104 0.450897 0.500000
O O13 0.549336 0.549336 0.414197
O O14 0.375149 0.250000 0.273763
O O15 0.346373 0.153628 0.274265
O O16 0.440569 0.179065 0.175902
O O17 0.905468 0.594533 0.936036
#
# Coordination Sequence:
#
# PCOD8314924 Si02
#       6
#    16  16  16  16  16  16
#     4  10  18  29  44  59  79 111 151 195 236 271
#     4  10  20  33  47  64  90 123 156 186 232 289
#     4   9  17  28  42  64  88 112 140 178 229 281
#     4  10  19  30  48  72  96 120 152 192 235 281
#     4  10  20  31  44  61  82 116 160 204 245 278
#     4   9  17  29  43  57  81 109 141 184 230 280
#
# _framework density 15.045358
#
# number of rings (size 3 to 8) (size 9 to 14) (size 15 to 20)
#    0.000    2.333    1.667    2.000    2.333    0.333 
#    0.000    0.000    0.000    6.000    0.000    0.000 
#    0.000    0.333    0.000    0.000    0.000    0.000 
#
# Total GULP energy -1189467.078667 kJ/mol
# GULP energy per Si atom -12390.282069 kJ/mol
# Density = 1.501111 g / cm^3
# Si number density = 15.045358 Si / 1000 Ang^3
#
#
#
# Elastic Constant Matrix: (Units=GPa)
#
#
# Indices 1 2 3 4 5 6 
#
# 1 65.8739 41.3481 26.4662 0.0000 0.0000 0.0000
# 2 41.3481 65.8715 26.4669 0.0000 0.0000 0.0000
# 3 26.4662 26.4669 75.4022 0.0000 0.0000 0.0000
# 4 0.0000 0.0000 0.0000 18.7873 0.0000 0.0000
# 5 0.0000 0.0000 0.0000 0.0000 18.7874 0.0000
# 6 0.0000 0.0000 0.0000 0.0000 0.0000 19.0288
#
#
#
# Elastic Compliance Matrix: (Units=1/GPa)
#
#
# Indices 1 2 3 4 5 6 
#
# 1 0.026028 -0.014747 -0.003959 0.000000 0.000000 0.000000
# 2 -0.014747 0.026029 -0.003960 0.000000 0.000000 0.000000
# 3 -0.003959 -0.003960 0.016042 0.000000 0.000000 0.000000
# 4 0.000000 0.000000 0.000000 0.053227 0.000000 0.000000
# 5 0.000000 0.000000 0.000000 0.000000 0.053227 0.000000
# 6 0.000000 0.000000 0.000000 0.000000 0.000000 0.052552
#
#
# Mechanical properties :
#
#
# Convention : Reuss Voigt Hill
#
# Bulk Modulus (GPa) = 43.92595 43.96779 43.94687
# Shear Modulus (GPa) = 17.85539 18.84511 18.35025
#
# Velocity S-wave (km/s) = 3.44869 3.54298 3.49615
# Velocity P-wave (km/s) = 6.71692 6.78409 6.75059
#
# Compressibility (1/GPa) = 0.02276558
#
# Stress axis : x y z
#
# Youngs Moduli (GPa) = 38.42048 38.41853 62.33606
#
# Poissons Ratio (x) = 0.56656 0.24682
# Poissons Ratio (y) = 0.56659 0.24687
# Poissons Ratio (z) = 0.15212 0.15215
#
# Static dielectric constant tensor:
#      x y z
#    x 2.776940 0.000000 0.000000 
#    y 0.000000 2.776940 0.000000 
#    z 0.000000 0.000000 3.103570 
# 
# 
# High freq. dielectric constant tensor:
#      x y z
#    x 1.539440 0.000000 0.000000 
#    y 0.000000 1.539440 0.000000 
#    z 0.000000 0.000000 1.599520 
# 
# From -- ./inp_files/2771.got.cif
#   From: 2010.03.12/outbox.cif.g09.slc.cpg/sg129_2_cif.got.tgz:2771.got - 2010.04.06 17:19:44.
