data_PCOD8314126
_publ_section_title
;
Structure prediction by ZEFSAII (Michael W. Deem and Ramdas Pophale) SiO2 
 PCOD8314126
Probable space group: P 4/M B M
;
_chemical_formula_sum "Si O2"
_cell_formula_units_Z 72
_cell_length_a 21.193368
_cell_length_b 21.193368
_cell_length_c 8.718226
_cell_angle_alpha 90.000000
_cell_angle_beta 90.000000
_cell_angle_gamma 90.000000
_cell_volume 3915.868340
_symmetry_space_group_name_H-M "P 4/M B M"
_symmetry_group_IT_number 127
_symmetry_cell_setting 'tetragonal'
loop_
_space_group_symop_operation_xyz
x,y,z
-y,x,z
-x,-y,z
y,-x,z
1/2+x,1/2-y,-z
1/2-x,1/2+y,-z
1/2+y,1/2+x,-z
1/2-y,1/2-x,-z
-x,-y,-z
y,-x,-z
x,y,-z
-y,x,-z
1/2-x,1/2+y,z
1/2+x,1/2-y,z
1/2-y,1/2-x,z
1/2+y,1/2+x,z
loop_
_atom_site_type_symbol
_atom_site_label
_atom_site_fract_x
_atom_site_fract_y
_atom_site_fract_z
Si Si1 0.184418 0.496926 0.679281
Si Si2 0.219635 0.620513 0.174031
Si Si3 0.900915 0.139358 0.821249
Si Si4 0.528777 0.323914 0.680933
Si Si5 0.051407 0.448594 0.683468
O O1 0.180660 0.487752 0.500000
O O2 0.184029 0.570800 0.718477
O O3 0.250860 0.467340 0.739708
O O4 0.121352 0.464947 0.749646
O O5 0.188599 0.688599 0.199265
O O6 0.292551 0.628415 0.215875
O O7 0.212303 0.596191 0.000000
O O8 0.858846 0.092831 0.721314
O O9 0.973251 0.138319 0.766732
O O10 0.897444 0.121256 0.000000
O O11 0.515873 0.326106 0.500000
O O12 0.050918 0.449083 0.500000
O O13 0.000000 0.500000 0.742975
#
# Coordination Sequence:
#
# PCOD8314126 Si02
#       5
#    16  16  16  16   8
#     4   9  18  32  51  74 103 136 170 210 254 300
#     4   9  18  33  52  74 101 133 170 212 253 295
#     4  10  20  35  55  76 101 135 172 208 253 311
#     4  10  20  35  53  76 105 133 167 214 262 302
#     4   9  16  28  49  77 105 137 175 209 247 300
#
# _framework density 18.386725999999999
#
# number of rings (size 3 to 8) (size 9 to 14) (size 15 to 20)
#    0.000    2.556    0.000    2.000    0.000    3.556 
#    2.000    2.778    0.000    2.000    0.000    0.000 
#    0.000    0.000    0.000    0.000    0.000    0.000 
#
# Total GULP energy -892620.728969 kJ/mol
# GULP energy per Si atom -12397.510125 kJ/mol
# Density = 1.834488 g / cm^3
# Si number density = 18.386726 Si / 1000 Ang^3
#
#
#
# Elastic Constant Matrix: (Units=GPa)
#
#
# Indices 1 2 3 4 5 6 
#
# 1 111.8824 76.0887 14.3673 0.0000 0.0000 0.0000
# 2 76.0887 111.8824 14.3672 0.0000 0.0000 0.0000
# 3 14.3673 14.3672 20.6090 0.0000 0.0000 0.0000
# 4 0.0000 0.0000 0.0000 22.4045 0.0000 0.0000
# 5 0.0000 0.0000 0.0000 0.0000 22.4045 0.0000
# 6 0.0000 0.0000 0.0000 0.0000 0.0000 33.0343
#
#
#
# Elastic Compliance Matrix: (Units=1/GPa)
#
#
# Indices 1 2 3 4 5 6 
#
# 1 0.016946 -0.010992 -0.004151 0.000000 0.000000 0.000000
# 2 -0.010992 0.016946 -0.004151 0.000000 0.000000 0.000000
# 3 -0.004151 -0.004151 0.054310 0.000000 0.000000 0.000000
# 4 0.000000 0.000000 0.000000 0.044634 0.000000 0.000000
# 5 0.000000 0.000000 0.000000 0.000000 0.044634 0.000000
# 6 0.000000 0.000000 0.000000 0.000000 0.000000 0.030272
#
#
# Mechanical properties :
#
#
# Convention : Reuss Voigt Hill
#
# Bulk Modulus (GPa) = 20.15521 50.44669 35.30095
# Shear Modulus (GPa) = 19.02092 24.87201 21.94647
#
# Velocity S-wave (km/s) = 3.21984 3.68192 3.45861
# Velocity P-wave (km/s) = 4.98084 6.75066 5.93212
#
# Compressibility (1/GPa) = 0.04961495
#
# Stress axis : x y z
#
# Youngs Moduli (GPa) = 59.01021 59.01028 18.41268
#
# Poissons Ratio (x) = 0.64862 0.07643
# Poissons Ratio (y) = 0.64862 0.07643
# Poissons Ratio (z) = 0.24496 0.24496
#
# Static dielectric constant tensor:
#      x y z
#    x 3.490000 0.000000 0.000000 
#    y 0.000000 3.489990 0.000000 
#    z 0.000000 0.000000 3.251740 
# 
# 
# High freq. dielectric constant tensor:
#      x y z
#    x 1.712660 0.000000 0.000000 
#    y 0.000000 1.712660 0.000000 
#    z 0.000000 0.000000 1.700770 
# 
# From -- ./inp_files/1571.got.cif
#   From: 2010.03.12/outbox.cif.g09.slc.cpg/sg127_1_cif.got.tgz:1571.got - 2010.04.06 17:03:15.
