data_PCOD8314848
_publ_section_title
;
Structure prediction by ZEFSAII (Michael W. Deem and Ramdas Pophale) SiO2 
 PCOD8314848
Probable space group: P 4/M N C
;
_chemical_formula_sum "Si O2"
_cell_formula_units_Z 64
_cell_length_a 11.358230
_cell_length_b 11.358230
_cell_length_c 26.213646
_cell_angle_alpha 90.000000
_cell_angle_beta 90.000000
_cell_angle_gamma 90.000000
_cell_volume 3381.806447
_symmetry_space_group_name_H-M "P 4/M N C"
_symmetry_group_IT_number 128
_symmetry_cell_setting 'tetragonal'
loop_
_space_group_symop_operation_xyz
x,y,z
-y,x,z
-x,-y,z
y,-x,z
1/2+x,1/2-y,1/2-z
1/2-x,1/2+y,1/2-z
1/2+y,1/2+x,1/2-z
1/2-y,1/2-x,1/2-z
-x,-y,-z
y,-x,-z
x,y,-z
-y,x,-z
1/2-x,1/2+y,1/2+z
1/2+x,1/2-y,1/2+z
1/2-y,1/2-x,1/2+z
1/2+y,1/2+x,1/2+z
loop_
_atom_site_type_symbol
_atom_site_label
_atom_site_fract_x
_atom_site_fract_y
_atom_site_fract_z
Si Si1 0.182739 0.050728 0.840588
Si Si2 0.959018 0.186045 0.721597
Si Si3 0.308604 0.509761 0.059005
Si Si4 0.880234 0.431160 0.860788
O O1 0.214969 0.052662 0.780987
O O2 0.296107 0.087027 0.873237
O O3 0.080626 0.142494 0.854858
O O4 0.936468 0.303880 0.690476
O O5 0.088125 0.137864 0.707203
O O6 0.378678 0.390557 0.072337
O O7 0.190114 0.514212 0.091787
O O8 0.272583 0.511163 0.000000
O O9 0.000000 0.500000 0.851277
#
# Coordination Sequence:
#
# PCOD8314848 Si02
#       4
#    16  16  16  16
#     4   9  21  39  54  73 113 161 194 223 268 329
#     4   9  19  37  57  77 108 152 196 239 279 315
#     4   9  20  41  66  87 109 140 180 233 294 343
#     4  12  24  32  55  90 115 142 185 235 282 337
#
# _framework density 18.924795
#
# number of rings (size 3 to 8) (size 9 to 14) (size 15 to 20)
#    0.000    2.250    0.000    4.500    7.000    4.500 
#    0.000    0.000    0.000    0.000    0.000    1.750 
#    0.000    0.000    0.000    0.000    0.000    0.000 
#
# Total GULP energy -793689.890339 kJ/mol
# GULP energy per Si atom -12401.404537 kJ/mol
# Density = 1.888172 g / cm^3
# Si number density = 18.924795 Si / 1000 Ang^3
#
#
#
# Elastic Constant Matrix: (Units=GPa)
#
#
# Indices 1 2 3 4 5 6 
#
# 1 105.6406 21.4901 3.0151 0.0000 0.0000 0.0000
# 2 21.4901 105.6406 3.0151 0.0000 0.0000 0.0000
# 3 3.0151 3.0151 16.8249 0.0000 0.0000 0.0000
# 4 0.0000 0.0000 0.0000 25.0530 0.0000 0.0000
# 5 0.0000 0.0000 0.0000 0.0000 25.0530 0.0000
# 6 0.0000 0.0000 0.0000 0.0000 0.0000 569.8562
#
#
#
# Elastic Compliance Matrix: (Units=1/GPa)
#
#
# Indices 1 2 3 4 5 6 
#
# 1 0.009908 -0.001975 -0.001422 0.000000 0.000000 0.000000
# 2 -0.001975 0.009908 -0.001422 0.000000 0.000000 0.000000
# 3 -0.001422 -0.001422 0.059945 0.000000 0.000000 0.000000
# 4 0.000000 0.000000 0.000000 0.039915 0.000000 0.000000
# 5 0.000000 0.000000 0.000000 0.000000 0.039915 0.000000
# 6 0.000000 0.000000 0.000000 0.000000 0.000000 0.001755
#
#
# Mechanical properties :
#
#
# Convention : Reuss Voigt Hill
#
# Bulk Modulus (GPa) = 14.26017 31.46073 22.86045
# Shear Modulus (GPa) = 25.72548 137.36482 81.54515
#
# Velocity S-wave (km/s) = 3.69094 8.52890 6.57135
# Velocity P-wave (km/s) = 5.07105 10.66066 8.34761
#
# Compressibility (1/GPa) = 0.07012537
#
# Stress axis : x y z
#
# Youngs Moduli (GPa) = 100.92437 100.92437 16.68185
#
# Poissons Ratio (x) = 0.19933 0.02372
# Poissons Ratio (y) = 0.19933 0.02372
# Poissons Ratio (z) = 0.14348 0.14348
#
# Static dielectric constant tensor:
#      x y z
#    x 3.477580 0.000000 0.000000 
#    y 0.000000 3.477580 0.000000 
#    z 0.000000 0.000000 3.153900 
# 
# 
# High freq. dielectric constant tensor:
#      x y z
#    x 1.738950 0.000000 0.000000 
#    y 0.000000 1.738950 0.000000 
#    z 0.000000 0.000000 1.707280 
# 
# From -- ./inp_files/6213.got.cif
#   From: 2010.03.12/outbox.cif.g09.slc.cpg/sg128_4_cif.got.tgz:6213.got - 2010.04.06 17:11:05.
