data_PCOD8314208
_publ_section_title
;
Structure prediction by ZEFSAII (Michael W. Deem and Ramdas Pophale) SiO2 
 PCOD8314208
Probable space group: P 4/M B M
;
_chemical_formula_sum "Si O2"
_cell_formula_units_Z 96
_cell_length_a 19.700797
_cell_length_b 19.700797
_cell_length_c 14.393079
_cell_angle_alpha 90.000000
_cell_angle_beta 90.000000
_cell_angle_gamma 90.000000
_cell_volume 5586.262007
_symmetry_space_group_name_H-M "P 4/M B M"
_symmetry_group_IT_number 127
_symmetry_cell_setting 'tetragonal'
loop_
_space_group_symop_operation_xyz
x,y,z
-y,x,z
-x,-y,z
y,-x,z
1/2+x,1/2-y,-z
1/2-x,1/2+y,-z
1/2+y,1/2+x,-z
1/2-y,1/2-x,-z
-x,-y,-z
y,-x,-z
x,y,-z
-y,x,-z
1/2-x,1/2+y,z
1/2+x,1/2-y,z
1/2-y,1/2-x,z
1/2+y,1/2+x,z
loop_
_atom_site_type_symbol
_atom_site_label
_atom_site_fract_x
_atom_site_fract_y
_atom_site_fract_z
Si Si1 0.496472 0.891824 0.899817
Si Si2 0.799060 0.022148 0.396528
Si Si3 0.373038 0.340392 0.604098
Si Si4 0.768834 0.501599 0.787174
Si Si5 0.141182 0.249006 0.109608
Si Si6 0.262665 0.651718 0.217323
O O1 0.546805 0.953196 0.894589
O O2 0.509551 0.847211 0.809679
O O3 0.419837 0.919837 0.896058
O O4 0.505257 0.853175 0.000000
O O5 0.767173 0.028906 0.500000
O O6 0.848183 0.084159 0.372634
O O7 0.843622 0.954352 0.387622
O O8 0.738513 0.020137 0.321375
O O9 0.350956 0.318183 0.500000
O O10 0.340286 0.287062 0.675767
O O11 0.743981 0.564677 0.850240
O O12 0.735918 0.428123 0.810484
O O13 0.180713 0.319288 0.136043
O O14 0.183655 0.186107 0.149056
O O15 0.136392 0.240387 0.000000
O O16 0.188838 0.688838 0.208256
#
# Coordination Sequence:
#
# PCOD8314208 Si02
#       6
#    16  16  16  16  16  16
#     4   9  18  32  51  76 100 124 164 215 262 309
#     4   9  18  31  50  75 102 133 171 214 255 298
#     4   9  17  32  52  76 104 132 167 212 258 304
#     4  11  19  32  54  75 101 137 171 210 258 311
#     4  10  21  36  53  75 104 137 174 216 261 309
#     4  10  21  35  51  77 106 135 171 211 256 309
#
# _framework density 17.185013999999999
#
# number of rings (size 3 to 8) (size 9 to 14) (size 15 to 20)
#    0.000    2.333    1.667    2.000    0.000    3.333 
#    0.000    3.333    0.000    4.000    0.000    2.333 
#    0.000    0.000    0.000    0.000    0.000    0.000 
#
# Total GULP energy -1189290.722508 kJ/mol
# GULP energy per Si atom -12388.445026 kJ/mol
# Density = 1.714590 g / cm^3
# Si number density = 17.185014 Si / 1000 Ang^3
#
#
#
# Elastic Constant Matrix: (Units=GPa)
#
#
# Indices 1 2 3 4 5 6 
#
# 1 96.9395 42.1101 59.2408 0.0000 0.0000 0.0000
# 2 42.1101 96.9395 59.2408 0.0000 0.0000 0.0000
# 3 59.2408 59.2408 118.1979 0.0000 0.0000 0.0000
# 4 0.0000 0.0000 0.0000 28.8075 0.0000 0.0000
# 5 0.0000 0.0000 0.0000 0.0000 28.8075 0.0000
# 6 0.0000 0.0000 0.0000 0.0000 0.0000 16.5508
#
#
#
# Elastic Compliance Matrix: (Units=1/GPa)
#
#
# Indices 1 2 3 4 5 6 
#
# 1 0.015395 -0.002843 -0.006291 0.000000 0.000000 0.000000
# 2 -0.002843 0.015395 -0.006291 0.000000 0.000000 0.000000
# 3 -0.006291 -0.006291 0.014767 0.000000 0.000000 0.000000
# 4 0.000000 0.000000 0.000000 0.034713 0.000000 0.000000
# 5 0.000000 0.000000 0.000000 0.000000 0.034713 0.000000
# 6 0.000000 0.000000 0.000000 0.000000 0.000000 0.060420
#
#
# Mechanical properties :
#
#
# Convention : Reuss Voigt Hill
#
# Bulk Modulus (GPa) = 67.99740 70.36228 69.17984
# Shear Modulus (GPa) = 23.67904 24.93214 24.30559
#
# Velocity S-wave (km/s) = 3.71602 3.81308 3.76486
# Velocity P-wave (km/s) = 7.62007 7.77296 7.69690
#
# Compressibility (1/GPa) = 0.01470644
#
# Stress axis : x y z
#
# Youngs Moduli (GPa) = 64.95466 64.95466 67.71980
#
# Poissons Ratio (x) = 0.18467 0.42604
# Poissons Ratio (y) = 0.18467 0.42604
# Poissons Ratio (z) = 0.40864 0.40864
#
# Static dielectric constant tensor:
#      x y z
#    x 3.244640 0.000000 0.000000 
#    y 0.000000 3.244640 0.000000 
#    z 0.000000 0.000000 3.449800 
# 
# 
# High freq. dielectric constant tensor:
#      x y z
#    x 1.658020 0.000000 0.000000 
#    y 0.000000 1.658020 0.000000 
#    z 0.000000 0.000000 1.668740 
# 
# From -- ./inp_files/3522.got.cif
#   From: 2010.03.12/outbox.cif.g09.slc.cpg/sg127_2_cif.got.tgz:3522.got - 2010.04.06 17:03:15.
