data_PCOD8314350
_publ_section_title
;
Structure prediction by ZEFSAII (Michael W. Deem and Ramdas Pophale) SiO2 
 PCOD8314350
Probable space group: P 4/M B M
;
_chemical_formula_sum "Si O2"
_cell_formula_units_Z 64
_cell_length_a 13.063462
_cell_length_b 13.063462
_cell_length_c 18.480911
_cell_angle_alpha 90.000000
_cell_angle_beta 90.000000
_cell_angle_gamma 90.000000
_cell_volume 3153.842114
_symmetry_space_group_name_H-M "P 4/M B M"
_symmetry_group_IT_number 127
_symmetry_cell_setting 'tetragonal'
loop_
_space_group_symop_operation_xyz
x,y,z
-y,x,z
-x,-y,z
y,-x,z
1/2+x,1/2-y,-z
1/2-x,1/2+y,-z
1/2+y,1/2+x,-z
1/2-y,1/2-x,-z
-x,-y,-z
y,-x,-z
x,y,-z
-y,x,-z
1/2-x,1/2+y,z
1/2+x,1/2-y,z
1/2-y,1/2-x,z
1/2+y,1/2+x,z
loop_
_atom_site_type_symbol
_atom_site_label
_atom_site_fract_x
_atom_site_fract_y
_atom_site_fract_z
Si Si1 0.276738 0.776738 0.915276
Si Si2 0.994891 0.831626 0.579947
Si Si3 0.082877 0.417124 0.817204
Si Si4 0.363016 0.595656 0.835710
Si Si5 0.445522 0.219269 0.715221
O O1 0.356625 0.856625 0.879700
O O2 0.294586 0.658694 0.892285
O O3 0.288857 0.788857 0.000000
O O4 0.993235 0.780224 0.500000
O O5 0.097738 0.896574 0.589107
O O6 0.993181 0.747345 0.642604
O O7 0.167276 0.475106 0.769905
O O8 0.000000 0.500000 0.848163
O O9 0.359651 0.475100 0.848767
O O10 0.317947 0.608008 0.754173
O O11 0.357640 0.142361 0.691079
#
# Coordination Sequence:
#
# PCOD8314350 Si02
#       5
#     8  16   8  16  16
#     4  12  26  45  68  96 131 164 211 272 326 391
#     4   9  19  36  58  89 127 167 211 261 322 381
#     4  10  24  45  65  94 125 168 224 261 325 400
#     4  11  23  41  66  95 125 166 216 262 321 379
#     4  11  21  38  66  90 127 170 217 270 311 390
#
# _framework density 20.292708999999999
#
# number of rings (size 3 to 8) (size 9 to 14) (size 15 to 20)
#    0.000    1.500    3.750    2.250    0.000    3.750 
#    0.000    1.875    0.000    2.250    0.000    0.000 
#    0.000    0.000    0.000    0.000    0.000    0.000 
#
# Total GULP energy -793264.688919 kJ/mol
# GULP energy per Si atom -12394.760764 kJ/mol
# Density = 2.024652 g / cm^3
# Si number density = 20.292709 Si / 1000 Ang^3
#
#
#
# Elastic Constant Matrix: (Units=GPa)
#
#
# Indices 1 2 3 4 5 6 
#
# 1 83.9640 21.3812 33.4792 0.0000 0.0000 0.0000
# 2 21.3812 83.9640 33.4792 0.0000 0.0000 0.0000
# 3 33.4792 33.4792 129.0226 0.0000 0.0000 0.0000
# 4 0.0000 0.0000 0.0000 21.2641 0.0000 0.0000
# 5 0.0000 0.0000 0.0000 0.0000 21.2641 0.0000
# 6 0.0000 0.0000 0.0000 0.0000 0.0000 6.8207
#
#
#
# Elastic Compliance Matrix: (Units=1/GPa)
#
#
# Indices 1 2 3 4 5 6 
#
# 1 0.013673 -0.002306 -0.002950 0.000000 0.000000 0.000000
# 2 -0.002306 0.013673 -0.002950 0.000000 0.000000 0.000000
# 3 -0.002950 -0.002950 0.009281 0.000000 0.000000 0.000000
# 4 0.000000 0.000000 0.000000 0.047028 0.000000 0.000000
# 5 0.000000 0.000000 0.000000 0.000000 0.047028 0.000000
# 6 0.000000 0.000000 0.000000 0.000000 0.000000 0.146613
#
#
# Mechanical properties :
#
#
# Convention : Reuss Voigt Hill
#
# Bulk Modulus (GPa) = 49.46191 52.62553 51.04372
# Shear Modulus (GPa) = 16.64199 23.77720 20.20960
#
# Velocity S-wave (km/s) = 2.86684 3.42674 3.15922
# Velocity P-wave (km/s) = 5.94857 6.45339 6.20612
#
# Compressibility (1/GPa) = 0.02021758
#
# Stress axis : x y z
#
# Youngs Moduli (GPa) = 73.13617 73.13617 107.74296
#
# Poissons Ratio (x) = 0.16863 0.31780
# Poissons Ratio (y) = 0.16863 0.31780
# Poissons Ratio (z) = 0.21573 0.21573
#
# Static dielectric constant tensor:
#      x y z
#    x 3.802200 0.000000 0.000000 
#    y 0.000000 3.802200 0.000000 
#    z 0.000000 0.000000 3.533450 
# 
# 
# High freq. dielectric constant tensor:
#      x y z
#    x 1.794820 0.000000 0.000000 
#    y 0.000000 1.794820 0.000000 
#    z 0.000000 0.000000 1.777980 
# 
# From -- ./inp_files/4895.got.cif
#   From: 2010.03.12/outbox.cif.g09.slc.cpg/sg127_3_cif.got.tgz:4895.got - 2010.04.06 17:03:15.
