data_PCOD8314234
_publ_section_title
;
Structure prediction by ZEFSAII (Michael W. Deem and Ramdas Pophale) SiO2 
 PCOD8314234
Probable space group: P 4/M B M
;
_chemical_formula_sum "Si O2"
_cell_formula_units_Z 40
_cell_length_a 13.561349
_cell_length_b 13.561349
_cell_length_c 10.804318
_cell_angle_alpha 90.000000
_cell_angle_beta 90.000000
_cell_angle_gamma 90.000000
_cell_volume 1987.024141
_symmetry_space_group_name_H-M "P 4/M B M"
_symmetry_group_IT_number 127
_symmetry_cell_setting 'tetragonal'
loop_
_space_group_symop_operation_xyz
x,y,z
-y,x,z
-x,-y,z
y,-x,z
1/2+x,1/2-y,-z
1/2-x,1/2+y,-z
1/2+y,1/2+x,-z
1/2-y,1/2-x,-z
-x,-y,-z
y,-x,-z
x,y,-z
-y,x,-z
1/2-x,1/2+y,z
1/2+x,1/2-y,z
1/2-y,1/2-x,z
1/2+y,1/2+x,z
loop_
_atom_site_type_symbol
_atom_site_label
_atom_site_fract_x
_atom_site_fract_y
_atom_site_fract_z
Si Si1 0.261484 0.076325 0.248438
Si Si2 0.621795 0.278257 0.361953
Si Si3 0.497336 0.838723 0.000000
O O1 0.359720 0.140281 0.277149
O O2 0.165105 0.146228 0.258677
O O3 0.244309 0.993219 0.350318
O O4 0.269568 0.019648 0.117619
O O5 0.641817 0.320729 0.500000
O O6 0.673762 0.173762 0.343440
O O7 0.570907 0.929094 0.000000
O O8 0.385508 0.885508 0.000000
#
# Coordination Sequence:
#
# PCOD8314234 Si02
#       3
#    16  16   8
#     4  10  21  37  56  82 116 149 191 245 289 342
#     4  10  21  36  56  82 112 152 196 237 294 354
#     4   9  18  34  58  85 111 145 186 229 287 345
#
# _framework density 20.130606
#
# number of rings (size 3 to 8) (size 9 to 14) (size 15 to 20)
#    0.000    2.200    0.000    2.400    0.000    7.200 
#    0.000    8.000    0.000    2.400    0.000    0.000 
#    0.000    0.000    0.000    0.000    0.000    0.000 
#
# Total GULP energy -495686.200502 kJ/mol
# GULP energy per Si atom -12392.155013 kJ/mol
# Density = 2.008479 g / cm^3
# Si number density = 20.130606 Si / 1000 Ang^3
#
#
#
# Elastic Constant Matrix: (Units=GPa)
#
#
# Indices 1 2 3 4 5 6 
#
# 1 111.2529 49.0252 42.4873 0.0000 0.0000 0.0000
# 2 49.0252 111.2529 42.4874 0.0000 0.0000 0.0000
# 3 42.4873 42.4874 78.2420 0.0000 0.0000 0.0000
# 4 0.0000 0.0000 0.0000 32.1383 0.0000 0.0000
# 5 0.0000 0.0000 0.0000 0.0000 32.1387 0.0000
# 6 0.0000 0.0000 0.0000 0.0000 0.0000 28.2974
#
#
#
# Elastic Compliance Matrix: (Units=1/GPa)
#
#
# Indices 1 2 3 4 5 6 
#
# 1 0.012416 -0.003654 -0.004758 0.000000 0.000000 0.000000
# 2 -0.003654 0.012416 -0.004758 0.000000 0.000000 0.000000
# 3 -0.004758 -0.004758 0.017948 0.000000 0.000000 0.000000
# 4 0.000000 0.000000 0.000000 0.031115 0.000000 0.000000
# 5 0.000000 0.000000 0.000000 0.000000 0.031115 0.000000
# 6 0.000000 0.000000 0.000000 0.000000 0.000000 0.035339
#
#
# Mechanical properties :
#
#
# Convention : Reuss Voigt Hill
#
# Bulk Modulus (GPa) = 60.82667 63.19417 62.01042
# Shear Modulus (GPa) = 29.04129 29.63142 29.33636
#
# Velocity S-wave (km/s) = 3.80234 3.84077 3.82160
# Velocity P-wave (km/s) = 7.03979 7.15045 7.09534
#
# Compressibility (1/GPa) = 0.01644016
#
# Stress axis : x y z
#
# Youngs Moduli (GPa) = 80.54263 80.54256 55.71644
#
# Poissons Ratio (x) = 0.29432 0.26508
# Poissons Ratio (y) = 0.29432 0.26509
# Poissons Ratio (z) = 0.38320 0.38320
#
# Static dielectric constant tensor:
#      x y z
#    x 3.523300 0.000000 0.000000 
#    y 0.000000 3.523300 0.000000 
#    z 0.000000 0.000000 3.686320 
# 
# 
# High freq. dielectric constant tensor:
#      x y z
#    x 1.778310 0.000000 0.000000 
#    y 0.000000 1.778310 0.000000 
#    z 0.000000 0.000000 1.781880 
# 
# From -- ./inp_files/614.got.cif
#   From: 2010.03.12/outbox.cif.g09.slc.cpg/sg127_1_cif.got.tgz:614.got - 2010.04.06 17:03:15.
