data_PCOD8314004
_publ_section_title
;
Structure prediction by ZEFSAII (Michael W. Deem and Ramdas Pophale) SiO2 
 PCOD8314004
Probable space group: P 4/M B M
;
_chemical_formula_sum "Si O2"
_cell_formula_units_Z 96
_cell_length_a 20.766177
_cell_length_b 20.766177
_cell_length_c 10.923112
_cell_angle_alpha 90.000000
_cell_angle_beta 90.000000
_cell_angle_gamma 90.000000
_cell_volume 4710.418451
_symmetry_space_group_name_H-M "P 4/M B M"
_symmetry_group_IT_number 127
_symmetry_cell_setting 'tetragonal'
loop_
_space_group_symop_operation_xyz
x,y,z
-y,x,z
-x,-y,z
y,-x,z
1/2+x,1/2-y,-z
1/2-x,1/2+y,-z
1/2+y,1/2+x,-z
1/2-y,1/2-x,-z
-x,-y,-z
y,-x,-z
x,y,-z
-y,x,-z
1/2-x,1/2+y,z
1/2+x,1/2-y,z
1/2-y,1/2-x,z
1/2+y,1/2+x,z
loop_
_atom_site_type_symbol
_atom_site_label
_atom_site_fract_x
_atom_site_fract_y
_atom_site_fract_z
Si Si1 0.610968 0.110968 0.149476
Si Si2 0.465169 0.140648 0.787900
Si Si3 0.616380 0.777019 0.637746
Si Si4 0.685992 0.185992 0.360912
Si Si5 0.912669 0.054558 0.356000
Si Si6 0.842937 0.820769 0.261297
Si Si7 0.400070 0.206742 0.000000
Si Si8 0.192452 0.199522 0.000000
O O1 0.538676 0.125309 0.189483
O O2 0.653269 0.153269 0.241898
O O3 0.622071 0.122071 0.000000
O O4 0.426358 0.073643 0.799550
O O5 0.448010 0.179640 0.663337
O O6 0.443505 0.194190 0.883570
O O7 0.610826 0.751669 0.500000
O O8 0.677706 0.822295 0.660412
O O9 0.627011 0.714891 0.724206
O O10 0.663988 0.163988 0.500000
O O11 0.761966 0.171693 0.352828
O O12 0.903833 0.061128 0.500000
O O13 0.853201 0.088987 0.290507
O O14 0.979954 0.087490 0.316303
O O15 0.849625 0.794001 0.122785
O O16 0.372605 0.278593 0.000000
O O17 0.339164 0.160837 0.000000
O O18 0.245094 0.254907 0.000000
#
# Coordination Sequence:
#
# PCOD8314004 Si02
#       8
#     8  16  16   8  16  16   8   8
#     4  12  27  42  60  88 132 176 209 253 314 381
#     4  10  20  37  61  90 120 164 217 263 304 359
#     4  10  19  33  58  93 124 156 209 269 314 362
#     4  12  28  45  63  91 128 167 209 258 317 382
#     4   9  20  41  67  94 124 160 206 258 313 377
#     4  12  22  39  68  94 123 164 207 257 318 383
#     4   9  16  31  56  88 121 149 204 265 307 344
#     4  11  20  36  61  96 128 163 202 262 323 368
#
# _framework density 20.380355000000002
#
# number of rings (size 3 to 8) (size 9 to 14) (size 15 to 20)
#    0.000    1.500    4.167    2.250    1.167    2.333 
#    0.000    0.833    0.000    3.500    0.000    0.000 
#    0.000    0.000    0.000    0.000    0.000    0.000 
#
# Total GULP energy -1189626.446162 kJ/mol
# GULP energy per Si atom -12391.942148 kJ/mol
# Density = 2.033397 g / cm^3
# Si number density = 20.380355 Si / 1000 Ang^3
#
#
#
# Elastic Constant Matrix: (Units=GPa)
#
#
# Indices 1 2 3 4 5 6 
#
# 1 65.6126 42.2180 28.9502 0.0000 0.0000 0.0000
# 2 42.2180 65.6124 28.9502 0.0000 0.0000 0.0000
# 3 28.9502 28.9502 113.9881 0.0000 0.0000 0.0000
# 4 0.0000 0.0000 0.0000 30.8843 0.0000 0.0000
# 5 0.0000 0.0000 0.0000 0.0000 30.8844 0.0000
# 6 0.0000 0.0000 0.0000 0.0000 0.0000 31.6859
#
#
#
# Elastic Compliance Matrix: (Units=1/GPa)
#
#
# Indices 1 2 3 4 5 6 
#
# 1 0.026742 -0.016003 -0.002727 0.000000 0.000000 0.000000
# 2 -0.016003 0.026742 -0.002727 0.000000 0.000000 0.000000
# 3 -0.002727 -0.002727 0.010158 0.000000 0.000000 0.000000
# 4 0.000000 0.000000 0.000000 0.032379 0.000000 0.000000
# 5 0.000000 0.000000 0.000000 0.000000 0.032379 0.000000
# 6 0.000000 0.000000 0.000000 0.000000 0.000000 0.031560
#
#
# Mechanical properties :
#
#
# Convention : Reuss Voigt Hill
#
# Bulk Modulus (GPa) = 48.24947 49.49445 48.87196
# Shear Modulus (GPa) = 23.83413 28.36392 26.09903
#
# Velocity S-wave (km/s) = 3.42346 3.73463 3.58243
# Velocity P-wave (km/s) = 6.27317 6.55246 6.41433
#
# Compressibility (1/GPa) = 0.02072562
#
# Stress axis : x y z
#
# Youngs Moduli (GPa) = 37.39495 37.39482 98.44309
#
# Poissons Ratio (x) = 0.59844 0.26848
# Poissons Ratio (y) = 0.59845 0.26848
# Poissons Ratio (z) = 0.10199 0.10199
#
# Static dielectric constant tensor:
#      x y z
#    x 3.650100 0.000000 0.000000 
#    y 0.000000 3.650100 0.000000 
#    z 0.000000 0.000000 3.888050 
# 
# 
# High freq. dielectric constant tensor:
#      x y z
#    x 1.782660 0.000000 0.000000 
#    y 0.000000 1.782660 0.000000 
#    z 0.000000 0.000000 1.797960 
# 
# From -- ./inp_files/3638.got.cif
#   From: 2010.03.12/outbox.cif.g09.slc.cpg/sg127_2_cif.got.tgz:3638.got - 2010.04.06 17:03:15.
