data_PCOD8314863
_publ_section_title
;
Structure prediction by ZEFSAII (Michael W. Deem and Ramdas Pophale) SiO2 
 PCOD8314863
Probable space group: P 4/N M M
;
_chemical_formula_sum "Si O2"
_cell_formula_units_Z 112
_cell_length_a 19.426370
_cell_length_b 19.426370
_cell_length_c 19.183264
_cell_angle_alpha 90.000000
_cell_angle_beta 90.000000
_cell_angle_gamma 90.000000
_cell_volume 7239.454050
_symmetry_space_group_name_H-M "P 4/N M M"
_symmetry_group_IT_number 129
_symmetry_cell_setting 'tetragonal'
loop_
_space_group_symop_operation_xyz
x,y,z
1/2-y,x,z
1/2-x,1/2-y,z
y,1/2-x,z
1/2+x,-y,-z
-x,1/2+y,-z
1/2+y,1/2+x,-z
-y,-x,-z
-x,-y,-z
1/2+y,-x,-z
1/2+x,1/2+y,-z
-y,1/2+x,-z
1/2-x,y,z
x,1/2-y,z
1/2-y,1/2-x,z
y,x,z
loop_
_atom_site_type_symbol
_atom_site_label
_atom_site_fract_x
_atom_site_fract_y
_atom_site_fract_z
Si Si1 0.024020 0.673184 0.773013
Si Si2 0.499785 0.384816 0.932203
Si Si3 0.939137 0.672961 0.640222
Si Si4 0.037539 0.575763 0.571503
Si Si5 0.576447 0.036260 0.283452
Si Si6 0.559066 0.672125 0.199883
Si Si7 0.993789 0.391026 0.085797
O O1 0.057462 0.750000 0.764588
O O2 0.075929 0.610900 0.753916
O O3 0.000124 0.665088 0.853085
O O4 0.958263 0.667796 0.721957
O O5 0.446794 0.446794 0.929790
O O6 0.477705 0.327971 0.875833
O O7 0.572714 0.418724 0.911281
O O8 0.500377 0.353237 0.010334
O O9 0.921016 0.750000 0.617372
O O10 0.872530 0.627471 0.625046
O O11 0.005399 0.648744 0.594960
O O12 0.081911 0.581911 0.500000
O O13 0.085331 0.545931 0.633472
O O14 0.973677 0.526324 0.557512
O O15 0.504914 0.995087 0.266597
O O16 0.641051 0.992970 0.256807
O O17 0.576139 0.750000 0.220920
O O18 0.630259 0.630259 0.198875
O O19 0.054111 0.445889 0.095995
#
# Coordination Sequence:
#
# PCOD8314863 Si02
#       7
#    16  16  16  16  16  16  16
#     4  10  17  24  40  65  90 114 145 185 223 257
#     4   8  15  25  41  62  82 110 148 188 228 267
#     4   9  17  27  40  62  91 123 152 178 213 258
#     4   8  14  26  45  66  85 107 139 181 222 255
#     4   9  16  29  47  64  86 115 146 180 220 269
#     4  10  19  31  47  66  88 116 151 189 229 271
#     4   9  14  24  41  61  85 112 146 189 230 267
#
# _framework density 15.470779
#
# number of rings (size 3 to 8) (size 9 to 14) (size 15 to 20)
#    0.000    3.000    1.429    3.000    0.000    0.857 
#    0.000    0.714    0.000    0.429    0.000    0.000 
#    0.000   12.857    0.000    0.143    0.000    0.000 
#
# Total GULP energy -1387759.408263 kJ/mol
# GULP energy per Si atom -12390.709002 kJ/mol
# Density = 1.543557 g / cm^3
# Si number density = 15.470779 Si / 1000 Ang^3
#
#
#
# Elastic Constant Matrix: (Units=GPa)
#
#
# Indices 1 2 3 4 5 6 
#
# 1 77.2997 36.2008 40.5497 0.0000 0.0000 0.0000
# 2 36.2008 77.2997 40.5497 0.0000 0.0000 0.0000
# 3 40.5497 40.5497 117.3997 0.0000 0.0000 0.0000
# 4 0.0000 0.0000 0.0000 13.0013 0.0000 0.0000
# 5 0.0000 0.0000 0.0000 0.0000 13.0013 0.0000
# 6 0.0000 0.0000 0.0000 0.0000 0.0000 11.0219
#
#
#
# Elastic Compliance Matrix: (Units=1/GPa)
#
#
# Indices 1 2 3 4 5 6 
#
# 1 0.018014 -0.006317 -0.004040 0.000000 0.000000 0.000000
# 2 -0.006317 0.018014 -0.004040 0.000000 0.000000 0.000000
# 3 -0.004040 -0.004040 0.011309 0.000000 0.000000 0.000000
# 4 0.000000 0.000000 0.000000 0.076916 0.000000 0.000000
# 5 0.000000 0.000000 0.000000 0.000000 0.076916 0.000000
# 6 0.000000 0.000000 0.000000 0.000000 0.000000 0.090728
#
#
# Mechanical properties :
#
#
# Convention : Reuss Voigt Hill
#
# Bulk Modulus (GPa) = 53.92966 56.28884 55.10925
# Shear Modulus (GPa) = 15.29644 17.71816 16.50730
#
# Velocity S-wave (km/s) = 3.14782 3.38785 3.27004
# Velocity P-wave (km/s) = 6.93876 7.19488 7.06798
#
# Compressibility (1/GPa) = 0.01854267
#
# Stress axis : x y z
#
# Youngs Moduli (GPa) = 55.51091 55.51091 88.42577
#
# Poissons Ratio (x) = 0.35067 0.35726
# Poissons Ratio (y) = 0.35067 0.35726
# Poissons Ratio (z) = 0.22428 0.22428
#
# Static dielectric constant tensor:
#      x y z
#    x 2.716300 0.000000 0.000000 
#    y 0.000000 2.716300 0.000000 
#    z 0.000000 0.000000 3.339700 
# 
# 
# High freq. dielectric constant tensor:
#      x y z
#    x 1.558850 0.000000 0.000000 
#    y 0.000000 1.558850 0.000000 
#    z 0.000000 0.000000 1.604710 
# 
# From -- ./inp_files/6717.got.cif
#   From: 2010.03.12/outbox.cif.g09.slc.cpg/sg129_4_cif.got.tgz:6717.got - 2010.04.06 17:19:44.
