data_PCOD8314333
_publ_section_title
;
Structure prediction by ZEFSAII (Michael W. Deem and Ramdas Pophale) SiO2 
 PCOD8314333
Probable space group: P 4/M B M
;
_chemical_formula_sum "Si O2"
_cell_formula_units_Z 120
_cell_length_a 19.251672
_cell_length_b 19.251672
_cell_length_c 15.232695
_cell_angle_alpha 90.000000
_cell_angle_beta 90.000000
_cell_angle_gamma 90.000000
_cell_volume 5645.646143
_symmetry_space_group_name_H-M "P 4/M B M"
_symmetry_group_IT_number 127
_symmetry_cell_setting 'tetragonal'
loop_
_space_group_symop_operation_xyz
x,y,z
-y,x,z
-x,-y,z
y,-x,z
1/2+x,1/2-y,-z
1/2-x,1/2+y,-z
1/2+y,1/2+x,-z
1/2-y,1/2-x,-z
-x,-y,-z
y,-x,-z
x,y,-z
-y,x,-z
1/2-x,1/2+y,z
1/2+x,1/2-y,z
1/2-y,1/2-x,z
1/2+y,1/2+x,z
loop_
_atom_site_type_symbol
_atom_site_label
_atom_site_fract_x
_atom_site_fract_y
_atom_site_fract_z
Si Si1 0.661753 0.050862 0.326917
Si Si2 0.110048 0.004365 0.654973
Si Si3 0.808078 0.419085 0.234940
Si Si4 0.561217 0.690605 0.098833
Si Si5 0.853077 0.070534 0.827460
Si Si6 0.725893 0.662277 0.305681
Si Si7 0.113947 0.502791 0.500000
Si Si8 0.722300 0.399031 0.400031
O O1 0.587854 0.087854 0.310626
O O2 0.720652 0.107121 0.345117
O O3 0.660981 0.001828 0.413190
O O4 0.675398 0.001426 0.242932
O O5 0.184517 0.025238 0.614223
O O6 0.064763 0.071195 0.623630
O O7 0.118939 0.988935 0.758797
O O8 0.876696 0.376696 0.207007
O O9 0.748234 0.406215 0.163443
O O10 0.783501 0.391499 0.329814
O O11 0.587753 0.612920 0.121858
O O12 0.476873 0.690040 0.104512
O O13 0.583013 0.710275 0.000000
O O14 0.805345 0.129111 0.782439
O O15 0.765467 0.734534 0.283222
O O16 0.665940 0.671497 0.378645
O O17 0.060790 0.439211 0.500000
O O18 0.076360 0.576360 0.500000
O O19 0.749764 0.393678 0.500000
#
# Coordination Sequence:
#
# PCOD8314333 Si02
#       8
#    16  16  16  16  16  16   8  16
#     4  10  22  40  65  93 121 165 219 271 326 379
#     4  11  20  38  65  90 127 171 210 260 319 380
#     4  12  25  44  67  93 132 175 213 267 331 390
#     4  12  26  43  69 102 132 166 212 266 327 394
#     4  12  20  44  68  95 131 170 208 267 328 389
#     4  11  22  40  65  90 125 173 221 265 316 382
#     4   9  18  34  56  88 124 154 203 272 323 363
#     4  12  26  41  62  93 132 179 226 267 317 386
#
# _framework density 21.255317000000002
#
# number of rings (size 3 to 8) (size 9 to 14) (size 15 to 20)
#    0.000    0.733    6.667    1.200    1.867    2.933 
#    0.000    1.333    0.000    2.400    0.000    0.933 
#    0.000    0.000    0.000    0.000    0.000    0.000 
#
# Total GULP energy -1487032.079730 kJ/mol
# GULP energy per Si atom -12391.933998 kJ/mol
# Density = 2.120694 g / cm^3
# Si number density = 21.255317 Si / 1000 Ang^3
#
#
#
# Elastic Constant Matrix: (Units=GPa)
#
#
# Indices 1 2 3 4 5 6 
#
# 1 75.2384 24.6070 34.1078 0.0000 0.0000 0.0000
# 2 24.6070 75.2389 34.1078 0.0000 0.0000 0.0000
# 3 34.1078 34.1078 114.9225 0.0000 0.0000 0.0000
# 4 0.0000 0.0000 0.0000 15.4151 0.0000 0.0000
# 5 0.0000 0.0000 0.0000 0.0000 15.4152 0.0000
# 6 0.0000 0.0000 0.0000 0.0000 0.0000 40.1557
#
#
#
# Elastic Compliance Matrix: (Units=1/GPa)
#
#
# Indices 1 2 3 4 5 6 
#
# 1 0.016157 -0.003594 -0.003729 0.000000 0.000000 0.000000
# 2 -0.003594 0.016157 -0.003728 0.000000 0.000000 0.000000
# 3 -0.003729 -0.003728 0.010915 0.000000 0.000000 0.000000
# 4 0.000000 0.000000 0.000000 0.064872 0.000000 0.000000
# 5 0.000000 0.000000 0.000000 0.000000 0.064871 0.000000
# 6 0.000000 0.000000 0.000000 0.000000 0.000000 0.024903
#
#
# Mechanical properties :
#
#
# Convention : Reuss Voigt Hill
#
# Bulk Modulus (GPa) = 47.33443 50.11611 48.72527
# Shear Modulus (GPa) = 22.02472 25.70233 23.86353
#
# Velocity S-wave (km/s) = 3.22250 3.48116 3.35432
# Velocity P-wave (km/s) = 6.01363 6.30771 6.16243
#
# Compressibility (1/GPa) = 0.02112627
#
# Stress axis : x y z
#
# Youngs Moduli (GPa) = 61.89381 61.89424 91.61969
#
# Poissons Ratio (x) = 0.22244 0.34161
# Poissons Ratio (y) = 0.22244 0.34160
# Poissons Ratio (z) = 0.23077 0.23077
#
# Static dielectric constant tensor:
#      x y z
#    x 4.039000 0.000000 0.000000 
#    y 0.000000 4.039000 0.000000 
#    z 0.000000 0.000000 3.521560 
# 
# 
# High freq. dielectric constant tensor:
#      x y z
#    x 1.843040 0.000000 0.000000 
#    y 0.000000 1.843040 0.000000 
#    z 0.000000 0.000000 1.790440 
# 
# From -- ./inp_files/4671.got.cif
#   From: 2010.03.12/outbox.cif.g09.slc.cpg/sg127_3_cif.got.tgz:4671.got - 2010.04.06 17:03:15.
