data_PCOD8314769
_publ_section_title
;
Structure prediction by ZEFSAII (Michael W. Deem and Ramdas Pophale) SiO2 
 PCOD8314769
Probable space group: P 4/M N C
;
_chemical_formula_sum "Si O2"
_cell_formula_units_Z 48
_cell_length_a 7.940467
_cell_length_b 7.940467
_cell_length_c 33.519436
_cell_angle_alpha 90.000000
_cell_angle_beta 90.000000
_cell_angle_gamma 90.000000
_cell_volume 2113.434502
_symmetry_space_group_name_H-M "P 4/M N C"
_symmetry_group_IT_number 128
_symmetry_cell_setting 'tetragonal'
loop_
_space_group_symop_operation_xyz
x,y,z
-y,x,z
-x,-y,z
y,-x,z
1/2+x,1/2-y,1/2-z
1/2-x,1/2+y,1/2-z
1/2+y,1/2+x,1/2-z
1/2-y,1/2-x,1/2-z
-x,-y,-z
y,-x,-z
x,y,-z
-y,x,-z
1/2-x,1/2+y,1/2+z
1/2+x,1/2-y,1/2+z
1/2-y,1/2-x,1/2+z
1/2+y,1/2+x,1/2+z
loop_
_atom_site_type_symbol
_atom_site_label
_atom_site_fract_x
_atom_site_fract_y
_atom_site_fract_z
Si Si1 0.739477 0.901427 0.289589
Si Si2 0.236765 0.590640 0.632150
Si Si3 0.083387 0.266685 0.000000
Si Si4 0.500000 0.000000 0.067316
O O1 0.633488 0.866513 0.250000
O O2 0.619598 0.859591 0.326595
O O3 0.903749 0.785803 0.290854
O O4 0.288512 0.395883 0.629068
O O5 0.110104 0.625010 0.595372
O O6 0.113822 0.378449 0.960524
O O7 0.888616 0.208917 0.000000
#
# Coordination Sequence:
#
# PCOD8314769 Si02
#       4
#    16  16   8   8
#     4  11  24  41  62  92 130 173 221 273 328 385
#     4  11  23  40  64  93 126 169 219 269 325 387
#     4  10  22  42  68  96 126 164 208 253 312 389
#     4  11  22  38  65  96 126 160 205 262 318 373
#
# _framework density 22.711846999999999
#
# number of rings (size 3 to 8) (size 9 to 14) (size 15 to 20)
#    0.000    1.167    0.000    6.000    0.000    8.667 
#    0.000    0.000    0.000   34.000    0.000    0.000 
#    0.000    0.000    0.000    0.000    0.000    0.000 
#
# Total GULP energy -595374.290586 kJ/mol
# GULP energy per Si atom -12403.631054 kJ/mol
# Density = 2.266015 g / cm^3
# Si number density = 22.711847 Si / 1000 Ang^3
#
#
#
# Elastic Constant Matrix: (Units=GPa)
#
#
# Indices 1 2 3 4 5 6 
#
# 1 104.0952 28.7053 57.2222 0.0000 0.0000 0.0000
# 2 28.7053 104.0937 57.2218 0.0000 0.0000 0.0000
# 3 57.2222 57.2218 212.6643 0.0000 0.0000 0.0000
# 4 0.0000 0.0000 0.0000 36.9673 0.0000 0.0000
# 5 0.0000 0.0000 0.0000 0.0000 36.9668 0.0000
# 6 0.0000 0.0000 0.0000 0.0000 0.0000 31.9880
#
#
#
# Elastic Compliance Matrix: (Units=1/GPa)
#
#
# Indices 1 2 3 4 5 6 
#
# 1 0.011534 -0.001731 -0.002638 0.000000 0.000000 0.000000
# 2 -0.001731 0.011534 -0.002638 0.000000 0.000000 0.000000
# 3 -0.002638 -0.002638 0.006122 0.000000 0.000000 0.000000
# 4 0.000000 0.000000 0.000000 0.027051 0.000000 0.000000
# 5 0.000000 0.000000 0.000000 0.000000 0.027051 0.000000
# 6 0.000000 0.000000 0.000000 0.000000 0.000000 0.031262
#
#
# Mechanical properties :
#
#
# Convention : Reuss Voigt Hill
#
# Bulk Modulus (GPa) = 65.88818 78.57241 72.23030
# Shear Modulus (GPa) = 37.41814 39.69801 38.55808
#
# Velocity S-wave (km/s) = 4.06336 4.18532 4.12479
# Velocity P-wave (km/s) = 7.14759 7.61750 7.38628
#
# Compressibility (1/GPa) = 0.01517723
#
# Stress axis : x y z
#
# Youngs Moduli (GPa) = 86.70134 86.70013 163.35155
#
# Poissons Ratio (x) = 0.15004 0.43089
# Poissons Ratio (y) = 0.15004 0.43089
# Poissons Ratio (z) = 0.22870 0.22870
#
# Static dielectric constant tensor:
#      x y z
#    x 4.097880 0.000000 0.000000 
#    y 0.000000 4.097880 0.000000 
#    z 0.000000 0.000000 4.322580 
# 
# 
# High freq. dielectric constant tensor:
#      x y z
#    x 1.894790 0.000000 0.000000 
#    y 0.000000 1.894790 0.000000 
#    z 0.000000 0.000000 1.916940 
# 
# From -- ./inp_files/7029.got.cif
#   From: 2010.03.12/outbox.cif.g09.slc.cpg/sg128_4_cif.got.tgz:7029.got - 2010.04.06 17:11:05.
