data_PCOD8314397
_publ_section_title
;
Structure prediction by ZEFSAII (Michael W. Deem and Ramdas Pophale) SiO2 
 PCOD8314397
Probable space group: P 4/M B M
;
_chemical_formula_sum "Si O2"
_cell_formula_units_Z 72
_cell_length_a 21.333183
_cell_length_b 21.333183
_cell_length_c 8.571708
_cell_angle_alpha 90.000000
_cell_angle_beta 90.000000
_cell_angle_gamma 90.000000
_cell_volume 3901.024571
_symmetry_space_group_name_H-M "P 4/M B M"
_symmetry_group_IT_number 127
_symmetry_cell_setting 'tetragonal'
loop_
_space_group_symop_operation_xyz
x,y,z
-y,x,z
-x,-y,z
y,-x,z
1/2+x,1/2-y,-z
1/2-x,1/2+y,-z
1/2+y,1/2+x,-z
1/2-y,1/2-x,-z
-x,-y,-z
y,-x,-z
x,y,-z
-y,x,-z
1/2-x,1/2+y,z
1/2+x,1/2-y,z
1/2-y,1/2-x,z
1/2+y,1/2+x,z
loop_
_atom_site_type_symbol
_atom_site_label
_atom_site_fract_x
_atom_site_fract_y
_atom_site_fract_z
Si Si1 0.115503 0.284906 0.678530
Si Si2 0.949075 0.449075 0.315692
Si Si3 0.853083 0.097073 0.319799
Si Si4 0.987585 0.315972 0.181369
Si Si5 0.961698 0.184054 0.313364
O O1 0.092325 0.294427 0.500000
O O2 0.178786 0.321215 0.715482
O O3 0.132201 0.212557 0.708568
O O4 0.061749 0.309958 0.791500
O O5 0.951117 0.451117 0.500000
O O6 0.964446 0.379230 0.261269
O O7 0.000000 0.500000 0.249921
O O8 0.870355 0.091101 0.500000
O O9 0.907423 0.139291 0.242330
O O10 0.846575 0.026742 0.251370
O O11 0.952788 0.254670 0.250560
O O12 0.972636 0.320333 0.000000
O O13 0.960871 0.188282 0.500000
#
# Coordination Sequence:
#
# PCOD8314397 Si02
#       5
#    16   8  16  16  16
#     4   9  17  32  53  76 103 135 175 216 255 303
#     4  11  23  39  59  81 103 135 177 215 259 314
#     4   8  15  28  50  77 104 136 174 220 264 307
#     4  11  22  35  52  76 108 139 170 213 264 312
#     4   9  17  33  53  76 106 139 179 220 266 312
#
# _framework density 18.456690999999999
#
# number of rings (size 3 to 8) (size 9 to 14) (size 15 to 20)
#    0.000    2.556    0.000    4.333    0.000    4.444 
#    2.000    6.667    0.000    0.000    0.000    6.222 
#    0.000    0.000    0.000    0.000    0.000    0.000 
#
# Total GULP energy -892443.717408 kJ/mol
# GULP energy per Si atom -12395.051631 kJ/mol
# Density = 1.841468 g / cm^3
# Si number density = 18.456691 Si / 1000 Ang^3
#
#
#
# Elastic Constant Matrix: (Units=GPa)
#
#
# Indices 1 2 3 4 5 6 
#
# 1 130.1769 94.6794 25.5859 0.0000 0.0000 0.0000
# 2 94.6794 130.1769 25.5859 0.0000 0.0000 0.0000
# 3 25.5859 25.5859 51.6468 0.0000 0.0000 0.0000
# 4 0.0000 0.0000 0.0000 7.0398 0.0000 0.0000
# 5 0.0000 0.0000 0.0000 0.0000 7.0398 0.0000
# 6 0.0000 0.0000 0.0000 0.0000 0.0000 38.8381
#
#
#
# Elastic Compliance Matrix: (Units=1/GPa)
#
#
# Indices 1 2 3 4 5 6 
#
# 1 0.016592 -0.011579 -0.002483 0.000000 0.000000 0.000000
# 2 -0.011579 0.016592 -0.002483 0.000000 0.000000 0.000000
# 3 -0.002483 -0.002483 0.021823 0.000000 0.000000 0.000000
# 4 0.000000 0.000000 0.000000 0.142049 0.000000 0.000000
# 5 0.000000 0.000000 0.000000 0.000000 0.142049 0.000000
# 6 0.000000 0.000000 0.000000 0.000000 0.000000 0.025748
#
#
# Mechanical properties :
#
#
# Convention : Reuss Voigt Hill
#
# Bulk Modulus (GPa) = 45.63129 67.07812 56.35470
# Shear Modulus (GPa) = 12.33814 21.66019 16.99916
#
# Velocity S-wave (km/s) = 2.58833 3.42945 3.03814
# Velocity P-wave (km/s) = 5.80600 7.21831 6.55033
#
# Compressibility (1/GPa) = 0.02191479
#
# Stress axis : x y z
#
# Youngs Moduli (GPa) = 60.27121 60.27121 45.82408
#
# Poissons Ratio (x) = 0.69790 0.11379
# Poissons Ratio (y) = 0.69790 0.11379
# Poissons Ratio (z) = 0.14966 0.14966
#
# Static dielectric constant tensor:
#      x y z
#    x 3.618970 0.000000 0.000000 
#    y 0.000000 3.618970 0.000000 
#    z 0.000000 0.000000 3.102700 
# 
# 
# High freq. dielectric constant tensor:
#      x y z
#    x 1.718900 0.000000 0.000000 
#    y 0.000000 1.718900 0.000000 
#    z 0.000000 0.000000 1.685220 
# 
# From -- ./inp_files/1526.got.cif
#   From: 2010.03.12/outbox.cif.g09.slc.cpg/sg127_1_cif.got.tgz:1526.got - 2010.04.06 17:03:15.
