data_PCOD8314214
_publ_section_title
;
Structure prediction by ZEFSAII (Michael W. Deem and Ramdas Pophale) SiO2 
 PCOD8314214
Probable space group: P 4/M B M
;
_chemical_formula_sum "Si O2"
_cell_formula_units_Z 72
_cell_length_a 20.252296
_cell_length_b 20.252296
_cell_length_c 9.057874
_cell_angle_alpha 90.000000
_cell_angle_beta 90.000000
_cell_angle_gamma 90.000000
_cell_volume 3715.136778
_symmetry_space_group_name_H-M "P 4/M B M"
_symmetry_group_IT_number 127
_symmetry_cell_setting 'tetragonal'
loop_
_space_group_symop_operation_xyz
x,y,z
-y,x,z
-x,-y,z
y,-x,z
1/2+x,1/2-y,-z
1/2-x,1/2+y,-z
1/2+y,1/2+x,-z
1/2-y,1/2-x,-z
-x,-y,-z
y,-x,-z
x,y,-z
-y,x,-z
1/2-x,1/2+y,z
1/2+x,1/2-y,z
1/2-y,1/2-x,z
1/2+y,1/2+x,z
loop_
_atom_site_type_symbol
_atom_site_label
_atom_site_fract_x
_atom_site_fract_y
_atom_site_fract_z
Si Si1 0.697147 0.802854 0.169745
Si Si2 0.952553 0.314088 0.168789
Si Si3 0.552585 0.947415 0.673934
Si Si4 0.452315 0.592062 0.824458
Si Si5 0.295104 0.795104 0.324995
Si Si6 0.234313 0.918408 0.171988
O O1 0.713573 0.879462 0.205250
O O2 0.741680 0.758321 0.274133
O O3 0.714076 0.785925 0.000000
O O4 0.969724 0.376284 0.268965
O O5 0.006894 0.258534 0.198841
O O6 0.953667 0.338320 0.000000
O O7 0.554967 0.945034 0.500000
O O8 0.500000 0.000000 0.732852
O O9 0.412056 0.528292 0.766989
O O10 0.416935 0.658795 0.769056
O O11 0.454958 0.593528 0.000000
O O12 0.297258 0.797258 0.500000
O O13 0.277108 0.867412 0.265437
O O14 0.239319 0.898748 0.000000
#
# Coordination Sequence:
#
# PCOD8314214 Si02
#       6
#     8  16   8  16   8  16
#     4   9  19  39  64  88 114 143 189 246 292 344
#     4   9  20  37  60  88 110 141 189 242 294 338
#     4  10  21  35  54  79 109 149 184 223 280 340
#     4   8  15  29  55  91 120 141 175 228 287 343
#     4  12  27  41  54  81 121 163 198 235 288 350
#     4  10  21  37  61  88 116 151 191 241 295 344
#
# _framework density 19.380174
#
# number of rings (size 3 to 8) (size 9 to 14) (size 15 to 20)
#    0.000    2.556    0.000    2.667    4.667    3.556 
#    0.000    0.000    0.000    0.000    0.000    1.556 
#    0.000    0.000    0.000    0.000    0.000    0.000 
#
# Total GULP energy -892679.979513 kJ/mol
# GULP energy per Si atom -12398.333049 kJ/mol
# Density = 1.933606 g / cm^3
# Si number density = 19.380174 Si / 1000 Ang^3
#
#
#
# Elastic Constant Matrix: (Units=GPa)
#
#
# Indices 1 2 3 4 5 6 
#
# 1 93.6560 49.2263 32.3722 0.0000 0.0000 0.0000
# 2 49.2263 93.6558 32.3723 0.0000 0.0000 0.0000
# 3 32.3722 32.3723 61.9912 0.0000 0.0000 0.0000
# 4 0.0000 0.0000 0.0000 8.4103 0.0000 0.0000
# 5 0.0000 0.0000 0.0000 0.0000 8.4097 0.0000
# 6 0.0000 0.0000 0.0000 0.0000 0.0000 34.9339
#
#
#
# Elastic Compliance Matrix: (Units=1/GPa)
#
#
# Indices 1 2 3 4 5 6 
#
# 1 0.015838 -0.006670 -0.004788 0.000000 0.000000 0.000000
# 2 -0.006670 0.015838 -0.004788 0.000000 0.000000 0.000000
# 3 -0.004788 -0.004788 0.021132 0.000000 0.000000 0.000000
# 4 0.000000 0.000000 0.000000 0.118902 0.000000 0.000000
# 5 0.000000 0.000000 0.000000 0.000000 0.118911 0.000000
# 6 0.000000 0.000000 0.000000 0.000000 0.000000 0.028625
#
#
# Mechanical properties :
#
#
# Convention : Reuss Voigt Hill
#
# Bulk Modulus (GPa) = 49.21919 53.02719 51.12319
# Shear Modulus (GPa) = 13.94667 19.37291 16.65979
#
# Velocity S-wave (km/s) = 2.68551 3.16512 2.93513
# Velocity P-wave (km/s) = 5.92181 6.38578 6.15817
#
# Compressibility (1/GPa) = 0.02031728
#
# Stress axis : x y z
#
# Youngs Moduli (GPa) = 63.13988 63.13968 47.32230
#
# Poissons Ratio (x) = 0.42112 0.22656
# Poissons Ratio (y) = 0.42112 0.22657
# Poissons Ratio (z) = 0.30229 0.30230
#
# Static dielectric constant tensor:
#      x y z
#    x 3.706140 0.000000 0.000000 
#    y 0.000000 3.706140 0.000000 
#    z 0.000000 0.000000 3.172140 
# 
# 
# High freq. dielectric constant tensor:
#      x y z
#    x 1.762440 0.000000 0.000000 
#    y 0.000000 1.762440 0.000000 
#    z 0.000000 0.000000 1.713010 
# 
# From -- ./inp_files/1678.got.cif
#   From: 2010.03.12/outbox.cif.g09.slc.cpg/sg127_1_cif.got.tgz:1678.got - 2010.04.06 17:03:15.
