data_PCOD8314654
_publ_section_title
;
Structure prediction by ZEFSAII (Michael W. Deem and Ramdas Pophale) SiO2 
 PCOD8314654
Probable space group: P 4/M N C
;
_chemical_formula_sum "Si O2"
_cell_formula_units_Z 104
_cell_length_a 18.541031
_cell_length_b 18.541031
_cell_length_c 16.427421
_cell_angle_alpha 90.000000
_cell_angle_beta 90.000000
_cell_angle_gamma 90.000000
_cell_volume 5647.251733
_symmetry_space_group_name_H-M "P 4/M N C"
_symmetry_group_IT_number 128
_symmetry_cell_setting 'tetragonal'
loop_
_space_group_symop_operation_xyz
x,y,z
-y,x,z
-x,-y,z
y,-x,z
1/2+x,1/2-y,1/2-z
1/2-x,1/2+y,1/2-z
1/2+y,1/2+x,1/2-z
1/2-y,1/2-x,1/2-z
-x,-y,-z
y,-x,-z
x,y,-z
-y,x,-z
1/2-x,1/2+y,1/2+z
1/2+x,1/2-y,1/2+z
1/2-y,1/2-x,1/2+z
1/2+y,1/2+x,1/2+z
loop_
_atom_site_type_symbol
_atom_site_label
_atom_site_fract_x
_atom_site_fract_y
_atom_site_fract_z
Si Si1 0.717449 0.603533 0.626124
Si Si2 0.866575 0.527178 0.408362
Si Si3 0.233654 0.738559 0.409883
Si Si4 0.530872 0.155422 0.095560
Si Si5 0.388631 0.457953 0.500000
Si Si6 0.873533 0.372644 0.657292
Si Si7 0.863662 0.740364 0.294901
O O1 0.795080 0.573579 0.601741
O O2 0.711982 0.684439 0.593940
O O3 0.656055 0.556775 0.582510
O O4 0.708075 0.602546 0.724688
O O5 0.873267 0.497936 0.500000
O O6 0.934752 0.577248 0.387267
O O7 0.866719 0.458592 0.350290
O O8 0.217816 0.769139 0.500000
O O9 0.185325 0.668377 0.396039
O O10 0.217195 0.801213 0.344091
O O11 0.450812 0.155894 0.129722
O O12 0.574597 0.217248 0.142634
O O13 0.532582 0.173934 0.000000
O O14 0.458410 0.407811 0.500000
O O15 0.855527 0.355527 0.750000
O O16 0.829728 0.670273 0.250000
#
# Coordination Sequence:
#
# PCOD8314654 Si02
#       7
#    16  16  16  16   8  16  16
#     4  11  21  38  61  88 113 157 201 242 298 370
#     4  11  21  36  58  82 114 164 203 233 297 366
#     4  11  21  39  59  83 115 156 204 250 298 358
#     4  11  22  39  56  84 122 163 203 245 297 363
#     4  11  26  44  64  94 123 155 201 263 311 365
#     4  12  26  36  54  86 123 157 197 256 301 351
#     4  10  20  36  62  86 112 152 201 246 294 361
#
# _framework density 18.416038
#
# number of rings (size 3 to 8) (size 9 to 14) (size 15 to 20)
#    0.000    1.000    4.615    4.615    2.154    1.846 
#    2.769    0.000    0.000    0.000    0.000    0.000 
#    0.000    0.000    0.000    6.308    0.000    0.000 
#
# Total GULP energy -1289857.500776 kJ/mol
# GULP energy per Si atom -12402.475969 kJ/mol
# Density = 1.837412 g / cm^3
# Si number density = 18.416038 Si / 1000 Ang^3
#
#
#
# Elastic Constant Matrix: (Units=GPa)
#
#
# Indices 1 2 3 4 5 6 
#
# 1 56.2919 36.7320 38.9486 0.0000 0.0000 0.0000
# 2 36.7320 56.2919 38.9480 0.0000 0.0000 0.0000
# 3 38.9486 38.9480 131.7047 0.0000 0.0000 0.0000
# 4 0.0000 0.0000 0.0000 28.5141 0.0000 0.0000
# 5 0.0000 0.0000 0.0000 0.0000 28.5140 0.0000
# 6 0.0000 0.0000 0.0000 0.0000 0.0000 20.2395
#
#
#
# Elastic Compliance Matrix: (Units=1/GPa)
#
#
# Indices 1 2 3 4 5 6 
#
# 1 0.032707 -0.018418 -0.004226 0.000000 0.000000 0.000000
# 2 -0.018418 0.032706 -0.004225 0.000000 0.000000 0.000000
# 3 -0.004226 -0.004225 0.010092 0.000000 0.000000 0.000000
# 4 0.000000 0.000000 0.000000 0.035070 0.000000 0.000000
# 5 0.000000 0.000000 0.000000 0.000000 0.035070 0.000000
# 6 0.000000 0.000000 0.000000 0.000000 0.000000 0.049408
#
#
# Mechanical properties :
#
#
# Convention : Reuss Voigt Hill
#
# Bulk Modulus (GPa) = 45.94170 52.61618 49.27894
# Shear Modulus (GPa) = 19.52762 24.09754 21.81258
#
# Velocity S-wave (km/s) = 3.25985 3.62126 3.44529
# Velocity P-wave (km/s) = 6.25856 6.79099 6.53020
#
# Compressibility (1/GPa) = 0.02176672
#
# Stress axis : x y z
#
# Youngs Moduli (GPa) = 30.57481 30.57506 99.09011
#
# Poissons Ratio (x) = 0.56314 0.41871
# Poissons Ratio (y) = 0.56314 0.41868
# Poissons Ratio (z) = 0.12919 0.12919
#
# Static dielectric constant tensor:
#      x y z
#    x 3.267340 0.000000 0.000000 
#    y 0.000000 3.267340 0.000000 
#    z 0.000000 0.000000 3.772760 
# 
# 
# High freq. dielectric constant tensor:
#      x y z
#    x 1.699300 0.000000 0.000000 
#    y 0.000000 1.699300 0.000000 
#    z 0.000000 0.000000 1.736850 
# 
# From -- ./inp_files/4871.got.cif
#   From: 2010.03.12/outbox.cif.g09.slc.cpg/sg128_3_cif.got.tgz:4871.got - 2010.04.06 17:11:05.
