data_PCOD8314904
_publ_section_title
;
Structure prediction by ZEFSAII (Michael W. Deem and Ramdas Pophale) SiO2 
 PCOD8314904
Probable space group: P 4/N M M
;
_chemical_formula_sum "Si O2"
_cell_formula_units_Z 80
_cell_length_a 19.046686
_cell_length_b 19.046686
_cell_length_c 15.501441
_cell_angle_alpha 90.000000
_cell_angle_beta 90.000000
_cell_angle_gamma 90.000000
_cell_volume 5623.554598
_symmetry_space_group_name_H-M "P 4/N M M"
_symmetry_group_IT_number 129
_symmetry_cell_setting 'tetragonal'
loop_
_space_group_symop_operation_xyz
x,y,z
1/2-y,x,z
1/2-x,1/2-y,z
y,1/2-x,z
1/2+x,-y,-z
-x,1/2+y,-z
1/2+y,1/2+x,-z
-y,-x,-z
-x,-y,-z
1/2+y,-x,-z
1/2+x,1/2+y,-z
-y,1/2+x,-z
1/2-x,y,z
x,1/2-y,z
1/2-y,1/2-x,z
y,x,z
loop_
_atom_site_type_symbol
_atom_site_label
_atom_site_fract_x
_atom_site_fract_y
_atom_site_fract_z
Si Si1 0.094417 0.667586 0.736918
Si Si2 0.670185 0.557290 0.675410
Si Si3 0.904659 0.168292 0.579874
Si Si4 0.833294 0.171904 0.906038
Si Si5 0.057886 0.329270 0.525461
O O1 0.108236 0.750000 0.721389
O O2 0.140002 0.625075 0.668879
O O3 0.118754 0.642038 0.831472
O O4 0.012303 0.649981 0.728298
O O5 0.750000 0.580478 0.694390
O O6 0.620299 0.620299 0.706457
O O7 0.659424 0.540091 0.574952
O O8 0.870274 0.129727 0.500000
O O9 0.887418 0.250000 0.570839
O O10 0.988080 0.154483 0.579536
O O11 0.750000 0.177148 0.907906
O O12 0.864314 0.250000 0.888087
O O13 0.857559 0.142442 0.000000
O O14 0.084280 0.250000 0.541590
O O15 0.118976 0.381025 0.557370
#
# Coordination Sequence:
#
# PCOD8314904 Si02
#       5
#    16  16  16  16  16
#     4  10  18  28  41  59  83 112 142 169 199 239
#     4   9  17  29  43  59  79 103 135 172 209 249
#     4  11  20  28  38  57  85 115 142 166 193 232
#     4   8  14  25  41  60  80 104 137 172 200 228
#     4   9  18  31  44  59  79 104 138 177 211 244
#
# _framework density 14.225877000000001
#
# number of rings (size 3 to 8) (size 9 to 14) (size 15 to 20)
#    0.000    2.600    2.000    1.800    0.000    3.800 
#    0.000    2.000    0.000    0.600    0.000    0.000 
#    0.000    0.000    0.000    0.000    0.000   25.200 
#
# Total GULP energy -991852.974836 kJ/mol
# GULP energy per Si atom -12398.162185 kJ/mol
# Density = 1.419350 g / cm^3
# Si number density = 14.225877 Si / 1000 Ang^3
#
#
#
# Elastic Constant Matrix: (Units=GPa)
#
#
# Indices 1 2 3 4 5 6 
#
# 1 70.1094 45.3817 24.8556 0.0000 0.0000 0.0000
# 2 45.3817 70.1178 24.8615 0.0000 0.0000 0.0000
# 3 24.8556 24.8615 64.7290 0.0000 0.0000 0.0000
# 4 0.0000 0.0000 0.0000 9.6584 0.0000 0.0000
# 5 0.0000 0.0000 0.0000 0.0000 9.6573 0.0000
# 6 0.0000 0.0000 0.0000 0.0000 0.0000 23.8968
#
#
#
# Elastic Compliance Matrix: (Units=1/GPa)
#
#
# Indices 1 2 3 4 5 6 
#
# 1 0.025404 -0.015030 -0.003982 0.000000 0.000000 0.000000
# 2 -0.015030 0.025403 -0.003985 0.000000 0.000000 0.000000
# 3 -0.003982 -0.003985 0.018509 0.000000 0.000000 0.000000
# 4 0.000000 0.000000 0.000000 0.103537 0.000000 0.000000
# 5 0.000000 0.000000 0.000000 0.000000 0.103549 0.000000
# 6 0.000000 0.000000 0.000000 0.000000 0.000000 0.041847
#
#
# Mechanical properties :
#
#
# Convention : Reuss Voigt Hill
#
# Bulk Modulus (GPa) = 42.88096 43.90597 43.39347
# Shear Modulus (GPa) = 13.44025 15.96631 14.70328
#
# Velocity S-wave (km/s) = 3.07705 3.35377 3.21839
# Velocity P-wave (km/s) = 6.54467 6.77698 6.66184
#
# Compressibility (1/GPa) = 0.02332037
#
# Stress axis : x y z
#
# Youngs Moduli (GPa) = 39.36344 39.36591 54.02815
#
# Poissons Ratio (x) = 0.59168 0.21515
# Poissons Ratio (y) = 0.59164 0.21532
# Poissons Ratio (z) = 0.15675 0.15689
#
# Static dielectric constant tensor:
#      x y z
#    x 2.760450 0.000000 0.000000 
#    y 0.000000 2.760440 0.000000 
#    z 0.000000 0.000000 2.916850 
# 
# 
# High freq. dielectric constant tensor:
#      x y z
#    x 1.534050 0.000000 0.000000 
#    y 0.000000 1.534050 0.000000 
#    z 0.000000 0.000000 1.520040 
# 
# From -- ./inp_files/4580.got.cif
#   From: 2010.03.12/outbox.cif.g09.slc.cpg/sg129_3_cif.got.tgz:4580.got - 2010.04.06 17:19:44.
