data_PCOD8314907
_publ_section_title
;
Structure prediction by ZEFSAII (Michael W. Deem and Ramdas Pophale) SiO2 
 PCOD8314907
Probable space group: P 4/N M M
;
_chemical_formula_sum "Si O2"
_cell_formula_units_Z 64
_cell_length_a 22.719741
_cell_length_b 22.719741
_cell_length_c 7.279527
_cell_angle_alpha 90.000000
_cell_angle_beta 90.000000
_cell_angle_gamma 90.000000
_cell_volume 3757.594518
_symmetry_space_group_name_H-M "P 4/N M M"
_symmetry_group_IT_number 129
_symmetry_cell_setting 'tetragonal'
loop_
_space_group_symop_operation_xyz
x,y,z
1/2-y,x,z
1/2-x,1/2-y,z
y,1/2-x,z
1/2+x,-y,-z
-x,1/2+y,-z
1/2+y,1/2+x,-z
-y,-x,-z
-x,-y,-z
1/2+y,-x,-z
1/2+x,1/2+y,-z
-y,1/2+x,-z
1/2-x,y,z
x,1/2-y,z
1/2-y,1/2-x,z
y,x,z
loop_
_atom_site_type_symbol
_atom_site_label
_atom_site_fract_x
_atom_site_fract_y
_atom_site_fract_z
Si Si1 0.409579 0.315275 0.914590
Si Si2 0.062006 0.970116 0.704942
Si Si3 0.993739 0.815941 0.399441
Si Si4 0.974610 0.621529 0.774351
O O1 0.398104 0.250000 0.988578
O O2 0.348190 0.348190 0.930878
O O3 0.431058 0.314783 0.703886
O O4 0.459939 0.344623 0.039713
O O5 0.040205 0.959796 0.500000
O O6 0.033752 0.916303 0.822179
O O7 0.133314 0.968289 0.705389
O O8 0.033737 0.033737 0.769584
O O9 0.022653 0.750000 0.385433
O O10 0.984464 0.831782 0.611723
O O11 0.922540 0.577461 0.712592
#
# Coordination Sequence:
#
# PCOD8314907 Si02
#       4
#    16  16  16  16
#     4  10  20  31  44  63  86 116 151 181 213 252
#     4   8  14  26  44  64  85 110 140 175 219 264
#     4  10  18  28  43  63  89 115 139 171 211 260
#     4   9  17  30  47  64  84 111 144 184 225 260
#
# _framework density 17.032171999999999
#
# number of rings (size 3 to 8) (size 9 to 14) (size 15 to 20)
#    0.000    2.750    0.000    4.500    0.000    1.250 
#    0.000    3.750    0.000    0.000    0.000    3.500 
#    0.000   59.500    0.000   55.000    0.000    0.250 
#
# Total GULP energy -792917.297451 kJ/mol
# GULP energy per Si atom -12389.332773 kJ/mol
# Density = 1.699341 g / cm^3
# Si number density = 17.032172 Si / 1000 Ang^3
#
#
#
# Elastic Constant Matrix: (Units=GPa)
#
#
# Indices 1 2 3 4 5 6 
#
# 1 113.6048 48.8645 21.2329 0.0000 0.0000 0.0000
# 2 48.8645 113.6041 21.2339 0.0000 0.0000 0.0000
# 3 21.2329 21.2339 39.2555 0.0000 0.0000 0.0000
# 4 0.0000 0.0000 0.0000 20.3528 0.0000 0.0000
# 5 0.0000 0.0000 0.0000 0.0000 20.3528 0.0000
# 6 0.0000 0.0000 0.0000 0.0000 0.0000 17.1821
#
#
#
# Elastic Compliance Matrix: (Units=1/GPa)
#
#
# Indices 1 2 3 4 5 6 
#
# 1 0.011307 -0.004139 -0.003877 0.000000 0.000000 0.000000
# 2 -0.004139 0.011308 -0.003878 0.000000 0.000000 0.000000
# 3 -0.003877 -0.003878 0.029669 0.000000 0.000000 0.000000
# 4 0.000000 0.000000 0.000000 0.049133 0.000000 0.000000
# 5 0.000000 0.000000 0.000000 0.000000 0.049133 0.000000
# 6 0.000000 0.000000 0.000000 0.000000 0.000000 0.058200
#
#
# Mechanical properties :
#
#
# Convention : Reuss Voigt Hill
#
# Bulk Modulus (GPa) = 35.09267 49.90299 42.49783
# Shear Modulus (GPa) = 20.65802 23.25308 21.95555
#
# Velocity S-wave (km/s) = 3.48642 3.69893 3.59425
# Velocity P-wave (km/s) = 6.07086 6.89968 6.49850
#
# Compressibility (1/GPa) = 0.02849598
#
# Stress axis : x y z
#
# Youngs Moduli (GPa) = 88.43790 88.43626 33.70540
#
# Poissons Ratio (x) = 0.36603 0.13068
# Poissons Ratio (y) = 0.36604 0.13070
# Poissons Ratio (z) = 0.34289 0.34293
#
# Static dielectric constant tensor:
#      x y z
#    x 3.345770 0.000000 0.000000 
#    y 0.000000 3.345750 0.000000 
#    z 0.000000 0.000000 3.164780 
# 
# 
# High freq. dielectric constant tensor:
#      x y z
#    x 1.634570 0.000000 0.000000 
#    y 0.000000 1.634570 0.000000 
#    z 0.000000 0.000000 1.664970 
# 
# From -- ./inp_files/2060.got.cif
#   From: 2010.03.12/outbox.cif.g09.slc.cpg/sg129_2_cif.got.tgz:2060.got - 2010.04.06 17:19:44.
