data_PCOD8314726
_publ_section_title
;
Structure prediction by ZEFSAII (Michael W. Deem and Ramdas Pophale) SiO2 
 PCOD8314726
Probable space group: P 4/M N C
;
_chemical_formula_sum "Si O2"
_cell_formula_units_Z 96
_cell_length_a 14.275095
_cell_length_b 14.275095
_cell_length_c 22.290780
_cell_angle_alpha 90.000000
_cell_angle_beta 90.000000
_cell_angle_gamma 90.000000
_cell_volume 4542.378085
_symmetry_space_group_name_H-M "P 4/M N C"
_symmetry_group_IT_number 128
_symmetry_cell_setting 'tetragonal'
loop_
_space_group_symop_operation_xyz
x,y,z
-y,x,z
-x,-y,z
y,-x,z
1/2+x,1/2-y,1/2-z
1/2-x,1/2+y,1/2-z
1/2+y,1/2+x,1/2-z
1/2-y,1/2-x,1/2-z
-x,-y,-z
y,-x,-z
x,y,-z
-y,x,-z
1/2-x,1/2+y,1/2+z
1/2+x,1/2-y,1/2+z
1/2-y,1/2-x,1/2+z
1/2+y,1/2+x,1/2+z
loop_
_atom_site_type_symbol
_atom_site_label
_atom_site_fract_x
_atom_site_fract_y
_atom_site_fract_z
Si Si1 0.730347 0.859570 0.101887
Si Si2 0.389769 0.881989 0.000000
Si Si3 0.115886 0.178605 0.500000
Si Si4 0.073351 0.864537 0.000000
Si Si5 0.109552 0.475262 0.373577
Si Si6 0.095893 0.699171 0.500000
Si Si7 0.708233 0.184551 0.318044
Si Si8 0.139415 0.941872 0.629351
O O1 0.768961 0.774216 0.141108
O O2 0.680777 0.939840 0.142299
O O3 0.813954 0.898339 0.061332
O O4 0.645386 0.827871 0.060879
O O5 0.369812 0.945589 0.057436
O O6 0.331834 0.782817 0.000000
O O7 0.495584 0.846630 0.000000
O O8 0.188644 0.093523 0.500000
O O9 0.054752 0.169772 0.559770
O O10 0.962379 0.873504 0.000000
O O11 0.141329 0.393595 0.329350
O O12 0.000000 0.500000 0.363616
O O13 0.717387 0.217387 0.250000
O O14 0.778379 0.098989 0.330187
O O15 0.049378 0.879071 0.645138
#
# Coordination Sequence:
#
# PCOD8314726 Si02
#       8
#    16   8   8   8  16   8  16  16
#     4  11  23  42  67  96 138 177 222 276 350 408
#     4  12  20  38  63 109 149 170 212 271 349 434
#     4  12  21  33  69  99 151 177 217 266 351 428
#     4  10  21  39  69 100 132 169 222 277 341 418
#     4  12  25  43  72 107 143 182 228 285 354 426
#     4  11  19  34  61 100 135 183 200 265 342 421
#     4  12  29  48  68  96 135 185 245 297 343 398
#     4  11  24  43  70 101 140 181 223 278 351 433
#
# _framework density 21.134302999999999
#
# number of rings (size 3 to 8) (size 9 to 14) (size 15 to 20)
#    0.000    0.583    5.000    3.750    2.333    4.333 
#    0.000    0.000    0.000    2.000    0.000    0.000 
#    0.000    0.000    0.000    0.000    0.000    0.000 
#
# Total GULP energy -1190320.354352 kJ/mol
# GULP energy per Si atom -12399.170358 kJ/mol
# Density = 2.108620 g / cm^3
# Si number density = 21.134303 Si / 1000 Ang^3
#
#
#
# Elastic Constant Matrix: (Units=GPa)
#
#
# Indices 1 2 3 4 5 6 
#
# 1 141.7308 -60.3313 0.3023 0.0000 0.0000 0.0000
# 2 -60.3313 141.7308 0.3023 0.0000 0.0000 0.0000
# 3 0.3023 0.3023 59.7231 0.0000 0.0000 0.0000
# 4 0.0000 0.0000 0.0000 12.2991 0.0000 0.0000
# 5 0.0000 0.0000 0.0000 0.0000 12.2991 0.0000
# 6 0.0000 0.0000 0.0000 0.0000 0.0000 79.1148
#
#
#
# Elastic Compliance Matrix: (Units=1/GPa)
#
#
# Indices 1 2 3 4 5 6 
#
# 1 0.008617 0.003668 -0.000062 0.000000 0.000000 0.000000
# 2 0.003668 0.008617 -0.000062 0.000000 0.000000 0.000000
# 3 -0.000062 -0.000062 0.016745 0.000000 0.000000 0.000000
# 4 0.000000 0.000000 0.000000 0.081307 0.000000 0.000000
# 5 0.000000 0.000000 0.000000 0.000000 0.081307 0.000000
# 6 0.000000 0.000000 0.000000 0.000000 0.000000 0.012640
#
#
# Mechanical properties :
#
#
# Convention : Reuss Voigt Hill
#
# Bulk Modulus (GPa) = 24.35052 24.85906 24.60479
# Shear Modulus (GPa) = 23.16604 47.60338 35.38471
#
# Velocity S-wave (km/s) = 3.31438 4.75112 4.09623
# Velocity P-wave (km/s) = 5.11797 6.47190 5.83434
#
# Compressibility (1/GPa) = 0.04106689
#
# Stress axis : x y z
#
# Youngs Moduli (GPa) = 116.04624 116.04624 59.72085
#
# Poissons Ratio (x) = -0.42569 0.00371
# Poissons Ratio (y) = -0.42569 0.00371
# Poissons Ratio (z) = 0.00722 0.00722
#
# Static dielectric constant tensor:
#      x y z
#    x 4.195840 0.000000 0.000000 
#    y 0.000000 4.195840 0.000000 
#    z 0.000000 0.000000 -8.655030 
# 
# 
# High freq. dielectric constant tensor:
#      x y z
#    x 1.848790 0.000000 0.000000 
#    y 0.000000 1.848790 0.000000 
#    z 0.000000 0.000000 1.791010 
# 
# From -- ./inp_files/5843.got.cif
#   From: 2010.03.12/outbox.cif.g09.slc.cpg/sg128_3_cif.got.tgz:5843.got - 2010.04.06 17:11:05.
