data_PCOD8314951
_publ_section_title
;
Structure prediction by ZEFSAII (Michael W. Deem and Ramdas Pophale) SiO2 
 PCOD8314951
Probable space group: P 4/N M M
;
_chemical_formula_sum "Si O2"
_cell_formula_units_Z 128
_cell_length_a 23.599558
_cell_length_b 23.599558
_cell_length_c 14.188444
_cell_angle_alpha 90.000000
_cell_angle_beta 90.000000
_cell_angle_gamma 90.000000
_cell_volume 7902.099768
_symmetry_space_group_name_H-M "P 4/N M M"
_symmetry_group_IT_number 129
_symmetry_cell_setting 'tetragonal'
loop_
_space_group_symop_operation_xyz
x,y,z
1/2-y,x,z
1/2-x,1/2-y,z
y,1/2-x,z
1/2+x,-y,-z
-x,1/2+y,-z
1/2+y,1/2+x,-z
-y,-x,-z
-x,-y,-z
1/2+y,-x,-z
1/2+x,1/2+y,-z
-y,1/2+x,-z
1/2-x,y,z
x,1/2-y,z
1/2-y,1/2-x,z
y,x,z
loop_
_atom_site_type_symbol
_atom_site_label
_atom_site_fract_x
_atom_site_fract_y
_atom_site_fract_z
Si Si1 0.996134 0.089201 0.245199
Si Si2 0.090957 0.000775 0.026599
Si Si3 0.137062 0.814506 0.595916
Si Si4 0.420909 0.633870 0.286568
Si Si5 0.513971 0.314177 0.878606
Si Si6 0.495023 0.813588 0.612840
Si Si7 0.815372 0.983765 0.407840
Si Si8 0.186660 0.095934 0.752962
O O1 0.000985 0.106018 0.136416
O O2 0.932686 0.071874 0.269699
O O3 0.014651 0.143738 0.305927
O O4 0.036358 0.036358 0.270070
O O5 0.050794 0.949206 0.000000
O O6 0.059576 0.059576 0.998432
O O7 0.149368 0.991832 0.972565
O O8 0.168748 0.831253 0.500000
O O9 0.154464 0.750000 0.623539
O O10 0.152749 0.857630 0.681083
O O11 0.070050 0.819308 0.581396
O O12 0.434941 0.665850 0.189199
O O13 0.464062 0.647660 0.370512
O O14 0.526190 0.250000 0.909722
O O15 0.455624 0.320331 0.823879
O O16 0.508048 0.750000 0.648943
O O17 0.529395 0.827761 0.517271
O O18 0.750000 0.001140 0.390662
O O19 0.829300 0.926291 0.351308
O O20 0.250000 0.120526 0.755513
O O21 0.145646 0.145646 0.784990
#
# Coordination Sequence:
#
# PCOD8314951 Si02
#       8
#    16  16  16  16  16  16  16  16
#     4  10  21  32  48  75 101 124 159 198 246 299
#     4  10  19  34  53  72  96 124 154 198 249 293
#     4  10  19  30  46  66  91 126 166 203 241 284
#     4  10  18  31  48  67  99 125 156 197 241 284
#     4  10  20  33  53  74  93 124 164 201 237 288
#     4   9  18  33  50  67  96 134 163 199 243 284
#     4   9  17  30  48  66  90 128 167 196 230 277
#     4   9  18  30  46  72  99 126 160 193 230 282
#
# _framework density 16.198225999999998
#
# number of rings (size 3 to 8) (size 9 to 14) (size 15 to 20)
#    0.000    2.375    2.500    1.500    0.000    3.750 
#    0.000    0.625    0.000    0.000    0.000    0.000 
#    0.000    0.250    0.000    2.750    0.000    4.500 
#
# Total GULP energy -1586941.070304 kJ/mol
# GULP energy per Si atom -12397.977112 kJ/mol
# Density = 1.616136 g / cm^3
# Si number density = 16.198226 Si / 1000 Ang^3
#
#
#
# Elastic Constant Matrix: (Units=GPa)
#
#
# Indices 1 2 3 4 5 6 
#
# 1 89.0449 50.5435 48.6198 0.0000 0.0000 0.0000
# 2 50.5435 89.0453 48.6203 0.0000 0.0000 0.0000
# 3 48.6198 48.6203 92.2582 0.0000 0.0000 0.0000
# 4 0.0000 0.0000 0.0000 22.1394 0.0000 0.0000
# 5 0.0000 0.0000 0.0000 0.0000 22.1396 0.0000
# 6 0.0000 0.0000 0.0000 0.0000 0.0000 16.1380
#
#
#
# Elastic Compliance Matrix: (Units=1/GPa)
#
#
# Indices 1 2 3 4 5 6 
#
# 1 0.018646 -0.007327 -0.005965 0.000000 0.000000 0.000000
# 2 -0.007327 0.018646 -0.005965 0.000000 0.000000 0.000000
# 3 -0.005965 -0.005965 0.017127 0.000000 0.000000 0.000000
# 4 0.000000 0.000000 0.000000 0.045168 0.000000 0.000000
# 5 0.000000 0.000000 0.000000 0.000000 0.045168 0.000000
# 6 0.000000 0.000000 0.000000 0.000000 0.000000 0.061965
#
#
# Mechanical properties :
#
#
# Convention : Reuss Voigt Hill
#
# Bulk Modulus (GPa) = 62.87668 62.87953 62.87810
# Shear Modulus (GPa) = 19.95714 20.25441 20.10577
#
# Velocity S-wave (km/s) = 3.51387 3.53995 3.52694
# Velocity P-wave (km/s) = 7.44072 7.45730 7.44902
#
# Compressibility (1/GPa) = 0.01590415
#
# Stress axis : x y z
#
# Youngs Moduli (GPa) = 53.63022 53.63013 58.38852
#
# Poissons Ratio (x) = 0.39293 0.34831
# Poissons Ratio (y) = 0.39293 0.34831
# Poissons Ratio (z) = 0.31992 0.31993
#
# Static dielectric constant tensor:
#      x y z
#    x 3.034380 0.000000 0.000000 
#    y 0.000000 3.034380 0.000000 
#    z 0.000000 0.000000 3.102460 
# 
# 
# High freq. dielectric constant tensor:
#      x y z
#    x 1.613150 0.000000 0.000000 
#    y 0.000000 1.613150 0.000000 
#    z 0.000000 0.000000 1.619160 
# 
# From -- ./inp_files/4229.got.cif
#   From: 2010.03.12/outbox.cif.g09.slc.cpg/sg129_3_cif.got.tgz:4229.got - 2010.04.06 17:19:44.
