data_PCOD8314763
_publ_section_title
;
Structure prediction by ZEFSAII (Michael W. Deem and Ramdas Pophale) SiO2 
 PCOD8314763
Probable space group: P 4/M N C
;
_chemical_formula_sum "Si O2"
_cell_formula_units_Z 64
_cell_length_a 16.856785
_cell_length_b 16.856785
_cell_length_c 10.921372
_cell_angle_alpha 90.000000
_cell_angle_beta 90.000000
_cell_angle_gamma 90.000000
_cell_volume 3103.320965
_symmetry_space_group_name_H-M "P 4/M N C"
_symmetry_group_IT_number 128
_symmetry_cell_setting 'tetragonal'
loop_
_space_group_symop_operation_xyz
x,y,z
-y,x,z
-x,-y,z
y,-x,z
1/2+x,1/2-y,1/2-z
1/2-x,1/2+y,1/2-z
1/2+y,1/2+x,1/2-z
1/2-y,1/2-x,1/2-z
-x,-y,-z
y,-x,-z
x,y,-z
-y,x,-z
1/2-x,1/2+y,1/2+z
1/2+x,1/2-y,1/2+z
1/2-y,1/2-x,1/2+z
1/2+y,1/2+x,1/2+z
loop_
_atom_site_type_symbol
_atom_site_label
_atom_site_fract_x
_atom_site_fract_y
_atom_site_fract_z
Si Si1 0.964771 0.123772 0.000000
Si Si2 0.528166 0.113366 0.139158
Si Si3 0.366032 0.133969 0.750000
Si Si4 0.593759 0.689031 0.742423
Si Si5 0.791447 0.065820 0.638104
O O1 0.953183 0.174102 0.119511
O O2 0.054061 0.097348 0.000000
O O3 0.556147 0.056147 0.250000
O O4 0.432109 0.119904 0.144183
O O5 0.570775 0.197413 0.163458
O O6 0.548929 0.082894 0.000000
O O7 0.371891 0.224955 0.711240
O O8 0.663439 0.626783 0.772413
O O9 0.526092 0.682731 0.846569
O O10 0.811298 0.091473 0.500000
#
# Coordination Sequence:
#
# PCOD8314763 Si02
#       5
#     8  16   8  16  16
#     4  11  22  40  64  94 135 167 209 260 318 400
#     4  10  23  45  66  94 128 169 217 269 321 381
#     4  10  25  40  66  94 126 165 216 264 316 378
#     4  11  22  42  62  94 126 168 211 257 318 379
#     4  10  22  41  64  91 128 165 212 261 315 379
#
# _framework density 20.623068
#
# number of rings (size 3 to 8) (size 9 to 14) (size 15 to 20)
#    0.000    1.625    2.500    1.125    3.500    3.500 
#    9.000    1.250    0.000    0.000    0.000    0.000 
#    0.000    0.000    0.000    0.000    0.000    0.000 
#
# Total GULP energy -792933.291257 kJ/mol
# GULP energy per Si atom -12389.582676 kJ/mol
# Density = 2.057613 g / cm^3
# Si number density = 20.623068 Si / 1000 Ang^3
#
#
#
# Elastic Constant Matrix: (Units=GPa)
#
#
# Indices 1 2 3 4 5 6 
#
# 1 104.0185 33.1725 13.7132 0.0000 0.0000 0.0000
# 2 33.1725 104.0197 13.7126 0.0000 0.0000 0.0000
# 3 13.7132 13.7126 71.2597 0.0000 0.0000 0.0000
# 4 0.0000 0.0000 0.0000 26.5770 0.0000 0.0000
# 5 0.0000 0.0000 0.0000 0.0000 26.5786 0.0000
# 6 0.0000 0.0000 0.0000 0.0000 0.0000 37.4460
#
#
#
# Elastic Compliance Matrix: (Units=1/GPa)
#
#
# Indices 1 2 3 4 5 6 
#
# 1 0.010848 -0.003267 -0.001459 0.000000 0.000000 0.000000
# 2 -0.003267 0.010848 -0.001459 0.000000 0.000000 0.000000
# 3 -0.001459 -0.001459 0.014595 0.000000 0.000000 0.000000
# 4 0.000000 0.000000 0.000000 0.037627 0.000000 0.000000
# 5 0.000000 0.000000 0.000000 0.000000 0.037624 0.000000
# 6 0.000000 0.000000 0.000000 0.000000 0.000000 0.026705
#
#
# Mechanical properties :
#
#
# Convention : Reuss Voigt Hill
#
# Bulk Modulus (GPa) = 41.80452 44.49937 43.15195
# Shear Modulus (GPa) = 31.52796 32.70028 32.11412
#
# Velocity S-wave (km/s) = 3.91419 3.98630 3.95041
# Velocity P-wave (km/s) = 6.38300 6.54307 6.46353
#
# Compressibility (1/GPa) = 0.02392086
#
# Stress axis : x y z
#
# Youngs Moduli (GPa) = 92.18355 92.18481 68.51833
#
# Poissons Ratio (x) = 0.30118 0.09996
# Poissons Ratio (y) = 0.30118 0.09995
# Poissons Ratio (z) = 0.13448 0.13447
#
# Static dielectric constant tensor:
#      x y z
#    x 3.750290 0.000000 0.000000 
#    y 0.000000 3.750270 0.000000 
#    z 0.000000 0.000000 3.649770 
# 
# 
# High freq. dielectric constant tensor:
#      x y z
#    x 1.812440 0.000000 0.000000 
#    y 0.000000 1.812440 0.000000 
#    z 0.000000 0.000000 1.802680 
# 
# From -- ./inp_files/2546.got.cif
#   From: 2010.03.12/outbox.cif.g09.slc.cpg/sg128_2_cif.got.tgz:2546.got - 2010.04.06 17:11:05.
