data_PCOD8314173
_publ_section_title
;
Structure prediction by ZEFSAII (Michael W. Deem and Ramdas Pophale) SiO2 
 PCOD8314173
Probable space group: P 4/M B M
;
_chemical_formula_sum "Si O2"
_cell_formula_units_Z 72
_cell_length_a 18.519536
_cell_length_b 18.519536
_cell_length_c 11.659400
_cell_angle_alpha 90.000000
_cell_angle_beta 90.000000
_cell_angle_gamma 90.000000
_cell_volume 3998.861887
_symmetry_space_group_name_H-M "P 4/M B M"
_symmetry_group_IT_number 127
_symmetry_cell_setting 'tetragonal'
loop_
_space_group_symop_operation_xyz
x,y,z
-y,x,z
-x,-y,z
y,-x,z
1/2+x,1/2-y,-z
1/2-x,1/2+y,-z
1/2+y,1/2+x,-z
1/2-y,1/2-x,-z
-x,-y,-z
y,-x,-z
x,y,-z
-y,x,-z
1/2-x,1/2+y,z
1/2+x,1/2-y,z
1/2-y,1/2-x,z
1/2+y,1/2+x,z
loop_
_atom_site_type_symbol
_atom_site_label
_atom_site_fract_x
_atom_site_fract_y
_atom_site_fract_z
Si Si1 0.213930 0.165215 0.000000
Si Si2 0.442399 0.942399 0.364416
Si Si3 0.341725 0.722985 0.225536
Si Si4 0.699859 0.012531 0.239529
Si Si5 0.626573 0.754923 0.630582
Si Si6 0.951044 0.328949 0.000000
O O1 0.164940 0.174568 0.888245
O O2 0.250869 0.087037 0.000000
O O3 0.277390 0.222611 0.000000
O O4 0.441010 0.941010 0.500000
O O5 0.464938 0.863898 0.323253
O O6 0.500000 0.000000 0.317536
O O7 0.297557 0.797557 0.213075
O O8 0.425406 0.739989 0.242259
O O9 0.312389 0.676455 0.332484
O O10 0.738941 0.941097 0.285407
O O11 0.667131 0.001239 0.112469
O O12 0.601578 0.742663 0.500000
O O13 0.671099 0.828902 0.643630
O O14 0.895268 0.395268 0.000000
#
# Coordination Sequence:
#
# PCOD8314173 Si02
#       6
#     8   8  16  16  16   8
#     4   9  17  34  59  79 110 145 187 239 291 336
#     4  11  24  39  55  81 127 168 191 228 289 362
#     4  10  20  37  57  84 113 147 193 246 289 338
#     4  12  22  37  59  89 118 154 197 241 296 351
#     4  10  21  37  58  82 114 157 201 240 286 348
#     4  11  21  35  60  88 117 155 197 236 287 360
#
# _framework density 18.005122
#
# number of rings (size 3 to 8) (size 9 to 14) (size 15 to 20)
#    0.000    1.444    3.333    3.333    0.000    4.000 
#    0.000    1.111    0.000    0.667    0.000    3.111 
#    0.000    0.000    0.000    0.000    0.000    0.000 
#
# Total GULP energy -893100.872071 kJ/mol
# GULP energy per Si atom -12404.178779 kJ/mol
# Density = 1.796414 g / cm^3
# Si number density = 18.005122 Si / 1000 Ang^3
#
#
#
# Elastic Constant Matrix: (Units=GPa)
#
#
# Indices 1 2 3 4 5 6 
#
# 1 44.0621 58.9785 21.8826 0.0000 0.0000 0.0000
# 2 58.9785 44.0622 21.8826 0.0000 0.0000 0.0000
# 3 21.8826 21.8826 100.1848 0.0000 0.0000 0.0000
# 4 0.0000 0.0000 0.0000 11.4661 0.0000 0.0000
# 5 0.0000 0.0000 0.0000 0.0000 11.4661 0.0000
# 6 0.0000 0.0000 0.0000 0.0000 0.0000 25.1186
#
#
#
# Elastic Compliance Matrix: (Units=1/GPa)
#
#
# Indices 1 2 3 4 5 6 
#
# 1 -0.028172 0.038869 -0.002337 0.000000 0.000000 0.000000
# 2 0.038869 -0.028171 -0.002337 0.000000 0.000000 0.000000
# 3 -0.002337 -0.002337 0.011002 0.000000 0.000000 0.000000
# 4 0.000000 0.000000 0.000000 0.087214 0.000000 0.000000
# 5 0.000000 0.000000 0.000000 0.000000 0.087214 0.000000
# 6 0.000000 0.000000 0.000000 0.000000 0.000000 0.039811
#
#
# Mechanical properties :
#
#
# Convention : Reuss Voigt Hill
#
# Bulk Modulus (GPa) = 43.38250 43.75515 43.56882
# Shear Modulus (GPa) = 46.21503 15.31451 30.76477
#
# Velocity S-wave (km/s) = 5.07183 2.91961 4.13809
# Velocity P-wave (km/s) = 7.64492 5.97660 6.86165
#
# Compressibility (1/GPa) = 0.02305077
#
# Stress axis : x y z
#
# Youngs Moduli (GPa) = -35.49678 -35.49687 90.89051
#
# Poissons Ratio (x) = 1.37972 0.21237
# Poissons Ratio (y) = 1.37972 0.21237
# Poissons Ratio (z) = -0.08294 -0.08294
#
# Static dielectric constant tensor:
#      x y z
#    x 3.274070 0.000000 0.000000 
#    y 0.000000 3.274050 0.000000 
#    z 0.000000 0.000000 3.545330 
# 
# 
# High freq. dielectric constant tensor:
#      x y z
#    x 1.680340 0.000000 0.000000 
#    y 0.000000 1.680340 0.000000 
#    z 0.000000 0.000000 1.716420 
# 
# From -- ./inp_files/3215.got.cif
#   From: 2010.03.12/outbox.cif.g09.slc.cpg/sg127_2_cif.got.tgz:3215.got - 2010.04.06 17:03:15.
