data_PCOD8314525
_publ_section_title
;
Structure prediction by ZEFSAII (Michael W. Deem and Ramdas Pophale) SiO2 
 PCOD8314525
Probable space group: P 4/M N C
;
_chemical_formula_sum "Si O2"
_cell_formula_units_Z 96
_cell_length_a 22.682457
_cell_length_b 22.682457
_cell_length_c 9.091962
_cell_angle_alpha 90.000000
_cell_angle_beta 90.000000
_cell_angle_gamma 90.000000
_cell_volume 4677.758584
_symmetry_space_group_name_H-M "P 4/M N C"
_symmetry_group_IT_number 128
_symmetry_cell_setting 'tetragonal'
loop_
_space_group_symop_operation_xyz
x,y,z
-y,x,z
-x,-y,z
y,-x,z
1/2+x,1/2-y,1/2-z
1/2-x,1/2+y,1/2-z
1/2+y,1/2+x,1/2-z
1/2-y,1/2-x,1/2-z
-x,-y,-z
y,-x,-z
x,y,-z
-y,x,-z
1/2-x,1/2+y,1/2+z
1/2+x,1/2-y,1/2+z
1/2-y,1/2-x,1/2+z
1/2+y,1/2+x,1/2+z
loop_
_atom_site_type_symbol
_atom_site_label
_atom_site_fract_x
_atom_site_fract_y
_atom_site_fract_z
Si Si1 0.218307 0.804392 0.831123
Si Si2 0.910455 0.972737 0.825118
Si Si3 0.328763 0.089298 0.670370
Si Si4 0.888703 0.528529 0.168111
Si Si5 0.580139 0.711200 0.331805
Si Si6 0.881586 0.706364 0.325948
O O1 0.248678 0.748678 0.750000
O O2 0.149134 0.797661 0.819311
O O3 0.230822 0.868756 0.752027
O O4 0.239504 0.805935 0.000000
O O5 0.927068 0.038668 0.770549
O O6 0.846084 0.953533 0.764888
O O7 0.908949 0.969633 0.000000
O O8 0.351252 0.148749 0.750000
O O9 0.318578 0.103716 0.500000
O O10 0.268568 0.063443 0.736933
O O11 0.380308 0.040688 0.692830
O O12 0.946195 0.553806 0.250000
O O13 0.827155 0.558768 0.220312
O O14 0.899889 0.544948 0.000000
O O15 0.560810 0.722491 0.500000
O O16 0.828230 0.671771 0.250000
O O17 0.875384 0.711921 0.500000
#
# Coordination Sequence:
#
# PCOD8314525 Si02
#       6
#    16  16  16  16  16  16
#     4  10  19  30  46  72 106 143 184 228 273 323
#     4   8  15  31  56  85 116 147 181 224 270 320
#     4  11  24  41  58  79 109 144 183 227 273 322
#     4   9  20  37  57  81 108 139 178 224 273 325
#     4  10  21  35  54  82 111 143 184 226 272 324
#     4   9  16  29  49  73 101 133 170 213 263 316
#
# _framework density 20.522649999999999
#
# number of rings (size 3 to 8) (size 9 to 14) (size 15 to 20)
#    0.000    2.500    0.000    3.500    0.000    6.333 
#    0.000    3.333    0.000    1.000    0.000    1.167 
#    0.000    0.000    0.000    0.000    0.000    0.000 
#
# Total GULP energy -1189488.413167 kJ/mol
# GULP energy per Si atom -12390.504304 kJ/mol
# Density = 2.047594 g / cm^3
# Si number density = 20.522650 Si / 1000 Ang^3
#
#
#
# Elastic Constant Matrix: (Units=GPa)
#
#
# Indices 1 2 3 4 5 6 
#
# 1 88.4680 33.4973 37.2438 0.0000 0.0000 0.0000
# 2 33.4973 88.4693 37.2389 0.0000 0.0000 0.0000
# 3 37.2438 37.2389 93.1810 0.0000 0.0000 0.0000
# 4 0.0000 0.0000 0.0000 17.6694 0.0000 0.0000
# 5 0.0000 0.0000 0.0000 0.0000 17.6697 0.0000
# 6 0.0000 0.0000 0.0000 0.0000 0.0000 32.0669
#
#
#
# Elastic Compliance Matrix: (Units=1/GPa)
#
#
# Indices 1 2 3 4 5 6 
#
# 1 0.014519 -0.003673 -0.004336 0.000000 0.000000 0.000000
# 2 -0.003673 0.014518 -0.004334 0.000000 0.000000 0.000000
# 3 -0.004336 -0.004334 0.014197 0.000000 0.000000 0.000000
# 4 0.000000 0.000000 0.000000 0.056595 0.000000 0.000000
# 5 0.000000 0.000000 0.000000 0.000000 0.056594 0.000000
# 6 0.000000 0.000000 0.000000 0.000000 0.000000 0.031185
#
#
# Mechanical properties :
#
#
# Convention : Reuss Voigt Hill
#
# Bulk Modulus (GPa) = 53.90900 54.00871 53.95886
# Shear Modulus (GPa) = 22.88580 24.29042 23.58811
#
# Velocity S-wave (km/s) = 3.34301 3.44407 3.39391
# Velocity P-wave (km/s) = 6.42075 6.49532 6.45814
#
# Compressibility (1/GPa) = 0.01854978
#
# Stress axis : x y z
#
# Youngs Moduli (GPa) = 68.87392 68.87876 70.43826
#
# Poissons Ratio (x) = 0.25296 0.30539
# Poissons Ratio (y) = 0.25294 0.30529
# Poissons Ratio (z) = 0.29861 0.29854
#
# Static dielectric constant tensor:
#      x y z
#    x 3.825390 0.000000 0.000000 
#    y 0.000000 3.825410 0.000000 
#    z 0.000000 0.000000 3.638510 
# 
# 
# High freq. dielectric constant tensor:
#      x y z
#    x 1.799930 0.000000 0.000000 
#    y 0.000000 1.799930 0.000000 
#    z 0.000000 0.000000 1.781490 
# 
# From -- ./inp_files/1498.got.cif
#   From: 2010.03.12/outbox.cif.g09.slc.cpg/sg128_1_cif.got.tgz:1498.got - 2010.04.06 17:11:05.
