data_PCOD8314184
_publ_section_title
;
Structure prediction by ZEFSAII (Michael W. Deem and Ramdas Pophale) SiO2 
 PCOD8314184
Probable space group: P 4/M B M
;
_chemical_formula_sum "Si O2"
_cell_formula_units_Z 48
_cell_length_a 13.002347
_cell_length_b 13.002347
_cell_length_c 13.445082
_cell_angle_alpha 90.000000
_cell_angle_beta 90.000000
_cell_angle_gamma 90.000000
_cell_volume 2273.039378
_symmetry_space_group_name_H-M "P 4/M B M"
_symmetry_group_IT_number 127
_symmetry_cell_setting 'tetragonal'
loop_
_space_group_symop_operation_xyz
x,y,z
-y,x,z
-x,-y,z
y,-x,z
1/2+x,1/2-y,-z
1/2-x,1/2+y,-z
1/2+y,1/2+x,-z
1/2-y,1/2-x,-z
-x,-y,-z
y,-x,-z
x,y,-z
-y,x,-z
1/2-x,1/2+y,z
1/2+x,1/2-y,z
1/2-y,1/2-x,z
1/2+y,1/2+x,z
loop_
_atom_site_type_symbol
_atom_site_label
_atom_site_fract_x
_atom_site_fract_y
_atom_site_fract_z
Si Si1 0.413869 0.086132 0.729106
Si Si2 0.285779 0.214222 0.114818
Si Si3 0.900614 0.867126 0.783985
Si Si4 0.269112 0.939914 0.610117
O O1 0.362110 0.137891 0.825755
O O2 0.463359 0.179330 0.666452
O O3 0.500000 0.000000 0.758300
O O4 0.298484 0.334530 0.141261
O O5 0.306465 0.193536 0.000000
O O6 0.891339 0.828015 0.669665
O O7 0.020274 0.858109 0.806125
O O8 0.232301 0.974516 0.500000
O O9 0.353204 0.853204 0.599243
#
# Coordination Sequence:
#
# PCOD8314184 Si02
#       4
#     8   8  16  16
#     4  10  21  43  70 101 138 166 228 296 327 399
#     4  12  26  46  71  95 129 182 232 286 345 390
#     4  11  24  44  66  96 138 173 222 281 333 410
#     4  10  20  38  69 102 136 178 216 269 343 403
#
# _framework density 21.117101000000002
#
# number of rings (size 3 to 8) (size 9 to 14) (size 15 to 20)
#    0.000    1.333    5.000    0.500    0.000    5.000 
#    0.000    3.333    0.000    0.000    0.000    0.000 
#    0.000    0.000    0.000    0.000    0.000    0.000 
#
# Total GULP energy -594829.685093 kJ/mol
# GULP energy per Si atom -12392.285106 kJ/mol
# Density = 2.106904 g / cm^3
# Si number density = 21.117101 Si / 1000 Ang^3
#
#
#
# Elastic Constant Matrix: (Units=GPa)
#
#
# Indices 1 2 3 4 5 6 
#
# 1 114.4793 46.4765 65.5162 0.0000 0.0000 0.0000
# 2 46.4765 114.4796 65.5165 0.0000 0.0000 0.0000
# 3 65.5162 65.5165 166.1283 0.0000 0.0000 0.0000
# 4 0.0000 0.0000 0.0000 13.6029 0.0000 0.0000
# 5 0.0000 0.0000 0.0000 0.0000 13.6035 0.0000
# 6 0.0000 0.0000 0.0000 0.0000 0.0000 23.7014
#
#
#
# Elastic Compliance Matrix: (Units=1/GPa)
#
#
# Indices 1 2 3 4 5 6 
#
# 1 0.011928 -0.002777 -0.003609 0.000000 0.000000 0.000000
# 2 -0.002777 0.011928 -0.003609 0.000000 0.000000 0.000000
# 3 -0.003609 -0.003609 0.008866 0.000000 0.000000 0.000000
# 4 0.000000 0.000000 0.000000 0.073514 0.000000 0.000000
# 5 0.000000 0.000000 0.000000 0.000000 0.073510 0.000000
# 6 0.000000 0.000000 0.000000 0.000000 0.000000 0.042192
#
#
# Mechanical properties :
#
#
# Convention : Reuss Voigt Hill
#
# Bulk Modulus (GPa) = 78.54110 83.34506 80.94308
# Shear Modulus (GPa) = 20.31107 24.68678 22.49893
#
# Velocity S-wave (km/s) = 3.10470 3.42283 3.26764
# Velocity P-wave (km/s) = 7.07998 7.42797 7.25606
#
# Compressibility (1/GPa) = 0.01273219
#
# Stress axis : x y z
#
# Youngs Moduli (GPa) = 83.83630 83.83634 112.79204
#
# Poissons Ratio (x) = 0.23283 0.40704
# Poissons Ratio (y) = 0.23283 0.40705
# Poissons Ratio (z) = 0.30255 0.30255
#
# Static dielectric constant tensor:
#      x y z
#    x 4.042650 0.000000 0.000000 
#    y 0.000000 4.042650 0.000000 
#    z 0.000000 0.000000 3.784750 
# 
# 
# High freq. dielectric constant tensor:
#      x y z
#    x 1.836790 0.000000 0.000000 
#    y 0.000000 1.836790 0.000000 
#    z 0.000000 0.000000 1.804610 
# 
# From -- ./inp_files/2763.got.cif
#   From: 2010.03.12/outbox.cif.g09.slc.cpg/sg127_2_cif.got.tgz:2763.got - 2010.04.06 17:03:15.
