data_PCOD8314539
_publ_section_title
;
Structure prediction by ZEFSAII (Michael W. Deem and Ramdas Pophale) SiO2 
 PCOD8314539
Probable space group: P 4/M N C
;
_chemical_formula_sum "Si O2"
_cell_formula_units_Z 96
_cell_length_a 23.996564
_cell_length_b 23.996564
_cell_length_c 8.992953
_cell_angle_alpha 90.000000
_cell_angle_beta 90.000000
_cell_angle_gamma 90.000000
_cell_volume 5178.457844
_symmetry_space_group_name_H-M "P 4/M N C"
_symmetry_group_IT_number 128
_symmetry_cell_setting 'tetragonal'
loop_
_space_group_symop_operation_xyz
x,y,z
-y,x,z
-x,-y,z
y,-x,z
1/2+x,1/2-y,1/2-z
1/2-x,1/2+y,1/2-z
1/2+y,1/2+x,1/2-z
1/2-y,1/2-x,1/2-z
-x,-y,-z
y,-x,-z
x,y,-z
-y,x,-z
1/2-x,1/2+y,1/2+z
1/2+x,1/2-y,1/2+z
1/2-y,1/2-x,1/2+z
1/2+y,1/2+x,1/2+z
loop_
_atom_site_type_symbol
_atom_site_label
_atom_site_fract_x
_atom_site_fract_y
_atom_site_fract_z
Si Si1 0.564544 0.560022 0.176718
Si Si2 0.272455 0.851965 0.170474
Si Si3 0.770321 0.349050 0.172807
Si Si4 0.365338 0.944849 0.171226
Si Si5 0.342120 0.355821 0.175893
Si Si6 0.859253 0.440034 0.824120
O O1 0.502814 0.577989 0.232323
O O2 0.610509 0.602743 0.239972
O O3 0.565369 0.561884 0.000000
O O4 0.297241 0.797241 0.250000
O O5 0.314236 0.903049 0.186972
O O6 0.215772 0.871508 0.247546
O O7 0.261473 0.836223 0.000000
O O8 0.793392 0.293392 0.250000
O O9 0.706760 0.359919 0.220180
O O10 0.806038 0.402734 0.220467
O O11 0.775652 0.337706 0.000000
O O12 0.419996 0.919996 0.250000
O O13 0.347109 0.000062 0.256251
O O14 0.379640 0.957465 0.000000
O O15 0.334853 0.362729 0.000000
O O16 0.914673 0.414673 0.750000
O O17 0.867868 0.444100 0.000000
#
# Coordination Sequence:
#
# PCOD8314539 Si02
#       6
#    16  16  16  16  16  16
#     4   8  15  29  49  74 104 136 171 213 256 297
#     4  10  21  36  53  75 105 137 169 209 257 307
#     4   9  19  33  49  73 104 136 169 208 255 303
#     4  10  21  37  55  76 103 135 173 215 260 308
#     4  10  19  31  52  80 105 133 172 213 254 305
#     4  10  20  35  54  76 105 139 175 215 259 305
#
# _framework density 18.538338
#
# number of rings (size 3 to 8) (size 9 to 14) (size 15 to 20)
#    0.000    2.500    0.000    2.500    0.000    6.333 
#    0.000    5.000    0.000    1.000    0.000    1.167 
#    0.000    0.000    0.000    0.000    0.000    0.000 
#
# Total GULP energy -1190538.833141 kJ/mol
# GULP energy per Si atom -12401.446179 kJ/mol
# Density = 1.849614 g / cm^3
# Si number density = 18.538338 Si / 1000 Ang^3
#
#
#
# Elastic Constant Matrix: (Units=GPa)
#
#
# Indices 1 2 3 4 5 6 
#
# 1 112.1576 56.6387 40.5449 0.0000 0.0000 0.0000
# 2 56.6387 112.1576 40.5449 0.0000 0.0000 0.0000
# 3 40.5449 40.5449 71.1670 0.0000 0.0000 0.0000
# 4 0.0000 0.0000 0.0000 26.3251 0.0000 0.0000
# 5 0.0000 0.0000 0.0000 0.0000 26.3251 0.0000
# 6 0.0000 0.0000 0.0000 0.0000 0.0000 27.3900
#
#
#
# Elastic Compliance Matrix: (Units=1/GPa)
#
#
# Indices 1 2 3 4 5 6 
#
# 1 0.013084 -0.004928 -0.004647 0.000000 0.000000 0.000000
# 2 -0.004928 0.013084 -0.004647 0.000000 0.000000 0.000000
# 3 -0.004647 -0.004647 0.019346 0.000000 0.000000 0.000000
# 4 0.000000 0.000000 0.000000 0.037987 0.000000 0.000000
# 5 0.000000 0.000000 0.000000 0.000000 0.037987 0.000000
# 6 0.000000 0.000000 0.000000 0.000000 0.000000 0.036510
#
#
# Mechanical properties :
#
#
# Convention : Reuss Voigt Hill
#
# Bulk Modulus (GPa) = 58.57606 63.43766 61.00686
# Shear Modulus (GPa) = 26.02383 26.52495 26.27439
#
# Velocity S-wave (km/s) = 3.75078 3.78672 3.76879
# Velocity P-wave (km/s) = 7.10096 7.30842 7.20543
#
# Compressibility (1/GPa) = 0.01707182
#
# Stress axis : x y z
#
# Youngs Moduli (GPa) = 76.42740 76.42740 51.68926
#
# Poissons Ratio (x) = 0.37660 0.24020
# Poissons Ratio (y) = 0.37660 0.24020
# Poissons Ratio (z) = 0.35516 0.35516
#
# Static dielectric constant tensor:
#      x y z
#    x 3.532660 0.000000 0.000000 
#    y 0.000000 3.532660 0.000000 
#    z 0.000000 0.000000 3.328160 
# 
# 
# High freq. dielectric constant tensor:
#      x y z
#    x 1.722310 0.000000 0.000000 
#    y 0.000000 1.722310 0.000000 
#    z 0.000000 0.000000 1.705630 
# 
# From -- ./inp_files/1436.got.cif
#   From: 2010.03.12/outbox.cif.g09.slc.cpg/sg128_1_cif.got.tgz:1436.got - 2010.04.06 17:11:05.
