data_PCOD8314711
_publ_section_title
;
Structure prediction by ZEFSAII (Michael W. Deem and Ramdas Pophale) SiO2 
 PCOD8314711
Probable space group: P 4/M N C
;
_chemical_formula_sum "Si O2"
_cell_formula_units_Z 96
_cell_length_a 22.639631
_cell_length_b 22.639631
_cell_length_c 9.245324
_cell_angle_alpha 90.000000
_cell_angle_beta 90.000000
_cell_angle_gamma 90.000000
_cell_volume 4738.717552
_symmetry_space_group_name_H-M "P 4/M N C"
_symmetry_group_IT_number 128
_symmetry_cell_setting 'tetragonal'
loop_
_space_group_symop_operation_xyz
x,y,z
-y,x,z
-x,-y,z
y,-x,z
1/2+x,1/2-y,1/2-z
1/2-x,1/2+y,1/2-z
1/2+y,1/2+x,1/2-z
1/2-y,1/2-x,1/2-z
-x,-y,-z
y,-x,-z
x,y,-z
-y,x,-z
1/2-x,1/2+y,1/2+z
1/2+x,1/2-y,1/2+z
1/2-y,1/2-x,1/2+z
1/2+y,1/2+x,1/2+z
loop_
_atom_site_type_symbol
_atom_site_label
_atom_site_fract_x
_atom_site_fract_y
_atom_site_fract_z
Si Si1 0.660428 0.284437 0.339655
Si Si2 0.329651 0.911247 0.828413
Si Si3 0.579657 0.554341 0.000000
Si Si4 0.014834 0.727001 0.337498
Si Si5 0.046475 0.159080 0.751777
Si Si6 0.903373 0.994984 0.000000
Si Si7 0.651416 0.764193 0.172402
O O1 0.689373 0.282128 0.500000
O O2 0.637883 0.220012 0.288415
O O3 0.600712 0.322111 0.351985
O O4 0.706678 0.312685 0.228019
O O5 0.389514 0.889514 0.750000
O O6 0.314883 0.977072 0.769375
O O7 0.338613 0.916129 0.000000
O O8 0.515976 0.581784 0.000000
O O9 0.611269 0.575388 0.855102
O O10 0.014284 0.700551 0.500000
O O11 0.082278 0.735854 0.283520
O O12 0.982585 0.789882 0.343423
O O13 0.994273 0.135144 0.854691
O O14 0.944011 0.938801 0.000000
O O15 0.678498 0.821503 0.250000
O O16 0.659275 0.766954 0.000000
#
# Coordination Sequence:
#
# PCOD8314711 Si02
#       7
#    16  16   8  16  16   8  16
#     4  10  22  37  57  87 119 159 199 245 293 348
#     4  10  21  38  62  91 123 157 196 240 291 349
#     4  11  24  36  52  76 112 162 212 259 303 343
#     4  10  23  40  60  87 117 152 195 241 296 358
#     4  11  22  37  57  82 114 156 207 253 299 348
#     4  11  24  38  52  76 114 162 212 263 305 341
#     4  11  25  42  63  90 119 155 194 242 300 355
#
# _framework density 20.258645000000001
#
# number of rings (size 3 to 8) (size 9 to 14) (size 15 to 20)
#    0.000    1.500    1.667    2.500    7.000    5.333 
#    0.000    0.000    0.000    0.500    0.000    3.500 
#    0.000    0.000    0.000    0.000    0.000    0.000 
#
# Total GULP energy -1190109.865361 kJ/mol
# GULP energy per Si atom -12396.977764 kJ/mol
# Density = 2.021254 g / cm^3
# Si number density = 20.258645 Si / 1000 Ang^3
#
#
#
# Elastic Constant Matrix: (Units=GPa)
#
#
# Indices 1 2 3 4 5 6 
#
# 1 72.8691 24.0417 28.9224 0.0000 0.0000 0.0000
# 2 24.0417 72.8643 28.9226 0.0000 0.0000 0.0000
# 3 28.9224 28.9226 110.2554 0.0000 0.0000 0.0000
# 4 0.0000 0.0000 0.0000 32.7178 0.0000 0.0000
# 5 0.0000 0.0000 0.0000 0.0000 32.7178 0.0000
# 6 0.0000 0.0000 0.0000 0.0000 0.0000 146.3555
#
#
#
# Elastic Compliance Matrix: (Units=1/GPa)
#
#
# Indices 1 2 3 4 5 6 
#
# 1 0.016357 -0.004123 -0.003209 0.000000 0.000000 0.000000
# 2 -0.004123 0.016359 -0.003210 0.000000 0.000000 0.000000
# 3 -0.003209 -0.003210 0.010754 0.000000 0.000000 0.000000
# 4 0.000000 0.000000 0.000000 0.030564 0.000000 0.000000
# 5 0.000000 0.000000 0.000000 0.000000 0.030564 0.000000
# 6 0.000000 0.000000 0.000000 0.000000 0.000000 0.006833
#
#
# Mechanical properties :
#
#
# Convention : Reuss Voigt Hill
#
# Bulk Modulus (GPa) = 44.67204 46.64025 45.65615
# Shear Modulus (GPa) = 35.72006 53.96503 44.84254
#
# Velocity S-wave (km/s) = 4.20360 5.16680 4.70989
# Velocity P-wave (km/s) = 6.75715 7.65943 7.22239
#
# Compressibility (1/GPa) = 0.02238537
#
# Stress axis : x y z
#
# Youngs Moduli (GPa) = 61.13434 61.12972 92.99150
#
# Poissons Ratio (x) = 0.25206 0.29843
# Poissons Ratio (y) = 0.25207 0.29847
# Poissons Ratio (z) = 0.19620 0.19620
#
# Static dielectric constant tensor:
#      x y z
#    x 3.594380 0.000000 0.000000 
#    y 0.000000 3.594380 0.000000 
#    z 0.000000 0.000000 3.631590 
# 
# 
# High freq. dielectric constant tensor:
#      x y z
#    x 1.776660 0.000000 0.000000 
#    y 0.000000 1.776660 0.000000 
#    z 0.000000 0.000000 1.804940 
# 
# From -- ./inp_files/1569.got.cif
#   From: 2010.03.12/outbox.cif.g09.slc.cpg/sg128_1_cif.got.tgz:1569.got - 2010.04.06 17:11:05.
