data_PCOD8314177
_publ_section_title
;
Structure prediction by ZEFSAII (Michael W. Deem and Ramdas Pophale) SiO2 
 PCOD8314177
Probable space group: P 4/M B M
;
_chemical_formula_sum "Si O2"
_cell_formula_units_Z 88
_cell_length_a 14.829841
_cell_length_b 14.829841
_cell_length_c 20.744966
_cell_angle_alpha 90.000000
_cell_angle_beta 90.000000
_cell_angle_gamma 90.000000
_cell_volume 4562.319721
_symmetry_space_group_name_H-M "P 4/M B M"
_symmetry_group_IT_number 127
_symmetry_cell_setting 'tetragonal'
loop_
_space_group_symop_operation_xyz
x,y,z
-y,x,z
-x,-y,z
y,-x,z
1/2+x,1/2-y,-z
1/2-x,1/2+y,-z
1/2+y,1/2+x,-z
1/2-y,1/2-x,-z
-x,-y,-z
y,-x,-z
x,y,-z
-y,x,-z
1/2-x,1/2+y,z
1/2+x,1/2-y,z
1/2-y,1/2-x,z
1/2+y,1/2+x,z
loop_
_atom_site_type_symbol
_atom_site_label
_atom_site_fract_x
_atom_site_fract_y
_atom_site_fract_z
Si Si1 0.759282 0.000496 0.189996
Si Si2 0.559725 0.365538 0.573717
Si Si3 0.670419 0.676991 0.868353
Si Si4 0.879810 0.908784 0.000000
Si Si5 0.430909 0.069092 0.186945
Si Si6 0.440322 0.787449 0.330457
Si Si7 0.069316 0.569316 0.340219
O O1 0.779492 0.083166 0.143347
O O2 0.759305 0.036852 0.262943
O O3 0.824814 0.914144 0.182126
O O4 0.666694 0.959182 0.163236
O O5 0.616811 0.454799 0.588217
O O6 0.573286 0.335376 0.500000
O O7 0.596054 0.286662 0.619826
O O8 0.738879 0.761122 0.857975
O O9 0.630114 0.675582 0.939762
O O10 0.982994 0.875547 0.000000
O O11 0.435848 0.064153 0.263643
O O12 0.500000 0.000000 0.154994
O O13 0.364380 0.864380 0.319766
O O14 0.534022 0.830886 0.359681
O O15 0.000000 0.500000 0.372900
#
# Coordination Sequence:
#
# PCOD8314177 Si02
#       7
#    16  16  16   8   8  16   8
#     4  11  23  37  60  94 127 160 200 252 311 371
#     4   9  20  40  60  80 115 165 209 248 301 359
#     4  12  24  42  65  92 124 163 211 255 305 374
#     4  11  23  44  66  84 119 167 206 254 318 372
#     4   9  16  36  58  80 120 163 195 237 308 369
#     4  10  20  37  60  90 123 154 195 248 305 360
#     4   7  14  30  53  78 112 152 180 222 293 357
#
# _framework density 19.288433999999999
#
# number of rings (size 3 to 8) (size 9 to 14) (size 15 to 20)
#    0.000    1.909    2.727    3.545    2.545    0.727 
#    1.636    0.455    0.000    1.636    0.000    3.818 
#    0.000    0.000    0.000    0.000    0.000    0.000 
#
# Total GULP energy -1090522.841239 kJ/mol
# GULP energy per Si atom -12392.305014 kJ/mol
# Density = 1.924453 g / cm^3
# Si number density = 19.288434 Si / 1000 Ang^3
#
#
#
# Elastic Constant Matrix: (Units=GPa)
#
#
# Indices 1 2 3 4 5 6 
#
# 1 86.8634 25.6956 38.3773 0.0000 0.0000 0.0000
# 2 25.6956 86.8634 38.3773 0.0000 0.0000 0.0000
# 3 38.3773 38.3773 78.7194 0.0000 0.0000 0.0000
# 4 0.0000 0.0000 0.0000 24.2800 0.0000 0.0000
# 5 0.0000 0.0000 0.0000 0.0000 24.2800 0.0000
# 6 0.0000 0.0000 0.0000 0.0000 0.0000 29.3571
#
#
#
# Elastic Compliance Matrix: (Units=1/GPa)
#
#
# Indices 1 2 3 4 5 6 
#
# 1 0.014829 -0.001520 -0.006488 0.000000 0.000000 0.000000
# 2 -0.001520 0.014829 -0.006488 0.000000 0.000000 0.000000
# 3 -0.006488 -0.006488 0.019030 0.000000 0.000000 0.000000
# 4 0.000000 0.000000 0.000000 0.041186 0.000000 0.000000
# 5 0.000000 0.000000 0.000000 0.000000 0.041186 0.000000
# 6 0.000000 0.000000 0.000000 0.000000 0.000000 0.034063
#
#
# Mechanical properties :
#
#
# Convention : Reuss Voigt Hill
#
# Bulk Modulus (GPa) = 50.77697 50.81625 50.79661
# Shear Modulus (GPa) = 24.91536 25.58318 25.24927
#
# Velocity S-wave (km/s) = 3.59796 3.64586 3.62199
# Velocity P-wave (km/s) = 6.60626 6.64272 6.62451
#
# Compressibility (1/GPa) = 0.01969397
#
# Stress axis : x y z
#
# Youngs Moduli (GPa) = 67.43763 67.43763 52.54972
#
# Poissons Ratio (x) = 0.10250 0.34095
# Poissons Ratio (y) = 0.10250 0.34095
# Poissons Ratio (z) = 0.43755 0.43755
#
# Static dielectric constant tensor:
#      x y z
#    x 3.662020 0.000000 0.000000 
#    y 0.000000 3.662020 0.000000 
#    z 0.000000 0.000000 3.207170 
# 
# 
# High freq. dielectric constant tensor:
#      x y z
#    x 1.755350 0.000000 0.000000 
#    y 0.000000 1.755350 0.000000 
#    z 0.000000 0.000000 1.724950 
# 
# From -- ./inp_files/5727.got.cif
#   From: 2010.03.12/outbox.cif.g09.slc.cpg/sg127_3_cif.got.tgz:5727.got - 2010.04.06 17:03:15.
