data_PCOD8314727
_publ_section_title
;
Structure prediction by ZEFSAII (Michael W. Deem and Ramdas Pophale) SiO2 
 PCOD8314727
Probable space group: P 4/M N C
;
_chemical_formula_sum "Si O2"
_cell_formula_units_Z 120
_cell_length_a 14.532600
_cell_length_b 14.532600
_cell_length_c 32.305501
_cell_angle_alpha 90.000000
_cell_angle_beta 90.000000
_cell_angle_gamma 90.000000
_cell_volume 6822.807539
_symmetry_space_group_name_H-M "P 4/M N C"
_symmetry_group_IT_number 128
_symmetry_cell_setting 'tetragonal'
loop_
_space_group_symop_operation_xyz
x,y,z
-y,x,z
-x,-y,z
y,-x,z
1/2+x,1/2-y,1/2-z
1/2-x,1/2+y,1/2-z
1/2+y,1/2+x,1/2-z
1/2-y,1/2-x,1/2-z
-x,-y,-z
y,-x,-z
x,y,-z
-y,x,-z
1/2-x,1/2+y,1/2+z
1/2+x,1/2-y,1/2+z
1/2-y,1/2-x,1/2+z
1/2+y,1/2+x,1/2+z
loop_
_atom_site_type_symbol
_atom_site_label
_atom_site_fract_x
_atom_site_fract_y
_atom_site_fract_z
Si Si1 0.940882 0.860786 0.744258
Si Si2 0.358264 0.441332 0.333589
Si Si3 0.075510 0.754015 0.047627
Si Si4 0.043422 0.595772 0.451360
Si Si5 0.724335 0.618098 0.415377
Si Si6 0.140206 0.938982 0.654803
Si Si7 0.426826 0.634012 0.000000
Si Si8 0.760987 0.596585 0.077122
O O1 0.920476 0.810667 0.788282
O O2 0.919188 0.811898 0.700096
O O3 0.047541 0.882276 0.744236
O O4 0.451189 0.382130 0.338544
O O5 0.282878 0.413118 0.367588
O O6 0.097304 0.649842 0.060833
O O7 0.136107 0.820348 0.075424
O O8 0.969116 0.777096 0.054490
O O9 0.100285 0.770063 0.000000
O O10 0.026323 0.609190 0.500000
O O11 0.000000 0.500000 0.436194
O O12 0.995826 0.679882 0.427757
O O13 0.816772 0.672446 0.424568
O O14 0.211458 0.905069 0.620988
O O15 0.046669 0.881322 0.649455
O O16 0.376299 0.536368 0.000000
O O17 0.393494 0.686713 0.040747
#
# Coordination Sequence:
#
# PCOD8314727 Si02
#       8
#    16  16  16  16  16  16   8  16
#     4   7  12  26  53  78 103 140 176 215 280 342
#     4   9  16  32  54  79 109 142 179 230 282 329
#     4  11  25  39  58  78 114 152 190 238 277 325
#     4  10  21  40  58  75 104 151 194 228 267 323
#     4  12  24  37  54  86 112 147 194 234 284 326
#     4   9  18  34  54  82 113 139 173 229 289 341
#     4  11  26  42  57  82 112 145 184 243 303 334
#     4  12  24  35  58  82 112 147 191 227 276 347
#
# _framework density 17.588066000000001
#
# number of rings (size 3 to 8) (size 9 to 14) (size 15 to 20)
#    0.000    1.933    3.333    2.800    5.600    1.333 
#    0.000    1.333    0.000    0.000    0.000    0.933 
#    0.000    0.000    0.000    0.000    0.000    0.000 
#
# Total GULP energy -1487397.230593 kJ/mol
# GULP energy per Si atom -12394.976922 kJ/mol
# Density = 1.754804 g / cm^3
# Si number density = 17.588066 Si / 1000 Ang^3
#
#
#
# Elastic Constant Matrix: (Units=GPa)
#
#
# Indices 1 2 3 4 5 6 
#
# 1 66.9493 28.3605 27.1715 0.0000 0.0000 0.0000
# 2 28.3605 66.9493 27.1715 0.0000 0.0000 0.0000
# 3 27.1715 27.1715 112.2343 0.0000 0.0000 0.0000
# 4 0.0000 0.0000 0.0000 6.6650 0.0000 0.0000
# 5 0.0000 0.0000 0.0000 0.0000 6.6650 0.0000
# 6 0.0000 0.0000 0.0000 0.0000 0.0000 27.4379
#
#
#
# Elastic Compliance Matrix: (Units=1/GPa)
#
#
# Indices 1 2 3 4 5 6 
#
# 1 0.019043 -0.006871 -0.002947 0.000000 0.000000 0.000000
# 2 -0.006871 0.019043 -0.002947 0.000000 0.000000 0.000000
# 3 -0.002947 -0.002947 0.010337 0.000000 0.000000 0.000000
# 4 0.000000 0.000000 0.000000 0.150037 0.000000 0.000000
# 5 0.000000 0.000000 0.000000 0.000000 0.150037 0.000000
# 6 0.000000 0.000000 0.000000 0.000000 0.000000 0.036446
#
#
# Mechanical properties :
#
#
# Convention : Reuss Voigt Hill
#
# Bulk Modulus (GPa) = 43.67968 45.72666 44.70317
# Shear Modulus (GPa) = 11.95877 19.04888 15.50382
#
# Velocity S-wave (km/s) = 2.61039 3.29455 2.97222
# Velocity P-wave (km/s) = 5.82874 6.36610 6.10334
#
# Compressibility (1/GPa) = 0.02289394
#
# Stress axis : x y z
#
# Youngs Moduli (GPa) = 52.51193 52.51193 96.74182
#
# Poissons Ratio (x) = 0.36081 0.28509
# Poissons Ratio (y) = 0.36081 0.28509
# Poissons Ratio (z) = 0.15475 0.15475
#
# Static dielectric constant tensor:
#      x y z
#    x 3.114330 0.000000 0.000000 
#    y 0.000000 3.114330 0.000000 
#    z 0.000000 0.000000 3.605790 
# 
# 
# High freq. dielectric constant tensor:
#      x y z
#    x 1.663200 0.000000 0.000000 
#    y 0.000000 1.663200 0.000000 
#    z 0.000000 0.000000 1.690280 
# 
# From -- ./inp_files/7424.got.cif
#   From: 2010.03.12/outbox.cif.g09.slc.cpg/sg128_4_cif.got.tgz:7424.got - 2010.04.06 17:11:05.
