data_PCOD8314841
_publ_section_title
;
Structure prediction by ZEFSAII (Michael W. Deem and Ramdas Pophale) SiO2 
 PCOD8314841
Probable space group: P 4/M N C
;
_chemical_formula_sum "Si O2"
_cell_formula_units_Z 96
_cell_length_a 14.047523
_cell_length_b 14.047523
_cell_length_c 21.379794
_cell_angle_alpha 90.000000
_cell_angle_beta 90.000000
_cell_angle_gamma 90.000000
_cell_volume 4218.936803
_symmetry_space_group_name_H-M "P 4/M N C"
_symmetry_group_IT_number 128
_symmetry_cell_setting 'tetragonal'
loop_
_space_group_symop_operation_xyz
x,y,z
-y,x,z
-x,-y,z
y,-x,z
1/2+x,1/2-y,1/2-z
1/2-x,1/2+y,1/2-z
1/2+y,1/2+x,1/2-z
1/2-y,1/2-x,1/2-z
-x,-y,-z
y,-x,-z
x,y,-z
-y,x,-z
1/2-x,1/2+y,1/2+z
1/2+x,1/2-y,1/2+z
1/2-y,1/2-x,1/2+z
1/2+y,1/2+x,1/2+z
loop_
_atom_site_type_symbol
_atom_site_label
_atom_site_fract_x
_atom_site_fract_y
_atom_site_fract_z
Si Si1 0.709775 0.610639 0.882526
Si Si2 0.217939 0.383656 0.336575
Si Si3 0.222794 0.585649 0.070849
Si Si4 0.127455 0.919052 0.255564
Si Si5 0.078712 0.128410 0.072653
Si Si6 0.593900 0.937907 0.821443
O O1 0.806772 0.634939 0.844248
O O2 0.729658 0.518818 0.925134
O O3 0.667820 0.697383 0.923056
O O4 0.632034 0.586329 0.830240
O O5 0.284031 0.364187 0.276104
O O6 0.283175 0.368657 0.397151
O O7 0.180201 0.490770 0.333051
O O8 0.144947 0.598628 0.126088
O O9 0.179282 0.594910 0.000000
O O10 0.029186 0.870660 0.233960
O O11 0.969019 0.127970 0.094214
O O12 0.088123 0.141311 0.000000
O O13 0.602170 0.897831 0.750000
O O14 0.500000 0.000000 0.830034
#
# Coordination Sequence:
#
# PCOD8314841 Si02
#       6
#    16  16  16  16  16  16
#     4  12  26  48  69 103 140 189 245 300 355 415
#     4  12  25  41  70 104 139 185 227 294 356 441
#     4  12  28  50  75 105 141 190 247 300 352 422
#     4  11  24  43  71 104 142 182 237 299 362 427
#     4   9  20  40  63  92 136 181 226 284 353 426
#     4  11  26  49  73 103 145 186 226 284 366 437
#
# _framework density 22.754546999999999
#
# number of rings (size 3 to 8) (size 9 to 14) (size 15 to 20)
#    0.000    0.833    3.333    3.500    7.000    4.000 
#    0.000    0.833    0.000    0.000    0.000    0.000 
#    0.000    0.000    0.000    0.000    0.000    0.000 
#
# Total GULP energy -1190079.017185 kJ/mol
# GULP energy per Si atom -12396.656429 kJ/mol
# Density = 2.270276 g / cm^3
# Si number density = 22.754547 Si / 1000 Ang^3
#
#
#
# Elastic Constant Matrix: (Units=GPa)
#
#
# Indices 1 2 3 4 5 6 
#
# 1 73.0623 11.0511 37.3478 0.0000 0.0000 0.0000
# 2 11.0511 73.0623 37.3477 0.0000 0.0000 0.0000
# 3 37.3478 37.3477 143.4711 0.0000 0.0000 0.0000
# 4 0.0000 0.0000 0.0000 24.1487 0.0000 0.0000
# 5 0.0000 0.0000 0.0000 0.0000 24.1486 0.0000
# 6 0.0000 0.0000 0.0000 0.0000 0.0000 36.5353
#
#
#
# Elastic Compliance Matrix: (Units=1/GPa)
#
#
# Indices 1 2 3 4 5 6 
#
# 1 0.015795 -0.000331 -0.004025 0.000000 0.000000 0.000000
# 2 -0.000331 0.015795 -0.004025 0.000000 0.000000 0.000000
# 3 -0.004025 -0.004025 0.009066 0.000000 0.000000 0.000000
# 4 0.000000 0.000000 0.000000 0.041410 0.000000 0.000000
# 5 0.000000 0.000000 0.000000 0.000000 0.041410 0.000000
# 6 0.000000 0.000000 0.000000 0.000000 0.000000 0.027371
#
#
# Mechanical properties :
#
#
# Convention : Reuss Voigt Hill
#
# Bulk Modulus (GPa) = 41.85662 51.23209 46.54436
# Shear Modulus (GPa) = 28.47799 30.55647 29.51723
#
# Velocity S-wave (km/s) = 3.54153 3.66850 3.60558
# Velocity P-wave (km/s) = 5.92942 6.36458 6.15085
#
# Compressibility (1/GPa) = 0.02389108
#
# Stress axis : x y z
#
# Youngs Moduli (GPa) = 63.31224 63.31227 110.30502
#
# Poissons Ratio (x) = 0.02098 0.44402
# Poissons Ratio (y) = 0.02098 0.44402
# Poissons Ratio (z) = 0.25485 0.25485
#
# Static dielectric constant tensor:
#      x y z
#    x 4.073510 0.000000 0.000000 
#    y 0.000000 4.073510 0.000000 
#    z 0.000000 0.000000 4.050410 
# 
# 
# High freq. dielectric constant tensor:
#      x y z
#    x 1.898820 0.000000 0.000000 
#    y 0.000000 1.898820 0.000000 
#    z 0.000000 0.000000 1.903250 
# 
# From -- ./inp_files/5747.got.cif
#   From: 2010.03.12/outbox.cif.g09.slc.cpg/sg128_3_cif.got.tgz:5747.got - 2010.04.06 17:11:05.
