data_PCOD8314949
_publ_section_title
;
Structure prediction by ZEFSAII (Michael W. Deem and Ramdas Pophale) SiO2 
 PCOD8314949
Probable space group: P 4/N M M
;
_chemical_formula_sum "Si O2"
_cell_formula_units_Z 104
_cell_length_a 20.372794
_cell_length_b 20.372794
_cell_length_c 15.056792
_cell_angle_alpha 90.000000
_cell_angle_beta 90.000000
_cell_angle_gamma 90.000000
_cell_volume 6249.332592
_symmetry_space_group_name_H-M "P 4/N M M"
_symmetry_group_IT_number 129
_symmetry_cell_setting 'tetragonal'
loop_
_space_group_symop_operation_xyz
x,y,z
1/2-y,x,z
1/2-x,1/2-y,z
y,1/2-x,z
1/2+x,-y,-z
-x,1/2+y,-z
1/2+y,1/2+x,-z
-y,-x,-z
-x,-y,-z
1/2+y,-x,-z
1/2+x,1/2+y,-z
-y,1/2+x,-z
1/2-x,y,z
x,1/2-y,z
1/2-y,1/2-x,z
y,x,z
loop_
_atom_site_type_symbol
_atom_site_label
_atom_site_fract_x
_atom_site_fract_y
_atom_site_fract_z
Si Si1 0.824408 0.324408 0.500000
Si Si2 0.971176 0.418528 0.750492
Si Si3 0.065175 0.324764 0.446734
Si Si4 0.868135 0.523036 0.741216
Si Si5 0.511321 0.401505 0.947035
Si Si6 0.322604 0.431550 0.078783
Si Si7 0.824825 0.041312 0.408670
O O1 0.832150 0.250000 0.459784
O O2 0.880952 0.335406 0.573328
O O3 0.899949 0.451064 0.734760
O O4 0.982556 0.364819 0.675722
O O5 0.029081 0.470920 0.742606
O O6 0.971277 0.382463 0.846058
O O7 0.087856 0.250000 0.467124
O O8 0.126533 0.373468 0.462678
O O9 0.039700 0.326476 0.345831
O O10 0.003675 0.346587 0.507651
O O11 0.927316 0.572685 0.753853
O O12 0.823691 0.527931 0.829015
O O13 0.462299 0.462299 0.945780
O O14 0.576614 0.423387 0.000000
O O15 0.479401 0.340270 0.997454
O O16 0.250000 0.404743 0.062134
O O17 0.369012 0.369012 0.082616
O O18 0.750000 0.026790 0.385858
#
# Coordination Sequence:
#
# PCOD8314949 Si02
#       7
#     8  16  16  16  16  16  16
#     4   9  18  34  53  70  94 130 163 194 244 307
#     4  10  18  30  51  73  97 127 158 200 252 296
#     4  10  20  33  48  69 101 136 171 209 246 291
#     4   9  17  29  47  70  93 123 161 201 246 295
#     4   9  16  30  50  69  91 122 160 201 241 284
#     4  10  19  31  48  72 101 131 164 200 242 294
#     4  10  20  32  48  72  98 125 161 207 247 289
#
# _framework density 16.641777000000001
#
# number of rings (size 3 to 8) (size 9 to 14) (size 15 to 20)
#    0.000    2.385    1.538    1.846    0.000    0.923 
#    0.000    3.846    0.000    2.769    0.000    0.000 
#    0.000    4.000    0.000    0.000    0.000    0.000 
#
# Total GULP energy -1289142.303076 kJ/mol
# GULP energy per Si atom -12395.599068 kJ/mol
# Density = 1.660390 g / cm^3
# Si number density = 16.641777 Si / 1000 Ang^3
#
#
#
# Elastic Constant Matrix: (Units=GPa)
#
#
# Indices 1 2 3 4 5 6 
#
# 1 77.0188 42.0644 48.1186 0.0000 0.0000 0.0000
# 2 42.0644 77.0191 48.1187 0.0000 0.0000 0.0000
# 3 48.1186 48.1187 112.1509 0.0000 0.0000 0.0000
# 4 0.0000 0.0000 0.0000 20.0279 0.0000 0.0000
# 5 0.0000 0.0000 0.0000 0.0000 20.0279 0.0000
# 6 0.0000 0.0000 0.0000 0.0000 0.0000 14.7516
#
#
#
# Elastic Compliance Matrix: (Units=1/GPa)
#
#
# Indices 1 2 3 4 5 6 
#
# 1 0.020732 -0.007877 -0.005515 0.000000 0.000000 0.000000
# 2 -0.007877 0.020732 -0.005515 0.000000 0.000000 0.000000
# 3 -0.005515 -0.005515 0.013649 0.000000 0.000000 0.000000
# 4 0.000000 0.000000 0.000000 0.049930 0.000000 0.000000
# 5 0.000000 0.000000 0.000000 0.000000 0.049930 0.000000
# 6 0.000000 0.000000 0.000000 0.000000 0.000000 0.067789
#
#
# Mechanical properties :
#
#
# Convention : Reuss Voigt Hill
#
# Bulk Modulus (GPa) = 57.81238 60.31027 59.06132
# Shear Modulus (GPa) = 18.77272 19.48726 19.12999
#
# Velocity S-wave (km/s) = 3.36229 3.42568 3.39413
# Velocity P-wave (km/s) = 7.06314 7.20874 7.13632
#
# Compressibility (1/GPa) = 0.01729733
#
# Stress axis : x y z
#
# Youngs Moduli (GPa) = 48.23532 48.23543 73.26380
#
# Poissons Ratio (x) = 0.37995 0.40407
# Poissons Ratio (y) = 0.37995 0.40408
# Poissons Ratio (z) = 0.26603 0.26604
#
# Static dielectric constant tensor:
#      x y z
#    x 3.020280 0.000000 0.000000 
#    y 0.000000 3.020280 0.000000 
#    z 0.000000 0.000000 3.216630 
# 
# 
# High freq. dielectric constant tensor:
#      x y z
#    x 1.627980 0.000000 0.000000 
#    y 0.000000 1.627980 0.000000 
#    z 0.000000 0.000000 1.642380 
# 
# From -- ./inp_files/4984.got.cif
#   From: 2010.03.12/outbox.cif.g09.slc.cpg/sg129_3_cif.got.tgz:4984.got - 2010.04.06 17:19:44.
