data_PCOD8314216
_publ_section_title
;
Structure prediction by ZEFSAII (Michael W. Deem and Ramdas Pophale) SiO2 
 PCOD8314216
Probable space group: P 4/M B M
;
_chemical_formula_sum "Si O2"
_cell_formula_units_Z 88
_cell_length_a 15.172301
_cell_length_b 15.172301
_cell_length_c 21.618608
_cell_angle_alpha 90.000000
_cell_angle_beta 90.000000
_cell_angle_gamma 90.000000
_cell_volume 4976.575839
_symmetry_space_group_name_H-M "P 4/M B M"
_symmetry_group_IT_number 127
_symmetry_cell_setting 'tetragonal'
loop_
_space_group_symop_operation_xyz
x,y,z
-y,x,z
-x,-y,z
y,-x,z
1/2+x,1/2-y,-z
1/2-x,1/2+y,-z
1/2+y,1/2+x,-z
1/2-y,1/2-x,-z
-x,-y,-z
y,-x,-z
x,y,-z
-y,x,-z
1/2-x,1/2+y,z
1/2+x,1/2-y,z
1/2-y,1/2-x,z
1/2+y,1/2+x,z
loop_
_atom_site_type_symbol
_atom_site_label
_atom_site_fract_x
_atom_site_fract_y
_atom_site_fract_z
Si Si1 0.970184 0.265110 0.847006
Si Si2 0.496266 0.139689 0.722129
Si Si3 0.270662 0.373666 0.680256
Si Si4 0.591144 0.387702 0.432045
Si Si5 0.571629 0.928372 0.926912
Si Si6 0.694982 0.656117 0.817962
O O1 0.956164 0.332031 0.903231
O O2 0.895172 0.189823 0.848657
O O3 0.956872 0.317615 0.783375
O O4 0.066765 0.222335 0.853322
O O5 0.577245 0.077245 0.742711
O O6 0.534511 0.214726 0.676470
O O7 0.418253 0.081748 0.690006
O O8 0.208793 0.291208 0.673384
O O9 0.335853 0.363770 0.623246
O O10 0.321412 0.367881 0.745712
O O11 0.621614 0.487212 0.425223
O O12 0.619812 0.351605 0.500000
O O13 0.500000 0.000000 0.904150
O O14 0.576233 0.923768 0.000000
O O15 0.772405 0.727596 0.825466
#
# Coordination Sequence:
#
# PCOD8314216 Si02
#       6
#    16  16  16  16   8  16
#     4  11  20  36  57  79 123 151 179 238 287 333
#     4   9  16  29  51  75 101 143 176 217 281 328
#     4   9  19  31  48  78 106 130 176 224 272 338
#     4   9  19  35  51  66  94 138 180 218 263 322
#     4  11  22  38  64  92 110 151 214 244 266 326
#     4  10  21  35  54  87 118 152 186 230 295 350
#
# _framework density 17.682839999999999
#
# number of rings (size 3 to 8) (size 9 to 14) (size 15 to 20)
#    0.000    2.273    1.818    3.273    5.091    0.727 
#    0.000    0.909    0.000    1.636    0.000    3.818 
#    0.000    0.000    0.000    0.000    0.000    0.000 
#
# Total GULP energy -1090868.936311 kJ/mol
# GULP energy per Si atom -12396.237913 kJ/mol
# Density = 1.764259 g / cm^3
# Si number density = 17.682840 Si / 1000 Ang^3
#
#
#
# Elastic Constant Matrix: (Units=GPa)
#
#
# Indices 1 2 3 4 5 6 
#
# 1 85.4926 38.1275 31.2379 0.0000 0.0000 0.0000
# 2 38.1275 85.4925 31.2377 0.0000 0.0000 0.0000
# 3 31.2379 31.2377 70.1185 0.0000 0.0000 0.0000
# 4 0.0000 0.0000 0.0000 22.1429 0.0000 0.0000
# 5 0.0000 0.0000 0.0000 0.0000 22.1430 0.0000
# 6 0.0000 0.0000 0.0000 0.0000 0.0000 30.3738
#
#
#
# Elastic Compliance Matrix: (Units=1/GPa)
#
#
# Indices 1 2 3 4 5 6 
#
# 1 0.015776 -0.005336 -0.004651 0.000000 0.000000 0.000000
# 2 -0.005336 0.015776 -0.004651 0.000000 0.000000 0.000000
# 3 -0.004651 -0.004651 0.018406 0.000000 0.000000 0.000000
# 4 0.000000 0.000000 0.000000 0.045161 0.000000 0.000000
# 5 0.000000 0.000000 0.000000 0.000000 0.045161 0.000000
# 6 0.000000 0.000000 0.000000 0.000000 0.000000 0.032923
#
#
# Mechanical properties :
#
#
# Convention : Reuss Voigt Hill
#
# Bulk Modulus (GPa) = 48.35257 49.14555 48.74906
# Shear Modulus (GPa) = 23.88073 24.29862 24.08968
#
# Velocity S-wave (km/s) = 3.67891 3.71096 3.69497
# Velocity P-wave (km/s) = 6.74163 6.79814 6.76994
#
# Compressibility (1/GPa) = 0.02068142
#
# Stress axis : x y z
#
# Youngs Moduli (GPa) = 63.38653 63.38657 54.33144
#
# Poissons Ratio (x) = 0.33826 0.25269
# Poissons Ratio (y) = 0.33826 0.25269
# Poissons Ratio (z) = 0.29481 0.29481
#
# Static dielectric constant tensor:
#      x y z
#    x 3.352880 0.000000 0.000000 
#    y 0.000000 3.352880 0.000000 
#    z 0.000000 0.000000 3.047620 
# 
# 
# High freq. dielectric constant tensor:
#      x y z
#    x 1.686690 0.000000 0.000000 
#    y 0.000000 1.686690 0.000000 
#    z 0.000000 0.000000 1.648160 
# 
# From -- ./inp_files/5677.got.cif
#   From: 2010.03.12/outbox.cif.g09.slc.cpg/sg127_3_cif.got.tgz:5677.got - 2010.04.06 17:03:15.
