data_PCOD8314039
_publ_section_title
;
Structure prediction by ZEFSAII (Michael W. Deem and Ramdas Pophale) SiO2 
 PCOD8314039
Probable space group: P 4/M B M
;
_chemical_formula_sum "Si O2"
_cell_formula_units_Z 96
_cell_length_a 14.845820
_cell_length_b 14.845820
_cell_length_c 21.931079
_cell_angle_alpha 90.000000
_cell_angle_beta 90.000000
_cell_angle_gamma 90.000000
_cell_volume 4833.574096
_symmetry_space_group_name_H-M "P 4/M B M"
_symmetry_group_IT_number 127
_symmetry_cell_setting 'tetragonal'
loop_
_space_group_symop_operation_xyz
x,y,z
-y,x,z
-x,-y,z
y,-x,z
1/2+x,1/2-y,-z
1/2-x,1/2+y,-z
1/2+y,1/2+x,-z
1/2-y,1/2-x,-z
-x,-y,-z
y,-x,-z
x,y,-z
-y,x,-z
1/2-x,1/2+y,z
1/2+x,1/2-y,z
1/2-y,1/2-x,z
1/2+y,1/2+x,z
loop_
_atom_site_type_symbol
_atom_site_label
_atom_site_fract_x
_atom_site_fract_y
_atom_site_fract_z
Si Si1 0.667654 0.316795 0.832219
Si Si2 0.748076 0.098598 0.384848
Si Si3 0.573979 0.926022 0.932950
Si Si4 0.466647 0.648307 0.500000
Si Si5 0.854630 0.499926 0.720918
Si Si6 0.766075 0.487259 0.149841
Si Si7 0.386072 0.403217 0.291259
O O1 0.755790 0.255790 0.836192
O O2 0.584905 0.272034 0.868046
O O3 0.688865 0.413103 0.862304
O O4 0.637885 0.327900 0.762776
O O5 0.679947 0.179947 0.402282
O O6 0.783918 0.045902 0.443591
O O7 0.701450 0.027566 0.338800
O O8 0.838394 0.136083 0.351811
O O9 0.653317 0.970287 0.895358
O O10 0.500000 0.000000 0.942981
O O11 0.607233 0.892768 0.000000
O O12 0.393541 0.567202 0.500000
O O13 0.918366 0.581635 0.741985
O O14 0.793171 0.477668 0.779086
O O15 0.912202 0.412202 0.702792
O O16 0.489026 0.374974 0.289307
#
# Coordination Sequence:
#
# PCOD8314039 Si02
#       7
#    16  16   8   8  16  16  16
#     4  12  22  36  60  95 133 174 217 277 338 402
#     4  11  22  39  61  90 122 159 208 267 326 393
#     4  11  24  46  72  98 132 180 240 290 336 405
#     4  11  25  46  66  81 111 163 214 261 320 395
#     4  10  19  35  61  91 126 167 208 264 327 388
#     4  12  23  39  64  99 137 176 222 275 341 399
#     4  11  21  35  56  88 129 171 211 260 327 400
#
# _framework density 19.861080000000001
#
# number of rings (size 3 to 8) (size 9 to 14) (size 15 to 20)
#    0.000    0.833    5.000    3.250    0.000    1.667 
#    0.000    7.083    0.000    2.000    0.000    1.167 
#    0.000    0.000    0.000    0.000    0.000    0.000 
#
# Total GULP energy -1190249.214268 kJ/mol
# GULP energy per Si atom -12398.429315 kJ/mol
# Density = 1.981588 g / cm^3
# Si number density = 19.861080 Si / 1000 Ang^3
#
#
#
# Elastic Constant Matrix: (Units=GPa)
#
#
# Indices 1 2 3 4 5 6 
#
# 1 104.2408 38.7302 34.8869 0.0000 0.0000 0.0000
# 2 38.7302 104.2410 34.8870 0.0000 0.0000 0.0000
# 3 34.8869 34.8870 89.3272 0.0000 0.0000 0.0000
# 4 0.0000 0.0000 0.0000 9.5520 0.0000 0.0000
# 5 0.0000 0.0000 0.0000 0.0000 9.5528 0.0000
# 6 0.0000 0.0000 0.0000 0.0000 0.0000 39.4276
#
#
#
# Elastic Compliance Matrix: (Units=1/GPa)
#
#
# Indices 1 2 3 4 5 6 
#
# 1 0.011953 -0.003312 -0.003375 0.000000 0.000000 0.000000
# 2 -0.003312 0.011953 -0.003375 0.000000 0.000000 0.000000
# 3 -0.003375 -0.003375 0.013831 0.000000 0.000000 0.000000
# 4 0.000000 0.000000 0.000000 0.104690 0.000000 0.000000
# 5 0.000000 0.000000 0.000000 0.000000 0.104682 0.000000
# 6 0.000000 0.000000 0.000000 0.000000 0.000000 0.025363
#
#
# Mechanical properties :
#
#
# Convention : Reuss Voigt Hill
#
# Bulk Modulus (GPa) = 56.77249 57.20188 56.98719
# Shear Modulus (GPa) = 16.75232 24.32682 20.53957
#
# Velocity S-wave (km/s) = 2.90741 3.50358 3.21933
# Velocity P-wave (km/s) = 6.31804 6.72535 6.52487
#
# Compressibility (1/GPa) = 0.01761417
#
# Stress axis : x y z
#
# Youngs Moduli (GPa) = 83.66040 83.66046 72.30142
#
# Poissons Ratio (x) = 0.27705 0.24401
# Poissons Ratio (y) = 0.27705 0.24401
# Poissons Ratio (z) = 0.28235 0.28235
#
# Static dielectric constant tensor:
#      x y z
#    x 3.932590 0.000000 0.000000 
#    y 0.000000 3.932590 0.000000 
#    z 0.000000 0.000000 3.490300 
# 
# 
# High freq. dielectric constant tensor:
#      x y z
#    x 1.788580 0.000000 0.000000 
#    y 0.000000 1.788580 0.000000 
#    z 0.000000 0.000000 1.743650 
# 
# From -- ./inp_files/5841.got.cif
#   From: 2010.03.12/outbox.cif.g09.slc.cpg/sg127_3_cif.got.tgz:5841.got - 2010.04.06 17:03:15.
