data_PCOD8314858
_publ_section_title
;
Structure prediction by ZEFSAII (Michael W. Deem and Ramdas Pophale) SiO2 
 PCOD8314858
Probable space group: P 4/N M M
;
_chemical_formula_sum "Si O2"
_cell_formula_units_Z 56
_cell_length_a 19.838242
_cell_length_b 19.838242
_cell_length_c 9.183669
_cell_angle_alpha 90.000000
_cell_angle_beta 90.000000
_cell_angle_gamma 90.000000
_cell_volume 3614.286619
_symmetry_space_group_name_H-M "P 4/N M M"
_symmetry_group_IT_number 129
_symmetry_cell_setting 'tetragonal'
loop_
_space_group_symop_operation_xyz
x,y,z
1/2-y,x,z
1/2-x,1/2-y,z
y,1/2-x,z
1/2+x,-y,-z
-x,1/2+y,-z
1/2+y,1/2+x,-z
-y,-x,-z
-x,-y,-z
1/2+y,-x,-z
1/2+x,1/2+y,-z
-y,1/2+x,-z
1/2-x,y,z
x,1/2-y,z
1/2-y,1/2-x,z
y,x,z
loop_
_atom_site_type_symbol
_atom_site_label
_atom_site_fract_x
_atom_site_fract_y
_atom_site_fract_z
Si Si1 0.005200 0.005200 0.329309
Si Si2 0.326967 0.826967 0.500000
Si Si3 0.971435 0.325484 0.960076
Si Si4 0.413060 0.620697 0.762408
Si Si5 0.946443 0.553558 0.070843
O O1 0.954058 0.954058 0.246303
O O2 0.080992 0.981866 0.283938
O O3 0.000000 0.000000 0.500000
O O4 0.337238 0.750000 0.445743
O O5 0.340400 0.879813 0.371425
O O6 0.991803 0.250000 0.918321
O O7 0.931063 0.325538 0.112398
O O8 0.929819 0.357553 0.827652
O O9 0.038425 0.370674 0.979882
O O10 0.000000 0.500000 0.000000
#
# Coordination Sequence:
#
# PCOD8314858 Si02
#       5
#     8   8  16  16   8
#     4  10  16  28  50  66  86 116 144 191 236 267
#     4  11  22  31  38  56  92 129 154 183 224 270
#     4  10  18  30  50  70  89 118 155 192 228 272
#     4  10  18  31  46  66  89 118 153 189 230 269
#     4  10  16  32  48  69  90 117 150 191 232 266
#
# _framework density 15.494068
#
# number of rings (size 3 to 8) (size 9 to 14) (size 15 to 20)
#    0.000    1.857    7.143    1.714    0.000    0.000 
#    0.000    0.000    0.000    7.286    0.000    0.000 
#    0.000    0.000    0.000    5.143    0.000    0.000 
#
# Total GULP energy -693812.769568 kJ/mol
# GULP energy per Si atom -12389.513742 kJ/mol
# Density = 1.545880 g / cm^3
# Si number density = 15.494068 Si / 1000 Ang^3
#
#
#
# Elastic Constant Matrix: (Units=GPa)
#
#
# Indices 1 2 3 4 5 6 
#
# 1 79.0600 41.9152 13.6965 0.0000 0.0000 0.0000
# 2 41.9152 79.0600 13.6965 0.0000 0.0000 0.0000
# 3 13.6965 13.6965 81.9790 0.0000 0.0000 0.0000
# 4 0.0000 0.0000 0.0000 17.5972 0.0000 0.0000
# 5 0.0000 0.0000 0.0000 0.0000 17.5972 0.0000
# 6 0.0000 0.0000 0.0000 0.0000 0.0000 21.5607
#
#
#
# Elastic Compliance Matrix: (Units=1/GPa)
#
#
# Indices 1 2 3 4 5 6 
#
# 1 0.017756 -0.009165 -0.001435 0.000000 0.000000 0.000000
# 2 -0.009165 0.017756 -0.001435 0.000000 0.000000 0.000000
# 3 -0.001435 -0.001435 0.012678 0.000000 0.000000 0.000000
# 4 0.000000 0.000000 0.000000 0.056827 0.000000 0.000000
# 5 0.000000 0.000000 0.000000 0.000000 0.056827 0.000000
# 6 0.000000 0.000000 0.000000 0.000000 0.000000 0.046381
#
#
# Mechanical properties :
#
#
# Convention : Reuss Voigt Hill
#
# Bulk Modulus (GPa) = 41.46147 42.07950 41.77049
# Shear Modulus (GPa) = 20.80410 22.73708 21.77059
#
# Velocity S-wave (km/s) = 3.66828 3.83491 3.75252
# Velocity P-wave (km/s) = 6.69025 6.84296 6.76704
#
# Compressibility (1/GPa) = 0.02411878
#
# Stress axis : x y z
#
# Youngs Moduli (GPa) = 56.31772 56.31772 78.87766
#
# Poissons Ratio (x) = 0.51616 0.11322
# Poissons Ratio (y) = 0.51616 0.11322
# Poissons Ratio (z) = 0.08084 0.08084
#
# Static dielectric constant tensor:
#      x y z
#    x 2.870590 0.000000 0.000000 
#    y 0.000000 2.870590 0.000000 
#    z 0.000000 0.000000 3.115760 
# 
# 
# High freq. dielectric constant tensor:
#      x y z
#    x 1.570840 0.000000 0.000000 
#    y 0.000000 1.570840 0.000000 
#    z 0.000000 0.000000 1.608190 
# 
# From -- ./inp_files/1979.got.cif
#   From: 2010.03.12/outbox.cif.g09.slc.cpg/sg129_1_cif.got.tgz:1979.got - 2010.04.06 17:19:44.
