data_PCOD8314653
_publ_section_title
;
Structure prediction by ZEFSAII (Michael W. Deem and Ramdas Pophale) SiO2 
 PCOD8314653
Probable space group: P 4/M N C
;
_chemical_formula_sum "Si O2"
_cell_formula_units_Z 72
_cell_length_a 20.918594
_cell_length_b 20.918594
_cell_length_c 7.866441
_cell_angle_alpha 90.000000
_cell_angle_beta 90.000000
_cell_angle_gamma 90.000000
_cell_volume 3442.256841
_symmetry_space_group_name_H-M "P 4/M N C"
_symmetry_group_IT_number 128
_symmetry_cell_setting 'tetragonal'
loop_
_space_group_symop_operation_xyz
x,y,z
-y,x,z
-x,-y,z
y,-x,z
1/2+x,1/2-y,1/2-z
1/2-x,1/2+y,1/2-z
1/2+y,1/2+x,1/2-z
1/2-y,1/2-x,1/2-z
-x,-y,-z
y,-x,-z
x,y,-z
-y,x,-z
1/2-x,1/2+y,1/2+z
1/2+x,1/2-y,1/2+z
1/2-y,1/2-x,1/2+z
1/2+y,1/2+x,1/2+z
loop_
_atom_site_type_symbol
_atom_site_label
_atom_site_fract_x
_atom_site_fract_y
_atom_site_fract_z
Si Si1 0.184698 0.417319 0.808379
Si Si2 0.404536 0.455812 0.500000
Si Si3 0.240657 0.159648 0.800188
Si Si4 0.844017 0.443304 0.698909
Si Si5 0.674406 0.600710 0.196951
O O1 0.131172 0.368829 0.750000
O O2 0.159335 0.488943 0.789346
O O3 0.254047 0.406884 0.723577
O O4 0.198149 0.400613 0.000000
O O5 0.469038 0.415462 0.500000
O O6 0.368383 0.440692 0.324296
O O7 0.273661 0.226340 0.750000
O O8 0.285543 0.101228 0.739274
O O9 0.174501 0.153313 0.701336
O O10 0.227567 0.157054 0.000000
O O11 0.910791 0.410791 0.750000
O O12 0.840912 0.454881 0.500000
O O13 0.667341 0.576627 0.000000
#
# Coordination Sequence:
#
# PCOD8314653 Si02
#       5
#    16   8  16  16  16
#     4  11  25  41  62  94 130 170 220 273 328 394
#     4  11  28  50  72 100 136 173 219 273 333 405
#     4  10  20  36  61  94 133 173 222 280 334 392
#     4  10  22  39  63  92 129 174 219 272 326 390
#     4  11  25  42  70 101 131 175 222 276 333 399
#
# _framework density 20.916511
#
# number of rings (size 3 to 8) (size 9 to 14) (size 15 to 20)
#    0.000    1.444    1.111    2.667    6.222    5.778 
#    0.000    3.333    0.000    0.000    0.000    0.000 
#    0.000    0.000    0.000    0.000    0.000    0.000 
#
# Total GULP energy -892882.002530 kJ/mol
# GULP energy per Si atom -12401.138924 kJ/mol
# Density = 2.086890 g / cm^3
# Si number density = 20.916511 Si / 1000 Ang^3
#
#
#
# Elastic Constant Matrix: (Units=GPa)
#
#
# Indices 1 2 3 4 5 6 
#
# 1 127.6089 69.6749 34.3894 0.0000 0.0000 0.0000
# 2 69.6749 127.6072 34.3870 0.0000 0.0000 0.0000
# 3 34.3894 34.3870 84.6039 0.0000 0.0000 0.0000
# 4 0.0000 0.0000 0.0000 30.1289 0.0000 0.0000
# 5 0.0000 0.0000 0.0000 0.0000 30.1286 0.0000
# 6 0.0000 0.0000 0.0000 0.0000 0.0000 26.0734
#
#
#
# Elastic Compliance Matrix: (Units=1/GPa)
#
#
# Indices 1 2 3 4 5 6 
#
# 1 0.011583 -0.005678 -0.002401 0.000000 0.000000 0.000000
# 2 -0.005678 0.011583 -0.002400 0.000000 0.000000 0.000000
# 3 -0.002401 -0.002400 0.013771 0.000000 0.000000 0.000000
# 4 0.000000 0.000000 0.000000 0.033191 0.000000 0.000000
# 5 0.000000 0.000000 0.000000 0.000000 0.033191 0.000000
# 6 0.000000 0.000000 0.000000 0.000000 0.000000 0.038353
#
#
# Mechanical properties :
#
#
# Convention : Reuss Voigt Hill
#
# Bulk Modulus (GPa) = 62.57506 68.52473 65.54989
# Shear Modulus (GPa) = 29.76947 30.69078 30.23012
#
# Velocity S-wave (km/s) = 3.77669 3.83469 3.80580
# Velocity P-wave (km/s) = 6.99996 7.24145 7.12173
#
# Compressibility (1/GPa) = 0.01598081
#
# Stress axis : x y z
#
# Youngs Moduli (GPa) = 86.32977 86.32986 72.61551
#
# Poissons Ratio (x) = 0.49016 0.17433
# Poissons Ratio (y) = 0.49016 0.17429
# Poissons Ratio (z) = 0.20725 0.20721
#
# Static dielectric constant tensor:
#      x y z
#    x 3.803280 0.000000 0.000000 
#    y 0.000000 3.803310 0.000000 
#    z 0.000000 0.000000 3.815060 
# 
# 
# High freq. dielectric constant tensor:
#      x y z
#    x 1.823280 0.000000 0.000000 
#    y 0.000000 1.823280 0.000000 
#    z 0.000000 0.000000 1.826820 
# 
# From -- ./inp_files/1145.got.cif
#   From: 2010.03.12/outbox.cif.g09.slc.cpg/sg128_1_cif.got.tgz:1145.got - 2010.04.06 17:11:05.
