data_PCOD8314345
_publ_section_title
;
Structure prediction by ZEFSAII (Michael W. Deem and Ramdas Pophale) SiO2 
 PCOD8314345
Probable space group: P 4/M B M
;
_chemical_formula_sum "Si O2"
_cell_formula_units_Z 72
_cell_length_a 21.662926
_cell_length_b 21.662926
_cell_length_c 7.582998
_cell_angle_alpha 90.000000
_cell_angle_beta 90.000000
_cell_angle_gamma 90.000000
_cell_volume 3558.567219
_symmetry_space_group_name_H-M "P 4/M B M"
_symmetry_group_IT_number 127
_symmetry_cell_setting 'tetragonal'
loop_
_space_group_symop_operation_xyz
x,y,z
-y,x,z
-x,-y,z
y,-x,z
1/2+x,1/2-y,-z
1/2-x,1/2+y,-z
1/2+y,1/2+x,-z
1/2-y,1/2-x,-z
-x,-y,-z
y,-x,-z
x,y,-z
-y,x,-z
1/2-x,1/2+y,z
1/2+x,1/2-y,z
1/2-y,1/2-x,z
1/2+y,1/2+x,z
loop_
_atom_site_type_symbol
_atom_site_label
_atom_site_fract_x
_atom_site_fract_y
_atom_site_fract_z
Si Si1 0.523298 0.594014 0.291009
Si Si2 0.674658 0.722579 0.000000
Si Si3 0.550152 0.050152 0.208031
Si Si4 0.189349 0.465869 0.698100
Si Si5 0.273103 0.876333 0.000000
Si Si6 0.075878 0.777080 0.705108
O O1 0.455466 0.574075 0.221268
O O2 0.522454 0.593368 0.500000
O O3 0.539953 0.662192 0.223837
O O4 0.636281 0.731499 0.821617
O O5 0.726161 0.773840 0.000000
O O6 0.706214 0.655256 0.000000
O O7 0.615959 0.029367 0.282094
O O8 0.500000 0.000000 0.269248
O O9 0.555221 0.055221 0.000000
O O10 0.206056 0.444872 0.500000
O O11 0.217594 0.533075 0.736665
O O12 0.220728 0.416688 0.825028
O O13 0.327578 0.827578 0.000000
O O14 0.095142 0.783659 0.500000
#
# Coordination Sequence:
#
# PCOD8314345 Si02
#       6
#    16   8   8  16   8  16
#     4   8  15  31  56  88 125 159 197 249 305 362
#     4  11  27  44  62  85 125 172 212 262 310 374
#     4  11  23  41  67  98 133 171 206 263 337 396
#     4  11  22  40  67  97 129 164 211 266 319 382
#     4  11  23  42  62  91 127 166 214 260 316 375
#     4  10  23  41  64  93 124 167 212 255 314 377
#
# _framework density 20.232862000000001
#
# number of rings (size 3 to 8) (size 9 to 14) (size 15 to 20)
#    0.000    1.889    2.222    1.667    3.111    3.111 
#    0.000    4.444    0.000    1.333    0.000    0.000 
#    0.000    0.000    0.000    0.000    0.000    0.000 
#
# Total GULP energy -892854.146893 kJ/mol
# GULP energy per Si atom -12400.752040 kJ/mol
# Density = 2.018681 g / cm^3
# Si number density = 20.232862 Si / 1000 Ang^3
#
#
#
# Elastic Constant Matrix: (Units=GPa)
#
#
# Indices 1 2 3 4 5 6 
#
# 1 330.3422 -129.6258 51.6586 0.0000 0.0000 0.0000
# 2 -129.6258 330.3163 51.6535 0.0000 0.0000 0.0000
# 3 51.6586 51.6535 116.2967 0.0000 0.0000 0.0000
# 4 0.0000 0.0000 0.0000 22.8415 0.0000 0.0000
# 5 0.0000 0.0000 0.0000 0.0000 22.8420 0.0000
# 6 0.0000 0.0000 0.0000 0.0000 0.0000 31.9365
#
#
#
# Elastic Compliance Matrix: (Units=1/GPa)
#
#
# Indices 1 2 3 4 5 6 
#
# 1 0.004317 0.002143 -0.002869 0.000000 0.000000 0.000000
# 2 0.002143 0.004317 -0.002869 0.000000 0.000000 0.000000
# 3 -0.002869 -0.002869 0.011147 0.000000 0.000000 0.000000
# 4 0.000000 0.000000 0.000000 0.043780 0.000000 0.000000
# 5 0.000000 0.000000 0.000000 0.000000 0.043779 0.000000
# 6 0.000000 0.000000 0.000000 0.000000 0.000000 0.031312
#
#
# Mechanical properties :
#
#
# Convention : Reuss Voigt Hill
#
# Bulk Modulus (GPa) = 79.42935 80.48089 79.95512
# Shear Modulus (GPa) = 33.32453 69.07527 51.19990
#
# Velocity S-wave (km/s) = 4.06279 5.84930 5.03590
# Velocity P-wave (km/s) = 7.83270 9.24568 8.56837
#
# Compressibility (1/GPa) = 0.01258981
#
# Stress axis : x y z
#
# Youngs Moduli (GPa) = 231.66501 231.64890 89.70674
#
# Poissons Ratio (x) = -0.49633 0.25737
# Poissons Ratio (y) = -0.49637 0.25738
# Poissons Ratio (z) = 0.66466 0.66462
#
# Static dielectric constant tensor:
#      x y z
#    x 3.884240 0.000000 0.000000 
#    y 0.000000 3.884240 0.000000 
#    z 0.000000 0.000000 3.634110 
# 
# 
# High freq. dielectric constant tensor:
#      x y z
#    x 1.791420 0.000000 0.000000 
#    y 0.000000 1.791430 0.000000 
#    z 0.000000 0.000000 1.792720 
# 
# From -- ./inp_files/1662.got.cif
#   From: 2010.03.12/outbox.cif.g09.slc.cpg/sg127_1_cif.got.tgz:1662.got - 2010.04.06 17:03:15.
