data_PCOD8314765
_publ_section_title
;
Structure prediction by ZEFSAII (Michael W. Deem and Ramdas Pophale) SiO2 
 PCOD8314765
Probable space group: P 4/M N C
;
_chemical_formula_sum "Si O2"
_cell_formula_units_Z 88
_cell_length_a 10.952421
_cell_length_b 10.952421
_cell_length_c 34.051216
_cell_angle_alpha 90.000000
_cell_angle_beta 90.000000
_cell_angle_gamma 90.000000
_cell_volume 4084.631518
_symmetry_space_group_name_H-M "P 4/M N C"
_symmetry_group_IT_number 128
_symmetry_cell_setting 'tetragonal'
loop_
_space_group_symop_operation_xyz
x,y,z
-y,x,z
-x,-y,z
y,-x,z
1/2+x,1/2-y,1/2-z
1/2-x,1/2+y,1/2-z
1/2+y,1/2+x,1/2-z
1/2-y,1/2-x,1/2-z
-x,-y,-z
y,-x,-z
x,y,-z
-y,x,-z
1/2-x,1/2+y,1/2+z
1/2+x,1/2-y,1/2+z
1/2-y,1/2-x,1/2+z
1/2+y,1/2+x,1/2+z
loop_
_atom_site_type_symbol
_atom_site_label
_atom_site_fract_x
_atom_site_fract_y
_atom_site_fract_z
Si Si1 0.327228 0.862265 0.934325
Si Si2 0.000000 0.500000 0.876372
Si Si3 0.512199 0.297483 0.500000
Si Si4 0.641476 0.354446 0.629262
Si Si5 0.086781 0.181739 0.500000
Si Si6 0.303783 0.542857 0.754926
Si Si7 0.160533 0.643343 0.314848
O O1 0.207354 0.813125 0.911133
O O2 0.378605 0.753822 0.960753
O O3 0.429445 0.903717 0.903572
O O4 0.286905 0.977397 0.961429
O O5 0.069259 0.595133 0.849045
O O6 0.630058 0.386791 0.500000
O O7 0.670826 0.497908 0.631828
O O8 0.717881 0.295646 0.665459
O O9 0.942919 0.161469 0.500000
O O10 0.355584 0.408280 0.750822
O O11 0.204064 0.557017 0.720754
O O12 0.243679 0.567263 0.797549
#
# Coordination Sequence:
#
# PCOD8314765 Si02
#       7
#    16   8   8  16   8  16  16
#     4  11  25  42  68  97 140 177 223 287 349 406
#     4  12  28  42  62 110 136 178 224 288 350 410
#     4  10  22  41  66 100 133 175 223 281 339 413
#     4  11  22  40  68 103 137 174 222 280 342 406
#     4  10  26  49  70  92 127 189 238 275 332 422
#     4  10  24  45  68  96 131 185 232 276 331 413
#     4  11  25  42  68  97 141 175 223 284 346 405
#
# _framework density 21.544170000000001
#
# number of rings (size 3 to 8) (size 9 to 14) (size 15 to 20)
#    0.000    1.273    1.818    2.182    5.091    8.727 
#    0.000    0.000    0.000    0.000    0.000    0.000 
#    0.000    0.000    0.000    0.000    0.000    0.000 
#
# Total GULP energy -1091016.046059 kJ/mol
# GULP energy per Si atom -12397.909614 kJ/mol
# Density = 2.149513 g / cm^3
# Si number density = 21.544170 Si / 1000 Ang^3
#
#
#
# Elastic Constant Matrix: (Units=GPa)
#
#
# Indices 1 2 3 4 5 6 
#
# 1 92.4616 38.1146 53.1302 0.0000 0.0000 0.0000
# 2 38.1146 92.4616 53.1302 0.0000 0.0000 0.0000
# 3 53.1302 53.1302 151.5988 0.0000 0.0000 0.0000
# 4 0.0000 0.0000 0.0000 38.4407 0.0000 0.0000
# 5 0.0000 0.0000 0.0000 0.0000 38.4407 0.0000
# 6 0.0000 0.0000 0.0000 0.0000 0.0000 22.3960
#
#
#
# Elastic Compliance Matrix: (Units=1/GPa)
#
#
# Indices 1 2 3 4 5 6 
#
# 1 0.014557 -0.003843 -0.003755 0.000000 0.000000 0.000000
# 2 -0.003843 0.014557 -0.003755 0.000000 0.000000 0.000000
# 3 -0.003755 -0.003755 0.009228 0.000000 0.000000 0.000000
# 4 0.000000 0.000000 0.000000 0.026014 0.000000 0.000000
# 5 0.000000 0.000000 0.000000 0.000000 0.026014 0.000000
# 6 0.000000 0.000000 0.000000 0.000000 0.000000 0.044651
#
#
# Mechanical properties :
#
#
# Convention : Reuss Voigt Hill
#
# Bulk Modulus (GPa) = 63.95196 69.47466 66.71331
# Shear Modulus (GPa) = 30.68621 32.66530 31.67575
#
# Velocity S-wave (km/s) = 3.77814 3.89807 3.83857
# Velocity P-wave (km/s) = 6.98434 7.25103 7.11893
#
# Compressibility (1/GPa) = 0.01563674
#
# Stress axis : x y z
#
# Youngs Moduli (GPa) = 68.69474 68.69474 108.36251
#
# Poissons Ratio (x) = 0.26400 0.40689
# Poissons Ratio (y) = 0.26400 0.40689
# Poissons Ratio (z) = 0.25794 0.25794
#
# Static dielectric constant tensor:
#      x y z
#    x 3.939580 0.000000 0.000000 
#    y 0.000000 3.939580 0.000000 
#    z 0.000000 0.000000 4.167780 
# 
# 
# High freq. dielectric constant tensor:
#      x y z
#    x 1.842050 0.000000 0.000000 
#    y 0.000000 1.842050 0.000000 
#    z 0.000000 0.000000 1.865110 
# 
# From -- ./inp_files/7308.got.cif
#   From: 2010.03.12/outbox.cif.g09.slc.cpg/sg128_4_cif.got.tgz:7308.got - 2010.04.06 17:11:05.
