data_PCOD8314199
_publ_section_title
;
Structure prediction by ZEFSAII (Michael W. Deem and Ramdas Pophale) SiO2 
 PCOD8314199
Probable space group: P 4/M B M
;
_chemical_formula_sum "Si O2"
_cell_formula_units_Z 96
_cell_length_a 23.634970
_cell_length_b 23.634970
_cell_length_c 9.301112
_cell_angle_alpha 90.000000
_cell_angle_beta 90.000000
_cell_angle_gamma 90.000000
_cell_volume 5195.710981
_symmetry_space_group_name_H-M "P 4/M B M"
_symmetry_group_IT_number 127
_symmetry_cell_setting 'tetragonal'
loop_
_space_group_symop_operation_xyz
x,y,z
-y,x,z
-x,-y,z
y,-x,z
1/2+x,1/2-y,-z
1/2-x,1/2+y,-z
1/2+y,1/2+x,-z
1/2-y,1/2-x,-z
-x,-y,-z
y,-x,-z
x,y,-z
-y,x,-z
1/2-x,1/2+y,z
1/2+x,1/2-y,z
1/2-y,1/2-x,z
1/2+y,1/2+x,z
loop_
_atom_site_type_symbol
_atom_site_label
_atom_site_fract_x
_atom_site_fract_y
_atom_site_fract_z
Si Si1 0.858084 0.734873 0.835072
Si Si2 0.917386 0.965627 0.170807
Si Si3 0.796703 0.518132 0.165812
Si Si4 0.703683 0.424859 0.832764
Si Si5 0.408925 0.999282 0.331888
Si Si6 0.813807 0.220994 0.331841
O O1 0.821403 0.678598 0.818121
O O2 0.834009 0.784974 0.737520
O O3 0.920181 0.720560 0.776980
O O4 0.859364 0.756140 0.000000
O O5 0.858439 0.940590 0.229272
O O6 0.969673 0.926758 0.224928
O O7 0.915241 0.966772 0.000000
O O8 0.743287 0.478462 0.191765
O O9 0.850256 0.494635 0.250284
O O10 0.814242 0.521417 0.000000
O O11 0.730407 0.374078 0.741830
O O12 0.701104 0.407389 0.000000
O O13 0.396294 0.997367 0.500000
O O14 0.446118 0.053883 0.292368
O O15 0.442612 0.942612 0.284935
O O16 0.821388 0.210220 0.500000
O O17 0.776569 0.276569 0.300550
#
# Coordination Sequence:
#
# PCOD8314199 Si02
#       6
#    16  16  16  16  16  16
#     4   9  18  34  57  82 108 138 173 220 273 319
#     4   8  15  29  52  81 107 134 172 216 261 311
#     4  10  21  34  52  84 115 140 175 220 273 328
#     4  10  21  34  54  82 111 143 177 220 268 319
#     4   9  19  36  56  77 104 143 187 226 269 322
#     4  10  22  39  56  75 103 142 185 223 264 317
#
# _framework density 18.476779000000001
#
# number of rings (size 3 to 8) (size 9 to 14) (size 15 to 20)
#    0.000    2.667    0.000    2.000    2.333    4.333 
#    0.000    5.833    0.000    0.000    0.000    1.167 
#    0.000    0.000    0.000    0.000    0.000    0.000 
#
# Total GULP energy -1190514.504733 kJ/mol
# GULP energy per Si atom -12401.192758 kJ/mol
# Density = 1.843472 g / cm^3
# Si number density = 18.476779 Si / 1000 Ang^3
#
#
#
# Elastic Constant Matrix: (Units=GPa)
#
#
# Indices 1 2 3 4 5 6 
#
# 1 100.1375 36.7744 37.8558 0.0000 0.0000 0.0000
# 2 36.7744 100.1375 37.8558 0.0000 0.0000 0.0000
# 3 37.8558 37.8558 54.1028 0.0000 0.0000 0.0000
# 4 0.0000 0.0000 0.0000 18.8554 0.0000 0.0000
# 5 0.0000 0.0000 0.0000 0.0000 18.8554 0.0000
# 6 0.0000 0.0000 0.0000 0.0000 0.0000 17.9731
#
#
#
# Elastic Compliance Matrix: (Units=1/GPa)
#
#
# Indices 1 2 3 4 5 6 
#
# 1 0.013848 -0.001934 -0.008336 0.000000 0.000000 0.000000
# 2 -0.001934 0.013848 -0.008336 0.000000 0.000000 0.000000
# 3 -0.008336 -0.008336 0.030149 0.000000 0.000000 0.000000
# 4 0.000000 0.000000 0.000000 0.053035 0.000000 0.000000
# 5 0.000000 0.000000 0.000000 0.000000 0.053035 0.000000
# 6 0.000000 0.000000 0.000000 0.000000 0.000000 0.055639
#
#
# Mechanical properties :
#
#
# Convention : Reuss Voigt Hill
#
# Bulk Modulus (GPa) = 48.46822 53.26111 50.86467
# Shear Modulus (GPa) = 18.96500 20.59625 19.78063
#
# Velocity S-wave (km/s) = 3.20726 3.34235 3.27550
# Velocity P-wave (km/s) = 6.32489 6.61692 6.47255
#
# Compressibility (1/GPa) = 0.02063207
#
# Stress axis : x y z
#
# Youngs Moduli (GPa) = 72.21301 72.21301 33.16874
#
# Poissons Ratio (x) = 0.13967 0.27650
# Poissons Ratio (y) = 0.13967 0.27650
# Poissons Ratio (z) = 0.60197 0.60197
#
# Static dielectric constant tensor:
#      x y z
#    x 3.459820 0.000000 0.000000 
#    y 0.000000 3.459820 0.000000 
#    z 0.000000 0.000000 3.155790 
# 
# 
# High freq. dielectric constant tensor:
#      x y z
#    x 1.722390 0.000000 0.000000 
#    y 0.000000 1.722390 0.000000 
#    z 0.000000 0.000000 1.688980 
# 
# From -- ./inp_files/1992.got.cif
#   From: 2010.03.12/outbox.cif.g09.slc.cpg/sg127_1_cif.got.tgz:1992.got - 2010.04.06 17:03:15.
