data_PCOD8314306
_publ_section_title
;
Structure prediction by ZEFSAII (Michael W. Deem and Ramdas Pophale) SiO2 
 PCOD8314306
Probable space group: P 4/M B M
;
_chemical_formula_sum "Si O2"
_cell_formula_units_Z 72
_cell_length_a 13.895403
_cell_length_b 13.895403
_cell_length_c 19.410481
_cell_angle_alpha 90.000000
_cell_angle_beta 90.000000
_cell_angle_gamma 90.000000
_cell_volume 3747.818851
_symmetry_space_group_name_H-M "P 4/M B M"
_symmetry_group_IT_number 127
_symmetry_cell_setting 'tetragonal'
loop_
_space_group_symop_operation_xyz
x,y,z
-y,x,z
-x,-y,z
y,-x,z
1/2+x,1/2-y,-z
1/2-x,1/2+y,-z
1/2+y,1/2+x,-z
1/2-y,1/2-x,-z
-x,-y,-z
y,-x,-z
x,y,-z
-y,x,-z
1/2-x,1/2+y,z
1/2+x,1/2-y,z
1/2-y,1/2-x,z
1/2+y,1/2+x,z
loop_
_atom_site_type_symbol
_atom_site_label
_atom_site_fract_x
_atom_site_fract_y
_atom_site_fract_z
Si Si1 0.770248 0.889756 0.719416
Si Si2 0.909003 0.749947 0.212079
Si Si3 0.947071 0.850752 0.077491
Si Si4 0.435755 0.226320 0.575739
Si Si5 0.573083 0.073083 0.419504
O O1 0.682223 0.817778 0.728409
O O2 0.864711 0.846683 0.754665
O O3 0.796457 0.905217 0.637968
O O4 0.734719 0.987247 0.754948
O O5 0.843717 0.656284 0.226605
O O6 0.917790 0.766579 0.130085
O O7 0.057423 0.879410 0.089821
O O8 0.932870 0.811249 0.000000
O O9 0.438467 0.278139 0.500000
O O10 0.363571 0.136430 0.570830
O O11 0.542094 0.183362 0.597134
O O12 0.559393 0.059393 0.500000
O O13 0.500000 0.000000 0.380409
#
# Coordination Sequence:
#
# PCOD8314306 Si02
#       5
#    16  16  16  16   8
#     4  10  22  37  54  81 113 145 187 234 277 332
#     4  11  22  36  57  84 113 149 184 220 282 340
#     4   9  17  33  59  85 108 142 187 228 266 316
#     4   8  14  27  47  70 102 141 180 226 273 318
#     4   7  10  18  38  66  90 124 171 211 258 310
#
# _framework density 19.211172999999999
#
# number of rings (size 3 to 8) (size 9 to 14) (size 15 to 20)
#    0.000    2.778    2.222    2.000    1.556    1.333 
#    0.000    1.111    0.000    2.000    0.000    3.111 
#    0.000    0.000    0.000    0.000    0.000    0.000 
#
# Total GULP energy -892000.459808 kJ/mol
# GULP energy per Si atom -12388.895275 kJ/mol
# Density = 1.916745 g / cm^3
# Si number density = 19.211173 Si / 1000 Ang^3
#
#
#
# Elastic Constant Matrix: (Units=GPa)
#
#
# Indices 1 2 3 4 5 6 
#
# 1 48.9748 9.0501 24.9651 0.0000 0.0000 0.0000
# 2 9.0501 48.9748 24.9651 0.0000 0.0000 0.0000
# 3 24.9651 24.9651 129.1447 0.0000 0.0000 0.0000
# 4 0.0000 0.0000 0.0000 24.2410 0.0000 0.0000
# 5 0.0000 0.0000 0.0000 0.0000 24.2410 0.0000
# 6 0.0000 0.0000 0.0000 0.0000 0.0000 13.2074
#
#
#
# Elastic Compliance Matrix: (Units=1/GPa)
#
#
# Indices 1 2 3 4 5 6 
#
# 1 0.022860 -0.002187 -0.003996 0.000000 0.000000 0.000000
# 2 -0.002187 0.022860 -0.003996 0.000000 0.000000 0.000000
# 3 -0.003996 -0.003996 0.009288 0.000000 0.000000 0.000000
# 4 0.000000 0.000000 0.000000 0.041252 0.000000 0.000000
# 5 0.000000 0.000000 0.000000 0.000000 0.041252 0.000000
# 6 0.000000 0.000000 0.000000 0.000000 0.000000 0.075715
#
#
# Mechanical properties :
#
#
# Convention : Reuss Voigt Hill
#
# Bulk Modulus (GPa) = 28.86113 38.33943 33.60028
# Shear Modulus (GPa) = 20.39673 23.54549 21.97111
#
# Velocity S-wave (km/s) = 3.26193 3.50468 3.38548
# Velocity P-wave (km/s) = 5.40764 6.03135 5.72799
#
# Compressibility (1/GPa) = 0.03464867
#
# Stress axis : x y z
#
# Youngs Moduli (GPa) = 43.74467 43.74467 107.66241
#
# Poissons Ratio (x) = 0.09568 0.43025
# Poissons Ratio (y) = 0.09568 0.43025
# Poissons Ratio (z) = 0.17481 0.17481
#
# Static dielectric constant tensor:
#      x y z
#    x 3.303920 0.000000 0.000000 
#    y 0.000000 3.303920 0.000000 
#    z 0.000000 0.000000 3.769930 
# 
# 
# High freq. dielectric constant tensor:
#      x y z
#    x 1.715150 0.000000 0.000000 
#    y 0.000000 1.715150 0.000000 
#    z 0.000000 0.000000 1.760100 
# 
# From -- ./inp_files/4931.got.cif
#   From: 2010.03.12/outbox.cif.g09.slc.cpg/sg127_3_cif.got.tgz:4931.got - 2010.04.06 17:03:15.
