data_PCOD8314987
_publ_section_title
;
Structure prediction by ZEFSAII (Michael W. Deem and Ramdas Pophale) SiO2 
 PCOD8314987
Probable space group: P 4/N M M
;
_chemical_formula_sum "Si O2"
_cell_formula_units_Z 128
_cell_length_a 20.798456
_cell_length_b 20.798456
_cell_length_c 23.910393
_cell_angle_alpha 90.000000
_cell_angle_beta 90.000000
_cell_angle_gamma 90.000000
_cell_volume 10343.056710
_symmetry_space_group_name_H-M "P 4/N M M"
_symmetry_group_IT_number 129
_symmetry_cell_setting 'tetragonal'
loop_
_space_group_symop_operation_xyz
x,y,z
1/2-y,x,z
1/2-x,1/2-y,z
y,1/2-x,z
1/2+x,-y,-z
-x,1/2+y,-z
1/2+y,1/2+x,-z
-y,-x,-z
-x,-y,-z
1/2+y,-x,-z
1/2+x,1/2+y,-z
-y,1/2+x,-z
1/2-x,y,z
x,1/2-y,z
1/2-y,1/2-x,z
y,x,z
loop_
_atom_site_type_symbol
_atom_site_label
_atom_site_fract_x
_atom_site_fract_y
_atom_site_fract_z
Si Si1 0.441322 0.895373 0.442904
Si Si2 0.090505 0.511556 0.350311
Si Si3 0.822735 0.926743 0.455971
Si Si4 0.176289 0.599948 0.285141
Si Si5 0.326923 0.821357 0.941093
Si Si6 0.324841 0.822054 0.601980
Si Si7 0.579097 0.679214 0.588064
Si Si8 0.321788 0.673158 0.821131
O O1 0.437776 0.937776 0.500000
O O2 0.450590 0.939548 0.388164
O O3 0.502370 0.848390 0.441471
O O4 0.373925 0.857428 0.438442
O O5 0.126961 0.542106 0.297415
O O6 0.145501 0.485755 0.391828
O O7 0.043798 0.456203 0.326883
O O8 0.750000 0.917950 0.431309
O O9 0.870898 0.870898 0.432526
O O10 0.819128 0.920877 0.521936
O O11 0.250000 0.575440 0.279047
O O12 0.171061 0.651633 0.334501
O O13 0.150322 0.631167 0.227881
O O14 0.250000 0.818594 0.944426
O O15 0.355868 0.750000 0.938650
O O16 0.346106 0.855060 0.881840
O O17 0.353139 0.853139 0.000000
O O18 0.250000 0.835532 0.602199
O O19 0.340588 0.750000 0.579399
O O20 0.582128 0.750000 0.614060
O O21 0.640927 0.640927 0.610761
O O22 0.250000 0.647341 0.808348
O O23 0.319739 0.750000 0.823866
#
# Coordination Sequence:
#
# PCOD8314987 Si02
#       8
#    16  16  16  16  16  16  16  16
#     4  11  20  30  44  57  71  90 114 140 170 209
#     4  10  19  29  40  51  65  84 107 138 172 206
#     4  10  20  32  46  61  74  88 108 136 173 218
#     4   9  16  25  37  50  65  87 113 139 164 195
#     4   7   9  13  22  39  64  91 115 135 154 178
#     4   9  18  29  38  52  74  97 118 140 166 196
#     4   9  17  28  41  55  69  84 103 130 167 210
#     4   8  12  18  30  47  67  92 116 134 154 183
#
# _framework density 12.375451999999999
#
# number of rings (size 3 to 8) (size 9 to 14) (size 15 to 20)
#    0.000    2.875    1.250    2.625    0.000    3.750 
#    0.000    1.875    0.000    0.000    0.000    0.000 
#    0.000    0.500    0.000    0.000    0.000    0.000 
#
# Total GULP energy -1585697.115775 kJ/mol
# GULP energy per Si atom -12388.258717 kJ/mol
# Density = 1.234728 g / cm^3
# Si number density = 12.375452 Si / 1000 Ang^3
#
#
#
# Elastic Constant Matrix: (Units=GPa)
#
#
# Indices 1 2 3 4 5 6 
#
# 1 62.0751 32.8316 21.6371 0.0000 0.0000 0.0000
# 2 32.8316 62.0751 21.6371 0.0000 0.0000 0.0000
# 3 21.6371 21.6371 61.4242 0.0000 0.0000 0.0000
# 4 0.0000 0.0000 0.0000 7.3038 0.0000 0.0000
# 5 0.0000 0.0000 0.0000 0.0000 7.3038 0.0000
# 6 0.0000 0.0000 0.0000 0.0000 0.0000 19.4028
#
#
#
# Elastic Compliance Matrix: (Units=1/GPa)
#
#
# Indices 1 2 3 4 5 6 
#
# 1 0.023374 -0.010821 -0.004422 0.000000 0.000000 0.000000
# 2 -0.010821 0.023374 -0.004422 0.000000 0.000000 0.000000
# 3 -0.004422 -0.004422 0.019395 0.000000 0.000000 0.000000
# 4 0.000000 0.000000 0.000000 0.136916 0.000000 0.000000
# 5 0.000000 0.000000 0.000000 0.000000 0.136916 0.000000
# 6 0.000000 0.000000 0.000000 0.000000 0.000000 0.051539
#
#
# Mechanical properties :
#
#
# Convention : Reuss Voigt Hill
#
# Bulk Modulus (GPa) = 37.29411 37.53175 37.41293
# Shear Modulus (GPa) = 11.36925 14.09998 12.73461
#
# Velocity S-wave (km/s) = 3.03428 3.37909 3.21132
# Velocity P-wave (km/s) = 6.51742 6.75409 6.63681
#
# Compressibility (1/GPa) = 0.02681389
#
# Stress axis : x y z
#
# Youngs Moduli (GPa) = 42.78210 42.78210 51.55848
#
# Poissons Ratio (x) = 0.46296 0.22798
# Poissons Ratio (y) = 0.46296 0.22798
# Poissons Ratio (z) = 0.18917 0.18917
#
# Static dielectric constant tensor:
#      x y z
#    x 2.501590 0.000000 0.000000 
#    y 0.000000 2.501590 0.000000 
#    z 0.000000 0.000000 2.591950 
# 
# 
# High freq. dielectric constant tensor:
#      x y z
#    x 1.452120 0.000000 0.000000 
#    y 0.000000 1.452120 0.000000 
#    z 0.000000 0.000000 1.442790 
# 
# From -- ./inp_files/7375.got.cif
#   From: 2010.03.12/outbox.cif.g09.slc.cpg/sg129_4_cif.got.tgz:7375.got - 2010.04.06 17:19:44.
