data_PCOD8314070
_publ_section_title
;
Structure prediction by ZEFSAII (Michael W. Deem and Ramdas Pophale) SiO2 
 PCOD8314070
Probable space group: P 4/M B M
;
_chemical_formula_sum "Si O2"
_cell_formula_units_Z 120
_cell_length_a 21.976021
_cell_length_b 21.976021
_cell_length_c 14.401610
_cell_angle_alpha 90.000000
_cell_angle_beta 90.000000
_cell_angle_gamma 90.000000
_cell_volume 6955.192728
_symmetry_space_group_name_H-M "P 4/M B M"
_symmetry_group_IT_number 127
_symmetry_cell_setting 'tetragonal'
loop_
_space_group_symop_operation_xyz
x,y,z
-y,x,z
-x,-y,z
y,-x,z
1/2+x,1/2-y,-z
1/2-x,1/2+y,-z
1/2+y,1/2+x,-z
1/2-y,1/2-x,-z
-x,-y,-z
y,-x,-z
x,y,-z
-y,x,-z
1/2-x,1/2+y,z
1/2+x,1/2-y,z
1/2-y,1/2-x,z
1/2+y,1/2+x,z
loop_
_atom_site_type_symbol
_atom_site_label
_atom_site_fract_x
_atom_site_fract_y
_atom_site_fract_z
Si Si1 0.177765 0.035348 0.605253
Si Si2 0.897679 0.847075 0.396049
Si Si3 0.785995 0.186512 0.252397
Si Si4 0.919469 0.214407 0.788654
Si Si5 0.964089 0.093255 0.891773
Si Si6 0.713557 0.115435 0.895496
Si Si7 0.483347 0.181643 0.889897
Si Si8 0.951402 0.451402 0.889202
O O1 0.205273 0.040083 0.500000
O O2 0.123380 0.083639 0.619018
O O3 0.226332 0.051189 0.686052
O O4 0.151916 0.968890 0.626191
O O5 0.885092 0.824906 0.500000
O O6 0.861091 0.798629 0.334468
O O7 0.736668 0.236668 0.285171
O O8 0.847274 0.218923 0.220431
O O9 0.763549 0.149784 0.163553
O O10 0.942142 0.149722 0.829476
O O11 0.934753 0.269758 0.855566
O O12 0.034587 0.077844 0.869237
O O13 0.957722 0.110802 0.000000
O O14 0.648926 0.148926 0.893404
O O15 0.702522 0.049021 0.853024
O O16 0.739412 0.111835 0.000000
O O17 0.468295 0.115049 0.849996
O O18 0.482355 0.179603 0.000000
O O19 0.000000 0.500000 0.850409
O O20 0.951927 0.451927 0.000000
#
# Coordination Sequence:
#
# PCOD8314070 Si02
#       8
#    16  16  16  16  16  16  16   8
#     4   9  19  33  50  75 104 131 165 207 253 303
#     4   9  18  34  53  74 100 129 161 203 253 302
#     4  10  22  36  49  70 100 132 170 209 249 297
#     4  11  22  32  52  73 101 138 173 211 258 299
#     4   9  20  36  51  72 104 141 182 218 245 285
#     4   9  18  33  51  71  96 129 166 206 250 299
#     4  10  20  32  51  77 101 129 168 208 253 312
#     4   9  18  34  54  76 105 135 163 211 270 319
#
# _framework density 17.253295999999999
#
# number of rings (size 3 to 8) (size 9 to 14) (size 15 to 20)
#    0.000    2.467    0.000    2.000    6.533    3.200 
#    0.000    1.333    0.000    0.000    0.000    0.000 
#    0.000    0.533    0.000    0.000    0.000    0.267 
#
# Total GULP energy -1487692.417751 kJ/mol
# GULP energy per Si atom -12397.436815 kJ/mol
# Density = 1.721403 g / cm^3
# Si number density = 17.253296 Si / 1000 Ang^3
#
#
#
# Elastic Constant Matrix: (Units=GPa)
#
#
# Indices 1 2 3 4 5 6 
#
# 1 96.8596 38.9744 37.0397 0.0000 0.0000 0.0000
# 2 38.9744 96.8596 37.0397 0.0000 0.0000 0.0000
# 3 37.0397 37.0397 55.5363 0.0000 0.0000 0.0000
# 4 0.0000 0.0000 0.0000 21.6835 0.0000 0.0000
# 5 0.0000 0.0000 0.0000 0.0000 21.6835 0.0000
# 6 0.0000 0.0000 0.0000 0.0000 0.0000 13.9627
#
#
#
# Elastic Compliance Matrix: (Units=1/GPa)
#
#
# Indices 1 2 3 4 5 6 
#
# 1 0.014423 -0.002853 -0.007717 0.000000 0.000000 0.000000
# 2 -0.002853 0.014423 -0.007717 0.000000 0.000000 0.000000
# 3 -0.007717 -0.007717 0.028300 0.000000 0.000000 0.000000
# 4 0.000000 0.000000 0.000000 0.046118 0.000000 0.000000
# 5 0.000000 0.000000 0.000000 0.000000 0.046118 0.000000
# 6 0.000000 0.000000 0.000000 0.000000 0.000000 0.071620
#
#
# Mechanical properties :
#
#
# Convention : Reuss Voigt Hill
#
# Bulk Modulus (GPa) = 48.60709 52.81816 50.71262
# Shear Modulus (GPa) = 18.90848 20.54605 19.72727
#
# Velocity S-wave (km/s) = 3.31408 3.45461 3.38508
# Velocity P-wave (km/s) = 6.54813 6.82585 6.68843
#
# Compressibility (1/GPa) = 0.02057313
#
# Stress axis : x y z
#
# Youngs Moduli (GPa) = 69.33361 69.33361 35.33606
#
# Poissons Ratio (x) = 0.19778 0.27268
# Poissons Ratio (y) = 0.19778 0.27268
# Poissons Ratio (z) = 0.53504 0.53504
#
# Static dielectric constant tensor:
#      x y z
#    x 3.195820 0.000000 0.000000 
#    y 0.000000 3.195820 0.000000 
#    z 0.000000 0.000000 3.339480 
# 
# 
# High freq. dielectric constant tensor:
#      x y z
#    x 1.662140 0.000000 0.000000 
#    y 0.000000 1.662140 0.000000 
#    z 0.000000 0.000000 1.658290 
# 
# From -- ./inp_files/4643.got.cif
#   From: 2010.03.12/outbox.cif.g09.slc.cpg/sg127_3_cif.got.tgz:4643.got - 2010.04.06 17:03:15.
