data_PCOD8314872
_publ_section_title
;
Structure prediction by ZEFSAII (Michael W. Deem and Ramdas Pophale) SiO2 
 PCOD8314872
Probable space group: P 4/N M M
;
_chemical_formula_sum "Si O2"
_cell_formula_units_Z 96
_cell_length_a 22.639209
_cell_length_b 22.639209
_cell_length_c 12.619590
_cell_angle_alpha 90.000000
_cell_angle_beta 90.000000
_cell_angle_gamma 90.000000
_cell_volume 6467.966217
_symmetry_space_group_name_H-M "P 4/N M M"
_symmetry_group_IT_number 129
_symmetry_cell_setting 'tetragonal'
loop_
_space_group_symop_operation_xyz
x,y,z
1/2-y,x,z
1/2-x,1/2-y,z
y,1/2-x,z
1/2+x,-y,-z
-x,1/2+y,-z
1/2+y,1/2+x,-z
-y,-x,-z
-x,-y,-z
1/2+y,-x,-z
1/2+x,1/2+y,-z
-y,1/2+x,-z
1/2-x,y,z
x,1/2-y,z
1/2-y,1/2-x,z
y,x,z
loop_
_atom_site_type_symbol
_atom_site_label
_atom_site_fract_x
_atom_site_fract_y
_atom_site_fract_z
Si Si1 0.988688 0.816478 0.676435
Si Si2 0.623924 0.974508 0.299636
Si Si3 0.085600 0.318230 0.885810
Si Si4 0.964082 0.439130 0.378124
Si Si5 0.315704 0.411964 0.522388
Si Si6 0.683507 0.912255 0.874211
O O1 0.017023 0.750000 0.665279
O O2 0.932913 0.821496 0.598391
O O3 0.967087 0.826894 0.796286
O O4 0.033164 0.869494 0.648409
O O5 0.574522 0.925479 0.311456
O O6 0.658869 0.967689 0.188917
O O7 0.667699 0.966146 0.399416
O O8 0.590380 0.037176 0.306514
O O9 0.099206 0.250000 0.861511
O O10 0.145712 0.354289 0.861858
O O11 0.064789 0.328379 0.006527
O O12 0.948114 0.448114 0.500000
O O13 0.025799 0.474202 0.353465
O O14 0.250000 0.391257 0.548950
O O15 0.355815 0.355815 0.543553
O O16 0.750000 0.887819 0.863564
O O17 0.641201 0.858799 0.842930
#
# Coordination Sequence:
#
# PCOD8314872 Si02
#       6
#    16  16  16  16  16  16
#     4  10  19  30  44  63  86 110 142 183 226 264
#     4   9  17  28  42  61  83 108 143 185 221 254
#     4   9  17  29  43  61  88 121 156 189 219 252
#     4  10  17  28  47  66  86 113 146 180 219 270
#     4  10  18  27  40  59  86 116 145 178 213 249
#     4   9  17  28  42  59  84 120 155 186 217 250
#
# _framework density 14.842378999999999
#
# number of rings (size 3 to 8) (size 9 to 14) (size 15 to 20)
#    0.000    2.500    1.667    2.000    0.000    0.500 
#    0.000    2.500    0.000   10.000    0.000    0.000 
#    0.000    5.667    0.000    0.000    0.000   28.000 
#
# Total GULP energy -1189869.096055 kJ/mol
# GULP energy per Si atom -12394.469751 kJ/mol
# Density = 1.480860 g / cm^3
# Si number density = 14.842379 Si / 1000 Ang^3
#
#
#
# Elastic Constant Matrix: (Units=GPa)
#
#
# Indices 1 2 3 4 5 6 
#
# 1 83.7651 50.4645 37.2479 0.0000 0.0000 0.0000
# 2 50.4645 83.7651 37.2479 0.0000 0.0000 0.0000
# 3 37.2479 37.2479 80.7184 0.0000 0.0000 0.0000
# 4 0.0000 0.0000 0.0000 19.8305 0.0000 0.0000
# 5 0.0000 0.0000 0.0000 0.0000 19.8305 0.0000
# 6 0.0000 0.0000 0.0000 0.0000 0.0000 22.1546
#
#
#
# Elastic Compliance Matrix: (Units=1/GPa)
#
#
# Indices 1 2 3 4 5 6 
#
# 1 0.020022 -0.010007 -0.004621 0.000000 0.000000 0.000000
# 2 -0.010007 0.020022 -0.004621 0.000000 0.000000 0.000000
# 3 -0.004621 -0.004621 0.016654 0.000000 0.000000 0.000000
# 4 0.000000 0.000000 0.000000 0.050427 0.000000 0.000000
# 5 0.000000 0.000000 0.000000 0.000000 0.050427 0.000000
# 6 0.000000 0.000000 0.000000 0.000000 0.000000 0.045137
#
#
# Mechanical properties :
#
#
# Convention : Reuss Voigt Hill
#
# Bulk Modulus (GPa) = 54.95139 55.35212 55.15175
# Shear Modulus (GPa) = 20.22196 20.58236 20.40216
#
# Velocity S-wave (km/s) = 3.69514 3.72792 3.71157
# Velocity P-wave (km/s) = 7.43701 7.47691 7.45698
#
# Compressibility (1/GPa) = 0.01819790
#
# Stress axis : x y z
#
# Youngs Moduli (GPa) = 49.94486 49.94486 60.04631
#
# Poissons Ratio (x) = 0.49982 0.27749
# Poissons Ratio (y) = 0.49982 0.27749
# Poissons Ratio (z) = 0.23081 0.23081
#
# Static dielectric constant tensor:
#      x y z
#    x 2.818340 0.000000 0.000000 
#    y 0.000000 2.818340 0.000000 
#    z 0.000000 0.000000 3.071300 
# 
# 
# High freq. dielectric constant tensor:
#      x y z
#    x 1.540690 0.000000 0.000000 
#    y 0.000000 1.540690 0.000000 
#    z 0.000000 0.000000 1.580900 
# 
# From -- ./inp_files/3893.got.cif
#   From: 2010.03.12/outbox.cif.g09.slc.cpg/sg129_2_cif.got.tgz:3893.got - 2010.04.06 17:19:44.
