data_PCOD8314463
_publ_section_title
;
Structure prediction by ZEFSAII (Michael W. Deem and Ramdas Pophale) SiO2 
 PCOD8314463
Probable space group: P 4/M B M
;
_chemical_formula_sum "Si O2"
_cell_formula_units_Z 64
_cell_length_a 16.580946
_cell_length_b 16.580946
_cell_length_c 10.106054
_cell_angle_alpha 90.000000
_cell_angle_beta 90.000000
_cell_angle_gamma 90.000000
_cell_volume 2778.434892
_symmetry_space_group_name_H-M "P 4/M B M"
_symmetry_group_IT_number 127
_symmetry_cell_setting 'tetragonal'
loop_
_space_group_symop_operation_xyz
x,y,z
-y,x,z
-x,-y,z
y,-x,z
1/2+x,1/2-y,-z
1/2-x,1/2+y,-z
1/2+y,1/2+x,-z
1/2-y,1/2-x,-z
-x,-y,-z
y,-x,-z
x,y,-z
-y,x,-z
1/2-x,1/2+y,z
1/2+x,1/2-y,z
1/2-y,1/2-x,z
1/2+y,1/2+x,z
loop_
_atom_site_type_symbol
_atom_site_label
_atom_site_fract_x
_atom_site_fract_y
_atom_site_fract_z
Si Si1 0.495979 0.131102 0.145443
Si Si2 0.155926 0.784941 0.653623
Si Si3 0.378875 0.553460 0.847177
Si Si4 0.786931 0.582692 0.357135
O O1 0.416063 0.083938 0.191684
O O2 0.512014 0.203529 0.248486
O O3 0.570701 0.070701 0.137616
O O4 0.483107 0.169585 0.000000
O O5 0.128892 0.787898 0.500000
O O6 0.198470 0.698470 0.685120
O O7 0.081823 0.805150 0.751924
O O8 0.219692 0.854609 0.685720
O O9 0.395452 0.459761 0.816364
O O10 0.354044 0.566021 0.000000
O O11 0.766437 0.542901 0.500000
O O12 0.871932 0.628069 0.369780
#
# Coordination Sequence:
#
# PCOD8314463 Si02
#       4
#    16  16  16  16
#     4   8  13  20  30  47  73 106 148 199 249 296
#     4   9  18  32  51  79 113 144 178 224 276 333
#     4   9  19  36  57  83 115 148 185 233 286 339
#     4   8  14  24  37  56  85 119 154 195 244 297
#
# _framework density 23.034548999999998
#
# number of rings (size 3 to 8) (size 9 to 14) (size 15 to 20)
#    0.000    3.500    0.000    3.000    0.000    3.000 
#    0.000    6.250    0.000    1.500    0.000    0.000 
#    0.000    0.000    0.000    0.000    0.000    0.000 
#
# Total GULP energy -793052.472773 kJ/mol
# GULP energy per Si atom -12391.444887 kJ/mol
# Density = 2.298212 g / cm^3
# Si number density = 23.034549 Si / 1000 Ang^3
#
#
#
# Elastic Constant Matrix: (Units=GPa)
#
#
# Indices 1 2 3 4 5 6 
#
# 1 47.2936 35.9353 35.2261 0.0000 0.0000 0.0000
# 2 35.9353 47.2936 35.2261 0.0000 0.0000 0.0000
# 3 35.2261 35.2261 112.6775 0.0000 0.0000 0.0000
# 4 0.0000 0.0000 0.0000 25.0583 0.0000 0.0000
# 5 0.0000 0.0000 0.0000 0.0000 25.0583 0.0000
# 6 0.0000 0.0000 0.0000 0.0000 0.0000 45.9393
#
#
#
# Elastic Compliance Matrix: (Units=1/GPa)
#
#
# Indices 1 2 3 4 5 6 
#
# 1 0.052190 -0.035851 -0.005108 0.000000 0.000000 0.000000
# 2 -0.035851 0.052190 -0.005108 0.000000 0.000000 0.000000
# 3 -0.005108 -0.005108 0.012069 0.000000 0.000000 0.000000
# 4 0.000000 0.000000 0.000000 0.039907 0.000000 0.000000
# 5 0.000000 0.000000 0.000000 0.000000 0.039907 0.000000
# 6 0.000000 0.000000 0.000000 0.000000 0.000000 0.021768
#
#
# Mechanical properties :
#
#
# Convention : Reuss Voigt Hill
#
# Bulk Modulus (GPa) = 41.12766 46.67107 43.89937
# Shear Modulus (GPa) = 15.70995 25.93632 20.82313
#
# Velocity S-wave (km/s) = 2.61438 3.35919 3.00991
# Velocity P-wave (km/s) = 5.19681 5.94566 5.58380
#
# Compressibility (1/GPa) = 0.02431453
#
# Stress axis : x y z
#
# Youngs Moduli (GPa) = 19.16074 19.16074 82.85900
#
# Poissons Ratio (x) = 0.68693 0.42324
# Poissons Ratio (y) = 0.68693 0.42324
# Poissons Ratio (z) = 0.09787 0.09787
#
# Static dielectric constant tensor:
#      x y z
#    x 3.895660 0.000000 0.000000 
#    y 0.000000 3.895660 0.000000 
#    z 0.000000 0.000000 4.553890 
# 
# 
# High freq. dielectric constant tensor:
#      x y z
#    x 1.900140 0.000000 0.000000 
#    y 0.000000 1.900140 0.000000 
#    z 0.000000 0.000000 1.907170 
# 
# From -- ./inp_files/3040.got.cif
#   From: 2010.03.12/outbox.cif.g09.slc.cpg/sg127_2_cif.got.tgz:3040.got - 2010.04.06 17:03:15.
