data_PCOD8314325
_publ_section_title
;
Structure prediction by ZEFSAII (Michael W. Deem and Ramdas Pophale) SiO2 
 PCOD8314325
Probable space group: P 4/M B M
;
_chemical_formula_sum "Si O2"
_cell_formula_units_Z 96
_cell_length_a 23.658608
_cell_length_b 23.658608
_cell_length_c 8.714696
_cell_angle_alpha 90.000000
_cell_angle_beta 90.000000
_cell_angle_gamma 90.000000
_cell_volume 4877.874461
_symmetry_space_group_name_H-M "P 4/M B M"
_symmetry_group_IT_number 127
_symmetry_cell_setting 'tetragonal'
loop_
_space_group_symop_operation_xyz
x,y,z
-y,x,z
-x,-y,z
y,-x,z
1/2+x,1/2-y,-z
1/2-x,1/2+y,-z
1/2+y,1/2+x,-z
1/2-y,1/2-x,-z
-x,-y,-z
y,-x,-z
x,y,-z
-y,x,-z
1/2-x,1/2+y,z
1/2+x,1/2-y,z
1/2-y,1/2-x,z
1/2+y,1/2+x,z
loop_
_atom_site_type_symbol
_atom_site_label
_atom_site_fract_x
_atom_site_fract_y
_atom_site_fract_z
Si Si1 0.353641 0.486354 0.823882
Si Si2 0.909945 0.112516 0.324263
Si Si3 0.838463 0.202127 0.819763
Si Si4 0.987851 0.738364 0.679891
Si Si5 0.274316 0.865829 0.177773
Si Si6 0.107321 0.694659 0.324640
O O1 0.361881 0.431125 0.721967
O O2 0.399190 0.533977 0.777193
O O3 0.291975 0.507803 0.778788
O O4 0.359050 0.470021 0.000000
O O5 0.927104 0.107773 0.500000
O O6 0.886376 0.173536 0.283846
O O7 0.777386 0.175814 0.772133
O O8 0.849746 0.267412 0.779258
O O9 0.848722 0.191849 0.000000
O O10 0.984910 0.752559 0.500000
O O11 0.039772 0.694964 0.716719
O O12 0.925009 0.719338 0.731485
O O13 0.332071 0.832071 0.208173
O O14 0.266445 0.881429 0.000000
O O15 0.114574 0.715012 0.500000
O O16 0.130357 0.630357 0.303594
#
# Coordination Sequence:
#
# PCOD8314325 Si02
#       6
#    16  16  16  16  16  16
#     4  12  24  40  60  84 115 157 202 246 295 347
#     4  12  24  39  59  85 116 155 202 250 292 342
#     4  11  21  35  58  88 120 156 194 239 294 353
#     4  11  22  37  60  87 117 155 195 239 293 356
#     4  10  22  39  59  86 121 157 196 244 296 352
#     4  10  22  39  59  86 121 157 196 244 296 351
#
# _framework density 19.680703000000001
#
# number of rings (size 3 to 8) (size 9 to 14) (size 15 to 20)
#    0.000    1.000    3.333    4.500    0.000    3.000 
#    0.000    1.667    0.000    0.500    0.000    3.500 
#    0.000    0.000    0.000    0.000    0.000    0.000 
#
# Total GULP energy -1189687.698250 kJ/mol
# GULP energy per Si atom -12392.580190 kJ/mol
# Density = 1.963591 g / cm^3
# Si number density = 19.680703 Si / 1000 Ang^3
#
#
#
# Elastic Constant Matrix: (Units=GPa)
#
#
# Indices 1 2 3 4 5 6 
#
# 1 85.6237 40.9630 34.6459 0.0000 0.0000 0.0000
# 2 40.9630 85.6237 34.6459 0.0000 0.0000 0.0000
# 3 34.6459 34.6459 75.5603 0.0000 0.0000 0.0000
# 4 0.0000 0.0000 0.0000 24.0260 0.0000 0.0000
# 5 0.0000 0.0000 0.0000 0.0000 24.0260 0.0000
# 6 0.0000 0.0000 0.0000 0.0000 0.0000 28.5561
#
#
#
# Elastic Compliance Matrix: (Units=1/GPa)
#
#
# Indices 1 2 3 4 5 6 
#
# 1 0.016469 -0.005922 -0.004836 0.000000 0.000000 0.000000
# 2 -0.005922 0.016469 -0.004836 0.000000 0.000000 0.000000
# 3 -0.004836 -0.004836 0.017669 0.000000 0.000000 0.000000
# 4 0.000000 0.000000 0.000000 0.041622 0.000000 0.000000
# 5 0.000000 0.000000 0.000000 0.000000 0.041622 0.000000
# 6 0.000000 0.000000 0.000000 0.000000 0.000000 0.035019
#
#
# Mechanical properties :
#
#
# Convention : Reuss Voigt Hill
#
# Bulk Modulus (GPa) = 51.49556 51.92416 51.70986
# Shear Modulus (GPa) = 24.20956 24.42516 24.31736
#
# Velocity S-wave (km/s) = 3.51111 3.52671 3.51892
# Velocity P-wave (km/s) = 6.53142 6.55928 6.54536
#
# Compressibility (1/GPa) = 0.01941915
#
# Stress axis : x y z
#
# Youngs Moduli (GPa) = 60.72036 60.72036 56.59560
#
# Poissons Ratio (x) = 0.35959 0.27369
# Poissons Ratio (y) = 0.35959 0.27369
# Poissons Ratio (z) = 0.29364 0.29364
#
# Static dielectric constant tensor:
#      x y z
#    x 3.582650 0.000000 0.000000 
#    y 0.000000 3.582650 0.000000 
#    z 0.000000 0.000000 3.538060 
# 
# 
# High freq. dielectric constant tensor:
#      x y z
#    x 1.757340 0.000000 0.000000 
#    y 0.000000 1.757340 0.000000 
#    z 0.000000 0.000000 1.769670 
# 
# From -- ./inp_files/1977.got.cif
#   From: 2010.03.12/outbox.cif.g09.slc.cpg/sg127_1_cif.got.tgz:1977.got - 2010.04.06 17:03:15.
