data_PCOD8314731
_publ_section_title
;
Structure prediction by ZEFSAII (Michael W. Deem and Ramdas Pophale) SiO2 
 PCOD8314731
Probable space group: P 4/M N C
;
_chemical_formula_sum "Si O2"
_cell_formula_units_Z 96
_cell_length_a 23.624613
_cell_length_b 23.624613
_cell_length_c 8.651967
_cell_angle_alpha 90.000000
_cell_angle_beta 90.000000
_cell_angle_gamma 90.000000
_cell_volume 4828.856062
_symmetry_space_group_name_H-M "P 4/M N C"
_symmetry_group_IT_number 128
_symmetry_cell_setting 'tetragonal'
loop_
_space_group_symop_operation_xyz
x,y,z
-y,x,z
-x,-y,z
y,-x,z
1/2+x,1/2-y,1/2-z
1/2-x,1/2+y,1/2-z
1/2+y,1/2+x,1/2-z
1/2-y,1/2-x,1/2-z
-x,-y,-z
y,-x,-z
x,y,-z
-y,x,-z
1/2-x,1/2+y,1/2+z
1/2+x,1/2-y,1/2+z
1/2-y,1/2-x,1/2+z
1/2+y,1/2+x,1/2+z
loop_
_atom_site_type_symbol
_atom_site_label
_atom_site_fract_x
_atom_site_fract_y
_atom_site_fract_z
Si Si1 0.985473 0.270182 0.826355
Si Si2 0.172700 0.205372 0.820420
Si Si3 0.361806 0.221714 0.181952
Si Si4 0.117459 0.902409 0.679963
Si Si5 0.858840 0.988139 0.173859
Si Si6 0.104758 0.313556 0.183652
O O1 0.006859 0.205921 0.830162
O O2 0.040138 0.303365 0.754691
O O3 0.927456 0.275478 0.731128
O O4 0.972257 0.291392 0.000000
O O5 0.225987 0.178612 0.731026
O O6 0.117765 0.168479 0.786420
O O7 0.152105 0.267215 0.763069
O O8 0.188609 0.204484 0.000000
O O9 0.335911 0.164090 0.250000
O O10 0.360077 0.219358 0.000000
O O11 0.133209 0.901301 0.500000
O O12 0.102757 0.964893 0.741619
O O13 0.065637 0.861339 0.714621
O O14 0.881330 0.975723 0.000000
O O15 0.126243 0.373758 0.250000
O O16 0.101944 0.313843 0.000000
#
# Coordination Sequence:
#
# PCOD8314731 Si02
#       6
#    16  16  16  16  16  16
#     4  10  21  40  63  86 118 159 199 241 293 359
#     4  11  21  38  60  87 124 164 201 242 298 359
#     4  12  25  40  61  92 124 159 201 248 302 356
#     4  12  24  37  57  87 119 152 203 259 302 350
#     4  11  22  40  62  81 113 161 207 247 301 359
#     4  10  22  39  61  90 122 157 197 240 292 351
#
# _framework density 19.880483000000002
#
# number of rings (size 3 to 8) (size 9 to 14) (size 15 to 20)
#    0.000    1.000    3.333    4.500    0.000    4.333 
#    0.000    1.667    0.000    0.500    0.000    3.500 
#    0.000    0.000    0.000    0.000    0.000    0.000 
#
# Total GULP energy -1189840.429326 kJ/mol
# GULP energy per Si atom -12394.171139 kJ/mol
# Density = 1.983523 g / cm^3
# Si number density = 19.880483 Si / 1000 Ang^3
#
#
#
# Elastic Constant Matrix: (Units=GPa)
#
#
# Indices 1 2 3 4 5 6 
#
# 1 63.1040 67.2159 41.3053 0.0000 0.0000 0.0000
# 2 67.2159 63.1037 41.3109 0.0000 0.0000 0.0000
# 3 41.3053 41.3109 79.9311 0.0000 0.0000 0.0000
# 4 0.0000 0.0000 0.0000 29.7381 0.0000 0.0000
# 5 0.0000 0.0000 0.0000 0.0000 29.7378 0.0000
# 6 0.0000 0.0000 0.0000 0.0000 0.0000 30.3832
#
#
#
# Elastic Compliance Matrix: (Units=1/GPa)
#
#
# Indices 1 2 3 4 5 6 
#
# 1 -0.115878 0.127299 -0.005911 0.000000 0.000000 0.000000
# 2 0.127299 -0.115895 -0.005885 0.000000 0.000000 0.000000
# 3 -0.005911 -0.005885 0.018607 0.000000 0.000000 0.000000
# 4 0.000000 0.000000 0.000000 0.033627 0.000000 0.000000
# 5 0.000000 0.000000 0.000000 0.000000 0.033627 0.000000
# 6 0.000000 0.000000 0.000000 0.000000 0.000000 0.032913
#
#
# Mechanical properties :
#
#
# Convention : Reuss Voigt Hill
#
# Bulk Modulus (GPa) = 56.05369 56.20033 56.12701
# Shear Modulus (GPa) = -14.79029 21.72559 3.46765
#
# Velocity S-wave (km/s) = -2.73052 3.30935 1.32213
# Velocity P-wave (km/s) = 4.27967 6.55232 5.53392
#
# Compressibility (1/GPa) = 0.01784004
#
# Stress axis : x y z
#
# Youngs Moduli (GPa) = -8.62974 -8.62849 53.74388
#
# Poissons Ratio (x) = 1.09840 0.31766
# Poissons Ratio (y) = 1.09856 0.31629
# Poissons Ratio (z) = -0.05101 -0.05078
#
# Static dielectric constant tensor:
#      x y z
#    x 3.700170 0.000000 0.000000 
#    y 0.000000 3.700170 0.000000 
#    z 0.000000 0.000000 3.513710 
# 
# 
# High freq. dielectric constant tensor:
#      x y z
#    x 1.767620 0.000000 0.000000 
#    y 0.000000 1.767620 0.000000 
#    z 0.000000 0.000000 1.775120 
# 
# From -- ./inp_files/1444.got.cif
#   From: 2010.03.12/outbox.cif.g09.slc.cpg/sg128_1_cif.got.tgz:1444.got - 2010.04.06 17:11:05.
