data_PCOD8314195
_publ_section_title
;
Structure prediction by ZEFSAII (Michael W. Deem and Ramdas Pophale) SiO2 
 PCOD8314195
Probable space group: P 4/M B M
;
_chemical_formula_sum "Si O2"
_cell_formula_units_Z 96
_cell_length_a 16.844942
_cell_length_b 16.844942
_cell_length_c 18.276855
_cell_angle_alpha 90.000000
_cell_angle_beta 90.000000
_cell_angle_gamma 90.000000
_cell_volume 5186.095457
_symmetry_space_group_name_H-M "P 4/M B M"
_symmetry_group_IT_number 127
_symmetry_cell_setting 'tetragonal'
loop_
_space_group_symop_operation_xyz
x,y,z
-y,x,z
-x,-y,z
y,-x,z
1/2+x,1/2-y,-z
1/2-x,1/2+y,-z
1/2+y,1/2+x,-z
1/2-y,1/2-x,-z
-x,-y,-z
y,-x,-z
x,y,-z
-y,x,-z
1/2-x,1/2+y,z
1/2+x,1/2-y,z
1/2-y,1/2-x,z
1/2+y,1/2+x,z
loop_
_atom_site_type_symbol
_atom_site_label
_atom_site_fract_x
_atom_site_fract_y
_atom_site_fract_z
Si Si1 0.747319 0.480031 0.806571
Si Si2 0.840677 0.211382 0.701744
Si Si3 0.372557 0.473754 0.919284
Si Si4 0.003824 0.374066 0.079983
Si Si5 0.433321 0.193720 0.584550
Si Si6 0.916053 0.716236 0.674820
O O1 0.706096 0.402740 0.769669
O O2 0.686559 0.536260 0.851164
O O3 0.814505 0.459236 0.865150
O O4 0.792985 0.530603 0.746119
O O5 0.771638 0.271638 0.726376
O O6 0.884648 0.240670 0.629119
O O7 0.803124 0.125972 0.679351
O O8 0.438644 0.407590 0.911492
O O9 0.332479 0.465564 0.000000
O O10 0.947298 0.447298 0.070673
O O11 0.090003 0.409998 0.106437
O O12 0.014935 0.333207 0.000000
O O13 0.425219 0.215959 0.500000
O O14 0.394005 0.105996 0.599534
O O15 0.526164 0.200806 0.605656
O O16 0.850340 0.649661 0.671584
#
# Coordination Sequence:
#
# PCOD8314195 Si02
#       6
#    16  16  16  16  16  16
#     4  11  18  30  50  71  94 129 168 207 246 292
#     4   9  19  34  50  72 102 133 165 200 242 297
#     4   9  18  31  46  66  91 120 159 206 252 295
#     4   9  18  31  46  67  96 130 169 211 254 299
#     4   9  19  36  57  79 102 130 164 200 239 290
#     4  10  21  34  50  76 106 133 162 201 250 298
#
# _framework density 18.511036000000001
#
# number of rings (size 3 to 8) (size 9 to 14) (size 15 to 20)
#    0.000    2.500    0.000    3.500    0.000    2.000 
#    0.000    2.500    0.000    4.500    0.000   18.667 
#    0.000    0.000    0.000    0.000    0.000    0.000 
#
# Total GULP energy -1189281.550575 kJ/mol
# GULP energy per Si atom -12388.349485 kJ/mol
# Density = 1.846890 g / cm^3
# Si number density = 18.511036 Si / 1000 Ang^3
#
#
#
# Elastic Constant Matrix: (Units=GPa)
#
#
# Indices 1 2 3 4 5 6 
#
# 1 69.8066 18.1700 25.6437 0.0000 0.0000 0.0000
# 2 18.1700 69.8066 25.6437 0.0000 0.0000 0.0000
# 3 25.6437 25.6437 101.3605 0.0000 0.0000 0.0000
# 4 0.0000 0.0000 0.0000 14.7564 0.0000 0.0000
# 5 0.0000 0.0000 0.0000 0.0000 14.7564 0.0000
# 6 0.0000 0.0000 0.0000 0.0000 0.0000 24.8004
#
#
#
# Elastic Compliance Matrix: (Units=1/GPa)
#
#
# Indices 1 2 3 4 5 6 
#
# 1 0.016350 -0.003017 -0.003373 0.000000 0.000000 0.000000
# 2 -0.003017 0.016350 -0.003373 0.000000 0.000000 0.000000
# 3 -0.003373 -0.003373 0.011573 0.000000 0.000000 0.000000
# 4 0.000000 0.000000 0.000000 0.067767 0.000000 0.000000
# 5 0.000000 0.000000 0.000000 0.000000 0.067767 0.000000
# 6 0.000000 0.000000 0.000000 0.000000 0.000000 0.040322
#
#
# Mechanical properties :
#
#
# Convention : Reuss Voigt Hill
#
# Bulk Modulus (GPa) = 40.41060 42.20983 41.31021
# Shear Modulus (GPa) = 20.16918 22.29706 21.23312
#
# Velocity S-wave (km/s) = 3.30445 3.47440 3.39049
# Velocity P-wave (km/s) = 6.03632 6.24077 6.13940
#
# Compressibility (1/GPa) = 0.02474598
#
# Stress axis : x y z
#
# Youngs Moduli (GPa) = 61.16354 61.16354 86.41113
#
# Poissons Ratio (x) = 0.18450 0.29148
# Poissons Ratio (y) = 0.18450 0.29148
# Poissons Ratio (z) = 0.20632 0.20632
#
# Static dielectric constant tensor:
#      x y z
#    x 3.410420 0.000000 0.000000 
#    y 0.000000 3.410420 0.000000 
#    z 0.000000 0.000000 3.472910 
# 
# 
# High freq. dielectric constant tensor:
#      x y z
#    x 1.707390 0.000000 0.000000 
#    y 0.000000 1.707390 0.000000 
#    z 0.000000 0.000000 1.724310 
# 
# From -- ./inp_files/5118.got.cif
#   From: 2010.03.12/outbox.cif.g09.slc.cpg/sg127_3_cif.got.tgz:5118.got - 2010.04.06 17:03:15.
