data_PCOD8314036
_publ_section_title
;
Structure prediction by ZEFSAII (Michael W. Deem and Ramdas Pophale) SiO2 
 PCOD8314036
Probable space group: P 4/M B M
;
_chemical_formula_sum "Si O2"
_cell_formula_units_Z 72
_cell_length_a 20.285180
_cell_length_b 20.285180
_cell_length_c 8.668154
_cell_angle_alpha 90.000000
_cell_angle_beta 90.000000
_cell_angle_gamma 90.000000
_cell_volume 3566.845927
_symmetry_space_group_name_H-M "P 4/M B M"
_symmetry_group_IT_number 127
_symmetry_cell_setting 'tetragonal'
loop_
_space_group_symop_operation_xyz
x,y,z
-y,x,z
-x,-y,z
y,-x,z
1/2+x,1/2-y,-z
1/2-x,1/2+y,-z
1/2+y,1/2+x,-z
1/2-y,1/2-x,-z
-x,-y,-z
y,-x,-z
x,y,-z
-y,x,-z
1/2-x,1/2+y,z
1/2+x,1/2-y,z
1/2-y,1/2-x,z
1/2+y,1/2+x,z
loop_
_atom_site_type_symbol
_atom_site_label
_atom_site_fract_x
_atom_site_fract_y
_atom_site_fract_z
Si Si1 0.338188 0.161813 0.683339
Si Si2 0.585848 0.555355 0.817043
Si Si3 0.987922 0.313653 0.683421
Si Si4 0.404476 0.724996 0.182029
Si Si5 0.768400 0.731601 0.318305
Si Si6 0.051343 0.448658 0.682841
O O1 0.338329 0.161672 0.500000
O O2 0.319151 0.088069 0.741340
O O3 0.284843 0.215158 0.748582
O O4 0.519865 0.589965 0.753217
O O5 0.648988 0.596374 0.763527
O O6 0.584684 0.551121 0.000000
O O7 0.989884 0.305653 0.500000
O O8 0.024918 0.253198 0.764002
O O9 0.030316 0.376602 0.739572
O O10 0.342456 0.756047 0.265696
O O11 0.397098 0.734202 0.000000
O O12 0.765074 0.734927 0.500000
O O13 0.047799 0.452202 0.500000
O O14 0.000000 0.500000 0.755517
#
# Coordination Sequence:
#
# PCOD8314036 Si02
#       6
#     8  16  16  16   8   8
#     4   9  20  37  60  88 118 157 205 244 283 350
#     4   8  16  33  56  81 110 146 188 233 285 346
#     4  10  19  35  59  87 116 151 193 235 284 348
#     4  11  23  37  59  88 117 150 194 243 294 350
#     4  11  24  42  58  79 118 165 202 241 294 351
#     4   9  15  28  54  80 103 136 183 226 266 325
#
# _framework density 20.185901000000001
#
# number of rings (size 3 to 8) (size 9 to 14) (size 15 to 20)
#    0.000    2.333    1.111    2.333    3.111    0.889 
#    0.000    1.667    0.000    0.667    0.000    6.222 
#    0.000    0.000    0.000    0.000    0.000    0.000 
#
# Total GULP energy -892389.696719 kJ/mol
# GULP energy per Si atom -12394.301343 kJ/mol
# Density = 2.013996 g / cm^3
# Si number density = 20.185901 Si / 1000 Ang^3
#
#
#
# Elastic Constant Matrix: (Units=GPa)
#
#
# Indices 1 2 3 4 5 6 
#
# 1 103.7961 57.9510 20.8884 0.0000 0.0000 0.0000
# 2 57.9510 103.7987 20.8896 0.0000 0.0000 0.0000
# 3 20.8884 20.8896 35.9126 0.0000 0.0000 0.0000
# 4 0.0000 0.0000 0.0000 17.0170 0.0000 0.0000
# 5 0.0000 0.0000 0.0000 0.0000 17.0170 0.0000
# 6 0.0000 0.0000 0.0000 0.0000 0.0000 41.9718
#
#
#
# Elastic Compliance Matrix: (Units=1/GPa)
#
#
# Indices 1 2 3 4 5 6 
#
# 1 0.014544 -0.007268 -0.004232 0.000000 0.000000 0.000000
# 2 -0.007268 0.014544 -0.004232 0.000000 0.000000 0.000000
# 3 -0.004232 -0.004232 0.032768 0.000000 0.000000 0.000000
# 4 0.000000 0.000000 0.000000 0.058765 0.000000 0.000000
# 5 0.000000 0.000000 0.000000 0.000000 0.058765 0.000000
# 6 0.000000 0.000000 0.000000 0.000000 0.000000 0.023825
#
#
# Mechanical properties :
#
#
# Convention : Reuss Voigt Hill
#
# Bulk Modulus (GPa) = 32.90351 49.21838 41.06094
# Shear Modulus (GPa) = 20.42436 24.78638 22.60537
#
# Velocity S-wave (km/s) = 3.18435 3.50795 3.35006
# Velocity P-wave (km/s) = 5.46404 6.39086 5.94554
#
# Compressibility (1/GPa) = 0.03039189
#
# Stress axis : x y z
#
# Youngs Moduli (GPa) = 68.75771 68.75855 30.51722
#
# Poissons Ratio (x) = 0.49975 0.12913
# Poissons Ratio (y) = 0.49975 0.12915
# Poissons Ratio (z) = 0.29095 0.29100
#
# Static dielectric constant tensor:
#      x y z
#    x 3.976720 0.000000 0.000000 
#    y 0.000000 3.976700 0.000000 
#    z 0.000000 0.000000 3.138960 
# 
# 
# High freq. dielectric constant tensor:
#      x y z
#    x 1.801110 0.000000 0.000000 
#    y 0.000000 1.801110 0.000000 
#    z 0.000000 0.000000 1.739260 
# 
# From -- ./inp_files/1608.got.cif
#   From: 2010.03.12/outbox.cif.g09.slc.cpg/sg127_1_cif.got.tgz:1608.got - 2010.04.06 17:03:15.
