data_PCOD8314927
_publ_section_title
;
Structure prediction by ZEFSAII (Michael W. Deem and Ramdas Pophale) SiO2 
 PCOD8314927
Probable space group: P 4/N M M
;
_chemical_formula_sum "Si O2"
_cell_formula_units_Z 128
_cell_length_a 20.367243
_cell_length_b 20.367243
_cell_length_c 18.803500
_cell_angle_alpha 90.000000
_cell_angle_beta 90.000000
_cell_angle_gamma 90.000000
_cell_volume 7800.154130
_symmetry_space_group_name_H-M "P 4/N M M"
_symmetry_group_IT_number 129
_symmetry_cell_setting 'tetragonal'
loop_
_space_group_symop_operation_xyz
x,y,z
1/2-y,x,z
1/2-x,1/2-y,z
y,1/2-x,z
1/2+x,-y,-z
-x,1/2+y,-z
1/2+y,1/2+x,-z
-y,-x,-z
-x,-y,-z
1/2+y,-x,-z
1/2+x,1/2+y,-z
-y,1/2+x,-z
1/2-x,y,z
x,1/2-y,z
1/2-y,1/2-x,z
y,x,z
loop_
_atom_site_type_symbol
_atom_site_label
_atom_site_fract_x
_atom_site_fract_y
_atom_site_fract_z
Si Si1 0.400162 0.506685 0.201556
Si Si2 0.822750 0.571852 0.523022
Si Si3 0.480978 0.908096 0.442636
Si Si4 0.675695 0.927636 0.684384
Si Si5 0.825659 0.424697 0.914678
Si Si6 0.327567 0.062119 0.824055
Si Si7 0.013257 0.595185 0.284121
Si Si8 0.559044 0.175516 0.922777
O O1 0.456083 0.456083 0.174767
O O2 0.362252 0.479979 0.269328
O O3 0.348524 0.517633 0.138207
O O4 0.430468 0.576286 0.227233
O O5 0.750000 0.594618 0.506674
O O6 0.865048 0.634953 0.505878
O O7 0.841561 0.513431 0.470619
O O8 0.831481 0.547082 0.603807
O O9 0.424106 0.924106 0.500000
O O10 0.456239 0.891102 0.362569
O O11 0.532419 0.967582 0.441686
O O12 0.750000 0.921857 0.710067
O O13 0.644536 0.855465 0.692644
O O14 0.750000 0.403349 0.899052
O O15 0.875287 0.364188 0.902346
O O16 0.831705 0.454306 0.993397
O O17 0.250000 0.080843 0.826965
O O18 0.372419 0.127582 0.835730
O O19 0.343804 0.028852 0.747334
O O20 0.347272 0.008086 0.883884
O O21 0.968226 0.531775 0.292328
O O22 0.574580 0.250000 0.900697
#
# Coordination Sequence:
#
# PCOD8314927 Si02
#       8
#    16  16  16  16  16  16  16  16
#     4  10  18  29  45  68  95 123 157 196 240 286
#     4   9  17  28  42  62  88 119 153 189 232 281
#     4   9  16  27  44  65  89 118 153 194 237 284
#     4   9  17  28  42  61  89 123 157 195 236 281
#     4  10  19  31  50  75 100 127 161 199 241 291
#     4  10  20  35  53  73 100 133 171 213 255 299
#     4   9  17  29  46  67  90 120 157 196 244 294
#     4   9  19  34  50  71 100 131 161 196 242 296
#
# _framework density 16.409932000000001
#
# number of rings (size 3 to 8) (size 9 to 14) (size 15 to 20)
#    0.000    2.625    1.250    1.125    0.000    4.625 
#    0.000    3.750    0.000    0.000    0.000    3.500 
#    0.000    3.250    0.000    0.000    0.000    0.375 
#
# Total GULP energy -1586245.119767 kJ/mol
# GULP energy per Si atom -12392.539998 kJ/mol
# Density = 1.637258 g / cm^3
# Si number density = 16.409932 Si / 1000 Ang^3
#
#
#
# Elastic Constant Matrix: (Units=GPa)
#
#
# Indices 1 2 3 4 5 6 
#
# 1 78.3571 48.2650 40.7769 0.0000 0.0000 0.0000
# 2 48.2650 78.3571 40.7769 0.0000 0.0000 0.0000
# 3 40.7769 40.7769 86.2923 0.0000 0.0000 0.0000
# 4 0.0000 0.0000 0.0000 21.4664 0.0000 0.0000
# 5 0.0000 0.0000 0.0000 0.0000 21.4664 0.0000
# 6 0.0000 0.0000 0.0000 0.0000 0.0000 16.8206
#
#
#
# Elastic Compliance Matrix: (Units=1/GPa)
#
#
# Indices 1 2 3 4 5 6 
#
# 1 0.022292 -0.010939 -0.005365 0.000000 0.000000 0.000000
# 2 -0.010939 0.022292 -0.005365 0.000000 0.000000 0.000000
# 3 -0.005365 -0.005365 0.016659 0.000000 0.000000 0.000000
# 4 0.000000 0.000000 0.000000 0.046585 0.000000 0.000000
# 5 0.000000 0.000000 0.000000 0.000000 0.046585 0.000000
# 6 0.000000 0.000000 0.000000 0.000000 0.000000 0.059451
#
#
# Mechanical properties :
#
#
# Convention : Reuss Voigt Hill
#
# Bulk Modulus (GPa) = 55.84901 55.84934 55.84918
# Shear Modulus (GPa) = 18.99922 19.49649 19.24786
#
# Velocity S-wave (km/s) = 3.40632 3.45061 3.42854
# Velocity P-wave (km/s) = 7.04118 7.06989 7.05555
#
# Compressibility (1/GPa) = 0.01790542
#
# Stress axis : x y z
#
# Youngs Moduli (GPa) = 44.85903 44.85903 60.02898
#
# Poissons Ratio (x) = 0.49073 0.32204
# Poissons Ratio (y) = 0.49073 0.32204
# Poissons Ratio (z) = 0.24065 0.24065
#
# Static dielectric constant tensor:
#      x y z
#    x 3.019500 0.000000 0.000000 
#    y 0.000000 3.019500 0.000000 
#    z 0.000000 0.000000 3.240510 
# 
# 
# High freq. dielectric constant tensor:
#      x y z
#    x 1.614760 0.000000 0.000000 
#    y 0.000000 1.614760 0.000000 
#    z 0.000000 0.000000 1.639100 
# 
# From -- ./inp_files/6158.got.cif
#   From: 2010.03.12/outbox.cif.g09.slc.cpg/sg129_4_cif.got.tgz:6158.got - 2010.04.06 17:19:44.
