data_PCOD8314713
_publ_section_title
;
Structure prediction by ZEFSAII (Michael W. Deem and Ramdas Pophale) SiO2 
 PCOD8314713
Probable space group: P 4/M N C
;
_chemical_formula_sum "Si O2"
_cell_formula_units_Z 120
_cell_length_a 14.819337
_cell_length_b 14.819337
_cell_length_c 30.102787
_cell_angle_alpha 90.000000
_cell_angle_beta 90.000000
_cell_angle_gamma 90.000000
_cell_volume 6610.955809
_symmetry_space_group_name_H-M "P 4/M N C"
_symmetry_group_IT_number 128
_symmetry_cell_setting 'tetragonal'
loop_
_space_group_symop_operation_xyz
x,y,z
-y,x,z
-x,-y,z
y,-x,z
1/2+x,1/2-y,1/2-z
1/2-x,1/2+y,1/2-z
1/2+y,1/2+x,1/2-z
1/2-y,1/2-x,1/2-z
-x,-y,-z
y,-x,-z
x,y,-z
-y,x,-z
1/2-x,1/2+y,1/2+z
1/2+x,1/2-y,1/2+z
1/2-y,1/2-x,1/2+z
1/2+y,1/2+x,1/2+z
loop_
_atom_site_type_symbol
_atom_site_label
_atom_site_fract_x
_atom_site_fract_y
_atom_site_fract_z
Si Si1 0.937046 0.578996 0.949932
Si Si2 0.515537 0.265280 0.949089
Si Si3 0.812834 0.836032 0.602254
Si Si4 0.599536 0.608845 0.809799
Si Si5 0.394548 0.393743 0.709964
Si Si6 0.690128 0.334016 0.625447
Si Si7 0.485941 0.737986 0.412519
Si Si8 0.853634 0.977831 0.000000
O O1 0.837286 0.542867 0.949900
O O2 0.945647 0.661904 0.916158
O O3 0.000000 0.500000 0.931557
O O4 0.965426 0.607806 0.000000
O O5 0.594908 0.318802 0.924374
O O6 0.422677 0.270765 0.921853
O O7 0.503965 0.301104 0.000000
O O8 0.830706 0.850088 0.654251
O O9 0.742677 0.753130 0.603546
O O10 0.494387 0.624871 0.817525
O O11 0.629629 0.636226 0.760169
O O12 0.500532 0.375015 0.701705
O O13 0.329024 0.334338 0.678018
O O14 0.593949 0.330624 0.600217
O O15 0.736433 0.431938 0.622001
O O16 0.533409 0.709472 0.457903
O O17 0.898073 0.075456 0.000000
#
# Coordination Sequence:
#
# PCOD8314713 Si02
#       8
#    16  16  16  16  16  16  16   8
#     4  10  21  39  58  76 111 160 201 237 286 344
#     4  11  24  41  59  86 119 154 200 254 301 345
#     4  12  23  40  61  88 113 154 203 246 299 355
#     4   9  18  36  63  86 111 146 189 240 300 365
#     4   9  18  35  60  88 117 149 183 235 302 364
#     4  12  24  35  60  87 118 154 196 241 295 354
#     4  12  22  37  54  83 116 151 194 239 283 346
#     4  11  22  34  51  78 112 150 190 231 291 332
#
# _framework density 18.151688
#
# number of rings (size 3 to 8) (size 9 to 14) (size 15 to 20)
#    0.000    1.267    6.000    2.000    0.000    1.067 
#    3.600    0.667    0.000    0.000    0.000    0.000 
#    0.000    8.533    0.000    0.000    0.000    0.000 
#
# Total GULP energy -1487519.825385 kJ/mol
# GULP energy per Si atom -12395.998545 kJ/mol
# Density = 1.811037 g / cm^3
# Si number density = 18.151688 Si / 1000 Ang^3
#
#
#
# Elastic Constant Matrix: (Units=GPa)
#
#
# Indices 1 2 3 4 5 6 
#
# 1 68.9788 16.7986 28.2096 0.0000 0.0000 0.0000
# 2 16.7986 68.9788 28.2096 0.0000 0.0000 0.0000
# 3 28.2096 28.2096 105.3050 0.0000 0.0000 0.0000
# 4 0.0000 0.0000 0.0000 27.6512 0.0000 0.0000
# 5 0.0000 0.0000 0.0000 0.0000 27.6512 0.0000
# 6 0.0000 0.0000 0.0000 0.0000 0.0000 32.9720
#
#
#
# Elastic Compliance Matrix: (Units=1/GPa)
#
#
# Indices 1 2 3 4 5 6 
#
# 1 0.016658 -0.002506 -0.003791 0.000000 0.000000 0.000000
# 2 -0.002506 0.016658 -0.003791 0.000000 0.000000 0.000000
# 3 -0.003791 -0.003791 0.011527 0.000000 0.000000 0.000000
# 4 0.000000 0.000000 0.000000 0.036165 0.000000 0.000000
# 5 0.000000 0.000000 0.000000 0.000000 0.036165 0.000000
# 6 0.000000 0.000000 0.000000 0.000000 0.000000 0.030329
#
#
# Mechanical properties :
#
#
# Convention : Reuss Voigt Hill
#
# Bulk Modulus (GPa) = 40.54082 43.29981 41.92031
# Shear Modulus (GPa) = 28.42519 28.99123 28.70821
#
# Velocity S-wave (km/s) = 3.96154 4.00079 3.98121
# Velocity P-wave (km/s) = 6.58088 6.72666 6.65417
#
# Compressibility (1/GPa) = 0.02466650
#
# Stress axis : x y z
#
# Youngs Moduli (GPa) = 60.03141 60.03141 86.75048
#
# Poissons Ratio (x) = 0.15046 0.32887
# Poissons Ratio (y) = 0.15046 0.32887
# Poissons Ratio (z) = 0.22758 0.22758
#
# Static dielectric constant tensor:
#      x y z
#    x 3.151360 0.000000 0.000000 
#    y 0.000000 3.151360 0.000000 
#    z 0.000000 0.000000 3.486130 
# 
# 
# High freq. dielectric constant tensor:
#      x y z
#    x 1.695900 0.000000 0.000000 
#    y 0.000000 1.695900 0.000000 
#    z 0.000000 0.000000 1.705890 
# 
# From -- ./inp_files/7431.got.cif
#   From: 2010.03.12/outbox.cif.g09.slc.cpg/sg128_4_cif.got.tgz:7431.got - 2010.04.06 17:11:05.
