data_PCOD8314636
_publ_section_title
;
Structure prediction by ZEFSAII (Michael W. Deem and Ramdas Pophale) SiO2 
 PCOD8314636
Probable space group: P 4/M N C
;
_chemical_formula_sum "Si O2"
_cell_formula_units_Z 88
_cell_length_a 14.125591
_cell_length_b 14.125591
_cell_length_c 21.987716
_cell_angle_alpha 90.000000
_cell_angle_beta 90.000000
_cell_angle_gamma 90.000000
_cell_volume 4387.260009
_symmetry_space_group_name_H-M "P 4/M N C"
_symmetry_group_IT_number 128
_symmetry_cell_setting 'tetragonal'
loop_
_space_group_symop_operation_xyz
x,y,z
-y,x,z
-x,-y,z
y,-x,z
1/2+x,1/2-y,1/2-z
1/2-x,1/2+y,1/2-z
1/2+y,1/2+x,1/2-z
1/2-y,1/2-x,1/2-z
-x,-y,-z
y,-x,-z
x,y,-z
-y,x,-z
1/2-x,1/2+y,1/2+z
1/2+x,1/2-y,1/2+z
1/2-y,1/2-x,1/2+z
1/2+y,1/2+x,1/2+z
loop_
_atom_site_type_symbol
_atom_site_label
_atom_site_fract_x
_atom_site_fract_y
_atom_site_fract_z
Si Si1 0.304269 0.300177 0.898544
Si Si2 0.734609 0.024125 0.000000
Si Si3 0.520923 0.345234 0.623707
Si Si4 0.381144 0.165061 0.000000
Si Si5 0.745444 0.656025 0.701484
Si Si6 0.375956 0.592320 0.210623
Si Si7 0.799131 0.598734 0.000000
O O1 0.345554 0.216862 0.939730
O O2 0.223945 0.255682 0.856186
O O3 0.388290 0.343721 0.858292
O O4 0.263681 0.385350 0.939781
O O5 0.804463 0.020938 0.056625
O O6 0.677721 0.120601 0.000000
O O7 0.659638 0.939921 0.000000
O O8 0.605866 0.420839 0.634917
O O9 0.549162 0.263782 0.673248
O O10 0.494318 0.158021 0.000000
O O11 0.833355 0.666646 0.750000
O O12 0.652039 0.685922 0.740922
O O13 0.368763 0.481826 0.222157
#
# Coordination Sequence:
#
# PCOD8314636 Si02
#       7
#    16   8  16   8  16  16   8
#     4  10  21  39  59  83 117 154 199 241 299 355
#     4  12  23  37  60  86 124 156 202 245 313 371
#     4  11  22  36  59  93 126 156 196 254 314 367
#     4  11  24  38  61  88 117 158 201 248 300 372
#     4  10  20  35  55  82 118 159 195 236 298 359
#     4  10  20  35  58  87 117 147 189 244 298 352
#     4  11  22  40  59  84 115 158 199 248 296 366
#
# _framework density 20.058076
#
# number of rings (size 3 to 8) (size 9 to 14) (size 15 to 20)
#    0.000    1.455    1.818    4.091    2.545    2.182 
#    0.000    0.000    0.000    4.364    0.000    3.818 
#    0.000    0.000    0.000    0.000    0.000    0.000 
#
# Total GULP energy -1090748.572646 kJ/mol
# GULP energy per Si atom -12394.870144 kJ/mol
# Density = 2.001242 g / cm^3
# Si number density = 20.058076 Si / 1000 Ang^3
#
#
#
# Elastic Constant Matrix: (Units=GPa)
#
#
# Indices 1 2 3 4 5 6 
#
# 1 61.6526 17.2966 27.3352 0.0000 0.0000 0.0000
# 2 17.2966 61.6533 27.3352 0.0000 0.0000 0.0000
# 3 27.3352 27.3352 129.3212 0.0000 0.0000 0.0000
# 4 0.0000 0.0000 0.0000 24.3669 0.0000 0.0000
# 5 0.0000 0.0000 0.0000 0.0000 24.3669 0.0000
# 6 0.0000 0.0000 0.0000 0.0000 0.0000 32.8493
#
#
#
# Elastic Compliance Matrix: (Units=1/GPa)
#
#
# Indices 1 2 3 4 5 6 
#
# 1 0.018692 -0.003853 -0.003136 0.000000 0.000000 0.000000
# 2 -0.003853 0.018691 -0.003136 0.000000 0.000000 0.000000
# 3 -0.003136 -0.003136 0.009059 0.000000 0.000000 0.000000
# 4 0.000000 0.000000 0.000000 0.041039 0.000000 0.000000
# 5 0.000000 0.000000 0.000000 0.000000 0.041039 0.000000
# 6 0.000000 0.000000 0.000000 0.000000 0.000000 0.030442
#
#
# Mechanical properties :
#
#
# Convention : Reuss Voigt Hill
#
# Bulk Modulus (GPa) = 38.18350 44.06235 41.12292
# Shear Modulus (GPa) = 26.60364 28.36061 27.48213
#
# Velocity S-wave (km/s) = 3.64583 3.76430 3.70554
# Velocity P-wave (km/s) = 6.06635 6.39596 6.23333
#
# Compressibility (1/GPa) = 0.02618933
#
# Stress axis : x y z
#
# Youngs Moduli (GPa) = 53.50003 53.50075 110.39234
#
# Poissons Ratio (x) = 0.20615 0.34624
# Poissons Ratio (y) = 0.20615 0.34623
# Poissons Ratio (z) = 0.16780 0.16780
#
# Static dielectric constant tensor:
#      x y z
#    x 3.624770 0.000000 0.000000 
#    y 0.000000 3.624770 0.000000 
#    z 0.000000 0.000000 4.045710 
# 
# 
# High freq. dielectric constant tensor:
#      x y z
#    x 1.768580 0.000000 0.000000 
#    y 0.000000 1.768580 0.000000 
#    z 0.000000 0.000000 1.816090 
# 
# From -- ./inp_files/5676.got.cif
#   From: 2010.03.12/outbox.cif.g09.slc.cpg/sg128_3_cif.got.tgz:5676.got - 2010.04.06 17:11:05.
