data_PCOD8314312
_publ_section_title
;
Structure prediction by ZEFSAII (Michael W. Deem and Ramdas Pophale) SiO2 
 PCOD8314312
Probable space group: P 4/M B M
;
_chemical_formula_sum "Si O2"
_cell_formula_units_Z 72
_cell_length_a 22.924868
_cell_length_b 22.924868
_cell_length_c 7.480692
_cell_angle_alpha 90.000000
_cell_angle_beta 90.000000
_cell_angle_gamma 90.000000
_cell_volume 3931.474485
_symmetry_space_group_name_H-M "P 4/M B M"
_symmetry_group_IT_number 127
_symmetry_cell_setting 'tetragonal'
loop_
_space_group_symop_operation_xyz
x,y,z
-y,x,z
-x,-y,z
y,-x,z
1/2+x,1/2-y,-z
1/2-x,1/2+y,-z
1/2+y,1/2+x,-z
1/2-y,1/2-x,-z
-x,-y,-z
y,-x,-z
x,y,-z
-y,x,-z
1/2-x,1/2+y,z
1/2+x,1/2-y,z
1/2-y,1/2-x,z
1/2+y,1/2+x,z
loop_
_atom_site_type_symbol
_atom_site_label
_atom_site_fract_x
_atom_site_fract_y
_atom_site_fract_z
Si Si1 0.433876 0.841000 0.703736
Si Si2 0.368260 0.225617 0.000000
Si Si3 0.432559 0.567438 0.292539
Si Si4 0.566119 0.841008 0.703737
Si Si5 0.362970 0.362963 0.000000
Si Si6 0.774377 0.631745 0.000000
O O1 0.429685 0.819089 0.500000
O O2 0.403850 0.903850 0.728557
O O3 0.499997 0.848273 0.767503
O O4 0.401928 0.793282 0.822472
O O5 0.401931 0.206709 0.822470
O O6 0.303087 0.196914 0.000000
O O7 0.371002 0.294354 0.000000
O O8 0.418915 0.499998 0.247545
O O9 0.419710 0.580287 0.500000
O O10 0.391293 0.608702 0.175868
O O11 0.570312 0.819099 0.500000
O O12 0.596140 0.903861 0.728564
O O13 0.294360 0.370989 0.000000
O O14 0.803084 0.696917 0.000000
#
# Coordination Sequence:
#
# PCOD8314312 Si02
#       6
#    16   8  16  16   8   8
#     4   9  18  33  53  77 106 139 173 212 259 307
#     4  10  22  38  51  70 105 142 176 219 264 298
#     4   9  20  39  59  82 113 137 155 198 264 320
#     4   9  18  33  53  77 106 139 173 212 259 307
#     4  12  23  35  58  82  98 134 186 217 243 304
#     4  10  22  38  51  70 105 142 176 219 264 298
#
# _framework density 18.313739999999999
#
# number of rings (size 3 to 8) (size 9 to 14) (size 15 to 20)
#    0.000    2.444    0.000    2.333    0.000    6.667 
#    0.000    6.667    0.000   10.667    0.000    0.000 
#    0.000    0.000    0.000    0.000    0.000    0.000 
#
# Total GULP energy -892691.349456 kJ/mol
# GULP energy per Si atom -12398.490965 kJ/mol
# Density = 1.827206 g / cm^3
# Si number density = 18.313740 Si / 1000 Ang^3
#
#
#
# Elastic Constant Matrix: (Units=GPa)
#
#
# Indices 1 2 3 4 5 6 
#
# 1 154.5506 75.6024 66.0711 0.0000 0.0000 0.0000
# 2 75.6024 154.5479 66.0701 0.0000 0.0000 0.0000
# 3 66.0711 66.0701 102.1264 0.0000 0.0000 0.0000
# 4 0.0000 0.0000 0.0000 20.2074 0.0000 0.0000
# 5 0.0000 0.0000 0.0000 0.0000 20.2068 0.0000
# 6 0.0000 0.0000 0.0000 0.0000 0.0000 19.6996
#
#
#
# Elastic Compliance Matrix: (Units=1/GPa)
#
#
# Indices 1 2 3 4 5 6 
#
# 1 0.009790 -0.002877 -0.004472 0.000000 0.000000 0.000000
# 2 -0.002877 0.009790 -0.004472 0.000000 0.000000 0.000000
# 3 -0.004472 -0.004472 0.015578 0.000000 0.000000 0.000000
# 4 0.000000 0.000000 0.000000 0.049487 0.000000 0.000000
# 5 0.000000 0.000000 0.000000 0.000000 0.049488 0.000000
# 6 0.000000 0.000000 0.000000 0.000000 0.000000 0.050762
#
#
# Mechanical properties :
#
#
# Convention : Reuss Voigt Hill
#
# Bulk Modulus (GPa) = 86.84302 91.85689 89.34995
# Shear Modulus (GPa) = 23.54314 25.58818 24.56566
#
# Velocity S-wave (km/s) = 3.58934 3.74199 3.66646
# Velocity P-wave (km/s) = 8.04365 8.30278 8.17424
#
# Compressibility (1/GPa) = 0.01151503
#
# Stress axis : x y z
#
# Youngs Moduli (GPa) = 102.14897 102.14771 64.19207
#
# Poissons Ratio (x) = 0.29389 0.28708
# Poissons Ratio (y) = 0.29389 0.28707
# Poissons Ratio (z) = 0.45682 0.45681
#
# Static dielectric constant tensor:
#      x y z
#    x 3.332200 0.000000 0.000000 
#    y 0.000000 3.332210 0.000000 
#    z 0.000000 0.000000 3.628650 
# 
# 
# High freq. dielectric constant tensor:
#      x y z
#    x 1.704170 0.000000 0.000000 
#    y 0.000000 1.704170 0.000000 
#    z 0.000000 0.000000 1.727290 
# 
# From -- ./inp_files/1646.got.cif
#   From: 2010.03.12/outbox.cif.g09.slc.cpg/sg127_1_cif.got.tgz:1646.got - 2010.04.06 17:03:15.
