data_PCOD8314051
_publ_section_title
;
Structure prediction by ZEFSAII (Michael W. Deem and Ramdas Pophale) SiO2 
 PCOD8314051
Probable space group: P 4/M B M
;
_chemical_formula_sum "Si O2"
_cell_formula_units_Z 96
_cell_length_a 25.093628
_cell_length_b 25.093628
_cell_length_c 9.103791
_cell_angle_alpha 90.000000
_cell_angle_beta 90.000000
_cell_angle_gamma 90.000000
_cell_volume 5732.567668
_symmetry_space_group_name_H-M "P 4/M B M"
_symmetry_group_IT_number 127
_symmetry_cell_setting 'tetragonal'
loop_
_space_group_symop_operation_xyz
x,y,z
-y,x,z
-x,-y,z
y,-x,z
1/2+x,1/2-y,-z
1/2-x,1/2+y,-z
1/2+y,1/2+x,-z
1/2-y,1/2-x,-z
-x,-y,-z
y,-x,-z
x,y,-z
-y,x,-z
1/2-x,1/2+y,z
1/2+x,1/2-y,z
1/2-y,1/2-x,z
1/2+y,1/2+x,z
loop_
_atom_site_type_symbol
_atom_site_label
_atom_site_fract_x
_atom_site_fract_y
_atom_site_fract_z
Si Si1 0.736424 0.542742 0.670089
Si Si2 0.234538 0.177420 0.169860
Si Si3 0.754837 0.660601 0.330148
Si Si4 0.242406 0.071372 0.660904
Si Si5 0.444674 0.382257 0.663909
Si Si6 0.453648 0.628708 0.827487
O O1 0.715520 0.542095 0.500000
O O2 0.768514 0.598048 0.697398
O O3 0.769537 0.487021 0.699375
O O4 0.690486 0.545109 0.790368
O O5 0.284332 0.215669 0.199841
O O6 0.181851 0.201581 0.247798
O O7 0.252588 0.118934 0.225678
O O8 0.220437 0.172201 0.000000
O O9 0.743077 0.671414 0.500000
O O10 0.806438 0.693563 0.275309
O O11 0.261878 0.090788 0.500000
O O12 0.180876 0.056018 0.656218
O O13 0.442332 0.406802 0.500000
O O14 0.394322 0.399330 0.760742
O O15 0.497705 0.401947 0.747669
O O16 0.456932 0.619384 0.000000
#
# Coordination Sequence:
#
# PCOD8314051 Si02
#       6
#    16  16  16  16  16  16
#     4   9  18  32  47  65  90 118 147 179 219 265
#     4  10  20  31  44  66  95 122 149 186 229 268
#     4   9  17  30  49  70  92 121 154 184 218 267
#     4   9  18  31  47  64  84 114 149 181 214 261
#     4  10  20  34  47  59  79 109 142 178 223 266
#     4  11  21  31  44  63  82 104 141 184 222 261
#
# _framework density 16.746423
#
# number of rings (size 3 to 8) (size 9 to 14) (size 15 to 20)
#    0.000    2.333    0.000    4.500    0.000    9.333 
#    0.000    1.667    0.000    0.000    0.000    0.000 
#    0.000    0.667    0.000    8.333    0.000    1.333 
#
# Total GULP energy -1189434.891843 kJ/mol
# GULP energy per Si atom -12389.946790 kJ/mol
# Density = 1.670831 g / cm^3
# Si number density = 16.746423 Si / 1000 Ang^3
#
#
#
# Elastic Constant Matrix: (Units=GPa)
#
#
# Indices 1 2 3 4 5 6 
#
# 1 68.8960 14.2946 26.7977 0.0000 0.0000 0.0000
# 2 14.2946 68.8960 26.7977 0.0000 0.0000 0.0000
# 3 26.7977 26.7977 98.1073 0.0000 0.0000 0.0000
# 4 0.0000 0.0000 0.0000 17.9044 0.0000 0.0000
# 5 0.0000 0.0000 0.0000 0.0000 17.9044 0.0000
# 6 0.0000 0.0000 0.0000 0.0000 0.0000 17.6904
#
#
#
# Elastic Compliance Matrix: (Units=1/GPa)
#
#
# Indices 1 2 3 4 5 6 
#
# 1 0.016451 -0.001863 -0.003985 0.000000 0.000000 0.000000
# 2 -0.001863 0.016451 -0.003985 0.000000 0.000000 0.000000
# 3 -0.003985 -0.003985 0.012370 0.000000 0.000000 0.000000
# 4 0.000000 0.000000 0.000000 0.055852 0.000000 0.000000
# 5 0.000000 0.000000 0.000000 0.000000 0.055852 0.000000
# 6 0.000000 0.000000 0.000000 0.000000 0.000000 0.056528
#
#
# Mechanical properties :
#
#
# Convention : Reuss Voigt Hill
#
# Bulk Modulus (GPa) = 39.05230 41.29769 40.17499
# Shear Modulus (GPa) = 20.68639 21.90046 21.29342
#
# Velocity S-wave (km/s) = 3.51846 3.62023 3.56971
# Velocity P-wave (km/s) = 6.31478 6.49530 6.40568
#
# Compressibility (1/GPa) = 0.02560669
#
# Stress axis : x y z
#
# Youngs Moduli (GPa) = 60.78621 60.78621 80.84290
#
# Poissons Ratio (x) = 0.11327 0.32212
# Poissons Ratio (y) = 0.11327 0.32212
# Poissons Ratio (z) = 0.24221 0.24221
#
# Static dielectric constant tensor:
#      x y z
#    x 3.147500 0.000000 0.000000 
#    y 0.000000 3.147500 0.000000 
#    z 0.000000 0.000000 3.174920 
# 
# 
# High freq. dielectric constant tensor:
#      x y z
#    x 1.618290 0.000000 0.000000 
#    y 0.000000 1.618290 0.000000 
#    z 0.000000 0.000000 1.651740 
# 
# From -- ./inp_files/1925.got.cif
#   From: 2010.03.12/outbox.cif.g09.slc.cpg/sg127_1_cif.got.tgz:1925.got - 2010.04.06 17:03:15.
