data_PCOD8314334
_publ_section_title
;
Structure prediction by ZEFSAII (Michael W. Deem and Ramdas Pophale) SiO2 
 PCOD8314334
Probable space group: P 4/M B M
;
_chemical_formula_sum "Si O2"
_cell_formula_units_Z 72
_cell_length_a 13.962179
_cell_length_b 13.962179
_cell_length_c 19.022976
_cell_angle_alpha 90.000000
_cell_angle_beta 90.000000
_cell_angle_gamma 90.000000
_cell_volume 3708.385404
_symmetry_space_group_name_H-M "P 4/M B M"
_symmetry_group_IT_number 127
_symmetry_cell_setting 'tetragonal'
loop_
_space_group_symop_operation_xyz
x,y,z
-y,x,z
-x,-y,z
y,-x,z
1/2+x,1/2-y,-z
1/2-x,1/2+y,-z
1/2+y,1/2+x,-z
1/2-y,1/2-x,-z
-x,-y,-z
y,-x,-z
x,y,-z
-y,x,-z
1/2-x,1/2+y,z
1/2+x,1/2-y,z
1/2-y,1/2-x,z
1/2+y,1/2+x,z
loop_
_atom_site_type_symbol
_atom_site_label
_atom_site_fract_x
_atom_site_fract_y
_atom_site_fract_z
Si Si1 0.397227 0.739911 0.151166
Si Si2 0.564470 0.356439 0.707546
Si Si3 0.926489 0.426489 0.582944
Si Si4 0.400321 0.257573 0.081951
Si Si5 0.727113 0.065263 0.420377
O O1 0.332599 0.832599 0.137803
O O2 0.403045 0.719459 0.234069
O O3 0.500694 0.763130 0.120463
O O4 0.354137 0.647540 0.111682
O O5 0.624766 0.452360 0.716630
O O6 0.587998 0.314745 0.630703
O O7 0.937208 0.437208 0.500000
O O8 0.818949 0.461198 0.602787
O O9 0.000000 0.500000 0.619919
O O10 0.332527 0.167474 0.097471
O O11 0.419187 0.272142 0.000000
O O12 0.767090 0.060567 0.500000
O O13 0.646473 0.146473 0.414788
#
# Coordination Sequence:
#
# PCOD8314334 Si02
#       5
#    16  16   8  16  16
#     4  11  22  41  64  88 125 166 203 249 303 361
#     4  11  23  40  59  80 116 159 197 245 298 351
#     4   7  12  28  54  80 108 140 177 230 286 339
#     4  10  22  40  65  97 126 157 202 251 300 360
#     4   9  18  36  60  86 115 148 192 242 293 353
#
# _framework density 19.415457
#
# number of rings (size 3 to 8) (size 9 to 14) (size 15 to 20)
#    0.000    2.111    2.222    2.667    0.000    3.111 
#    6.000    3.333    0.000    0.000    0.000    0.000 
#    0.000    0.000    0.000    0.000    0.000    0.000 
#
# Total GULP energy -892659.911466 kJ/mol
# GULP energy per Si atom -12398.054326 kJ/mol
# Density = 1.937127 g / cm^3
# Si number density = 19.415457 Si / 1000 Ang^3
#
#
#
# Elastic Constant Matrix: (Units=GPa)
#
#
# Indices 1 2 3 4 5 6 
#
# 1 69.7553 26.6217 31.8678 0.0000 0.0000 0.0000
# 2 26.6217 69.7553 31.8678 0.0000 0.0000 0.0000
# 3 31.8678 31.8678 108.9351 0.0000 0.0000 0.0000
# 4 0.0000 0.0000 0.0000 33.8966 0.0000 0.0000
# 5 0.0000 0.0000 0.0000 0.0000 33.8966 0.0000
# 6 0.0000 0.0000 0.0000 0.0000 0.0000 10.7168
#
#
#
# Elastic Compliance Matrix: (Units=1/GPa)
#
#
# Indices 1 2 3 4 5 6 
#
# 1 0.018024 -0.005160 -0.003763 0.000000 0.000000 0.000000
# 2 -0.005160 0.018024 -0.003763 0.000000 0.000000 0.000000
# 3 -0.003763 -0.003763 0.011382 0.000000 0.000000 0.000000
# 4 0.000000 0.000000 0.000000 0.029501 0.000000 0.000000
# 5 0.000000 0.000000 0.000000 0.000000 0.029501 0.000000
# 6 0.000000 0.000000 0.000000 0.000000 0.000000 0.093311
#
#
# Mechanical properties :
#
#
# Convention : Reuss Voigt Hill
#
# Bulk Modulus (GPa) = 45.33626 47.68449 46.51037
# Shear Modulus (GPa) = 21.50820 26.24123 23.87471
#
# Velocity S-wave (km/s) = 3.33195 3.68035 3.51048
# Velocity P-wave (km/s) = 6.18093 6.53248 6.35914
#
# Compressibility (1/GPa) = 0.02205740
#
# Stress axis : x y z
#
# Youngs Moduli (GPa) = 55.48077 55.48077 87.86044
#
# Poissons Ratio (x) = 0.28625 0.33066
# Poissons Ratio (y) = 0.28625 0.33066
# Poissons Ratio (z) = 0.20880 0.20880
#
# Static dielectric constant tensor:
#      x y z
#    x 3.518290 0.000000 0.000000 
#    y 0.000000 3.518290 0.000000 
#    z 0.000000 0.000000 3.532020 
# 
# 
# High freq. dielectric constant tensor:
#      x y z
#    x 1.751430 0.000000 0.000000 
#    y 0.000000 1.751430 0.000000 
#    z 0.000000 0.000000 1.755700 
# 
# From -- ./inp_files/4948.got.cif
#   From: 2010.03.12/outbox.cif.g09.slc.cpg/sg127_3_cif.got.tgz:4948.got - 2010.04.06 17:03:15.
