data_PCOD8314287
_publ_section_title
;
Structure prediction by ZEFSAII (Michael W. Deem and Ramdas Pophale) SiO2 
 PCOD8314287
Probable space group: P 4/M B M
;
_chemical_formula_sum "Si O2"
_cell_formula_units_Z 96
_cell_length_a 23.408988
_cell_length_b 23.408988
_cell_length_c 8.669785
_cell_angle_alpha 90.000000
_cell_angle_beta 90.000000
_cell_angle_gamma 90.000000
_cell_volume 4750.875019
_symmetry_space_group_name_H-M "P 4/M B M"
_symmetry_group_IT_number 127
_symmetry_cell_setting 'tetragonal'
loop_
_space_group_symop_operation_xyz
x,y,z
-y,x,z
-x,-y,z
y,-x,z
1/2+x,1/2-y,-z
1/2-x,1/2+y,-z
1/2+y,1/2+x,-z
1/2-y,1/2-x,-z
-x,-y,-z
y,-x,-z
x,y,-z
-y,x,-z
1/2-x,1/2+y,z
1/2+x,1/2-y,z
1/2-y,1/2-x,z
1/2+y,1/2+x,z
loop_
_atom_site_type_symbol
_atom_site_label
_atom_site_fract_x
_atom_site_fract_y
_atom_site_fract_z
Si Si1 0.483141 0.787906 0.821805
Si Si2 0.464540 0.414003 0.178712
Si Si3 0.430607 0.296778 0.678970
Si Si4 0.407150 0.999399 0.322133
Si Si5 0.230453 0.364557 0.675362
Si Si6 0.220395 0.187399 0.820808
O O1 0.514605 0.740633 0.720223
O O2 0.504420 0.851339 0.781906
O O3 0.416460 0.782108 0.788341
O O4 0.495403 0.775699 0.000000
O O5 0.530574 0.426569 0.217332
O O6 0.441949 0.362722 0.282359
O O7 0.457932 0.397307 0.000000
O O8 0.416614 0.291271 0.500000
O O9 0.377936 0.270686 0.774236
O O10 0.388941 0.992399 0.500000
O O11 0.443090 0.056911 0.298050
O O12 0.444784 0.944784 0.271443
O O13 0.236916 0.386050 0.500000
O O14 0.177877 0.322124 0.693859
O O15 0.288435 0.333227 0.725536
O O16 0.278099 0.221902 0.780078
O O17 0.205613 0.192602 0.000000
#
# Coordination Sequence:
#
# PCOD8314287 Si02
#       6
#    16  16  16  16  16  16
#     4  12  25  39  58  87 123 161 203 251 301 355
#     4   9  20  41  67  92 121 158 199 247 307 367
#     4  12  26  41  61  89 124 164 206 253 304 362
#     4   9  19  38  63  89 120 159 200 246 304 366
#     4  10  21  39  64  92 122 157 199 248 302 358
#     4  10  22  42  66  90 119 157 201 248 302 362
#
# _framework density 20.206804999999999
#
# number of rings (size 3 to 8) (size 9 to 14) (size 15 to 20)
#    0.000    1.667    0.000    5.500    2.333    6.000 
#    0.000    1.667    0.000    0.000    0.000    0.000 
#    0.000    0.000    0.000    0.000    0.000    0.000 
#
# Total GULP energy -1190986.583095 kJ/mol
# GULP energy per Si atom -12406.110241 kJ/mol
# Density = 2.016081 g / cm^3
# Si number density = 20.206805 Si / 1000 Ang^3
#
#
#
# Elastic Constant Matrix: (Units=GPa)
#
#
# Indices 1 2 3 4 5 6 
#
# 1 79.0087 32.5019 35.6857 0.0000 0.0000 0.0000
# 2 32.5019 79.0087 35.6857 0.0000 0.0000 0.0000
# 3 35.6857 35.6857 74.4388 0.0000 0.0000 0.0000
# 4 0.0000 0.0000 0.0000 33.4244 0.0000 0.0000
# 5 0.0000 0.0000 0.0000 0.0000 33.4244 0.0000
# 6 0.0000 0.0000 0.0000 0.0000 0.0000 18.9770
#
#
#
# Elastic Compliance Matrix: (Units=1/GPa)
#
#
# Indices 1 2 3 4 5 6 
#
# 1 0.017220 -0.004282 -0.006202 0.000000 0.000000 0.000000
# 2 -0.004282 0.017220 -0.006202 0.000000 0.000000 0.000000
# 3 -0.006202 -0.006202 0.019380 0.000000 0.000000 0.000000
# 4 0.000000 0.000000 0.000000 0.029918 0.000000 0.000000
# 5 0.000000 0.000000 0.000000 0.000000 0.029918 0.000000
# 6 0.000000 0.000000 0.000000 0.000000 0.000000 0.052695
#
#
# Mechanical properties :
#
#
# Convention : Reuss Voigt Hill
#
# Bulk Modulus (GPa) = 48.90780 48.91143 48.90961
# Shear Modulus (GPa) = 24.20830 25.73737 24.97284
#
# Velocity S-wave (km/s) = 3.46501 3.57276 3.51930
# Velocity P-wave (km/s) = 6.34544 6.42476 6.38522
#
# Compressibility (1/GPa) = 0.02044664
#
# Stress axis : x y z
#
# Youngs Moduli (GPa) = 58.07271 58.07271 51.59856
#
# Poissons Ratio (x) = 0.24869 0.32002
# Poissons Ratio (y) = 0.24869 0.32002
# Poissons Ratio (z) = 0.36017 0.36017
#
# Static dielectric constant tensor:
#      x y z
#    x 3.635810 0.000000 0.000000 
#    y 0.000000 3.635810 0.000000 
#    z 0.000000 0.000000 3.607120 
# 
# 
# High freq. dielectric constant tensor:
#      x y z
#    x 1.793430 0.000000 0.000000 
#    y 0.000000 1.793430 0.000000 
#    z 0.000000 0.000000 1.790180 
# 
# From -- ./inp_files/1952.got.cif
#   From: 2010.03.12/outbox.cif.g09.slc.cpg/sg127_1_cif.got.tgz:1952.got - 2010.04.06 17:03:15.
