data_PCOD8314079
_publ_section_title
;
Structure prediction by ZEFSAII (Michael W. Deem and Ramdas Pophale) SiO2 
 PCOD8314079
Probable space group: P 4/M B M
;
_chemical_formula_sum "Si O2"
_cell_formula_units_Z 120
_cell_length_a 26.837229
_cell_length_b 26.837229
_cell_length_c 8.923758
_cell_angle_alpha 90.000000
_cell_angle_beta 90.000000
_cell_angle_gamma 90.000000
_cell_volume 6427.219445
_symmetry_space_group_name_H-M "P 4/M B M"
_symmetry_group_IT_number 127
_symmetry_cell_setting 'tetragonal'
loop_
_space_group_symop_operation_xyz
x,y,z
-y,x,z
-x,-y,z
y,-x,z
1/2+x,1/2-y,-z
1/2-x,1/2+y,-z
1/2+y,1/2+x,-z
1/2-y,1/2-x,-z
-x,-y,-z
y,-x,-z
x,y,-z
-y,x,-z
1/2-x,1/2+y,z
1/2+x,1/2-y,z
1/2-y,1/2-x,z
1/2+y,1/2+x,z
loop_
_atom_site_type_symbol
_atom_site_label
_atom_site_fract_x
_atom_site_fract_y
_atom_site_fract_z
Si Si1 0.153401 0.522704 0.321903
Si Si2 0.261225 0.844209 0.668102
Si Si3 0.056740 0.278731 0.824606
Si Si4 0.410497 0.233501 0.175109
Si Si5 0.959730 0.459730 0.322261
Si Si6 0.078776 0.002992 0.178517
Si Si7 0.189096 0.009103 0.176043
Si Si8 0.183958 0.766529 0.335117
O O1 0.156447 0.523083 0.500000
O O2 0.176589 0.471361 0.260464
O O3 0.184529 0.569991 0.260791
O O4 0.096062 0.526519 0.266700
O O5 0.257713 0.866624 0.500000
O O6 0.302871 0.802871 0.674687
O O7 0.278073 0.885521 0.785926
O O8 0.207710 0.819872 0.713326
O O9 0.036068 0.224740 0.773365
O O10 0.048121 0.287538 0.000000
O O11 0.440493 0.282888 0.225081
O O12 0.353742 0.245399 0.212736
O O13 0.416874 0.222664 0.000000
O O14 0.961184 0.461184 0.500000
O O15 0.000000 0.500000 0.258451
O O16 0.047406 0.051180 0.233475
O O17 0.134263 0.005165 0.250854
O O18 0.081108 0.003171 0.000000
O O19 0.181145 0.008137 0.000000
O O20 0.158515 0.771210 0.500000
O O21 0.228977 0.728977 0.347816
#
# Coordination Sequence:
#
# PCOD8314079 Si02
#       8
#    16  16  16  16   8  16  16  16
#     4  10  20  36  58  80 105 141 179 218 268 327
#     4   9  19  36  55  75 101 136 177 219 260 312
#     4  10  20  34  52  77 108 139 173 216 265 321
#     4  10  20  33  50  76 108 139 173 216 266 322
#     4   9  20  38  59  83 105 129 175 229 267 317
#     4   8  13  22  38  60  87 124 169 209 245 290
#     4   8  16  29  42  63  99 133 163 202 249 304
#     4   9  19  35  53  74 102 135 175 218 260 314
#
# _framework density 18.670594999999999
#
# number of rings (size 3 to 8) (size 9 to 14) (size 15 to 20)
#    0.000    2.867    0.000    3.200    0.933    2.667 
#    0.000    6.333    0.000    2.800    0.000    0.000 
#    0.000    0.000    0.000   52.800    0.000   47.467 
#
# Total GULP energy -1487246.264347 kJ/mol
# GULP energy per Si atom -12393.718870 kJ/mol
# Density = 1.862810 g / cm^3
# Si number density = 18.670595 Si / 1000 Ang^3
#
#
#
# Elastic Constant Matrix: (Units=GPa)
#
#
# Indices 1 2 3 4 5 6 
#
# 1 133.9097 55.0484 32.9758 0.0000 0.0000 0.0000
# 2 55.0484 133.9097 32.9758 0.0000 0.0000 0.0000
# 3 32.9758 32.9758 55.4092 0.0000 0.0000 0.0000
# 4 0.0000 0.0000 0.0000 20.8404 0.0000 0.0000
# 5 0.0000 0.0000 0.0000 0.0000 20.8404 0.0000
# 6 0.0000 0.0000 0.0000 0.0000 0.0000 15.1152
#
#
#
# Elastic Compliance Matrix: (Units=1/GPa)
#
#
# Indices 1 2 3 4 5 6 
#
# 1 0.009680 -0.003000 -0.003975 0.000000 0.000000 0.000000
# 2 -0.003000 0.009680 -0.003975 0.000000 0.000000 0.000000
# 3 -0.003975 -0.003975 0.022779 0.000000 0.000000 0.000000
# 4 0.000000 0.000000 0.000000 0.047984 0.000000 0.000000
# 5 0.000000 0.000000 0.000000 0.000000 0.047984 0.000000
# 6 0.000000 0.000000 0.000000 0.000000 0.000000 0.066159
#
#
# Mechanical properties :
#
#
# Convention : Reuss Voigt Hill
#
# Bulk Modulus (GPa) = 49.41350 62.80318 56.10834
# Shear Modulus (GPa) = 21.46721 24.84108 23.15414
#
# Velocity S-wave (km/s) = 3.39453 3.65155 3.52538
# Velocity P-wave (km/s) = 6.47203 7.17558 6.83287
#
# Compressibility (1/GPa) = 0.02023738
#
# Stress axis : x y z
#
# Youngs Moduli (GPa) = 103.30489 103.30489 43.89967
#
# Poissons Ratio (x) = 0.30996 0.17451
# Poissons Ratio (y) = 0.30996 0.17451
# Poissons Ratio (z) = 0.41067 0.41067
#
# Static dielectric constant tensor:
#      x y z
#    x 3.606720 0.000000 0.000000 
#    y 0.000000 3.606720 0.000000 
#    z 0.000000 0.000000 3.113740 
# 
# 
# High freq. dielectric constant tensor:
#      x y z
#    x 1.726520 0.000000 0.000000 
#    y 0.000000 1.726520 0.000000 
#    z 0.000000 0.000000 1.693520 
# 
# From -- ./inp_files/2409.got.cif
#   From: 2010.03.12/outbox.cif.g09.slc.cpg/sg127_2_cif.got.tgz:2409.got - 2010.04.06 17:03:15.
