data_PCOD8314183
_publ_section_title
;
Structure prediction by ZEFSAII (Michael W. Deem and Ramdas Pophale) SiO2 
 PCOD8314183
Probable space group: P 4/M B M
;
_chemical_formula_sum "Si O2"
_cell_formula_units_Z 112
_cell_length_a 14.097782
_cell_length_b 14.097782
_cell_length_c 29.506735
_cell_angle_alpha 90.000000
_cell_angle_beta 90.000000
_cell_angle_gamma 90.000000
_cell_volume 5864.388555
_symmetry_space_group_name_H-M "P 4/M B M"
_symmetry_group_IT_number 127
_symmetry_cell_setting 'tetragonal'
loop_
_space_group_symop_operation_xyz
x,y,z
-y,x,z
-x,-y,z
y,-x,z
1/2+x,1/2-y,-z
1/2-x,1/2+y,-z
1/2+y,1/2+x,-z
1/2-y,1/2-x,-z
-x,-y,-z
y,-x,-z
x,y,-z
-y,x,-z
1/2-x,1/2+y,z
1/2+x,1/2-y,z
1/2-y,1/2-x,z
1/2+y,1/2+x,z
loop_
_atom_site_type_symbol
_atom_site_label
_atom_site_fract_x
_atom_site_fract_y
_atom_site_fract_z
Si Si1 0.579754 0.920247 0.688701
Si Si2 0.397444 0.257459 0.139485
Si Si3 0.561587 0.220297 0.449234
Si Si4 0.641478 0.434165 0.050927
Si Si5 0.079626 0.579626 0.586493
Si Si6 0.222034 0.435818 0.283361
Si Si7 0.899831 0.757808 0.183207
Si Si8 0.144733 0.942830 0.632552
O O1 0.607937 0.892064 0.637567
O O2 0.540335 0.826549 0.713980
O O3 0.500000 0.000000 0.688067
O O4 0.337962 0.162039 0.148036
O O5 0.397179 0.280103 0.085952
O O6 0.504049 0.240619 0.155744
O O7 0.351534 0.346025 0.166152
O O8 0.559467 0.262644 0.500000
O O9 0.643104 0.143104 0.443823
O O10 0.459637 0.172177 0.439065
O O11 0.582869 0.303195 0.414043
O O12 0.623488 0.545063 0.058985
O O13 0.679302 0.416420 0.000000
O O14 0.000000 0.500000 0.587079
O O15 0.141543 0.358458 0.289107
O O16 0.275381 0.425427 0.235691
O O17 0.294304 0.417271 0.323694
O O18 0.835279 0.664722 0.176261
O O19 0.053078 0.878097 0.634054
#
# Coordination Sequence:
#
# PCOD8314183 Si02
#       8
#     8  16  16  16   8  16  16  16
#     4   9  16  31  62  87 110 146 179 224 291 335
#     4  11  22  38  61  89 123 165 204 248 310 361
#     4  10  20  38  63  88 112 139 179 231 283 335
#     4   9  17  33  59  88 118 157 207 259 307 358
#     4   9  15  30  57  90 114 132 166 225 284 326
#     4  10  21  41  62  86 116 148 193 241 283 336
#     4  10  24  40  58  90 124 157 205 252 299 365
#     4  11  25  42  57  79 115 155 189 224 279 345
#
# _framework density 19.098324999999999
#
# number of rings (size 3 to 8) (size 9 to 14) (size 15 to 20)
#    0.000    2.000    2.857    1.071    3.000    2.286 
#    5.143    0.714    0.000    0.429    0.000    1.000 
#    0.000    0.000    0.000    0.000    0.000    0.000 
#
# Total GULP energy -1388915.005793 kJ/mol
# GULP energy per Si atom -12401.026837 kJ/mol
# Density = 1.905486 g / cm^3
# Si number density = 19.098325 Si / 1000 Ang^3
#
#
#
# Elastic Constant Matrix: (Units=GPa)
#
#
# Indices 1 2 3 4 5 6 
#
# 1 57.5952 13.7393 37.2569 0.0000 0.0000 0.0000
# 2 13.7393 57.5952 37.2569 0.0000 0.0000 0.0000
# 3 37.2569 37.2569 148.3971 0.0000 0.0000 0.0000
# 4 0.0000 0.0000 0.0000 27.0295 0.0000 0.0000
# 5 0.0000 0.0000 0.0000 0.0000 27.0295 0.0000
# 6 0.0000 0.0000 0.0000 0.0000 0.0000 7.8860
#
#
#
# Elastic Compliance Matrix: (Units=1/GPa)
#
#
# Indices 1 2 3 4 5 6 
#
# 1 0.020902 -0.001900 -0.004771 0.000000 0.000000 0.000000
# 2 -0.001900 0.020902 -0.004771 0.000000 0.000000 0.000000
# 3 -0.004771 -0.004771 0.009134 0.000000 0.000000 0.000000
# 4 0.000000 0.000000 0.000000 0.036997 0.000000 0.000000
# 5 0.000000 0.000000 0.000000 0.000000 0.036997 0.000000
# 6 0.000000 0.000000 0.000000 0.000000 0.000000 0.126807
#
#
# Mechanical properties :
#
#
# Convention : Reuss Voigt Hill
#
# Bulk Modulus (GPa) = 35.64420 48.89930 42.27175
# Shear Modulus (GPa) = 17.60738 24.07798 20.84268
#
# Velocity S-wave (km/s) = 3.03963 3.55454 3.30712
# Velocity P-wave (km/s) = 5.56984 6.51965 6.06338
#
# Compressibility (1/GPa) = 0.02805506
#
# Stress axis : x y z
#
# Youngs Moduli (GPa) = 47.84271 47.84271 109.47979
#
# Poissons Ratio (x) = 0.09091 0.52228
# Poissons Ratio (y) = 0.09091 0.52228
# Poissons Ratio (z) = 0.22824 0.22824
#
# Static dielectric constant tensor:
#      x y z
#    x 3.388220 0.000000 0.000000 
#    y 0.000000 3.388220 0.000000 
#    z 0.000000 0.000000 3.653540 
# 
# 
# High freq. dielectric constant tensor:
#      x y z
#    x 1.730890 0.000000 0.000000 
#    y 0.000000 1.730890 0.000000 
#    z 0.000000 0.000000 1.754200 
# 
# From -- ./inp_files/6428.got.cif
#   From: 2010.03.12/outbox.cif.g09.slc.cpg/sg127_4_cif.got.tgz:6428.got - 2010.04.06 17:03:15.
