data_PCOD8314186
_publ_section_title
;
Structure prediction by ZEFSAII (Michael W. Deem and Ramdas Pophale) SiO2 
 PCOD8314186
Probable space group: P 4/M B M
;
_chemical_formula_sum "Si O2"
_cell_formula_units_Z 96
_cell_length_a 14.161938
_cell_length_b 14.161938
_cell_length_c 22.892239
_cell_angle_alpha 90.000000
_cell_angle_beta 90.000000
_cell_angle_gamma 90.000000
_cell_volume 4591.278623
_symmetry_space_group_name_H-M "P 4/M B M"
_symmetry_group_IT_number 127
_symmetry_cell_setting 'tetragonal'
loop_
_space_group_symop_operation_xyz
x,y,z
-y,x,z
-x,-y,z
y,-x,z
1/2+x,1/2-y,-z
1/2-x,1/2+y,-z
1/2+y,1/2+x,-z
1/2-y,1/2-x,-z
-x,-y,-z
y,-x,-z
x,y,-z
-y,x,-z
1/2-x,1/2+y,z
1/2+x,1/2-y,z
1/2-y,1/2-x,z
1/2+y,1/2+x,z
loop_
_atom_site_type_symbol
_atom_site_label
_atom_site_fract_x
_atom_site_fract_y
_atom_site_fract_z
Si Si1 0.232283 0.517569 0.156480
Si Si2 0.685393 0.663232 0.119504
Si Si3 0.879825 0.228727 0.566254
Si Si4 0.497522 0.148851 0.722586
Si Si5 0.239688 0.416875 0.613536
Si Si6 0.421948 0.078053 0.934080
Si Si7 0.414911 0.630341 0.000000
O O1 0.325409 0.579704 0.143874
O O2 0.259173 0.407934 0.161569
O O3 0.193566 0.547514 0.219491
O O4 0.163457 0.533685 0.102020
O O5 0.734225 0.765776 0.119892
O O6 0.688463 0.619529 0.055411
O O7 0.861011 0.195091 0.500000
O O8 0.827634 0.327634 0.579008
O O9 0.833969 0.147907 0.608429
O O10 0.991587 0.245756 0.573057
O O11 0.413233 0.086768 0.692458
O O12 0.540249 0.226742 0.678547
O O13 0.580536 0.080536 0.743971
O O14 0.146832 0.353169 0.596290
O O15 0.500000 0.000000 0.941813
O O16 0.389541 0.110460 0.000000
O O17 0.370565 0.527124 0.000000
#
# Coordination Sequence:
#
# PCOD8314186 Si02
#       7
#    16  16  16  16  16   8   8
#     4  12  25  42  63  93 124 165 210 265 328 394
#     4  12  25  41  63  89 121 160 208 259 325 400
#     4  10  21  38  62  94 134 175 216 268 322 379
#     4  10  20  39  66  92 125 168 217 271 324 384
#     4  10  22  39  62  94 129 174 223 269 323 385
#     4  11  24  42  62  88 122 157 208 272 334 384
#     4  11  23  42  64  82 117 165 202 254 332 404
#
# _framework density 20.909210000000002
#
# number of rings (size 3 to 8) (size 9 to 14) (size 15 to 20)
#    0.000    1.167    3.333    2.750    2.333    4.000 
#    0.000    5.000    0.000    2.000    0.000    0.000 
#    0.000    0.000    0.000    0.000    0.000    0.000 
#
# Total GULP energy -1190173.738075 kJ/mol
# GULP energy per Si atom -12397.643105 kJ/mol
# Density = 2.086162 g / cm^3
# Si number density = 20.909210 Si / 1000 Ang^3
#
#
#
# Elastic Constant Matrix: (Units=GPa)
#
#
# Indices 1 2 3 4 5 6 
#
# 1 100.8901 42.1870 33.4578 0.0000 0.0000 0.0000
# 2 42.1870 100.8900 33.4578 0.0000 0.0000 0.0000
# 3 33.4578 33.4578 104.2183 0.0000 0.0000 0.0000
# 4 0.0000 0.0000 0.0000 30.6058 0.0000 0.0000
# 5 0.0000 0.0000 0.0000 0.0000 30.6058 0.0000
# 6 0.0000 0.0000 0.0000 0.0000 0.0000 38.2569
#
#
#
# Elastic Compliance Matrix: (Units=1/GPa)
#
#
# Indices 1 2 3 4 5 6 
#
# 1 0.012629 -0.004405 -0.002640 0.000000 0.000000 0.000000
# 2 -0.004405 0.012629 -0.002640 0.000000 0.000000 0.000000
# 3 -0.002640 -0.002640 0.011290 0.000000 0.000000 0.000000
# 4 0.000000 0.000000 0.000000 0.032674 0.000000 0.000000
# 5 0.000000 0.000000 0.000000 0.000000 0.032674 0.000000
# 6 0.000000 0.000000 0.000000 0.000000 0.000000 0.026139
#
#
# Mechanical properties :
#
#
# Convention : Reuss Voigt Hill
#
# Bulk Modulus (GPa) = 58.21505 58.24483 58.22994
# Shear Modulus (GPa) = 32.65133 33.02009 32.83571
#
# Velocity S-wave (km/s) = 3.95597 3.97824 3.96712
# Velocity P-wave (km/s) = 6.98344 7.00132 6.99239
#
# Compressibility (1/GPa) = 0.01717769
#
# Stress axis : x y z
#
# Youngs Moduli (GPa) = 79.17997 79.17995 88.57040
#
# Poissons Ratio (x) = 0.34882 0.23384
# Poissons Ratio (y) = 0.34882 0.23384
# Poissons Ratio (z) = 0.20905 0.20905
#
# Static dielectric constant tensor:
#      x y z
#    x 3.833430 0.000000 0.000000 
#    y 0.000000 3.833430 0.000000 
#    z 0.000000 0.000000 3.639450 
# 
# 
# High freq. dielectric constant tensor:
#      x y z
#    x 1.820210 0.000000 0.000000 
#    y 0.000000 1.820210 0.000000 
#    z 0.000000 0.000000 1.808650 
# 
# From -- ./inp_files/5810.got.cif
#   From: 2010.03.12/outbox.cif.g09.slc.cpg/sg127_3_cif.got.tgz:5810.got - 2010.04.06 17:03:15.
