data_PCOD8314800
_publ_section_title
;
Structure prediction by ZEFSAII (Michael W. Deem and Ramdas Pophale) SiO2 
 PCOD8314800
Probable space group: P 4/M N C
;
_chemical_formula_sum "Si O2"
_cell_formula_units_Z 72
_cell_length_a 13.639805
_cell_length_b 13.639805
_cell_length_c 19.248373
_cell_angle_alpha 90.000000
_cell_angle_beta 90.000000
_cell_angle_gamma 90.000000
_cell_volume 3581.049704
_symmetry_space_group_name_H-M "P 4/M N C"
_symmetry_group_IT_number 128
_symmetry_cell_setting 'tetragonal'
loop_
_space_group_symop_operation_xyz
x,y,z
-y,x,z
-x,-y,z
y,-x,z
1/2+x,1/2-y,1/2-z
1/2-x,1/2+y,1/2-z
1/2+y,1/2+x,1/2-z
1/2-y,1/2-x,1/2-z
-x,-y,-z
y,-x,-z
x,y,-z
-y,x,-z
1/2-x,1/2+y,1/2+z
1/2+x,1/2-y,1/2+z
1/2-y,1/2-x,1/2+z
1/2+y,1/2+x,1/2+z
loop_
_atom_site_type_symbol
_atom_site_label
_atom_site_fract_x
_atom_site_fract_y
_atom_site_fract_z
Si Si1 0.655502 0.539994 0.000000
Si Si2 0.732975 0.874727 0.312635
Si Si3 0.383024 0.235494 0.579231
Si Si4 0.395465 0.772641 0.580824
Si Si5 0.588044 0.251136 0.854950
O O1 0.569825 0.618567 0.000000
O O2 0.717003 0.555764 0.931141
O O3 0.673333 0.826668 0.250000
O O4 0.674124 0.851013 0.382557
O O5 0.842920 0.830938 0.316828
O O6 0.737024 0.992853 0.305970
O O7 0.380745 0.202820 0.500000
O O8 0.329952 0.339195 0.591528
O O9 0.493987 0.245540 0.605657
O O10 0.388458 0.805812 0.500000
O O11 0.350403 0.853596 0.632963
#
# Coordination Sequence:
#
# PCOD8314800 Si02
#       5
#     8  16  16  16  16
#     4  11  20  34  68 109 131 156 214 289 343 382
#     4  11  26  42  60  91 129 169 209 259 323 393
#     4   9  20  37  59  88 118 159 216 270 318 376
#     4   9  18  34  59  89 121 157 204 266 324 371
#     4  11  22  39  66  94 133 168 210 265 327 385
#
# _framework density 20.105837999999999
#
# number of rings (size 3 to 8) (size 9 to 14) (size 15 to 20)
#    0.000    1.889    3.333    0.000    3.111    5.333 
#    0.000    5.556    0.000    5.333    0.000    0.000 
#    0.000    0.000    0.000    0.000    0.000    0.000 
#
# Total GULP energy -892802.724175 kJ/mol
# GULP energy per Si atom -12400.037836 kJ/mol
# Density = 2.006008 g / cm^3
# Si number density = 20.105838 Si / 1000 Ang^3
#
#
#
# Elastic Constant Matrix: (Units=GPa)
#
#
# Indices 1 2 3 4 5 6 
#
# 1 153.6160 58.6849 37.9066 0.0000 0.0000 0.0000
# 2 58.6849 153.6175 37.9067 0.0000 0.0000 0.0000
# 3 37.9066 37.9067 62.3208 0.0000 0.0000 0.0000
# 4 0.0000 0.0000 0.0000 103.5876 0.0000 0.0000
# 5 0.0000 0.0000 0.0000 0.0000 103.5886 0.0000
# 6 0.0000 0.0000 0.0000 0.0000 0.0000 15.3164
#
#
#
# Elastic Compliance Matrix: (Units=1/GPa)
#
#
# Indices 1 2 3 4 5 6 
#
# 1 0.008276 -0.002258 -0.003660 0.000000 0.000000 0.000000
# 2 -0.002258 0.008276 -0.003660 0.000000 0.000000 0.000000
# 3 -0.003660 -0.003660 0.020498 0.000000 0.000000 0.000000
# 4 0.000000 0.000000 0.000000 0.009654 0.000000 0.000000
# 5 0.000000 0.000000 0.000000 0.000000 0.009654 0.000000
# 6 0.000000 0.000000 0.000000 0.000000 0.000000 0.065290
#
#
# Mechanical properties :
#
#
# Convention : Reuss Voigt Hill
#
# Bulk Modulus (GPa) = 55.88800 70.95006 63.41903
# Shear Modulus (GPa) = 34.06753 60.16892 47.11823
#
# Velocity S-wave (km/s) = 4.12079 5.47641 4.84623
# Velocity P-wave (km/s) = 7.10622 8.68061 7.93257
#
# Compressibility (1/GPa) = 0.01789293
#
# Stress axis : x y z
#
# Youngs Moduli (GPa) = 120.83693 120.83816 48.78425
#
# Poissons Ratio (x) = 0.27289 0.17855
# Poissons Ratio (y) = 0.27289 0.17855
# Poissons Ratio (z) = 0.44227 0.44227
#
# Static dielectric constant tensor:
#      x y z
#    x 3.757150 0.000000 0.000000 
#    y 0.000000 3.757150 0.000000 
#    z 0.000000 0.000000 3.550150 
# 
# 
# High freq. dielectric constant tensor:
#      x y z
#    x 1.785780 0.000000 0.000000 
#    y 0.000000 1.785780 0.000000 
#    z 0.000000 0.000000 1.772440 
# 
# From -- ./inp_files/4570.got.cif
#   From: 2010.03.12/outbox.cif.g09.slc.cpg/sg128_3_cif.got.tgz:4570.got - 2010.04.06 17:11:05.
