data_PCOD8314248
_publ_section_title
;
Structure prediction by ZEFSAII (Michael W. Deem and Ramdas Pophale) SiO2 
 PCOD8314248
Probable space group: P 4/M B M
;
_chemical_formula_sum "Si O2"
_cell_formula_units_Z 96
_cell_length_a 25.139737
_cell_length_b 25.139737
_cell_length_c 7.943989
_cell_angle_alpha 90.000000
_cell_angle_beta 90.000000
_cell_angle_gamma 90.000000
_cell_volume 5020.651702
_symmetry_space_group_name_H-M "P 4/M B M"
_symmetry_group_IT_number 127
_symmetry_cell_setting 'tetragonal'
loop_
_space_group_symop_operation_xyz
x,y,z
-y,x,z
-x,-y,z
y,-x,z
1/2+x,1/2-y,-z
1/2-x,1/2+y,-z
1/2+y,1/2+x,-z
1/2-y,1/2-x,-z
-x,-y,-z
y,-x,-z
x,y,-z
-y,x,-z
1/2-x,1/2+y,z
1/2+x,1/2-y,z
1/2-y,1/2-x,z
1/2+y,1/2+x,z
loop_
_atom_site_type_symbol
_atom_site_label
_atom_site_fract_x
_atom_site_fract_y
_atom_site_fract_z
Si Si1 0.391685 0.807808 0.800127
Si Si2 0.456762 0.043239 0.799000
Si Si3 0.632487 0.411312 0.303160
Si Si4 0.034620 0.920507 0.000000
Si Si5 0.735340 0.468843 0.306590
Si Si6 0.802603 0.081477 0.305278
Si Si7 0.504857 0.844454 0.194518
O O1 0.343862 0.843862 0.731294
O O2 0.381879 0.748395 0.732569
O O3 0.447041 0.831168 0.726639
O O4 0.393351 0.807003 0.000000
O O5 0.398381 0.028571 0.724047
O O6 0.500000 0.000000 0.736332
O O7 0.455375 0.044626 0.000000
O O8 0.616612 0.422746 0.500000
O O9 0.609291 0.454820 0.176036
O O10 0.696692 0.417839 0.284601
O O11 0.612451 0.354249 0.234021
O O12 0.972722 0.930298 0.000000
O O13 0.747524 0.480779 0.500000
O O14 0.707364 0.522335 0.227481
O O15 0.792603 0.457386 0.220639
O O16 0.813700 0.075335 0.500000
O O17 0.497766 0.856534 0.000000
#
# Coordination Sequence:
#
# PCOD8314248 Si02
#       7
#    16   8  16   8  16  16  16
#     4   9  17  29  47  73 103 131 164 212 268 316
#     4   9  16  28  49  77 109 141 175 215 263 321
#     4  10  21  37  56  77 107 142 181 226 272 322
#     4  11  24  36  52  82 111 140 179 220 271 330
#     4   9  18  33  52  73  99 132 172 216 262 315
#     4   9  18  32  51  74  97 130 172 213 262 315
#     4   9  17  29  49  75 102 135 174 214 257 314
#
# _framework density 19.121023000000001
#
# number of rings (size 3 to 8) (size 9 to 14) (size 15 to 20)
#    0.000    2.667    0.000    1.500    2.333    4.333 
#    0.000    1.250    1.833    2.000    0.000    0.000 
#    0.000    0.000    0.000    0.000    0.000    0.000 
#
# Total GULP energy -1189560.367169 kJ/mol
# GULP energy per Si atom -12391.253825 kJ/mol
# Density = 1.907750 g / cm^3
# Si number density = 19.121023 Si / 1000 Ang^3
#
#
#
# Elastic Constant Matrix: (Units=GPa)
#
#
# Indices 1 2 3 4 5 6 
#
# 1 147.2504 14.9030 13.4733 0.0000 0.0000 0.0000
# 2 14.9030 147.2500 13.4731 0.0000 0.0000 0.0000
# 3 13.4733 13.4731 37.6358 0.0000 0.0000 0.0000
# 4 0.0000 0.0000 0.0000 20.3386 0.0000 0.0000
# 5 0.0000 0.0000 0.0000 0.0000 20.3387 0.0000
# 6 0.0000 0.0000 0.0000 0.0000 0.0000 50.9372
#
#
#
# Elastic Compliance Matrix: (Units=1/GPa)
#
#
# Indices 1 2 3 4 5 6 
#
# 1 0.007056 -0.000499 -0.002347 0.000000 0.000000 0.000000
# 2 -0.000499 0.007056 -0.002347 0.000000 0.000000 0.000000
# 3 -0.002347 -0.002347 0.028251 0.000000 0.000000 0.000000
# 4 0.000000 0.000000 0.000000 0.049167 0.000000 0.000000
# 5 0.000000 0.000000 0.000000 0.000000 0.049167 0.000000
# 6 0.000000 0.000000 0.000000 0.000000 0.000000 0.019632
#
#
# Mechanical properties :
#
#
# Convention : Reuss Voigt Hill
#
# Bulk Modulus (GPa) = 31.27360 46.20388 38.73874
# Shear Modulus (GPa) = 27.56676 37.67535 32.62105
#
# Velocity S-wave (km/s) = 3.80109 4.44369 4.13489
# Velocity P-wave (km/s) = 5.97122 7.10949 6.56507
#
# Compressibility (1/GPa) = 0.03197585
#
# Stress axis : x y z
#
# Youngs Moduli (GPa) = 141.71365 141.71347 35.39681
#
# Poissons Ratio (x) = 0.07077 0.08309
# Poissons Ratio (y) = 0.07077 0.08309
# Poissons Ratio (z) = 0.33266 0.33265
#
# Static dielectric constant tensor:
#      x y z
#    x 3.598540 0.000000 0.000000 
#    y 0.000000 3.598550 0.000000 
#    z 0.000000 0.000000 3.308550 
# 
# 
# High freq. dielectric constant tensor:
#      x y z
#    x 1.732530 0.000000 0.000000 
#    y 0.000000 1.732530 0.000000 
#    z 0.000000 0.000000 1.728780 
# 
# From -- ./inp_files/2063.got.cif
#   From: 2010.03.12/outbox.cif.g09.slc.cpg/sg127_2_cif.got.tgz:2063.got - 2010.04.06 17:03:15.
