data_PCOD8314316
_publ_section_title
;
Structure prediction by ZEFSAII (Michael W. Deem and Ramdas Pophale) SiO2 
 PCOD8314316
Probable space group: P 4/M B M
;
_chemical_formula_sum "Si O2"
_cell_formula_units_Z 96
_cell_length_a 13.827802
_cell_length_b 13.827802
_cell_length_c 28.402450
_cell_angle_alpha 90.000000
_cell_angle_beta 90.000000
_cell_angle_gamma 90.000000
_cell_volume 5430.778731
_symmetry_space_group_name_H-M "P 4/M B M"
_symmetry_group_IT_number 127
_symmetry_cell_setting 'tetragonal'
loop_
_space_group_symop_operation_xyz
x,y,z
-y,x,z
-x,-y,z
y,-x,z
1/2+x,1/2-y,-z
1/2-x,1/2+y,-z
1/2+y,1/2+x,-z
1/2-y,1/2-x,-z
-x,-y,-z
y,-x,-z
x,y,-z
-y,x,-z
1/2-x,1/2+y,z
1/2+x,1/2-y,z
1/2-y,1/2-x,z
1/2+y,1/2+x,z
loop_
_atom_site_type_symbol
_atom_site_label
_atom_site_fract_x
_atom_site_fract_y
_atom_site_fract_z
Si Si1 0.651544 0.446316 0.898546
Si Si2 0.758669 0.900757 0.803357
Si Si3 0.757474 0.098937 0.646624
Si Si4 0.050365 0.847730 0.500000
Si Si5 0.260811 0.397814 0.756065
Si Si6 0.262204 0.600911 0.598047
Si Si7 0.849963 0.946830 0.000000
O O1 0.621256 0.557773 0.893322
O O2 0.728910 0.419833 0.858852
O O3 0.703714 0.427714 0.949890
O O4 0.668929 0.831072 0.794514
O O5 0.856721 0.855100 0.782463
O O6 0.734530 0.997876 0.775789
O O7 0.662264 0.162264 0.637119
O O8 0.785215 0.096867 0.701182
O O9 0.848889 0.141994 0.618726
O O10 0.735466 0.991770 0.628977
O O11 0.070431 0.781007 0.455314
O O12 0.939226 0.879095 0.500000
O O13 0.168983 0.331018 0.766406
O O14 0.171491 0.671491 0.601079
O O15 0.942604 0.879578 0.000000
#
# Coordination Sequence:
#
# PCOD8314316 Si02
#       7
#    16  16  16   8  16  16   8
#     4   9  15  28  49  74 103 135 173 223 276 322
#     4  11  21  34  53  78 108 143 183 225 272 323
#     4  10  22  39  59  83 112 145 182 223 269 321
#     4  11  21  38  62  87 114 144 180 223 272 326
#     4  10  22  38  55  80 111 142 181 225 267 320
#     4  11  22  39  61  85 114 146 181 225 271 315
#     4   7  12  22  43  72 100 131 168 214 274 329
#
# _framework density 17.677022999999998
#
# number of rings (size 3 to 8) (size 9 to 14) (size 15 to 20)
#    0.000    2.000    3.333    2.250    0.000    3.333 
#    0.000    4.167    0.000    1.000    0.000    0.583 
#    0.000    1.333    0.000    0.000    0.000    0.000 
#
# Total GULP energy -1190291.079562 kJ/mol
# GULP energy per Si atom -12398.865412 kJ/mol
# Density = 1.763679 g / cm^3
# Si number density = 17.677023 Si / 1000 Ang^3
#
#
#
# Elastic Constant Matrix: (Units=GPa)
#
#
# Indices 1 2 3 4 5 6 
#
# 1 72.0131 16.2854 24.9891 0.0000 0.0000 0.0000
# 2 16.2854 72.0131 24.9891 0.0000 0.0000 0.0000
# 3 24.9891 24.9891 92.7948 0.0000 0.0000 0.0000
# 4 0.0000 0.0000 0.0000 24.7296 0.0000 0.0000
# 5 0.0000 0.0000 0.0000 0.0000 24.7296 0.0000
# 6 0.0000 0.0000 0.0000 0.0000 0.0000 13.7327
#
#
#
# Elastic Compliance Matrix: (Units=1/GPa)
#
#
# Indices 1 2 3 4 5 6 
#
# 1 0.015653 -0.002291 -0.003598 0.000000 0.000000 0.000000
# 2 -0.002291 0.015653 -0.003598 0.000000 0.000000 0.000000
# 3 -0.003598 -0.003598 0.012714 0.000000 0.000000 0.000000
# 4 0.000000 0.000000 0.000000 0.040437 0.000000 0.000000
# 5 0.000000 0.000000 0.000000 0.000000 0.040437 0.000000
# 6 0.000000 0.000000 0.000000 0.000000 0.000000 0.072819
#
#
# Mechanical properties :
#
#
# Convention : Reuss Voigt Hill
#
# Bulk Modulus (GPa) = 39.92791 41.03868 40.48330
# Shear Modulus (GPa) = 22.21842 24.00886 23.11364
#
# Velocity S-wave (km/s) = 3.54914 3.68937 3.61993
# Velocity P-wave (km/s) = 6.27946 6.43544 6.35793
#
# Compressibility (1/GPa) = 0.02504513
#
# Stress axis : x y z
#
# Youngs Moduli (GPa) = 63.88492 63.88492 78.65067
#
# Poissons Ratio (x) = 0.14638 0.28301
# Poissons Ratio (y) = 0.14638 0.28301
# Poissons Ratio (z) = 0.22988 0.22988
#
# Static dielectric constant tensor:
#      x y z
#    x 3.079350 0.000000 0.000000 
#    y 0.000000 3.079350 0.000000 
#    z 0.000000 0.000000 3.638310 
# 
# 
# High freq. dielectric constant tensor:
#      x y z
#    x 1.665890 0.000000 0.000000 
#    y 0.000000 1.665890 0.000000 
#    z 0.000000 0.000000 1.709320 
# 
# From -- ./inp_files/6357.got.cif
#   From: 2010.03.12/outbox.cif.g09.slc.cpg/sg127_4_cif.got.tgz:6357.got - 2010.04.06 17:03:15.
