data_PCOD8314799
_publ_section_title
;
Structure prediction by ZEFSAII (Michael W. Deem and Ramdas Pophale) SiO2 
 PCOD8314799
Probable space group: P 4/M N C
;
_chemical_formula_sum "Si O2"
_cell_formula_units_Z 64
_cell_length_a 12.505691
_cell_length_b 12.505691
_cell_length_c 20.007240
_cell_angle_alpha 90.000000
_cell_angle_beta 90.000000
_cell_angle_gamma 90.000000
_cell_volume 3128.978428
_symmetry_space_group_name_H-M "P 4/M N C"
_symmetry_group_IT_number 128
_symmetry_cell_setting 'tetragonal'
loop_
_space_group_symop_operation_xyz
x,y,z
-y,x,z
-x,-y,z
y,-x,z
1/2+x,1/2-y,1/2-z
1/2-x,1/2+y,1/2-z
1/2+y,1/2+x,1/2-z
1/2-y,1/2-x,1/2-z
-x,-y,-z
y,-x,-z
x,y,-z
-y,x,-z
1/2-x,1/2+y,1/2+z
1/2+x,1/2-y,1/2+z
1/2-y,1/2-x,1/2+z
1/2+y,1/2+x,1/2+z
loop_
_atom_site_type_symbol
_atom_site_label
_atom_site_fract_x
_atom_site_fract_y
_atom_site_fract_z
Si Si1 0.376453 0.794469 0.317907
Si Si2 0.905985 0.249693 0.774308
Si Si3 0.379022 0.968139 0.577871
Si Si4 0.669107 0.463537 0.132783
O O1 0.362915 0.862915 0.250000
O O2 0.499739 0.763209 0.327345
O O3 0.304331 0.689789 0.314958
O O4 0.342307 0.863209 0.381635
O O5 0.865718 0.365718 0.750000
O O6 0.951702 0.181186 0.712585
O O7 0.377390 0.942274 0.500000
O O8 0.500000 0.000000 0.599947
O O9 0.284922 0.054434 0.596186
O O10 0.625279 0.581506 0.112230
#
# Coordination Sequence:
#
# PCOD8314799 Si02
#       4
#    16  16  16  16
#     4  11  22  37  60  93 122 165 212 268 323 391
#     4  11  20  34  60  93 126 161 203 267 330 382
#     4  11  25  44  63  90 133 183 229 274 332 405
#     4  11  21  39  65  99 134 165 215 276 341 409
#
# _framework density 20.453959000000001
#
# number of rings (size 3 to 8) (size 9 to 14) (size 15 to 20)
#    0.000    1.000    5.000    3.000    0.000    1.500 
#    0.000    5.000    0.000    0.000    0.000    1.750 
#    0.000    0.000    0.000    0.000    0.000    0.000 
#
# Total GULP energy -793302.507679 kJ/mol
# GULP energy per Si atom -12395.351682 kJ/mol
# Density = 2.040741 g / cm^3
# Si number density = 20.453959 Si / 1000 Ang^3
#
#
#
# Elastic Constant Matrix: (Units=GPa)
#
#
# Indices 1 2 3 4 5 6 
#
# 1 107.1973 21.0091 23.1882 0.0000 0.0000 0.0000
# 2 21.0091 107.1973 23.1882 0.0000 0.0000 0.0000
# 3 23.1882 23.1882 79.1175 0.0000 0.0000 0.0000
# 4 0.0000 0.0000 0.0000 22.2144 0.0000 0.0000
# 5 0.0000 0.0000 0.0000 0.0000 22.2144 0.0000
# 6 0.0000 0.0000 0.0000 0.0000 0.0000 19.7582
#
#
#
# Elastic Compliance Matrix: (Units=1/GPa)
#
#
# Indices 1 2 3 4 5 6 
#
# 1 0.010164 -0.001439 -0.002557 0.000000 0.000000 0.000000
# 2 -0.001439 0.010164 -0.002557 0.000000 0.000000 0.000000
# 3 -0.002557 -0.002557 0.014138 0.000000 0.000000 0.000000
# 4 0.000000 0.000000 0.000000 0.045016 0.000000 0.000000
# 5 0.000000 0.000000 0.000000 0.000000 0.045016 0.000000
# 6 0.000000 0.000000 0.000000 0.000000 0.000000 0.050612
#
#
# Mechanical properties :
#
#
# Convention : Reuss Voigt Hill
#
# Bulk Modulus (GPa) = 46.81734 47.58701 47.20217
# Shear Modulus (GPa) = 25.59699 27.91252 26.75476
#
# Velocity S-wave (km/s) = 3.54141 3.69813 3.62062
# Velocity P-wave (km/s) = 6.29770 6.44599 6.37227
#
# Compressibility (1/GPa) = 0.02135961
#
# Stress axis : x y z
#
# Youngs Moduli (GPa) = 98.38922 98.38922 70.72961
#
# Poissons Ratio (x) = 0.14156 0.18087
# Poissons Ratio (y) = 0.14156 0.18087
# Poissons Ratio (z) = 0.25160 0.25160
#
# Static dielectric constant tensor:
#      x y z
#    x 3.959950 0.000000 0.000000 
#    y 0.000000 3.959950 0.000000 
#    z 0.000000 0.000000 3.331320 
# 
# 
# High freq. dielectric constant tensor:
#      x y z
#    x 1.810590 0.000000 0.000000 
#    y 0.000000 1.810590 0.000000 
#    z 0.000000 0.000000 1.755420 
# 
# From -- ./inp_files/5395.got.cif
#   From: 2010.03.12/outbox.cif.g09.slc.cpg/sg128_3_cif.got.tgz:5395.got - 2010.04.06 17:11:05.
