data_PCOD8314447
_publ_section_title
;
Structure prediction by ZEFSAII (Michael W. Deem and Ramdas Pophale) SiO2 
 PCOD8314447
Probable space group: P 4/M B M
;
_chemical_formula_sum "Si O2"
_cell_formula_units_Z 56
_cell_length_a 18.492923
_cell_length_b 18.492923
_cell_length_c 7.828613
_cell_angle_alpha 90.000000
_cell_angle_beta 90.000000
_cell_angle_gamma 90.000000
_cell_volume 2677.293277
_symmetry_space_group_name_H-M "P 4/M B M"
_symmetry_group_IT_number 127
_symmetry_cell_setting 'tetragonal'
loop_
_space_group_symop_operation_xyz
x,y,z
-y,x,z
-x,-y,z
y,-x,z
1/2+x,1/2-y,-z
1/2-x,1/2+y,-z
1/2+y,1/2+x,-z
1/2-y,1/2-x,-z
-x,-y,-z
y,-x,-z
x,y,-z
-y,x,-z
1/2-x,1/2+y,z
1/2+x,1/2-y,z
1/2-y,1/2-x,z
1/2+y,1/2+x,z
loop_
_atom_site_type_symbol
_atom_site_label
_atom_site_fract_x
_atom_site_fract_y
_atom_site_fract_z
Si Si1 0.374875 0.874875 0.805596
Si Si2 0.392630 0.552206 0.500000
Si Si3 0.892369 0.201939 0.809554
Si Si4 0.845775 0.463502 0.697267
Si Si5 0.763611 0.736390 0.306866
O O1 0.457563 0.858123 0.769288
O O2 0.324845 0.824845 0.688286
O O3 0.356453 0.856453 0.000000
O O4 0.403922 0.466807 0.500000
O O5 0.350205 0.571955 0.328699
O O6 0.924957 0.281851 0.798352
O O7 0.806455 0.205308 0.786396
O O8 0.908201 0.171594 0.000000
O O9 0.823594 0.467055 0.500000
O O10 0.919353 0.419353 0.724996
O O11 0.742234 0.757767 0.500000
#
# Coordination Sequence:
#
# PCOD8314447 Si02
#       5
#     8   8  16  16   8
#     4  12  27  41  64 103 141 180 233 289 340 405
#     4  11  28  51  74 102 135 182 237 294 356 414
#     4  12  25  44  73 105 140 183 231 287 348 418
#     4  11  23  43  67  98 139 188 231 275 344 418
#     4  12  24  45  69 100 138 183 237 286 340 412
#
# _framework density 20.916647999999999
#
# number of rings (size 3 to 8) (size 9 to 14) (size 15 to 20)
#    0.000    0.429    4.286    3.857    4.000    4.571 
#    0.000    1.429    0.000    0.000    0.000    0.000 
#    0.000    0.000    0.000    0.000    0.000    0.000 
#
# Total GULP energy -694802.729901 kJ/mol
# GULP energy per Si atom -12407.191605 kJ/mol
# Density = 2.086904 g / cm^3
# Si number density = 20.916648 Si / 1000 Ang^3
#
#
#
# Elastic Constant Matrix: (Units=GPa)
#
#
# Indices 1 2 3 4 5 6 
#
# 1 60.2724 81.3138 32.9725 0.0000 0.0000 0.0000
# 2 81.3138 60.2768 32.9745 0.0000 0.0000 0.0000
# 3 32.9725 32.9745 162.1528 0.0000 0.0000 0.0000
# 4 0.0000 0.0000 0.0000 23.5323 0.0000 0.0000
# 5 0.0000 0.0000 0.0000 0.0000 23.5329 0.0000
# 6 0.0000 0.0000 0.0000 0.0000 0.0000 33.9953
#
#
#
# Elastic Compliance Matrix: (Units=1/GPa)
#
#
# Indices 1 2 3 4 5 6 
#
# 1 -0.019865 0.027666 -0.001587 0.000000 0.000000 0.000000
# 2 0.027666 -0.019864 -0.001586 0.000000 0.000000 0.000000
# 3 -0.001587 -0.001586 0.006812 0.000000 0.000000 0.000000
# 4 0.000000 0.000000 0.000000 0.042495 0.000000 0.000000
# 5 0.000000 0.000000 0.000000 0.000000 0.042494 0.000000
# 6 0.000000 0.000000 0.000000 0.000000 0.000000 0.029416
#
#
# Mechanical properties :
#
#
# Convention : Reuss Voigt Hill
#
# Bulk Modulus (GPa) = 62.22890 64.13596 63.18243
# Shear Modulus (GPa) = 132.07129 25.24152 78.65641
#
# Velocity S-wave (km/s) = 7.95480 3.47762 6.13892
# Velocity P-wave (km/s) = 10.68584 6.84502 8.97334
#
# Compressibility (1/GPa) = 0.01606971
#
# Stress axis : x y z
#
# Youngs Moduli (GPa) = -50.33984 -50.34327 146.79489
#
# Poissons Ratio (x) = 1.39279 0.23290
# Poissons Ratio (y) = 1.39270 0.23286
# Poissons Ratio (z) = -0.07987 -0.07986
#
# Static dielectric constant tensor:
#      x y z
#    x 3.883010 0.000000 0.000000 
#    y 0.000000 3.883020 0.000000 
#    z 0.000000 0.000000 3.982280 
# 
# 
# High freq. dielectric constant tensor:
#      x y z
#    x 1.826320 0.000000 0.000000 
#    y 0.000000 1.826320 0.000000 
#    z 0.000000 0.000000 1.836710 
# 
# From -- ./inp_files/1144.got.cif
#   From: 2010.03.12/outbox.cif.g09.slc.cpg/sg127_1_cif.got.tgz:1144.got - 2010.04.06 17:03:15.
