data_PCOD8314851
_publ_section_title
;
Structure prediction by ZEFSAII (Michael W. Deem and Ramdas Pophale) SiO2 
 PCOD8314851
Probable space group: P 4/M N C
;
_chemical_formula_sum "Si O2"
_cell_formula_units_Z 52
_cell_length_a 12.600581
_cell_length_b 12.600581
_cell_length_c 21.854200
_cell_angle_alpha 90.000000
_cell_angle_beta 90.000000
_cell_angle_gamma 90.000000
_cell_volume 3469.892771
_symmetry_space_group_name_H-M "P 4/M N C"
_symmetry_group_IT_number 128
_symmetry_cell_setting 'tetragonal'
loop_
_space_group_symop_operation_xyz
x,y,z
-y,x,z
-x,-y,z
y,-x,z
1/2+x,1/2-y,1/2-z
1/2-x,1/2+y,1/2-z
1/2+y,1/2+x,1/2-z
1/2-y,1/2-x,1/2-z
-x,-y,-z
y,-x,-z
x,y,-z
-y,x,-z
1/2-x,1/2+y,1/2+z
1/2+x,1/2-y,1/2+z
1/2-y,1/2-x,1/2+z
1/2+y,1/2+x,1/2+z
loop_
_atom_site_type_symbol
_atom_site_label
_atom_site_fract_x
_atom_site_fract_y
_atom_site_fract_z
Si Si1 0.792378 0.378318 0.928699
Si Si2 0.121682 0.292378 0.428699
Si Si3 0.500000 0.000000 0.750000
Si Si4 0.882517 0.500000 0.632799
O O1 0.688295 0.311705 0.911100
O O2 0.769486 0.500000 0.909449
O O3 0.892082 0.327728 0.891274
O O4 0.819046 0.368681 0.000000
O O5 0.131319 0.319046 0.500000
O O6 0.172272 0.392082 0.391274
O O7 0.500000 0.105449 0.707035
O O8 0.000000 0.500000 0.601879
#
# Coordination Sequence:
#
# PCOD8314851 Si02
#       4
#    16  16   4  16
#     4   9  16  26  43  66  88 111 137 171 219 261
#     4   9  16  26  43  66  88 111 137 171 219 261
#     4   8  16  28  46  60  80 108 160 186 192 236
#     4   8  15  28  44  58  86 107 145 184 199 237
#
# _framework density 14.986053999999999
#
# number of rings (size 3 to 8) (size 9 to 14) (size 15 to 20)
#    0.923    2.462    0.000    0.923    0.000    4.308 
#    0.000    4.615    0.000    0.923    0.000    4.308 
#    0.000    0.000    0.000    0.000    0.000    0.000 
#
# Total GULP energy -644186.109333 kJ/mol
# GULP energy per Si atom -12388.194410 kJ/mol
# Density = 1.495195 g / cm^3
# Si number density = 14.986054 Si / 1000 Ang^3
#
#
#
# Elastic Constant Matrix: (Units=GPa)
#
#
# Indices 1 2 3 4 5 6 
#
# 1 81.6205 47.7786 39.0006 0.0000 0.0000 0.0000
# 2 47.7786 81.6205 39.0006 0.0000 0.0000 0.0000
# 3 39.0006 39.0006 68.1705 0.0000 0.0000 0.0000
# 4 0.0000 0.0000 0.0000 14.4511 0.0000 0.0000
# 5 0.0000 0.0000 0.0000 0.0000 14.4511 0.0000
# 6 0.0000 0.0000 0.0000 0.0000 0.0000 6.1603
#
#
#
# Elastic Compliance Matrix: (Units=1/GPa)
#
#
# Indices 1 2 3 4 5 6 
#
# 1 0.020673 -0.008877 -0.006749 0.000000 0.000000 0.000000
# 2 -0.008877 0.020673 -0.006749 0.000000 0.000000 0.000000
# 3 -0.006749 -0.006749 0.022391 0.000000 0.000000 0.000000
# 4 0.000000 0.000000 0.000000 0.069199 0.000000 0.000000
# 5 0.000000 0.000000 0.000000 0.000000 0.069199 0.000000
# 6 0.000000 0.000000 0.000000 0.000000 0.000000 0.162331
#
#
# Mechanical properties :
#
#
# Convention : Reuss Voigt Hill
#
# Bulk Modulus (GPa) = 52.66293 53.66346 53.16320
# Shear Modulus (GPa) = 12.03249 14.05460 13.04355
#
# Velocity S-wave (km/s) = 2.83665 3.06575 2.95342
# Velocity P-wave (km/s) = 6.77837 6.95834 6.86894
#
# Compressibility (1/GPa) = 0.01898869
#
# Stress axis : x y z
#
# Youngs Moduli (GPa) = 48.37324 48.37324 44.66109
#
# Poissons Ratio (x) = 0.42939 0.30140
# Poissons Ratio (y) = 0.42939 0.30140
# Poissons Ratio (z) = 0.32645 0.32645
#
# Static dielectric constant tensor:
#      x y z
#    x 2.791980 0.000000 0.000000 
#    y 0.000000 2.791980 0.000000 
#    z 0.000000 0.000000 2.686890 
# 
# 
# High freq. dielectric constant tensor:
#      x y z
#    x 1.550460 0.000000 0.000000 
#    y 0.000000 1.550460 0.000000 
#    z 0.000000 0.000000 1.558380 
# 
# From -- ./inp_files/6688.got.cif
#   From: 2010.03.12/outbox.cif.g09.slc.cpg/sg128_4_cif.got.tgz:6688.got - 2010.04.06 17:11:05.
