data_PCOD8314247
_publ_section_title
;
Structure prediction by ZEFSAII (Michael W. Deem and Ramdas Pophale) SiO2 
 PCOD8314247
Probable space group: P 4/M B M
;
_chemical_formula_sum "Si O2"
_cell_formula_units_Z 96
_cell_length_a 23.742759
_cell_length_b 23.742759
_cell_length_c 8.909452
_cell_angle_alpha 90.000000
_cell_angle_beta 90.000000
_cell_angle_gamma 90.000000
_cell_volume 5022.423852
_symmetry_space_group_name_H-M "P 4/M B M"
_symmetry_group_IT_number 127
_symmetry_cell_setting 'tetragonal'
loop_
_space_group_symop_operation_xyz
x,y,z
-y,x,z
-x,-y,z
y,-x,z
1/2+x,1/2-y,-z
1/2-x,1/2+y,-z
1/2+y,1/2+x,-z
1/2-y,1/2-x,-z
-x,-y,-z
y,-x,-z
x,y,-z
-y,x,-z
1/2-x,1/2+y,z
1/2+x,1/2-y,z
1/2-y,1/2-x,z
1/2+y,1/2+x,z
loop_
_atom_site_type_symbol
_atom_site_label
_atom_site_fract_x
_atom_site_fract_y
_atom_site_fract_z
Si Si1 0.577865 0.548549 0.334491
Si Si2 0.357810 0.366228 0.826584
Si Si3 0.057481 0.352068 0.172380
Si Si4 0.736252 0.570981 0.323811
Si Si5 0.557929 0.722674 0.323453
Si Si6 0.069328 0.660382 0.173663
O O1 0.517483 0.576560 0.318776
O O2 0.602842 0.564229 0.500000
O O3 0.614734 0.572424 0.199675
O O4 0.296565 0.376090 0.752227
O O5 0.398563 0.320913 0.750272
O O6 0.350885 0.351296 0.000000
O O7 0.092918 0.407083 0.217542
O O8 0.077158 0.300534 0.274507
O O9 0.992123 0.366516 0.200667
O O10 0.067655 0.334756 0.000000
O O11 0.732481 0.578881 0.500000
O O12 0.712729 0.508066 0.278102
O O13 0.564985 0.717204 0.500000
O O14 0.577661 0.784180 0.272430
O O15 0.114846 0.614846 0.227135
O O16 0.077796 0.676862 0.000000
#
# Coordination Sequence:
#
# PCOD8314247 Si02
#       6
#    16  16  16  16  16  16
#     4   9  18  32  48  67  95 131 170 215 267 320
#     4  12  23  33  50  75 102 135 178 226 272 320
#     4   9  18  34  57  85 116 146 175 211 258 313
#     4  10  21  37  56  77 105 143 184 225 269 317
#     4  10  21  37  56  77 105 143 184 225 269 317
#     4   9  18  34  57  85 116 146 175 211 258 313
#
# _framework density 19.114277000000001
#
# number of rings (size 3 to 8) (size 9 to 14) (size 15 to 20)
#    0.000    2.167    0.000    4.000    0.000    7.667 
#    0.000    3.333    0.000    5.000    0.000    4.667 
#    0.000    0.000    0.000    0.000    0.000    0.000 
#
# Total GULP energy -1189826.762982 kJ/mol
# GULP energy per Si atom -12394.028781 kJ/mol
# Density = 1.907077 g / cm^3
# Si number density = 19.114277 Si / 1000 Ang^3
#
#
#
# Elastic Constant Matrix: (Units=GPa)
#
#
# Indices 1 2 3 4 5 6 
#
# 1 78.3145 51.5548 44.4783 0.0000 0.0000 0.0000
# 2 51.5548 78.3145 44.4783 0.0000 0.0000 0.0000
# 3 44.4783 44.4783 86.0014 0.0000 0.0000 0.0000
# 4 0.0000 0.0000 0.0000 24.8797 0.0000 0.0000
# 5 0.0000 0.0000 0.0000 0.0000 24.8797 0.0000
# 6 0.0000 0.0000 0.0000 0.0000 0.0000 39.6262
#
#
#
# Elastic Compliance Matrix: (Units=1/GPa)
#
#
# Indices 1 2 3 4 5 6 
#
# 1 0.024647 -0.012723 -0.006167 0.000000 0.000000 0.000000
# 2 -0.012723 0.024647 -0.006167 0.000000 0.000000 0.000000
# 3 -0.006167 -0.006167 0.018007 0.000000 0.000000 0.000000
# 4 0.000000 0.000000 0.000000 0.040193 0.000000 0.000000
# 5 0.000000 0.000000 0.000000 0.000000 0.040193 0.000000
# 6 0.000000 0.000000 0.000000 0.000000 0.000000 0.025236
#
#
# Mechanical properties :
#
#
# Convention : Reuss Voigt Hill
#
# Bulk Modulus (GPa) = 58.18300 58.18367 58.18334
# Shear Modulus (GPa) = 21.85644 24.68506 23.27075
#
# Velocity S-wave (km/s) = 3.38518 3.59757 3.49299
# Velocity P-wave (km/s) = 6.76645 6.91105 6.83914
#
# Compressibility (1/GPa) = 0.01718715
#
# Stress axis : x y z
#
# Youngs Moduli (GPa) = 40.57297 40.57297 55.53511
#
# Poissons Ratio (x) = 0.51620 0.34249
# Poissons Ratio (y) = 0.51620 0.34249
# Poissons Ratio (z) = 0.25021 0.25021
#
# Static dielectric constant tensor:
#      x y z
#    x 3.532920 0.000000 0.000000 
#    y 0.000000 3.532920 0.000000 
#    z 0.000000 0.000000 3.474890 
# 
# 
# High freq. dielectric constant tensor:
#      x y z
#    x 1.738630 0.000000 0.000000 
#    y 0.000000 1.738630 0.000000 
#    z 0.000000 0.000000 1.738240 
# 
# From -- ./inp_files/1975.got.cif
#   From: 2010.03.12/outbox.cif.g09.slc.cpg/sg127_1_cif.got.tgz:1975.got - 2010.04.06 17:03:15.
