data_PCOD8314258
_publ_section_title
;
Structure prediction by ZEFSAII (Michael W. Deem and Ramdas Pophale) SiO2 
 PCOD8314258
Probable space group: P 4/M B M
;
_chemical_formula_sum "Si O2"
_cell_formula_units_Z 96
_cell_length_a 23.625777
_cell_length_b 23.625777
_cell_length_c 9.181470
_cell_angle_alpha 90.000000
_cell_angle_beta 90.000000
_cell_angle_gamma 90.000000
_cell_volume 5124.888491
_symmetry_space_group_name_H-M "P 4/M B M"
_symmetry_group_IT_number 127
_symmetry_cell_setting 'tetragonal'
loop_
_space_group_symop_operation_xyz
x,y,z
-y,x,z
-x,-y,z
y,-x,z
1/2+x,1/2-y,-z
1/2-x,1/2+y,-z
1/2+y,1/2+x,-z
1/2-y,1/2-x,-z
-x,-y,-z
y,-x,-z
x,y,-z
-y,x,-z
1/2-x,1/2+y,z
1/2+x,1/2-y,z
1/2-y,1/2-x,z
1/2+y,1/2+x,z
loop_
_atom_site_type_symbol
_atom_site_label
_atom_site_fract_x
_atom_site_fract_y
_atom_site_fract_z
Si Si1 0.365074 0.771224 0.666063
Si Si2 0.999385 0.592236 0.333095
Si Si3 0.693242 0.715938 0.832786
Si Si4 0.480142 0.795042 0.172614
Si Si5 0.565497 0.698321 0.830789
Si Si6 0.533294 0.584725 0.328923
O O1 0.382049 0.757991 0.500000
O O2 0.326205 0.826205 0.676583
O O3 0.333401 0.716910 0.730423
O O4 0.419544 0.783267 0.760709
O O5 0.992840 0.612229 0.500000
O O6 0.944857 0.555144 0.288321
O O7 0.004812 0.645909 0.229322
O O8 0.055940 0.555940 0.312914
O O9 0.724711 0.775290 0.799507
O O10 0.627400 0.723535 0.797114
O O11 0.703007 0.697652 0.000000
O O12 0.521397 0.745002 0.224691
O O13 0.475399 0.798134 0.000000
O O14 0.556435 0.639701 0.749657
O O15 0.557194 0.685764 0.000000
O O16 0.468482 0.572339 0.283121
O O17 0.537021 0.594761 0.500000
#
# Coordination Sequence:
#
# PCOD8314258 Si02
#       6
#    16  16  16  16  16  16
#     4  10  21  37  58  83 110 143 185 233 281 326
#     4   9  19  37  59  82 111 148 189 234 283 332
#     4   9  19  38  60  79 106 145 185 226 274 327
#     4  11  23  36  53  83 118 149 185 228 276 332
#     4  10  23  38  55  83 115 149 187 229 278 333
#     4   9  20  39  60  83 111 144 184 231 284 338
#
# _framework density 18.732113999999999
#
# number of rings (size 3 to 8) (size 9 to 14) (size 15 to 20)
#    0.000    2.333    0.000    2.500    2.333    7.000 
#    0.000    3.333    0.000    2.000    0.000    0.000 
#    0.000    0.000    0.000    0.000    0.000    0.000 
#
# Total GULP energy -1190642.740149 kJ/mol
# GULP energy per Si atom -12402.528543 kJ/mol
# Density = 1.868948 g / cm^3
# Si number density = 18.732114 Si / 1000 Ang^3
#
#
#
# Elastic Constant Matrix: (Units=GPa)
#
#
# Indices 1 2 3 4 5 6 
#
# 1 70.3579 50.3676 35.5451 0.0000 0.0000 0.0000
# 2 50.3676 70.3579 35.5451 0.0000 0.0000 0.0000
# 3 35.5451 35.5451 64.5296 0.0000 0.0000 0.0000
# 4 0.0000 0.0000 0.0000 1.8978 0.0000 0.0000
# 5 0.0000 0.0000 0.0000 0.0000 1.8978 0.0000
# 6 0.0000 0.0000 0.0000 0.0000 0.0000 13.7476
#
#
#
# Elastic Compliance Matrix: (Units=1/GPa)
#
#
# Indices 1 2 3 4 5 6 
#
# 1 0.031142 -0.018882 -0.006753 0.000000 0.000000 0.000000
# 2 -0.018882 0.031142 -0.006753 0.000000 0.000000 0.000000
# 3 -0.006753 -0.006753 0.022937 0.000000 0.000000 0.000000
# 4 0.000000 0.000000 0.000000 0.526924 0.000000 0.000000
# 5 0.000000 0.000000 0.000000 0.000000 0.526924 0.000000
# 6 0.000000 0.000000 0.000000 0.000000 0.000000 0.072740
#
#
# Mechanical properties :
#
#
# Convention : Reuss Voigt Hill
#
# Bulk Modulus (GPa) = 48.91498 49.79568 49.35533
# Shear Modulus (GPa) = 3.89590 9.09449 6.49520
#
# Velocity S-wave (km/s) = 1.44372 2.20580 1.86412
# Velocity P-wave (km/s) = 5.38040 5.75571 5.57121
#
# Compressibility (1/GPa) = 0.02044364
#
# Stress axis : x y z
#
# Youngs Moduli (GPa) = 32.11096 32.11096 43.59856
#
# Poissons Ratio (x) = 0.60632 0.29443
# Poissons Ratio (y) = 0.60632 0.29443
# Poissons Ratio (z) = 0.21685 0.21685
#
# Static dielectric constant tensor:
#      x y z
#    x 3.496230 0.000000 0.000000 
#    y 0.000000 3.496230 0.000000 
#    z 0.000000 0.000000 3.459470 
# 
# 
# High freq. dielectric constant tensor:
#      x y z
#    x 1.732190 0.000000 0.000000 
#    y 0.000000 1.732190 0.000000 
#    z 0.000000 0.000000 1.727010 
# 
# From -- ./inp_files/1980.got.cif
#   From: 2010.03.12/outbox.cif.g09.slc.cpg/sg127_1_cif.got.tgz:1980.got - 2010.04.06 17:03:15.
