data_PCOD8314054
_publ_section_title
;
Structure prediction by ZEFSAII (Michael W. Deem and Ramdas Pophale) SiO2 
 PCOD8314054
Probable space group: P 4/M B M
;
_chemical_formula_sum "Si O2"
_cell_formula_units_Z 96
_cell_length_a 24.022738
_cell_length_b 24.022738
_cell_length_c 9.088699
_cell_angle_alpha 90.000000
_cell_angle_beta 90.000000
_cell_angle_gamma 90.000000
_cell_volume 5245.014947
_symmetry_space_group_name_H-M "P 4/M B M"
_symmetry_group_IT_number 127
_symmetry_cell_setting 'tetragonal'
loop_
_space_group_symop_operation_xyz
x,y,z
-y,x,z
-x,-y,z
y,-x,z
1/2+x,1/2-y,-z
1/2-x,1/2+y,-z
1/2+y,1/2+x,-z
1/2-y,1/2-x,-z
-x,-y,-z
y,-x,-z
x,y,-z
-y,x,-z
1/2-x,1/2+y,z
1/2+x,1/2-y,z
1/2-y,1/2-x,z
1/2+y,1/2+x,z
loop_
_atom_site_type_symbol
_atom_site_label
_atom_site_fract_x
_atom_site_fract_y
_atom_site_fract_z
Si Si1 0.308498 0.721048 0.824868
Si Si2 0.085155 0.969618 0.328215
Si Si3 0.295356 0.011269 0.174744
Si Si4 0.001249 0.590216 0.670388
Si Si5 0.633715 0.779157 0.825461
Si Si6 0.697292 0.568803 0.825089
O O1 0.278101 0.778101 0.770267
O O2 0.274027 0.667742 0.765789
O O3 0.370675 0.714992 0.763046
O O4 0.309104 0.721141 0.000000
O O5 0.098525 0.964889 0.500000
O O6 0.138453 0.950409 0.237670
O O7 0.033215 0.929937 0.286783
O O8 0.279836 0.071840 0.239612
O O9 0.354438 0.992007 0.236178
O O10 0.246283 0.971359 0.229908
O O11 0.299921 0.011183 0.000000
O O12 0.006082 0.606089 0.500000
O O13 0.947780 0.552221 0.699483
O O14 0.056789 0.556789 0.720395
O O15 0.664501 0.835500 0.774444
O O16 0.631463 0.776121 0.000000
O O17 0.691779 0.568839 0.000000
#
# Coordination Sequence:
#
# PCOD8314054 Si02
#       6
#    16  16  16  16  16  16
#     4   8  15  29  47  67  98 139 171 197 243 306
#     4   9  20  39  58  75 101 141 183 219 263 320
#     4  10  20  31  47  78 109 132 167 215 264 314
#     4   9  19  36  55  74 100 138 181 221 264 314
#     4   8  14  26  45  66  92 129 166 201 244 296
#     4  10  21  32  51  83 111 136 170 218 265 310
#
# _framework density 18.303093000000001
#
# number of rings (size 3 to 8) (size 9 to 14) (size 15 to 20)
#    0.000    3.000    0.000    2.500    2.333    3.333 
#    0.000    3.333    0.000    0.500    0.000    0.000 
#    0.000    0.000    0.000    0.000    0.000    0.000 
#
# Total GULP energy -1189989.900022 kJ/mol
# GULP energy per Si atom -12395.728125 kJ/mol
# Density = 1.826143 g / cm^3
# Si number density = 18.303093 Si / 1000 Ang^3
#
#
#
# Elastic Constant Matrix: (Units=GPa)
#
#
# Indices 1 2 3 4 5 6 
#
# 1 157.2784 88.8621 29.2752 0.0000 0.0000 0.0000
# 2 88.8621 157.2784 29.2752 0.0000 0.0000 0.0000
# 3 29.2752 29.2752 20.6912 0.0000 0.0000 0.0000
# 4 0.0000 0.0000 0.0000 21.1489 0.0000 0.0000
# 5 0.0000 0.0000 0.0000 0.0000 21.1489 0.0000
# 6 0.0000 0.0000 0.0000 0.0000 0.0000 24.7031
#
#
#
# Elastic Compliance Matrix: (Units=1/GPa)
#
#
# Indices 1 2 3 4 5 6 
#
# 1 0.010370 -0.004246 -0.008664 0.000000 0.000000 0.000000
# 2 -0.004246 0.010370 -0.008664 0.000000 0.000000 0.000000
# 3 -0.008664 -0.008664 0.072847 0.000000 0.000000 0.000000
# 4 0.000000 0.000000 0.000000 0.047284 0.000000 0.000000
# 5 0.000000 0.000000 0.000000 0.000000 0.047284 0.000000
# 6 0.000000 0.000000 0.000000 0.000000 0.000000 0.040481
#
#
# Mechanical properties :
#
#
# Convention : Reuss Voigt Hill
#
# Bulk Modulus (GPa) = 19.82653 70.00809 44.91731
# Shear Modulus (GPa) = 17.32520 25.92255 21.62387
#
# Velocity S-wave (km/s) = 3.07998 3.76745 3.44093
# Velocity P-wave (km/s) = 4.84811 7.56685 6.35458
#
# Compressibility (1/GPa) = 0.05043747
#
# Stress axis : x y z
#
# Youngs Moduli (GPa) = 96.43152 96.43152 13.72746
#
# Poissons Ratio (x) = 0.40948 0.11894
# Poissons Ratio (y) = 0.40948 0.11894
# Poissons Ratio (z) = 0.83550 0.83550
#
# Static dielectric constant tensor:
#      x y z
#    x 3.592310 0.000000 0.000000 
#    y 0.000000 3.592310 0.000000 
#    z 0.000000 0.000000 2.880700 
# 
# 
# High freq. dielectric constant tensor:
#      x y z
#    x 1.719110 0.000000 0.000000 
#    y 0.000000 1.719110 0.000000 
#    z 0.000000 0.000000 1.662800 
# 
# From -- ./inp_files/1944.got.cif
#   From: 2010.03.12/outbox.cif.g09.slc.cpg/sg127_1_cif.got.tgz:1944.got - 2010.04.06 17:03:15.
