data_PCOD8314265
_publ_section_title
;
Structure prediction by ZEFSAII (Michael W. Deem and Ramdas Pophale) SiO2 
 PCOD8314265
Probable space group: P 4/M B M
;
_chemical_formula_sum "Si O2"
_cell_formula_units_Z 96
_cell_length_a 14.781525
_cell_length_b 14.781525
_cell_length_c 23.868824
_cell_angle_alpha 90.000000
_cell_angle_beta 90.000000
_cell_angle_gamma 90.000000
_cell_volume 5215.182451
_symmetry_space_group_name_H-M "P 4/M B M"
_symmetry_group_IT_number 127
_symmetry_cell_setting 'tetragonal'
loop_
_space_group_symop_operation_xyz
x,y,z
-y,x,z
-x,-y,z
y,-x,z
1/2+x,1/2-y,-z
1/2-x,1/2+y,-z
1/2+y,1/2+x,-z
1/2-y,1/2-x,-z
-x,-y,-z
y,-x,-z
x,y,-z
-y,x,-z
1/2-x,1/2+y,z
1/2+x,1/2-y,z
1/2-y,1/2-x,z
1/2+y,1/2+x,z
loop_
_atom_site_type_symbol
_atom_site_label
_atom_site_fract_x
_atom_site_fract_y
_atom_site_fract_z
Si Si1 0.272967 0.448923 0.826497
Si Si2 0.213910 0.135681 0.227361
Si Si3 0.061504 0.135621 0.060836
Si Si4 0.570412 0.070412 0.679628
Si Si5 0.430181 0.930181 0.811355
Si Si6 0.285011 0.064191 0.342494
Si Si7 0.858802 0.957689 0.435796
O O1 0.305287 0.550868 0.813655
O O2 0.303242 0.376717 0.778420
O O3 0.303260 0.410754 0.886756
O O4 0.167096 0.457685 0.831816
O O5 0.302705 0.197296 0.212805
O O6 0.224448 0.092419 0.289044
O O7 0.955651 0.117442 0.065166
O O8 0.082407 0.181660 0.000000
O O9 0.563928 0.063928 0.745414
O O10 0.537908 0.172013 0.662445
O O11 0.500000 0.000000 0.652165
O O12 0.500000 0.000000 0.839121
O O13 0.365642 0.134359 0.349332
O O14 0.224713 0.068871 0.397436
O O15 0.827795 0.948415 0.500000
O O16 0.940451 0.889510 0.422880
#
# Coordination Sequence:
#
# PCOD8314265 Si02
#       7
#    16  16  16   8   8  16  16
#     4  12  21  37  61  84 122 151 195 243 292 356
#     4  11  24  37  54  90 123 154 192 243 296 353
#     4   9  18  34  56  83 114 147 186 238 299 353
#     4   9  18  36  57  81 115 159 187 219 282 348
#     4  11  22  38  59  81 115 172 193 220 290 365
#     4  10  21  37  59  87 119 149 193 241 288 350
#     4   9  20  40  60  79 111 154 193 234 290 346
#
# _framework density 18.407793000000002
#
# number of rings (size 3 to 8) (size 9 to 14) (size 15 to 20)
#    0.000    1.833    4.167    1.500    2.333    0.667 
#    1.500    0.833    0.000    5.000    0.000    0.000 
#    0.000    0.000    0.000    0.000    0.000    0.000 
#
# Total GULP energy -1189658.220918 kJ/mol
# GULP energy per Si atom -12392.273135 kJ/mol
# Density = 1.836590 g / cm^3
# Si number density = 18.407793 Si / 1000 Ang^3
#
#
#
# Elastic Constant Matrix: (Units=GPa)
#
#
# Indices 1 2 3 4 5 6 
#
# 1 89.3145 21.6702 35.8012 0.0000 0.0000 0.0000
# 2 21.6702 89.3145 35.8012 0.0000 0.0000 0.0000
# 3 35.8012 35.8012 99.2963 0.0000 0.0000 0.0000
# 4 0.0000 0.0000 0.0000 26.9808 0.0000 0.0000
# 5 0.0000 0.0000 0.0000 0.0000 26.9808 0.0000
# 6 0.0000 0.0000 0.0000 0.0000 0.0000 24.0407
#
#
#
# Elastic Compliance Matrix: (Units=1/GPa)
#
#
# Indices 1 2 3 4 5 6 
#
# 1 0.013262 -0.001521 -0.004233 0.000000 0.000000 0.000000
# 2 -0.001521 0.013262 -0.004233 0.000000 0.000000 0.000000
# 3 -0.004233 -0.004233 0.013124 0.000000 0.000000 0.000000
# 4 0.000000 0.000000 0.000000 0.037063 0.000000 0.000000
# 5 0.000000 0.000000 0.000000 0.000000 0.037063 0.000000
# 6 0.000000 0.000000 0.000000 0.000000 0.000000 0.041596
#
#
# Mechanical properties :
#
#
# Convention : Reuss Voigt Hill
#
# Bulk Modulus (GPa) = 50.83121 51.60782 51.21951
# Shear Modulus (GPa) = 27.48705 27.91066 27.69885
#
# Velocity S-wave (km/s) = 3.86842 3.89812 3.88330
# Velocity P-wave (km/s) = 6.90122 6.95393 6.92763
#
# Compressibility (1/GPa) = 0.01967295
#
# Stress axis : x y z
#
# Youngs Moduli (GPa) = 75.40158 75.40158 76.19895
#
# Poissons Ratio (x) = 0.11468 0.32258
# Poissons Ratio (y) = 0.11468 0.32258
# Poissons Ratio (z) = 0.31920 0.31920
#
# Static dielectric constant tensor:
#      x y z
#    x 3.456840 0.000000 0.000000 
#    y 0.000000 3.456840 0.000000 
#    z 0.000000 0.000000 3.357300 
# 
# 
# High freq. dielectric constant tensor:
#      x y z
#    x 1.710700 0.000000 0.000000 
#    y 0.000000 1.710700 0.000000 
#    z 0.000000 0.000000 1.702630 
# 
# From -- ./inp_files/5845.got.cif
#   From: 2010.03.12/outbox.cif.g09.slc.cpg/sg127_3_cif.got.tgz:5845.got - 2010.04.06 17:03:15.
