data_PCOD8314707
_publ_section_title
;
Structure prediction by ZEFSAII (Michael W. Deem and Ramdas Pophale) SiO2 
 PCOD8314707
Probable space group: P 4/M N C
;
_chemical_formula_sum "Si O2"
_cell_formula_units_Z 112
_cell_length_a 14.780081
_cell_length_b 14.780081
_cell_length_c 24.924432
_cell_angle_alpha 90.000000
_cell_angle_beta 90.000000
_cell_angle_gamma 90.000000
_cell_volume 5444.761970
_symmetry_space_group_name_H-M "P 4/M N C"
_symmetry_group_IT_number 128
_symmetry_cell_setting 'tetragonal'
loop_
_space_group_symop_operation_xyz
x,y,z
-y,x,z
-x,-y,z
y,-x,z
1/2+x,1/2-y,1/2-z
1/2-x,1/2+y,1/2-z
1/2+y,1/2+x,1/2-z
1/2-y,1/2-x,1/2-z
-x,-y,-z
y,-x,-z
x,y,-z
-y,x,-z
1/2-x,1/2+y,1/2+z
1/2+x,1/2-y,1/2+z
1/2-y,1/2-x,1/2+z
1/2+y,1/2+x,1/2+z
loop_
_atom_site_type_symbol
_atom_site_label
_atom_site_fract_x
_atom_site_fract_y
_atom_site_fract_z
Si Si1 0.929927 0.343928 0.560041
Si Si2 0.370474 0.841948 0.902950
Si Si3 0.625121 0.422660 0.231500
Si Si4 0.962986 0.594883 0.807810
Si Si5 0.588656 0.740706 0.666551
Si Si6 0.676799 0.727498 0.861882
Si Si7 0.990038 0.280632 0.060088
O O1 0.907635 0.312831 0.500000
O O2 0.900455 0.263704 0.598979
O O3 0.875624 0.437276 0.572225
O O4 0.036330 0.356427 0.566023
O O5 0.372958 0.879468 0.842864
O O6 0.343085 0.736933 0.896716
O O7 0.297690 0.902207 0.936086
O O8 0.622953 0.529018 0.220801
O O9 0.656408 0.413009 0.293142
O O10 0.690646 0.373349 0.190277
O O11 0.921310 0.578691 0.750000
O O12 0.000000 0.500000 0.831082
O O13 0.041113 0.671106 0.806815
O O14 0.693891 0.757320 0.657529
O O15 0.542613 0.714544 0.608589
O O16 0.967610 0.242869 0.000000
#
# Coordination Sequence:
#
# PCOD8314707 Si02
#       7
#    16  16  16  16  16  16  16
#     4  10  21  38  59  86 125 164 200 252 312 372
#     4  11  21  35  60  91 117 158 205 248 305 372
#     4  11  26  43  62  81 118 173 217 254 305 377
#     4  10  22  33  58  90 123 155 188 244 313 379
#     4  10  23  39  62  91 125 158 203 260 315 371
#     4  11  24  38  61  88 125 160 204 265 309 360
#     4   9  19  38  63  92 125 159 197 253 325 386
#
# _framework density 20.570229999999999
#
# number of rings (size 3 to 8) (size 9 to 14) (size 15 to 20)
#    0.000    1.714    0.000    4.714   12.000    2.286 
#    0.000    0.000    0.000    0.000    0.000    4.000 
#    0.000    0.000    0.000    0.000    0.000    0.000 
#
# Total GULP energy -1388501.792044 kJ/mol
# GULP energy per Si atom -12397.337429 kJ/mol
# Density = 2.052341 g / cm^3
# Si number density = 20.570230 Si / 1000 Ang^3
#
#
#
# Elastic Constant Matrix: (Units=GPa)
#
#
# Indices 1 2 3 4 5 6 
#
# 1 14.0294 48.1561 21.7487 0.0000 0.0000 0.0000
# 2 48.1561 14.0293 21.7491 0.0000 0.0000 0.0000
# 3 21.7487 21.7491 127.4625 0.0000 0.0000 0.0000
# 4 0.0000 0.0000 0.0000 21.3224 0.0000 0.0000
# 5 0.0000 0.0000 0.0000 0.0000 21.3223 0.0000
# 6 0.0000 0.0000 0.0000 0.0000 0.0000 15.7914
#
#
#
# Elastic Compliance Matrix: (Units=1/GPa)
#
#
# Indices 1 2 3 4 5 6 
#
# 1 -0.005521 0.023781 -0.003116 0.000000 0.000000 0.000000
# 2 0.023781 -0.005521 -0.003116 0.000000 0.000000 0.000000
# 3 -0.003116 -0.003116 0.008909 0.000000 0.000000 0.000000
# 4 0.000000 0.000000 0.000000 0.046899 0.000000 0.000000
# 5 0.000000 0.000000 0.000000 0.000000 0.046899 0.000000
# 6 0.000000 0.000000 0.000000 0.000000 0.000000 0.063326
#
#
# Mechanical properties :
#
#
# Convention : Reuss Voigt Hill
#
# Bulk Modulus (GPa) = 30.33391 37.64766 33.99078
# Shear Modulus (GPa) = 38.20318 15.94506 27.07412
#
# Velocity S-wave (km/s) = 4.31421 2.78718 3.63185
# Velocity P-wave (km/s) = 6.29246 5.35720 5.84357
#
# Compressibility (1/GPa) = 0.03296641
#
# Stress axis : x y z
#
# Youngs Moduli (GPa) = -181.12470 -181.12062 112.24951
#
# Poissons Ratio (x) = 4.30732 0.34975
# Poissons Ratio (y) = 4.30741 0.34974
# Poissons Ratio (z) = -0.56435 -0.56432
#
# Static dielectric constant tensor:
#      x y z
#    x 3.601090 0.000000 0.000000 
#    y 0.000000 3.601090 0.000000 
#    z 0.000000 0.000000 3.866770 
# 
# 
# High freq. dielectric constant tensor:
#      x y z
#    x 1.788190 0.000000 0.000000 
#    y 0.000000 1.788190 0.000000 
#    z 0.000000 0.000000 1.819930 
# 
# From -- ./inp_files/6887.got.cif
#   From: 2010.03.12/outbox.cif.g09.slc.cpg/sg128_4_cif.got.tgz:6887.got - 2010.04.06 17:11:05.
