data_PCOD8315797
_publ_section_title
;
Structure prediction by ZEFSAII (Michael W. Deem and Ramdas Pophale) SiO2 
 PCOD8315797
Probable space group: P 42/M M C
;
_chemical_formula_sum "Si O2"
_cell_formula_units_Z 112
_cell_length_a 14.975921
_cell_length_b 14.975921
_cell_length_c 35.307705
_cell_angle_alpha 90.000000
_cell_angle_beta 90.000000
_cell_angle_gamma 90.000000
_cell_volume 7918.748869
_symmetry_space_group_name_H-M "P 42/M M C"
_symmetry_group_IT_number 131
_symmetry_cell_setting 'tetragonal'
loop_
_space_group_symop_operation_xyz
x,y,z
-x,-y,z
-y,x,1/2+z
y,-x,1/2+z
-x,y,-z
x,-y,-z
y,x,1/2-z
-y,-x,1/2-z
-x,-y,-z
x,y,-z
y,-x,1/2-z
-y,x,1/2-z
x,-y,z
-x,y,z
-y,-x,1/2+z
y,x,1/2+z
loop_
_atom_site_type_symbol
_atom_site_label
_atom_site_fract_x
_atom_site_fract_y
_atom_site_fract_z
Si Si1 0.223753 0.606728 0.458191
Si Si2 0.899821 0.697654 0.687793
Si Si3 0.395700 0.596244 0.924974
Si Si4 0.397373 0.602591 0.337129
Si Si5 0.746712 0.285304 0.792248
Si Si6 0.899083 0.600858 0.234500
Si Si7 0.898028 0.601447 0.608782
O O1 0.194307 0.640177 0.500000
O O2 0.222353 0.500000 0.456743
O O3 0.323412 0.644424 0.449967
O O4 0.157790 0.644622 0.425870
O O5 0.817638 0.766345 0.694590
O O6 0.892647 0.624742 0.721059
O O7 0.881756 0.653210 0.647499
O O8 0.000000 0.741970 0.688712
O O9 0.352141 0.500000 0.936078
O O10 0.500000 0.589543 0.932809
O O11 0.378713 0.616926 0.881207
O O12 0.372101 0.500000 0.327211
O O13 0.500000 0.620856 0.325284
O O14 0.330956 0.670091 0.316813
O O15 0.709953 0.290048 0.750000
O O16 0.840421 0.337488 0.793423
O O17 0.864964 0.500000 0.230187
O O18 0.000000 0.611588 0.220070
O O19 0.867472 0.500000 0.616073
O O20 0.000000 0.606327 0.595891
#
# Coordination Sequence:
#
# PCOD8315797 Si02
#       7
#    16  16  16  16  16  16  16
#     4   9  16  23  31  45  64  86 116 157 198 226
#     4   9  17  28  41  56  73  95 125 159 190 221
#     4   8  14  24  35  45  60  87 121 152 181 215
#     4   9  17  27  37  51  74 101 126 154 189 231
#     4  10  19  27  39  57  75  97 124 157 194 230
#     4   9  17  29  43  58  77  99 125 158 192 226
#     4   9  16  25  37  51  67  91 123 155 188 226
#
# _framework density 14.143648000000001
#
# number of rings (size 3 to 8) (size 9 to 14) (size 15 to 20)
#    0.000    3.000    0.000    2.571    0.000    6.857 
#    0.000    3.571    0.000    0.429    0.000    3.000 
#    0.000    0.000    0.000    0.000    0.000   11.429 
#
# Total GULP energy -1387678.413653 kJ/mol
# GULP energy per Si atom -12389.985836 kJ/mol
# Density = 1.411146 g / cm^3
# Si number density = 14.143648 Si / 1000 Ang^3
#
#
#
# Elastic Constant Matrix: (Units=GPa)
#
#
# Indices 1 2 3 4 5 6 
#
# 1 67.6266 38.7118 33.5525 0.0000 0.0000 0.0000
# 2 38.7118 67.6265 33.5525 0.0000 0.0000 0.0000
# 3 33.5525 33.5525 63.8494 0.0000 0.0000 0.0000
# 4 0.0000 0.0000 0.0000 13.2657 0.0000 0.0000
# 5 0.0000 0.0000 0.0000 0.0000 13.2658 0.0000
# 6 0.0000 0.0000 0.0000 0.0000 0.0000 15.2037
#
#
#
# Elastic Compliance Matrix: (Units=1/GPa)
#
#
# Indices 1 2 3 4 5 6 
#
# 1 0.024327 -0.010257 -0.007393 0.000000 0.000000 0.000000
# 2 -0.010257 0.024327 -0.007394 0.000000 0.000000 0.000000
# 3 -0.007393 -0.007394 0.023432 0.000000 0.000000 0.000000
# 4 0.000000 0.000000 0.000000 0.075382 0.000000 0.000000
# 5 0.000000 0.000000 0.000000 0.000000 0.075382 0.000000
# 6 0.000000 0.000000 0.000000 0.000000 0.000000 0.065774
#
#
# Mechanical properties :
#
#
# Convention : Reuss Voigt Hill
#
# Bulk Modulus (GPa) = 45.45958 45.63736 45.54847
# Shear Modulus (GPa) = 14.44895 14.56607 14.50751
#
# Velocity S-wave (km/s) = 3.19969 3.21263 3.20617
# Velocity P-wave (km/s) = 6.77214 6.78958 6.78087
#
# Compressibility (1/GPa) = 0.02199756
#
# Stress axis : x y z
#
# Youngs Moduli (GPa) = 41.10664 41.10651 42.67601
#
# Poissons Ratio (x) = 0.42164 0.31552
# Poissons Ratio (y) = 0.42165 0.31553
# Poissons Ratio (z) = 0.30392 0.30392
#
# Static dielectric constant tensor:
#      x y z
#    x 2.653910 0.000000 0.000000 
#    y 0.000000 2.653910 0.000000 
#    z 0.000000 0.000000 2.804890 
# 
# 
# High freq. dielectric constant tensor:
#      x y z
#    x 1.513420 0.000000 0.000000 
#    y 0.000000 1.513420 0.000000 
#    z 0.000000 0.000000 1.535330 
# 
# From -- ./inp_files/13848.got.cif
#   From: 2010.03.12/outbox.cif.g09.slc.cpg/sg131_7_cif.got.tgz:13848.got - 2010.04.06 17:36:35.
