data_PCOD8315620
_publ_section_title
;
Structure prediction by ZEFSAII (Michael W. Deem and Ramdas Pophale) SiO2 
 PCOD8315620
Probable space group: P 4/N C C
;
_chemical_formula_sum "Si O2"
_cell_formula_units_Z 72
_cell_length_a 13.265778
_cell_length_b 13.265778
_cell_length_c 15.429667
_cell_angle_alpha 90.000000
_cell_angle_beta 90.000000
_cell_angle_gamma 90.000000
_cell_volume 2715.326160
_symmetry_space_group_name_H-M "P 4/N C C"
_symmetry_group_IT_number 130
_symmetry_cell_setting 'tetragonal'
loop_
_space_group_symop_operation_xyz
x,y,z
1/2-y,x,z
1/2-x,1/2-y,z
y,1/2-x,z
1/2+x,-y,1/2-z
-x,1/2+y,1/2-z
1/2+y,1/2+x,1/2-z
-y,-x,1/2-z
-x,-y,-z
1/2+y,-x,-z
1/2+x,1/2+y,-z
-y,1/2+x,-z
1/2-x,y,1/2+z
x,1/2-y,1/2+z
1/2-y,1/2-x,1/2+z
y,x,1/2+z
loop_
_atom_site_type_symbol
_atom_site_label
_atom_site_fract_x
_atom_site_fract_y
_atom_site_fract_z
Si Si1 0.167897 0.110709 0.797096
Si Si2 0.297275 0.913602 0.371879
Si Si3 0.529441 0.194589 0.544899
Si Si4 0.877260 0.122741 0.750000
Si Si5 0.057403 0.387640 0.124888
O O1 0.286491 0.112813 0.824244
O O2 0.150070 0.104015 0.693840
O O3 0.131297 0.011064 0.848704
O O4 0.217509 0.934895 0.448121
O O5 0.130856 0.680324 0.396763
O O6 0.236466 0.889499 0.283998
O O7 0.454743 0.281409 0.577379
O O8 0.468017 0.088652 0.550227
O O9 0.952339 0.091844 0.672740
#
# Coordination Sequence:
#
# PCOD8315620 Si02
#       5
#    16  16  16   8  16
#     4  11  23  47  76 111 158 208 274 341 402 505
#     4  12  29  52  78 120 166 222 278 349 426 507
#     4  12  30  49  81 117 171 210 275 354 426 501
#     4  12  26  47  82 110 160 221 276 338 408 513
#     4  12  25  48  80 117 156 214 272 347 416 500
#
# _framework density 26.516151000000001
#
# number of rings (size 3 to 8) (size 9 to 14) (size 15 to 20)
#    0.000    0.222    4.444    2.667    3.111    8.889 
#    0.000    0.000    0.000    0.000    0.000    0.000 
#    0.000    0.000    0.000    0.000    0.000    0.000 
#
# Total GULP energy -892341.725517 kJ/mol
# GULP energy per Si atom -12393.635077 kJ/mol
# Density = 2.645580 g / cm^3
# Si number density = 26.516151 Si / 1000 Ang^3
#
#
#
# Elastic Constant Matrix: (Units=GPa)
#
#
# Indices 1 2 3 4 5 6 
#
# 1 94.8758 48.2140 40.3621 0.0000 0.0000 0.0000
# 2 48.2140 94.8768 40.3628 0.0000 0.0000 0.0000
# 3 40.3621 40.3628 85.8802 0.0000 0.0000 0.0000
# 4 0.0000 0.0000 0.0000 37.3993 0.0000 0.0000
# 5 0.0000 0.0000 0.0000 0.0000 37.3994 0.0000
# 6 0.0000 0.0000 0.0000 0.0000 0.0000 37.9182
#
#
#
# Elastic Compliance Matrix: (Units=1/GPa)
#
#
# Indices 1 2 3 4 5 6 
#
# 1 0.015470 -0.005960 -0.004470 0.000000 0.000000 0.000000
# 2 -0.005960 0.015470 -0.004470 0.000000 0.000000 0.000000
# 3 -0.004470 -0.004470 0.015845 0.000000 0.000000 0.000000
# 4 0.000000 0.000000 0.000000 0.026738 0.000000 0.000000
# 5 0.000000 0.000000 0.000000 0.000000 0.026738 0.000000
# 6 0.000000 0.000000 0.000000 0.000000 0.000000 0.026373
#
#
# Mechanical properties :
#
#
# Convention : Reuss Voigt Hill
#
# Bulk Modulus (GPa) = 58.86776 59.27895 59.07336
# Shear Modulus (GPa) = 30.84573 32.32297 31.58435
#
# Velocity S-wave (km/s) = 3.41439 3.49519 3.45503
# Velocity P-wave (km/s) = 6.14760 6.22036 6.18409
#
# Compressibility (1/GPa) = 0.01698723
#
# Stress axis : x y z
#
# Youngs Moduli (GPa) = 64.63959 64.63980 63.10957
#
# Poissons Ratio (x) = 0.38527 0.28207
# Poissons Ratio (y) = 0.38527 0.28208
# Poissons Ratio (z) = 0.28891 0.28892
#
# Static dielectric constant tensor:
#      x y z
#    x 4.765260 0.000000 0.000000 
#    y 0.000000 4.765240 0.000000 
#    z 0.000000 0.000000 4.725930 
# 
# 
# High freq. dielectric constant tensor:
#      x y z
#    x 2.069500 0.000000 0.000000 
#    y 0.000000 2.069500 0.000000 
#    z 0.000000 0.000000 2.055030 
# 
# From -- ./inp_files/2947.got.cif
#   From: 2010.03.12/outbox.cif.g09.slc.cpg/sg130_2_cif.got.tgz:2947.got - 2010.04.06 17:30:23.
