data_PCOD8315807
_publ_section_title
;
Structure prediction by ZEFSAII (Michael W. Deem and Ramdas Pophale) SiO2 
 PCOD8315807
Probable space group: P 42/M M C
;
_chemical_formula_sum "Si O2"
_cell_formula_units_Z 96
_cell_length_a 13.953798
_cell_length_b 13.953798
_cell_length_c 32.349412
_cell_angle_alpha 90.000000
_cell_angle_beta 90.000000
_cell_angle_gamma 90.000000
_cell_volume 6298.704795
_symmetry_space_group_name_H-M "P 42/M M C"
_symmetry_group_IT_number 131
_symmetry_cell_setting 'tetragonal'
loop_
_space_group_symop_operation_xyz
x,y,z
-x,-y,z
-y,x,1/2+z
y,-x,1/2+z
-x,y,-z
x,-y,-z
y,x,1/2-z
-y,-x,1/2-z
-x,-y,-z
x,y,-z
y,-x,1/2-z
-y,x,1/2-z
x,-y,z
-x,y,z
-y,-x,1/2+z
y,x,1/2+z
loop_
_atom_site_type_symbol
_atom_site_label
_atom_site_fract_x
_atom_site_fract_y
_atom_site_fract_z
Si Si1 0.387868 0.297486 0.123271
Si Si2 0.104376 0.612930 0.338749
Si Si3 0.777814 0.386439 0.829910
Si Si4 0.892128 0.613751 0.247139
Si Si5 0.387102 0.105409 0.407969
Si Si6 0.709255 0.387497 0.953223
O O1 0.500000 0.316094 0.131321
O O2 0.360321 0.184934 0.127670
O O3 0.329692 0.352990 0.159033
O O4 0.361115 0.330341 0.077170
O O5 0.095571 0.500000 0.334416
O O6 0.132611 0.652868 0.293079
O O7 0.000000 0.654299 0.352518
O O8 0.776293 0.500000 0.829607
O O9 0.815634 0.344730 0.786133
O O10 0.850456 0.348002 0.865161
O O11 0.885536 0.500000 0.245957
O O12 0.000000 0.645689 0.234848
O O13 0.500000 0.093572 0.405006
O O14 0.360579 0.179505 0.444674
O O15 0.340998 0.000000 0.416092
O O16 0.692650 0.500000 0.945227
O O17 0.683646 0.358687 0.000000
#
# Coordination Sequence:
#
# PCOD8315807 Si02
#       6
#    16  16  16  16  16  16
#     4  10  19  29  41  56  78 110 142 172 205 236
#     4   8  15  28  44  59  73  95 132 173 210 246
#     4   9  16  24  36  58  87 115 141 165 188 226
#     4   8  13  23  40  59  79 104 132 163 200 239
#     4   8  13  22  37  57  82 110 135 163 204 244
#     4   9  18  30  42  59  82 108 141 174 201 241
#
# _framework density 15.241228
#
# number of rings (size 3 to 8) (size 9 to 14) (size 15 to 20)
#    0.000    3.333    0.000    3.000    0.000    4.667 
#    0.000    2.500    0.000    1.500    0.000   11.667 
#    0.000   16.667    0.000   24.333    0.000    2.333 
#
# Total GULP energy -1189292.257792 kJ/mol
# GULP energy per Si atom -12388.461019 kJ/mol
# Density = 1.520654 g / cm^3
# Si number density = 15.241228 Si / 1000 Ang^3
#
#
#
# Elastic Constant Matrix: (Units=GPa)
#
#
# Indices 1 2 3 4 5 6 
#
# 1 67.9766 23.3755 43.2516 0.0000 0.0000 0.0000
# 2 23.3755 67.9766 43.2516 0.0000 0.0000 0.0000
# 3 43.2516 43.2516 97.6443 0.0000 0.0000 0.0000
# 4 0.0000 0.0000 0.0000 18.2855 0.0000 0.0000
# 5 0.0000 0.0000 0.0000 0.0000 18.2855 0.0000
# 6 0.0000 0.0000 0.0000 0.0000 0.0000 0.9773
#
#
#
# Elastic Compliance Matrix: (Units=1/GPa)
#
#
# Indices 1 2 3 4 5 6 
#
# 1 0.020638 -0.001783 -0.008352 0.000000 0.000000 0.000000
# 2 -0.001783 0.020638 -0.008352 0.000000 0.000000 0.000000
# 3 -0.008352 -0.008352 0.017640 0.000000 0.000000 0.000000
# 4 0.000000 0.000000 0.000000 0.054688 0.000000 0.000000
# 5 0.000000 0.000000 0.000000 0.000000 0.054688 0.000000
# 6 0.000000 0.000000 0.000000 0.000000 0.000000 1.023232
#
#
# Mechanical properties :
#
#
# Convention : Reuss Voigt Hill
#
# Bulk Modulus (GPa) = 45.57260 50.37277 47.97269
# Shear Modulus (GPa) = 4.04592 15.75760 9.90176
#
# Velocity S-wave (km/s) = 1.63106 3.21889 2.55163
# Velocity P-wave (km/s) = 5.78903 6.85106 6.34232
#
# Compressibility (1/GPa) = 0.02194301
#
# Stress axis : x y z
#
# Youngs Moduli (GPa) = 48.45398 48.45398 56.68843
#
# Poissons Ratio (x) = 0.08638 0.47346
# Poissons Ratio (y) = 0.08638 0.47346
# Poissons Ratio (z) = 0.40469 0.40469
#
# Static dielectric constant tensor:
#      x y z
#    x 2.848790 0.000000 0.000000 
#    y 0.000000 2.848790 0.000000 
#    z 0.000000 0.000000 3.010120 
# 
# 
# High freq. dielectric constant tensor:
#      x y z
#    x 1.553440 0.000000 0.000000 
#    y 0.000000 1.553440 0.000000 
#    z 0.000000 0.000000 1.580970 
# 
# From -- ./inp_files/13693.got.cif
#   From: 2010.03.12/outbox.cif.g09.slc.cpg/sg131_7_cif.got.tgz:13693.got - 2010.04.06 17:36:35.
