data_PCOD8315153
_publ_section_title
;
Structure prediction by ZEFSAII (Michael W. Deem and Ramdas Pophale) SiO2 
 PCOD8315153
Probable space group: P 4/N M M
;
_chemical_formula_sum "Si O2"
_cell_formula_units_Z 128
_cell_length_a 17.965226
_cell_length_b 17.965226
_cell_length_c 23.279181
_cell_angle_alpha 90.000000
_cell_angle_beta 90.000000
_cell_angle_gamma 90.000000
_cell_volume 7513.340425
_symmetry_space_group_name_H-M "P 4/N M M"
_symmetry_group_IT_number 129
_symmetry_cell_setting 'tetragonal'
loop_
_space_group_symop_operation_xyz
x,y,z
1/2-y,x,z
1/2-x,1/2-y,z
y,1/2-x,z
1/2+x,-y,-z
-x,1/2+y,-z
1/2+y,1/2+x,-z
-y,-x,-z
-x,-y,-z
1/2+y,-x,-z
1/2+x,1/2+y,-z
-y,1/2+x,-z
1/2-x,y,z
x,1/2-y,z
1/2-y,1/2-x,z
y,x,z
loop_
_atom_site_type_symbol
_atom_site_label
_atom_site_fract_x
_atom_site_fract_y
_atom_site_fract_z
Si Si1 0.888204 0.333611 0.336871
Si Si2 0.938925 0.439079 0.862702
Si Si3 0.335000 0.454174 0.933056
Si Si4 0.595165 0.335179 0.550808
Si Si5 0.163153 0.664887 0.213729
Si Si6 0.951151 0.834813 0.511913
Si Si7 0.454153 0.334986 0.066810
Si Si8 0.050082 0.167709 0.354951
O O1 0.870899 0.250000 0.358678
O O2 0.875415 0.388402 0.389627
O O3 0.838165 0.352514 0.281930
O O4 0.974749 0.340679 0.318292
O O5 0.893858 0.394113 0.814070
O O6 0.877485 0.480087 0.900879
O O7 0.999965 0.500036 0.838957
O O8 0.980167 0.377509 0.900644
O O9 0.250000 0.448128 0.910983
O O10 0.375102 0.375102 0.921280
O O11 0.337528 0.474433 0.999932
O O12 0.655677 0.344324 0.500000
O O13 0.588235 0.250000 0.566642
O O14 0.518373 0.367791 0.525503
O O15 0.250000 0.643925 0.200924
O O16 0.147432 0.750000 0.193332
O O17 0.936800 0.750000 0.496543
O O18 0.876653 0.876653 0.494151
O O19 0.970632 0.846407 0.578654
O O20 0.448153 0.250000 0.088862
O O21 0.375117 0.375117 0.078586
O O22 0.084524 0.250000 0.347477
O O23 0.110059 0.110059 0.330751
#
# Coordination Sequence:
#
# PCOD8315153 Si02
#       8
#    16  16  16  16  16  16  16  16
#     4  10  20  34  48  67  93 120 152 191 235 283
#     4  10  19  32  50  71  98 129 165 206 245 286
#     4   9  17  29  47  72 101 132 164 200 243 288
#     4  11  20  30  46  68  92 117 145 179 224 281
#     4  10  21  36  53  71  94 127 165 205 246 289
#     4   9  18  31  46  67  92 118 148 179 216 264
#     4   9  17  29  47  72 101 133 166 200 240 286
#     4   9  17  30  47  67  93 121 150 185 223 269
#
# _framework density 17.036365
#
# number of rings (size 3 to 8) (size 9 to 14) (size 15 to 20)
#    0.000    2.375    1.250    1.875    0.000    4.625 
#    0.000    2.500    0.000    0.000    0.000    5.250 
#    0.000    3.000    0.000    4.125    0.000    0.250 
#
# Total GULP energy -1586540.288296 kJ/mol
# GULP energy per Si atom -12394.846002 kJ/mol
# Density = 1.699759 g / cm^3
# Si number density = 17.036365 Si / 1000 Ang^3
#
#
#
# Elastic Constant Matrix: (Units=GPa)
#
#
# Indices 1 2 3 4 5 6 
#
# 1 96.4823 57.1794 31.6797 0.0000 0.0000 0.0000
# 2 57.1794 96.4836 31.6795 0.0000 0.0000 0.0000
# 3 31.6797 31.6795 43.4628 0.0000 0.0000 0.0000
# 4 0.0000 0.0000 0.0000 22.4790 0.0000 0.0000
# 5 0.0000 0.0000 0.0000 0.0000 22.4790 0.0000
# 6 0.0000 0.0000 0.0000 0.0000 0.0000 27.7920
#
#
#
# Elastic Compliance Matrix: (Units=1/GPa)
#
#
# Indices 1 2 3 4 5 6 
#
# 1 0.017374 -0.008069 -0.006782 0.000000 0.000000 0.000000
# 2 -0.008069 0.017373 -0.006781 0.000000 0.000000 0.000000
# 3 -0.006782 -0.006781 0.032894 0.000000 0.000000 0.000000
# 4 0.000000 0.000000 0.000000 0.044486 0.000000 0.000000
# 5 0.000000 0.000000 0.000000 0.000000 0.044486 0.000000
# 6 0.000000 0.000000 0.000000 0.000000 0.000000 0.035982
#
#
# Mechanical properties :
#
#
# Convention : Reuss Voigt Hill
#
# Bulk Modulus (GPa) = 41.02413 53.05619 47.04016
# Shear Modulus (GPa) = 20.49303 22.27602 21.38452
#
# Velocity S-wave (km/s) = 3.47205 3.61994 3.54676
# Velocity P-wave (km/s) = 6.34083 6.97728 6.66665
#
# Compressibility (1/GPa) = 0.02437590
#
# Stress axis : x y z
#
# Youngs Moduli (GPa) = 57.55829 57.55952 30.40043
#
# Poissons Ratio (x) = 0.46448 0.20617
# Poissons Ratio (y) = 0.46447 0.20616
# Poissons Ratio (z) = 0.39035 0.39033
#
# Static dielectric constant tensor:
#      x y z
#    x 3.288040 0.000000 0.000000 
#    y 0.000000 3.288040 0.000000 
#    z 0.000000 0.000000 2.907050 
# 
# 
# High freq. dielectric constant tensor:
#      x y z
#    x 1.661300 0.000000 0.000000 
#    y 0.000000 1.661300 0.000000 
#    z 0.000000 0.000000 1.628320 
# 
# From -- ./inp_files/7345.got.cif
#   From: 2010.03.12/outbox.cif.g09.slc.cpg/sg129_4_cif.got.tgz:7345.got - 2010.04.06 17:19:44.
