data_PCOD8315248
_publ_section_title
;
Structure prediction by ZEFSAII (Michael W. Deem and Ramdas Pophale) SiO2 
 PCOD8315248
Probable space group: P 4/N M M
;
_chemical_formula_sum "Si O2"
_cell_formula_units_Z 80
_cell_length_a 13.357176
_cell_length_b 13.357176
_cell_length_c 25.836519
_cell_angle_alpha 90.000000
_cell_angle_beta 90.000000
_cell_angle_gamma 90.000000
_cell_volume 4609.600594
_symmetry_space_group_name_H-M "P 4/N M M"
_symmetry_group_IT_number 129
_symmetry_cell_setting 'tetragonal'
loop_
_space_group_symop_operation_xyz
x,y,z
1/2-y,x,z
1/2-x,1/2-y,z
y,1/2-x,z
1/2+x,-y,-z
-x,1/2+y,-z
1/2+y,1/2+x,-z
-y,-x,-z
-x,-y,-z
1/2+y,-x,-z
1/2+x,1/2+y,-z
-y,1/2+x,-z
1/2-x,y,z
x,1/2-y,z
1/2-y,1/2-x,z
y,x,z
loop_
_atom_site_type_symbol
_atom_site_label
_atom_site_fract_x
_atom_site_fract_y
_atom_site_fract_z
Si Si1 0.470795 0.867076 0.752943
Si Si2 0.139056 0.869003 0.056407
Si Si3 0.138266 0.868582 0.649387
Si Si4 0.527172 0.367298 0.842327
Si Si5 0.867439 0.470496 0.545550
O O1 0.495559 0.750000 0.751282
O O2 0.419887 0.905507 0.700155
O O3 0.394233 0.889654 0.799559
O O4 0.574959 0.925042 0.761279
O O5 0.250000 0.914377 0.065924
O O6 0.146882 0.750000 0.056655
O O7 0.066314 0.905260 0.101917
O O8 0.096836 0.903165 0.000000
O O9 0.250000 0.915336 0.648951
O O10 0.146531 0.750000 0.649631
O O11 0.078654 0.904735 0.598956
O O12 0.505424 0.250000 0.841434
O O13 0.423662 0.423662 0.829881
O O14 0.892590 0.392590 0.500000
O O15 0.750000 0.494189 0.545945
O O16 0.925085 0.574916 0.536995
#
# Coordination Sequence:
#
# PCOD8315248 Si02
#       5
#    16  16  16  16  16
#     4  10  20  33  50  73  99 127 160 197 240 290
#     4   8  14  26  45  68  92 117 148 190 238 285
#     4   9  17  30  49  71  95 125 160 197 235 275
#     4  10  20  32  47  68  93 124 162 201 241 284
#     4  10  20  33  50  73 100 131 168 208 251 299
#
# _framework density 17.355084000000002
#
# number of rings (size 3 to 8) (size 9 to 14) (size 15 to 20)
#    0.000    2.600    0.000    3.000    0.000    4.000 
#    0.000    0.000    0.000    3.600    0.000    0.000 
#    0.000   19.200    0.000    0.000    0.000    0.000 
#
# Total GULP energy -991910.099661 kJ/mol
# GULP energy per Si atom -12398.876246 kJ/mol
# Density = 1.731558 g / cm^3
# Si number density = 17.355084 Si / 1000 Ang^3
#
#
#
# Elastic Constant Matrix: (Units=GPa)
#
#
# Indices 1 2 3 4 5 6 
#
# 1 76.0986 33.0242 32.4119 0.0000 0.0000 0.0000
# 2 33.0242 76.0985 32.4119 0.0000 0.0000 0.0000
# 3 32.4119 32.4119 139.1012 0.0000 0.0000 0.0000
# 4 0.0000 0.0000 0.0000 23.1679 0.0000 0.0000
# 5 0.0000 0.0000 0.0000 0.0000 23.1679 0.0000
# 6 0.0000 0.0000 0.0000 0.0000 0.0000 14.9020
#
#
#
# Elastic Compliance Matrix: (Units=1/GPa)
#
#
# Indices 1 2 3 4 5 6 
#
# 1 0.016926 -0.006290 -0.002478 0.000000 0.000000 0.000000
# 2 -0.006290 0.016926 -0.002478 0.000000 0.000000 0.000000
# 3 -0.002478 -0.002478 0.008344 0.000000 0.000000 0.000000
# 4 0.000000 0.000000 0.000000 0.043163 0.000000 0.000000
# 5 0.000000 0.000000 0.000000 0.000000 0.043163 0.000000
# 6 0.000000 0.000000 0.000000 0.000000 0.000000 0.067105
#
#
# Mechanical properties :
#
#
# Convention : Reuss Voigt Hill
#
# Bulk Modulus (GPa) = 50.75352 54.11049 52.43200
# Shear Modulus (GPa) = 22.25312 25.14425 23.69868
#
# Velocity S-wave (km/s) = 3.58470 3.81046 3.69930
# Velocity P-wave (km/s) = 6.81477 7.11376 6.96587
#
# Compressibility (1/GPa) = 0.01970307
#
# Stress axis : x y z
#
# Youngs Moduli (GPa) = 59.08094 59.08081 119.84708
#
# Poissons Ratio (x) = 0.37160 0.29702
# Poissons Ratio (y) = 0.37160 0.29702
# Poissons Ratio (z) = 0.14642 0.14642
#
# Static dielectric constant tensor:
#      x y z
#    x 2.983020 0.000000 0.000000 
#    y 0.000000 2.983030 0.000000 
#    z 0.000000 0.000000 3.599270 
# 
# 
# High freq. dielectric constant tensor:
#      x y z
#    x 1.649870 0.000000 0.000000 
#    y 0.000000 1.649870 0.000000 
#    z 0.000000 0.000000 1.692490 
# 
# From -- ./inp_files/6317.got.cif
#   From: 2010.03.12/outbox.cif.g09.slc.cpg/sg129_4_cif.got.tgz:6317.got - 2010.04.06 17:19:44.
