data_PCOD8315864
_publ_section_title
;
Structure prediction by ZEFSAII (Michael W. Deem and Ramdas Pophale) SiO2 
 PCOD8315864
Probable space group: P 42/M M C
;
_chemical_formula_sum "Si O2"
_cell_formula_units_Z 104
_cell_length_a 28.265262
_cell_length_b 28.265262
_cell_length_c 8.075627
_cell_angle_alpha 90.000000
_cell_angle_beta 90.000000
_cell_angle_gamma 90.000000
_cell_volume 6451.820591
_symmetry_space_group_name_H-M "P 42/M M C"
_symmetry_group_IT_number 131
_symmetry_cell_setting 'tetragonal'
loop_
_space_group_symop_operation_xyz
x,y,z
-x,-y,z
-y,x,1/2+z
y,-x,1/2+z
-x,y,-z
x,-y,-z
y,x,1/2-z
-y,-x,1/2-z
-x,-y,-z
x,y,-z
y,-x,1/2-z
-y,x,1/2-z
x,-y,z
-x,y,z
-y,-x,1/2+z
y,x,1/2+z
loop_
_atom_site_type_symbol
_atom_site_label
_atom_site_fract_x
_atom_site_fract_y
_atom_site_fract_z
Si Si1 0.193586 0.266251 0.805805
Si Si2 0.097284 0.779291 0.803449
Si Si3 0.114862 0.553692 0.187963
Si Si4 0.948312 0.555380 0.500000
Si Si5 0.052717 0.874959 0.195397
Si Si6 0.852330 0.642895 0.694308
Si Si7 0.051746 0.688450 0.693336
O O1 0.242938 0.242938 0.750000
O O2 0.149992 0.234150 0.739663
O O3 0.188916 0.319333 0.732767
O O4 0.192517 0.270649 0.000000
O O5 0.084158 0.831310 0.736590
O O6 0.058802 0.744014 0.726383
O O7 0.094421 0.775939 0.000000
O O8 0.132684 0.500000 0.223331
O O9 0.076970 0.570185 0.328088
O O10 0.157141 0.592180 0.213666
O O11 0.094407 0.556415 0.000000
O O12 0.954377 0.500000 0.500000
O O13 0.000000 0.579965 0.500000
O O14 0.076081 0.923920 0.250000
O O15 0.000000 0.872750 0.271232
O O16 0.049940 0.872119 0.000000
O O17 0.854548 0.634065 0.500000
O O18 0.902881 0.661250 0.770207
O O19 0.051751 0.677724 0.500000
O O20 0.000000 0.673657 0.767677
#
# Coordination Sequence:
#
# PCOD8315864 Si02
#       7
#    16  16  16   8  16  16  16
#     4  10  19  31  48  70  94 117 144 176 217 267
#     4   9  18  32  49  66  84 105 130 161 197 245
#     4  10  20  34  51  70  92 121 160 201 240 281
#     4   9  18  32  48  66  90 120 154 196 242 282
#     4  10  21  35  49  64  80  98 121 150 186 231
#     4  10  19  32  48  68  92 122 152 187 230 274
#     4   9  18  30  44  64  88 112 138 170 208 254
#
# _framework density 16.119482000000001
#
# number of rings (size 3 to 8) (size 9 to 14) (size 15 to 20)
#    0.000    2.385    0.769    1.846    0.000    4.154 
#    0.000    2.308    0.000    0.000    0.000    0.000 
#    0.000    0.000    0.000    0.000    0.000    0.000 
#
# Total GULP energy -1288761.885872 kJ/mol
# GULP energy per Si atom -12391.941210 kJ/mol
# Density = 1.608279 g / cm^3
# Si number density = 16.119482 Si / 1000 Ang^3
#
#
#
# Elastic Constant Matrix: (Units=GPa)
#
#
# Indices 1 2 3 4 5 6 
#
# 1 97.4422 24.3657 21.6074 0.0000 0.0000 0.0000
# 2 24.3657 97.4362 21.6130 0.0000 0.0000 0.0000
# 3 21.6074 21.6130 56.7364 0.0000 0.0000 0.0000
# 4 0.0000 0.0000 0.0000 20.8421 0.0000 0.0000
# 5 0.0000 0.0000 0.0000 0.0000 20.8423 0.0000
# 6 0.0000 0.0000 0.0000 0.0000 0.0000 9.1111
#
#
#
# Elastic Compliance Matrix: (Units=1/GPa)
#
#
# Indices 1 2 3 4 5 6 
#
# 1 0.011588 -0.002096 -0.003615 0.000000 0.000000 0.000000
# 2 -0.002096 0.011589 -0.003617 0.000000 0.000000 0.000000
# 3 -0.003615 -0.003617 0.020380 0.000000 0.000000 0.000000
# 4 0.000000 0.000000 0.000000 0.047980 0.000000 0.000000
# 5 0.000000 0.000000 0.000000 0.000000 0.047979 0.000000
# 6 0.000000 0.000000 0.000000 0.000000 0.000000 0.109756
#
#
# Mechanical properties :
#
#
# Convention : Reuss Voigt Hill
#
# Bulk Modulus (GPa) = 40.15650 42.97633 41.56641
# Shear Modulus (GPa) = 18.10094 22.42768 20.26431
#
# Velocity S-wave (km/s) = 3.35464 3.73411 3.54945
# Velocity P-wave (km/s) = 6.32224 6.73130 6.52997
#
# Compressibility (1/GPa) = 0.02490257
#
# Stress axis : x y z
#
# Youngs Moduli (GPa) = 86.29493 86.28502 49.06839
#
# Poissons Ratio (x) = 0.18085 0.17737
# Poissons Ratio (y) = 0.18088 0.17746
# Poissons Ratio (z) = 0.31194 0.31206
#
# Static dielectric constant tensor:
#      x y z
#    x 2.313460 0.000000 0.000000 
#    y 0.000000 2.313490 0.000000 
#    z 0.000000 0.000000 3.010000 
# 
# 
# High freq. dielectric constant tensor:
#      x y z
#    x 1.590690 0.000000 0.000000 
#    y 0.000000 1.590690 0.000000 
#    z 0.000000 0.000000 1.624400 
# 
# From -- ./inp_files/2573.got.cif
#   From: 2010.03.12/outbox.cif.g09.slc.cpg/sg131_2_cif.got.tgz:2573.got - 2010.04.06 17:36:35.
