data_PCOD8315241
_publ_section_title
;
Structure prediction by ZEFSAII (Michael W. Deem and Ramdas Pophale) SiO2 
 PCOD8315241
Probable space group: P 4/N M M
;
_chemical_formula_sum "Si O2"
_cell_formula_units_Z 80
_cell_length_a 13.324283
_cell_length_b 13.324283
_cell_length_c 25.848452
_cell_angle_alpha 90.000000
_cell_angle_beta 90.000000
_cell_angle_gamma 90.000000
_cell_volume 4589.044150
_symmetry_space_group_name_H-M "P 4/N M M"
_symmetry_group_IT_number 129
_symmetry_cell_setting 'tetragonal'
loop_
_space_group_symop_operation_xyz
x,y,z
1/2-y,x,z
1/2-x,1/2-y,z
y,1/2-x,z
1/2+x,-y,-z
-x,1/2+y,-z
1/2+y,1/2+x,-z
-y,-x,-z
-x,-y,-z
1/2+y,-x,-z
1/2+x,1/2+y,-z
-y,1/2+x,-z
1/2-x,y,z
x,1/2-y,z
1/2-y,1/2-x,z
y,x,z
loop_
_atom_site_type_symbol
_atom_site_label
_atom_site_fract_x
_atom_site_fract_y
_atom_site_fract_z
Si Si1 0.368305 0.528084 0.640484
Si Si2 0.630659 0.138757 0.855100
Si Si3 0.361118 0.869187 0.257573
Si Si4 0.632667 0.032349 0.548178
Si Si5 0.366986 0.527064 0.043793
O O1 0.250000 0.510591 0.636509
O O2 0.422386 0.422386 0.628536
O O3 0.403547 0.564704 0.697096
O O4 0.403085 0.611463 0.599541
O O5 0.750000 0.146331 0.856083
O O6 0.584918 0.250000 0.863879
O O7 0.597357 0.095319 0.798753
O O8 0.593198 0.067176 0.900933
O O9 0.250000 0.914535 0.267838
O O10 0.352704 0.750000 0.256672
O O11 0.599931 0.099931 0.500000
O O12 0.750000 0.007046 0.544577
O O13 0.572709 0.927292 0.548848
O O14 0.250000 0.503194 0.044642
O O15 0.424094 0.424094 0.030790
O O16 0.390143 0.609858 0.000000
#
# Coordination Sequence:
#
# PCOD8315241 Si02
#       5
#    16  16  16  16  16
#     4  10  20  32  47  69  96 128 166 204 242 283
#     4   8  14  26  45  68  92 117 148 189 233 275
#     4   8  14  26  45  68  92 118 151 193 238 279
#     4  10  21  36  54  77 102 128 160 196 236 283
#     4  10  20  32  47  68  92 120 154 190 231 278
#
# _framework density 17.432822999999999
#
# number of rings (size 3 to 8) (size 9 to 14) (size 15 to 20)
#    0.000    2.800    0.000    3.000    0.000    4.600 
#    0.000    0.000    0.000    3.600    0.000    0.000 
#    0.000    9.600    0.000    0.000    0.000    0.000 
#
# Total GULP energy -991667.070621 kJ/mol
# GULP energy per Si atom -12395.838383 kJ/mol
# Density = 1.739315 g / cm^3
# Si number density = 17.432823 Si / 1000 Ang^3
#
#
#
# Elastic Constant Matrix: (Units=GPa)
#
#
# Indices 1 2 3 4 5 6 
#
# 1 81.1105 36.9226 36.6474 0.0000 0.0000 0.0000
# 2 36.9226 81.1095 36.6475 0.0000 0.0000 0.0000
# 3 36.6474 36.6475 133.0505 0.0000 0.0000 0.0000
# 4 0.0000 0.0000 0.0000 20.4175 0.0000 0.0000
# 5 0.0000 0.0000 0.0000 0.0000 20.4173 0.0000
# 6 0.0000 0.0000 0.0000 0.0000 0.0000 13.7305
#
#
#
# Elastic Compliance Matrix: (Units=1/GPa)
#
#
# Indices 1 2 3 4 5 6 
#
# 1 0.016426 -0.006205 -0.002815 0.000000 0.000000 0.000000
# 2 -0.006205 0.016426 -0.002815 0.000000 0.000000 0.000000
# 3 -0.002815 -0.002815 0.009067 0.000000 0.000000 0.000000
# 4 0.000000 0.000000 0.000000 0.048978 0.000000 0.000000
# 5 0.000000 0.000000 0.000000 0.000000 0.048978 0.000000
# 6 0.000000 0.000000 0.000000 0.000000 0.000000 0.072831
#
#
# Mechanical properties :
#
#
# Convention : Reuss Voigt Hill
#
# Bulk Modulus (GPa) = 54.80349 57.30062 56.05205
# Shear Modulus (GPa) = 20.62216 23.24991 21.93603
#
# Velocity S-wave (km/s) = 3.44314 3.65593 3.55113
# Velocity P-wave (km/s) = 6.87838 7.12473 7.00264
#
# Compressibility (1/GPa) = 0.01824701
#
# Stress axis : x y z
#
# Youngs Moduli (GPa) = 60.88094 60.88007 110.29340
#
# Poissons Ratio (x) = 0.37778 0.31048
# Poissons Ratio (y) = 0.37778 0.31049
# Poissons Ratio (z) = 0.17138 0.17139
#
# Static dielectric constant tensor:
#      x y z
#    x 2.953700 0.000000 0.000000 
#    y 0.000000 2.953710 0.000000 
#    z 0.000000 0.000000 3.740170 
# 
# 
# High freq. dielectric constant tensor:
#      x y z
#    x 1.648480 0.000000 0.000000 
#    y 0.000000 1.648480 0.000000 
#    z 0.000000 0.000000 1.698190 
# 
# From -- ./inp_files/6925.got.cif
#   From: 2010.03.12/outbox.cif.g09.slc.cpg/sg129_4_cif.got.tgz:6925.got - 2010.04.06 17:19:44.
