data_PCOD8315749
_publ_section_title
;
Structure prediction by ZEFSAII (Michael W. Deem and Ramdas Pophale) SiO2 
 PCOD8315749
Probable space group: P 42/M M C
;
_chemical_formula_sum "Si O2"
_cell_formula_units_Z 88
_cell_length_a 17.263739
_cell_length_b 17.263739
_cell_length_c 15.169800
_cell_angle_alpha 90.000000
_cell_angle_beta 90.000000
_cell_angle_gamma 90.000000
_cell_volume 4521.156893
_symmetry_space_group_name_H-M "P 42/M M C"
_symmetry_group_IT_number 131
_symmetry_cell_setting 'tetragonal'
loop_
_space_group_symop_operation_xyz
x,y,z
-x,-y,z
-y,x,1/2+z
y,-x,1/2+z
-x,y,-z
x,-y,-z
y,x,1/2-z
-y,-x,1/2-z
-x,-y,-z
x,y,-z
y,-x,1/2-z
-y,x,1/2-z
x,-y,z
-x,y,z
-y,-x,1/2+z
y,x,1/2+z
loop_
_atom_site_type_symbol
_atom_site_label
_atom_site_fract_x
_atom_site_fract_y
_atom_site_fract_z
Si Si1 0.000000 0.911163 0.605135
Si Si2 0.833722 0.141121 0.604156
Si Si3 0.413688 0.163192 0.778405
Si Si4 0.414036 0.762373 0.597725
Si Si5 0.270105 0.000000 0.395319
Si Si6 0.701871 0.750655 0.899340
Si Si7 0.409854 0.000000 0.269380
O O1 0.921965 0.868249 0.641063
O O2 0.000000 0.909971 0.500000
O O3 0.000000 0.000000 0.638530
O O4 0.837184 0.135543 0.500000
O O5 0.778329 0.073542 0.639741
O O6 0.793576 0.220678 0.634424
O O7 0.500000 0.181306 0.809731
O O8 0.405166 0.173138 0.672605
O O9 0.364140 0.222109 0.834392
O O10 0.392184 0.073506 0.793776
O O11 0.405658 0.801029 0.500000
O O12 0.500000 0.722259 0.605470
O O13 0.342826 0.702961 0.609622
O O14 0.279625 0.000000 0.500000
O O15 0.355513 0.000000 0.354697
O O16 0.683827 0.774737 0.000000
O O17 0.500000 0.000000 0.300756
#
# Coordination Sequence:
#
# PCOD8315749 Si02
#       7
#     8  16  16  16   8  16   8
#     4   9  14  25  44  67 101 142 182 226 273 315
#     4   9  17  28  46  75 105 138 180 223 269 323
#     4  10  21  37  55  76 108 147 185 227 275 323
#     4   9  18  34  57  84 113 142 173 219 280 341
#     4  10  18  30  49  75 108 137 167 215 277 335
#     4  10  20  34  55  83 110 140 186 229 267 328
#     4  10  22  36  49  70 100 138 184 228 273 324
#
# _framework density 19.464044999999999
#
# number of rings (size 3 to 8) (size 9 to 14) (size 15 to 20)
#    0.000    2.455    0.909    1.636    0.000    3.455 
#    0.000    3.182    0.000    2.182    0.000    5.091 
#    0.000    0.000    0.000    0.000    0.000    0.000 
#
# Total GULP energy -1090469.974096 kJ/mol
# GULP energy per Si atom -12391.704251 kJ/mol
# Density = 1.941974 g / cm^3
# Si number density = 19.464045 Si / 1000 Ang^3
#
#
#
# Elastic Constant Matrix: (Units=GPa)
#
#
# Indices 1 2 3 4 5 6 
#
# 1 134.6445 66.5944 41.8406 0.0000 0.0000 0.0000
# 2 66.5944 134.6445 41.8406 0.0000 0.0000 0.0000
# 3 41.8406 41.8406 54.6769 0.0000 0.0000 0.0000
# 4 0.0000 0.0000 0.0000 16.1873 0.0000 0.0000
# 5 0.0000 0.0000 0.0000 0.0000 16.1873 0.0000
# 6 0.0000 0.0000 0.0000 0.0000 0.0000 22.2237
#
#
#
# Elastic Compliance Matrix: (Units=1/GPa)
#
#
# Indices 1 2 3 4 5 6 
#
# 1 0.010992 -0.003703 -0.005577 0.000000 0.000000 0.000000
# 2 -0.003703 0.010992 -0.005577 0.000000 0.000000 0.000000
# 3 -0.005577 -0.005577 0.026825 0.000000 0.000000 0.000000
# 4 0.000000 0.000000 0.000000 0.061777 0.000000 0.000000
# 5 0.000000 0.000000 0.000000 0.000000 0.061777 0.000000
# 6 0.000000 0.000000 0.000000 0.000000 0.000000 0.044997
#
#
# Mechanical properties :
#
#
# Convention : Reuss Voigt Hill
#
# Bulk Modulus (GPa) = 52.37612 69.39075 60.88344
# Shear Modulus (GPa) = 19.72855 22.49900 21.11378
#
# Velocity S-wave (km/s) = 3.18715 3.40358 3.29714
# Velocity P-wave (km/s) = 6.36486 7.15360 6.77072
#
# Compressibility (1/GPa) = 0.01909267
#
# Stress axis : x y z
#
# Youngs Moduli (GPa) = 90.97729 90.97729 37.27837
#
# Poissons Ratio (x) = 0.33692 0.20791
# Poissons Ratio (y) = 0.33692 0.20791
# Poissons Ratio (z) = 0.50741 0.50741
#
# Static dielectric constant tensor:
#      x y z
#    x 3.672240 0.000000 0.000000 
#    y 0.000000 3.672240 0.000000 
#    z 0.000000 0.000000 3.259090 
# 
# 
# High freq. dielectric constant tensor:
#      x y z
#    x 1.753500 0.000000 0.000000 
#    y 0.000000 1.753500 0.000000 
#    z 0.000000 0.000000 1.736290 
# 
# From -- ./inp_files/5942.got.cif
#   From: 2010.03.12/outbox.cif.g09.slc.cpg/sg131_3_cif.got.tgz:5942.got - 2010.04.06 17:36:35.
