data_PCOD8315158
_publ_section_title
;
Structure prediction by ZEFSAII (Michael W. Deem and Ramdas Pophale) SiO2 
 PCOD8315158
Probable space group: P 4/N M M
;
_chemical_formula_sum "Si O2"
_cell_formula_units_Z 64
_cell_length_a 19.751679
_cell_length_b 19.751679
_cell_length_c 9.779826
_cell_angle_alpha 90.000000
_cell_angle_beta 90.000000
_cell_angle_gamma 90.000000
_cell_volume 3815.392010
_symmetry_space_group_name_H-M "P 4/N M M"
_symmetry_group_IT_number 129
_symmetry_cell_setting 'tetragonal'
loop_
_space_group_symop_operation_xyz
x,y,z
1/2-y,x,z
1/2-x,1/2-y,z
y,1/2-x,z
1/2+x,-y,-z
-x,1/2+y,-z
1/2+y,1/2+x,-z
-y,-x,-z
-x,-y,-z
1/2+y,-x,-z
1/2+x,1/2+y,-z
-y,1/2+x,-z
1/2-x,y,z
x,1/2-y,z
1/2-y,1/2-x,z
y,x,z
loop_
_atom_site_type_symbol
_atom_site_label
_atom_site_fract_x
_atom_site_fract_y
_atom_site_fract_z
Si Si1 0.937966 0.670772 0.325775
Si Si2 0.396828 0.993194 0.426886
Si Si3 0.054920 0.673017 0.130966
Si Si4 0.573578 0.172048 0.176949
O O1 0.923355 0.750000 0.310867
O O2 0.867591 0.632410 0.300539
O O3 0.967351 0.654337 0.474616
O O4 0.991485 0.642835 0.213916
O O5 0.425184 0.925184 0.500000
O O6 0.353822 0.977491 0.292107
O O7 0.460252 0.039749 0.384170
O O8 0.064626 0.750000 0.174511
O O9 0.125354 0.639700 0.176385
O O10 0.037845 0.664746 0.970698
O O11 0.594666 0.250000 0.204651
#
# Coordination Sequence:
#
# PCOD8315158 Si02
#       4
#    16  16  16  16
#     4  10  20  35  54  75 102 133 167 210 253 297
#     4  10  19  32  50  74 100 129 165 205 252 300
#     4   9  19  33  49  72 101 133 168 206 249 297
#     4  10  19  32  51  73  99 133 170 207 248 297
#
# _framework density 16.774159999999998
#
# number of rings (size 3 to 8) (size 9 to 14) (size 15 to 20)
#    0.000    2.250    2.500    0.750    0.000    1.750 
#    0.000    5.000    0.000    0.000    0.000    0.000 
#    0.000    6.000    0.000    0.000    0.000    0.000 
#
# Total GULP energy -793571.889672 kJ/mol
# GULP energy per Si atom -12399.560776 kJ/mol
# Density = 1.673598 g / cm^3
# Si number density = 16.774160 Si / 1000 Ang^3
#
#
#
# Elastic Constant Matrix: (Units=GPa)
#
#
# Indices 1 2 3 4 5 6 
#
# 1 95.1322 52.6081 51.3139 0.0000 0.0000 0.0000
# 2 52.6081 95.1322 51.3139 0.0000 0.0000 0.0000
# 3 51.3139 51.3139 101.8462 0.0000 0.0000 0.0000
# 4 0.0000 0.0000 0.0000 25.6085 0.0000 0.0000
# 5 0.0000 0.0000 0.0000 0.0000 25.6085 0.0000
# 6 0.0000 0.0000 0.0000 0.0000 0.0000 24.3247
#
#
#
# Elastic Compliance Matrix: (Units=1/GPa)
#
#
# Indices 1 2 3 4 5 6 
#
# 1 0.016965 -0.006551 -0.005247 0.000000 0.000000 0.000000
# 2 -0.006551 0.016965 -0.005247 0.000000 0.000000 0.000000
# 3 -0.005247 -0.005247 0.015106 0.000000 0.000000 0.000000
# 4 0.000000 0.000000 0.000000 0.039050 0.000000 0.000000
# 5 0.000000 0.000000 0.000000 0.000000 0.039050 0.000000
# 6 0.000000 0.000000 0.000000 0.000000 0.000000 0.041110
#
#
# Mechanical properties :
#
#
# Convention : Reuss Voigt Hill
#
# Bulk Modulus (GPa) = 66.90894 66.95360 66.93127
# Shear Modulus (GPa) = 24.11785 24.23330 24.17557
#
# Velocity S-wave (km/s) = 3.79594 3.80502 3.80048
# Velocity P-wave (km/s) = 7.69331 7.70101 7.69716
#
# Compressibility (1/GPa) = 0.01494569
#
# Stress axis : x y z
#
# Youngs Moduli (GPa) = 58.94620 58.94620 66.20094
#
# Poissons Ratio (x) = 0.38618 0.34733
# Poissons Ratio (y) = 0.38618 0.34733
# Poissons Ratio (z) = 0.30926 0.30926
#
# Static dielectric constant tensor:
#      x y z
#    x 3.086280 0.000000 0.000000 
#    y 0.000000 3.086280 0.000000 
#    z 0.000000 0.000000 3.255230 
# 
# 
# High freq. dielectric constant tensor:
#      x y z
#    x 1.639310 0.000000 0.000000 
#    y 0.000000 1.639310 0.000000 
#    z 0.000000 0.000000 1.654800 
# 
# From -- ./inp_files/2047.got.cif
#   From: 2010.03.12/outbox.cif.g09.slc.cpg/sg129_2_cif.got.tgz:2047.got - 2010.04.06 17:19:44.
