data_PCOD8315793
_publ_section_title
;
Structure prediction by ZEFSAII (Michael W. Deem and Ramdas Pophale) SiO2 
 PCOD8315793
Probable space group: P 42/M M C
;
_chemical_formula_sum "Si O2"
_cell_formula_units_Z 48
_cell_length_a 9.986312
_cell_length_b 9.986312
_cell_length_c 27.559035
_cell_angle_alpha 90.000000
_cell_angle_beta 90.000000
_cell_angle_gamma 90.000000
_cell_volume 2748.364102
_symmetry_space_group_name_H-M "P 42/M M C"
_symmetry_group_IT_number 131
_symmetry_cell_setting 'tetragonal'
loop_
_space_group_symop_operation_xyz
x,y,z
-x,-y,z
-y,x,1/2+z
y,-x,1/2+z
-x,y,-z
x,-y,-z
y,x,1/2-z
-y,-x,1/2-z
-x,-y,-z
x,y,-z
y,-x,1/2-z
-y,x,1/2-z
x,-y,z
-x,y,z
-y,-x,1/2+z
y,x,1/2+z
loop_
_atom_site_type_symbol
_atom_site_label
_atom_site_fract_x
_atom_site_fract_y
_atom_site_fract_z
Si Si1 0.500000 0.780896 0.703666
Si Si2 0.000000 0.000000 0.750000
Si Si3 0.775345 0.000000 0.166767
Si Si4 0.500000 0.500000 0.750000
Si Si5 0.500000 0.160400 0.554641
Si Si6 0.000000 0.500000 0.717403
Si Si7 0.844866 0.280637 0.872446
O O1 0.500000 0.624844 0.714234
O O2 0.364489 0.818086 0.676010
O O3 0.500000 0.863914 0.752649
O O4 0.000000 0.127843 0.714116
O O5 0.625351 0.000000 0.183091
O O6 0.789642 0.130744 0.132795
O O7 0.500000 0.216484 0.500000
O O8 0.634113 0.214813 0.582037
O O9 0.500000 0.000000 0.555919
O O10 0.000000 0.264227 0.881013
#
# Coordination Sequence:
#
# PCOD8315793 Si02
#       7
#     8   2   8   2   8   4  16
#     4  11  20  36  47  69  96 146 166 225 249 292
#     4  12  20  32  52  72 106 144 192 196 256 316
#     4  12  22  32  49  79 100 144 170 221 249 304
#     4  12  24  32  48  72 106 128 196 216 252 292
#     4   8  16  31  56  81 101 131 165 212 270 326
#     4  12  22  34  50  72 108 138 194 204 256 306
#     4  10  18  34  53  72 106 133 172 210 267 313
#
# _framework density 17.464934
#
# number of rings (size 3 to 8) (size 9 to 14) (size 15 to 20)
#    0.000    1.500    3.333    5.000    0.000    0.000 
#    0.000    0.833    0.000    4.000    0.000   22.167 
#    0.000    0.000    0.000    0.000    0.000    0.000 
#
# Total GULP energy -594975.147651 kJ/mol
# GULP energy per Si atom -12395.315576 kJ/mol
# Density = 1.742518 g / cm^3
# Si number density = 17.464934 Si / 1000 Ang^3
#
#
#
# Elastic Constant Matrix: (Units=GPa)
#
#
# Indices 1 2 3 4 5 6 
#
# 1 -80.1593 244.6251 54.6226 0.0000 0.0000 0.0000
# 2 244.6251 -80.1593 54.6226 0.0000 0.0000 0.0000
# 3 54.6226 54.6226 113.5571 0.0000 0.0000 0.0000
# 4 0.0000 0.0000 0.0000 6.5602 0.0000 0.0000
# 5 0.0000 0.0000 0.0000 0.0000 6.5602 0.0000
# 6 0.0000 0.0000 0.0000 0.0000 0.0000 -408.0281
#
#
#
# Elastic Compliance Matrix: (Units=1/GPa)
#
#
# Indices 1 2 3 4 5 6 
#
# 1 0.002928 0.006007 -0.004298 0.000000 0.000000 0.000000
# 2 0.006007 0.002928 -0.004298 0.000000 0.000000 0.000000
# 3 -0.004298 -0.004298 0.012941 0.000000 0.000000 0.000000
# 4 0.000000 0.000000 0.000000 0.152435 0.000000 0.000000
# 5 0.000000 0.000000 0.000000 0.000000 0.152435 0.000000
# 6 0.000000 0.000000 0.000000 0.000000 0.000000 -0.002451
#
#
# Mechanical properties :
#
#
# Convention : Reuss Voigt Hill
#
# Bulk Modulus (GPa) = 73.42439 73.44209 73.43324
# Shear Modulus (GPa) = 15.10877 -105.69032 -45.29077
#
# Velocity S-wave (km/s) = 2.94444 -7.78763 -5.09791
# Velocity P-wave (km/s) = 7.32748 6.22257 2.73601
#
# Compressibility (1/GPa) = 0.01361945
#
# Stress axis : x y z
#
# Youngs Moduli (GPa) = 341.51838 341.51838 77.27449
#
# Poissons Ratio (x) = -2.05152 0.33212
# Poissons Ratio (y) = -2.05152 0.33212
# Poissons Ratio (z) = 1.46783 1.46783
#
# Static dielectric constant tensor:
#      x y z
#    x 3.328940 0.000000 0.000000 
#    y 0.000000 3.328940 0.000000 
#    z 0.000000 0.000000 3.809610 
# 
# 
# High freq. dielectric constant tensor:
#      x y z
#    x 1.672960 0.000000 0.000000 
#    y 0.000000 1.672960 0.000000 
#    z 0.000000 0.000000 1.651060 
# 
# From -- ./inp_files/13080.got.cif
#   From: 2010.03.12/outbox.cif.g09.slc.cpg/sg131_7_cif.got.tgz:13080.got - 2010.04.06 17:36:35.
