data_PCOD8315526
_publ_section_title
;
Structure prediction by ZEFSAII (Michael W. Deem and Ramdas Pophale) SiO2 
 PCOD8315526
Probable space group: P 4/N C C
;
_chemical_formula_sum "Si O2"
_cell_formula_units_Z 96
_cell_length_a 16.642477
_cell_length_b 16.642477
_cell_length_c 18.199163
_cell_angle_alpha 90.000000
_cell_angle_beta 90.000000
_cell_angle_gamma 90.000000
_cell_volume 5040.659315
_symmetry_space_group_name_H-M "P 4/N C C"
_symmetry_group_IT_number 130
_symmetry_cell_setting 'tetragonal'
loop_
_space_group_symop_operation_xyz
x,y,z
1/2-y,x,z
1/2-x,1/2-y,z
y,1/2-x,z
1/2+x,-y,1/2-z
-x,1/2+y,1/2-z
1/2+y,1/2+x,1/2-z
-y,-x,1/2-z
-x,-y,-z
1/2+y,-x,-z
1/2+x,1/2+y,-z
-y,1/2+x,-z
1/2-x,y,1/2+z
x,1/2-y,1/2+z
1/2-y,1/2-x,1/2+z
y,x,1/2+z
loop_
_atom_site_type_symbol
_atom_site_label
_atom_site_fract_x
_atom_site_fract_y
_atom_site_fract_z
Si Si1 0.630688 0.293810 0.995817
Si Si2 0.007611 0.695941 0.378909
Si Si3 0.352267 0.998363 0.892713
Si Si4 0.458170 0.828428 0.766263
Si Si5 0.622320 0.716380 0.991106
Si Si6 0.015522 0.480134 0.669444
O O1 0.569727 0.277972 0.060498
O O2 0.705299 0.342442 0.029909
O O3 0.590369 0.340768 0.927763
O O4 0.036625 0.742283 0.305669
O O5 0.918594 0.714299 0.410330
O O6 0.010196 0.600706 0.369535
O O7 0.313090 0.000794 0.811848
O O8 0.447447 0.016515 0.882727
O O9 0.306746 0.061809 0.943587
O O10 0.369721 0.869721 0.750000
O O11 0.508785 0.888772 0.818302
O O12 0.693486 0.652891 0.999475
O O13 0.977006 0.477006 0.750000
#
# Coordination Sequence:
#
# PCOD8315526 Si02
#       6
#    16  16  16  16  16  16
#     4  10  21  35  52  79 111 145 185 225 273 336
#     4  11  21  35  60  82 109 148 185 234 285 337
#     4   9  20  37  58  78 112 149 181 235 289 340
#     4   9  19  37  58  82 112 145 184 232 290 347
#     4  10  22  37  54  81 112 146 191 237 287 346
#     4   9  20  36  54  82 109 138 188 232 275 339
#
# _framework density 19.045127999999998
#
# number of rings (size 3 to 8) (size 9 to 14) (size 15 to 20)
#    0.000    2.667    0.000    3.000    0.000   10.667 
#    0.000    0.000    0.000    8.000    0.000    0.000 
#    0.000    0.000    0.000    0.000    0.000    0.000 
#
# Total GULP energy -1189533.149255 kJ/mol
# GULP energy per Si atom -12390.970305 kJ/mol
# Density = 1.900178 g / cm^3
# Si number density = 19.045128 Si / 1000 Ang^3
#
#
#
# Elastic Constant Matrix: (Units=GPa)
#
#
# Indices 1 2 3 4 5 6 
#
# 1 92.9345 50.7344 40.8811 0.0000 0.0000 0.0000
# 2 50.7344 92.9345 40.8811 0.0000 0.0000 0.0000
# 3 40.8811 40.8811 81.7660 0.0000 0.0000 0.0000
# 4 0.0000 0.0000 0.0000 25.2953 0.0000 0.0000
# 5 0.0000 0.0000 0.0000 0.0000 25.2953 0.0000
# 6 0.0000 0.0000 0.0000 0.0000 0.0000 17.5858
#
#
#
# Elastic Compliance Matrix: (Units=1/GPa)
#
#
# Indices 1 2 3 4 5 6 
#
# 1 0.016713 -0.006984 -0.004864 0.000000 0.000000 0.000000
# 2 -0.006984 0.016713 -0.004864 0.000000 0.000000 0.000000
# 3 -0.004864 -0.004864 0.017094 0.000000 0.000000 0.000000
# 4 0.000000 0.000000 0.000000 0.039533 0.000000 0.000000
# 5 0.000000 0.000000 0.000000 0.000000 0.039533 0.000000
# 6 0.000000 0.000000 0.000000 0.000000 0.000000 0.056864
#
#
# Mechanical properties :
#
#
# Convention : Reuss Voigt Hill
#
# Bulk Modulus (GPa) = 58.49739 59.18090 58.83914
# Shear Modulus (GPa) = 22.16588 22.64450 22.40519
#
# Velocity S-wave (km/s) = 3.41524 3.45192 3.43363
# Velocity P-wave (km/s) = 6.80688 6.85778 6.83238
#
# Compressibility (1/GPa) = 0.01709478
#
# Stress axis : x y z
#
# Youngs Moduli (GPa) = 59.83512 59.83512 58.50053
#
# Poissons Ratio (x) = 0.41789 0.28455
# Poissons Ratio (y) = 0.41789 0.28455
# Poissons Ratio (z) = 0.29104 0.29104
#
# Static dielectric constant tensor:
#      x y z
#    x 3.460590 0.000000 0.000000 
#    y 0.000000 3.460590 0.000000 
#    z 0.000000 0.000000 3.560650 
# 
# 
# High freq. dielectric constant tensor:
#      x y z
#    x 1.736370 0.000000 0.000000 
#    y 0.000000 1.736370 0.000000 
#    z 0.000000 0.000000 1.744640 
# 
# From -- ./inp_files/3085.got.cif
#   From: 2010.03.12/outbox.cif.g09.slc.cpg/sg130_2_cif.got.tgz:3085.got - 2010.04.06 17:30:23.
