data_PCOD8315928
_publ_section_title
;
Structure prediction by ZEFSAII (Michael W. Deem and Ramdas Pophale) SiO2 
 PCOD8315928
Probable space group: P 42/M M C
;
_chemical_formula_sum "Si O2"
_cell_formula_units_Z 64
_cell_length_a 21.075027
_cell_length_b 21.075027
_cell_length_c 8.326633
_cell_angle_alpha 90.000000
_cell_angle_beta 90.000000
_cell_angle_gamma 90.000000
_cell_volume 3698.330360
_symmetry_space_group_name_H-M "P 42/M M C"
_symmetry_group_IT_number 131
_symmetry_cell_setting 'tetragonal'
loop_
_space_group_symop_operation_xyz
x,y,z
-x,-y,z
-y,x,1/2+z
y,-x,1/2+z
-x,y,-z
x,-y,-z
y,x,1/2-z
-y,-x,1/2-z
-x,-y,-z
x,y,-z
y,-x,1/2-z
-y,x,1/2-z
x,-y,z
-x,y,z
-y,-x,1/2+z
y,x,1/2+z
loop_
_atom_site_type_symbol
_atom_site_label
_atom_site_fract_x
_atom_site_fract_y
_atom_site_fract_z
Si Si1 0.000000 0.387882 0.313157
Si Si2 0.428538 0.133783 0.686960
Si Si3 0.746868 0.000000 0.315173
Si Si4 0.682044 0.223014 0.683009
Si Si5 0.129870 0.782501 0.314866
O O1 0.934362 0.424785 0.277185
O O2 0.000000 0.328436 0.194756
O O3 0.000000 0.368162 0.500000
O O4 0.412098 0.121968 0.500000
O O5 0.500000 0.159156 0.709847
O O6 0.381916 0.189705 0.757815
O O7 0.775136 0.056856 0.214903
O O8 0.768417 0.000000 0.500000
O O9 0.709048 0.290953 0.750000
O O10 0.667405 0.237399 0.500000
O O11 0.734949 0.169577 0.703612
O O12 0.147677 0.852324 0.250000
O O13 0.147392 0.770902 0.500000
#
# Coordination Sequence:
#
# PCOD8315928 Si02
#       5
#     8  16   8  16  16
#     4  12  23  33  48  73 101 135 173 212 251 293
#     4  10  21  36  52  70  99 140 176 205 247 303
#     4  12  22  35  53  73  99 131 167 210 253 300
#     4  10  19  32  51  72  98 130 166 208 250 294
#     4  11  21  34  52  75  99 126 162 207 255 304
#
# _framework density 17.305105999999999
#
# number of rings (size 3 to 8) (size 9 to 14) (size 15 to 20)
#    0.000    1.250    2.500    7.125    0.000    3.000 
#    0.000    0.000    0.000    0.375    0.000    2.625 
#    0.000    0.500    0.000    6.250    0.000    0.000 
#
# Total GULP energy -792895.969328 kJ/mol
# GULP energy per Si atom -12388.999521 kJ/mol
# Density = 1.726572 g / cm^3
# Si number density = 17.305106 Si / 1000 Ang^3
#
#
#
# Elastic Constant Matrix: (Units=GPa)
#
#
# Indices 1 2 3 4 5 6 
#
# 1 94.5449 56.7669 14.5022 0.0000 0.0000 0.0000
# 2 56.7669 94.5394 14.5028 0.0000 0.0000 0.0000
# 3 14.5022 14.5028 60.2725 0.0000 0.0000 0.0000
# 4 0.0000 0.0000 0.0000 -14.5394 0.0000 0.0000
# 5 0.0000 0.0000 0.0000 0.0000 -14.5273 0.0000
# 6 0.0000 0.0000 0.0000 0.0000 0.0000 31.4279
#
#
#
# Elastic Compliance Matrix: (Units=1/GPa)
#
#
# Indices 1 2 3 4 5 6 
#
# 1 0.016700 -0.009772 -0.001667 0.000000 0.000000 0.000000
# 2 -0.009772 0.016701 -0.001667 0.000000 0.000000 0.000000
# 3 -0.001667 -0.001667 0.017394 0.000000 0.000000 0.000000
# 4 0.000000 0.000000 0.000000 -0.068779 0.000000 0.000000
# 5 0.000000 0.000000 0.000000 0.000000 -0.068836 0.000000
# 6 0.000000 0.000000 0.000000 0.000000 0.000000 0.031819
#
#
# Mechanical properties :
#
#
# Convention : Reuss Voigt Hill
#
# Bulk Modulus (GPa) = 40.67979 46.76674 43.72326
# Shear Modulus (GPa) = -242.77748 11.37791 -115.69979
#
# Velocity S-wave (km/s) = -11.85736 2.56694 -8.18559
# Velocity P-wave (km/s) = 12.80251 5.98908 8.00110
#
# Compressibility (1/GPa) = 0.02458223
#
# Stress axis : x y z
#
# Youngs Moduli (GPa) = 59.88045 59.87670 57.49246
#
# Poissons Ratio (x) = 0.58511 0.09583
# Poissons Ratio (y) = 0.58515 0.09586
# Poissons Ratio (z) = 0.09981 0.09984
#
# Static dielectric constant tensor:
#      x y z
#    x 3.345070 0.000000 0.000000 
#    y 0.000000 3.345070 0.000000 
#    z 0.000000 0.000000 3.199000 
# 
# 
# High freq. dielectric constant tensor:
#      x y z
#    x 1.648960 0.000000 0.000000 
#    y 0.000000 1.648960 0.000000 
#    z 0.000000 0.000000 1.675210 
# 
# From -- ./inp_files/1668.got.cif
#   From: 2010.03.12/outbox.cif.g09.slc.cpg/sg131_1_cif.got.tgz:1668.got - 2010.04.06 17:36:35.
