data_PCOD8315261
_publ_section_title
;
Structure prediction by ZEFSAII (Michael W. Deem and Ramdas Pophale) SiO2 
 PCOD8315261
Probable space group: P 4/N M M
;
_chemical_formula_sum "Si O2"
_cell_formula_units_Z 128
_cell_length_a 19.979426
_cell_length_b 19.979426
_cell_length_c 20.028019
_cell_angle_alpha 90.000000
_cell_angle_beta 90.000000
_cell_angle_gamma 90.000000
_cell_volume 7994.733819
_symmetry_space_group_name_H-M "P 4/N M M"
_symmetry_group_IT_number 129
_symmetry_cell_setting 'tetragonal'
loop_
_space_group_symop_operation_xyz
x,y,z
1/2-y,x,z
1/2-x,1/2-y,z
y,1/2-x,z
1/2+x,-y,-z
-x,1/2+y,-z
1/2+y,1/2+x,-z
-y,-x,-z
-x,-y,-z
1/2+y,-x,-z
1/2+x,1/2+y,-z
-y,1/2+x,-z
1/2-x,y,z
x,1/2-y,z
1/2-y,1/2-x,z
y,x,z
loop_
_atom_site_type_symbol
_atom_site_label
_atom_site_fract_x
_atom_site_fract_y
_atom_site_fract_z
Si Si1 0.473054 0.584600 0.849564
Si Si2 0.988787 0.400739 0.299880
Si Si3 0.502712 0.615245 0.329841
Si Si4 0.170608 0.564950 0.026641
Si Si5 0.066526 0.175974 0.944300
Si Si6 0.325610 0.065730 0.400659
Si Si7 0.934489 0.674205 0.450161
Si Si8 0.372400 0.019135 0.812492
O O1 0.532031 0.532031 0.871158
O O2 0.490741 0.618799 0.778373
O O3 0.463102 0.643528 0.903040
O O4 0.399921 0.550339 0.842902
O O5 0.916801 0.428967 0.322965
O O6 0.042000 0.458001 0.315098
O O7 0.006853 0.337999 0.346818
O O8 0.558331 0.558331 0.336332
O O9 0.506758 0.660629 0.396094
O O10 0.512769 0.659788 0.261659
O O11 0.250000 0.582341 0.031849
O O12 0.130006 0.630006 0.000000
O O13 0.157218 0.504386 0.975817
O O14 0.090614 0.250000 0.966123
O O15 0.122544 0.122544 0.966467
O O16 0.055863 0.176905 0.864041
O O17 0.250000 0.089976 0.394398
O O18 0.369479 0.130522 0.384334
O O19 0.341064 0.037885 0.475348
O O20 0.910432 0.750000 0.443764
O O21 0.869489 0.630511 0.433788
O O22 0.440526 0.059475 0.801500
#
# Coordination Sequence:
#
# PCOD8315261 Si02
#       8
#    16  16  16  16  16  16  16  16
#     4   9  16  29  50  71  91 115 145 186 229 271
#     4   8  15  27  44  67  90 112 140 179 230 274
#     4   8  14  25  41  62  86 110 142 183 227 269
#     4  11  22  34  50  72  95 121 155 192 234 283
#     4  10  20  32  48  71  96 125 159 191 229 275
#     4   9  17  28  41  59  86 119 153 187 222 263
#     4   9  17  27  39  57  83 118 155 187 220 260
#     4   8  14  26  45  65  85 113 147 185 226 266
#
# _framework density 16.010539000000001
#
# number of rings (size 3 to 8) (size 9 to 14) (size 15 to 20)
#    0.000    3.000    1.250    1.875    0.000    2.500 
#    0.000    3.750    0.000    0.000    0.000    3.500 
#    0.000    3.500    0.000    2.750    0.000    0.250 
#
# Total GULP energy -1585701.410725 kJ/mol
# GULP energy per Si atom -12388.292271 kJ/mol
# Density = 1.597410 g / cm^3
# Si number density = 16.010539 Si / 1000 Ang^3
#
#
#
# Elastic Constant Matrix: (Units=GPa)
#
#
# Indices 1 2 3 4 5 6 
#
# 1 64.8018 38.9277 40.6357 0.0000 0.0000 0.0000
# 2 38.9277 64.8018 40.6357 0.0000 0.0000 0.0000
# 3 40.6357 40.6357 103.6030 0.0000 0.0000 0.0000
# 4 0.0000 0.0000 0.0000 19.6329 0.0000 0.0000
# 5 0.0000 0.0000 0.0000 0.0000 19.6329 0.0000
# 6 0.0000 0.0000 0.0000 0.0000 0.0000 16.1641
#
#
#
# Elastic Compliance Matrix: (Units=1/GPa)
#
#
# Indices 1 2 3 4 5 6 
#
# 1 0.026283 -0.012366 -0.005459 0.000000 0.000000 0.000000
# 2 -0.012366 0.026283 -0.005459 0.000000 0.000000 0.000000
# 3 -0.005459 -0.005459 0.013934 0.000000 0.000000 0.000000
# 4 0.000000 0.000000 0.000000 0.050935 0.000000 0.000000
# 5 0.000000 0.000000 0.000000 0.000000 0.050935 0.000000
# 6 0.000000 0.000000 0.000000 0.000000 0.000000 0.061865
#
#
# Mechanical properties :
#
#
# Convention : Reuss Voigt Hill
#
# Bulk Modulus (GPa) = 50.16534 52.62278 51.39406
# Shear Modulus (GPa) = 17.63999 18.61980 18.12989
#
# Velocity S-wave (km/s) = 3.32290 3.41394 3.36872
# Velocity P-wave (km/s) = 6.79139 6.96268 6.87757
#
# Compressibility (1/GPa) = 0.01993408
#
# Stress axis : x y z
#
# Youngs Moduli (GPa) = 38.04730 38.04730 71.76514
#
# Poissons Ratio (x) = 0.47048 0.39175
# Poissons Ratio (y) = 0.47048 0.39175
# Poissons Ratio (z) = 0.20769 0.20769
#
# Static dielectric constant tensor:
#      x y z
#    x 2.829380 0.000000 0.000000 
#    y 0.000000 2.829380 0.000000 
#    z 0.000000 0.000000 3.318840 
# 
# 
# High freq. dielectric constant tensor:
#      x y z
#    x 1.584710 0.000000 0.000000 
#    y 0.000000 1.584710 0.000000 
#    z 0.000000 0.000000 1.632020 
# 
# From -- ./inp_files/6133.got.cif
#   From: 2010.03.12/outbox.cif.g09.slc.cpg/sg129_4_cif.got.tgz:6133.got - 2010.04.06 17:19:44.
