data_PCOD8315866
_publ_section_title
;
Structure prediction by ZEFSAII (Michael W. Deem and Ramdas Pophale) SiO2 
 PCOD8315866
Probable space group: P 42/M M C
;
_chemical_formula_sum "Si O2"
_cell_formula_units_Z 80
_cell_length_a 22.765170
_cell_length_b 22.765170
_cell_length_c 8.928375
_cell_angle_alpha 90.000000
_cell_angle_beta 90.000000
_cell_angle_gamma 90.000000
_cell_volume 4627.156818
_symmetry_space_group_name_H-M "P 42/M M C"
_symmetry_group_IT_number 131
_symmetry_cell_setting 'tetragonal'
loop_
_space_group_symop_operation_xyz
x,y,z
-x,-y,z
-y,x,1/2+z
y,-x,1/2+z
-x,y,-z
x,-y,-z
y,x,1/2-z
-y,-x,1/2-z
-x,-y,-z
x,y,-z
y,-x,1/2-z
-y,x,1/2-z
x,-y,z
-x,y,z
-y,-x,1/2+z
y,x,1/2+z
loop_
_atom_site_type_symbol
_atom_site_label
_atom_site_fract_x
_atom_site_fract_y
_atom_site_fract_z
Si Si1 0.156784 0.626254 0.320996
Si Si2 0.154591 0.931652 0.326693
Si Si3 0.282925 0.629117 0.172169
Si Si4 0.066940 0.725551 0.324076
Si Si5 0.500000 0.847085 0.827948
Si Si6 0.500000 0.730558 0.668191
O O1 0.165498 0.626062 0.500000
O O2 0.219281 0.639512 0.245991
O O3 0.109123 0.673597 0.268661
O O4 0.130437 0.562769 0.263248
O O5 0.100991 0.899010 0.250000
O O6 0.155758 0.915726 0.500000
O O7 0.215850 0.910729 0.256398
O O8 0.144504 0.000000 0.296471
O O9 0.331129 0.668872 0.250000
O O10 0.305259 0.561021 0.187142
O O11 0.277859 0.648057 0.000000
O O12 0.072223 0.735812 0.500000
O O13 0.000000 0.710095 0.278189
O O14 0.500000 0.777611 0.800451
O O15 0.500000 0.862775 0.000000
O O16 0.500000 0.759299 0.500000
#
# Coordination Sequence:
#
# PCOD8315866 Si02
#       6
#    16  16  16  16   8   8
#     4   9  17  30  48  70  96 126 159 196 237 278
#     4  10  21  36  54  75  97 123 156 193 234 280
#     4  10  19  31  48  71  96 122 155 194 236 280
#     4   9  18  33  51  70  96 130 163 194 232 279
#     4   8  14  26  45  68  93 121 156 195 233 275
#     4   8  16  30  46  64  90 123 155 189 230 277
#
# _framework density 17.289235000000001
#
# number of rings (size 3 to 8) (size 9 to 14) (size 15 to 20)
#    0.000    2.800    0.000    1.200    0.000    3.800 
#    0.000    1.500    0.000    3.300    0.000    2.100 
#    0.000   11.200    0.000    0.000    0.000    0.000 
#
# Total GULP energy -991201.538325 kJ/mol
# GULP energy per Si atom -12390.019229 kJ/mol
# Density = 1.724988 g / cm^3
# Si number density = 17.289235 Si / 1000 Ang^3
#
#
#
# Elastic Constant Matrix: (Units=GPa)
#
#
# Indices 1 2 3 4 5 6 
#
# 1 105.8238 70.7207 41.5639 0.0000 0.0000 0.0000
# 2 70.7207 105.8256 41.5527 0.0000 0.0000 0.0000
# 3 41.5639 41.5527 52.3401 0.0000 0.0000 0.0000
# 4 0.0000 0.0000 0.0000 20.5881 0.0000 0.0000
# 5 0.0000 0.0000 0.0000 0.0000 20.5883 0.0000
# 6 0.0000 0.0000 0.0000 0.0000 0.0000 8.3698
#
#
#
# Elastic Compliance Matrix: (Units=1/GPa)
#
#
# Indices 1 2 3 4 5 6 
#
# 1 0.018769 -0.009721 -0.007187 0.000000 0.000000 0.000000
# 2 -0.009721 0.018764 -0.007177 0.000000 0.000000 0.000000
# 3 -0.007187 -0.007177 0.030511 0.000000 0.000000 0.000000
# 4 0.000000 0.000000 0.000000 0.048572 0.000000 0.000000
# 5 0.000000 0.000000 0.000000 0.000000 0.048571 0.000000
# 6 0.000000 0.000000 0.000000 0.000000 0.000000 0.119477
#
#
# Mechanical properties :
#
#
# Convention : Reuss Voigt Hill
#
# Bulk Modulus (GPa) = 50.31827 63.51824 56.91825
# Shear Modulus (GPa) = 14.72935 17.25273 15.99104
#
# Velocity S-wave (km/s) = 2.92196 3.16236 3.04454
# Velocity P-wave (km/s) = 6.36795 7.08184 6.73436
#
# Compressibility (1/GPa) = 0.01987350
#
# Stress axis : x y z
#
# Youngs Moduli (GPa) = 53.28019 53.29441 32.77467
#
# Poissons Ratio (x) = 0.51805 0.23556
# Poissons Ratio (y) = 0.51791 0.23523
# Poissons Ratio (z) = 0.38294 0.38251
#
# Static dielectric constant tensor:
#      x y z
#    x 3.311530 0.000000 0.000000 
#    y 0.000000 3.311530 0.000000 
#    z 0.000000 0.000000 3.260080 
# 
# 
# High freq. dielectric constant tensor:
#      x y z
#    x 1.660410 0.000000 0.000000 
#    y 0.000000 1.660410 0.000000 
#    z 0.000000 0.000000 1.669400 
# 
# From -- ./inp_files/2090.got.cif
#   From: 2010.03.12/outbox.cif.g09.slc.cpg/sg131_2_cif.got.tgz:2090.got - 2010.04.06 17:36:35.
