data_PCOD8315278
_publ_section_title
;
Structure prediction by ZEFSAII (Michael W. Deem and Ramdas Pophale) SiO2 
 PCOD8315278
Probable space group: P 4/N M M
;
_chemical_formula_sum "Si O2"
_cell_formula_units_Z 72
_cell_length_a 13.930360
_cell_length_b 13.930360
_cell_length_c 22.829863
_cell_angle_alpha 90.000000
_cell_angle_beta 90.000000
_cell_angle_gamma 90.000000
_cell_volume 4430.247460
_symmetry_space_group_name_H-M "P 4/N M M"
_symmetry_group_IT_number 129
_symmetry_cell_setting 'tetragonal'
loop_
_space_group_symop_operation_xyz
x,y,z
1/2-y,x,z
1/2-x,1/2-y,z
y,1/2-x,z
1/2+x,-y,-z
-x,1/2+y,-z
1/2+y,1/2+x,-z
-y,-x,-z
-x,-y,-z
1/2+y,-x,-z
1/2+x,1/2+y,-z
-y,1/2+x,-z
1/2-x,y,z
x,1/2-y,z
1/2-y,1/2-x,z
y,x,z
loop_
_atom_site_type_symbol
_atom_site_label
_atom_site_fract_x
_atom_site_fract_y
_atom_site_fract_z
Si Si1 0.140656 0.640656 0.500000
Si Si2 0.361337 0.518263 0.702321
Si Si3 0.143949 0.635318 0.063862
Si Si4 0.359146 0.510708 0.834789
Si Si5 0.137587 0.980005 0.385587
O O1 0.125745 0.750000 0.478353
O O2 0.068952 0.616013 0.552349
O O3 0.250000 0.500657 0.685593
O O4 0.418810 0.418810 0.691175
O O5 0.371076 0.553428 0.769536
O O6 0.405987 0.603617 0.664162
O O7 0.250000 0.592553 0.072965
O O8 0.148152 0.750000 0.065591
O O9 0.081234 0.593694 0.117245
O O10 0.103117 0.603117 0.000000
O O11 0.250000 0.491904 0.851077
O O12 0.407948 0.407948 0.838992
O O13 0.250000 0.001773 0.376904
O O14 0.080120 0.080120 0.381625
#
# Coordination Sequence:
#
# PCOD8315278 Si02
#       5
#     8  16  16  16  16
#     4   9  17  30  50  74  95 117 148 184 223 265
#     4   9  18  31  46  66  91 117 147 184 225 270
#     4   8  14  25  40  58  81 108 139 177 217 252
#     4   9  17  28  42  62  87 113 141 172 209 257
#     4  10  20  33  49  69  94 123 154 188 223 260
#
# _framework density 16.251913999999999
#
# number of rings (size 3 to 8) (size 9 to 14) (size 15 to 20)
#    0.000    3.000    0.000    1.667    0.000    3.333 
#    0.000    4.444    0.000    0.000    0.000    3.111 
#    0.000    0.444    0.000    0.444    0.000    0.222 
#
# Total GULP energy -892448.713752 kJ/mol
# GULP energy per Si atom -12395.121024 kJ/mol
# Density = 1.621492 g / cm^3
# Si number density = 16.251914 Si / 1000 Ang^3
#
#
#
# Elastic Constant Matrix: (Units=GPa)
#
#
# Indices 1 2 3 4 5 6 
#
# 1 85.5385 44.8337 55.6777 0.0000 0.0000 0.0000
# 2 44.8337 85.5385 55.6777 0.0000 0.0000 0.0000
# 3 55.6777 55.6777 107.5274 0.0000 0.0000 0.0000
# 4 0.0000 0.0000 0.0000 24.1940 0.0000 0.0000
# 5 0.0000 0.0000 0.0000 0.0000 24.1940 0.0000
# 6 0.0000 0.0000 0.0000 0.0000 0.0000 16.1071
#
#
#
# Elastic Compliance Matrix: (Units=1/GPa)
#
#
# Indices 1 2 3 4 5 6 
#
# 1 0.019160 -0.005407 -0.007121 0.000000 0.000000 0.000000
# 2 -0.005407 0.019160 -0.007121 0.000000 0.000000 0.000000
# 3 -0.007121 -0.007121 0.016675 0.000000 0.000000 0.000000
# 4 0.000000 0.000000 0.000000 0.041333 0.000000 0.000000
# 5 0.000000 0.000000 0.000000 0.000000 0.041333 0.000000
# 6 0.000000 0.000000 0.000000 0.000000 0.000000 0.062084
#
#
# Mechanical properties :
#
#
# Convention : Reuss Voigt Hill
#
# Bulk Modulus (GPa) = 63.71263 65.66475 64.68869
# Shear Modulus (GPa) = 20.46872 21.06004 20.76438
#
# Velocity S-wave (km/s) = 3.55274 3.60370 3.57831
# Velocity P-wave (km/s) = 7.49117 7.60313 7.54735
#
# Compressibility (1/GPa) = 0.01569547
#
# Stress axis : x y z
#
# Youngs Moduli (GPa) = 52.19208 52.19208 59.97103
#
# Poissons Ratio (x) = 0.28221 0.42707
# Poissons Ratio (y) = 0.28221 0.42707
# Poissons Ratio (z) = 0.37167 0.37167
#
# Static dielectric constant tensor:
#      x y z
#    x 2.961190 0.000000 0.000000 
#    y 0.000000 2.961190 0.000000 
#    z 0.000000 0.000000 3.324530 
# 
# 
# High freq. dielectric constant tensor:
#      x y z
#    x 1.607540 0.000000 0.000000 
#    y 0.000000 1.607540 0.000000 
#    z 0.000000 0.000000 1.639180 
# 
# From -- ./inp_files/7398.got.cif
#   From: 2010.03.12/outbox.cif.g09.slc.cpg/sg129_4_cif.got.tgz:7398.got - 2010.04.06 17:19:44.
