data_PCOD8315916
_publ_section_title
;
Structure prediction by ZEFSAII (Michael W. Deem and Ramdas Pophale) SiO2 
 PCOD8315916
Probable space group: P 42/M M C
;
_chemical_formula_sum "Si O2"
_cell_formula_units_Z 112
_cell_length_a 15.079736
_cell_length_b 15.079736
_cell_length_c 27.964086
_cell_angle_alpha 90.000000
_cell_angle_beta 90.000000
_cell_angle_gamma 90.000000
_cell_volume 6358.989472
_symmetry_space_group_name_H-M "P 42/M M C"
_symmetry_group_IT_number 131
_symmetry_cell_setting 'tetragonal'
loop_
_space_group_symop_operation_xyz
x,y,z
-x,-y,z
-y,x,1/2+z
y,-x,1/2+z
-x,y,-z
x,-y,-z
y,x,1/2-z
-y,-x,1/2-z
-x,-y,-z
x,y,-z
y,-x,1/2-z
-y,x,1/2-z
x,-y,z
-x,y,z
-y,-x,1/2+z
y,x,1/2+z
loop_
_atom_site_type_symbol
_atom_site_label
_atom_site_fract_x
_atom_site_fract_y
_atom_site_fract_z
Si Si1 0.262581 0.399271 0.948139
Si Si2 0.399041 0.645893 0.195534
Si Si3 0.598681 0.784728 0.653069
Si Si4 0.400240 0.835207 0.150599
Si Si5 0.247654 0.601006 0.447606
Si Si6 0.095914 0.772634 0.308159
Si Si7 0.751121 0.101653 0.695690
O O1 0.295897 0.500000 0.943907
O O2 0.198525 0.378295 0.903180
O O3 0.348666 0.339539 0.944263
O O4 0.214597 0.383467 0.000000
O O5 0.373557 0.626444 0.250000
O O6 0.500000 0.609889 0.184927
O O7 0.321409 0.603276 0.163353
O O8 0.397136 0.750018 0.184962
O O9 0.500000 0.817267 0.664972
O O10 0.660958 0.847141 0.684133
O O11 0.500000 0.876482 0.152518
O O12 0.371609 0.816585 0.095621
O O13 0.325525 0.901163 0.169326
O O14 0.202100 0.616674 0.500000
O O15 0.274908 0.500000 0.439975
O O16 0.168925 0.841559 0.328292
O O17 0.104320 0.762346 0.251837
O O18 0.000000 0.813124 0.321136
O O19 0.750652 0.000000 0.676445
#
# Coordination Sequence:
#
# PCOD8315916 Si02
#       7
#    16  16  16  16  16  16  16
#     4   9  17  28  43  65  93 126 167 214 259 300
#     4  11  21  32  45  66 100 141 179 212 244 286
#     4  11  21  33  51  73 101 138 173 210 254 296
#     4  10  19  32  50  73 103 137 171 208 249 296
#     4   9  16  27  44  65  92 130 173 213 252 293
#     4  10  20  35  56  78 102 132 165 204 252 303
#     4  10  21  37  55  76 102 129 165 211 253 301
#
# _framework density 17.612862
#
# number of rings (size 3 to 8) (size 9 to 14) (size 15 to 20)
#    0.000    2.000    2.857    1.286    0.000    3.857 
#    0.000    5.714    0.000    0.857    0.000    4.000 
#    0.000    0.000    0.000    6.000    0.000    0.286 
#
# Total GULP energy -1387562.774575 kJ/mol
# GULP energy per Si atom -12388.953344 kJ/mol
# Density = 1.757277 g / cm^3
# Si number density = 17.612862 Si / 1000 Ang^3
#
#
#
# Elastic Constant Matrix: (Units=GPa)
#
#
# Indices 1 2 3 4 5 6 
#
# 1 86.7314 41.2313 20.9736 0.0000 0.0000 0.0000
# 2 41.2313 86.7313 20.9738 0.0000 0.0000 0.0000
# 3 20.9736 20.9738 52.4580 0.0000 0.0000 0.0000
# 4 0.0000 0.0000 0.0000 13.4187 0.0000 0.0000
# 5 0.0000 0.0000 0.0000 0.0000 13.4187 0.0000
# 6 0.0000 0.0000 0.0000 0.0000 0.0000 6.9832
#
#
#
# Elastic Compliance Matrix: (Units=1/GPa)
#
#
# Indices 1 2 3 4 5 6 
#
# 1 0.015486 -0.006492 -0.003596 0.000000 0.000000 0.000000
# 2 -0.006492 0.015486 -0.003596 0.000000 0.000000 0.000000
# 3 -0.003596 -0.003596 0.021938 0.000000 0.000000 0.000000
# 4 0.000000 0.000000 0.000000 0.074523 0.000000 0.000000
# 5 0.000000 0.000000 0.000000 0.000000 0.074523 0.000000
# 6 0.000000 0.000000 0.000000 0.000000 0.000000 0.143200
#
#
# Mechanical properties :
#
#
# Convention : Reuss Voigt Hill
#
# Bulk Modulus (GPa) = 39.15102 43.58644 41.36873
# Shear Modulus (GPa) = 13.12209 16.28027 14.70118
#
# Velocity S-wave (km/s) = 2.73248 3.04359 2.89222
# Velocity P-wave (km/s) = 5.67734 6.09524 5.89000
#
# Compressibility (1/GPa) = 0.02554212
#
# Stress axis : x y z
#
# Youngs Moduli (GPa) = 64.57556 64.57539 45.58255
#
# Poissons Ratio (x) = 0.41924 0.16390
# Poissons Ratio (y) = 0.41924 0.16391
# Poissons Ratio (z) = 0.23220 0.23220
#
# Static dielectric constant tensor:
#      x y z
#    x 3.197180 0.000000 0.000000 
#    y 0.000000 3.197180 0.000000 
#    z 0.000000 0.000000 3.658340 
# 
# 
# High freq. dielectric constant tensor:
#      x y z
#    x 1.660130 0.000000 0.000000 
#    y 0.000000 1.660130 0.000000 
#    z 0.000000 0.000000 1.683550 
# 
# From -- ./inp_files/12443.got.cif
#   From: 2010.03.12/outbox.cif.g09.slc.cpg/sg131_7_cif.got.tgz:12443.got - 2010.04.06 17:36:35.
