data_PCOD8315502
_publ_section_title
;
Structure prediction by ZEFSAII (Michael W. Deem and Ramdas Pophale) SiO2 
 PCOD8315502
Probable space group: P 4/N C C
;
_chemical_formula_sum "Si O2"
_cell_formula_units_Z 44
_cell_length_a 8.103823
_cell_length_b 8.103823
_cell_length_c 31.928501
_cell_angle_alpha 90.000000
_cell_angle_beta 90.000000
_cell_angle_gamma 90.000000
_cell_volume 2096.806832
_symmetry_space_group_name_H-M "P 4/N C C"
_symmetry_group_IT_number 130
_symmetry_cell_setting 'tetragonal'
loop_
_space_group_symop_operation_xyz
x,y,z
1/2-y,x,z
1/2-x,1/2-y,z
y,1/2-x,z
1/2+x,-y,1/2-z
-x,1/2+y,1/2-z
1/2+y,1/2+x,1/2-z
-y,-x,1/2-z
-x,-y,-z
1/2+y,-x,-z
1/2+x,1/2+y,-z
-y,1/2+x,-z
1/2-x,y,1/2+z
x,1/2-y,1/2+z
1/2-y,1/2-x,1/2+z
y,x,1/2+z
loop_
_atom_site_type_symbol
_atom_site_label
_atom_site_fract_x
_atom_site_fract_y
_atom_site_fract_z
Si Si1 0.750000 0.250000 0.141108
Si Si2 0.250000 0.750000 0.500000
Si Si3 0.486881 0.674454 0.288232
Si Si4 0.180009 0.512639 0.429494
O O1 0.617357 0.151351 0.169277
O O2 0.651692 0.379721 0.112162
O O3 0.150794 0.621445 0.470923
O O4 0.637653 0.547737 0.286345
O O5 0.364012 0.635988 0.250000
O O6 0.049079 0.367746 0.429594
#
# Coordination Sequence:
#
# PCOD8315502 Si02
#       4
#     8   4  16  16
#     4  11  21  37  57  82 114 148 189 235 285 343
#     4  10  20  36  58  80 110 144 182 228 276 338
#     4  11  23  39  60  85 116 154 196 243 292 345
#     4  10  21  36  56  82 111 145 184 229 281 337
#
# _framework density 20.984287999999999
#
# number of rings (size 3 to 8) (size 9 to 14) (size 15 to 20)
#    0.000    1.455    0.000    6.000    0.000    0.000 
#    0.000    3.636    0.000   17.455    0.000    0.000 
#    0.000    0.000    0.000    0.000    0.000    0.000 
#
# Total GULP energy -545780.353190 kJ/mol
# GULP energy per Si atom -12404.098936 kJ/mol
# Density = 2.093653 g / cm^3
# Si number density = 20.984288 Si / 1000 Ang^3
#
#
#
# Elastic Constant Matrix: (Units=GPa)
#
#
# Indices 1 2 3 4 5 6 
#
# 1 73.4873 7.9068 40.2781 0.0000 0.0000 0.0000
# 2 7.9068 73.4869 40.2781 0.0000 0.0000 0.0000
# 3 40.2781 40.2781 164.8013 0.0000 0.0000 0.0000
# 4 0.0000 0.0000 0.0000 11.1830 0.0000 0.0000
# 5 0.0000 0.0000 0.0000 0.0000 11.1816 0.0000
# 6 0.0000 0.0000 0.0000 0.0000 0.0000 32.9777
#
#
#
# Elastic Compliance Matrix: (Units=1/GPa)
#
#
# Indices 1 2 3 4 5 6 
#
# 1 0.015727 0.000479 -0.003961 0.000000 0.000000 0.000000
# 2 0.000479 0.015727 -0.003961 0.000000 0.000000 0.000000
# 3 -0.003961 -0.003961 0.008004 0.000000 0.000000 0.000000
# 4 0.000000 0.000000 0.000000 0.089421 0.000000 0.000000
# 5 0.000000 0.000000 0.000000 0.000000 0.089433 0.000000
# 6 0.000000 0.000000 0.000000 0.000000 0.000000 0.030324
#
#
# Mechanical properties :
#
#
# Convention : Reuss Voigt Hill
#
# Bulk Modulus (GPa) = 40.69557 54.30018 47.49787
# Shear Modulus (GPa) = 18.40180 25.95597 22.17888
#
# Velocity S-wave (km/s) = 2.96452 3.52081 3.25457
# Velocity P-wave (km/s) = 5.58151 6.51620 6.06688
#
# Compressibility (1/GPa) = 0.02457270
#
# Stress axis : x y z
#
# Youngs Moduli (GPa) = 63.58421 63.58382 124.93777
#
# Poissons Ratio (x) = -0.03044 0.49485
# Poissons Ratio (y) = -0.03044 0.49485
# Poissons Ratio (z) = 0.25184 0.25184
#
# Static dielectric constant tensor:
#      x y z
#    x 3.682400 0.000000 0.000000 
#    y 0.000000 3.682400 0.000000 
#    z 0.000000 0.000000 3.853440 
# 
# 
# High freq. dielectric constant tensor:
#      x y z
#    x 1.821340 0.000000 0.000000 
#    y 0.000000 1.821340 0.000000 
#    z 0.000000 0.000000 1.836780 
# 
# From -- ./inp_files/4672.got.cif
#   From: 2010.03.12/outbox.cif.g09.slc.cpg/sg130_3_cif.got.tgz:4672.got - 2010.04.06 17:30:23.
