data_PCOD8315523
_publ_section_title
;
Structure prediction by ZEFSAII (Michael W. Deem and Ramdas Pophale) SiO2 
 PCOD8315523
Probable space group: P 4/N C C
;
_chemical_formula_sum "Si O2"
_cell_formula_units_Z 56
_cell_length_a 12.085456
_cell_length_b 12.085456
_cell_length_c 18.782553
_cell_angle_alpha 90.000000
_cell_angle_beta 90.000000
_cell_angle_gamma 90.000000
_cell_volume 2743.346760
_symmetry_space_group_name_H-M "P 4/N C C"
_symmetry_group_IT_number 130
_symmetry_cell_setting 'tetragonal'
loop_
_space_group_symop_operation_xyz
x,y,z
1/2-y,x,z
1/2-x,1/2-y,z
y,1/2-x,z
1/2+x,-y,1/2-z
-x,1/2+y,1/2-z
1/2+y,1/2+x,1/2-z
-y,-x,1/2-z
-x,-y,-z
1/2+y,-x,-z
1/2+x,1/2+y,-z
-y,1/2+x,-z
1/2-x,y,1/2+z
x,1/2-y,1/2+z
1/2-y,1/2-x,1/2+z
y,x,1/2+z
loop_
_atom_site_type_symbol
_atom_site_label
_atom_site_fract_x
_atom_site_fract_y
_atom_site_fract_z
Si Si1 0.899149 0.854561 0.987733
Si Si2 0.872530 0.213369 0.681565
Si Si3 0.513433 0.029437 0.388114
Si Si4 0.932841 0.067160 0.250000
O O1 0.776259 0.902588 0.978236
O O2 0.944856 0.882526 0.066067
O O3 0.979152 0.911435 0.929046
O O4 0.750000 0.250000 0.655554
O O5 0.864651 0.135350 0.750000
O O6 0.930303 0.140887 0.620670
O O7 0.946115 0.316622 0.708445
O O8 0.449529 0.022170 0.312757
#
# Coordination Sequence:
#
# PCOD8315523 Si02
#       4
#    16  16  16   8
#     4  10  24  41  58  86 127 164 205 251 301 369
#     4   9  20  36  57  92 125 147 195 258 301 366
#     4  11  21  39  65  87 122 165 203 249 314 360
#     4  10  21  34  65  90 118 152 204 254 303 360
#
# _framework density 20.413024
#
# number of rings (size 3 to 8) (size 9 to 14) (size 15 to 20)
#    0.000    2.286    1.429    1.714    8.000    0.000 
#    0.000    0.000    0.000    3.429    0.000    0.000 
#    0.000    0.000    0.000    0.000    0.000    0.000 
#
# Total GULP energy -694021.986221 kJ/mol
# GULP energy per Si atom -12393.249754 kJ/mol
# Density = 2.036656 g / cm^3
# Si number density = 20.413024 Si / 1000 Ang^3
#
#
#
# Elastic Constant Matrix: (Units=GPa)
#
#
# Indices 1 2 3 4 5 6 
#
# 1 56.8675 36.2329 25.7532 0.0000 0.0000 0.0000
# 2 36.2329 56.8680 25.7534 0.0000 0.0000 0.0000
# 3 25.7532 25.7534 90.4900 0.0000 0.0000 0.0000
# 4 0.0000 0.0000 0.0000 30.7550 0.0000 0.0000
# 5 0.0000 0.0000 0.0000 0.0000 30.7552 0.0000
# 6 0.0000 0.0000 0.0000 0.0000 0.0000 32.3726
#
#
#
# Elastic Compliance Matrix: (Units=1/GPa)
#
#
# Indices 1 2 3 4 5 6 
#
# 1 0.030605 -0.017857 -0.003628 0.000000 0.000000 0.000000
# 2 -0.017857 0.030605 -0.003628 0.000000 0.000000 0.000000
# 3 -0.003628 -0.003628 0.013116 0.000000 0.000000 0.000000
# 4 0.000000 0.000000 0.000000 0.032515 0.000000 0.000000
# 5 0.000000 0.000000 0.000000 0.000000 0.032515 0.000000
# 6 0.000000 0.000000 0.000000 0.000000 0.000000 0.030890
#
#
# Mechanical properties :
#
#
# Convention : Reuss Voigt Hill
#
# Bulk Modulus (GPa) = 41.49364 42.18939 41.84151
# Shear Modulus (GPa) = 21.88131 26.54230 24.21181
#
# Velocity S-wave (km/s) = 3.27758 3.60983 3.44771
# Velocity P-wave (km/s) = 5.89021 6.17148 6.03249
#
# Compressibility (1/GPa) = 0.02410008
#
# Stress axis : x y z
#
# Youngs Moduli (GPa) = 32.67430 32.67455 76.24237
#
# Poissons Ratio (x) = 0.58346 0.27662
# Poissons Ratio (y) = 0.58345 0.27662
# Poissons Ratio (z) = 0.11855 0.11855
#
# Static dielectric constant tensor:
#      x y z
#    x 3.571400 0.000000 0.000000 
#    y 0.000000 3.571410 0.000000 
#    z 0.000000 0.000000 3.698770 
# 
# 
# High freq. dielectric constant tensor:
#      x y z
#    x 1.789780 0.000000 0.000000 
#    y 0.000000 1.789780 0.000000 
#    z 0.000000 0.000000 1.800670 
# 
# From -- ./inp_files/3432.got.cif
#   From: 2010.03.12/outbox.cif.g09.slc.cpg/sg130_2_cif.got.tgz:3432.got - 2010.04.06 17:30:23.
