data_PCOD8315912
_publ_section_title
;
Structure prediction by ZEFSAII (Michael W. Deem and Ramdas Pophale) SiO2 
 PCOD8315912
Probable space group: P 42/M M C
;
_chemical_formula_sum "Si O2"
_cell_formula_units_Z 112
_cell_length_a 14.807933
_cell_length_b 14.807933
_cell_length_c 29.404507
_cell_angle_alpha 90.000000
_cell_angle_beta 90.000000
_cell_angle_gamma 90.000000
_cell_volume 6447.669736
_symmetry_space_group_name_H-M "P 42/M M C"
_symmetry_group_IT_number 131
_symmetry_cell_setting 'tetragonal'
loop_
_space_group_symop_operation_xyz
x,y,z
-x,-y,z
-y,x,1/2+z
y,-x,1/2+z
-x,y,-z
x,-y,-z
y,x,1/2-z
-y,-x,1/2-z
-x,-y,-z
x,y,-z
y,-x,1/2-z
-y,x,1/2-z
x,-y,z
-x,y,z
-y,-x,1/2+z
y,x,1/2+z
loop_
_atom_site_type_symbol
_atom_site_label
_atom_site_fract_x
_atom_site_fract_y
_atom_site_fract_z
Si Si1 0.892885 0.101497 0.699776
Si Si2 0.105053 0.205986 0.389747
Si Si3 0.598724 0.897613 0.865065
Si Si4 0.896898 0.603251 0.877824
Si Si5 0.745423 0.396408 0.807171
Si Si6 0.245139 0.105112 0.448214
Si Si7 0.741916 0.400011 0.702865
O O1 0.862036 0.137965 0.750000
O O2 0.860077 0.169358 0.659714
O O3 0.000000 0.096949 0.700847
O O4 0.854844 0.000000 0.690004
O O5 0.122708 0.313783 0.396167
O O6 0.158737 0.158220 0.429833
O O7 0.000000 0.182079 0.395887
O O8 0.500000 0.880749 0.889508
O O9 0.606517 0.838242 0.820451
O O10 0.604863 0.000000 0.847726
O O11 0.881902 0.500000 0.893194
O O12 0.835150 0.628998 0.834914
O O13 0.869328 0.664959 0.920427
O O14 0.000000 0.620228 0.862738
O O15 0.716879 0.500000 0.816053
O O16 0.763785 0.376004 0.754681
O O17 0.663958 0.330915 0.822069
O O18 0.262693 0.134088 0.500000
O O19 0.222593 0.000000 0.444076
O O20 0.700050 0.500000 0.699063
#
# Coordination Sequence:
#
# PCOD8315912 Si02
#       7
#    16  16  16  16  16  16  16
#     4   8  14  26  43  64  93 125 156 190 227 274
#     4  10  19  32  50  71  96 127 161 197 241 290
#     4   9  18  32  48  66  91 125 164 200 231 271
#     4   9  18  33  51  70  94 126 162 200 241 283
#     4   9  17  29  46  69  96 125 159 198 238 283
#     4  10  21  35  51  74 100 125 157 197 243 296
#     4   9  17  29  45  66  95 129 161 196 238 281
#
# _framework density 17.370616999999999
#
# number of rings (size 3 to 8) (size 9 to 14) (size 15 to 20)
#    0.000    2.857    0.000    1.714    0.000    2.286 
#    5.143    6.429    0.000    0.429    0.000    2.000 
#    0.000    0.000    0.000   12.286    0.000    0.429 
#
# Total GULP energy -1388131.023232 kJ/mol
# GULP energy per Si atom -12394.026993 kJ/mol
# Density = 1.733108 g / cm^3
# Si number density = 17.370617 Si / 1000 Ang^3
#
#
#
# Elastic Constant Matrix: (Units=GPa)
#
#
# Indices 1 2 3 4 5 6 
#
# 1 87.0551 52.7805 51.1455 0.0000 0.0000 0.0000
# 2 52.7805 87.0551 51.1455 0.0000 0.0000 0.0000
# 3 51.1455 51.1455 83.9656 0.0000 0.0000 0.0000
# 4 0.0000 0.0000 0.0000 21.2732 0.0000 0.0000
# 5 0.0000 0.0000 0.0000 0.0000 21.2733 0.0000
# 6 0.0000 0.0000 0.0000 0.0000 0.0000 24.4480
#
#
#
# Elastic Compliance Matrix: (Units=1/GPa)
#
#
# Indices 1 2 3 4 5 6 
#
# 1 0.021037 -0.008139 -0.007857 0.000000 0.000000 0.000000
# 2 -0.008139 0.021037 -0.007857 0.000000 0.000000 0.000000
# 3 -0.007857 -0.007857 0.021481 0.000000 0.000000 0.000000
# 4 0.000000 0.000000 0.000000 0.047007 0.000000 0.000000
# 5 0.000000 0.000000 0.000000 0.000000 0.047007 0.000000
# 6 0.000000 0.000000 0.000000 0.000000 0.000000 0.040903
#
#
# Mechanical properties :
#
#
# Convention : Reuss Voigt Hill
#
# Bulk Modulus (GPa) = 63.08737 63.13544 63.11140
# Shear Modulus (GPa) = 19.88368 20.26586 20.07477
#
# Velocity S-wave (km/s) = 3.38697 3.41937 3.40321
# Velocity P-wave (km/s) = 7.18977 7.21210 7.20094
#
# Compressibility (1/GPa) = 0.01585103
#
# Stress axis : x y z
#
# Youngs Moduli (GPa) = 47.53449 47.53449 46.55224
#
# Poissons Ratio (x) = 0.38687 0.36575
# Poissons Ratio (y) = 0.38687 0.36575
# Poissons Ratio (z) = 0.37347 0.37347
#
# Static dielectric constant tensor:
#      x y z
#    x 3.381320 0.000000 0.000000 
#    y 0.000000 3.381320 0.000000 
#    z 0.000000 0.000000 3.018150 
# 
# 
# High freq. dielectric constant tensor:
#      x y z
#    x 1.673490 0.000000 0.000000 
#    y 0.000000 1.673490 0.000000 
#    z 0.000000 0.000000 1.633720 
# 
# From -- ./inp_files/12420.got.cif
#   From: 2010.03.12/outbox.cif.g09.slc.cpg/sg131_7_cif.got.tgz:12420.got - 2010.04.06 17:36:35.
