data_PCOD8315352
_publ_section_title
;
Structure prediction by ZEFSAII (Michael W. Deem and Ramdas Pophale) SiO2 
 PCOD8315352
Probable space group: P 4/N M M
;
_chemical_formula_sum "Si O2"
_cell_formula_units_Z 128
_cell_length_a 17.495382
_cell_length_b 17.495382
_cell_length_c 22.686163
_cell_angle_alpha 90.000000
_cell_angle_beta 90.000000
_cell_angle_gamma 90.000000
_cell_volume 6943.971138
_symmetry_space_group_name_H-M "P 4/N M M"
_symmetry_group_IT_number 129
_symmetry_cell_setting 'tetragonal'
loop_
_space_group_symop_operation_xyz
x,y,z
1/2-y,x,z
1/2-x,1/2-y,z
y,1/2-x,z
1/2+x,-y,-z
-x,1/2+y,-z
1/2+y,1/2+x,-z
-y,-x,-z
-x,-y,-z
1/2+y,-x,-z
1/2+x,1/2+y,-z
-y,1/2+x,-z
1/2-x,y,z
x,1/2-y,z
1/2-y,1/2-x,z
y,x,z
loop_
_atom_site_type_symbol
_atom_site_label
_atom_site_fract_x
_atom_site_fract_y
_atom_site_fract_z
Si Si1 0.467446 0.159948 0.260096
Si Si2 0.165281 0.047000 0.964441
Si Si3 0.580041 0.043970 0.638642
Si Si4 0.548590 0.075111 0.159247
Si Si5 0.338746 0.034993 0.599524
Si Si6 0.914014 0.163468 0.045630
Si Si7 0.662875 0.046707 0.520271
Si Si8 0.457803 0.336747 0.825863
O O1 0.446860 0.250000 0.261309
O O2 0.389551 0.110450 0.270209
O O3 0.532611 0.141738 0.309285
O O4 0.505732 0.138688 0.197865
O O5 0.250000 0.059612 0.986319
O O6 0.125191 0.125191 0.980026
O O7 0.160958 0.028267 0.895616
O O8 0.129178 0.980933 0.004183
O O9 0.540254 0.128170 0.633932
O O10 0.619296 0.017503 0.578011
O O11 0.511291 0.988710 0.653718
O O12 0.591554 0.114534 0.104877
O O13 0.487336 0.012665 0.136088
O O14 0.613126 0.029521 0.198380
O O15 0.250000 0.047617 0.618432
O O16 0.388512 0.111488 0.613156
O O17 0.344770 0.018224 0.529722
O O18 0.925263 0.250000 0.065669
O O19 0.842205 0.157796 0.000000
O O20 0.626777 0.126777 0.500000
O O21 0.750000 0.063774 0.536285
O O22 0.457493 0.250000 0.801020
O O23 0.377031 0.377031 0.808776
#
# Coordination Sequence:
#
# PCOD8315352 Si02
#       8
#    16  16  16  16  16  16  16  16
#     4  10  21  37  57  81 106 135 171 209 251 295
#     4   9  17  28  44  67  92 118 147 181 226 280
#     4   9  17  31  51  72  98 135 178 219 255 301
#     4  10  20  34  54  75  99 132 169 205 242 295
#     4   9  17  29  47  73 104 137 175 218 265 314
#     4  11  21  32  48  69  94 124 159 201 246 293
#     4   9  16  26  43  69 100 135 173 214 260 309
#     4   9  17  30  49  73  99 126 157 195 241 292
#
# _framework density 18.433256
#
# number of rings (size 3 to 8) (size 9 to 14) (size 15 to 20)
#    0.000    2.500    1.250    1.500    0.000    2.750 
#    0.000    1.875    0.000    3.000    0.000    3.500 
#    0.000    5.000    0.000    0.000    0.000    0.000 
#
# Total GULP energy -1585838.575815 kJ/mol
# GULP energy per Si atom -12389.363874 kJ/mol
# Density = 1.839130 g / cm^3
# Si number density = 18.433256 Si / 1000 Ang^3
#
#
#
# Elastic Constant Matrix: (Units=GPa)
#
#
# Indices 1 2 3 4 5 6 
#
# 1 100.2269 47.1629 19.6207 0.0000 0.0000 0.0000
# 2 47.1629 100.2260 19.6205 0.0000 0.0000 0.0000
# 3 19.6207 19.6205 45.1602 0.0000 0.0000 0.0000
# 4 0.0000 0.0000 0.0000 20.6509 0.0000 0.0000
# 5 0.0000 0.0000 0.0000 0.0000 20.6511 0.0000
# 6 0.0000 0.0000 0.0000 0.0000 0.0000 22.3835
#
#
#
# Elastic Compliance Matrix: (Units=1/GPa)
#
#
# Indices 1 2 3 4 5 6 
#
# 1 0.013259 -0.005587 -0.003333 0.000000 0.000000 0.000000
# 2 -0.005587 0.013259 -0.003333 0.000000 0.000000 0.000000
# 3 -0.003333 -0.003333 0.025040 0.000000 0.000000 0.000000
# 4 0.000000 0.000000 0.000000 0.048424 0.000000 0.000000
# 5 0.000000 0.000000 0.000000 0.000000 0.048424 0.000000
# 6 0.000000 0.000000 0.000000 0.000000 0.000000 0.044676
#
#
# Mechanical properties :
#
#
# Convention : Reuss Voigt Hill
#
# Bulk Modulus (GPa) = 36.96724 46.49123 41.72923
# Shear Modulus (GPa) = 22.06492 23.35104 22.70798
#
# Velocity S-wave (km/s) = 3.46355 3.56306 3.51366
# Velocity P-wave (km/s) = 6.00775 6.49641 6.25685
#
# Compressibility (1/GPa) = 0.02705098
#
# Stress axis : x y z
#
# Youngs Moduli (GPa) = 75.42206 75.42147 39.93643
#
# Poissons Ratio (x) = 0.42135 0.13312
# Poissons Ratio (y) = 0.42135 0.13312
# Poissons Ratio (z) = 0.25141 0.25140
#
# Static dielectric constant tensor:
#      x y z
#    x 3.466160 0.000000 0.000000 
#    y 0.000000 3.466160 0.000000 
#    z 0.000000 0.000000 3.243020 
# 
# 
# High freq. dielectric constant tensor:
#      x y z
#    x 1.708820 0.000000 0.000000 
#    y 0.000000 1.708820 0.000000 
#    z 0.000000 0.000000 1.697700 
# 
# From -- ./inp_files/7291.got.cif
#   From: 2010.03.12/outbox.cif.g09.slc.cpg/sg129_4_cif.got.tgz:7291.got - 2010.04.06 17:19:44.
