data_PCOD8315917
_publ_section_title
;
Structure prediction by ZEFSAII (Michael W. Deem and Ramdas Pophale) SiO2 
 PCOD8315917
Probable space group: P 42/M M C
;
_chemical_formula_sum "Si O2"
_cell_formula_units_Z 120
_cell_length_a 27.392188
_cell_length_b 27.392188
_cell_length_c 9.183398
_cell_angle_alpha 90.000000
_cell_angle_beta 90.000000
_cell_angle_gamma 90.000000
_cell_volume 6890.597052
_symmetry_space_group_name_H-M "P 42/M M C"
_symmetry_group_IT_number 131
_symmetry_cell_setting 'tetragonal'
loop_
_space_group_symop_operation_xyz
x,y,z
-x,-y,z
-y,x,1/2+z
y,-x,1/2+z
-x,y,-z
x,-y,-z
y,x,1/2-z
-y,-x,1/2-z
-x,-y,-z
x,y,-z
y,-x,1/2-z
-y,x,1/2-z
x,-y,z
-x,y,z
-y,-x,1/2+z
y,x,1/2+z
loop_
_atom_site_type_symbol
_atom_site_label
_atom_site_fract_x
_atom_site_fract_y
_atom_site_fract_z
Si Si1 0.443001 0.722829 0.166509
Si Si2 0.800440 0.868908 0.832670
Si Si3 0.372791 0.557382 0.831518
Si Si4 0.214919 0.720925 0.336699
Si Si5 0.057385 0.267117 0.829873
Si Si6 0.816286 0.616847 0.328019
Si Si7 0.086834 0.623993 0.827365
Si Si8 0.000000 0.555293 0.827249
O O1 0.500000 0.730718 0.186331
O O2 0.423980 0.678255 0.264579
O O3 0.418407 0.772646 0.219960
O O4 0.428852 0.711144 0.000000
O O5 0.849274 0.849274 0.750000
O O6 0.760129 0.827401 0.825255
O O7 0.777093 0.916330 0.755766
O O8 0.814032 0.881428 0.000000
O O9 0.417524 0.582477 0.750000
O O10 0.378946 0.500000 0.806422
O O11 0.373910 0.571720 0.000000
O O12 0.262445 0.737556 0.250000
O O13 0.232595 0.712278 0.500000
O O14 0.196170 0.670695 0.269958
O O15 0.075001 0.320597 0.774602
O O16 0.000000 0.262384 0.799817
O O17 0.069529 0.261042 0.000000
O O18 0.826144 0.615157 0.500000
O O19 0.864814 0.601740 0.244061
O O20 0.046201 0.586118 0.772290
O O21 0.091399 0.623680 0.000000
O O22 0.000000 0.500000 0.762450
O O23 0.000000 0.552477 0.000000
#
# Coordination Sequence:
#
# PCOD8315917 Si02
#       8
#    16  16  16  16  16  16  16   8
#     4   9  19  36  55  72  96 133 170 207 255 309
#     4  10  19  32  50  73 103 139 174 212 260 310
#     4  10  21  37  58  83 110 138 168 206 252 306
#     4   9  18  30  44  65  94 126 159 198 244 296
#     4  10  19  32  51  75 105 140 180 222 266 318
#     4  10  20  34  50  72 101 131 168 215 263 313
#     4  10  19  32  51  74  98 131 175 223 272 325
#     4   9  18  34  53  73  99 131 171 223 280 331
#
# _framework density 17.415035
#
# number of rings (size 3 to 8) (size 9 to 14) (size 15 to 20)
#    0.000    2.333    2.000    0.800    0.000    3.867 
#    0.000    2.333    0.000    0.400    0.000    0.000 
#    0.000    0.267    0.000    2.800    0.000    1.200 
#
# Total GULP energy -1487905.200137 kJ/mol
# GULP energy per Si atom -12399.210001 kJ/mol
# Density = 1.737540 g / cm^3
# Si number density = 17.415035 Si / 1000 Ang^3
#
#
#
# Elastic Constant Matrix: (Units=GPa)
#
#
# Indices 1 2 3 4 5 6 
#
# 1 88.4404 56.0348 47.0469 0.0000 0.0000 0.0000
# 2 56.0348 88.4534 47.0478 0.0000 0.0000 0.0000
# 3 47.0469 47.0478 72.6326 0.0000 0.0000 0.0000
# 4 0.0000 0.0000 0.0000 25.8165 0.0000 0.0000
# 5 0.0000 0.0000 0.0000 0.0000 25.8162 0.0000
# 6 0.0000 0.0000 0.0000 0.0000 0.0000 26.0474
#
#
#
# Elastic Compliance Matrix: (Units=1/GPa)
#
#
# Indices 1 2 3 4 5 6 
#
# 1 0.021414 -0.009441 -0.007756 0.000000 0.000000 0.000000
# 2 -0.009441 0.021410 -0.007753 0.000000 0.000000 0.000000
# 3 -0.007756 -0.007753 0.023814 0.000000 0.000000 0.000000
# 4 0.000000 0.000000 0.000000 0.038735 0.000000 0.000000
# 5 0.000000 0.000000 0.000000 0.000000 0.038735 0.000000
# 6 0.000000 0.000000 0.000000 0.000000 0.000000 0.038392
#
#
# Mechanical properties :
#
#
# Convention : Reuss Voigt Hill
#
# Bulk Modulus (GPa) = 59.74126 61.08725 60.41425
# Shear Modulus (GPa) = 21.01034 22.16248 21.58641
#
# Velocity S-wave (km/s) = 3.47716 3.57123 3.52451
# Velocity P-wave (km/s) = 7.10632 7.22208 7.16443
#
# Compressibility (1/GPa) = 0.01673885
#
# Stress axis : x y z
#
# Youngs Moduli (GPa) = 46.69790 46.70747 41.99271
#
# Poissons Ratio (x) = 0.44095 0.32568
# Poissons Ratio (y) = 0.44086 0.32558
# Poissons Ratio (z) = 0.36217 0.36213
#
# Static dielectric constant tensor:
#      x y z
#    x 3.227560 0.000000 0.000000 
#    y 0.000000 3.227560 0.000000 
#    z 0.000000 0.000000 3.212740 
# 
# 
# High freq. dielectric constant tensor:
#      x y z
#    x 1.665350 0.000000 0.000000 
#    y 0.000000 1.665350 0.000000 
#    z 0.000000 0.000000 1.665310 
# 
# From -- ./inp_files/2644.got.cif
#   From: 2010.03.12/outbox.cif.g09.slc.cpg/sg131_2_cif.got.tgz:2644.got - 2010.04.06 17:36:35.
