data_PCOD8315016
_publ_section_title
;
Structure prediction by ZEFSAII (Michael W. Deem and Ramdas Pophale) SiO2 
 PCOD8315016
Probable space group: P 4/N M M
;
_chemical_formula_sum "Si O2"
_cell_formula_units_Z 112
_cell_length_a 13.968565
_cell_length_b 13.968565
_cell_length_c 35.857946
_cell_angle_alpha 90.000000
_cell_angle_beta 90.000000
_cell_angle_gamma 90.000000
_cell_volume 6996.631402
_symmetry_space_group_name_H-M "P 4/N M M"
_symmetry_group_IT_number 129
_symmetry_cell_setting 'tetragonal'
loop_
_space_group_symop_operation_xyz
x,y,z
1/2-y,x,z
1/2-x,1/2-y,z
y,1/2-x,z
1/2+x,-y,-z
-x,1/2+y,-z
1/2+y,1/2+x,-z
-y,-x,-z
-x,-y,-z
1/2+y,-x,-z
1/2+x,1/2+y,-z
-y,1/2+x,-z
1/2-x,y,z
x,1/2-y,z
1/2-y,1/2-x,z
y,x,z
loop_
_atom_site_type_symbol
_atom_site_label
_atom_site_fract_x
_atom_site_fract_y
_atom_site_fract_z
Si Si1 0.860767 0.483242 0.973963
Si Si2 0.861387 0.141010 0.178537
Si Si3 0.981968 0.136636 0.609882
Si Si4 0.636846 0.142749 0.319605
Si Si5 0.363544 0.643711 0.541098
Si Si6 0.363233 0.981537 0.750469
Si Si7 0.140846 0.987721 0.110384
O O1 0.750000 0.504353 0.982706
O O2 0.919212 0.580789 0.981987
O O3 0.876028 0.448268 0.931398
O O4 0.897680 0.397680 0.000000
O O5 0.750000 0.131695 0.171515
O O6 0.889438 0.250000 0.188880
O O7 0.894115 0.072855 0.212000
O O8 0.908981 0.106483 0.140046
O O9 0.002379 0.250000 0.610268
O O10 0.083560 0.083560 0.613506
O O11 0.913285 0.104491 0.643516
O O12 0.930521 0.100813 0.572129
O O13 0.750000 0.151777 0.318566
O O14 0.592171 0.250000 0.319650
O O15 0.601602 0.084802 0.283523
O O16 0.394071 0.605930 0.500000
O O17 0.250000 0.651742 0.542754
O O18 0.406597 0.750000 0.548797
O O19 0.250000 0.002109 0.748634
O O20 0.416905 0.083096 0.748577
O O21 0.250000 0.015354 0.116862
O O22 0.084748 0.084748 0.117563
#
# Coordination Sequence:
#
# PCOD8315016 Si02
#       7
#    16  16  16  16  16  16  16
#     4   9  18  31  46  66  91 118 149 185 225 270
#     4   9  17  29  45  65  88 114 146 184 222 254
#     4  10  19  29  42  62  89 119 147 174 207 252
#     4   9  17  30  47  64  82 105 136 177 219 251
#     4   8  14  26  44  64  85 109 140 183 230 263
#     4  10  19  30  45  65  90 119 147 174 207 250
#     4   9  17  29  45  65  89 115 143 177 218 265
#
# _framework density 16.007704
#
# number of rings (size 3 to 8) (size 9 to 14) (size 15 to 20)
#    0.000    2.857    0.000    2.143    0.000    5.000 
#    0.000    2.857    0.000    2.571    0.000    0.000 
#    0.000   26.000    0.000    0.000    0.000    0.000 
#
# Total GULP energy -1388471.501815 kJ/mol
# GULP energy per Si atom -12397.066980 kJ/mol
# Density = 1.597127 g / cm^3
# Si number density = 16.007704 Si / 1000 Ang^3
#
#
#
# Elastic Constant Matrix: (Units=GPa)
#
#
# Indices 1 2 3 4 5 6 
#
# 1 71.9560 43.5007 53.6052 0.0000 0.0000 0.0000
# 2 43.5007 71.9561 53.6052 0.0000 0.0000 0.0000
# 3 53.6052 53.6052 128.1620 0.0000 0.0000 0.0000
# 4 0.0000 0.0000 0.0000 19.7652 0.0000 0.0000
# 5 0.0000 0.0000 0.0000 0.0000 19.7651 0.0000
# 6 0.0000 0.0000 0.0000 0.0000 0.0000 20.5927
#
#
#
# Elastic Compliance Matrix: (Units=1/GPa)
#
#
# Indices 1 2 3 4 5 6 
#
# 1 0.024652 -0.010491 -0.005923 0.000000 0.000000 0.000000
# 2 -0.010491 0.024652 -0.005923 0.000000 0.000000 0.000000
# 3 -0.005923 -0.005923 0.012757 0.000000 0.000000 0.000000
# 4 0.000000 0.000000 0.000000 0.050594 0.000000 0.000000
# 5 0.000000 0.000000 0.000000 0.000000 0.050594 0.000000
# 6 0.000000 0.000000 0.000000 0.000000 0.000000 0.048561
#
#
# Mechanical properties :
#
#
# Convention : Reuss Voigt Hill
#
# Bulk Modulus (GPa) = 57.51229 63.72182 60.61705
# Shear Modulus (GPa) = 19.06356 20.11547 19.58952
#
# Velocity S-wave (km/s) = 3.45468 3.54872 3.50202
# Velocity P-wave (km/s) = 7.20548 7.52892 7.36898
#
# Compressibility (1/GPa) = 0.01738759
#
# Stress axis : x y z
#
# Youngs Moduli (GPa) = 40.56450 40.56459 78.38543
#
# Poissons Ratio (x) = 0.42555 0.46429
# Poissons Ratio (y) = 0.42555 0.46429
# Poissons Ratio (z) = 0.24027 0.24027
#
# Static dielectric constant tensor:
#      x y z
#    x 2.883490 0.000000 0.000000 
#    y 0.000000 2.883490 0.000000 
#    z 0.000000 0.000000 3.367880 
# 
# 
# High freq. dielectric constant tensor:
#      x y z
#    x 1.594460 0.000000 0.000000 
#    y 0.000000 1.594460 0.000000 
#    z 0.000000 0.000000 1.633040 
# 
# From -- ./inp_files/7906.got.cif
#   From: 2010.03.12/outbox.cif.g09.slc.cpg/sg129_4_cif.got.tgz:7906.got - 2010.04.06 17:19:44.
