data_PCOD8315373
_publ_section_title
;
Structure prediction by ZEFSAII (Michael W. Deem and Ramdas Pophale) SiO2 
 PCOD8315373
Probable space group: P 4/N M M
;
_chemical_formula_sum "Si O2"
_cell_formula_units_Z 112
_cell_length_a 27.798215
_cell_length_b 27.798215
_cell_length_c 7.210436
_cell_angle_alpha 90.000000
_cell_angle_beta 90.000000
_cell_angle_gamma 90.000000
_cell_volume 5571.797774
_symmetry_space_group_name_H-M "P 4/N M M"
_symmetry_group_IT_number 129
_symmetry_cell_setting 'tetragonal'
loop_
_space_group_symop_operation_xyz
x,y,z
1/2-y,x,z
1/2-x,1/2-y,z
y,1/2-x,z
1/2+x,-y,-z
-x,1/2+y,-z
1/2+y,1/2+x,-z
-y,-x,-z
-x,-y,-z
1/2+y,-x,-z
1/2+x,1/2+y,-z
-y,1/2+x,-z
1/2-x,y,z
x,1/2-y,z
1/2-y,1/2-x,z
y,x,z
loop_
_atom_site_type_symbol
_atom_site_label
_atom_site_fract_x
_atom_site_fract_y
_atom_site_fract_z
Si Si1 0.053900 0.196085 0.405183
Si Si2 0.694389 0.883136 0.929360
Si Si3 0.303695 0.547660 0.308371
Si Si4 0.937669 0.485182 0.178374
Si Si5 0.562104 0.639957 0.223872
Si Si6 0.421317 0.635615 0.371069
Si Si7 0.692301 0.116085 0.022215
O O1 0.060614 0.250000 0.484008
O O2 0.046246 0.161264 0.579201
O O3 0.008870 0.195408 0.259216
O O4 0.099229 0.181548 0.278587
O O5 0.750000 0.870743 0.951250
O O6 0.665396 0.834605 0.968823
O O7 0.681086 0.924555 0.077241
O O8 0.250000 0.566727 0.347234
O O9 0.332841 0.545096 0.499166
O O10 0.325055 0.581841 0.147308
O O11 0.892497 0.519817 0.132622
O O12 0.916096 0.445445 0.318896
O O13 0.982011 0.517990 0.260427
O O14 0.956791 0.456791 0.000000
O O15 0.608445 0.608445 0.265521
O O16 0.374934 0.625067 0.500000
O O17 0.408431 0.669264 0.200081
O O18 0.750000 0.120169 0.040115
O O19 0.669385 0.169385 0.000000
#
# Coordination Sequence:
#
# PCOD8315373 Si02
#       7
#    16  16  16  16  16  16  16
#     4  10  20  35  59  90 119 151 198 253 308 371
#     4  10  22  38  59  88 122 162 208 260 315 374
#     4  10  22  39  60  90 122 156 202 252 308 374
#     4  10  23  41  60  88 127 168 209 251 310 378
#     4  10  20  37  59  82 118 162 202 251 305 363
#     4  12  23  39  66  90 123 162 208 257 310 372
#     4  11  24  43  66  94 129 166 210 264 320 377
#
# _framework density 20.101230999999999
#
# number of rings (size 3 to 8) (size 9 to 14) (size 15 to 20)
#    0.000    1.571    2.857    1.714    2.000    0.571 
#    0.000    0.000    0.000    0.000    0.000    2.000 
#    0.000    0.000    0.000    0.000    0.000    0.000 
#
# Total GULP energy -1387797.914367 kJ/mol
# GULP energy per Si atom -12391.052807 kJ/mol
# Density = 2.005548 g / cm^3
# Si number density = 20.101231 Si / 1000 Ang^3
#
#
#
# Elastic Constant Matrix: (Units=GPa)
#
#
# Indices 1 2 3 4 5 6 
#
# 1 99.9215 47.8542 58.2915 0.0000 0.0000 0.0000
# 2 47.8542 99.9202 58.2913 0.0000 0.0000 0.0000
# 3 58.2915 58.2913 121.4313 0.0000 0.0000 0.0000
# 4 0.0000 0.0000 0.0000 35.0120 0.0000 0.0000
# 5 0.0000 0.0000 0.0000 0.0000 35.0125 0.0000
# 6 0.0000 0.0000 0.0000 0.0000 0.0000 29.6523
#
#
#
# Elastic Compliance Matrix: (Units=1/GPa)
#
#
# Indices 1 2 3 4 5 6 
#
# 1 0.015049 -0.004157 -0.005228 0.000000 0.000000 0.000000
# 2 -0.004157 0.015049 -0.005229 0.000000 0.000000 0.000000
# 3 -0.005228 -0.005229 0.013255 0.000000 0.000000 0.000000
# 4 0.000000 0.000000 0.000000 0.028562 0.000000 0.000000
# 5 0.000000 0.000000 0.000000 0.000000 0.028561 0.000000
# 6 0.000000 0.000000 0.000000 0.000000 0.000000 0.033724
#
#
# Mechanical properties :
#
#
# Convention : Reuss Voigt Hill
#
# Bulk Modulus (GPa) = 70.79824 72.23857 71.51840
# Shear Modulus (GPa) = 29.73773 30.39108 30.06441
#
# Velocity S-wave (km/s) = 3.85047 3.89254 3.87156
# Velocity P-wave (km/s) = 7.42061 7.49786 7.45933
#
# Compressibility (1/GPa) = 0.01412465
#
# Stress axis : x y z
#
# Youngs Moduli (GPa) = 66.44992 66.44882 75.44399
#
# Poissons Ratio (x) = 0.27624 0.39446
# Poissons Ratio (y) = 0.27624 0.39446
# Poissons Ratio (z) = 0.34743 0.34743
#
# Static dielectric constant tensor:
#      x y z
#    x 3.722900 0.000000 0.000000 
#    y 0.000000 3.722910 0.000000 
#    z 0.000000 0.000000 3.554070 
# 
# 
# High freq. dielectric constant tensor:
#      x y z
#    x 1.787940 0.000000 0.000000 
#    y 0.000000 1.787940 0.000000 
#    z 0.000000 0.000000 1.779550 
# 
# From -- ./inp_files/1203.got.cif
#   From: 2010.03.12/outbox.cif.g09.slc.cpg/sg129_1_cif.got.tgz:1203.got - 2010.04.06 17:19:44.
