data_PCOD8315997
_publ_section_title
;
Structure prediction by ZEFSAII (Michael W. Deem and Ramdas Pophale) SiO2 
 PCOD8315997
Probable space group: P 42/M M C
;
_chemical_formula_sum "Si O2"
_cell_formula_units_Z 72
_cell_length_a 20.255406
_cell_length_b 20.255406
_cell_length_c 9.633154
_cell_angle_alpha 90.000000
_cell_angle_beta 90.000000
_cell_angle_gamma 90.000000
_cell_volume 3952.304605
_symmetry_space_group_name_H-M "P 42/M M C"
_symmetry_group_IT_number 131
_symmetry_cell_setting 'tetragonal'
loop_
_space_group_symop_operation_xyz
x,y,z
-x,-y,z
-y,x,1/2+z
y,-x,1/2+z
-x,y,-z
x,-y,-z
y,x,1/2-z
-y,-x,1/2-z
-x,-y,-z
x,y,-z
y,-x,1/2-z
-y,x,1/2-z
x,-y,z
-x,y,z
-y,-x,1/2+z
y,x,1/2+z
loop_
_atom_site_type_symbol
_atom_site_label
_atom_site_fract_x
_atom_site_fract_y
_atom_site_fract_z
Si Si1 0.100368 0.349269 0.161969
Si Si2 0.358791 0.251668 0.735391
Si Si3 0.576711 0.332162 0.500000
Si Si4 0.000000 0.240401 0.839306
Si Si5 0.577108 0.299775 0.000000
Si Si6 0.000000 0.422873 0.656468
Si Si7 0.093501 0.000000 0.671493
O O1 0.177656 0.343632 0.190117
O O2 0.065984 0.280119 0.203450
O O3 0.066076 0.403898 0.258589
O O4 0.087536 0.366389 0.000000
O O5 0.288864 0.288864 0.750000
O O6 0.408445 0.287423 0.631499
O O7 0.398605 0.254024 0.876339
O O8 0.500000 0.355281 0.500000
O O9 0.625379 0.395054 0.500000
O O10 0.000000 0.168382 0.773931
O O11 0.000000 0.227771 0.000000
O O12 0.500000 0.308758 0.000000
O O13 0.000000 0.500000 0.641090
O O14 0.000000 0.391626 0.500000
O O15 0.063007 0.936994 0.750000
O O16 0.083507 0.000000 0.500000
#
# Coordination Sequence:
#
# PCOD8315997 Si02
#       7
#    16  16   8   8   8   8   8
#     4  10  20  39  60  80 109 148 191 234 277 330
#     4  10  21  37  58  83 114 147 188 240 289 338
#     4  10  20  37  58  83 109 143 194 240 280 342
#     4   8  18  35  57  79 106 143 182 226 272 319
#     4  10  22  37  54  81 117 151 182 230 294 350
#     4  10  23  39  54  81 116 144 180 230 282 335
#     4  10  19  34  56  81 114 146 181 224 266 315
#
# _framework density 18.217219
#
# number of rings (size 3 to 8) (size 9 to 14) (size 15 to 20)
#    0.000    2.222    1.111    2.333    1.556    3.778 
#    0.000    4.444    0.000    4.000    0.000    0.000 
#    0.000    0.000    0.000    0.000    0.000    0.000 
#
# Total GULP energy -892241.241192 kJ/mol
# GULP energy per Si atom -12392.239461 kJ/mol
# Density = 1.817576 g / cm^3
# Si number density = 18.217219 Si / 1000 Ang^3
#
#
#
# Elastic Constant Matrix: (Units=GPa)
#
#
# Indices 1 2 3 4 5 6 
#
# 1 126.2275 39.9469 40.3685 0.0000 0.0000 0.0000
# 2 39.9469 126.2282 40.3685 0.0000 0.0000 0.0000
# 3 40.3685 40.3685 131.7586 0.0000 0.0000 0.0000
# 4 0.0000 0.0000 0.0000 32.2057 0.0000 0.0000
# 5 0.0000 0.0000 0.0000 0.0000 32.2055 0.0000
# 6 0.0000 0.0000 0.0000 0.0000 0.0000 62.1334
#
#
#
# Elastic Compliance Matrix: (Units=1/GPa)
#
#
# Indices 1 2 3 4 5 6 
#
# 1 0.009330 -0.002260 -0.002166 0.000000 0.000000 0.000000
# 2 -0.002260 0.009330 -0.002166 0.000000 0.000000 0.000000
# 3 -0.002166 -0.002166 0.008917 0.000000 0.000000 0.000000
# 4 0.000000 0.000000 0.000000 0.031050 0.000000 0.000000
# 5 0.000000 0.000000 0.000000 0.000000 0.031051 0.000000
# 6 0.000000 0.000000 0.000000 0.000000 0.000000 0.016094
#
#
# Mechanical properties :
#
#
# Convention : Reuss Voigt Hill
#
# Bulk Modulus (GPa) = 69.47975 69.50911 69.49443
# Shear Modulus (GPa) = 40.40249 42.87762 41.64005
#
# Velocity S-wave (km/s) = 4.71448 4.85674 4.78614
# Velocity P-wave (km/s) = 8.23757 8.34800 8.29297
#
# Compressibility (1/GPa) = 0.01439268
#
# Stress axis : x y z
#
# Youngs Moduli (GPa) = 107.17936 107.18001 112.14538
#
# Poissons Ratio (x) = 0.24222 0.24293
# Poissons Ratio (y) = 0.24222 0.24293
# Poissons Ratio (z) = 0.23217 0.23217
#
# Static dielectric constant tensor:
#      x y z
#    x 3.325780 0.000000 0.000000 
#    y 0.000000 3.325780 0.000000 
#    z 0.000000 0.000000 3.602760 
# 
# 
# High freq. dielectric constant tensor:
#      x y z
#    x 1.703480 0.000000 0.000000 
#    y 0.000000 1.703480 0.000000 
#    z 0.000000 0.000000 1.719740 
# 
# From -- ./inp_files/1926.got.cif
#   From: 2010.03.12/outbox.cif.g09.slc.cpg/sg131_1_cif.got.tgz:1926.got - 2010.04.06 17:36:35.
