data_PCOD8315731
_publ_section_title
;
Structure prediction by ZEFSAII (Michael W. Deem and Ramdas Pophale) SiO2 
 PCOD8315731
Probable space group: P 42/M M C
;
_chemical_formula_sum "Si O2"
_cell_formula_units_Z 120
_cell_length_a 27.147486
_cell_length_b 27.147486
_cell_length_c 8.733577
_cell_angle_alpha 90.000000
_cell_angle_beta 90.000000
_cell_angle_gamma 90.000000
_cell_volume 6436.523945
_symmetry_space_group_name_H-M "P 42/M M C"
_symmetry_group_IT_number 131
_symmetry_cell_setting 'tetragonal'
loop_
_space_group_symop_operation_xyz
x,y,z
-x,-y,z
-y,x,1/2+z
y,-x,1/2+z
-x,y,-z
x,-y,-z
y,x,1/2-z
-y,-x,1/2-z
-x,-y,-z
x,y,-z
y,-x,1/2-z
-y,x,1/2-z
x,-y,z
-x,y,z
-y,-x,1/2+z
y,x,1/2+z
loop_
_atom_site_type_symbol
_atom_site_label
_atom_site_fract_x
_atom_site_fract_y
_atom_site_fract_z
Si Si1 0.054829 0.727454 0.678939
Si Si2 0.624824 0.086281 0.318928
Si Si3 0.770154 0.154518 0.820165
Si Si4 0.000000 0.445433 0.181129
Si Si5 0.368988 0.443481 0.817985
Si Si6 0.700212 0.775471 0.317589
Si Si7 0.167824 0.446820 0.181053
Si Si8 0.598170 0.733467 0.319577
O O1 0.050748 0.719467 0.500000
O O2 0.074149 0.676503 0.745506
O O3 0.095281 0.770647 0.713559
O O4 0.000000 0.741187 0.744411
O O5 0.632837 0.085905 0.500000
O O6 0.601193 0.138094 0.259517
O O7 0.584231 0.047427 0.263397
O O8 0.818448 0.181553 0.750000
O O9 0.717312 0.171400 0.746462
O O10 0.769860 0.166058 0.000000
O O11 0.000000 0.500000 0.255071
O O12 0.000000 0.450187 0.000000
O O13 0.416276 0.416276 0.750000
O O14 0.370452 0.500000 0.763371
O O15 0.319251 0.418007 0.750730
O O16 0.370225 0.440184 0.000000
O O17 0.742579 0.742579 0.250000
O O18 0.698774 0.777531 0.500000
O O19 0.649567 0.753492 0.250600
O O20 0.149798 0.500000 0.247136
O O21 0.225508 0.442215 0.222912
O O22 0.160394 0.447481 0.000000
O O23 0.603609 0.727338 0.500000
#
# Coordination Sequence:
#
# PCOD8315731 Si02
#       8
#    16  16  16   8  16  16  16  16
#     4  10  21  36  52  71  99 134 169 203 245 297
#     4  10  18  29  47  72  97 127 169 216 259 295
#     4  10  20  34  52  74 102 136 170 206 246 290
#     4   9  16  26  41  65  97 129 169 223 272 303
#     4  10  21  37  56  75  95 119 147 183 229 285
#     4  10  18  29  47  72 101 129 159 195 234 284
#     4   9  16  26  43  67  93 121 157 203 251 292
#     4   9  17  29  46  70  97 124 155 192 234 284
#
# _framework density 18.643605000000001
#
# number of rings (size 3 to 8) (size 9 to 14) (size 15 to 20)
#    0.000    2.333    0.667    3.600    0.000    5.733 
#    0.000    1.333    0.000    2.800    0.000    0.000 
#    0.000    0.267    0.000    3.333    0.000    0.000 
#
# Total GULP energy -1486641.435733 kJ/mol
# GULP energy per Si atom -12388.678631 kJ/mol
# Density = 1.860117 g / cm^3
# Si number density = 18.643605 Si / 1000 Ang^3
#
#
#
# Elastic Constant Matrix: (Units=GPa)
#
#
# Indices 1 2 3 4 5 6 
#
# 1 122.9865 56.1323 23.6534 0.0000 0.0000 0.0000
# 2 56.1323 122.9875 23.6529 0.0000 0.0000 0.0000
# 3 23.6534 23.6529 29.1966 0.0000 0.0000 0.0000
# 4 0.0000 0.0000 0.0000 8.9945 0.0000 0.0000
# 5 0.0000 0.0000 0.0000 0.0000 8.9946 0.0000
# 6 0.0000 0.0000 0.0000 0.0000 0.0000 26.6750
#
#
#
# Elastic Compliance Matrix: (Units=1/GPa)
#
#
# Indices 1 2 3 4 5 6 
#
# 1 0.011030 -0.003928 -0.005754 0.000000 0.000000 0.000000
# 2 -0.003928 0.011030 -0.005754 0.000000 0.000000 0.000000
# 3 -0.005754 -0.005754 0.043574 0.000000 0.000000 0.000000
# 4 0.000000 0.000000 0.000000 0.111179 0.000000 0.000000
# 5 0.000000 0.000000 0.000000 0.000000 0.111178 0.000000
# 6 0.000000 0.000000 0.000000 0.000000 0.000000 0.037488
#
#
# Mechanical properties :
#
#
# Convention : Reuss Voigt Hill
#
# Bulk Modulus (GPa) = 28.76648 53.56085 41.16366
# Shear Modulus (GPa) = 13.58925 20.38162 16.98543
#
# Velocity S-wave (km/s) = 2.70274 3.30998 3.02165
# Velocity P-wave (km/s) = 5.02025 6.58780 5.85671
#
# Compressibility (1/GPa) = 0.03476268
#
# Stress axis : x y z
#
# Youngs Moduli (GPa) = 90.65965 90.66128 22.94967
#
# Poissons Ratio (x) = 0.35608 0.13206
# Poissons Ratio (y) = 0.35608 0.13205
# Poissons Ratio (z) = 0.52167 0.52165
#
# Static dielectric constant tensor:
#      x y z
#    x 3.682840 0.000000 0.000000 
#    y 0.000000 3.682840 0.000000 
#    z 0.000000 0.000000 3.065780 
# 
# 
# High freq. dielectric constant tensor:
#      x y z
#    x 1.722610 0.000000 0.000000 
#    y 0.000000 1.722610 0.000000 
#    z 0.000000 0.000000 1.682420 
# 
# From -- ./inp_files/2628.got.cif
#   From: 2010.03.12/outbox.cif.g09.slc.cpg/sg131_2_cif.got.tgz:2628.got - 2010.04.06 17:36:35.
