data_PCOD8315862
_publ_section_title
;
Structure prediction by ZEFSAII (Michael W. Deem and Ramdas Pophale) SiO2 
 PCOD8315862
Probable space group: P 42/M M C
;
_chemical_formula_sum "Si O2"
_cell_formula_units_Z 88
_cell_length_a 18.958204
_cell_length_b 18.958204
_cell_length_c 14.594112
_cell_angle_alpha 90.000000
_cell_angle_beta 90.000000
_cell_angle_gamma 90.000000
_cell_volume 5245.320857
_symmetry_space_group_name_H-M "P 42/M M C"
_symmetry_group_IT_number 131
_symmetry_cell_setting 'tetragonal'
loop_
_space_group_symop_operation_xyz
x,y,z
-x,-y,z
-y,x,1/2+z
y,-x,1/2+z
-x,y,-z
x,-y,-z
y,x,1/2-z
-y,-x,1/2-z
-x,-y,-z
x,y,-z
y,-x,1/2-z
-y,x,1/2-z
x,-y,z
-x,y,z
-y,-x,1/2+z
y,x,1/2+z
loop_
_atom_site_type_symbol
_atom_site_label
_atom_site_fract_x
_atom_site_fract_y
_atom_site_fract_z
Si Si1 0.918240 0.918240 0.250000
Si Si2 0.282278 0.416567 0.896272
Si Si3 0.581474 0.198217 0.776468
Si Si4 0.421136 0.665447 0.893086
Si Si5 0.917590 0.344078 0.606708
Si Si6 0.083053 0.815383 0.401600
O O1 0.874425 0.887137 0.165623
O O2 0.000000 0.903514 0.230136
O O3 0.287562 0.500000 0.890312
O O4 0.222508 0.389134 0.824376
O O5 0.360145 0.389882 0.866345
O O6 0.262644 0.391870 0.000000
O O7 0.500000 0.181173 0.766358
O O8 0.597119 0.261129 0.845843
O O9 0.614163 0.127259 0.818071
O O10 0.500000 0.638415 0.863656
O O11 0.419855 0.680671 0.000000
O O12 0.898600 0.361695 0.500000
O O13 0.899241 0.263346 0.630081
O O14 0.000000 0.360688 0.622950
O O15 0.118393 0.829921 0.500000
O O16 0.000000 0.824149 0.409889
#
# Coordination Sequence:
#
# PCOD8315862 Si02
#       6
#     8  16  16  16  16  16
#     4   9  16  26  44  70  96 124 158 190 219 256
#     4   9  18  32  48  67  95 131 166 195 225 271
#     4  10  19  31  48  69  94 121 150 193 244 283
#     4   9  17  29  46  70  99 127 157 197 240 279
#     4   9  18  33  52  71  92 119 150 190 243 297
#     4   8  15  29  46  65  92 122 150 183 225 271
#
# _framework density 16.776858000000001
#
# number of rings (size 3 to 8) (size 9 to 14) (size 15 to 20)
#    0.000    3.000    0.000    2.182    0.000    2.182 
#    3.273    4.545    0.000    3.818    0.000    5.091 
#    0.000    0.000    0.000    0.000    0.000    0.000 
#
# Total GULP energy -1090287.580816 kJ/mol
# GULP energy per Si atom -12389.631600 kJ/mol
# Density = 1.673867 g / cm^3
# Si number density = 16.776858 Si / 1000 Ang^3
#
#
#
# Elastic Constant Matrix: (Units=GPa)
#
#
# Indices 1 2 3 4 5 6 
#
# 1 65.3976 40.1844 57.5269 0.0000 0.0000 0.0000
# 2 40.1844 65.3976 57.5269 0.0000 0.0000 0.0000
# 3 57.5269 57.5269 100.0042 0.0000 0.0000 0.0000
# 4 0.0000 0.0000 0.0000 56.0865 0.0000 0.0000
# 5 0.0000 0.0000 0.0000 0.0000 56.0865 0.0000
# 6 0.0000 0.0000 0.0000 0.0000 0.0000 19.5836
#
#
#
# Elastic Compliance Matrix: (Units=1/GPa)
#
#
# Indices 1 2 3 4 5 6 
#
# 1 0.032522 -0.007140 -0.014601 0.000000 0.000000 0.000000
# 2 -0.007140 0.032522 -0.014601 0.000000 0.000000 0.000000
# 3 -0.014601 -0.014601 0.026798 0.000000 0.000000 0.000000
# 4 0.000000 0.000000 0.000000 0.017830 0.000000 0.000000
# 5 0.000000 0.000000 0.000000 0.000000 0.017830 0.000000
# 6 0.000000 0.000000 0.000000 0.000000 0.000000 0.051063
#
#
# Mechanical properties :
#
#
# Convention : Reuss Voigt Hill
#
# Bulk Modulus (GPa) = 52.19670 60.14177 56.16923
# Shear Modulus (GPa) = 19.40742 31.38874 25.39808
#
# Velocity S-wave (km/s) = 3.40486 4.33015 3.89508
# Velocity P-wave (km/s) = 6.82915 7.80552 7.33360
#
# Compressibility (1/GPa) = 0.01915830
#
# Stress axis : x y z
#
# Youngs Moduli (GPa) = 30.74851 30.74851 37.31642
#
# Poissons Ratio (x) = 0.21954 0.54486
# Poissons Ratio (y) = 0.21954 0.54486
# Poissons Ratio (z) = 0.44896 0.44896
#
# Static dielectric constant tensor:
#      x y z
#    x 3.030710 0.000000 0.000000 
#    y 0.000000 3.030710 0.000000 
#    z 0.000000 0.000000 3.011000 
# 
# 
# High freq. dielectric constant tensor:
#      x y z
#    x 1.627730 0.000000 0.000000 
#    y 0.000000 1.627730 0.000000 
#    z 0.000000 0.000000 1.653920 
# 
# From -- ./inp_files/5914.got.cif
#   From: 2010.03.12/outbox.cif.g09.slc.cpg/sg131_3_cif.got.tgz:5914.got - 2010.04.06 17:36:35.
