data_PCOD8315838
_publ_section_title
;
Structure prediction by ZEFSAII (Michael W. Deem and Ramdas Pophale) SiO2 
 PCOD8315838
Probable space group: P 42/M M C
;
_chemical_formula_sum "Si O2"
_cell_formula_units_Z 112
_cell_length_a 18.965918
_cell_length_b 18.965918
_cell_length_c 18.978517
_cell_angle_alpha 90.000000
_cell_angle_beta 90.000000
_cell_angle_gamma 90.000000
_cell_volume 6826.687301
_symmetry_space_group_name_H-M "P 42/M M C"
_symmetry_group_IT_number 131
_symmetry_cell_setting 'tetragonal'
loop_
_space_group_symop_operation_xyz
x,y,z
-x,-y,z
-y,x,1/2+z
y,-x,1/2+z
-x,y,-z
x,-y,-z
y,x,1/2-z
-y,-x,1/2-z
-x,-y,-z
x,y,-z
y,-x,1/2-z
-y,x,1/2-z
x,-y,z
-x,y,z
-y,-x,1/2+z
y,x,1/2+z
loop_
_atom_site_type_symbol
_atom_site_label
_atom_site_fract_x
_atom_site_fract_y
_atom_site_fract_z
Si Si1 0.287764 0.713307 0.331604
Si Si2 0.202856 0.579345 0.668173
Si Si3 0.803407 0.925117 0.916961
Si Si4 0.644672 0.919930 0.582682
Si Si5 0.796768 0.578797 0.830960
Si Si6 0.919685 0.644273 0.418399
Si Si7 0.164535 0.222402 0.918152
O O1 0.272176 0.727825 0.250000
O O2 0.266928 0.632922 0.351516
O O3 0.369476 0.731302 0.349892
O O4 0.239839 0.765247 0.376124
O O5 0.229397 0.500000 0.651823
O O6 0.181935 0.587510 0.749798
O O7 0.132330 0.594201 0.624743
O O8 0.724046 0.911443 0.889434
O O9 0.854128 0.858974 0.897477
O O10 0.832487 0.000000 0.885791
O O11 0.797926 0.933277 0.000000
O O12 0.628979 0.912201 0.500000
O O13 0.594111 0.866816 0.623783
O O14 0.726282 0.900394 0.600092
O O15 0.631368 0.000000 0.607858
O O16 0.770829 0.500000 0.848369
O O17 0.898354 0.639051 0.500000
O O18 0.000000 0.618250 0.407011
O O19 0.184285 0.228442 0.000000
#
# Coordination Sequence:
#
# PCOD8315838 Si02
#       7
#    16  16  16  16  16  16  16
#     4   9  17  30  46  63  85 111 140 180 217 255
#     4  10  19  30  45  65  90 119 147 177 213 252
#     4   8  13  22  39  62  85 111 144 179 209 238
#     4   9  18  31  47  68  90 112 141 180 226 271
#     4   9  19  33  48  66  86 112 143 176 220 268
#     4   9  17  28  41  61  92 125 152 176 202 237
#     4   9  15  26  46  64  83 114 148 181 215 253
#
# _framework density 16.406200999999999
#
# number of rings (size 3 to 8) (size 9 to 14) (size 15 to 20)
#    0.000    3.000    1.429    0.857    0.000    1.714 
#    0.000    2.857    0.000    0.857    0.000    6.000 
#    0.000    0.000    0.000   11.714    0.000   13.714 
#
# Total GULP energy -1387676.396387 kJ/mol
# GULP energy per Si atom -12389.967825 kJ/mol
# Density = 1.636886 g / cm^3
# Si number density = 16.406201 Si / 1000 Ang^3
#
#
#
# Elastic Constant Matrix: (Units=GPa)
#
#
# Indices 1 2 3 4 5 6 
#
# 1 98.9023 45.9767 28.0329 0.0000 0.0000 0.0000
# 2 45.9767 98.9022 28.0329 0.0000 0.0000 0.0000
# 3 28.0329 28.0329 32.4617 0.0000 0.0000 0.0000
# 4 0.0000 0.0000 0.0000 19.1818 0.0000 0.0000
# 5 0.0000 0.0000 0.0000 0.0000 19.1818 0.0000
# 6 0.0000 0.0000 0.0000 0.0000 0.0000 18.3675
#
#
#
# Elastic Compliance Matrix: (Units=1/GPa)
#
#
# Indices 1 2 3 4 5 6 
#
# 1 0.014631 -0.004264 -0.008952 0.000000 0.000000 0.000000
# 2 -0.004264 0.014631 -0.008952 0.000000 0.000000 0.000000
# 3 -0.008952 -0.008952 0.046268 0.000000 0.000000 0.000000
# 4 0.000000 0.000000 0.000000 0.052133 0.000000 0.000000
# 5 0.000000 0.000000 0.000000 0.000000 0.052133 0.000000
# 6 0.000000 0.000000 0.000000 0.000000 0.000000 0.054444
#
#
# Mechanical properties :
#
#
# Convention : Reuss Voigt Hill
#
# Bulk Modulus (GPa) = 32.06002 48.26122 40.16062
# Shear Modulus (GPa) = 17.30266 19.89447 18.59857
#
# Velocity S-wave (km/s) = 3.25105 3.48605 3.37060
# Velocity P-wave (km/s) = 5.80312 6.75897 6.29920
#
# Compressibility (1/GPa) = 0.03119150
#
# Stress axis : x y z
#
# Youngs Moduli (GPa) = 68.34992 68.34976 21.61338
#
# Poissons Ratio (x) = 0.29143 0.19349
# Poissons Ratio (y) = 0.29143 0.19349
# Poissons Ratio (z) = 0.61189 0.61190
#
# Static dielectric constant tensor:
#      x y z
#    x 3.215930 0.000000 0.000000 
#    y 0.000000 3.215930 0.000000 
#    z 0.000000 0.000000 2.967170 
# 
# 
# High freq. dielectric constant tensor:
#      x y z
#    x 1.619830 0.000000 0.000000 
#    y 0.000000 1.619830 0.000000 
#    z 0.000000 0.000000 1.615640 
# 
# From -- ./inp_files/10056.got.cif
#   From: 2010.03.12/outbox.cif.g09.slc.cpg/sg131_6_cif.got.tgz:10056.got - 2010.04.06 17:36:35.
