data_PCOD8315783
_publ_section_title
;
Structure prediction by ZEFSAII (Michael W. Deem and Ramdas Pophale) SiO2 
 PCOD8315783
Probable space group: P 42/M M C
;
_chemical_formula_sum "Si O2"
_cell_formula_units_Z 104
_cell_length_a 17.654367
_cell_length_b 17.654367
_cell_length_c 17.132761
_cell_angle_alpha 90.000000
_cell_angle_beta 90.000000
_cell_angle_gamma 90.000000
_cell_volume 5339.881968
_symmetry_space_group_name_H-M "P 42/M M C"
_symmetry_group_IT_number 131
_symmetry_cell_setting 'tetragonal'
loop_
_space_group_symop_operation_xyz
x,y,z
-x,-y,z
-y,x,1/2+z
y,-x,1/2+z
-x,y,-z
x,-y,-z
y,x,1/2-z
-y,-x,1/2-z
-x,-y,-z
x,y,-z
y,-x,1/2-z
-y,x,1/2-z
x,-y,z
-x,y,z
-y,-x,1/2+z
y,x,1/2+z
loop_
_atom_site_type_symbol
_atom_site_label
_atom_site_fract_x
_atom_site_fract_y
_atom_site_fract_z
Si Si1 0.858821 0.914684 0.914026
Si Si2 0.086874 0.292448 0.816665
Si Si3 0.584773 0.862239 0.211639
Si Si4 0.297100 0.586621 0.785018
Si Si5 0.694456 0.770686 0.409485
Si Si6 0.148486 0.851515 0.250000
Si Si7 0.148729 0.299391 0.413198
O O1 0.890697 0.877786 0.832920
O O2 0.767982 0.912363 0.910715
O O3 0.887790 0.000000 0.912987
O O4 0.884169 0.878713 0.000000
O O5 0.091098 0.376609 0.781687
O O6 0.139247 0.292988 0.893716
O O7 0.126111 0.237518 0.750242
O O8 0.000000 0.270010 0.835995
O O9 0.500000 0.892607 0.204526
O O10 0.587688 0.771778 0.223978
O O11 0.628610 0.882090 0.132789
O O12 0.368851 0.631150 0.750000
O O13 0.321904 0.500000 0.802709
O O14 0.267046 0.624416 0.864699
O O15 0.678621 0.759076 0.500000
O O16 0.771636 0.732065 0.379526
O O17 0.162340 0.329003 0.500000
#
# Coordination Sequence:
#
# PCOD8315783 Si02
#       7
#    16  16  16  16  16   8  16
#     4  10  21  36  57  87 117 144 184 243 302 349
#     4  11  22  35  56  85 116 152 196 246 293 346
#     4  10  20  34  53  80 114 152 189 231 288 344
#     4  10  20  35  57  83 112 150 194 238 287 344
#     4  10  20  36  58  84 114 150 194 244 292 346
#     4  12  20  34  60  87 110 154 211 246 290 352
#     4  10  18  32  56  83 110 147 192 237 284 341
#
# _framework density 19.476087
#
# number of rings (size 3 to 8) (size 9 to 14) (size 15 to 20)
#    0.000    1.692    4.615    0.462    2.154    1.385 
#    0.000    0.000    0.000    5.538    0.000   12.923 
#    0.000    0.000    0.000    0.000    0.000    0.000 
#
# Total GULP energy -1288621.499157 kJ/mol
# GULP energy per Si atom -12390.591338 kJ/mol
# Density = 1.943176 g / cm^3
# Si number density = 19.476087 Si / 1000 Ang^3
#
#
#
# Elastic Constant Matrix: (Units=GPa)
#
#
# Indices 1 2 3 4 5 6 
#
# 1 78.8189 14.4755 22.8772 0.0000 0.0000 0.0000
# 2 14.4755 78.8185 22.8780 0.0000 0.0000 0.0000
# 3 22.8772 22.8780 109.8926 0.0000 0.0000 0.0000
# 4 0.0000 0.0000 0.0000 21.6432 0.0000 0.0000
# 5 0.0000 0.0000 0.0000 0.0000 21.6435 0.0000
# 6 0.0000 0.0000 0.0000 0.0000 0.0000 11.5815
#
#
#
# Elastic Compliance Matrix: (Units=1/GPa)
#
#
# Indices 1 2 3 4 5 6 
#
# 1 0.013740 -0.001802 -0.002485 0.000000 0.000000 0.000000
# 2 -0.001802 0.013740 -0.002485 0.000000 0.000000 0.000000
# 3 -0.002485 -0.002485 0.010135 0.000000 0.000000 0.000000
# 4 0.000000 0.000000 0.000000 0.046204 0.000000 0.000000
# 5 0.000000 0.000000 0.000000 0.000000 0.046203 0.000000
# 6 0.000000 0.000000 0.000000 0.000000 0.000000 0.086344
#
#
# Mechanical properties :
#
#
# Convention : Reuss Voigt Hill
#
# Bulk Modulus (GPa) = 41.54720 43.11016 42.32868
# Shear Modulus (GPa) = 21.01431 24.79360 22.90396
#
# Velocity S-wave (km/s) = 3.28835 3.57182 3.43301
# Velocity P-wave (km/s) = 5.98301 6.26047 6.12331
#
# Compressibility (1/GPa) = 0.02406901
#
# Stress axis : x y z
#
# Youngs Moduli (GPa) = 72.78246 72.78174 98.67254
#
# Poissons Ratio (x) = 0.13115 0.24521
# Poissons Ratio (y) = 0.13116 0.24523
# Poissons Ratio (z) = 0.18087 0.18088
#
# Static dielectric constant tensor:
#      x y z
#    x 3.406830 0.000000 0.000000 
#    y 0.000000 3.406830 0.000000 
#    z 0.000000 0.000000 3.645490 
# 
# 
# High freq. dielectric constant tensor:
#      x y z
#    x 1.738870 0.000000 0.000000 
#    y 0.000000 1.738870 0.000000 
#    z 0.000000 0.000000 1.763620 
# 
# From -- ./inp_files/8060.got.cif
#   From: 2010.03.12/outbox.cif.g09.slc.cpg/sg131_5_cif.got.tgz:8060.got - 2010.04.06 17:36:35.
