data_PCOD8315800
_publ_section_title
;
Structure prediction by ZEFSAII (Michael W. Deem and Ramdas Pophale) SiO2 
 PCOD8315800
Probable space group: P 42/M M C
;
_chemical_formula_sum "Si O2"
_cell_formula_units_Z 96
_cell_length_a 25.109349
_cell_length_b 25.109349
_cell_length_c 9.449395
_cell_angle_alpha 90.000000
_cell_angle_beta 90.000000
_cell_angle_gamma 90.000000
_cell_volume 5957.648958
_symmetry_space_group_name_H-M "P 42/M M C"
_symmetry_group_IT_number 131
_symmetry_cell_setting 'tetragonal'
loop_
_space_group_symop_operation_xyz
x,y,z
-x,-y,z
-y,x,1/2+z
y,-x,1/2+z
-x,y,-z
x,-y,-z
y,x,1/2-z
-y,-x,1/2-z
-x,-y,-z
x,y,-z
y,-x,1/2-z
-y,x,1/2-z
x,-y,z
-x,y,z
-y,-x,1/2+z
y,x,1/2+z
loop_
_atom_site_type_symbol
_atom_site_label
_atom_site_fract_x
_atom_site_fract_y
_atom_site_fract_z
Si Si1 0.636187 0.561762 0.161457
Si Si2 0.843023 0.639614 0.835289
Si Si3 0.941667 0.361009 0.341807
Si Si4 0.440982 0.245134 0.331599
Si Si5 0.764065 0.159845 0.666897
Si Si6 0.765386 0.059047 0.158993
O O1 0.594172 0.594172 0.250000
O O2 0.621696 0.500000 0.174761
O O3 0.695494 0.572435 0.222418
O O4 0.632480 0.580853 0.000000
O O5 0.896545 0.617501 0.762662
O O6 0.794572 0.604392 0.773703
O O7 0.832228 0.701469 0.802490
O O8 0.850902 0.629776 0.000000
O O9 0.929362 0.381457 0.500000
O O10 0.941975 0.297727 0.339611
O O11 0.000000 0.381785 0.292665
O O12 0.441190 0.246015 0.500000
O O13 0.500000 0.227736 0.277936
O O14 0.792754 0.207247 0.750000
O O15 0.776861 0.161900 0.500000
O O16 0.785299 0.103439 0.729396
O O17 0.786728 0.000000 0.202659
O O18 0.785456 0.073276 0.000000
#
# Coordination Sequence:
#
# PCOD8315800 Si02
#       6
#    16  16  16  16  16  16
#     4   9  18  32  49  68  89 113 140 172 213 259
#     4   9  17  28  44  65  84 108 145 183 217 254
#     4   8  14  25  41  61  85 112 140 172 214 261
#     4   8  15  30  49  65  84 112 145 180 217 257
#     4  10  19  28  39  60  91 119 143 175 214 257
#     4   8  14  26  43  60  80 110 146 179 213 255
#
# _framework density 16.113738000000001
#
# number of rings (size 3 to 8) (size 9 to 14) (size 15 to 20)
#    0.000    3.333    0.000    2.500    0.000    2.500 
#    0.000    5.000    0.000    2.000    0.000    3.500 
#    0.000    0.333    0.000    3.500    0.000    1.833 
#
# Total GULP energy -1189684.194216 kJ/mol
# GULP energy per Si atom -12392.543690 kJ/mol
# Density = 1.607706 g / cm^3
# Si number density = 16.113738 Si / 1000 Ang^3
#
#
#
# Elastic Constant Matrix: (Units=GPa)
#
#
# Indices 1 2 3 4 5 6 
#
# 1 82.0664 57.2437 47.5483 0.0000 0.0000 0.0000
# 2 57.2437 82.0629 47.5483 0.0000 0.0000 0.0000
# 3 47.5483 47.5483 69.6058 0.0000 0.0000 0.0000
# 4 0.0000 0.0000 0.0000 21.6893 0.0000 0.0000
# 5 0.0000 0.0000 0.0000 0.0000 21.6895 0.0000
# 6 0.0000 0.0000 0.0000 0.0000 0.0000 3.4384
#
#
#
# Elastic Compliance Matrix: (Units=1/GPa)
#
#
# Indices 1 2 3 4 5 6 
#
# 1 0.026869 -0.013419 -0.009187 0.000000 0.000000 0.000000
# 2 -0.013419 0.026870 -0.009189 0.000000 0.000000 0.000000
# 3 -0.009187 -0.009189 0.026920 0.000000 0.000000 0.000000
# 4 0.000000 0.000000 0.000000 0.046106 0.000000 0.000000
# 5 0.000000 0.000000 0.000000 0.000000 0.046105 0.000000
# 6 0.000000 0.000000 0.000000 0.000000 0.000000 0.290836
#
#
# Mechanical properties :
#
#
# Convention : Reuss Voigt Hill
#
# Bulk Modulus (GPa) = 58.58912 59.82396 59.20654
# Shear Modulus (GPa) = 9.38112 14.78975 12.08543
#
# Velocity S-wave (km/s) = 2.41546 3.03287 2.74160
# Velocity P-wave (km/s) = 6.64966 7.03356 6.84430
#
# Compressibility (1/GPa) = 0.01706801
#
# Stress axis : x y z
#
# Youngs Moduli (GPa) = 37.21821 37.21554 37.14772
#
# Poissons Ratio (x) = 0.49940 0.34129
# Poissons Ratio (y) = 0.49944 0.34134
# Poissons Ratio (z) = 0.34194 0.34196
#
# Static dielectric constant tensor:
#      x y z
#    x 3.120860 0.000000 0.000000 
#    y 0.000000 3.120860 0.000000 
#    z 0.000000 0.000000 2.992130 
# 
# 
# High freq. dielectric constant tensor:
#      x y z
#    x 1.604240 0.000000 0.000000 
#    y 0.000000 1.604240 0.000000 
#    z 0.000000 0.000000 1.606270 
# 
# From -- ./inp_files/2497.got.cif
#   From: 2010.03.12/outbox.cif.g09.slc.cpg/sg131_2_cif.got.tgz:2497.got - 2010.04.06 17:36:35.
