data_PCOD8315208
_publ_section_title
;
Structure prediction by ZEFSAII (Michael W. Deem and Ramdas Pophale) SiO2 
 PCOD8315208
Probable space group: P 4/N M M
;
_chemical_formula_sum "Si O2"
_cell_formula_units_Z 128
_cell_length_a 22.397934
_cell_length_b 22.397934
_cell_length_c 13.731743
_cell_angle_alpha 90.000000
_cell_angle_beta 90.000000
_cell_angle_gamma 90.000000
_cell_volume 6888.768460
_symmetry_space_group_name_H-M "P 4/N M M"
_symmetry_group_IT_number 129
_symmetry_cell_setting 'tetragonal'
loop_
_space_group_symop_operation_xyz
x,y,z
1/2-y,x,z
1/2-x,1/2-y,z
y,1/2-x,z
1/2+x,-y,-z
-x,1/2+y,-z
1/2+y,1/2+x,-z
-y,-x,-z
-x,-y,-z
1/2+y,-x,-z
1/2+x,1/2+y,-z
-y,1/2+x,-z
1/2-x,y,z
x,1/2-y,z
1/2-y,1/2-x,z
y,x,z
loop_
_atom_site_type_symbol
_atom_site_label
_atom_site_fract_x
_atom_site_fract_y
_atom_site_fract_z
Si Si1 0.910423 0.817066 0.915027
Si Si2 0.563431 0.181568 0.359789
Si Si3 0.819895 0.134094 0.281333
Si Si4 0.319513 0.530843 0.571060
Si Si5 0.882561 0.416819 0.103972
Si Si6 0.397112 0.003962 0.205731
Si Si7 0.463052 0.183125 0.880403
Si Si8 0.585995 0.679949 0.328042
O O1 0.908240 0.750000 0.874915
O O2 0.848794 0.848794 0.885236
O O3 0.965909 0.849993 0.866183
O O4 0.916034 0.818907 0.031735
O O5 0.541572 0.250000 0.350189
O O6 0.633403 0.181366 0.327153
O O7 0.557019 0.155652 0.469650
O O8 0.520109 0.138670 0.298904
O O9 0.750000 0.154633 0.290822
O O10 0.833633 0.073188 0.338236
O O11 0.837380 0.122816 0.169253
O O12 0.250000 0.524830 0.557606
O O13 0.344318 0.465577 0.599192
O O14 0.859435 0.483246 0.090718
O O15 0.947889 0.424673 0.149793
O O16 0.884397 0.384397 0.000000
O O17 0.450009 0.049992 0.236086
O O18 0.488638 0.250000 0.865489
O O19 0.431120 0.162343 0.782040
O O20 0.597529 0.750000 0.339323
O O21 0.646604 0.646604 0.357280
#
# Coordination Sequence:
#
# PCOD8315208 Si02
#       8
#    16  16  16  16  16  16  16  16
#     4  10  20  34  52  74 102 138 180 227 278 334
#     4  10  21  37  58  82 111 146 186 234 288 340
#     4  10  20  37  59  83 114 147 186 232 278 337
#     4   9  18  35  56  79 107 143 185 228 277 331
#     4  11  20  34  54  83 111 145 182 224 269 331
#     4  10  22  36  52  77 109 143 182 228 279 332
#     4  10  19  34  54  76 108 147 185 224 276 341
#     4  10  20  34  55  83 114 151 192 236 292 351
#
# _framework density 18.580970000000001
#
# number of rings (size 3 to 8) (size 9 to 14) (size 15 to 20)
#    0.000    2.000    2.500    1.500    0.000    2.250 
#    0.000    0.625    0.000    6.750    0.000    0.000 
#    0.000    3.000    0.000    0.000    0.000    0.000 
#
# Total GULP energy -1586775.643323 kJ/mol
# GULP energy per Si atom -12396.684713 kJ/mol
# Density = 1.853868 g / cm^3
# Si number density = 18.580970 Si / 1000 Ang^3
#
#
#
# Elastic Constant Matrix: (Units=GPa)
#
#
# Indices 1 2 3 4 5 6 
#
# 1 91.5450 43.3955 35.0385 0.0000 0.0000 0.0000
# 2 43.3955 91.5450 35.0385 0.0000 0.0000 0.0000
# 3 35.0385 35.0385 106.5600 0.0000 0.0000 0.0000
# 4 0.0000 0.0000 0.0000 21.1672 0.0000 0.0000
# 5 0.0000 0.0000 0.0000 0.0000 21.1672 0.0000
# 6 0.0000 0.0000 0.0000 0.0000 0.0000 24.8249
#
#
#
# Elastic Compliance Matrix: (Units=1/GPa)
#
#
# Indices 1 2 3 4 5 6 
#
# 1 0.014853 -0.005916 -0.002939 0.000000 0.000000 0.000000
# 2 -0.005916 0.014853 -0.002939 0.000000 0.000000 0.000000
# 3 -0.002939 -0.002939 0.011317 0.000000 0.000000 0.000000
# 4 0.000000 0.000000 0.000000 0.047243 0.000000 0.000000
# 5 0.000000 0.000000 0.000000 0.000000 0.047243 0.000000
# 6 0.000000 0.000000 0.000000 0.000000 0.000000 0.040282
#
#
# Mechanical properties :
#
#
# Convention : Reuss Voigt Hill
#
# Bulk Modulus (GPa) = 57.35206 57.39944 57.37575
# Shear Modulus (GPa) = 24.36789 25.17705 24.77247
#
# Velocity S-wave (km/s) = 3.62531 3.68501 3.65529
# Velocity P-wave (km/s) = 6.96110 7.00459 6.98288
#
# Compressibility (1/GPa) = 0.01743617
#
# Stress axis : x y z
#
# Youngs Moduli (GPa) = 67.32794 67.32794 88.36396
#
# Poissons Ratio (x) = 0.39831 0.25966
# Poissons Ratio (y) = 0.39831 0.25966
# Poissons Ratio (z) = 0.19784 0.19784
#
# Static dielectric constant tensor:
#      x y z
#    x 3.391520 0.000000 0.000000 
#    y 0.000000 3.391520 0.000000 
#    z 0.000000 0.000000 3.617890 
# 
# 
# High freq. dielectric constant tensor:
#      x y z
#    x 1.713640 0.000000 0.000000 
#    y 0.000000 1.713640 0.000000 
#    z 0.000000 0.000000 1.722250 
# 
# From -- ./inp_files/4198.got.cif
#   From: 2010.03.12/outbox.cif.g09.slc.cpg/sg129_3_cif.got.tgz:4198.got - 2010.04.06 17:19:44.
