data_PCOD8315931
_publ_section_title
;
Structure prediction by ZEFSAII (Michael W. Deem and Ramdas Pophale) SiO2 
 PCOD8315931
Probable space group: P 42/M M C
;
_chemical_formula_sum "Si O2"
_cell_formula_units_Z 96
_cell_length_a 25.372679
_cell_length_b 25.372679
_cell_length_c 8.714165
_cell_angle_alpha 90.000000
_cell_angle_beta 90.000000
_cell_angle_gamma 90.000000
_cell_volume 5609.942747
_symmetry_space_group_name_H-M "P 42/M M C"
_symmetry_group_IT_number 131
_symmetry_cell_setting 'tetragonal'
loop_
_space_group_symop_operation_xyz
x,y,z
-x,-y,z
-y,x,1/2+z
y,-x,1/2+z
-x,y,-z
x,-y,-z
y,x,1/2-z
-y,-x,1/2-z
-x,-y,-z
x,y,-z
y,-x,1/2-z
-y,x,1/2-z
x,-y,z
-x,y,z
-y,-x,1/2+z
y,x,1/2+z
loop_
_atom_site_type_symbol
_atom_site_label
_atom_site_fract_x
_atom_site_fract_y
_atom_site_fract_z
Si Si1 0.746827 0.334743 0.819569
Si Si2 0.938721 0.139558 0.324083
Si Si3 0.939092 0.249715 0.178758
Si Si4 0.861347 0.332557 0.317349
Si Si5 0.868993 0.444681 0.671257
Si Si6 0.557633 0.256009 0.828314
O O1 0.706619 0.293382 0.750000
O O2 0.804659 0.321019 0.755454
O O3 0.726556 0.393855 0.779113
O O4 0.748319 0.328136 0.000000
O O5 0.909558 0.090443 0.250000
O O6 0.921658 0.147904 0.500000
O O7 0.923415 0.191142 0.228290
O O8 0.000000 0.126789 0.310297
O O9 0.903141 0.288568 0.275526
O O10 0.000000 0.261244 0.218652
O O11 0.927431 0.256956 0.000000
O O12 0.853934 0.335786 0.500000
O O13 0.885345 0.388761 0.252712
O O14 0.892330 0.447002 0.500000
O O15 0.886992 0.500000 0.755835
O O16 0.806437 0.443425 0.664886
O O17 0.500000 0.276131 0.767165
O O18 0.567232 0.278270 0.000000
#
# Coordination Sequence:
#
# PCOD8315931 Si02
#       6
#    16  16  16  16  16  16
#     4  11  21  32  46  68 101 134 166 203 246 293
#     4  10  21  37  57  80 104 129 158 192 232 280
#     4  10  21  37  55  74  98 128 163 202 242 286
#     4  10  19  32  51  73  96 125 163 202 245 295
#     4   7  11  22  42  67  92 118 150 190 234 280
#     4   8  14  27  46  66  91 125 163 200 241 290
#
# _framework density 17.112473999999999
#
# number of rings (size 3 to 8) (size 9 to 14) (size 15 to 20)
#    0.000    2.667    0.000    5.000    0.000    3.167 
#    0.000    4.167    0.000    2.000    0.000    3.500 
#    0.000    0.333    0.000    3.500    0.000    1.667 
#
# Total GULP energy -1189300.668312 kJ/mol
# GULP energy per Si atom -12388.548628 kJ/mol
# Density = 1.707353 g / cm^3
# Si number density = 17.112474 Si / 1000 Ang^3
#
#
#
# Elastic Constant Matrix: (Units=GPa)
#
#
# Indices 1 2 3 4 5 6 
#
# 1 80.5646 61.4356 36.4995 0.0000 0.0000 0.0000
# 2 61.4356 80.5752 36.4969 0.0000 0.0000 0.0000
# 3 36.4995 36.4969 84.6529 0.0000 0.0000 0.0000
# 4 0.0000 0.0000 0.0000 21.9612 0.0000 0.0000
# 5 0.0000 0.0000 0.0000 0.0000 21.9606 0.0000
# 6 0.0000 0.0000 0.0000 0.0000 0.0000 -5.2898
#
#
#
# Elastic Compliance Matrix: (Units=1/GPa)
#
#
# Indices 1 2 3 4 5 6 
#
# 1 0.030658 -0.021608 -0.003903 0.000000 0.000000 0.000000
# 2 -0.021608 0.030652 -0.003899 0.000000 0.000000 0.000000
# 3 -0.003903 -0.003899 0.015176 0.000000 0.000000 0.000000
# 4 0.000000 0.000000 0.000000 0.045535 0.000000 0.000000
# 5 0.000000 0.000000 0.000000 0.000000 0.045536 0.000000
# 6 0.000000 0.000000 0.000000 0.000000 0.000000 -0.189043
#
#
# Mechanical properties :
#
#
# Convention : Reuss Voigt Hill
#
# Bulk Modulus (GPa) = 56.59947 57.18408 56.89177
# Shear Modulus (GPa) = 115.68366 15.15044 65.41705
#
# Velocity S-wave (km/s) = 8.23096 2.97870 6.18956
# Velocity P-wave (km/s) = 11.11208 6.73197 9.18689
#
# Compressibility (1/GPa) = 0.01766801
#
# Stress axis : x y z
#
# Youngs Moduli (GPa) = 32.61822 32.62467 65.89137
#
# Poissons Ratio (x) = 0.70494 0.25716
# Poissons Ratio (y) = 0.70480 0.25688
# Poissons Ratio (z) = 0.12730 0.12719
#
# Static dielectric constant tensor:
#      x y z
#    x 3.394280 0.000000 0.000000 
#    y 0.000000 3.394310 0.000000 
#    z 0.000000 0.000000 3.166130 
# 
# 
# High freq. dielectric constant tensor:
#      x y z
#    x 1.648400 0.000000 0.000000 
#    y 0.000000 1.648400 0.000000 
#    z 0.000000 0.000000 1.652830 
# 
# From -- ./inp_files/2174.got.cif
#   From: 2010.03.12/outbox.cif.g09.slc.cpg/sg131_2_cif.got.tgz:2174.got - 2010.04.06 17:36:35.
