data_PCOD8315763
_publ_section_title
;
Structure prediction by ZEFSAII (Michael W. Deem and Ramdas Pophale) SiO2 
 PCOD8315763
Probable space group: P 42/M M C
;
_chemical_formula_sum "Si O2"
_cell_formula_units_Z 96
_cell_length_a 17.542867
_cell_length_b 17.542867
_cell_length_c 18.550222
_cell_angle_alpha 90.000000
_cell_angle_beta 90.000000
_cell_angle_gamma 90.000000
_cell_volume 5708.871308
_symmetry_space_group_name_H-M "P 42/M M C"
_symmetry_group_IT_number 131
_symmetry_cell_setting 'tetragonal'
loop_
_space_group_symop_operation_xyz
x,y,z
-x,-y,z
-y,x,1/2+z
y,-x,1/2+z
-x,y,-z
x,-y,-z
y,x,1/2-z
-y,-x,1/2-z
-x,-y,-z
x,y,-z
y,-x,1/2-z
-y,x,1/2-z
x,-y,z
-x,y,z
-y,-x,1/2+z
y,x,1/2+z
loop_
_atom_site_type_symbol
_atom_site_label
_atom_site_fract_x
_atom_site_fract_y
_atom_site_fract_z
Si Si1 0.581905 0.581105 0.082237
Si Si2 0.911571 0.688424 0.798027
Si Si3 0.591090 0.778152 0.257553
Si Si4 0.219283 0.170757 0.415145
Si Si5 0.826824 0.087551 0.193564
Si Si6 0.702203 0.316502 0.358726
O O1 0.613464 0.500000 0.114873
O O2 0.500000 0.599775 0.120035
O O3 0.638615 0.650950 0.085707
O O4 0.566191 0.566954 0.000000
O O5 0.864867 0.611439 0.780560
O O6 0.888161 0.723716 0.875492
O O7 0.891532 0.748412 0.734719
O O8 0.000000 0.667044 0.800105
O O9 0.500000 0.765958 0.263671
O O10 0.622689 0.759647 0.177931
O O11 0.640760 0.721952 0.306318
O O12 0.214842 0.151128 0.500000
O O13 0.135584 0.164397 0.379721
O O14 0.248592 0.256136 0.403063
O O15 0.894631 0.105370 0.250000
O O16 0.830372 0.000000 0.170608
#
# Coordination Sequence:
#
# PCOD8315763 Si02
#       6
#    16  16  16  16  16  16
#     4   9  17  28  42  61  88 126 165 196 238 298
#     4   9  18  34  52  70  98 131 165 206 248 292
#     4  10  19  30  49  72  92 123 167 210 251 296
#     4  10  19  31  51  77 101 131 166 201 244 298
#     4   9  17  32  52  74 101 133 163 197 241 293
#     4  10  18  31  45  67 100 125 157 209 255 293
#
# _framework density 16.815933000000001
#
# number of rings (size 3 to 8) (size 9 to 14) (size 15 to 20)
#    0.000    2.500    1.667    2.000    0.000    1.167 
#    0.000    0.000    0.000    8.500    0.000    9.333 
#    0.000    2.667    0.000    0.000    0.000    0.000 
#
# Total GULP energy -1189346.150246 kJ/mol
# GULP energy per Si atom -12389.022398 kJ/mol
# Density = 1.677766 g / cm^3
# Si number density = 16.815933 Si / 1000 Ang^3
#
#
#
# Elastic Constant Matrix: (Units=GPa)
#
#
# Indices 1 2 3 4 5 6 
#
# 1 88.7072 40.0328 27.9184 0.0000 0.0000 0.0000
# 2 40.0328 88.7101 27.9184 0.0000 0.0000 0.0000
# 3 27.9184 27.9184 78.7016 0.0000 0.0000 0.0000
# 4 0.0000 0.0000 0.0000 17.0048 0.0000 0.0000
# 5 0.0000 0.0000 0.0000 0.0000 17.0048 0.0000
# 6 0.0000 0.0000 0.0000 0.0000 0.0000 19.0062
#
#
#
# Elastic Compliance Matrix: (Units=1/GPa)
#
#
# Indices 1 2 3 4 5 6 
#
# 1 0.014862 -0.005682 -0.003257 0.000000 0.000000 0.000000
# 2 -0.005682 0.014862 -0.003256 0.000000 0.000000 0.000000
# 3 -0.003257 -0.003256 0.015017 0.000000 0.000000 0.000000
# 4 0.000000 0.000000 0.000000 0.058807 0.000000 0.000000
# 5 0.000000 0.000000 0.000000 0.000000 0.058807 0.000000
# 6 0.000000 0.000000 0.000000 0.000000 0.000000 0.052614
#
#
# Mechanical properties :
#
#
# Convention : Reuss Voigt Hill
#
# Bulk Modulus (GPa) = 49.13870 49.76199 49.45034
# Shear Modulus (GPa) = 20.31344 21.28644 20.79994
#
# Velocity S-wave (km/s) = 3.47938 3.56174 3.52080
# Velocity P-wave (km/s) = 6.73991 6.82430 6.78224
#
# Compressibility (1/GPa) = 0.02035056
#
# Stress axis : x y z
#
# Youngs Moduli (GPa) = 67.28464 67.28711 66.59301
#
# Poissons Ratio (x) = 0.38233 0.21686
# Poissons Ratio (y) = 0.38232 0.21685
# Poissons Ratio (z) = 0.21911 0.21911
#
# Static dielectric constant tensor:
#      x y z
#    x 3.122110 0.000000 0.000000 
#    y 0.000000 3.122110 0.000000 
#    z 0.000000 0.000000 2.935920 
# 
# 
# High freq. dielectric constant tensor:
#      x y z
#    x 1.645900 0.000000 0.000000 
#    y 0.000000 1.645900 0.000000 
#    z 0.000000 0.000000 1.628300 
# 
# From -- ./inp_files/7949.got.cif
#   From: 2010.03.12/outbox.cif.g09.slc.cpg/sg131_4_cif.got.tgz:7949.got - 2010.04.06 17:36:35.
