data_PCOD8315323
_publ_section_title
;
Structure prediction by ZEFSAII (Michael W. Deem and Ramdas Pophale) SiO2 
 PCOD8315323
Probable space group: P 4/N M M
;
_chemical_formula_sum "Si O2"
_cell_formula_units_Z 88
_cell_length_a 13.353721
_cell_length_b 13.353721
_cell_length_c 27.795433
_cell_angle_alpha 90.000000
_cell_angle_beta 90.000000
_cell_angle_gamma 90.000000
_cell_volume 4956.533438
_symmetry_space_group_name_H-M "P 4/N M M"
_symmetry_group_IT_number 129
_symmetry_cell_setting 'tetragonal'
loop_
_space_group_symop_operation_xyz
x,y,z
1/2-y,x,z
1/2-x,1/2-y,z
y,1/2-x,z
1/2+x,-y,-z
-x,1/2+y,-z
1/2+y,1/2+x,-z
-y,-x,-z
-x,-y,-z
1/2+y,-x,-z
1/2+x,1/2+y,-z
-y,1/2+x,-z
1/2-x,y,z
x,1/2-y,z
1/2-y,1/2-x,z
y,x,z
loop_
_atom_site_type_symbol
_atom_site_label
_atom_site_fract_x
_atom_site_fract_y
_atom_site_fract_z
Si Si1 0.972171 0.132999 0.402531
Si Si2 0.134769 0.865231 0.500000
Si Si3 0.865549 0.470085 0.318268
Si Si4 0.864773 0.473841 0.764145
Si Si5 0.135134 0.973598 0.125783
Si Si6 0.633824 0.469886 0.043299
O O1 0.994109 0.250000 0.399180
O O2 0.930133 0.101469 0.454431
O O3 0.891480 0.102989 0.362391
O O4 0.076261 0.076261 0.393104
O O5 0.250000 0.884208 0.513137
O O6 0.750000 0.499381 0.320094
O O7 0.887562 0.412378 0.268593
O O8 0.927282 0.572719 0.321961
O O9 0.750000 0.492013 0.749842
O O10 0.875782 0.438205 0.819162
O O11 0.921312 0.578689 0.755025
O O12 0.250000 0.991713 0.111508
O O13 0.087192 0.886971 0.093293
O O14 0.078373 0.078373 0.116477
O O15 0.750000 0.496289 0.039693
O O16 0.573972 0.573972 0.040362
O O17 0.602781 0.397220 0.000000
#
# Coordination Sequence:
#
# PCOD8315323 Si02
#       6
#    16   8  16  16  16  16
#     4  10  20  33  50  73 101 132 165 201 241 286
#     4   9  17  30  50  74  97 125 164 206 245 285
#     4  10  21  36  53  73  97 125 160 203 248 294
#     4   9  18  32  50  74 103 133 165 201 241 286
#     4   9  18  32  50  74 103 133 166 203 242 286
#     4  10  21  36  53  74 100 129 163 203 245 291
#
# _framework density 17.754344
#
# number of rings (size 3 to 8) (size 9 to 14) (size 15 to 20)
#    0.000    2.455    0.000    1.909    0.000    5.091 
#    0.000    3.636    0.000    6.545    0.000    7.636 
#    0.000    0.000    0.000    0.000    0.000    0.000 
#
# Total GULP energy -1091426.389573 kJ/mol
# GULP energy per Si atom -12402.572609 kJ/mol
# Density = 1.771393 g / cm^3
# Si number density = 17.754344 Si / 1000 Ang^3
#
#
#
# Elastic Constant Matrix: (Units=GPa)
#
#
# Indices 1 2 3 4 5 6 
#
# 1 116.4096 44.7920 50.5239 0.0000 0.0000 0.0000
# 2 44.7920 116.4092 50.5242 0.0000 0.0000 0.0000
# 3 50.5239 50.5242 99.8194 0.0000 0.0000 0.0000
# 4 0.0000 0.0000 0.0000 24.7989 0.0000 0.0000
# 5 0.0000 0.0000 0.0000 0.0000 24.7992 0.0000
# 6 0.0000 0.0000 0.0000 0.0000 0.0000 13.4167
#
#
#
# Elastic Compliance Matrix: (Units=1/GPa)
#
#
# Indices 1 2 3 4 5 6 
#
# 1 0.011525 -0.002438 -0.004599 0.000000 0.000000 0.000000
# 2 -0.002438 0.011525 -0.004599 0.000000 0.000000 0.000000
# 3 -0.004599 -0.004599 0.014674 0.000000 0.000000 0.000000
# 4 0.000000 0.000000 0.000000 0.040324 0.000000 0.000000
# 5 0.000000 0.000000 0.000000 0.000000 0.040324 0.000000
# 6 0.000000 0.000000 0.000000 0.000000 0.000000 0.074534
#
#
# Mechanical properties :
#
#
# Convention : Reuss Voigt Hill
#
# Bulk Modulus (GPa) = 69.20368 69.36872 69.28620
# Shear Modulus (GPa) = 22.62491 25.05616 23.84054
#
# Velocity S-wave (km/s) = 3.57365 3.76076 3.66840
# Velocity P-wave (km/s) = 7.48939 7.61669 7.55331
#
# Compressibility (1/GPa) = 0.01445010
#
# Stress axis : x y z
#
# Youngs Moduli (GPa) = 86.77036 86.76976 68.14874
#
# Poissons Ratio (x) = 0.21158 0.31342
# Poissons Ratio (y) = 0.21158 0.31342
# Poissons Ratio (z) = 0.39906 0.39907
#
# Static dielectric constant tensor:
#      x y z
#    x 3.134840 0.000000 0.000000 
#    y 0.000000 3.134840 0.000000 
#    z 0.000000 0.000000 3.529690 
# 
# 
# High freq. dielectric constant tensor:
#      x y z
#    x 1.678470 0.000000 0.000000 
#    y 0.000000 1.678470 0.000000 
#    z 0.000000 0.000000 1.705650 
# 
# From -- ./inp_files/7775.got.cif
#   From: 2010.03.12/outbox.cif.g09.slc.cpg/sg129_4_cif.got.tgz:7775.got - 2010.04.06 17:19:44.
