data_PCOD8315239
_publ_section_title
;
Structure prediction by ZEFSAII (Michael W. Deem and Ramdas Pophale) SiO2 
 PCOD8315239
Probable space group: P 4/N M M
;
_chemical_formula_sum "Si O2"
_cell_formula_units_Z 112
_cell_length_a 13.937910
_cell_length_b 13.937910
_cell_length_c 35.303926
_cell_angle_alpha 90.000000
_cell_angle_beta 90.000000
_cell_angle_gamma 90.000000
_cell_volume 6858.329017
_symmetry_space_group_name_H-M "P 4/N M M"
_symmetry_group_IT_number 129
_symmetry_cell_setting 'tetragonal'
loop_
_space_group_symop_operation_xyz
x,y,z
1/2-y,x,z
1/2-x,1/2-y,z
y,1/2-x,z
1/2+x,-y,-z
-x,1/2+y,-z
1/2+y,1/2+x,-z
-y,-x,-z
-x,-y,-z
1/2+y,-x,-z
1/2+x,1/2+y,-z
-y,1/2+x,-z
1/2-x,y,z
x,1/2-y,z
1/2-y,1/2-x,z
y,x,z
loop_
_atom_site_type_symbol
_atom_site_label
_atom_site_fract_x
_atom_site_fract_y
_atom_site_fract_z
Si Si1 0.982675 0.360357 0.164117
Si Si2 0.484985 0.859748 0.112446
Si Si3 0.989310 0.359416 0.249396
Si Si4 0.143549 0.635958 0.685358
Si Si5 0.635079 0.021512 0.530497
Si Si6 0.859621 0.485213 0.025046
Si Si7 0.636648 0.357033 0.601712
O O1 0.006219 0.250000 0.154909
O O2 0.079459 0.420542 0.156563
O O3 0.945546 0.372529 0.207342
O O4 0.897543 0.396165 0.137131
O O5 0.506231 0.750000 0.122925
O O6 0.581098 0.918903 0.122059
O O7 0.455723 0.871542 0.068732
O O8 0.007752 0.250000 0.259536
O O9 0.092626 0.407375 0.251651
O O10 0.920611 0.407670 0.280897
O O11 0.250000 0.594858 0.691251
O O12 0.144981 0.750000 0.688625
O O13 0.106579 0.604443 0.643555
O O14 0.750000 0.005671 0.526817
O O15 0.580495 0.919506 0.525244
O O16 0.599335 0.099335 0.500000
O O17 0.603386 0.065296 0.570954
O O18 0.750000 0.506771 0.014570
O O19 0.918665 0.581336 0.015455
O O20 0.896870 0.396870 0.000000
O O21 0.750000 0.347838 0.600306
O O22 0.593950 0.250000 0.593545
#
# Coordination Sequence:
#
# PCOD8315239 Si02
#       7
#    16  16  16  16  16  16  16
#     4   9  18  31  45  63  88 118 153 191 229 270
#     4   9  18  32  49  69  92 117 146 182 224 269
#     4   9  17  28  42  61  86 116 148 181 218 263
#     4   8  14  25  41  61  84 110 142 180 219 256
#     4  10  20  32  47  68  92 119 152 189 230 275
#     4   9  18  32  49  69  93 120 149 182 220 262
#     4   8  14  26  44  63  83 110 144 181 219 259
#
# _framework density 16.330507000000001
#
# number of rings (size 3 to 8) (size 9 to 14) (size 15 to 20)
#    0.000    3.143    0.000    1.286    0.000    3.571 
#    0.000    5.714    0.000    0.000    0.000    8.000 
#    0.000    0.286    0.000    3.143    0.000    5.429 
#
# Total GULP energy -1388151.010313 kJ/mol
# GULP energy per Si atom -12394.205449 kJ/mol
# Density = 1.629334 g / cm^3
# Si number density = 16.330507 Si / 1000 Ang^3
#
#
#
# Elastic Constant Matrix: (Units=GPa)
#
#
# Indices 1 2 3 4 5 6 
#
# 1 84.6718 38.1051 51.8073 0.0000 0.0000 0.0000
# 2 38.1051 84.6718 51.8073 0.0000 0.0000 0.0000
# 3 51.8073 51.8073 94.0591 0.0000 0.0000 0.0000
# 4 0.0000 0.0000 0.0000 24.9702 0.0000 0.0000
# 5 0.0000 0.0000 0.0000 0.0000 24.9702 0.0000
# 6 0.0000 0.0000 0.0000 0.0000 0.0000 12.2080
#
#
#
# Elastic Compliance Matrix: (Units=1/GPa)
#
#
# Indices 1 2 3 4 5 6 
#
# 1 0.018347 -0.003128 -0.008383 0.000000 0.000000 0.000000
# 2 -0.003128 0.018347 -0.008383 0.000000 0.000000 0.000000
# 3 -0.008383 -0.008383 0.019866 0.000000 0.000000 0.000000
# 4 0.000000 0.000000 0.000000 0.040048 0.000000 0.000000
# 5 0.000000 0.000000 0.000000 0.000000 0.040048 0.000000
# 6 0.000000 0.000000 0.000000 0.000000 0.000000 0.081914
#
#
# Mechanical properties :
#
#
# Convention : Reuss Voigt Hill
#
# Bulk Modulus (GPa) = 59.61743 60.76026 60.18884
# Shear Modulus (GPa) = 18.94325 20.54186 19.74256
#
# Velocity S-wave (km/s) = 3.40956 3.55051 3.48075
# Velocity P-wave (km/s) = 7.21707 7.35497 7.28635
#
# Compressibility (1/GPa) = 0.01677362
#
# Stress axis : x y z
#
# Youngs Moduli (GPa) = 54.50508 54.50508 50.33751
#
# Poissons Ratio (x) = 0.17048 0.42196
# Poissons Ratio (y) = 0.17048 0.42196
# Poissons Ratio (z) = 0.45690 0.45690
#
# Static dielectric constant tensor:
#      x y z
#    x 2.963950 0.000000 0.000000 
#    y 0.000000 2.963950 0.000000 
#    z 0.000000 0.000000 3.395950 
# 
# 
# High freq. dielectric constant tensor:
#      x y z
#    x 1.608370 0.000000 0.000000 
#    y 0.000000 1.608370 0.000000 
#    z 0.000000 0.000000 1.641250 
# 
# From -- ./inp_files/7602.got.cif
#   From: 2010.03.12/outbox.cif.g09.slc.cpg/sg129_4_cif.got.tgz:7602.got - 2010.04.06 17:19:44.
