data_PCOD8315018
_publ_section_title
;
Structure prediction by ZEFSAII (Michael W. Deem and Ramdas Pophale) SiO2 
 PCOD8315018
Probable space group: P 4/N M M
;
_chemical_formula_sum "Si O2"
_cell_formula_units_Z 72
_cell_length_a 13.855062
_cell_length_b 13.855062
_cell_length_c 23.246336
_cell_angle_alpha 90.000000
_cell_angle_beta 90.000000
_cell_angle_gamma 90.000000
_cell_volume 4462.430424
_symmetry_space_group_name_H-M "P 4/N M M"
_symmetry_group_IT_number 129
_symmetry_cell_setting 'tetragonal'
loop_
_space_group_symop_operation_xyz
x,y,z
1/2-y,x,z
1/2-x,1/2-y,z
y,1/2-x,z
1/2+x,-y,-z
-x,1/2+y,-z
1/2+y,1/2+x,-z
-y,-x,-z
-x,-y,-z
1/2+y,-x,-z
1/2+x,1/2+y,-z
-y,1/2+x,-z
1/2-x,y,z
x,1/2-y,z
1/2-y,1/2-x,z
y,x,z
loop_
_atom_site_type_symbol
_atom_site_label
_atom_site_fract_x
_atom_site_fract_y
_atom_site_fract_z
Si Si1 0.860544 0.139457 0.000000
Si Si2 0.135922 0.981185 0.670258
Si Si3 0.480841 0.863238 0.112081
Si Si4 0.642857 0.135389 0.563227
Si Si5 0.857834 0.135725 0.779730
O O1 0.926407 0.110493 0.946518
O O2 0.750000 0.122812 0.981542
O O3 0.250000 0.000386 0.670612
O O4 0.099035 0.930107 0.611961
O O5 0.102792 0.913360 0.722600
O O6 0.084366 0.084366 0.675783
O O7 0.502500 0.750000 0.117532
O O8 0.414844 0.901195 0.164348
O O9 0.583033 0.916968 0.113622
O O10 0.604102 0.104102 0.500000
O O11 0.750000 0.092202 0.574688
O O12 0.650302 0.250000 0.565356
O O13 0.750000 0.090875 0.779374
O O14 0.849960 0.250000 0.781682
#
# Coordination Sequence:
#
# PCOD8315018 Si02
#       5
#     8  16  16  16  16
#     4   9  17  30  48  68  89 115 150 194 236 259
#     4  10  19  29  42  62  89 119 147 174 208 256
#     4  10  19  30  45  66  93 122 149 177 212 260
#     4   8  14  26  44  64  85 109 140 183 230 263
#     4   9  17  30  47  64  82 106 139 181 223 255
#
# _framework density 16.134706000000001
#
# number of rings (size 3 to 8) (size 9 to 14) (size 15 to 20)
#    0.000    2.778    0.000    3.000    0.000    6.222 
#    0.000    0.000    0.000    4.000    0.000    0.000 
#    0.000   35.111    0.000    0.000    0.000    0.000 
#
# Total GULP energy -892626.180989 kJ/mol
# GULP energy per Si atom -12397.585847 kJ/mol
# Density = 1.609798 g / cm^3
# Si number density = 16.134706 Si / 1000 Ang^3
#
#
#
# Elastic Constant Matrix: (Units=GPa)
#
#
# Indices 1 2 3 4 5 6 
#
# 1 70.5120 46.4385 50.7771 0.0000 0.0000 0.0000
# 2 46.4385 70.5125 50.7772 0.0000 0.0000 0.0000
# 3 50.7771 50.7772 139.8748 0.0000 0.0000 0.0000
# 4 0.0000 0.0000 0.0000 13.7504 0.0000 0.0000
# 5 0.0000 0.0000 0.0000 0.0000 13.7503 0.0000
# 6 0.0000 0.0000 0.0000 0.0000 0.0000 20.9461
#
#
#
# Elastic Compliance Matrix: (Units=1/GPa)
#
#
# Indices 1 2 3 4 5 6 
#
# 1 0.027013 -0.014526 -0.004533 0.000000 0.000000 0.000000
# 2 -0.014526 0.027013 -0.004533 0.000000 0.000000 0.000000
# 3 -0.004533 -0.004533 0.010440 0.000000 0.000000 0.000000
# 4 0.000000 0.000000 0.000000 0.072725 0.000000 0.000000
# 5 0.000000 0.000000 0.000000 0.000000 0.072726 0.000000
# 6 0.000000 0.000000 0.000000 0.000000 0.000000 0.047741
#
#
# Mechanical properties :
#
#
# Convention : Reuss Voigt Hill
#
# Bulk Modulus (GPa) = 57.86312 64.09832 60.98072
# Shear Modulus (GPa) = 16.09771 18.54980 17.32375
#
# Velocity S-wave (km/s) = 3.16208 3.39438 3.28028
# Velocity P-wave (km/s) = 7.01940 7.42803 7.22660
#
# Compressibility (1/GPa) = 0.01728216
#
# Stress axis : x y z
#
# Youngs Moduli (GPa) = 37.01924 37.01951 95.78233
#
# Poissons Ratio (x) = 0.53775 0.43418
# Poissons Ratio (y) = 0.53774 0.43417
# Poissons Ratio (z) = 0.16781 0.16781
#
# Static dielectric constant tensor:
#      x y z
#    x 2.829910 0.000000 0.000000 
#    y 0.000000 2.829900 0.000000 
#    z 0.000000 0.000000 3.400120 
# 
# 
# High freq. dielectric constant tensor:
#      x y z
#    x 1.592410 0.000000 0.000000 
#    y 0.000000 1.592410 0.000000 
#    z 0.000000 0.000000 1.643040 
# 
# From -- ./inp_files/6355.got.cif
#   From: 2010.03.12/outbox.cif.g09.slc.cpg/sg129_4_cif.got.tgz:6355.got - 2010.04.06 17:19:44.
