data_PCOD8315706
_publ_section_title
;
Structure prediction by ZEFSAII (Michael W. Deem and Ramdas Pophale) SiO2 
 PCOD8315706
Probable space group: P 42/M M C
;
_chemical_formula_sum "Si O2"
_cell_formula_units_Z 96
_cell_length_a 15.396507
_cell_length_b 15.396507
_cell_length_c 20.044956
_cell_angle_alpha 90.000000
_cell_angle_beta 90.000000
_cell_angle_gamma 90.000000
_cell_volume 4751.705485
_symmetry_space_group_name_H-M "P 42/M M C"
_symmetry_group_IT_number 131
_symmetry_cell_setting 'tetragonal'
loop_
_space_group_symop_operation_xyz
x,y,z
-x,-y,z
-y,x,1/2+z
y,-x,1/2+z
-x,y,-z
x,-y,-z
y,x,1/2-z
-y,-x,1/2-z
-x,-y,-z
x,y,-z
y,-x,1/2-z
-y,x,1/2-z
x,-y,z
-x,y,z
-y,-x,1/2+z
y,x,1/2+z
loop_
_atom_site_type_symbol
_atom_site_label
_atom_site_fract_x
_atom_site_fract_y
_atom_site_fract_z
Si Si1 0.596524 0.182343 0.641114
Si Si2 0.593688 0.626886 0.323474
Si Si3 0.097357 0.367834 0.727045
Si Si4 0.771408 0.407793 0.615601
Si Si5 0.825662 0.097147 0.188281
Si Si6 0.212874 0.226827 0.074536
O O1 0.500000 0.176164 0.607177
O O2 0.608368 0.270308 0.682916
O O3 0.605092 0.106487 0.695658
O O4 0.673602 0.182097 0.586484
O O5 0.589106 0.589106 0.250000
O O6 0.500000 0.606631 0.357997
O O7 0.670350 0.585026 0.365539
O O8 0.167313 0.414047 0.680395
O O9 0.113405 0.265917 0.722839
O O10 0.000000 0.393152 0.703740
O O11 0.789650 0.500000 0.576193
O O12 0.787317 0.318027 0.576196
O O13 0.891915 0.108086 0.250000
O O14 0.836634 0.164184 0.126750
O O15 0.836055 0.000000 0.159052
O O16 0.183169 0.201717 0.000000
#
# Coordination Sequence:
#
# PCOD8315706 Si02
#       6
#    16  16  16  16  16  16
#     4  10  19  32  53  77 109 151 195 240 285 337
#     4  10  18  27  43  70 105 143 185 238 296 343
#     4  10  19  32  54  84 114 145 184 236 294 343
#     4  10  20  32  49  76 112 150 196 245 287 342
#     4  10  20  37  64  92 118 148 188 237 290 350
#     4  10  22  38  57  81 118 162 197 240 293 345
#
# _framework density 20.203272999999999
#
# number of rings (size 3 to 8) (size 9 to 14) (size 15 to 20)
#    0.000    2.000    3.333    1.000    0.000    3.667 
#    0.000    0.000    0.000    2.000    0.000   11.667 
#    0.000    0.000    0.000    0.000    0.000    0.000 
#
# Total GULP energy -1189306.143906 kJ/mol
# GULP energy per Si atom -12388.605666 kJ/mol
# Density = 2.015729 g / cm^3
# Si number density = 20.203273 Si / 1000 Ang^3
#
#
#
# Elastic Constant Matrix: (Units=GPa)
#
#
# Indices 1 2 3 4 5 6 
#
# 1 92.6904 20.8882 29.8469 0.0000 0.0000 0.0000
# 2 20.8882 92.6927 29.8477 0.0000 0.0000 0.0000
# 3 29.8469 29.8477 101.0282 0.0000 0.0000 0.0000
# 4 0.0000 0.0000 0.0000 -0.5760 0.0000 0.0000
# 5 0.0000 0.0000 0.0000 0.0000 -0.5760 0.0000
# 6 0.0000 0.0000 0.0000 0.0000 0.0000 4.7351
#
#
#
# Elastic Compliance Matrix: (Units=1/GPa)
#
#
# Indices 1 2 3 4 5 6 
#
# 1 0.012175 -0.001752 -0.003079 0.000000 0.000000 0.000000
# 2 -0.001752 0.012175 -0.003079 0.000000 0.000000 0.000000
# 3 -0.003079 -0.003079 0.011718 0.000000 0.000000 0.000000
# 4 0.000000 0.000000 0.000000 -1.736010 0.000000 0.000000
# 5 0.000000 0.000000 0.000000 0.000000 -1.736081 0.000000
# 6 0.000000 0.000000 0.000000 0.000000 0.000000 0.211191
#
#
# Mechanical properties :
#
#
# Convention : Reuss Voigt Hill
#
# Bulk Modulus (GPa) = 49.39202 49.73076 49.56139
# Shear Modulus (GPa) = -1.56140 14.43850 6.43855
#
# Velocity S-wave (km/s) = -0.88007 2.67622 1.78712
# Velocity P-wave (km/s) = 4.84437 5.84963 5.37057
#
# Compressibility (1/GPa) = 0.02024619
#
# Stress axis : x y z
#
# Youngs Moduli (GPa) = 82.13571 82.13744 85.34117
#
# Poissons Ratio (x) = 0.14391 0.26279
# Poissons Ratio (y) = 0.14391 0.26279
# Poissons Ratio (z) = 0.25292 0.25292
#
# Static dielectric constant tensor:
#      x y z
#    x 3.753060 0.000000 0.000000 
#    y 0.000000 3.753060 0.000000 
#    z 0.000000 0.000000 3.104600 
# 
# 
# High freq. dielectric constant tensor:
#      x y z
#    x 1.790750 0.000000 0.000000 
#    y 0.000000 1.790750 0.000000 
#    z 0.000000 0.000000 1.732610 
# 
# From -- ./inp_files/9728.got.cif
#   From: 2010.03.12/outbox.cif.g09.slc.cpg/sg131_5_cif.got.tgz:9728.got - 2010.04.06 17:36:35.
