data_PCOD8315203
_publ_section_title
;
Structure prediction by ZEFSAII (Michael W. Deem and Ramdas Pophale) SiO2 
 PCOD8315203
Probable space group: P 4/N M M
;
_chemical_formula_sum "Si O2"
_cell_formula_units_Z 80
_cell_length_a 18.829297
_cell_length_b 18.829297
_cell_length_c 12.294134
_cell_angle_alpha 90.000000
_cell_angle_beta 90.000000
_cell_angle_gamma 90.000000
_cell_volume 4358.792088
_symmetry_space_group_name_H-M "P 4/N M M"
_symmetry_group_IT_number 129
_symmetry_cell_setting 'tetragonal'
loop_
_space_group_symop_operation_xyz
x,y,z
1/2-y,x,z
1/2-x,1/2-y,z
y,1/2-x,z
1/2+x,-y,-z
-x,1/2+y,-z
1/2+y,1/2+x,-z
-y,-x,-z
-x,-y,-z
1/2+y,-x,-z
1/2+x,1/2+y,-z
-y,1/2+x,-z
1/2-x,y,z
x,1/2-y,z
1/2-y,1/2-x,z
y,x,z
loop_
_atom_site_type_symbol
_atom_site_label
_atom_site_fract_x
_atom_site_fract_y
_atom_site_fract_z
Si Si1 0.551799 0.332133 0.173655
Si Si2 0.948779 0.668059 0.021869
Si Si3 0.055528 0.169429 0.360913
Si Si4 0.555396 0.331523 0.789244
Si Si5 0.008893 0.605491 0.434568
O O1 0.574061 0.250000 0.164499
O O2 0.512139 0.348817 0.286546
O O3 0.622790 0.378315 0.169195
O O4 0.501385 0.354659 0.074633
O O5 0.926265 0.750000 0.009358
O O6 0.877558 0.622443 0.015890
O O7 0.987209 0.653458 0.136110
O O8 0.080105 0.250000 0.343769
O O9 0.120652 0.120652 0.323409
O O10 0.035961 0.156499 0.486346
O O11 0.579370 0.250000 0.797959
O O12 0.534238 0.348607 0.666380
O O13 0.076935 0.576935 0.500000
O O14 0.961110 0.538891 0.394893
#
# Coordination Sequence:
#
# PCOD8315203 Si02
#       5
#    16  16  16  16  16
#     4  10  21  37  55  78 110 145 184 227 273 324
#     4  10  22  38  58  85 113 144 182 225 274 329
#     4  10  20  34  54  79 108 142 180 225 275 329
#     4  11  22  36  56  82 112 144 184 231 276 326
#     4  10  19  33  55  80 106 141 185 228 276 327
#
# _framework density 18.353708999999998
#
# number of rings (size 3 to 8) (size 9 to 14) (size 15 to 20)
#    0.000    1.800    2.000    2.400    0.000    4.000 
#    0.000    0.000    0.000    7.200    0.000    2.800 
#    0.000    0.000    0.000    0.000    0.000    0.000 
#
# Total GULP energy -992357.276461 kJ/mol
# GULP energy per Si atom -12404.465956 kJ/mol
# Density = 1.831194 g / cm^3
# Si number density = 18.353709 Si / 1000 Ang^3
#
#
#
# Elastic Constant Matrix: (Units=GPa)
#
#
# Indices 1 2 3 4 5 6 
#
# 1 111.7400 78.9751 40.7835 0.0000 0.0000 0.0000
# 2 78.9751 111.7400 40.7835 0.0000 0.0000 0.0000
# 3 40.7835 40.7835 98.2664 0.0000 0.0000 0.0000
# 4 0.0000 0.0000 0.0000 26.6252 0.0000 0.0000
# 5 0.0000 0.0000 0.0000 0.0000 26.6252 0.0000
# 6 0.0000 0.0000 0.0000 0.0000 0.0000 29.5906
#
#
#
# Elastic Compliance Matrix: (Units=1/GPa)
#
#
# Indices 1 2 3 4 5 6 
#
# 1 0.018448 -0.012073 -0.002646 0.000000 0.000000 0.000000
# 2 -0.012073 0.018448 -0.002646 0.000000 0.000000 0.000000
# 3 -0.002646 -0.002646 0.012373 0.000000 0.000000 0.000000
# 4 0.000000 0.000000 0.000000 0.037558 0.000000 0.000000
# 5 0.000000 0.000000 0.000000 0.000000 0.037558 0.000000
# 6 0.000000 0.000000 0.000000 0.000000 0.000000 0.033794
#
#
# Mechanical properties :
#
#
# Convention : Reuss Voigt Hill
#
# Bulk Modulus (GPa) = 68.77884 71.42559 70.10222
# Shear Modulus (GPa) = 25.28389 27.31518 26.29953
#
# Velocity S-wave (km/s) = 3.71562 3.86199 3.78951
# Velocity P-wave (km/s) = 7.48085 7.67380 7.57794
#
# Compressibility (1/GPa) = 0.01453936
#
# Stress axis : x y z
#
# Youngs Moduli (GPa) = 54.20719 54.20719 80.82377
#
# Poissons Ratio (x) = 0.65443 0.21384
# Poissons Ratio (y) = 0.65443 0.21384
# Poissons Ratio (z) = 0.14342 0.14342
#
# Static dielectric constant tensor:
#      x y z
#    x 3.273970 0.000000 0.000000 
#    y 0.000000 3.273970 0.000000 
#    z 0.000000 0.000000 3.493590 
# 
# 
# High freq. dielectric constant tensor:
#      x y z
#    x 1.706450 0.000000 0.000000 
#    y 0.000000 1.706450 0.000000 
#    z 0.000000 0.000000 1.727070 
# 
# From -- ./inp_files/4603.got.cif
#   From: 2010.03.12/outbox.cif.g09.slc.cpg/sg129_3_cif.got.tgz:4603.got - 2010.04.06 17:19:44.
