data_PCOD8315150
_publ_section_title
;
Structure prediction by ZEFSAII (Michael W. Deem and Ramdas Pophale) SiO2 
 PCOD8315150
Probable space group: P 4/N M M
;
_chemical_formula_sum "Si O2"
_cell_formula_units_Z 80
_cell_length_a 13.147724
_cell_length_b 13.147724
_cell_length_c 26.659814
_cell_angle_alpha 90.000000
_cell_angle_beta 90.000000
_cell_angle_gamma 90.000000
_cell_volume 4608.486000
_symmetry_space_group_name_H-M "P 4/N M M"
_symmetry_group_IT_number 129
_symmetry_cell_setting 'tetragonal'
loop_
_space_group_symop_operation_xyz
x,y,z
1/2-y,x,z
1/2-x,1/2-y,z
y,1/2-x,z
1/2+x,-y,-z
-x,1/2+y,-z
1/2+y,1/2+x,-z
-y,-x,-z
-x,-y,-z
1/2+y,-x,-z
1/2+x,1/2+y,-z
-y,1/2+x,-z
1/2-x,y,z
x,1/2-y,z
1/2-y,1/2-x,z
y,x,z
loop_
_atom_site_type_symbol
_atom_site_label
_atom_site_fract_x
_atom_site_fract_y
_atom_site_fract_z
Si Si1 0.631989 0.134629 0.849021
Si Si2 0.636945 0.370856 0.354611
Si Si3 0.530962 0.367939 0.455777
Si Si4 0.499097 0.499097 0.078071
Si Si5 0.368005 0.530075 0.254100
Si Si6 0.371845 0.128156 0.999165
O O1 0.750000 0.120578 0.861303
O O2 0.596685 0.250000 0.856271
O O3 0.571943 0.067092 0.887842
O O4 0.608721 0.104959 0.791802
O O5 0.750000 0.417632 0.356303
O O6 0.643382 0.250000 0.353840
O O7 0.576753 0.408244 0.403493
O O8 0.582186 0.410353 0.304500
O O9 0.611939 0.388062 0.500000
O O10 0.504161 0.250000 0.453140
O O11 0.426725 0.426725 0.467229
O O12 0.425188 0.425188 0.046603
O O13 0.574243 0.574243 0.048025
O O14 0.250000 0.503625 0.258719
O O15 0.423727 0.423727 0.245187
O O16 0.392708 0.250000 0.999059
#
# Coordination Sequence:
#
# PCOD8315150 Si02
#       6
#    16  16  16   8  16   8
#     4  10  20  34  53  78 106 136 173 218 264 308
#     4   9  17  30  49  71  96 131 172 213 260 310
#     4  10  20  33  50  74 103 135 176 224 272 322
#     4  11  20  36  58  80 106 138 177 216 254 304
#     4  10  19  32  49  73 105 138 173 214 261 317
#     4  10  22  38  56  80 110 142 174 210 256 308
#
# _framework density 17.359280999999999
#
# number of rings (size 3 to 8) (size 9 to 14) (size 15 to 20)
#    0.000    2.100    1.000    3.000    0.000    3.800 
#    0.000    0.000    0.000    8.400    0.000    0.000 
#    0.000    3.200    0.000    0.000    0.000    0.000 
#
# Total GULP energy -991964.130590 kJ/mol
# GULP energy per Si atom -12399.551632 kJ/mol
# Density = 1.731977 g / cm^3
# Si number density = 17.359281 Si / 1000 Ang^3
#
#
#
# Elastic Constant Matrix: (Units=GPa)
#
#
# Indices 1 2 3 4 5 6 
#
# 1 94.6566 50.9424 51.9455 0.0000 0.0000 0.0000
# 2 50.9424 94.6576 51.9451 0.0000 0.0000 0.0000
# 3 51.9455 51.9451 134.8400 0.0000 0.0000 0.0000
# 4 0.0000 0.0000 0.0000 29.0462 0.0000 0.0000
# 5 0.0000 0.0000 0.0000 0.0000 29.0462 0.0000
# 6 0.0000 0.0000 0.0000 0.0000 0.0000 25.3252
#
#
#
# Elastic Compliance Matrix: (Units=1/GPa)
#
#
# Indices 1 2 3 4 5 6 
#
# 1 0.016174 -0.006702 -0.003649 0.000000 0.000000 0.000000
# 2 -0.006702 0.016174 -0.003649 0.000000 0.000000 0.000000
# 3 -0.003649 -0.003649 0.010228 0.000000 0.000000 0.000000
# 4 0.000000 0.000000 0.000000 0.034428 0.000000 0.000000
# 5 0.000000 0.000000 0.000000 0.000000 0.034428 0.000000
# 6 0.000000 0.000000 0.000000 0.000000 0.000000 0.039486
#
#
# Mechanical properties :
#
#
# Convention : Reuss Voigt Hill
#
# Bulk Modulus (GPa) = 68.60783 70.42446 69.51615
# Shear Modulus (GPa) = 27.20718 27.97159 27.58939
#
# Velocity S-wave (km/s) = 3.96321 4.01850 3.99095
# Velocity P-wave (km/s) = 7.78144 7.88593 7.83386
#
# Compressibility (1/GPa) = 0.01457560
#
# Stress axis : x y z
#
# Youngs Moduli (GPa) = 61.82839 61.82943 97.77517
#
# Poissons Ratio (x) = 0.41438 0.35678
# Poissons Ratio (y) = 0.41437 0.35676
# Poissons Ratio (z) = 0.22561 0.22560
#
# Static dielectric constant tensor:
#      x y z
#    x 3.172530 0.000000 0.000000 
#    y 0.000000 3.172530 0.000000 
#    z 0.000000 0.000000 3.437800 
# 
# 
# High freq. dielectric constant tensor:
#      x y z
#    x 1.663810 0.000000 0.000000 
#    y 0.000000 1.663810 0.000000 
#    z 0.000000 0.000000 1.688000 
# 
# From -- ./inp_files/7718.got.cif
#   From: 2010.03.12/outbox.cif.g09.slc.cpg/sg129_4_cif.got.tgz:7718.got - 2010.04.06 17:19:44.
