data_PCOD8315156
_publ_section_title
;
Structure prediction by ZEFSAII (Michael W. Deem and Ramdas Pophale) SiO2 
 PCOD8315156
Probable space group: P 4/N M M
;
_chemical_formula_sum "Si O2"
_cell_formula_units_Z 128
_cell_length_a 21.117121
_cell_length_b 21.117121
_cell_length_c 17.237507
_cell_angle_alpha 90.000000
_cell_angle_beta 90.000000
_cell_angle_gamma 90.000000
_cell_volume 7686.769750
_symmetry_space_group_name_H-M "P 4/N M M"
_symmetry_group_IT_number 129
_symmetry_cell_setting 'tetragonal'
loop_
_space_group_symop_operation_xyz
x,y,z
1/2-y,x,z
1/2-x,1/2-y,z
y,1/2-x,z
1/2+x,-y,-z
-x,1/2+y,-z
1/2+y,1/2+x,-z
-y,-x,-z
-x,-y,-z
1/2+y,-x,-z
1/2+x,1/2+y,-z
-y,1/2+x,-z
1/2-x,y,z
x,1/2-y,z
1/2-y,1/2-x,z
y,x,z
loop_
_atom_site_type_symbol
_atom_site_label
_atom_site_fract_x
_atom_site_fract_y
_atom_site_fract_z
Si Si1 0.494942 0.597958 0.289603
Si Si2 0.502050 0.897131 0.008185
Si Si3 0.924385 0.677938 0.581961
Si Si4 0.180062 0.547514 0.853345
Si Si5 0.073939 0.177049 0.596493
Si Si6 0.654947 0.180938 0.088930
Si Si7 0.003468 0.106552 0.292603
Si Si8 0.011310 0.678922 0.866135
O O1 0.553660 0.553660 0.266181
O O2 0.472213 0.633320 0.213867
O O3 0.515622 0.647352 0.355804
O O4 0.436253 0.555788 0.319511
O O5 0.558784 0.941217 0.039174
O O6 0.525794 0.866071 0.926821
O O7 0.487113 0.841879 0.068600
O O8 0.438449 0.938449 0.000000
O O9 0.910586 0.750000 0.604990
O O10 0.859547 0.640454 0.597525
O O11 0.946034 0.671436 0.493067
O O12 0.980978 0.650924 0.634347
O O13 0.250000 0.522462 0.833761
O O14 0.183712 0.623782 0.860972
O O15 0.084978 0.250000 0.620876
O O16 0.139123 0.139123 0.612816
O O17 0.680595 0.250000 0.117739
O O18 0.580147 0.180560 0.096763
O O19 0.673129 0.173129 0.000000
O O20 0.062951 0.062951 0.269795
O O21 0.987065 0.149512 0.219153
O O22 0.982359 0.750000 0.861699
#
# Coordination Sequence:
#
# PCOD8315156 Si02
#       8
#    16  16  16  16  16  16  16  16
#     4  10  20  34  50  71  99 129 162 202 250 293
#     4  11  20  32  48  67  93 123 157 196 242 290
#     4   9  18  32  51  76 103 131 163 200 246 300
#     4  12  21  33  49  69  95 126 167 203 242 291
#     4   9  18  33  52  75 102 130 162 201 248 301
#     4  11  21  33  47  66  95 126 161 201 242 288
#     4  10  19  32  50  72  99 129 162 199 243 291
#     4  11  19  31  48  68  95 125 160 197 236 284
#
# _framework density 16.651989
#
# number of rings (size 3 to 8) (size 9 to 14) (size 15 to 20)
#    0.000    1.625    3.750    2.250    0.000    3.625 
#    0.000    3.750    0.000    0.000    0.000    0.000 
#    0.000   19.000    0.000    5.750    0.000    0.250 
#
# Total GULP energy -1586965.782554 kJ/mol
# GULP energy per Si atom -12398.170176 kJ/mol
# Density = 1.661409 g / cm^3
# Si number density = 16.651989 Si / 1000 Ang^3
#
#
#
# Elastic Constant Matrix: (Units=GPa)
#
#
# Indices 1 2 3 4 5 6 
#
# 1 91.0329 45.2715 48.1589 0.0000 0.0000 0.0000
# 2 45.2715 91.0329 48.1589 0.0000 0.0000 0.0000
# 3 48.1589 48.1589 88.1249 0.0000 0.0000 0.0000
# 4 0.0000 0.0000 0.0000 49.0039 0.0000 0.0000
# 5 0.0000 0.0000 0.0000 0.0000 49.0039 0.0000
# 6 0.0000 0.0000 0.0000 0.0000 0.0000 13.6117
#
#
#
# Elastic Compliance Matrix: (Units=1/GPa)
#
#
# Indices 1 2 3 4 5 6 
#
# 1 0.016902 -0.004950 -0.006532 0.000000 0.000000 0.000000
# 2 -0.004950 0.016902 -0.006532 0.000000 0.000000 0.000000
# 3 -0.006532 -0.006532 0.018486 0.000000 0.000000 0.000000
# 4 0.000000 0.000000 0.000000 0.020407 0.000000 0.000000
# 5 0.000000 0.000000 0.000000 0.000000 0.020407 0.000000
# 6 0.000000 0.000000 0.000000 0.000000 0.000000 0.073466
#
#
# Mechanical properties :
#
#
# Convention : Reuss Voigt Hill
#
# Bulk Modulus (GPa) = 61.48549 61.48549 61.48549
# Shear Modulus (GPa) = 24.03636 30.89731 27.46683
#
# Velocity S-wave (km/s) = 3.80340 4.31219 4.06576
# Velocity P-wave (km/s) = 7.50279 7.86113 7.68405
#
# Compressibility (1/GPa) = 0.01626400
#
# Stress axis : x y z
#
# Youngs Moduli (GPa) = 59.16371 59.16371 54.09390
#
# Poissons Ratio (x) = 0.29288 0.35332
# Poissons Ratio (y) = 0.29288 0.35332
# Poissons Ratio (z) = 0.38643 0.38643
#
# Static dielectric constant tensor:
#      x y z
#    x 3.254520 0.000000 0.000000 
#    y 0.000000 3.254520 0.000000 
#    z 0.000000 0.000000 3.074070 
# 
# 
# High freq. dielectric constant tensor:
#      x y z
#    x 1.639920 0.000000 0.000000 
#    y 0.000000 1.639920 0.000000 
#    z 0.000000 0.000000 1.634200 
# 
# From -- ./inp_files/6123.got.cif
#   From: 2010.03.12/outbox.cif.g09.slc.cpg/sg129_4_cif.got.tgz:6123.got - 2010.04.06 17:19:44.
