data_PCOD8315958
_publ_section_title
;
Structure prediction by ZEFSAII (Michael W. Deem and Ramdas Pophale) SiO2 
 PCOD8315958
Probable space group: P 42/M M C
;
_chemical_formula_sum "Si O2"
_cell_formula_units_Z 54
_cell_length_a 10.699627
_cell_length_b 10.699627
_cell_length_c 22.841291
_cell_angle_alpha 90.000000
_cell_angle_beta 90.000000
_cell_angle_gamma 90.000000
_cell_volume 2614.917086
_symmetry_space_group_name_H-M "P 42/M M C"
_symmetry_group_IT_number 131
_symmetry_cell_setting 'tetragonal'
loop_
_space_group_symop_operation_xyz
x,y,z
-x,-y,z
-y,x,1/2+z
y,-x,1/2+z
-x,y,-z
x,-y,-z
y,x,1/2-z
-y,-x,1/2-z
-x,-y,-z
x,y,-z
y,-x,1/2-z
-y,x,1/2-z
x,-y,z
-x,y,z
-y,-x,1/2+z
y,x,1/2+z
loop_
_atom_site_type_symbol
_atom_site_label
_atom_site_fract_x
_atom_site_fract_y
_atom_site_fract_z
Si Si1 0.500000 0.233719 0.807754
Si Si2 0.256856 0.746684 0.625773
Si Si3 0.000000 0.858991 0.892963
Si Si4 0.636009 0.266841 0.500000
Si Si5 0.500000 0.500000 0.750000
Si Si6 0.500000 0.856477 0.318973
Si Si7 0.677945 0.000000 0.500000
O O1 0.623964 0.198350 0.844390
O O2 0.500000 0.379924 0.791841
O O3 0.500000 0.146321 0.750951
O O4 0.167283 0.867017 0.639303
O O5 0.279714 0.708161 0.557546
O O6 0.385585 0.780037 0.656059
O O7 0.000000 0.765625 0.945209
O O8 0.000000 0.000000 0.914561
O O9 0.500000 0.338760 0.500000
O O10 0.593368 0.121988 0.500000
O O11 0.500000 0.000000 0.341090
#
# Coordination Sequence:
#
# PCOD8315958 Si02
#       7
#     8  16   8   8   2   8   4
#     4  12  24  41  62  86 126 168 216 251 314 382
#     4  11  22  39  62  92 125 165 204 260 320 385
#     4  10  21  38  62  88 124 156 206 256 311 369
#     4  10  19  32  57  92 128 157 198 261 323 380
#     4  12  20  36  60  82 104 164 196 244 290 376
#     4  12  22  39  64  88 121 163 215 258 311 374
#     4   8  18  32  58  86 116 167 197 240 312 384
#
# _framework density 20.650752000000001
#
# number of rings (size 3 to 8) (size 9 to 14) (size 15 to 20)
#    0.000    1.185    5.926    0.444    0.000    1.778 
#    0.000    0.741    0.000    0.000    0.000    7.259 
#    0.000    0.000    0.000    0.000    0.000    0.000 
#
# Total GULP energy -669039.532388 kJ/mol
# GULP energy per Si atom -12389.620970 kJ/mol
# Density = 2.060375 g / cm^3
# Si number density = 20.650752 Si / 1000 Ang^3
#
#
#
# Elastic Constant Matrix: (Units=GPa)
#
#
# Indices 1 2 3 4 5 6 
#
# 1 108.2533 8.7891 23.2848 0.0000 0.0000 0.0000
# 2 8.7891 108.2533 23.2848 0.0000 0.0000 0.0000
# 3 23.2848 23.2848 117.7576 0.0000 0.0000 0.0000
# 4 0.0000 0.0000 0.0000 25.5825 0.0000 0.0000
# 5 0.0000 0.0000 0.0000 0.0000 25.5825 0.0000
# 6 0.0000 0.0000 0.0000 0.0000 0.0000 -8.7526
#
#
#
# Elastic Compliance Matrix: (Units=1/GPa)
#
#
# Indices 1 2 3 4 5 6 
#
# 1 0.009664 -0.000390 -0.001834 0.000000 0.000000 0.000000
# 2 -0.000390 0.009664 -0.001834 0.000000 0.000000 0.000000
# 3 -0.001834 -0.001834 0.009217 0.000000 0.000000 0.000000
# 4 0.000000 0.000000 0.000000 0.039089 0.000000 0.000000
# 5 0.000000 0.000000 0.000000 0.000000 0.039089 0.000000
# 6 0.000000 0.000000 0.000000 0.000000 0.000000 -0.114252
#
#
# Mechanical properties :
#
#
# Convention : Reuss Voigt Hill
#
# Bulk Modulus (GPa) = 48.94901 49.44242 49.19572
# Shear Modulus (GPa) = 676.04351 27.07617 351.55984
#
# Velocity S-wave (km/s) = 18.11300 3.62490 13.06179
# Velocity P-wave (km/s) = 21.47546 6.44314 15.85417
#
# Compressibility (1/GPa) = 0.02042942
#
# Stress axis : x y z
#
# Youngs Moduli (GPa) = 103.48013 103.48013 108.49290
#
# Poissons Ratio (x) = 0.04038 0.19894
# Poissons Ratio (y) = 0.04038 0.19894
# Poissons Ratio (z) = 0.18975 0.18975
#
# Static dielectric constant tensor:
#      x y z
#    x 3.856630 0.000000 0.000000 
#    y 0.000000 3.856630 0.000000 
#    z 0.000000 0.000000 3.817650 
# 
# 
# High freq. dielectric constant tensor:
#      x y z
#    x 1.800940 0.000000 0.000000 
#    y 0.000000 1.800940 0.000000 
#    z 0.000000 0.000000 1.803660 
# 
# From -- ./inp_files/9140.got.cif
#   From: 2010.03.12/outbox.cif.g09.slc.cpg/sg131_5_cif.got.tgz:9140.got - 2010.04.06 17:36:35.
