data_PCOD8315441
_publ_section_title
;
Structure prediction by ZEFSAII (Michael W. Deem and Ramdas Pophale) SiO2 
 PCOD8315441
Probable space group: P 4/N M M
;
_chemical_formula_sum "Si O2"
_cell_formula_units_Z 80
_cell_length_a 14.162339
_cell_length_b 14.162339
_cell_length_c 24.614314
_cell_angle_alpha 90.000000
_cell_angle_beta 90.000000
_cell_angle_gamma 90.000000
_cell_volume 4936.938396
_symmetry_space_group_name_H-M "P 4/N M M"
_symmetry_group_IT_number 129
_symmetry_cell_setting 'tetragonal'
loop_
_space_group_symop_operation_xyz
x,y,z
1/2-y,x,z
1/2-x,1/2-y,z
y,1/2-x,z
1/2+x,-y,-z
-x,1/2+y,-z
1/2+y,1/2+x,-z
-y,-x,-z
-x,-y,-z
1/2+y,-x,-z
1/2+x,1/2+y,-z
-y,1/2+x,-z
1/2-x,y,z
x,1/2-y,z
1/2-y,1/2-x,z
y,x,z
loop_
_atom_site_type_symbol
_atom_site_label
_atom_site_fract_x
_atom_site_fract_y
_atom_site_fract_z
Si Si1 0.357614 0.507547 0.849515
Si Si2 0.141985 0.510574 0.468057
Si Si3 0.358185 0.510845 0.341269
Si Si4 0.354319 0.637361 0.059462
Si Si5 0.640846 0.013535 0.274004
O O1 0.250000 0.487993 0.864354
O O2 0.407854 0.407854 0.856060
O O3 0.402857 0.581276 0.892036
O O4 0.369337 0.546712 0.788459
O O5 0.099750 0.599750 0.500000
O O6 0.250000 0.494548 0.486002
O O7 0.134302 0.533879 0.404681
O O8 0.084449 0.415551 0.482839
O O9 0.250000 0.495369 0.323331
O O10 0.415759 0.415759 0.326483
O O11 0.401369 0.600447 0.310067
O O12 0.250000 0.595071 0.068744
O O13 0.349533 0.750000 0.061357
O O14 0.393612 0.606389 0.000000
O O15 0.750000 0.994917 0.289304
O O16 0.583090 0.916911 0.285089
#
# Coordination Sequence:
#
# PCOD8315441 Si02
#       5
#    16  16  16  16  16
#     4   9  17  28  42  61  84 110 140 172 207 249
#     4   9  18  32  49  69  93 120 149 182 219 258
#     4   9  18  32  49  69  92 117 146 181 220 261
#     4   8  14  25  40  58  81 107 135 170 210 249
#     4   9  18  31  45  63  88 116 147 183 220 260
#
# _framework density 16.204374999999999
#
# number of rings (size 3 to 8) (size 9 to 14) (size 15 to 20)
#    0.000    3.200    0.000    0.600    0.000    3.400 
#    0.000    8.000    0.000    0.000    0.000    5.600 
#    0.000    0.400    0.000    0.400    0.000    0.400 
#
# Total GULP energy -991740.039505 kJ/mol
# GULP energy per Si atom -12396.750494 kJ/mol
# Density = 1.616749 g / cm^3
# Si number density = 16.204375 Si / 1000 Ang^3
#
#
#
# Elastic Constant Matrix: (Units=GPa)
#
#
# Indices 1 2 3 4 5 6 
#
# 1 102.5073 49.5595 49.2714 0.0000 0.0000 0.0000
# 2 49.5595 102.5075 49.2714 0.0000 0.0000 0.0000
# 3 49.2714 49.2714 63.2307 0.0000 0.0000 0.0000
# 4 0.0000 0.0000 0.0000 24.9449 0.0000 0.0000
# 5 0.0000 0.0000 0.0000 0.0000 24.9448 0.0000
# 6 0.0000 0.0000 0.0000 0.0000 0.0000 14.7871
#
#
#
# Elastic Compliance Matrix: (Units=1/GPa)
#
#
# Indices 1 2 3 4 5 6 
#
# 1 0.016085 -0.002801 -0.010351 0.000000 0.000000 0.000000
# 2 -0.002801 0.016085 -0.010351 0.000000 0.000000 0.000000
# 3 -0.010351 -0.010351 0.031947 0.000000 0.000000 0.000000
# 4 0.000000 0.000000 0.000000 0.040088 0.000000 0.000000
# 5 0.000000 0.000000 0.000000 0.000000 0.040088 0.000000
# 6 0.000000 0.000000 0.000000 0.000000 0.000000 0.067626
#
#
# Mechanical properties :
#
#
# Convention : Reuss Voigt Hill
#
# Bulk Modulus (GPa) = 58.44545 62.71667 60.58106
# Shear Modulus (GPa) = 18.89421 20.94493 19.91957
#
# Velocity S-wave (km/s) = 3.41837 3.59910 3.50990
# Velocity P-wave (km/s) = 7.19210 7.48725 7.34116
#
# Compressibility (1/GPa) = 0.01710997
#
# Stress axis : x y z
#
# Youngs Moduli (GPa) = 62.16895 62.16911 31.30177
#
# Poissons Ratio (x) = 0.17415 0.32401
# Poissons Ratio (y) = 0.17415 0.32401
# Poissons Ratio (z) = 0.64353 0.64352
#
# Static dielectric constant tensor:
#      x y z
#    x 3.031130 0.000000 0.000000 
#    y 0.000000 3.031130 0.000000 
#    z 0.000000 0.000000 3.224330 
# 
# 
# High freq. dielectric constant tensor:
#      x y z
#    x 1.609500 0.000000 0.000000 
#    y 0.000000 1.609500 0.000000 
#    z 0.000000 0.000000 1.628100 
# 
# From -- ./inp_files/6320.got.cif
#   From: 2010.03.12/outbox.cif.g09.slc.cpg/sg129_4_cif.got.tgz:6320.got - 2010.04.06 17:19:44.
