data_PCOD8315320
_publ_section_title
;
Structure prediction by ZEFSAII (Michael W. Deem and Ramdas Pophale) SiO2 
 PCOD8315320
Probable space group: P 4/N M M
;
_chemical_formula_sum "Si O2"
_cell_formula_units_Z 80
_cell_length_a 13.126103
_cell_length_b 13.126103
_cell_length_c 25.799303
_cell_angle_alpha 90.000000
_cell_angle_beta 90.000000
_cell_angle_gamma 90.000000
_cell_volume 4445.080074
_symmetry_space_group_name_H-M "P 4/N M M"
_symmetry_group_IT_number 129
_symmetry_cell_setting 'tetragonal'
loop_
_space_group_symop_operation_xyz
x,y,z
1/2-y,x,z
1/2-x,1/2-y,z
y,1/2-x,z
1/2+x,-y,-z
-x,1/2+y,-z
1/2+y,1/2+x,-z
-y,-x,-z
-x,-y,-z
1/2+y,-x,-z
1/2+x,1/2+y,-z
-y,1/2+x,-z
1/2-x,y,z
x,1/2-y,z
1/2-y,1/2-x,z
y,x,z
loop_
_atom_site_type_symbol
_atom_site_label
_atom_site_fract_x
_atom_site_fract_y
_atom_site_fract_z
Si Si1 0.464578 0.631618 0.549014
Si Si2 0.368310 0.968092 0.046263
Si Si3 0.363282 0.629208 0.848997
Si Si4 0.532441 0.130526 0.256525
Si Si5 0.132035 0.535484 0.647863
O O1 0.394878 0.605123 0.500000
O O2 0.492749 0.750000 0.548708
O O3 0.570584 0.570584 0.547090
O O4 0.401083 0.605323 0.600071
O O5 0.250000 0.994663 0.049560
O O6 0.409605 0.920077 0.099664
O O7 0.426966 0.073035 0.035177
O O8 0.388265 0.888265 0.000000
O O9 0.250000 0.581602 0.847683
O O10 0.355422 0.750000 0.849867
O O11 0.424146 0.593060 0.798477
O O12 0.510530 0.250000 0.257644
O O13 0.613887 0.100491 0.300194
O O14 0.425512 0.074489 0.267287
O O15 0.250000 0.506856 0.643202
O O16 0.070020 0.429981 0.648580
#
# Coordination Sequence:
#
# PCOD8315320 Si02
#       5
#    16  16  16  16  16
#     4  10  21  36  54  78 106 136 172 211 252 301
#     4  10  20  33  50  73 100 131 168 208 251 301
#     4   9  17  30  49  71  95 126 164 205 248 292
#     4  10  20  33  50  74 103 135 172 211 252 300
#     4  10  21  36  54  77 103 132 169 211 255 305
#
# _framework density 17.997426999999998
#
# number of rings (size 3 to 8) (size 9 to 14) (size 15 to 20)
#    0.000    2.200    0.000    3.000    0.000    5.200 
#    0.000    0.000    0.000   10.800    0.000    0.000 
#    0.000   14.400    0.000    0.000    0.000    0.000 
#
# Total GULP energy -992234.176096 kJ/mol
# GULP energy per Si atom -12402.927201 kJ/mol
# Density = 1.795646 g / cm^3
# Si number density = 17.997427 Si / 1000 Ang^3
#
#
#
# Elastic Constant Matrix: (Units=GPa)
#
#
# Indices 1 2 3 4 5 6 
#
# 1 104.5109 45.6294 38.1406 0.0000 0.0000 0.0000
# 2 45.6294 104.5102 38.1425 0.0000 0.0000 0.0000
# 3 38.1406 38.1425 145.6081 0.0000 0.0000 0.0000
# 4 0.0000 0.0000 0.0000 22.5850 0.0000 0.0000
# 5 0.0000 0.0000 0.0000 0.0000 22.5837 0.0000
# 6 0.0000 0.0000 0.0000 0.0000 0.0000 13.9881
#
#
#
# Elastic Compliance Matrix: (Units=1/GPa)
#
#
# Indices 1 2 3 4 5 6 
#
# 1 0.012333 -0.004650 -0.002012 0.000000 0.000000 0.000000
# 2 -0.004650 0.012333 -0.002013 0.000000 0.000000 0.000000
# 3 -0.002012 -0.002013 0.007922 0.000000 0.000000 0.000000
# 4 0.000000 0.000000 0.000000 0.044277 0.000000 0.000000
# 5 0.000000 0.000000 0.000000 0.000000 0.044280 0.000000
# 6 0.000000 0.000000 0.000000 0.000000 0.000000 0.071489
#
#
# Mechanical properties :
#
#
# Convention : Reuss Voigt Hill
#
# Bulk Modulus (GPa) = 65.62571 66.49493 66.06032
# Shear Modulus (GPa) = 23.24885 27.34580 25.29733
#
# Velocity S-wave (km/s) = 3.59804 3.90221 3.75321
# Velocity P-wave (km/s) = 7.33514 7.57167 7.45434
#
# Compressibility (1/GPa) = 0.01523793
#
# Stress axis : x y z
#
# Youngs Moduli (GPa) = 81.08290 81.08141 126.22912
#
# Poissons Ratio (x) = 0.37704 0.25402
# Poissons Ratio (y) = 0.37705 0.25406
# Poissons Ratio (z) = 0.16317 0.16319
#
# Static dielectric constant tensor:
#      x y z
#    x 3.140170 0.000000 0.000000 
#    y 0.000000 3.140170 0.000000 
#    z 0.000000 0.000000 3.639910 
# 
# 
# High freq. dielectric constant tensor:
#      x y z
#    x 1.686350 0.000000 0.000000 
#    y 0.000000 1.686350 0.000000 
#    z 0.000000 0.000000 1.720570 
# 
# From -- ./inp_files/7700.got.cif
#   From: 2010.03.12/outbox.cif.g09.slc.cpg/sg129_4_cif.got.tgz:7700.got - 2010.04.06 17:19:44.
