data_PCOD8315058
_publ_section_title
;
Structure prediction by ZEFSAII (Michael W. Deem and Ramdas Pophale) SiO2 
 PCOD8315058
Probable space group: P 4/N M M
;
_chemical_formula_sum "Si O2"
_cell_formula_units_Z 56
_cell_length_a 13.742115
_cell_length_b 13.742115
_cell_length_c 17.856086
_cell_angle_alpha 90.000000
_cell_angle_beta 90.000000
_cell_angle_gamma 90.000000
_cell_volume 3372.045500
_symmetry_space_group_name_H-M "P 4/N M M"
_symmetry_group_IT_number 129
_symmetry_cell_setting 'tetragonal'
loop_
_space_group_symop_operation_xyz
x,y,z
1/2-y,x,z
1/2-x,1/2-y,z
y,1/2-x,z
1/2+x,-y,-z
-x,1/2+y,-z
1/2+y,1/2+x,-z
-y,-x,-z
-x,-y,-z
1/2+y,-x,-z
1/2+x,1/2+y,-z
-y,1/2+x,-z
1/2-x,y,z
x,1/2-y,z
1/2-y,1/2-x,z
y,x,z
loop_
_atom_site_type_symbol
_atom_site_label
_atom_site_fract_x
_atom_site_fract_y
_atom_site_fract_z
Si Si1 0.864383 0.023092 0.061429
Si Si2 0.480717 0.863999 0.644624
Si Si3 0.139288 0.862419 0.209850
Si Si4 0.137420 0.637420 0.500000
O O1 0.750000 0.003138 0.050933
O O2 0.888692 0.068695 0.141813
O O3 0.899550 0.100450 0.000000
O O4 0.921001 0.921001 0.052755
O O5 0.499936 0.750000 0.642816
O O6 0.422133 0.895549 0.718282
O O7 0.420745 0.898977 0.572389
O O8 0.584935 0.915066 0.645036
O O9 0.250000 0.889110 0.187232
O O10 0.131720 0.750000 0.231744
O O11 0.117682 0.750000 0.483415
#
# Coordination Sequence:
#
# PCOD8315058 Si02
#       4
#    16  16  16   8
#     4  10  20  33  50  72  97 125 157 193 233 277
#     4  10  19  30  45  65  91 121 150 182 221 267
#     4   9  17  30  49  71  92 116 150 191 231 269
#     4   9  17  30  48  68  87 109 144 190 234 269
#
# _framework density 16.607129
#
# number of rings (size 3 to 8) (size 9 to 14) (size 15 to 20)
#    0.000    2.429    0.000    3.000    0.000    5.429 
#    0.000    0.000    0.000    0.000    0.000    4.000 
#    0.000   20.571    0.000    0.000    0.000    0.000 
#
# Total GULP energy -694488.608760 kJ/mol
# GULP energy per Si atom -12401.582299 kJ/mol
# Density = 1.656933 g / cm^3
# Si number density = 16.607129 Si / 1000 Ang^3
#
#
#
# Elastic Constant Matrix: (Units=GPa)
#
#
# Indices 1 2 3 4 5 6 
#
# 1 78.4317 52.2288 56.9593 0.0000 0.0000 0.0000
# 2 52.2288 78.4302 56.9594 0.0000 0.0000 0.0000
# 3 56.9593 56.9594 127.9150 0.0000 0.0000 0.0000
# 4 0.0000 0.0000 0.0000 20.5648 0.0000 0.0000
# 5 0.0000 0.0000 0.0000 0.0000 20.5643 0.0000
# 6 0.0000 0.0000 0.0000 0.0000 0.0000 27.4784
#
#
#
# Elastic Compliance Matrix: (Units=1/GPa)
#
#
# Indices 1 2 3 4 5 6 
#
# 1 0.025337 -0.012827 -0.005571 0.000000 0.000000 0.000000
# 2 -0.012827 0.025338 -0.005571 0.000000 0.000000 0.000000
# 3 -0.005571 -0.005571 0.012779 0.000000 0.000000 0.000000
# 4 0.000000 0.000000 0.000000 0.048627 0.000000 0.000000
# 5 0.000000 0.000000 0.000000 0.000000 0.048628 0.000000
# 6 0.000000 0.000000 0.000000 0.000000 0.000000 0.036392
#
#
# Mechanical properties :
#
#
# Convention : Reuss Voigt Hill
#
# Bulk Modulus (GPa) = 64.44663 68.56357 66.50510
# Shear Modulus (GPa) = 19.98312 21.63012 20.80662
#
# Velocity S-wave (km/s) = 3.47260 3.61288 3.54343
# Velocity P-wave (km/s) = 7.41414 7.66675 7.54150
#
# Compressibility (1/GPa) = 0.01551671
#
# Stress axis : x y z
#
# Youngs Moduli (GPa) = 39.46750 39.46629 78.25364
#
# Poissons Ratio (x) = 0.50624 0.43592
# Poissons Ratio (y) = 0.50626 0.43595
# Poissons Ratio (z) = 0.21986 0.21987
#
# Static dielectric constant tensor:
#      x y z
#    x 2.978360 0.000000 0.000000 
#    y 0.000000 2.978360 0.000000 
#    z 0.000000 0.000000 3.286360 
# 
# 
# High freq. dielectric constant tensor:
#      x y z
#    x 1.631170 0.000000 0.000000 
#    y 0.000000 1.631170 0.000000 
#    z 0.000000 0.000000 1.655830 
# 
# From -- ./inp_files/4395.got.cif
#   From: 2010.03.12/outbox.cif.g09.slc.cpg/sg129_3_cif.got.tgz:4395.got - 2010.04.06 17:19:44.
