data_PCOD8315785
_publ_section_title
;
Structure prediction by ZEFSAII (Michael W. Deem and Ramdas Pophale) SiO2 
 PCOD8315785
Probable space group: P 42/M M C
;
_chemical_formula_sum "Si O2"
_cell_formula_units_Z 96
_cell_length_a 16.832193
_cell_length_b 16.832193
_cell_length_c 18.553845
_cell_angle_alpha 90.000000
_cell_angle_beta 90.000000
_cell_angle_gamma 90.000000
_cell_volume 5256.725854
_symmetry_space_group_name_H-M "P 42/M M C"
_symmetry_group_IT_number 131
_symmetry_cell_setting 'tetragonal'
loop_
_space_group_symop_operation_xyz
x,y,z
-x,-y,z
-y,x,1/2+z
y,-x,1/2+z
-x,y,-z
x,-y,-z
y,x,1/2-z
-y,-x,1/2-z
-x,-y,-z
x,y,-z
y,-x,1/2-z
-y,x,1/2-z
x,-y,z
-x,y,z
-y,-x,1/2+z
y,x,1/2+z
loop_
_atom_site_type_symbol
_atom_site_label
_atom_site_fract_x
_atom_site_fract_y
_atom_site_fract_z
Si Si1 0.586932 0.907131 0.576927
Si Si2 0.588646 0.727315 0.083676
Si Si3 0.345866 0.591812 0.819262
Si Si4 0.684351 0.188955 0.322085
Si Si5 0.741575 0.819238 0.084777
Si Si6 0.207868 0.093164 0.217587
O O1 0.625894 0.880916 0.500000
O O2 0.500000 0.867812 0.581284
O O3 0.634367 0.882464 0.646522
O O4 0.579145 0.000000 0.579613
O O5 0.500000 0.749951 0.111740
O O6 0.617535 0.644456 0.117383
O O7 0.647510 0.802097 0.098763
O O8 0.587392 0.708549 0.000000
O O9 0.402874 0.597127 0.750000
O O10 0.338419 0.500000 0.843931
O O11 0.260159 0.627612 0.795992
O O12 0.741367 0.213282 0.387722
O O13 0.728211 0.152369 0.253421
O O14 0.776800 0.893208 0.131801
O O15 0.758759 0.835366 0.000000
O O16 0.122195 0.122195 0.250000
O O17 0.217726 0.000000 0.235600
#
# Coordination Sequence:
#
# PCOD8315785 Si02
#       6
#    16  16  16  16  16  16
#     4   9  17  28  44  69  99 128 157 195 248 302
#     4   9  18  33  52  73 100 136 175 215 258 300
#     4  11  22  33  47  68  96 132 173 217 261 300
#     4  10  18  33  51  71  97 130 171 208 243 296
#     4   9  18  33  54  78 101 130 170 210 248 293
#     4  10  21  36  56  80 104 131 162 199 247 305
#
# _framework density 18.262318
#
# number of rings (size 3 to 8) (size 9 to 14) (size 15 to 20)
#    0.000    2.333    0.000    5.000    0.000    2.667 
#    0.000    1.667    0.000    7.000    0.000    7.000 
#    0.000    0.000    0.000    0.000    0.000    0.000 
#
# Total GULP energy -1189408.131732 kJ/mol
# GULP energy per Si atom -12389.668039 kJ/mol
# Density = 1.822075 g / cm^3
# Si number density = 18.262318 Si / 1000 Ang^3
#
#
#
# Elastic Constant Matrix: (Units=GPa)
#
#
# Indices 1 2 3 4 5 6 
#
# 1 82.0216 32.3247 29.5970 0.0000 0.0000 0.0000
# 2 32.3247 82.0218 29.5970 0.0000 0.0000 0.0000
# 3 29.5970 29.5970 86.0939 0.0000 0.0000 0.0000
# 4 0.0000 0.0000 0.0000 24.6561 0.0000 0.0000
# 5 0.0000 0.0000 0.0000 0.0000 24.6560 0.0000
# 6 0.0000 0.0000 0.0000 0.0000 0.0000 15.7347
#
#
#
# Elastic Compliance Matrix: (Units=1/GPa)
#
#
# Indices 1 2 3 4 5 6 
#
# 1 0.015380 -0.004742 -0.003657 0.000000 0.000000 0.000000
# 2 -0.004742 0.015380 -0.003657 0.000000 0.000000 0.000000
# 3 -0.003657 -0.003657 0.014130 0.000000 0.000000 0.000000
# 4 0.000000 0.000000 0.000000 0.040558 0.000000 0.000000
# 5 0.000000 0.000000 0.000000 0.000000 0.040558 0.000000
# 6 0.000000 0.000000 0.000000 0.000000 0.000000 0.063554
#
#
# Mechanical properties :
#
#
# Convention : Reuss Voigt Hill
#
# Bulk Modulus (GPa) = 48.12811 48.13050 48.12931
# Shear Modulus (GPa) = 22.66562 23.58395 23.12479
#
# Velocity S-wave (km/s) = 3.52677 3.59750 3.56231
# Velocity P-wave (km/s) = 6.55707 6.60820 6.58268
#
# Compressibility (1/GPa) = 0.02077788
#
# Stress axis : x y z
#
# Youngs Moduli (GPa) = 65.01821 65.01840 70.77241
#
# Poissons Ratio (x) = 0.30829 0.25884
# Poissons Ratio (y) = 0.30829 0.25884
# Poissons Ratio (z) = 0.23779 0.23779
#
# Static dielectric constant tensor:
#      x y z
#    x 3.322950 0.000000 0.000000 
#    y 0.000000 3.322950 0.000000 
#    z 0.000000 0.000000 3.482180 
# 
# 
# High freq. dielectric constant tensor:
#      x y z
#    x 1.693230 0.000000 0.000000 
#    y 0.000000 1.693230 0.000000 
#    z 0.000000 0.000000 1.714920 
# 
# From -- ./inp_files/7929.got.cif
#   From: 2010.03.12/outbox.cif.g09.slc.cpg/sg131_4_cif.got.tgz:7929.got - 2010.04.06 17:36:35.
