data_PCOD8315510
_publ_section_title
;
Structure prediction by ZEFSAII (Michael W. Deem and Ramdas Pophale) SiO2 
 PCOD8315510
Probable space group: P 4/N C C
;
_chemical_formula_sum "Si O2"
_cell_formula_units_Z 88
_cell_length_a 12.541820
_cell_length_b 12.541820
_cell_length_c 26.837794
_cell_angle_alpha 90.000000
_cell_angle_beta 90.000000
_cell_angle_gamma 90.000000
_cell_volume 4221.511163
_symmetry_space_group_name_H-M "P 4/N C C"
_symmetry_group_IT_number 130
_symmetry_cell_setting 'tetragonal'
loop_
_space_group_symop_operation_xyz
x,y,z
1/2-y,x,z
1/2-x,1/2-y,z
y,1/2-x,z
1/2+x,-y,1/2-z
-x,1/2+y,1/2-z
1/2+y,1/2+x,1/2-z
-y,-x,1/2-z
-x,-y,-z
1/2+y,-x,-z
1/2+x,1/2+y,-z
-y,1/2+x,-z
1/2-x,y,1/2+z
x,1/2-y,1/2+z
1/2-y,1/2-x,1/2+z
y,x,1/2+z
loop_
_atom_site_type_symbol
_atom_site_label
_atom_site_fract_x
_atom_site_fract_y
_atom_site_fract_z
Si Si1 0.267992 0.572630 0.114393
Si Si2 0.612426 0.239359 0.848151
Si Si3 0.745903 0.077079 0.495542
Si Si4 0.871782 0.371782 0.250000
Si Si5 0.266287 0.076816 0.412825
Si Si6 0.416776 0.309090 0.697324
O O1 0.349589 0.672969 0.110758
O O2 0.166693 0.623404 0.144229
O O3 0.237694 0.528738 0.059893
O O4 0.317058 0.470477 0.142760
O O5 0.645832 0.286975 0.794457
O O6 0.488671 0.224234 0.860921
O O7 0.641975 0.149511 0.491276
O O8 0.723746 0.988199 0.536290
O O9 0.851679 0.494468 0.264513
O O10 0.365203 0.154622 0.412196
O O11 0.314627 0.384447 0.704738
#
# Coordination Sequence:
#
# PCOD8315510 Si02
#       6
#    16  16  16   8  16  16
#     4  10  20  37  67  92 121 166 208 260 320 376
#     4  10  20  41  61  93 123 159 214 271 314 388
#     4  11  19  39  66  93 124 165 216 264 314 376
#     4  10  24  41  72  95 122 172 222 263 334 402
#     4  11  25  40  57  91 134 172 211 261 322 382
#     4  10  24  43  61  92 132 164 208 272 328 382
#
# _framework density 20.845617000000001
#
# number of rings (size 3 to 8) (size 9 to 14) (size 15 to 20)
#    0.000    1.636    3.636    1.091    0.000   13.818 
#    0.000    3.636    0.000    0.000    0.000    0.000 
#    0.000    0.000    0.000    0.000    0.000    0.000 
#
# Total GULP energy -1090444.788130 kJ/mol
# GULP energy per Si atom -12391.418047 kJ/mol
# Density = 2.079817 g / cm^3
# Si number density = 20.845617 Si / 1000 Ang^3
#
#
#
# Elastic Constant Matrix: (Units=GPa)
#
#
# Indices 1 2 3 4 5 6 
#
# 1 88.7324 12.4416 28.6255 0.0000 0.0000 0.0000
# 2 12.4416 88.7324 28.6255 0.0000 0.0000 0.0000
# 3 28.6255 28.6255 130.1620 0.0000 0.0000 0.0000
# 4 0.0000 0.0000 0.0000 23.5843 0.0000 0.0000
# 5 0.0000 0.0000 0.0000 0.0000 23.5843 0.0000
# 6 0.0000 0.0000 0.0000 0.0000 0.0000 162.0643
#
#
#
# Elastic Compliance Matrix: (Units=1/GPa)
#
#
# Indices 1 2 3 4 5 6 
#
# 1 0.012198 -0.000909 -0.002483 0.000000 0.000000 0.000000
# 2 -0.000909 0.012198 -0.002483 0.000000 0.000000 0.000000
# 3 -0.002483 -0.002483 0.008775 0.000000 0.000000 0.000000
# 4 0.000000 0.000000 0.000000 0.042401 0.000000 0.000000
# 5 0.000000 0.000000 0.000000 0.000000 0.042401 0.000000
# 6 0.000000 0.000000 0.000000 0.000000 0.000000 0.006170
#
#
# Mechanical properties :
#
#
# Convention : Reuss Voigt Hill
#
# Bulk Modulus (GPa) = 46.68161 49.66800 48.17481
# Shear Modulus (GPa) = 34.95677 57.70888 46.33282
#
# Velocity S-wave (km/s) = 4.09948 5.26726 4.71963
# Velocity P-wave (km/s) = 6.69703 7.80195 7.27051
#
# Compressibility (1/GPa) = 0.02142171
#
# Stress axis : x y z
#
# Youngs Moduli (GPa) = 81.97879 81.97879 113.96372
#
# Poissons Ratio (x) = 0.07456 0.28293
# Poissons Ratio (y) = 0.07456 0.28293
# Poissons Ratio (z) = 0.20353 0.20353
#
# Static dielectric constant tensor:
#      x y z
#    x 3.723240 0.000000 0.000000 
#    y 0.000000 3.723240 0.000000 
#    z 0.000000 0.000000 3.642250 
# 
# 
# High freq. dielectric constant tensor:
#      x y z
#    x 1.809980 0.000000 0.000000 
#    y 0.000000 1.809980 0.000000 
#    z 0.000000 0.000000 1.822620 
# 
# From -- ./inp_files/4877.got.cif
#   From: 2010.03.12/outbox.cif.g09.slc.cpg/sg130_3_cif.got.tgz:4877.got - 2010.04.06 17:30:23.
