data_PCOD8315299
_publ_section_title
;
Structure prediction by ZEFSAII (Michael W. Deem and Ramdas Pophale) SiO2 
 PCOD8315299
Probable space group: P 4/N M M
;
_chemical_formula_sum "Si O2"
_cell_formula_units_Z 64
_cell_length_a 13.850341
_cell_length_b 13.850341
_cell_length_c 20.291658
_cell_angle_alpha 90.000000
_cell_angle_beta 90.000000
_cell_angle_gamma 90.000000
_cell_volume 3892.588238
_symmetry_space_group_name_H-M "P 4/N M M"
_symmetry_group_IT_number 129
_symmetry_cell_setting 'tetragonal'
loop_
_space_group_symop_operation_xyz
x,y,z
1/2-y,x,z
1/2-x,1/2-y,z
y,1/2-x,z
1/2+x,-y,-z
-x,1/2+y,-z
1/2+y,1/2+x,-z
-y,-x,-z
-x,-y,-z
1/2+y,-x,-z
1/2+x,1/2+y,-z
-y,1/2+x,-z
1/2-x,y,z
x,1/2-y,z
1/2-y,1/2-x,z
y,x,z
loop_
_atom_site_type_symbol
_atom_site_label
_atom_site_fract_x
_atom_site_fract_y
_atom_site_fract_z
Si Si1 0.637477 0.358910 0.181624
Si Si2 0.477642 0.864676 0.053712
Si Si3 0.361450 0.981253 0.452267
Si Si4 0.639734 0.014506 0.696137
O O1 0.750000 0.360553 0.193689
O O2 0.603459 0.250000 0.163247
O O3 0.608041 0.432139 0.124085
O O4 0.591891 0.395238 0.250123
O O5 0.494989 0.750000 0.045700
O O6 0.579808 0.920193 0.045905
O O7 0.400636 0.900636 0.000000
O O8 0.395755 0.895755 0.500000
O O9 0.250000 0.004832 0.466119
O O10 0.378198 0.944417 0.377392
O O11 0.421011 0.078990 0.466457
O O12 0.750000 0.987307 0.706928
O O13 0.584342 0.915659 0.707757
#
# Coordination Sequence:
#
# PCOD8315299 Si02
#       4
#    16  16  16  16
#     4   9  17  29  46  68  92 118 150 186 222 263
#     4  10  20  33  50  71  94 122 155 190 229 271
#     4   9  18  31  46  66  91 119 152 189 229 273
#     4   9  17  29  45  65  90 118 147 181 221 266
#
# _framework density 16.441503000000001
#
# number of rings (size 3 to 8) (size 9 to 14) (size 15 to 20)
#    0.000    2.750    0.000    1.500    0.000    3.250 
#    0.000    5.000    0.000    0.000    0.000    3.500 
#    0.000    6.000    0.000    0.000    0.000    0.000 
#
# Total GULP energy -793438.403238 kJ/mol
# GULP energy per Si atom -12397.475051 kJ/mol
# Density = 1.640408 g / cm^3
# Si number density = 16.441503 Si / 1000 Ang^3
#
#
#
# Elastic Constant Matrix: (Units=GPa)
#
#
# Indices 1 2 3 4 5 6 
#
# 1 77.2215 43.6085 55.2472 0.0000 0.0000 0.0000
# 2 43.6085 77.2215 55.2472 0.0000 0.0000 0.0000
# 3 55.2472 55.2472 114.7009 0.0000 0.0000 0.0000
# 4 0.0000 0.0000 0.0000 27.4964 0.0000 0.0000
# 5 0.0000 0.0000 0.0000 0.0000 27.4964 0.0000
# 6 0.0000 0.0000 0.0000 0.0000 0.0000 20.9007
#
#
#
# Elastic Compliance Matrix: (Units=1/GPa)
#
#
# Indices 1 2 3 4 5 6 
#
# 1 0.022271 -0.007480 -0.007124 0.000000 0.000000 0.000000
# 2 -0.007480 0.022271 -0.007124 0.000000 0.000000 0.000000
# 3 -0.007124 -0.007124 0.015581 0.000000 0.000000 0.000000
# 4 0.000000 0.000000 0.000000 0.036368 0.000000 0.000000
# 5 0.000000 0.000000 0.000000 0.000000 0.036368 0.000000
# 6 0.000000 0.000000 0.000000 0.000000 0.000000 0.047845
#
#
# Mechanical properties :
#
#
# Convention : Reuss Voigt Hill
#
# Bulk Modulus (GPa) = 60.00175 64.14997 62.07586
# Shear Modulus (GPa) = 21.76597 22.84812 22.30704
#
# Velocity S-wave (km/s) = 3.64241 3.73186 3.68741
# Velocity P-wave (km/s) = 7.36633 7.59413 7.48110
#
# Compressibility (1/GPa) = 0.01666618
#
# Stress axis : x y z
#
# Youngs Moduli (GPa) = 44.90214 44.90214 64.17961
#
# Poissons Ratio (x) = 0.33586 0.45723
# Poissons Ratio (y) = 0.33586 0.45723
# Poissons Ratio (z) = 0.31989 0.31989
#
# Static dielectric constant tensor:
#      x y z
#    x 3.022530 0.000000 0.000000 
#    y 0.000000 3.022530 0.000000 
#    z 0.000000 0.000000 3.334880 
# 
# 
# High freq. dielectric constant tensor:
#      x y z
#    x 1.624730 0.000000 0.000000 
#    y 0.000000 1.624730 0.000000 
#    z 0.000000 0.000000 1.645660 
# 
# From -- ./inp_files/4452.got.cif
#   From: 2010.03.12/outbox.cif.g09.slc.cpg/sg129_3_cif.got.tgz:4452.got - 2010.04.06 17:19:44.
