data_PCOD8315141
_publ_section_title
;
Structure prediction by ZEFSAII (Michael W. Deem and Ramdas Pophale) SiO2 
 PCOD8315141
Probable space group: P 4/N M M
;
_chemical_formula_sum "Si O2"
_cell_formula_units_Z 96
_cell_length_a 21.432966
_cell_length_b 21.432966
_cell_length_c 11.817450
_cell_angle_alpha 90.000000
_cell_angle_beta 90.000000
_cell_angle_gamma 90.000000
_cell_volume 5428.606014
_symmetry_space_group_name_H-M "P 4/N M M"
_symmetry_group_IT_number 129
_symmetry_cell_setting 'tetragonal'
loop_
_space_group_symop_operation_xyz
x,y,z
1/2-y,x,z
1/2-x,1/2-y,z
y,1/2-x,z
1/2+x,-y,-z
-x,1/2+y,-z
1/2+y,1/2+x,-z
-y,-x,-z
-x,-y,-z
1/2+y,-x,-z
1/2+x,1/2+y,-z
-y,1/2+x,-z
1/2-x,y,z
x,1/2-y,z
1/2-y,1/2-x,z
y,x,z
loop_
_atom_site_type_symbol
_atom_site_label
_atom_site_fract_x
_atom_site_fract_y
_atom_site_fract_z
Si Si1 0.007510 0.821107 0.040273
Si Si2 0.321930 0.420838 0.156268
Si Si3 0.819372 0.127155 0.897582
Si Si4 0.177145 0.575259 0.516689
Si Si5 0.564385 0.124305 0.751051
Si Si6 0.603700 0.503138 0.662624
O O1 0.015715 0.750000 0.080623
O O2 0.012421 0.864345 0.151656
O O3 0.942731 0.831267 0.974046
O O4 0.060761 0.838506 0.950199
O O5 0.250000 0.413616 0.188146
O O6 0.353751 0.353751 0.169968
O O7 0.351732 0.471011 0.240068
O O8 0.750000 0.126851 0.845477
O O9 0.866784 0.142784 0.796887
O O10 0.822902 0.177099 0.000000
O O11 0.140890 0.640890 0.500000
O O12 0.250000 0.584172 0.487373
O O13 0.169345 0.551303 0.645071
O O14 0.147004 0.521950 0.437963
O O15 0.561612 0.052402 0.713714
O O16 0.556760 0.556760 0.617286
#
# Coordination Sequence:
#
# PCOD8315141 Si02
#       6
#    16  16  16  16  16  16
#     4   9  17  31  50  72 103 135 165 200 249 304
#     4  10  20  34  54  78 102 130 162 199 248 306
#     4   9  17  29  45  68 100 138 174 209 250 295
#     4  10  22  37  53  73 104 141 178 217 260 306
#     4  10  19  31  51  76 101 132 169 215 259 296
#     4  10  21  36  55  76 100 133 174 215 262 311
#
# _framework density 17.684097000000001
#
# number of rings (size 3 to 8) (size 9 to 14) (size 15 to 20)
#    0.000    2.333    1.667    1.000    0.000    7.500 
#    0.000    1.667    0.000    0.000    0.000    0.000 
#    0.000    0.000    0.000    5.500    0.000    0.000 
#
# Total GULP energy -1190172.086634 kJ/mol
# GULP energy per Si atom -12397.625902 kJ/mol
# Density = 1.764385 g / cm^3
# Si number density = 17.684097 Si / 1000 Ang^3
#
#
#
# Elastic Constant Matrix: (Units=GPa)
#
#
# Indices 1 2 3 4 5 6 
#
# 1 76.7497 47.2766 39.1028 0.0000 0.0000 0.0000
# 2 47.2766 76.7488 39.1033 0.0000 0.0000 0.0000
# 3 39.1028 39.1033 97.6387 0.0000 0.0000 0.0000
# 4 0.0000 0.0000 0.0000 21.4917 0.0000 0.0000
# 5 0.0000 0.0000 0.0000 0.0000 21.4917 0.0000
# 6 0.0000 0.0000 0.0000 0.0000 0.0000 18.3076
#
#
#
# Elastic Compliance Matrix: (Units=1/GPa)
#
#
# Indices 1 2 3 4 5 6 
#
# 1 0.022358 -0.011571 -0.004320 0.000000 0.000000 0.000000
# 2 -0.011571 0.022359 -0.004320 0.000000 0.000000 0.000000
# 3 -0.004320 -0.004320 0.013702 0.000000 0.000000 0.000000
# 4 0.000000 0.000000 0.000000 0.046530 0.000000 0.000000
# 5 0.000000 0.000000 0.000000 0.000000 0.046530 0.000000
# 6 0.000000 0.000000 0.000000 0.000000 0.000000 0.054622
#
#
# Mechanical properties :
#
#
# Convention : Reuss Voigt Hill
#
# Bulk Modulus (GPa) = 55.56858 55.78917 55.67887
# Shear Modulus (GPa) = 19.80030 20.63517 20.21774
#
# Velocity S-wave (km/s) = 3.34977 3.41966 3.38490
# Velocity P-wave (km/s) = 6.81560 6.87083 6.84327
#
# Compressibility (1/GPa) = 0.01799578
#
# Stress axis : x y z
#
# Youngs Moduli (GPa) = 44.72658 44.72559 72.98184
#
# Poissons Ratio (x) = 0.51754 0.31527
# Poissons Ratio (y) = 0.51755 0.31530
# Poissons Ratio (z) = 0.19321 0.19322
#
# Static dielectric constant tensor:
#      x y z
#    x 3.138800 0.000000 0.000000 
#    y 0.000000 3.138800 0.000000 
#    z 0.000000 0.000000 3.316230 
# 
# 
# High freq. dielectric constant tensor:
#      x y z
#    x 1.667060 0.000000 0.000000 
#    y 0.000000 1.667060 0.000000 
#    z 0.000000 0.000000 1.685780 
# 
# From -- ./inp_files/3869.got.cif
#   From: 2010.03.12/outbox.cif.g09.slc.cpg/sg129_2_cif.got.tgz:3869.got - 2010.04.06 17:19:44.
