data_PCOD8315792
_publ_section_title
;
Structure prediction by ZEFSAII (Michael W. Deem and Ramdas Pophale) SiO2 
 PCOD8315792
Probable space group: P 42/M M C
;
_chemical_formula_sum "Si O2"
_cell_formula_units_Z 96
_cell_length_a 14.229207
_cell_length_b 14.229207
_cell_length_c 23.294528
_cell_angle_alpha 90.000000
_cell_angle_beta 90.000000
_cell_angle_gamma 90.000000
_cell_volume 4716.450814
_symmetry_space_group_name_H-M "P 42/M M C"
_symmetry_group_IT_number 131
_symmetry_cell_setting 'tetragonal'
loop_
_space_group_symop_operation_xyz
x,y,z
-x,-y,z
-y,x,1/2+z
y,-x,1/2+z
-x,y,-z
x,-y,-z
y,x,1/2-z
-y,-x,1/2-z
-x,-y,-z
x,y,-z
y,-x,1/2-z
-y,x,1/2-z
x,-y,z
-x,y,z
-y,-x,1/2+z
y,x,1/2+z
loop_
_atom_site_type_symbol
_atom_site_label
_atom_site_fract_x
_atom_site_fract_y
_atom_site_fract_z
Si Si1 0.888269 0.326838 0.867343
Si Si2 0.500000 0.605435 0.393707
Si Si3 0.000000 0.304186 0.562965
Si Si4 0.238547 0.796462 0.066267
Si Si5 0.607125 0.000000 0.179650
Si Si6 0.606880 0.296687 0.854188
Si Si7 0.500000 0.192326 0.564314
Si Si8 0.824862 0.610474 0.251392
O O1 0.857258 0.233033 0.900972
O O2 0.852039 0.410720 0.905961
O O3 0.830518 0.331458 0.807601
O O4 0.000000 0.330358 0.856962
O O5 0.500000 0.500000 0.423231
O O6 0.590940 0.616412 0.353542
O O7 0.500000 0.693143 0.437389
O O8 0.091179 0.239155 0.570046
O O9 0.000000 0.383800 0.611104
O O10 0.000000 0.353057 0.500000
O O11 0.328744 0.749634 0.096842
O O12 0.238067 0.762143 0.000000
O O13 0.651025 0.092320 0.207996
O O14 0.500000 0.000000 0.196452
O O15 0.500000 0.263837 0.868128
O O16 0.632876 0.267651 0.788923
O O17 0.500000 0.155787 0.500000
O O18 0.834392 0.500000 0.236313
#
# Coordination Sequence:
#
# PCOD8315792 Si02
#       8
#    16   8   8  16   8  16   8  16
#     4  12  25  42  65  92 125 166 215 275 337 390
#     4  10  22  42  63  94 134 181 220 252 303 375
#     4  10  22  41  61  90 130 165 209 273 333 388
#     4  11  24  42  64  92 126 166 216 269 330 395
#     4  10  18  33  62  95 125 162 209 262 321 384
#     4  10  21  39  65  93 129 176 219 258 311 377
#     4  12  25  41  64  95 131 170 218 270 320 378
#     4  10  20  37  62  93 130 166 211 265 318 381
#
# _framework density 20.354289999999999
#
# number of rings (size 3 to 8) (size 9 to 14) (size 15 to 20)
#    0.000    1.333    5.000    0.750    0.000    3.000 
#    0.000    3.750    1.833    1.500    0.000    0.000 
#    0.000    0.000    0.000    0.000    0.000    0.000 
#
# Total GULP energy -1189948.783943 kJ/mol
# GULP energy per Si atom -12395.299833 kJ/mol
# Density = 2.030796 g / cm^3
# Si number density = 20.354290 Si / 1000 Ang^3
#
#
#
# Elastic Constant Matrix: (Units=GPa)
#
#
# Indices 1 2 3 4 5 6 
#
# 1 95.1459 29.8011 46.9916 0.0000 0.0000 0.0000
# 2 29.8011 95.1459 46.9916 0.0000 0.0000 0.0000
# 3 46.9916 46.9916 169.9205 0.0000 0.0000 0.0000
# 4 0.0000 0.0000 0.0000 28.7985 0.0000 0.0000
# 5 0.0000 0.0000 0.0000 0.0000 28.7985 0.0000
# 6 0.0000 0.0000 0.0000 0.0000 0.0000 26.0221
#
#
#
# Elastic Compliance Matrix: (Units=1/GPa)
#
#
# Indices 1 2 3 4 5 6 
#
# 1 0.012704 -0.002599 -0.002795 0.000000 0.000000 0.000000
# 2 -0.002599 0.012704 -0.002795 0.000000 0.000000 0.000000
# 3 -0.002795 -0.002795 0.007431 0.000000 0.000000 0.000000
# 4 0.000000 0.000000 0.000000 0.034724 0.000000 0.000000
# 5 0.000000 0.000000 0.000000 0.000000 0.034724 0.000000
# 6 0.000000 0.000000 0.000000 0.000000 0.000000 0.038429
#
#
# Mechanical properties :
#
#
# Convention : Reuss Voigt Hill
#
# Bulk Modulus (GPa) = 60.74175 67.53121 64.13648
# Shear Modulus (GPa) = 30.75386 32.48566 31.61976
#
# Velocity S-wave (km/s) = 3.89128 3.99934 3.94568
# Velocity P-wave (km/s) = 7.07788 7.38757 7.23439
#
# Compressibility (1/GPa) = 0.01646314
#
# Stress axis : x y z
#
# Youngs Moduli (GPa) = 78.71239 78.71239 134.57404
#
# Poissons Ratio (x) = 0.20457 0.37609
# Poissons Ratio (y) = 0.20457 0.37609
# Poissons Ratio (z) = 0.21998 0.21998
#
# Static dielectric constant tensor:
#      x y z
#    x 3.800870 0.000000 0.000000 
#    y 0.000000 3.800870 0.000000 
#    z 0.000000 0.000000 3.789230 
# 
# 
# High freq. dielectric constant tensor:
#      x y z
#    x 1.786440 0.000000 0.000000 
#    y 0.000000 1.786440 0.000000 
#    z 0.000000 0.000000 1.805230 
# 
# From -- ./inp_files/9832.got.cif
#   From: 2010.03.12/outbox.cif.g09.slc.cpg/sg131_5_cif.got.tgz:9832.got - 2010.04.06 17:36:35.
