data_PCOD8315584
_publ_section_title
;
Structure prediction by ZEFSAII (Michael W. Deem and Ramdas Pophale) SiO2 
 PCOD8315584
Probable space group: P 4/N C C
;
_chemical_formula_sum "Si O2"
_cell_formula_units_Z 80
_cell_length_a 16.749237
_cell_length_b 16.749237
_cell_length_c 13.966050
_cell_angle_alpha 90.000000
_cell_angle_beta 90.000000
_cell_angle_gamma 90.000000
_cell_volume 3917.992932
_symmetry_space_group_name_H-M "P 4/N C C"
_symmetry_group_IT_number 130
_symmetry_cell_setting 'tetragonal'
loop_
_space_group_symop_operation_xyz
x,y,z
1/2-y,x,z
1/2-x,1/2-y,z
y,1/2-x,z
1/2+x,-y,1/2-z
-x,1/2+y,1/2-z
1/2+y,1/2+x,1/2-z
-y,-x,1/2-z
-x,-y,-z
1/2+y,-x,-z
1/2+x,1/2+y,-z
-y,1/2+x,-z
1/2-x,y,1/2+z
x,1/2-y,1/2+z
1/2-y,1/2-x,1/2+z
y,x,1/2+z
loop_
_atom_site_type_symbol
_atom_site_label
_atom_site_fract_x
_atom_site_fract_y
_atom_site_fract_z
Si Si1 0.125957 0.721135 0.021150
Si Si2 0.872010 0.798037 0.238652
Si Si3 0.495358 0.235461 0.118088
Si Si4 0.252745 0.877019 0.767595
Si Si5 0.709587 0.624642 0.522007
O O1 0.091399 0.742879 0.124628
O O2 0.157647 0.802620 0.971249
O O3 0.052968 0.687593 0.956037
O O4 0.794913 0.851696 0.255386
O O5 0.936711 0.822184 0.319712
O O6 0.905631 0.806099 0.130445
O O7 0.551563 0.275051 0.198456
O O8 0.446660 0.301976 0.055187
O O9 0.343589 0.843589 0.750000
O O10 0.196382 0.803619 0.750000
O O11 0.801320 0.651333 0.504068
#
# Coordination Sequence:
#
# PCOD8315584 Si02
#       5
#    16  16  16  16  16
#     4  11  20  36  54  79 109 145 186 228 265 310
#     4   9  19  37  60  85 109 136 179 230 275 322
#     4  12  20  30  58  86 112 140 180 224 274 316
#     4  11  20  36  54  79 109 145 186 228 265 310
#     4   9  19  37  60  85 109 136 179 230 275 322
#
# _framework density 20.418617999999999
#
# number of rings (size 3 to 8) (size 9 to 14) (size 15 to 20)
#    0.000    1.600    4.000    4.800    0.000    1.600 
#    0.000    0.000    0.000    9.600    0.000    0.000 
#    0.000    0.000    0.000    0.000    0.000    0.000 
#
# Total GULP energy -991056.259615 kJ/mol
# GULP energy per Si atom -12388.203245 kJ/mol
# Density = 2.037214 g / cm^3
# Si number density = 20.418618 Si / 1000 Ang^3
#
#
#
# Elastic Constant Matrix: (Units=GPa)
#
#
# Indices 1 2 3 4 5 6 
#
# 1 75.4716 3.2467 39.2610 0.0000 0.0000 0.0000
# 2 3.2467 75.4725 39.2606 0.0000 0.0000 0.0000
# 3 39.2610 39.2606 167.1908 0.0000 0.0000 0.0000
# 4 0.0000 0.0000 0.0000 24.3286 0.0000 0.0000
# 5 0.0000 0.0000 0.0000 0.0000 24.3237 0.0000
# 6 0.0000 0.0000 0.0000 0.0000 0.0000 8.0747
#
#
#
# Elastic Compliance Matrix: (Units=1/GPa)
#
#
# Indices 1 2 3 4 5 6 
#
# 1 0.015218 0.001372 -0.003896 0.000000 0.000000 0.000000
# 2 0.001372 0.015217 -0.003896 0.000000 0.000000 0.000000
# 3 -0.003896 -0.003896 0.007811 0.000000 0.000000 0.000000
# 4 0.000000 0.000000 0.000000 0.041104 0.000000 0.000000
# 5 0.000000 0.000000 0.000000 0.000000 0.041112 0.000000
# 6 0.000000 0.000000 0.000000 0.000000 0.000000 0.123844
#
#
# Mechanical properties :
#
#
# Convention : Reuss Voigt Hill
#
# Bulk Modulus (GPa) = 39.35929 53.51904 46.43916
# Shear Modulus (GPa) = 18.82433 27.10316 22.96375
#
# Velocity S-wave (km/s) = 3.03961 3.64727 3.35721
# Velocity P-wave (km/s) = 5.62468 6.63359 6.14986
#
# Compressibility (1/GPa) = 0.02540696
#
# Stress axis : x y z
#
# Youngs Moduli (GPa) = 65.71363 65.71465 128.02836
#
# Poissons Ratio (x) = -0.09015 0.49875
# Poissons Ratio (y) = -0.09015 0.49874
# Poissons Ratio (z) = 0.25600 0.25600
#
# Static dielectric constant tensor:
#      x y z
#    x 3.530560 0.000000 0.000000 
#    y 0.000000 3.530560 0.000000 
#    z 0.000000 0.000000 4.280130 
# 
# 
# High freq. dielectric constant tensor:
#      x y z
#    x 1.755120 0.000000 0.000000 
#    y 0.000000 1.755120 0.000000 
#    z 0.000000 0.000000 1.841860 
# 
# From -- ./inp_files/2287.got.cif
#   From: 2010.03.12/outbox.cif.g09.slc.cpg/sg130_2_cif.got.tgz:2287.got - 2010.04.06 17:30:23.
