data_PCOD8315867
_publ_section_title
;
Structure prediction by ZEFSAII (Michael W. Deem and Ramdas Pophale) SiO2 
 PCOD8315867
Probable space group: P 42/M M C
;
_chemical_formula_sum "Si O2"
_cell_formula_units_Z 96
_cell_length_a 13.654525
_cell_length_b 13.654525
_cell_length_c 31.927927
_cell_angle_alpha 90.000000
_cell_angle_beta 90.000000
_cell_angle_gamma 90.000000
_cell_volume 5952.835969
_symmetry_space_group_name_H-M "P 42/M M C"
_symmetry_group_IT_number 131
_symmetry_cell_setting 'tetragonal'
loop_
_space_group_symop_operation_xyz
x,y,z
-x,-y,z
-y,x,1/2+z
y,-x,1/2+z
-x,y,-z
x,-y,-z
y,x,1/2-z
-y,-x,1/2-z
-x,-y,-z
x,y,-z
y,-x,1/2-z
-y,x,1/2-z
x,-y,z
-x,y,z
-y,-x,1/2+z
y,x,1/2+z
loop_
_atom_site_type_symbol
_atom_site_label
_atom_site_fract_x
_atom_site_fract_y
_atom_site_fract_z
Si Si1 0.384491 0.300897 0.952839
Si Si2 0.108111 0.611232 0.829428
Si Si3 0.695430 0.388472 0.128259
Si Si4 0.207316 0.386049 0.327512
Si Si5 0.106557 0.384285 0.588248
Si Si6 0.886840 0.733358 0.253742
O O1 0.500000 0.312472 0.944450
O O2 0.327732 0.370225 0.920574
O O3 0.351829 0.187824 0.945632
O O4 0.356762 0.331770 0.000000
O O5 0.116545 0.500000 0.812935
O O6 0.188895 0.632344 0.864998
O O7 0.126028 0.681430 0.790514
O O8 0.000000 0.630315 0.848852
O O9 0.668218 0.500000 0.139484
O O10 0.632546 0.320001 0.159249
O O11 0.192873 0.500000 0.317720
O O12 0.138992 0.349705 0.365637
O O13 0.177270 0.326341 0.286897
O O14 0.098206 0.500000 0.588107
O O15 0.000000 0.338097 0.577278
O O16 0.842712 0.842712 0.250000
O O17 0.000000 0.739527 0.267613
#
# Coordination Sequence:
#
# PCOD8315867 Si02
#       6
#    16  16  16  16  16  16
#     4   9  18  30  44  67  98 130 163 195 233 291
#     4   9  18  33  53  73  92 121 162 202 243 293
#     4  10  19  32  50  70  96 128 161 200 244 286
#     4  10  19  31  48  71  99 131 166 198 233 281
#     4   8  14  25  42  65  92 123 158 195 234 272
#     4  11  21  34  51  72  98 127 160 201 246 289
#
# _framework density 16.126766
#
# number of rings (size 3 to 8) (size 9 to 14) (size 15 to 20)
#    0.000    2.500    1.667    2.500    0.000    3.833 
#    0.000    2.500    0.000    0.500    0.000    2.333 
#    0.000    0.000    0.000    4.333    0.000    0.333 
#
# Total GULP energy -1189981.409521 kJ/mol
# GULP energy per Si atom -12395.639683 kJ/mol
# Density = 1.609006 g / cm^3
# Si number density = 16.126766 Si / 1000 Ang^3
#
#
#
# Elastic Constant Matrix: (Units=GPa)
#
#
# Indices 1 2 3 4 5 6 
#
# 1 80.2265 29.3544 38.6406 0.0000 0.0000 0.0000
# 2 29.3544 80.2265 38.6406 0.0000 0.0000 0.0000
# 3 38.6406 38.6406 84.1507 0.0000 0.0000 0.0000
# 4 0.0000 0.0000 0.0000 17.9527 0.0000 0.0000
# 5 0.0000 0.0000 0.0000 0.0000 17.9527 0.0000
# 6 0.0000 0.0000 0.0000 0.0000 0.0000 19.0405
#
#
#
# Elastic Compliance Matrix: (Units=1/GPa)
#
#
# Indices 1 2 3 4 5 6 
#
# 1 0.016577 -0.003080 -0.006197 0.000000 0.000000 0.000000
# 2 -0.003080 0.016577 -0.006197 0.000000 0.000000 0.000000
# 3 -0.006197 -0.006197 0.017575 0.000000 0.000000 0.000000
# 4 0.000000 0.000000 0.000000 0.055702 0.000000 0.000000
# 5 0.000000 0.000000 0.000000 0.000000 0.055702 0.000000
# 6 0.000000 0.000000 0.000000 0.000000 0.000000 0.052520
#
#
# Mechanical properties :
#
#
# Convention : Reuss Voigt Hill
#
# Bulk Modulus (GPa) = 50.56052 50.87500 50.71776
# Shear Modulus (GPa) = 19.82596 20.18704 20.00650
#
# Velocity S-wave (km/s) = 3.51006 3.54188 3.52600
# Velocity P-wave (km/s) = 6.91718 6.95284 6.93503
#
# Compressibility (1/GPa) = 0.01977828
#
# Stress axis : x y z
#
# Youngs Moduli (GPa) = 60.32563 60.32563 56.89962
#
# Poissons Ratio (x) = 0.18583 0.35262
# Poissons Ratio (y) = 0.18583 0.35262
# Poissons Ratio (z) = 0.37385 0.37385
#
# Static dielectric constant tensor:
#      x y z
#    x 3.128210 0.000000 0.000000 
#    y 0.000000 3.128210 0.000000 
#    z 0.000000 0.000000 2.935310 
# 
# 
# High freq. dielectric constant tensor:
#      x y z
#    x 1.610420 0.000000 0.000000 
#    y 0.000000 1.610420 0.000000 
#    z 0.000000 0.000000 1.606760 
# 
# From -- ./inp_files/13673.got.cif
#   From: 2010.03.12/outbox.cif.g09.slc.cpg/sg131_7_cif.got.tgz:13673.got - 2010.04.06 17:36:35.
