data_PCOD8315425
_publ_section_title
;
Structure prediction by ZEFSAII (Michael W. Deem and Ramdas Pophale) SiO2 
 PCOD8315425
Probable space group: P 4/N M M
;
_chemical_formula_sum "Si O2"
_cell_formula_units_Z 52
_cell_length_a 14.386647
_cell_length_b 14.386647
_cell_length_c 11.961483
_cell_angle_alpha 90.000000
_cell_angle_beta 90.000000
_cell_angle_gamma 90.000000
_cell_volume 2475.735263
_symmetry_space_group_name_H-M "P 4/N M M"
_symmetry_group_IT_number 129
_symmetry_cell_setting 'tetragonal'
loop_
_space_group_symop_operation_xyz
x,y,z
1/2-y,x,z
1/2-x,1/2-y,z
y,1/2-x,z
1/2+x,-y,-z
-x,1/2+y,-z
1/2+y,1/2+x,-z
-y,-x,-z
-x,-y,-z
1/2+y,-x,-z
1/2+x,1/2+y,-z
-y,1/2+x,-z
1/2-x,y,z
x,1/2-y,z
1/2-y,1/2-x,z
y,x,z
loop_
_atom_site_type_symbol
_atom_site_label
_atom_site_fract_x
_atom_site_fract_y
_atom_site_fract_z
Si Si1 0.048541 0.750000 0.910342
Si Si2 0.901349 0.750000 0.102491
Si Si3 0.450814 0.600368 0.731672
Si Si4 0.250000 0.750000 0.000000
Si Si5 0.545322 0.250000 0.439956
Si Si6 0.750000 0.026902 0.302820
Si Si7 0.250000 0.750000 0.500000
O O1 0.021524 0.842274 0.841953
O O2 0.158626 0.750000 0.924699
O O3 0.993498 0.750000 0.026821
O O4 0.841535 0.841535 0.076863
O O5 0.931522 0.750000 0.232482
O O6 0.500991 0.500991 0.734804
O O7 0.487735 0.656905 0.623334
O O8 0.340386 0.586440 0.727879
O O9 0.504730 0.250000 0.564788
O O10 0.657190 0.250000 0.426473
#
# Coordination Sequence:
#
# PCOD8315425 Si02
#       7
#     8   8  16   2   8   8   2
#     4  11  23  42  63  90 122 157 202 264 306 362
#     4  11  25  43  62  84 117 165 209 245 298 361
#     4  11  23  39  63  92 122 161 207 250 302 363
#     4  12  24  38  64  96 126 152 198 248 340 382
#     4  11  22  37  63  89 126 162 195 249 308 358
#     4  12  22  37  59  90 123 158 190 250 303 364
#     4  12  16  42  60  92 126 156 198 260 304 362
#
# _framework density 21.003861000000001
#
# number of rings (size 3 to 8) (size 9 to 14) (size 15 to 20)
#    0.000    0.769    3.077    4.615    0.000    6.154 
#    0.000    4.615    0.000    4.154    0.000    0.000 
#    0.000    0.000    0.000    0.000    0.000    0.000 
#
# Total GULP energy -644830.260858 kJ/mol
# GULP energy per Si atom -12400.581940 kJ/mol
# Density = 2.095605 g / cm^3
# Si number density = 21.003861 Si / 1000 Ang^3
#
#
#
# Elastic Constant Matrix: (Units=GPa)
#
#
# Indices 1 2 3 4 5 6 
#
# 1 112.2323 52.4645 50.3337 0.0000 0.0000 0.0000
# 2 52.4645 112.2323 50.3337 0.0000 0.0000 0.0000
# 3 50.3337 50.3337 133.2866 0.0000 0.0000 0.0000
# 4 0.0000 0.0000 0.0000 18.7124 0.0000 0.0000
# 5 0.0000 0.0000 0.0000 0.0000 18.7124 0.0000
# 6 0.0000 0.0000 0.0000 0.0000 0.0000 22.4550
#
#
#
# Elastic Compliance Matrix: (Units=1/GPa)
#
#
# Indices 1 2 3 4 5 6 
#
# 1 0.012313 -0.004419 -0.002981 0.000000 0.000000 0.000000
# 2 -0.004419 0.012313 -0.002981 0.000000 0.000000 0.000000
# 3 -0.002981 -0.002981 0.009754 0.000000 0.000000 0.000000
# 4 0.000000 0.000000 0.000000 0.053440 0.000000 0.000000
# 5 0.000000 0.000000 0.000000 0.000000 0.053440 0.000000
# 6 0.000000 0.000000 0.000000 0.000000 0.000000 0.044534
#
#
# Mechanical properties :
#
#
# Convention : Reuss Voigt Hill
#
# Bulk Modulus (GPa) = 73.43336 73.77945 73.60641
# Shear Modulus (GPa) = 23.68607 25.61725 24.65166
#
# Velocity S-wave (km/s) = 3.36177 3.49613 3.42961
# Velocity P-wave (km/s) = 7.07859 7.17636 7.12764
#
# Compressibility (1/GPa) = 0.01361779
#
# Stress axis : x y z
#
# Youngs Moduli (GPa) = 81.21744 81.21744 102.52109
#
# Poissons Ratio (x) = 0.35888 0.30561
# Poissons Ratio (y) = 0.35888 0.30561
# Poissons Ratio (z) = 0.24211 0.24211
#
# Static dielectric constant tensor:
#      x y z
#    x 3.681930 0.000000 0.000000 
#    y 0.000000 3.681930 0.000000 
#    z 0.000000 0.000000 3.822310 
# 
# 
# High freq. dielectric constant tensor:
#      x y z
#    x 1.818840 0.000000 0.000000 
#    y 0.000000 1.818840 0.000000 
#    z 0.000000 0.000000 1.830890 
# 
# From -- ./inp_files/3305.got.cif
#   From: 2010.03.12/outbox.cif.g09.slc.cpg/sg129_2_cif.got.tgz:3305.got - 2010.04.06 17:19:44.
