data_PCOD8315780
_publ_section_title
;
Structure prediction by ZEFSAII (Michael W. Deem and Ramdas Pophale) SiO2 
 PCOD8315780
Probable space group: P 42/M M C
;
_chemical_formula_sum "Si O2"
_cell_formula_units_Z 38
_cell_length_a 10.416063
_cell_length_b 10.416063
_cell_length_c 19.972071
_cell_angle_alpha 90.000000
_cell_angle_beta 90.000000
_cell_angle_gamma 90.000000
_cell_volume 2166.857229
_symmetry_space_group_name_H-M "P 42/M M C"
_symmetry_group_IT_number 131
_symmetry_cell_setting 'tetragonal'
loop_
_space_group_symop_operation_xyz
x,y,z
-x,-y,z
-y,x,1/2+z
y,-x,1/2+z
-x,y,-z
x,-y,-z
y,x,1/2-z
-y,-x,1/2-z
-x,-y,-z
x,y,-z
y,-x,1/2-z
-y,x,1/2-z
x,-y,z
-x,y,z
-y,-x,1/2+z
y,x,1/2+z
loop_
_atom_site_type_symbol
_atom_site_label
_atom_site_fract_x
_atom_site_fract_y
_atom_site_fract_z
Si Si1 0.500000 0.262899 0.650473
Si Si2 0.000000 0.500000 0.771039
Si Si3 0.641693 0.000000 0.857734
Si Si4 0.500000 0.500000 0.750000
Si Si5 0.745389 0.350570 0.421664
O O1 0.500000 0.124704 0.683865
O O2 0.500000 0.371762 0.706586
O O3 0.376547 0.272057 0.603300
O O4 0.000000 0.627147 0.723193
O O5 0.709281 0.129965 0.883869
O O6 0.500000 0.000000 0.892216
O O7 0.763314 0.329598 0.500000
O O8 0.723950 0.500000 0.403170
#
# Coordination Sequence:
#
# PCOD8315780 Si02
#       5
#     8   4   8   2  16
#     4  12  21  33  50  81 111 146 170 221 269 325
#     4  10  22  34  46  72 120 152 174 200 272 346
#     4   8  17  34  48  78 101 144 178 220 262 304
#     4  12  20  32  54  80 104 136 180 226 268 308
#     4  10  18  32  54  80 107 135 179 225 268 309
#
# _framework density 17.536921
#
# number of rings (size 3 to 8) (size 9 to 14) (size 15 to 20)
#    0.632    1.263    2.105    3.789    0.000    4.211 
#    0.000    2.105    0.000    1.263    0.000    5.895 
#    0.000    0.000    0.000    0.000    0.000    0.000 
#
# Total GULP energy -471081.659542 kJ/mol
# GULP energy per Si atom -12396.885777 kJ/mol
# Density = 1.749701 g / cm^3
# Si number density = 17.536921 Si / 1000 Ang^3
#
#
#
# Elastic Constant Matrix: (Units=GPa)
#
#
# Indices 1 2 3 4 5 6 
#
# 1 118.2339 28.3173 42.7693 0.0000 0.0000 0.0000
# 2 28.3173 118.2339 42.7693 0.0000 0.0000 0.0000
# 3 42.7693 42.7693 80.7831 0.0000 0.0000 0.0000
# 4 0.0000 0.0000 0.0000 -3.0258 0.0000 0.0000
# 5 0.0000 0.0000 0.0000 0.0000 -3.0258 0.0000
# 6 0.0000 0.0000 0.0000 0.0000 0.0000 -2.7263
#
#
#
# Elastic Compliance Matrix: (Units=1/GPa)
#
#
# Indices 1 2 3 4 5 6 
#
# 1 0.010498 -0.000623 -0.005228 0.000000 0.000000 0.000000
# 2 -0.000623 0.010498 -0.005228 0.000000 0.000000 0.000000
# 3 -0.005228 -0.005228 0.017915 0.000000 0.000000 0.000000
# 4 0.000000 0.000000 0.000000 -0.330490 0.000000 0.000000
# 5 0.000000 0.000000 0.000000 0.000000 -0.330490 0.000000
# 6 0.000000 0.000000 0.000000 0.000000 0.000000 -0.366801
#
#
# Mechanical properties :
#
#
# Convention : Reuss Voigt Hill
#
# Bulk Modulus (GPa) = 59.69367 60.55140 60.12254
# Shear Modulus (GPa) = -5.20223 11.80409 3.30093
#
# Velocity S-wave (km/s) = -1.72421 2.59723 1.37345
# Velocity P-wave (km/s) = 5.49080 6.60281 6.07231
#
# Compressibility (1/GPa) = 0.01675220
#
# Stress axis : x y z
#
# Youngs Moduli (GPa) = 95.25363 95.25363 55.81968
#
# Poissons Ratio (x) = 0.05936 0.29184
# Poissons Ratio (y) = 0.05936 0.29184
# Poissons Ratio (z) = 0.49801 0.49801
#
# Static dielectric constant tensor:
#      x y z
#    x 2.912730 0.000000 0.000000 
#    y 0.000000 2.912730 0.000000 
#    z 0.000000 0.000000 3.240670 
# 
# 
# High freq. dielectric constant tensor:
#      x y z
#    x 1.649700 0.000000 0.000000 
#    y 0.000000 1.649700 0.000000 
#    z 0.000000 0.000000 1.689510 
# 
# From -- ./inp_files/10436.got.cif
#   From: 2010.03.12/outbox.cif.g09.slc.cpg/sg131_6_cif.got.tgz:10436.got - 2010.04.06 17:36:35.
