data_PCOD8315956
_publ_section_title
;
Structure prediction by ZEFSAII (Michael W. Deem and Ramdas Pophale) SiO2 
 PCOD8315956
Probable space group: P 42/M M C
;
_chemical_formula_sum "Si O2"
_cell_formula_units_Z 96
_cell_length_a 14.775061
_cell_length_b 14.775061
_cell_length_c 22.824379
_cell_angle_alpha 90.000000
_cell_angle_beta 90.000000
_cell_angle_gamma 90.000000
_cell_volume 4982.617343
_symmetry_space_group_name_H-M "P 42/M M C"
_symmetry_group_IT_number 131
_symmetry_cell_setting 'tetragonal'
loop_
_space_group_symop_operation_xyz
x,y,z
-x,-y,z
-y,x,1/2+z
y,-x,1/2+z
-x,y,-z
x,-y,-z
y,x,1/2-z
-y,-x,1/2-z
-x,-y,-z
x,y,-z
y,-x,1/2-z
-y,x,1/2-z
x,-y,z
-x,y,z
-y,-x,1/2+z
y,x,1/2+z
loop_
_atom_site_type_symbol
_atom_site_label
_atom_site_fract_x
_atom_site_fract_y
_atom_site_fract_z
Si Si1 0.398142 0.500000 0.069183
Si Si2 0.895320 0.598448 0.722028
Si Si3 0.146657 0.100929 0.683246
Si Si4 0.397446 0.000000 0.068711
Si Si5 0.739110 0.345609 0.930659
Si Si6 0.100947 0.354494 0.847593
Si Si7 0.719674 0.152524 0.874019
O O1 0.500000 0.500000 0.096629
O O2 0.343601 0.410270 0.089067
O O3 0.406690 0.500000 0.000000
O O4 0.878526 0.500000 0.693761
O O5 0.872642 0.587921 0.790603
O O6 0.832203 0.671665 0.689214
O O7 0.000000 0.628888 0.712813
O O8 0.117484 0.117484 0.750000
O O9 0.253476 0.107040 0.676961
O O10 0.110591 0.179652 0.639052
O O11 0.112148 0.000000 0.664486
O O12 0.342571 0.913017 0.088738
O O13 0.500000 0.000000 0.094336
O O14 0.402005 0.000000 0.000000
O O15 0.831490 0.379039 0.900079
O O16 0.719910 0.244499 0.910226
O O17 0.754564 0.349239 0.000000
O O18 0.000000 0.377064 0.870372
#
# Coordination Sequence:
#
# PCOD8315956 Si02
#       7
#     8  16  16   8  16  16  16
#     4   9  20  40  61  81 109 147 200 256 291 340
#     4  10  19  32  54  86 118 149 181 228 300 358
#     4  10  20  34  53  81 115 156 199 241 284 333
#     4  11  24  40  61  89 119 151 187 239 305 366
#     4  10  22  38  59  84 113 156 202 243 298 354
#     4   9  19  35  57  85 119 151 192 244 297 358
#     4  11  21  37  59  84 123 152 193 243 295 352
#
# _framework density 19.266983
#
# number of rings (size 3 to 8) (size 9 to 14) (size 15 to 20)
#    0.000    2.000    2.500    1.000    2.333    1.833 
#    0.000    1.667    0.000    3.500    0.000    0.000 
#    0.000    0.000    0.000    0.000    0.000    0.000 
#
# Total GULP energy -1189593.900585 kJ/mol
# GULP energy per Si atom -12391.603131 kJ/mol
# Density = 1.922313 g / cm^3
# Si number density = 19.266983 Si / 1000 Ang^3
#
#
#
# Elastic Constant Matrix: (Units=GPa)
#
#
# Indices 1 2 3 4 5 6 
#
# 1 111.4945 49.4756 47.9426 0.0000 0.0000 0.0000
# 2 49.4756 111.4945 47.9426 0.0000 0.0000 0.0000
# 3 47.9426 47.9426 84.7068 0.0000 0.0000 0.0000
# 4 0.0000 0.0000 0.0000 19.6382 0.0000 0.0000
# 5 0.0000 0.0000 0.0000 0.0000 19.6382 0.0000
# 6 0.0000 0.0000 0.0000 0.0000 0.0000 -19.8319
#
#
#
# Elastic Compliance Matrix: (Units=1/GPa)
#
#
# Indices 1 2 3 4 5 6 
#
# 1 0.012748 -0.003376 -0.005304 0.000000 0.000000 0.000000
# 2 -0.003376 0.012748 -0.005304 0.000000 0.000000 0.000000
# 3 -0.005304 -0.005304 0.017810 0.000000 0.000000 0.000000
# 4 0.000000 0.000000 0.000000 0.050921 0.000000 0.000000
# 5 0.000000 0.000000 0.000000 0.000000 0.050921 0.000000
# 6 0.000000 0.000000 0.000000 0.000000 0.000000 -0.050424
#
#
# Mechanical properties :
#
#
# Convention : Reuss Voigt Hill
#
# Bulk Modulus (GPa) = 65.20497 66.49082 65.84790
# Shear Modulus (GPa) = 39.12168 14.71122 26.91645
#
# Velocity S-wave (km/s) = 4.51100 2.76623 3.74173
# Velocity P-wave (km/s) = 7.81335 6.69237 7.27449
#
# Compressibility (1/GPa) = 0.01533625
#
# Stress axis : x y z
#
# Youngs Moduli (GPa) = 78.44327 78.44327 56.14885
#
# Poissons Ratio (x) = 0.26483 0.29784
# Poissons Ratio (y) = 0.26483 0.29784
# Poissons Ratio (z) = 0.41609 0.41609
#
# Static dielectric constant tensor:
#      x y z
#    x 3.827800 0.000000 0.000000 
#    y 0.000000 3.827800 0.000000 
#    z 0.000000 0.000000 3.490150 
# 
# 
# High freq. dielectric constant tensor:
#      x y z
#    x 1.751830 0.000000 0.000000 
#    y 0.000000 1.751830 0.000000 
#    z 0.000000 0.000000 1.735340 
# 
# From -- ./inp_files/11190.got.cif
#   From: 2010.03.12/outbox.cif.g09.slc.cpg/sg131_6_cif.got.tgz:11190.got - 2010.04.06 17:36:35.
