data_PCOD8315593
_publ_section_title
;
Structure prediction by ZEFSAII (Michael W. Deem and Ramdas Pophale) SiO2 
 PCOD8315593
Probable space group: P 4/N C C
;
_chemical_formula_sum "Si O2"
_cell_formula_units_Z 112
_cell_length_a 14.546624
_cell_length_b 14.546624
_cell_length_c 29.897392
_cell_angle_alpha 90.000000
_cell_angle_beta 90.000000
_cell_angle_gamma 90.000000
_cell_volume 6326.415803
_symmetry_space_group_name_H-M "P 4/N C C"
_symmetry_group_IT_number 130
_symmetry_cell_setting 'tetragonal'
loop_
_space_group_symop_operation_xyz
x,y,z
1/2-y,x,z
1/2-x,1/2-y,z
y,1/2-x,z
1/2+x,-y,1/2-z
-x,1/2+y,1/2-z
1/2+y,1/2+x,1/2-z
-y,-x,1/2-z
-x,-y,-z
1/2+y,-x,-z
1/2+x,1/2+y,-z
-y,1/2+x,-z
1/2-x,y,1/2+z
x,1/2-y,1/2+z
1/2-y,1/2-x,1/2+z
y,x,1/2+z
loop_
_atom_site_type_symbol
_atom_site_label
_atom_site_fract_x
_atom_site_fract_y
_atom_site_fract_z
Si Si1 0.523884 0.864872 0.793263
Si Si2 0.816113 0.614058 0.020805
Si Si3 0.310637 0.837388 0.301951
Si Si4 0.389367 0.186989 0.575527
Si Si5 0.510581 0.672737 0.835593
Si Si6 0.614510 0.820616 0.617473
Si Si7 0.476310 0.655590 0.194129
O O1 0.546225 0.772219 0.819992
O O2 0.597000 0.942971 0.804266
O O3 0.421774 0.897580 0.806187
O O4 0.531501 0.845725 0.740549
O O5 0.869773 0.708596 0.020581
O O6 0.841626 0.567082 0.068484
O O7 0.837533 0.563993 0.973240
O O8 0.250000 0.750000 0.315030
O O9 0.336980 0.836980 0.250000
O O10 0.401334 0.837369 0.332139
O O11 0.254353 0.929293 0.312607
O O12 0.369347 0.295111 0.580651
O O13 0.461298 0.155644 0.613067
O O14 0.628291 0.711622 0.623001
O O15 0.547227 0.862231 0.654337
#
# Coordination Sequence:
#
# PCOD8315593 Si02
#       7
#    16  16  16  16  16  16  16
#     4  11  25  36  54  81 114 144 188 229 274 331
#     4   7  12  27  50  76 106 141 177 218 277 341
#     4  11  21  39  58  72 103 154 198 216 252 326
#     4   9  16  29  52  81 113 142 172 224 287 335
#     4  12  22  36  56  83 113 144 181 235 275 328
#     4   9  19  33  54  83 110 140 183 235 288 326
#     4  11  23  39  53  78 107 150 193 225 264 326
#
# _framework density 17.703548000000001
#
# number of rings (size 3 to 8) (size 9 to 14) (size 15 to 20)
#    0.000    2.000    4.286    2.571    6.000    0.286 
#    0.000    0.000    0.000    2.571    0.000    0.000 
#    0.000    0.000    0.000    0.000    0.000    0.000 
#
# Total GULP energy -1388099.707127 kJ/mol
# GULP energy per Si atom -12393.747385 kJ/mol
# Density = 1.766325 g / cm^3
# Si number density = 17.703548 Si / 1000 Ang^3
#
#
#
# Elastic Constant Matrix: (Units=GPa)
#
#
# Indices 1 2 3 4 5 6 
#
# 1 61.8316 13.9455 35.2367 0.0000 0.0000 0.0000
# 2 13.9455 61.8316 35.2367 0.0000 0.0000 0.0000
# 3 35.2367 35.2367 152.5421 0.0000 0.0000 0.0000
# 4 0.0000 0.0000 0.0000 20.2079 0.0000 0.0000
# 5 0.0000 0.0000 0.0000 0.0000 20.2079 0.0000
# 6 0.0000 0.0000 0.0000 0.0000 0.0000 22.8162
#
#
#
# Elastic Compliance Matrix: (Units=1/GPa)
#
#
# Indices 1 2 3 4 5 6 
#
# 1 0.018845 -0.002038 -0.003882 0.000000 0.000000 0.000000
# 2 -0.002038 0.018845 -0.003882 0.000000 0.000000 0.000000
# 3 -0.003882 -0.003882 0.008349 0.000000 0.000000 0.000000
# 4 0.000000 0.000000 0.000000 0.049486 0.000000 0.000000
# 5 0.000000 0.000000 0.000000 0.000000 0.049486 0.000000
# 6 0.000000 0.000000 0.000000 0.000000 0.000000 0.043828
#
#
# Mechanical properties :
#
#
# Convention : Reuss Voigt Hill
#
# Bulk Modulus (GPa) = 37.82994 49.44926 43.63960
# Shear Modulus (GPa) = 23.01435 25.43216 24.22325
#
# Velocity S-wave (km/s) = 3.60944 3.79431 3.70303
# Velocity P-wave (km/s) = 6.22782 6.86936 6.55644
#
# Compressibility (1/GPa) = 0.02643409
#
# Stress axis : x y z
#
# Youngs Moduli (GPa) = 53.06419 53.06419 119.77160
#
# Poissons Ratio (x) = 0.10813 0.46501
# Poissons Ratio (y) = 0.10813 0.46501
# Poissons Ratio (z) = 0.20602 0.20602
#
# Static dielectric constant tensor:
#      x y z
#    x 3.079070 0.000000 0.000000 
#    y 0.000000 3.079070 0.000000 
#    z 0.000000 0.000000 3.628590 
# 
# 
# High freq. dielectric constant tensor:
#      x y z
#    x 1.664040 0.000000 0.000000 
#    y 0.000000 1.664040 0.000000 
#    z 0.000000 0.000000 1.693470 
# 
# From -- ./inp_files/4966.got.cif
#   From: 2010.03.12/outbox.cif.g09.slc.cpg/sg130_3_cif.got.tgz:4966.got - 2010.04.06 17:30:23.
