data_PCOD8315907
_publ_section_title
;
Structure prediction by ZEFSAII (Michael W. Deem and Ramdas Pophale) SiO2 
 PCOD8315907
Probable space group: P 42/M M C
;
_chemical_formula_sum "Si O2"
_cell_formula_units_Z 104
_cell_length_a 27.565094
_cell_length_b 27.565094
_cell_length_c 9.173268
_cell_angle_alpha 90.000000
_cell_angle_beta 90.000000
_cell_angle_gamma 90.000000
_cell_volume 6970.164653
_symmetry_space_group_name_H-M "P 42/M M C"
_symmetry_group_IT_number 131
_symmetry_cell_setting 'tetragonal'
loop_
_space_group_symop_operation_xyz
x,y,z
-x,-y,z
-y,x,1/2+z
y,-x,1/2+z
-x,y,-z
x,-y,-z
y,x,1/2-z
-y,-x,1/2-z
-x,-y,-z
x,y,-z
y,-x,1/2-z
-y,x,1/2-z
x,-y,z
-x,y,z
-y,-x,1/2+z
y,x,1/2+z
loop_
_atom_site_type_symbol
_atom_site_label
_atom_site_fract_x
_atom_site_fract_y
_atom_site_fract_z
Si Si1 0.500000 0.945119 0.172038
Si Si2 0.138824 0.646373 0.165175
Si Si3 0.392788 0.719893 0.170886
Si Si4 0.798161 0.445905 0.835279
Si Si5 0.055785 0.394491 0.672270
Si Si6 0.554566 0.621617 0.830247
Si Si7 0.697407 0.235464 0.673741
O O1 0.447926 0.924231 0.226985
O O2 0.500000 0.000000 0.224221
O O3 0.500000 0.941658 0.000000
O O4 0.159284 0.592442 0.185932
O O5 0.089595 0.647882 0.259857
O O6 0.179401 0.685702 0.215779
O O7 0.124147 0.657303 0.000000
O O8 0.435632 0.755971 0.219354
O O9 0.410761 0.666402 0.208693
O O10 0.344794 0.730010 0.264786
O O11 0.381763 0.727159 0.000000
O O12 0.818775 0.500000 0.806053
O O13 0.777257 0.441280 0.000000
O O14 0.059793 0.390503 0.500000
O O15 0.000000 0.386286 0.721403
O O16 0.573975 0.573975 0.750000
O O17 0.500000 0.632778 0.776838
O O18 0.555259 0.610642 0.000000
O O19 0.747868 0.252133 0.750000
O O20 0.700232 0.241863 0.500000
#
# Coordination Sequence:
#
# PCOD8315907 Si02
#       7
#     8  16  16  16  16  16  16
#     4   7  12  24  39  55  77 105 137 175 213 241
#     4   9  19  31  43  62  86 111 139 172 212 255
#     4  10  19  32  50  69  86 104 128 156 189 235
#     4   9  18  31  44  60  86 114 136 165 204 243
#     4   9  17  29  44  61  83 112 147 184 216 248
#     4  10  22  37  50  65  82  97 116 144 176 216
#     4  10  20  34  50  68  90 112 135 166 204 247
#
# _framework density 14.920738
#
# number of rings (size 3 to 8) (size 9 to 14) (size 15 to 20)
#    0.000    2.692    0.000    3.692    1.077    7.231 
#    0.000    0.769    0.000    1.385    0.000    0.000 
#    0.000    0.000    0.000    0.000    0.000    0.000 
#
# Total GULP energy -1288682.996744 kJ/mol
# GULP energy per Si atom -12391.182661 kJ/mol
# Density = 1.488678 g / cm^3
# Si number density = 14.920738 Si / 1000 Ang^3
#
#
#
# Elastic Constant Matrix: (Units=GPa)
#
#
# Indices 1 2 3 4 5 6 
#
# 1 67.6538 35.8642 32.4361 0.0000 0.0000 0.0000
# 2 35.8642 67.6551 32.4363 0.0000 0.0000 0.0000
# 3 32.4361 32.4363 50.1994 0.0000 0.0000 0.0000
# 4 0.0000 0.0000 0.0000 22.2723 0.0000 0.0000
# 5 0.0000 0.0000 0.0000 0.0000 22.2721 0.0000
# 6 0.0000 0.0000 0.0000 0.0000 0.0000 17.2104
#
#
#
# Elastic Compliance Matrix: (Units=1/GPa)
#
#
# Indices 1 2 3 4 5 6 
#
# 1 0.023845 -0.007611 -0.010489 0.000000 0.000000 0.000000
# 2 -0.007611 0.023845 -0.010489 0.000000 0.000000 0.000000
# 3 -0.010489 -0.010489 0.033476 0.000000 0.000000 0.000000
# 4 0.000000 0.000000 0.000000 0.044899 0.000000 0.000000
# 5 0.000000 0.000000 0.000000 0.000000 0.044899 0.000000
# 6 0.000000 0.000000 0.000000 0.000000 0.000000 0.058104
#
#
# Mechanical properties :
#
#
# Convention : Reuss Voigt Hill
#
# Bulk Modulus (GPa) = 41.69139 42.99795 42.34467
# Shear Modulus (GPa) = 16.99280 18.00241 17.49761
#
# Velocity S-wave (km/s) = 3.37838 3.47729 3.42819
# Velocity P-wave (km/s) = 6.57423 6.70837 6.64164
#
# Compressibility (1/GPa) = 0.02398577
#
# Stress axis : x y z
#
# Youngs Moduli (GPa) = 41.93741 41.93831 29.87250
#
# Poissons Ratio (x) = 0.31921 0.31334
# Poissons Ratio (y) = 0.31920 0.31333
# Poissons Ratio (z) = 0.43989 0.43989
#
# Static dielectric constant tensor:
#      x y z
#    x 2.733210 0.000000 0.000000 
#    y 0.000000 2.733210 0.000000 
#    z 0.000000 0.000000 2.856790 
# 
# 
# High freq. dielectric constant tensor:
#      x y z
#    x 1.540630 0.000000 0.000000 
#    y 0.000000 1.540630 0.000000 
#    z 0.000000 0.000000 1.573160 
# 
# From -- ./inp_files/2583.got.cif
#   From: 2010.03.12/outbox.cif.g09.slc.cpg/sg131_2_cif.got.tgz:2583.got - 2010.04.06 17:36:35.
