data_PCOD8315094
_publ_section_title
;
Structure prediction by ZEFSAII (Michael W. Deem and Ramdas Pophale) SiO2 
 PCOD8315094
Probable space group: P 4/N M M
;
_chemical_formula_sum "Si O2"
_cell_formula_units_Z 112
_cell_length_a 18.366004
_cell_length_b 18.366004
_cell_length_c 20.418777
_cell_angle_alpha 90.000000
_cell_angle_beta 90.000000
_cell_angle_gamma 90.000000
_cell_volume 6887.459772
_symmetry_space_group_name_H-M "P 4/N M M"
_symmetry_group_IT_number 129
_symmetry_cell_setting 'tetragonal'
loop_
_space_group_symop_operation_xyz
x,y,z
1/2-y,x,z
1/2-x,1/2-y,z
y,1/2-x,z
1/2+x,-y,-z
-x,1/2+y,-z
1/2+y,1/2+x,-z
-y,-x,-z
-x,-y,-z
1/2+y,-x,-z
1/2+x,1/2+y,-z
-y,1/2+x,-z
1/2-x,y,z
x,1/2-y,z
1/2-y,1/2-x,z
y,x,z
loop_
_atom_site_type_symbol
_atom_site_label
_atom_site_fract_x
_atom_site_fract_y
_atom_site_fract_z
Si Si1 0.166626 0.833312 0.422523
Si Si2 0.910791 0.471673 0.788899
Si Si3 0.944138 0.668922 0.277447
Si Si4 0.936595 0.445970 0.349064
Si Si5 0.330691 0.534756 0.845178
Si Si6 0.666964 0.552434 0.894105
Si Si7 0.666069 0.049754 0.007660
O O1 0.162502 0.837499 0.500000
O O2 0.250000 0.850515 0.399635
O O3 0.146119 0.750000 0.399961
O O4 0.110313 0.895723 0.397362
O O5 0.898577 0.470532 0.710621
O O6 0.845543 0.514699 0.823576
O O7 0.988320 0.511681 0.804585
O O8 0.908848 0.390534 0.818789
O O9 0.942898 0.750000 0.305698
O O10 0.864295 0.635706 0.286636
O O11 0.963062 0.666277 0.200186
O O12 0.002374 0.624586 0.319087
O O13 0.002174 0.497827 0.379980
O O14 0.250000 0.570975 0.839144
O O15 0.346178 0.514222 0.920663
O O16 0.750000 0.567497 0.906516
O O17 0.630540 0.630540 0.895283
O O18 0.633628 0.504303 0.952997
O O19 0.750000 0.065669 0.993146
O O20 0.626538 0.126538 0.000000
#
# Coordination Sequence:
#
# PCOD8315094 Si02
#       7
#    16  16  16  16  16  16  16
#     4   9  18  32  49  70  98 132 164 189 220 270
#     4   9  17  30  47  66  88 115 149 184 220 267
#     4   9  17  28  43  64  92 124 157 192 228 269
#     4   9  17  29  48  73  96 121 153 192 236 269
#     4   9  16  27  43  63  87 113 144 182 221 267
#     4  10  21  34  48  66  86 111 146 187 228 271
#     4  10  19  31  47  67  88 115 149 182 226 277
#
# _framework density 16.261437999999998
#
# number of rings (size 3 to 8) (size 9 to 14) (size 15 to 20)
#    0.000    2.714    1.429    2.143    0.000    3.286 
#    0.000    0.000    0.000    0.429    0.000    4.000 
#    0.000    0.286    0.000    3.143    0.000    5.143 
#
# Total GULP energy -1387604.990683 kJ/mol
# GULP energy per Si atom -12389.330274 kJ/mol
# Density = 1.622443 g / cm^3
# Si number density = 16.261438 Si / 1000 Ang^3
#
#
#
# Elastic Constant Matrix: (Units=GPa)
#
#
# Indices 1 2 3 4 5 6 
#
# 1 75.0936 38.8570 27.4775 0.0000 0.0000 0.0000
# 2 38.8570 75.0936 27.4775 0.0000 0.0000 0.0000
# 3 27.4775 27.4775 55.3252 0.0000 0.0000 0.0000
# 4 0.0000 0.0000 0.0000 21.2812 0.0000 0.0000
# 5 0.0000 0.0000 0.0000 0.0000 21.2813 0.0000
# 6 0.0000 0.0000 0.0000 0.0000 0.0000 22.6471
#
#
#
# Elastic Compliance Matrix: (Units=1/GPa)
#
#
# Indices 1 2 3 4 5 6 
#
# 1 0.019568 -0.008028 -0.005731 0.000000 0.000000 0.000000
# 2 -0.008028 0.019568 -0.005731 0.000000 0.000000 0.000000
# 3 -0.005731 -0.005731 0.023768 0.000000 0.000000 0.000000
# 4 0.000000 0.000000 0.000000 0.046990 0.000000 0.000000
# 5 0.000000 0.000000 0.000000 0.000000 0.046990 0.000000
# 6 0.000000 0.000000 0.000000 0.000000 0.000000 0.044156
#
#
# Mechanical properties :
#
#
# Convention : Reuss Voigt Hill
#
# Bulk Modulus (GPa) = 41.80200 43.68182 42.74191
# Shear Modulus (GPa) = 20.16169 20.48861 20.32515
#
# Velocity S-wave (km/s) = 3.52497 3.55343 3.53923
# Velocity P-wave (km/s) = 6.50609 6.61486 6.56070
#
# Compressibility (1/GPa) = 0.02392230
#
# Stress axis : x y z
#
# Youngs Moduli (GPa) = 51.10365 51.10363 42.07361
#
# Poissons Ratio (x) = 0.41028 0.24114
# Poissons Ratio (y) = 0.41028 0.24114
# Poissons Ratio (z) = 0.29289 0.29289
#
# Static dielectric constant tensor:
#      x y z
#    x 3.038840 0.000000 0.000000 
#    y 0.000000 3.038840 0.000000 
#    z 0.000000 0.000000 3.017670 
# 
# 
# High freq. dielectric constant tensor:
#      x y z
#    x 1.614650 0.000000 0.000000 
#    y 0.000000 1.614650 0.000000 
#    z 0.000000 0.000000 1.612360 
# 
# From -- ./inp_files/6701.got.cif
#   From: 2010.03.12/outbox.cif.g09.slc.cpg/sg129_4_cif.got.tgz:6701.got - 2010.04.06 17:19:44.
