data_PCOD8315044
_publ_section_title
;
Structure prediction by ZEFSAII (Michael W. Deem and Ramdas Pophale) SiO2 
 PCOD8315044
Probable space group: P 4/N M M
;
_chemical_formula_sum "Si O2"
_cell_formula_units_Z 112
_cell_length_a 21.479108
_cell_length_b 21.479108
_cell_length_c 16.186670
_cell_angle_alpha 90.000000
_cell_angle_beta 90.000000
_cell_angle_gamma 90.000000
_cell_volume 7467.753880
_symmetry_space_group_name_H-M "P 4/N M M"
_symmetry_group_IT_number 129
_symmetry_cell_setting 'tetragonal'
loop_
_space_group_symop_operation_xyz
x,y,z
1/2-y,x,z
1/2-x,1/2-y,z
y,1/2-x,z
1/2+x,-y,-z
-x,1/2+y,-z
1/2+y,1/2+x,-z
-y,-x,-z
-x,-y,-z
1/2+y,-x,-z
1/2+x,1/2+y,-z
-y,1/2+x,-z
1/2-x,y,z
x,1/2-y,z
1/2-y,1/2-x,z
y,x,z
loop_
_atom_site_type_symbol
_atom_site_label
_atom_site_fract_x
_atom_site_fract_y
_atom_site_fract_z
Si Si1 0.495692 0.819926 0.094701
Si Si2 0.504228 0.094244 0.050892
Si Si3 0.819607 0.318467 0.725027
Si Si4 0.180182 0.417233 0.759336
Si Si5 0.905034 0.493421 0.345526
Si Si6 0.406074 0.907994 0.195480
Si Si7 0.678261 0.400990 0.436360
O O1 0.469960 0.750000 0.090344
O O2 0.559713 0.823355 0.146057
O O3 0.445817 0.860856 0.141648
O O4 0.507146 0.843401 0.001663
O O5 0.531754 0.110249 0.140954
O O6 0.438142 0.061859 0.065583
O O7 0.549110 0.049110 0.000000
O O8 0.750000 0.334101 0.694894
O O9 0.821563 0.250000 0.767794
O O10 0.841463 0.372619 0.786520
O O11 0.866249 0.316961 0.649434
O O12 0.250000 0.413161 0.726349
O O13 0.151145 0.348856 0.755889
O O14 0.144754 0.463435 0.698925
O O15 0.928968 0.442130 0.278962
O O16 0.867931 0.460731 0.422225
O O17 0.964534 0.535466 0.375582
O O18 0.646312 0.353689 0.500000
O O19 0.750000 0.419112 0.463857
#
# Coordination Sequence:
#
# PCOD8315044 Si02
#       7
#    16  16  16  16  16  16  16
#     4   9  16  25  37  53  73  98 128 162 198 234
#     4   9  16  25  37  53  72  95 125 161 198 234
#     4   9  17  28  41  57  78 104 132 161 193 229
#     4   9  16  26  40  57  78 103 130 161 196 235
#     4   9  17  29  44  61  81 105 133 165 201 238
#     4   9  16  26  40  56  74  99 131 165 198 235
#     4  10  19  30  45  64  85 109 137 166 195 232
#
# _framework density 14.997816
#
# number of rings (size 3 to 8) (size 9 to 14) (size 15 to 20)
#    0.000    2.857    0.000    2.143    0.000    8.571 
#    0.000    0.000    0.000    0.000    0.000    7.000 
#    0.000    0.000    0.000    0.000    0.000    0.000 
#
# Total GULP energy -1387849.895749 kJ/mol
# GULP energy per Si atom -12391.516926 kJ/mol
# Density = 1.496368 g / cm^3
# Si number density = 14.997816 Si / 1000 Ang^3
#
#
#
# Elastic Constant Matrix: (Units=GPa)
#
#
# Indices 1 2 3 4 5 6 
#
# 1 60.9701 26.0410 14.6460 0.0000 0.0000 0.0000
# 2 26.0410 60.9708 14.6463 0.0000 0.0000 0.0000
# 3 14.6460 14.6463 37.4013 0.0000 0.0000 0.0000
# 4 0.0000 0.0000 0.0000 19.4328 0.0000 0.0000
# 5 0.0000 0.0000 0.0000 0.0000 19.4331 0.0000
# 6 0.0000 0.0000 0.0000 0.0000 0.0000 23.1987
#
#
#
# Elastic Compliance Matrix: (Units=1/GPa)
#
#
# Indices 1 2 3 4 5 6 
#
# 1 0.020934 -0.007696 -0.005184 0.000000 0.000000 0.000000
# 2 -0.007696 0.020933 -0.005184 0.000000 0.000000 0.000000
# 3 -0.005184 -0.005184 0.030797 0.000000 0.000000 0.000000
# 4 0.000000 0.000000 0.000000 0.051459 0.000000 0.000000
# 5 0.000000 0.000000 0.000000 0.000000 0.051459 0.000000
# 6 0.000000 0.000000 0.000000 0.000000 0.000000 0.043106
#
#
# Mechanical properties :
#
#
# Convention : Reuss Voigt Hill
#
# Bulk Modulus (GPa) = 27.36935 30.00098 28.68517
# Shear Modulus (GPa) = 18.72704 19.34685 19.03695
#
# Velocity S-wave (km/s) = 3.53746 3.59552 3.56661
# Velocity P-wave (km/s) = 5.91383 6.10607 6.01071
#
# Compressibility (1/GPa) = 0.03653721
#
# Stress axis : x y z
#
# Youngs Moduli (GPa) = 47.77012 47.77053 32.47071
#
# Poissons Ratio (x) = 0.36762 0.16832
# Poissons Ratio (y) = 0.36762 0.16833
# Poissons Ratio (z) = 0.24763 0.24764
#
# Static dielectric constant tensor:
#      x y z
#    x 2.967550 0.000000 0.000000 
#    y 0.000000 2.967550 0.000000 
#    z 0.000000 0.000000 2.804790 
# 
# 
# High freq. dielectric constant tensor:
#      x y z
#    x 1.565010 0.000000 0.000000 
#    y 0.000000 1.565010 0.000000 
#    z 0.000000 0.000000 1.549150 
# 
# From -- ./inp_files/5972.got.cif
#   From: 2010.03.12/outbox.cif.g09.slc.cpg/sg129_3_cif.got.tgz:5972.got - 2010.04.06 17:19:44.
