data_PCOD8315429
_publ_section_title
;
Structure prediction by ZEFSAII (Michael W. Deem and Ramdas Pophale) SiO2 
 PCOD8315429
Probable space group: P 4/N M M
;
_chemical_formula_sum "Si O2"
_cell_formula_units_Z 88
_cell_length_a 14.142866
_cell_length_b 14.142866
_cell_length_c 27.520772
_cell_angle_alpha 90.000000
_cell_angle_beta 90.000000
_cell_angle_gamma 90.000000
_cell_volume 5504.722943
_symmetry_space_group_name_H-M "P 4/N M M"
_symmetry_group_IT_number 129
_symmetry_cell_setting 'tetragonal'
loop_
_space_group_symop_operation_xyz
x,y,z
1/2-y,x,z
1/2-x,1/2-y,z
y,1/2-x,z
1/2+x,-y,-z
-x,1/2+y,-z
1/2+y,1/2+x,-z
-y,-x,-z
-x,-y,-z
1/2+y,-x,-z
1/2+x,1/2+y,-z
-y,1/2+x,-z
1/2-x,y,z
x,1/2-y,z
1/2-y,1/2-x,z
y,x,z
loop_
_atom_site_type_symbol
_atom_site_label
_atom_site_fract_x
_atom_site_fract_y
_atom_site_fract_z
Si Si1 0.013769 0.640738 0.202895
Si Si2 0.142144 0.508326 0.686612
Si Si3 0.355863 0.636876 0.396082
Si Si4 0.488807 0.858316 0.857808
Si Si5 0.140175 0.859826 0.500000
Si Si6 0.641854 0.010927 0.971098
O O1 0.994874 0.750000 0.189373
O O2 0.098880 0.600689 0.170447
O O3 0.917053 0.582948 0.192947
O O4 0.047104 0.630155 0.258720
O O5 0.250000 0.488012 0.673665
O O6 0.091015 0.408986 0.680249
O O7 0.097726 0.583358 0.648914
O O8 0.250000 0.596600 0.389419
O O9 0.352377 0.750000 0.395709
O O10 0.402319 0.603040 0.448287
O O11 0.504735 0.750000 0.841952
O O12 0.584036 0.915965 0.844703
O O13 0.465165 0.866179 0.914470
O O14 0.250000 0.880227 0.494289
O O15 0.750000 0.994427 0.986951
O O16 0.584221 0.915780 0.984206
O O17 0.600016 0.100016 0.000000
#
# Coordination Sequence:
#
# PCOD8315429 Si02
#       6
#    16  16  16  16   8  16
#     4   9  18  31  45  62  85 113 145 180 217 257
#     4   9  17  28  41  58  81 108 137 168 201 240
#     4   8  13  22  37  56  77 101 129 163 204 245
#     4   9  18  32  49  69  92 117 145 178 216 257
#     4   7  10  18  33  52  74 100 127 157 198 244
#     4   9  18  32  49  69  93 120 149 181 216 254
#
# _framework density 15.986273000000001
#
# number of rings (size 3 to 8) (size 9 to 14) (size 15 to 20)
#    0.000    3.364    0.000    1.091    0.000    2.727 
#    0.000    7.727    0.000    0.000    0.000    5.091 
#    0.000    0.364    0.000    0.000    0.000    2.364 
#
# Total GULP energy -1090443.999036 kJ/mol
# GULP energy per Si atom -12391.409080 kJ/mol
# Density = 1.594989 g / cm^3
# Si number density = 15.986273 Si / 1000 Ang^3
#
#
#
# Elastic Constant Matrix: (Units=GPa)
#
#
# Indices 1 2 3 4 5 6 
#
# 1 89.7269 42.2434 48.5196 0.0000 0.0000 0.0000
# 2 42.2434 89.7264 48.5196 0.0000 0.0000 0.0000
# 3 48.5196 48.5196 71.3938 0.0000 0.0000 0.0000
# 4 0.0000 0.0000 0.0000 20.3153 0.0000 0.0000
# 5 0.0000 0.0000 0.0000 0.0000 20.3155 0.0000
# 6 0.0000 0.0000 0.0000 0.0000 0.0000 12.8980
#
#
#
# Elastic Compliance Matrix: (Units=1/GPa)
#
#
# Indices 1 2 3 4 5 6 
#
# 1 0.018103 -0.002957 -0.010294 0.000000 0.000000 0.000000
# 2 -0.002957 0.018103 -0.010294 0.000000 0.000000 0.000000
# 3 -0.010294 -0.010294 0.027998 0.000000 0.000000 0.000000
# 4 0.000000 0.000000 0.000000 0.049224 0.000000 0.000000
# 5 0.000000 0.000000 0.000000 0.000000 0.049223 0.000000
# 6 0.000000 0.000000 0.000000 0.000000 0.000000 0.077531
#
#
# Mechanical properties :
#
#
# Convention : Reuss Voigt Hill
#
# Bulk Modulus (GPa) = 58.42318 58.82356 58.62337
# Shear Modulus (GPa) = 17.06619 18.14341 17.60480
#
# Velocity S-wave (km/s) = 3.27089 3.37254 3.32210
# Velocity P-wave (km/s) = 7.13373 7.21398 7.17397
#
# Compressibility (1/GPa) = 0.01711650
#
# Stress axis : x y z
#
# Youngs Moduli (GPa) = 55.23884 55.23838 35.71679
#
# Poissons Ratio (x) = 0.16333 0.36765
# Poissons Ratio (y) = 0.16333 0.36766
# Poissons Ratio (z) = 0.56861 0.56861
#
# Static dielectric constant tensor:
#      x y z
#    x 2.902630 0.000000 0.000000 
#    y 0.000000 2.902630 0.000000 
#    z 0.000000 0.000000 3.327760 
# 
# 
# High freq. dielectric constant tensor:
#      x y z
#    x 1.590750 0.000000 0.000000 
#    y 0.000000 1.590750 0.000000 
#    z 0.000000 0.000000 1.627640 
# 
# From -- ./inp_files/7463.got.cif
#   From: 2010.03.12/outbox.cif.g09.slc.cpg/sg129_4_cif.got.tgz:7463.got - 2010.04.06 17:19:44.
