data_PCOD8315474
_publ_section_title
;
Structure prediction by ZEFSAII (Michael W. Deem and Ramdas Pophale) SiO2 
 PCOD8315474
Probable space group: P 4/N C C
;
_chemical_formula_sum "Si O2"
_cell_formula_units_Z 96
_cell_length_a 13.740493
_cell_length_b 13.740493
_cell_length_c 29.067293
_cell_angle_alpha 90.000000
_cell_angle_beta 90.000000
_cell_angle_gamma 90.000000
_cell_volume 5487.938284
_symmetry_space_group_name_H-M "P 4/N C C"
_symmetry_group_IT_number 130
_symmetry_cell_setting 'tetragonal'
loop_
_space_group_symop_operation_xyz
x,y,z
1/2-y,x,z
1/2-x,1/2-y,z
y,1/2-x,z
1/2+x,-y,1/2-z
-x,1/2+y,1/2-z
1/2+y,1/2+x,1/2-z
-y,-x,1/2-z
-x,-y,-z
1/2+y,-x,-z
1/2+x,1/2+y,-z
-y,1/2+x,-z
1/2-x,y,1/2+z
x,1/2-y,1/2+z
1/2-y,1/2-x,1/2+z
y,x,1/2+z
loop_
_atom_site_type_symbol
_atom_site_label
_atom_site_fract_x
_atom_site_fract_y
_atom_site_fract_z
Si Si1 0.673768 0.609767 0.315857
Si Si2 0.183542 0.499433 0.377990
Si Si3 0.032328 0.119666 0.920982
Si Si4 0.500709 0.909726 0.400036
Si Si5 0.397774 0.311000 0.287381
Si Si6 0.102354 0.315930 0.516376
O O1 0.788009 0.621002 0.324584
O O2 0.622644 0.536649 0.350320
O O3 0.663150 0.567636 0.264205
O O4 0.143130 0.401166 0.403592
O O5 0.295276 0.517209 0.390889
O O6 0.164849 0.483328 0.323453
O O7 0.117709 0.590707 0.395512
O O8 0.034900 0.152143 0.973980
O O9 0.967981 0.021310 0.913425
O O10 0.540193 0.835927 0.437944
O O11 0.301889 0.374478 0.295659
O O12 0.122784 0.201466 0.515888
#
# Coordination Sequence:
#
# PCOD8315474 Si02
#       6
#    16  16  16  16  16  16
#     4   9  18  33  52  75 100 130 166 205 249 293
#     4  10  19  31  50  74 103 128 160 202 249 293
#     4  10  20  32  50  75 100 129 161 202 249 292
#     4  10  21  31  47  74 107 133 158 204 243 298
#     4   9  15  26  49  76 100 125 159 206 255 291
#     4  11  20  33  55  77  96 127 165 208 255 294
#
# _framework density 17.492909000000001
#
# number of rings (size 3 to 8) (size 9 to 14) (size 15 to 20)
#    1.000    1.167    3.333    2.500    0.000    2.333 
#    0.000    0.000    0.000    4.000    0.000    4.667 
#    0.000   10.667    0.000    0.000    0.000    0.000 
#
# Total GULP energy -1189405.559378 kJ/mol
# GULP energy per Si atom -12389.641244 kJ/mol
# Density = 1.745309 g / cm^3
# Si number density = 17.492909 Si / 1000 Ang^3
#
#
#
# Elastic Constant Matrix: (Units=GPa)
#
#
# Indices 1 2 3 4 5 6 
#
# 1 39.5829 22.1854 26.9857 0.0000 0.0000 0.0000
# 2 22.1854 39.5829 26.9857 0.0000 0.0000 0.0000
# 3 26.9857 26.9857 122.4270 0.0000 0.0000 0.0000
# 4 0.0000 0.0000 0.0000 23.6958 0.0000 0.0000
# 5 0.0000 0.0000 0.0000 0.0000 23.6958 0.0000
# 6 0.0000 0.0000 0.0000 0.0000 0.0000 27.2821
#
#
#
# Elastic Compliance Matrix: (Units=1/GPa)
#
#
# Indices 1 2 3 4 5 6 
#
# 1 0.038766 -0.018714 -0.004420 0.000000 0.000000 0.000000
# 2 -0.018714 0.038766 -0.004420 0.000000 0.000000 0.000000
# 3 -0.004420 -0.004420 0.010117 0.000000 0.000000 0.000000
# 4 0.000000 0.000000 0.000000 0.042201 0.000000 0.000000
# 5 0.000000 0.000000 0.000000 0.000000 0.042201 0.000000
# 6 0.000000 0.000000 0.000000 0.000000 0.000000 0.036654
#
#
# Mechanical properties :
#
#
# Convention : Reuss Voigt Hill
#
# Bulk Modulus (GPa) = 30.73114 39.32291 35.02702
# Shear Modulus (GPa) = 18.20440 23.29716 20.75078
#
# Velocity S-wave (km/s) = 3.22945 3.65335 3.44792
# Velocity P-wave (km/s) = 5.61353 6.35013 5.99315
#
# Compressibility (1/GPa) = 0.03254029
#
# Stress axis : x y z
#
# Youngs Moduli (GPa) = 25.79610 25.79610 98.84774
#
# Poissons Ratio (x) = 0.48275 0.43689
# Poissons Ratio (y) = 0.48275 0.43689
# Poissons Ratio (z) = 0.11401 0.11401
#
# Static dielectric constant tensor:
#      x y z
#    x 2.925300 0.000000 0.000000 
#    y 0.000000 2.925300 0.000000 
#    z 0.000000 0.000000 3.348090 
# 
# 
# High freq. dielectric constant tensor:
#      x y z
#    x 1.643900 0.000000 0.000000 
#    y 0.000000 1.643900 0.000000 
#    z 0.000000 0.000000 1.695710 
# 
# From -- ./inp_files/4945.got.cif
#   From: 2010.03.12/outbox.cif.g09.slc.cpg/sg130_3_cif.got.tgz:4945.got - 2010.04.06 17:30:23.
