data_PCOD8315195
_publ_section_title
;
Structure prediction by ZEFSAII (Michael W. Deem and Ramdas Pophale) SiO2 
 PCOD8315195
Probable space group: P 4/N M M
;
_chemical_formula_sum "Si O2"
_cell_formula_units_Z 96
_cell_length_a 21.421863
_cell_length_b 21.421863
_cell_length_c 11.606282
_cell_angle_alpha 90.000000
_cell_angle_beta 90.000000
_cell_angle_gamma 90.000000
_cell_volume 5326.078873
_symmetry_space_group_name_H-M "P 4/N M M"
_symmetry_group_IT_number 129
_symmetry_cell_setting 'tetragonal'
loop_
_space_group_symop_operation_xyz
x,y,z
1/2-y,x,z
1/2-x,1/2-y,z
y,1/2-x,z
1/2+x,-y,-z
-x,1/2+y,-z
1/2+y,1/2+x,-z
-y,-x,-z
-x,-y,-z
1/2+y,-x,-z
1/2+x,1/2+y,-z
-y,1/2+x,-z
1/2-x,y,z
x,1/2-y,z
1/2-y,1/2-x,z
y,x,z
loop_
_atom_site_type_symbol
_atom_site_label
_atom_site_fract_x
_atom_site_fract_y
_atom_site_fract_z
Si Si1 0.360723 0.959105 0.501532
Si Si2 0.917658 0.679262 0.608926
Si Si3 0.595034 0.178830 0.277345
Si Si4 0.502551 0.403340 0.940816
Si Si5 0.971947 0.626925 0.820542
Si Si6 0.678715 0.430013 0.246621
O O1 0.431333 0.931333 0.500000
O O2 0.319071 0.916392 0.414909
O O3 0.330034 0.957807 0.626479
O O4 0.361025 0.030081 0.457297
O O5 0.918111 0.750000 0.565783
O O6 0.850636 0.649365 0.580256
O O7 0.930715 0.676354 0.747153
O O8 0.595430 0.250000 0.229164
O O9 0.542731 0.133553 0.222479
O O10 0.658848 0.143195 0.245229
O O11 0.451223 0.451223 0.889481
O O12 0.526892 0.359694 0.840238
O O13 0.558928 0.441073 0.000000
O O14 0.470987 0.360631 0.041921
O O15 0.943069 0.556932 0.798095
O O16 0.750000 0.433068 0.208008
#
# Coordination Sequence:
#
# PCOD8315195 Si02
#       6
#    16  16  16  16  16  16
#     4   9  19  35  54  77 103 134 176 224 269 308
#     4  10  20  34  54  80 110 141 173 214 263 323
#     4  10  19  33  53  73 103 143 173 208 258 312
#     4  10  20  36  54  74 102 134 172 220 267 312
#     4   9  17  32  54  75  95 127 172 217 262 303
#     4  11  22  34  51  77 106 137 175 217 258 306
#
# _framework density 18.024516999999999
#
# number of rings (size 3 to 8) (size 9 to 14) (size 15 to 20)
#    0.000    2.167    1.667    3.000    0.000    2.833 
#    0.000    1.667    0.000    3.000    0.000    0.000 
#    0.000    0.333    0.000    0.333    0.000    0.000 
#
# Total GULP energy -1189494.480851 kJ/mol
# GULP energy per Si atom -12390.567509 kJ/mol
# Density = 1.798349 g / cm^3
# Si number density = 18.024517 Si / 1000 Ang^3
#
#
#
# Elastic Constant Matrix: (Units=GPa)
#
#
# Indices 1 2 3 4 5 6 
#
# 1 100.1028 69.2807 49.4663 0.0000 0.0000 0.0000
# 2 69.2807 100.1033 49.4662 0.0000 0.0000 0.0000
# 3 49.4663 49.4662 90.2879 0.0000 0.0000 0.0000
# 4 0.0000 0.0000 0.0000 19.6872 0.0000 0.0000
# 5 0.0000 0.0000 0.0000 0.0000 19.6872 0.0000
# 6 0.0000 0.0000 0.0000 0.0000 0.0000 18.1687
#
#
#
# Elastic Compliance Matrix: (Units=1/GPa)
#
#
# Indices 1 2 3 4 5 6 
#
# 1 0.020563 -0.011881 -0.004757 0.000000 0.000000 0.000000
# 2 -0.011881 0.020563 -0.004757 0.000000 0.000000 0.000000
# 3 -0.004757 -0.004757 0.016288 0.000000 0.000000 0.000000
# 4 0.000000 0.000000 0.000000 0.050794 0.000000 0.000000
# 5 0.000000 0.000000 0.000000 0.000000 0.050794 0.000000
# 6 0.000000 0.000000 0.000000 0.000000 0.000000 0.055040
#
#
# Mechanical properties :
#
#
# Convention : Reuss Voigt Hill
#
# Bulk Modulus (GPa) = 68.37511 69.65782 69.01646
# Shear Modulus (GPa) = 19.10542 19.66066 19.38304
#
# Velocity S-wave (km/s) = 3.25925 3.30627 3.28284
# Velocity P-wave (km/s) = 7.22360 7.30105 7.26243
#
# Compressibility (1/GPa) = 0.01462520
#
# Stress axis : x y z
#
# Youngs Moduli (GPa) = 48.63094 48.63130 61.39595
#
# Poissons Ratio (x) = 0.57779 0.29204
# Poissons Ratio (y) = 0.57778 0.29203
# Poissons Ratio (z) = 0.23132 0.23132
#
# Static dielectric constant tensor:
#      x y z
#    x 3.187000 0.000000 0.000000 
#    y 0.000000 3.187000 0.000000 
#    z 0.000000 0.000000 3.462760 
# 
# 
# High freq. dielectric constant tensor:
#      x y z
#    x 1.680190 0.000000 0.000000 
#    y 0.000000 1.680190 0.000000 
#    z 0.000000 0.000000 1.696370 
# 
# From -- ./inp_files/3892.got.cif
#   From: 2010.03.12/outbox.cif.g09.slc.cpg/sg129_2_cif.got.tgz:3892.got - 2010.04.06 17:19:44.
