data_PCOD8315874
_publ_section_title
;
Structure prediction by ZEFSAII (Michael W. Deem and Ramdas Pophale) SiO2 
 PCOD8315874
Probable space group: P 42/M M C
;
_chemical_formula_sum "Si O2"
_cell_formula_units_Z 112
_cell_length_a 14.813818
_cell_length_b 14.813818
_cell_length_c 29.593000
_cell_angle_alpha 90.000000
_cell_angle_beta 90.000000
_cell_angle_gamma 90.000000
_cell_volume 6494.160286
_symmetry_space_group_name_H-M "P 42/M M C"
_symmetry_group_IT_number 131
_symmetry_cell_setting 'tetragonal'
loop_
_space_group_symop_operation_xyz
x,y,z
-x,-y,z
-y,x,1/2+z
y,-x,1/2+z
-x,y,-z
x,-y,-z
y,x,1/2-z
-y,-x,1/2-z
-x,-y,-z
x,y,-z
y,-x,1/2-z
-y,x,1/2-z
x,-y,z
-x,y,z
-y,-x,1/2+z
y,x,1/2+z
loop_
_atom_site_type_symbol
_atom_site_label
_atom_site_fract_x
_atom_site_fract_y
_atom_site_fract_z
Si Si1 0.336622 0.395115 0.202824
Si Si2 0.098303 0.603526 0.364842
Si Si3 0.282354 0.839190 0.698503
Si Si4 0.705058 0.396554 0.612729
Si Si5 0.394141 0.741639 0.448945
Si Si6 0.249362 0.902795 0.795065
Si Si7 0.100483 0.602202 0.117157
O O1 0.391519 0.391519 0.250000
O O2 0.328522 0.500000 0.187771
O O3 0.240072 0.350804 0.212113
O O4 0.381814 0.337334 0.162569
O O5 0.109026 0.500000 0.352088
O O6 0.188956 0.633028 0.391643
O O7 0.097793 0.652946 0.317277
O O8 0.000000 0.620920 0.390021
O O9 0.267607 0.900736 0.741821
O O10 0.181677 0.806052 0.684832
O O11 0.326413 0.893934 0.657737
O O12 0.693358 0.500000 0.599610
O O13 0.652840 0.341773 0.574982
O O14 0.358271 0.750778 0.500000
O O15 0.500000 0.723679 0.448122
O O16 0.368377 0.832793 0.422635
O O17 0.200736 0.000000 0.805368
O O18 0.122871 0.500000 0.134030
O O19 0.000000 0.606308 0.097052
#
# Coordination Sequence:
#
# PCOD8315874 Si02
#       7
#    16  16  16  16  16  16  16
#     4  12  22  33  48  70 103 144 181 215 258 308
#     4   9  17  30  49  73 100 131 172 217 258 303
#     4  11  19  34  49  72 102 136 171 219 270 306
#     4  11  21  35  53  75 105 141 178 218 262 310
#     4  10  21  37  55  76 105 139 176 219 264 315
#     4  10  19  31  49  70  97 137 180 214 257 310
#     4  10  20  34  55  80 103 132 170 216 270 323
#
# _framework density 17.246262999999999
#
# number of rings (size 3 to 8) (size 9 to 14) (size 15 to 20)
#    0.000    1.571    4.286    1.714    0.000    4.714 
#    0.000    3.571    0.000    7.714    0.000    2.000 
#    0.000    0.000    0.000    6.000    0.000    0.286 
#
# Total GULP energy -1387803.146773 kJ/mol
# GULP energy per Si atom -12391.099525 kJ/mol
# Density = 1.720701 g / cm^3
# Si number density = 17.246263 Si / 1000 Ang^3
#
#
#
# Elastic Constant Matrix: (Units=GPa)
#
#
# Indices 1 2 3 4 5 6 
#
# 1 89.4674 27.4476 25.6860 0.0000 0.0000 0.0000
# 2 27.4476 89.4674 25.6860 0.0000 0.0000 0.0000
# 3 25.6860 25.6860 75.4651 0.0000 0.0000 0.0000
# 4 0.0000 0.0000 0.0000 15.5119 0.0000 0.0000
# 5 0.0000 0.0000 0.0000 0.0000 15.5119 0.0000
# 6 0.0000 0.0000 0.0000 0.0000 0.0000 19.8297
#
#
#
# Elastic Compliance Matrix: (Units=1/GPa)
#
#
# Indices 1 2 3 4 5 6 
#
# 1 0.013091 -0.003033 -0.003423 0.000000 0.000000 0.000000
# 2 -0.003033 0.013091 -0.003423 0.000000 0.000000 0.000000
# 3 -0.003423 -0.003423 0.015581 0.000000 0.000000 0.000000
# 4 0.000000 0.000000 0.000000 0.064467 0.000000 0.000000
# 5 0.000000 0.000000 0.000000 0.000000 0.064467 0.000000
# 6 0.000000 0.000000 0.000000 0.000000 0.000000 0.050429
#
#
# Mechanical properties :
#
#
# Convention : Reuss Voigt Hill
#
# Bulk Modulus (GPa) = 45.44763 45.78211 45.61487
# Shear Modulus (GPa) = 20.14349 21.87606 21.00978
#
# Velocity S-wave (km/s) = 3.42130 3.56540 3.49409
# Velocity P-wave (km/s) = 6.48201 6.59948 6.54101
#
# Compressibility (1/GPa) = 0.02200335
#
# Stress axis : x y z
#
# Youngs Moduli (GPa) = 76.39059 76.39059 64.17874
#
# Poissons Ratio (x) = 0.23171 0.21970
# Poissons Ratio (y) = 0.23171 0.21970
# Poissons Ratio (z) = 0.26150 0.26150
#
# Static dielectric constant tensor:
#      x y z
#    x 3.437700 0.000000 0.000000 
#    y 0.000000 3.437700 0.000000 
#    z 0.000000 0.000000 3.019900 
# 
# 
# High freq. dielectric constant tensor:
#      x y z
#    x 1.669640 0.000000 0.000000 
#    y 0.000000 1.669640 0.000000 
#    z 0.000000 0.000000 1.633080 
# 
# From -- ./inp_files/12502.got.cif
#   From: 2010.03.12/outbox.cif.g09.slc.cpg/sg131_7_cif.got.tgz:12502.got - 2010.04.06 17:36:35.
