data_PCOD8315779
_publ_section_title
;
Structure prediction by ZEFSAII (Michael W. Deem and Ramdas Pophale) SiO2 
 PCOD8315779
Probable space group: P 42/M M C
;
_chemical_formula_sum "Si O2"
_cell_formula_units_Z 88
_cell_length_a 17.959864
_cell_length_b 17.959864
_cell_length_c 15.072100
_cell_angle_alpha 90.000000
_cell_angle_beta 90.000000
_cell_angle_gamma 90.000000
_cell_volume 4861.607063
_symmetry_space_group_name_H-M "P 42/M M C"
_symmetry_group_IT_number 131
_symmetry_cell_setting 'tetragonal'
loop_
_space_group_symop_operation_xyz
x,y,z
-x,-y,z
-y,x,1/2+z
y,-x,1/2+z
-x,y,-z
x,-y,-z
y,x,1/2-z
-y,-x,1/2-z
-x,-y,-z
x,y,-z
y,-x,1/2-z
-y,x,1/2-z
x,-y,z
-x,y,z
-y,-x,1/2+z
y,x,1/2+z
loop_
_atom_site_type_symbol
_atom_site_label
_atom_site_fract_x
_atom_site_fract_y
_atom_site_fract_z
Si Si1 0.794420 0.085658 0.101994
Si Si2 0.411526 0.918898 0.500000
Si Si3 0.587359 0.822810 0.339454
Si Si4 0.085070 0.085070 0.250000
Si Si5 0.698115 0.794913 0.808509
Si Si6 0.583749 0.500000 0.105474
Si Si7 0.358182 0.667549 0.601147
O O1 0.864103 0.104730 0.165173
O O2 0.726705 0.142750 0.122626
O O3 0.767920 0.000000 0.116574
O O4 0.818943 0.097921 0.000000
O O5 0.500000 0.915611 0.500000
O O6 0.383320 0.883858 0.591469
O O7 0.377151 0.000000 0.500000
O O8 0.500000 0.828479 0.317261
O O9 0.633634 0.833205 0.249422
O O10 0.607067 0.748380 0.391080
O O11 0.000000 0.098094 0.219763
O O12 0.768575 0.768575 0.750000
O O13 0.660479 0.721547 0.851359
O O14 0.500000 0.500000 0.135550
O O15 0.616137 0.577441 0.144760
O O16 0.597258 0.500000 0.000000
O O17 0.343759 0.645399 0.500000
#
# Coordination Sequence:
#
# PCOD8315779 Si02
#       7
#    16   8  16   8  16   8  16
#     4  10  20  36  58  81 111 151 191 233 283 339
#     4   9  18  32  54  82 102 128 175 229 285 348
#     4  10  19  33  54  74 103 142 178 224 283 348
#     4   9  18  34  56  84 116 146 181 228 280 338
#     4  10  21  34  51  79 109 144 188 231 276 340
#     4   9  18  30  50  80 108 139 179 226 273 320
#     4  10  18  32  54  74 103 145 184 222 275 335
#
# _framework density 18.101011
#
# number of rings (size 3 to 8) (size 9 to 14) (size 15 to 20)
#    0.000    2.273    2.727    0.545    0.000    1.818 
#    0.000    1.818    0.000    1.636    0.000    1.273 
#    0.000    0.000    0.000    0.000    0.000    0.000 
#
# Total GULP energy -1090631.265299 kJ/mol
# GULP energy per Si atom -12393.537106 kJ/mol
# Density = 1.805981 g / cm^3
# Si number density = 18.101011 Si / 1000 Ang^3
#
#
#
# Elastic Constant Matrix: (Units=GPa)
#
#
# Indices 1 2 3 4 5 6 
#
# 1 110.5258 59.7239 56.9034 0.0000 0.0000 0.0000
# 2 59.7239 110.5258 56.9034 0.0000 0.0000 0.0000
# 3 56.9034 56.9034 113.4151 0.0000 0.0000 0.0000
# 4 0.0000 0.0000 0.0000 45.7318 0.0000 0.0000
# 5 0.0000 0.0000 0.0000 0.0000 45.7318 0.0000
# 6 0.0000 0.0000 0.0000 0.0000 0.0000 16.7264
#
#
#
# Elastic Compliance Matrix: (Units=1/GPa)
#
#
# Indices 1 2 3 4 5 6 
#
# 1 0.014261 -0.005423 -0.004434 0.000000 0.000000 0.000000
# 2 -0.005423 0.014261 -0.004434 0.000000 0.000000 0.000000
# 3 -0.004434 -0.004434 0.013267 0.000000 0.000000 0.000000
# 4 0.000000 0.000000 0.000000 0.021867 0.000000 0.000000
# 5 0.000000 0.000000 0.000000 0.000000 0.021867 0.000000
# 6 0.000000 0.000000 0.000000 0.000000 0.000000 0.059786
#
#
# Mechanical properties :
#
#
# Convention : Reuss Voigt Hill
#
# Bulk Modulus (GPa) = 75.72533 75.72533 75.72533
# Shear Modulus (GPa) = 28.04375 32.36706 30.20541
#
# Velocity S-wave (km/s) = 3.94037 4.23322 4.08942
# Velocity P-wave (km/s) = 7.91377 8.11291 8.01396
#
# Compressibility (1/GPa) = 0.01320562
#
# Stress axis : x y z
#
# Youngs Moduli (GPa) = 70.12102 70.12102 75.37693
#
# Poissons Ratio (x) = 0.38028 0.33423
# Poissons Ratio (y) = 0.38028 0.33423
# Poissons Ratio (z) = 0.31093 0.31093
#
# Static dielectric constant tensor:
#      x y z
#    x 3.344740 0.000000 0.000000 
#    y 0.000000 3.344740 0.000000 
#    z 0.000000 0.000000 3.285190 
# 
# 
# High freq. dielectric constant tensor:
#      x y z
#    x 1.694230 0.000000 0.000000 
#    y 0.000000 1.694230 0.000000 
#    z 0.000000 0.000000 1.697440 
# 
# From -- ./inp_files/5953.got.cif
#   From: 2010.03.12/outbox.cif.g09.slc.cpg/sg131_3_cif.got.tgz:5953.got - 2010.04.06 17:36:35.
