data_PCOD8315649
_publ_section_title
;
Structure prediction by ZEFSAII (Michael W. Deem and Ramdas Pophale) SiO2 
 PCOD8315649
Probable space group: P 42/M M C
;
_chemical_formula_sum "Si O2"
_cell_formula_units_Z 72
_cell_length_a 11.933234
_cell_length_b 11.933234
_cell_length_c 29.940172
_cell_angle_alpha 90.000000
_cell_angle_beta 90.000000
_cell_angle_gamma 90.000000
_cell_volume 4263.542580
_symmetry_space_group_name_H-M "P 42/M M C"
_symmetry_group_IT_number 131
_symmetry_cell_setting 'tetragonal'
loop_
_space_group_symop_operation_xyz
x,y,z
-x,-y,z
-y,x,1/2+z
y,-x,1/2+z
-x,y,-z
x,-y,-z
y,x,1/2-z
-y,-x,1/2-z
-x,-y,-z
x,y,-z
y,-x,1/2-z
-y,x,1/2-z
x,-y,z
-x,y,z
-y,-x,1/2+z
y,x,1/2+z
loop_
_atom_site_type_symbol
_atom_site_label
_atom_site_fract_x
_atom_site_fract_y
_atom_site_fract_z
Si Si1 0.000000 0.723938 0.310465
Si Si2 0.245219 0.779493 0.699867
Si Si3 0.369185 0.000000 0.907420
Si Si4 0.367493 0.627143 0.130494
Si Si5 0.225817 0.366945 0.450308
Si Si6 0.000000 0.370260 0.785689
O O1 0.887781 0.799985 0.308849
O O2 0.000000 0.641357 0.267881
O O3 0.000000 0.649943 0.354691
O O4 0.264484 0.735517 0.750000
O O5 0.293465 0.684390 0.667899
O O6 0.310917 0.894053 0.691495
O O7 0.316117 0.110228 0.930461
O O8 0.500000 0.000000 0.916345
O O9 0.324545 0.500000 0.135497
O O10 0.500000 0.634936 0.136653
O O11 0.331056 0.671539 0.081588
O O12 0.246838 0.318245 0.500000
O O13 0.216879 0.500000 0.452163
O O14 0.000000 0.500000 0.798746
#
# Coordination Sequence:
#
# PCOD8315649 Si02
#       6
#     8  16   8  16  16   8
#     4  10  19  32  52  75  99 129 166 212 258 296
#     4  10  21  35  52  74  99 131 170 212 256 302
#     4  10  16  26  47  72 101 132 166 205 250 305
#     4  10  20  32  47  70 102 138 172 207 251 306
#     4   9  17  28  44  69 100 134 170 208 252 302
#     4  10  21  35  52  74 102 136 171 206 246 299
#
# _framework density 16.887366
#
# number of rings (size 3 to 8) (size 9 to 14) (size 15 to 20)
#    0.000    2.222    2.222    1.333    0.000    6.667 
#    0.000    5.556    0.000    0.000    0.000    0.778 
#    0.000    4.444    0.000    0.000    0.000    0.000 
#
# Total GULP energy -892640.676426 kJ/mol
# GULP energy per Si atom -12397.787173 kJ/mol
# Density = 1.684893 g / cm^3
# Si number density = 16.887366 Si / 1000 Ang^3
#
#
#
# Elastic Constant Matrix: (Units=GPa)
#
#
# Indices 1 2 3 4 5 6 
#
# 1 93.1826 40.9811 33.4076 0.0000 0.0000 0.0000
# 2 40.9811 93.1828 33.4077 0.0000 0.0000 0.0000
# 3 33.4076 33.4077 108.6155 0.0000 0.0000 0.0000
# 4 0.0000 0.0000 0.0000 18.1812 0.0000 0.0000
# 5 0.0000 0.0000 0.0000 0.0000 18.1812 0.0000
# 6 0.0000 0.0000 0.0000 0.0000 0.0000 21.5892
#
#
#
# Elastic Compliance Matrix: (Units=1/GPa)
#
#
# Indices 1 2 3 4 5 6 
#
# 1 0.013979 -0.005177 -0.002707 0.000000 0.000000 0.000000
# 2 -0.005177 0.013979 -0.002707 0.000000 0.000000 0.000000
# 3 -0.002707 -0.002707 0.010872 0.000000 0.000000 0.000000
# 4 0.000000 0.000000 0.000000 0.055002 0.000000 0.000000
# 5 0.000000 0.000000 0.000000 0.000000 0.055002 0.000000
# 6 0.000000 0.000000 0.000000 0.000000 0.000000 0.046319
#
#
# Mechanical properties :
#
#
# Convention : Reuss Voigt Hill
#
# Bulk Modulus (GPa) = 56.66737 56.73041 56.69889
# Shear Modulus (GPa) = 22.50026 24.06928 23.28477
#
# Velocity S-wave (km/s) = 3.65413 3.77939 3.71729
# Velocity P-wave (km/s) = 7.17164 7.26026 7.21609
#
# Compressibility (1/GPa) = 0.01764684
#
# Stress axis : x y z
#
# Youngs Moduli (GPa) = 71.53504 71.53514 91.97812
#
# Poissons Ratio (x) = 0.37036 0.24901
# Poissons Ratio (y) = 0.37036 0.24901
# Poissons Ratio (z) = 0.19366 0.19366
#
# Static dielectric constant tensor:
#      x y z
#    x 3.108480 0.000000 0.000000 
#    y 0.000000 3.108490 0.000000 
#    z 0.000000 0.000000 3.305990 
# 
# 
# High freq. dielectric constant tensor:
#      x y z
#    x 1.632370 0.000000 0.000000 
#    y 0.000000 1.632370 0.000000 
#    z 0.000000 0.000000 1.654570 
# 
# From -- ./inp_files/12149.got.cif
#   From: 2010.03.12/outbox.cif.g09.slc.cpg/sg131_7_cif.got.tgz:12149.got - 2010.04.06 17:36:35.
