data_PCOD8315891
_publ_section_title
;
Structure prediction by ZEFSAII (Michael W. Deem and Ramdas Pophale) SiO2 
 PCOD8315891
Probable space group: P 42/M M C
;
_chemical_formula_sum "Si O2"
_cell_formula_units_Z 72
_cell_length_a 20.702372
_cell_length_b 20.702372
_cell_length_c 8.914387
_cell_angle_alpha 90.000000
_cell_angle_beta 90.000000
_cell_angle_gamma 90.000000
_cell_volume 3820.601136
_symmetry_space_group_name_H-M "P 42/M M C"
_symmetry_group_IT_number 131
_symmetry_cell_setting 'tetragonal'
loop_
_space_group_symop_operation_xyz
x,y,z
-x,-y,z
-y,x,1/2+z
y,-x,1/2+z
-x,y,-z
x,-y,-z
y,x,1/2-z
-y,-x,1/2-z
-x,-y,-z
x,y,-z
y,-x,1/2-z
-y,x,1/2-z
x,-y,z
-x,y,z
-y,-x,1/2+z
y,x,1/2+z
loop_
_atom_site_type_symbol
_atom_site_label
_atom_site_fract_x
_atom_site_fract_y
_atom_site_fract_z
Si Si1 0.832936 0.074766 0.169328
Si Si2 0.572921 0.326899 0.323761
Si Si3 0.741984 0.840088 0.677652
Si Si4 0.500000 0.074836 0.678370
Si Si5 0.598851 0.818150 0.322349
O O1 0.893905 0.106096 0.250000
O O2 0.767579 0.091522 0.260013
O O3 0.844990 0.000000 0.171209
O O4 0.827518 0.101618 0.000000
O O5 0.625518 0.374483 0.250000
O O6 0.587352 0.327548 0.500000
O O7 0.500000 0.351752 0.289189
O O8 0.577275 0.252737 0.262154
O O9 0.784548 0.784548 0.750000
O O10 0.746033 0.837866 0.500000
O O11 0.670398 0.829775 0.736160
O O12 0.500000 0.068889 0.500000
O O13 0.559769 0.118960 0.736595
O O14 0.500000 0.000000 0.742917
O O15 0.591915 0.816600 0.500000
#
# Coordination Sequence:
#
# PCOD8315891 Si02
#       5
#    16  16  16   8  16
#     4  10  21  36  53  74 102 136 172 212 261 315
#     4  10  20  35  55  77 108 145 181 226 274 323
#     4  10  19  31  51  77 104 133 170 215 259 309
#     4   9  16  28  48  74 104 135 170 212 261 317
#     4   9  17  31  50  75 106 139 174 216 268 315
#
# _framework density 18.845203000000001
#
# number of rings (size 3 to 8) (size 9 to 14) (size 15 to 20)
#    0.000    2.333    1.111    3.333    0.000    3.556 
#    0.000    5.556    0.000    0.000    0.000    0.000 
#    0.000    6.222    0.000    0.000    0.000    0.000 
#
# Total GULP energy -892074.942768 kJ/mol
# GULP energy per Si atom -12389.929761 kJ/mol
# Density = 1.880231 g / cm^3
# Si number density = 18.845203 Si / 1000 Ang^3
#
#
#
# Elastic Constant Matrix: (Units=GPa)
#
#
# Indices 1 2 3 4 5 6 
#
# 1 131.3731 49.7366 30.8932 0.0000 0.0000 0.0000
# 2 49.7366 131.3769 30.8945 0.0000 0.0000 0.0000
# 3 30.8932 30.8945 60.4188 0.0000 0.0000 0.0000
# 4 0.0000 0.0000 0.0000 15.2684 0.0000 0.0000
# 5 0.0000 0.0000 0.0000 0.0000 15.2690 0.0000
# 6 0.0000 0.0000 0.0000 0.0000 0.0000 11.3507
#
#
#
# Elastic Compliance Matrix: (Units=1/GPa)
#
#
# Indices 1 2 3 4 5 6 
#
# 1 0.009469 -0.002780 -0.003420 0.000000 0.000000 0.000000
# 2 -0.002780 0.009469 -0.003420 0.000000 0.000000 0.000000
# 3 -0.003420 -0.003420 0.020048 0.000000 0.000000 0.000000
# 4 0.000000 0.000000 0.000000 0.065495 0.000000 0.000000
# 5 0.000000 0.000000 0.000000 0.000000 0.065492 0.000000
# 6 0.000000 0.000000 0.000000 0.000000 0.000000 0.088100
#
#
# Mechanical properties :
#
#
# Convention : Reuss Voigt Hill
#
# Bulk Modulus (GPa) = 50.64471 60.69083 55.66777
# Shear Modulus (GPa) = 17.61213 22.48725 20.04969
#
# Velocity S-wave (km/s) = 3.06039 3.45811 3.26531
# Velocity P-wave (km/s) = 6.27856 6.94403 6.61966
#
# Compressibility (1/GPa) = 0.01974540
#
# Stress axis : x y z
#
# Youngs Moduli (GPa) = 105.61055 105.61269 49.87915
#
# Poissons Ratio (x) = 0.29365 0.17057
# Poissons Ratio (y) = 0.29365 0.17058
# Poissons Ratio (z) = 0.36116 0.36119
#
# Static dielectric constant tensor:
#      x y z
#    x 3.744570 0.000000 0.000000 
#    y 0.000000 3.744570 0.000000 
#    z 0.000000 0.000000 3.275790 
# 
# 
# High freq. dielectric constant tensor:
#      x y z
#    x 1.740450 0.000000 0.000000 
#    y 0.000000 1.740450 0.000000 
#    z 0.000000 0.000000 1.699900 
# 
# From -- ./inp_files/1783.got.cif
#   From: 2010.03.12/outbox.cif.g09.slc.cpg/sg131_1_cif.got.tgz:1783.got - 2010.04.06 17:36:35.
