data_PCOD8315979
_publ_section_title
;
Structure prediction by ZEFSAII (Michael W. Deem and Ramdas Pophale) SiO2 
 PCOD8315979
Probable space group: P 42/M M C
;
_chemical_formula_sum "Si O2"
_cell_formula_units_Z 96
_cell_length_a 14.379746
_cell_length_b 14.379746
_cell_length_c 27.602293
_cell_angle_alpha 90.000000
_cell_angle_beta 90.000000
_cell_angle_gamma 90.000000
_cell_volume 5707.521963
_symmetry_space_group_name_H-M "P 42/M M C"
_symmetry_group_IT_number 131
_symmetry_cell_setting 'tetragonal'
loop_
_space_group_symop_operation_xyz
x,y,z
-x,-y,z
-y,x,1/2+z
y,-x,1/2+z
-x,y,-z
x,-y,-z
y,x,1/2-z
-y,-x,1/2-z
-x,-y,-z
x,y,-z
y,-x,1/2-z
-y,x,1/2-z
x,-y,z
-x,y,z
-y,-x,1/2+z
y,x,1/2+z
loop_
_atom_site_type_symbol
_atom_site_label
_atom_site_fract_x
_atom_site_fract_y
_atom_site_fract_z
Si Si1 0.108036 0.734587 0.696323
Si Si2 0.750488 0.105520 0.307551
Si Si3 0.280551 0.325035 0.943314
Si Si4 0.174117 0.610462 0.384642
Si Si5 0.500000 0.398376 0.556735
Si Si6 0.000000 0.608615 0.552590
Si Si7 0.106502 0.608664 0.891380
O O1 0.163347 0.827200 0.679828
O O2 0.121553 0.715192 0.753016
O O3 0.150873 0.643970 0.669723
O O4 0.000000 0.749021 0.682862
O O5 0.661584 0.125994 0.341083
O O6 0.786725 0.000000 0.314662
O O7 0.324415 0.251074 0.907611
O O8 0.340268 0.412393 0.927082
O O9 0.172272 0.346212 0.932539
O O10 0.291630 0.298500 0.000000
O O11 0.197808 0.500000 0.384988
O O12 0.088663 0.638710 0.417807
O O13 0.500000 0.500000 0.582117
O O14 0.500000 0.412822 0.500000
O O15 0.000000 0.500000 0.544493
O O16 0.000000 0.658497 0.500000
O O17 0.128883 0.500000 0.883671
O O18 0.000000 0.622536 0.908565
#
# Coordination Sequence:
#
# PCOD8315979 Si02
#       7
#    16  16  16  16   8   8  16
#     4  10  19  33  55  81 106 134 169 210 259 311
#     4   9  19  35  55  79 106 133 166 212 262 313
#     4  11  21  34  52  75 102 136 176 217 260 306
#     4  11  21  33  51  77 106 138 176 213 251 301
#     4   9  18  32  49  71  99 131 170 214 257 301
#     4   9  18  32  48  70 103 139 171 205 245 291
#     4  10  20  35  55  78 103 133 171 215 266 319
#
# _framework density 16.81991
#
# number of rings (size 3 to 8) (size 9 to 14) (size 15 to 20)
#    0.000    2.000    3.333    1.000    0.000    3.000 
#    0.000    4.167    0.000    0.000    0.000    0.000 
#    0.000    8.000    0.000    0.000    0.000    0.000 
#
# Total GULP energy -1189876.094102 kJ/mol
# GULP energy per Si atom -12394.542647 kJ/mol
# Density = 1.678163 g / cm^3
# Si number density = 16.819910 Si / 1000 Ang^3
#
#
#
# Elastic Constant Matrix: (Units=GPa)
#
#
# Indices 1 2 3 4 5 6 
#
# 1 102.4845 45.9789 36.0974 0.0000 0.0000 0.0000
# 2 45.9789 102.4845 36.0974 0.0000 0.0000 0.0000
# 3 36.0974 36.0974 69.1212 0.0000 0.0000 0.0000
# 4 0.0000 0.0000 0.0000 24.7102 0.0000 0.0000
# 5 0.0000 0.0000 0.0000 0.0000 24.7102 0.0000
# 6 0.0000 0.0000 0.0000 0.0000 0.0000 27.6487
#
#
#
# Elastic Compliance Matrix: (Units=1/GPa)
#
#
# Indices 1 2 3 4 5 6 
#
# 1 0.013363 -0.004334 -0.004715 0.000000 0.000000 0.000000
# 2 -0.004334 0.013363 -0.004715 0.000000 0.000000 0.000000
# 3 -0.004715 -0.004715 0.019392 0.000000 0.000000 0.000000
# 4 0.000000 0.000000 0.000000 0.040469 0.000000 0.000000
# 5 0.000000 0.000000 0.000000 0.000000 0.040469 0.000000
# 6 0.000000 0.000000 0.000000 0.000000 0.000000 0.036168
#
#
# Mechanical properties :
#
#
# Convention : Reuss Voigt Hill
#
# Bulk Modulus (GPa) = 53.79516 56.71529 55.25523
# Shear Modulus (GPa) = 25.38727 25.80827 25.59777
#
# Velocity S-wave (km/s) = 3.88926 3.92138 3.90535
# Velocity P-wave (km/s) = 7.22640 7.36853 7.29781
#
# Compressibility (1/GPa) = 0.01858903
#
# Stress axis : x y z
#
# Youngs Moduli (GPa) = 74.83404 74.83404 51.56780
#
# Poissons Ratio (x) = 0.32436 0.24314
# Poissons Ratio (y) = 0.32436 0.24314
# Poissons Ratio (z) = 0.35284 0.35284
#
# Static dielectric constant tensor:
#      x y z
#    x 3.064730 0.000000 0.000000 
#    y 0.000000 3.064730 0.000000 
#    z 0.000000 0.000000 3.179500 
# 
# 
# High freq. dielectric constant tensor:
#      x y z
#    x 1.651540 0.000000 0.000000 
#    y 0.000000 1.651540 0.000000 
#    z 0.000000 0.000000 1.641230 
# 
# From -- ./inp_files/12338.got.cif
#   From: 2010.03.12/outbox.cif.g09.slc.cpg/sg131_7_cif.got.tgz:12338.got - 2010.04.06 17:36:35.
