data_PCOD8315148
_publ_section_title
;
Structure prediction by ZEFSAII (Michael W. Deem and Ramdas Pophale) SiO2 
 PCOD8315148
Probable space group: P 4/N M M
;
_chemical_formula_sum "Si O2"
_cell_formula_units_Z 96
_cell_length_a 23.839847
_cell_length_b 23.839847
_cell_length_c 9.991440
_cell_angle_alpha 90.000000
_cell_angle_beta 90.000000
_cell_angle_gamma 90.000000
_cell_volume 5678.518074
_symmetry_space_group_name_H-M "P 4/N M M"
_symmetry_group_IT_number 129
_symmetry_cell_setting 'tetragonal'
loop_
_space_group_symop_operation_xyz
x,y,z
1/2-y,x,z
1/2-x,1/2-y,z
y,1/2-x,z
1/2+x,-y,-z
-x,1/2+y,-z
1/2+y,1/2+x,-z
-y,-x,-z
-x,-y,-z
1/2+y,-x,-z
1/2+x,1/2+y,-z
-y,1/2+x,-z
1/2-x,y,z
x,1/2-y,z
1/2-y,1/2-x,z
y,x,z
loop_
_atom_site_type_symbol
_atom_site_label
_atom_site_fract_x
_atom_site_fract_y
_atom_site_fract_z
Si Si1 0.685517 0.113996 0.244849
Si Si2 0.404227 0.185529 0.205409
Si Si3 0.515242 0.813688 0.257028
Si Si4 0.894727 0.394727 0.000000
Si Si5 0.025381 0.382767 0.002691
Si Si6 0.685164 0.185164 0.500000
Si Si7 0.903777 0.813574 0.490350
O O1 0.750000 0.128350 0.203971
O O2 0.665317 0.151140 0.369807
O O3 0.679908 0.049931 0.288764
O O4 0.643944 0.125744 0.122048
O O5 0.395672 0.250000 0.166919
O O6 0.344772 0.155229 0.180779
O O7 0.452019 0.158969 0.114735
O O8 0.424403 0.177307 0.357996
O O9 0.529620 0.750000 0.213202
O O10 0.545481 0.830861 0.394096
O O11 0.535811 0.855578 0.141978
O O12 0.887606 0.459887 0.964724
O O13 0.057132 0.442869 0.008442
O O14 0.673305 0.250000 0.469123
O O15 0.884726 0.750000 0.466733
O O16 0.850057 0.850057 0.454000
#
# Coordination Sequence:
#
# PCOD8315148 Si02
#       7
#    16  16  16   8  16   8  16
#     4   9  19  34  50  71  96 121 151 188 232 279
#     4   9  18  31  48  71  98 128 162 200 240 284
#     4   9  17  30  48  68  91 120 156 196 234 278
#     4  10  21  34  50  73  98 124 158 200 240 283
#     4  10  19  32  49  68  94 127 162 199 241 286
#     4   9  18  34  54  74  97 122 146 176 221 278
#     4   9  17  29  45  67  94 124 159 197 238 282
#
# _framework density 16.905819000000001
#
# number of rings (size 3 to 8) (size 9 to 14) (size 15 to 20)
#    0.000    2.750    0.000    1.250    0.000    3.000 
#    0.000    3.333    0.000    0.000    0.000   14.000 
#    0.000    0.000    0.000    0.000    0.000    0.000 
#
# Total GULP energy -1190382.071376 kJ/mol
# GULP energy per Si atom -12399.813243 kJ/mol
# Density = 1.686734 g / cm^3
# Si number density = 16.905819 Si / 1000 Ang^3
#
#
#
# Elastic Constant Matrix: (Units=GPa)
#
#
# Indices 1 2 3 4 5 6 
#
# 1 91.2621 63.1460 76.6971 0.0000 0.0000 0.0000
# 2 63.1460 91.2621 76.6971 0.0000 0.0000 0.0000
# 3 76.6971 76.6971 124.4478 0.0000 0.0000 0.0000
# 4 0.0000 0.0000 0.0000 30.7165 0.0000 0.0000
# 5 0.0000 0.0000 0.0000 0.0000 30.7165 0.0000
# 6 0.0000 0.0000 0.0000 0.0000 0.0000 20.9609
#
#
#
# Elastic Compliance Matrix: (Units=1/GPa)
#
#
# Indices 1 2 3 4 5 6 
#
# 1 0.026135 -0.009432 -0.010294 0.000000 0.000000 0.000000
# 2 -0.009432 0.026135 -0.010294 0.000000 0.000000 0.000000
# 3 -0.010294 -0.010294 0.020724 0.000000 0.000000 0.000000
# 4 0.000000 0.000000 0.000000 0.032556 0.000000 0.000000
# 5 0.000000 0.000000 0.000000 0.000000 0.032556 0.000000
# 6 0.000000 0.000000 0.000000 0.000000 0.000000 0.047708
#
#
# Mechanical properties :
#
#
# Convention : Reuss Voigt Hill
#
# Bulk Modulus (GPa) = 77.19873 82.22805 79.71339
# Shear Modulus (GPa) = 19.98643 22.50754 21.24699
#
# Velocity S-wave (km/s) = 3.44208 3.65272 3.54896
# Velocity P-wave (km/s) = 7.84604 8.15686 8.00296
#
# Compressibility (1/GPa) = 0.01295358
#
# Stress axis : x y z
#
# Youngs Moduli (GPa) = 38.26332 38.26332 48.25428
#
# Poissons Ratio (x) = 0.36091 0.49672
# Poissons Ratio (y) = 0.36091 0.49672
# Poissons Ratio (z) = 0.39387 0.39387
#
# Static dielectric constant tensor:
#      x y z
#    x 3.178880 0.000000 0.000000 
#    y 0.000000 3.178880 0.000000 
#    z 0.000000 0.000000 3.218030 
# 
# 
# High freq. dielectric constant tensor:
#      x y z
#    x 1.652080 0.000000 0.000000 
#    y 0.000000 1.652080 0.000000 
#    z 0.000000 0.000000 1.654720 
# 
# From -- ./inp_files/2704.got.cif
#   From: 2010.03.12/outbox.cif.g09.slc.cpg/sg129_2_cif.got.tgz:2704.got - 2010.04.06 17:19:44.
