data_PCOD8315983
_publ_section_title
;
Structure prediction by ZEFSAII (Michael W. Deem and Ramdas Pophale) SiO2 
 PCOD8315983
Probable space group: P 42/M M C
;
_chemical_formula_sum "Si O2"
_cell_formula_units_Z 88
_cell_length_a 12.412903
_cell_length_b 12.412903
_cell_length_c 30.764681
_cell_angle_alpha 90.000000
_cell_angle_beta 90.000000
_cell_angle_gamma 90.000000
_cell_volume 4740.226998
_symmetry_space_group_name_H-M "P 42/M M C"
_symmetry_group_IT_number 131
_symmetry_cell_setting 'tetragonal'
loop_
_space_group_symop_operation_xyz
x,y,z
-x,-y,z
-y,x,1/2+z
y,-x,1/2+z
-x,y,-z
x,-y,-z
y,x,1/2-z
-y,-x,1/2-z
-x,-y,-z
x,y,-z
y,-x,1/2-z
-y,x,1/2-z
x,-y,z
-x,y,z
-y,-x,1/2+z
y,x,1/2+z
loop_
_atom_site_type_symbol
_atom_site_label
_atom_site_fract_x
_atom_site_fract_y
_atom_site_fract_z
Si Si1 0.872489 0.000000 0.948414
Si Si2 0.213815 0.771412 0.404363
Si Si3 0.619300 0.379760 0.551169
Si Si4 0.381010 0.124735 0.832912
Si Si5 0.292246 0.875223 0.741062
Si Si6 0.875523 0.617637 0.848436
O O1 0.820583 0.108163 0.927748
O O2 0.000000 0.000000 0.938696
O O3 0.849728 0.000000 0.000000
O O4 0.281872 0.697022 0.436550
O O5 0.186370 0.705460 0.361376
O O6 0.296027 0.862201 0.387256
O O7 0.616411 0.382900 0.500000
O O8 0.641981 0.500000 0.569390
O O9 0.500000 0.341202 0.567904
O O10 0.500000 0.161829 0.847151
O O11 0.369846 0.148516 0.781749
O O12 0.363542 0.000000 0.842680
O O13 0.177017 0.822984 0.750000
O O14 0.344575 0.824238 0.697544
O O15 0.267904 0.000000 0.734848
O O16 0.825927 0.500000 0.860913
O O17 0.000000 0.602926 0.839868
#
# Coordination Sequence:
#
# PCOD8315983 Si02
#       6
#     8  16  16  16  16  16
#     4  11  26  44  59  81 117 157 190 234 303 369
#     4  12  20  36  59  85 109 145 189 237 281 341
#     4   9  19  36  57  82 111 142 179 228 287 344
#     4  10  20  34  53  79 111 145 184 227 275 332
#     4  10  19  34  52  78 113 154 189 227 278 332
#     4  10  21  36  56  82 112 147 191 237 281 332
#
# _framework density 18.564513000000002
#
# number of rings (size 3 to 8) (size 9 to 14) (size 15 to 20)
#    0.000    1.727    2.727    3.273    0.000    2.364 
#    0.000    0.000    0.000    2.182    0.000    8.909 
#    0.000    0.000    0.000    0.000    0.000    0.000 
#
# Total GULP energy -1090467.092657 kJ/mol
# GULP energy per Si atom -12391.671507 kJ/mol
# Density = 1.852226 g / cm^3
# Si number density = 18.564513 Si / 1000 Ang^3
#
#
#
# Elastic Constant Matrix: (Units=GPa)
#
#
# Indices 1 2 3 4 5 6 
#
# 1 103.1311 58.6151 42.6296 0.0000 0.0000 0.0000
# 2 58.6151 103.1291 42.6307 0.0000 0.0000 0.0000
# 3 42.6296 42.6307 85.0066 0.0000 0.0000 0.0000
# 4 0.0000 0.0000 0.0000 29.5956 0.0000 0.0000
# 5 0.0000 0.0000 0.0000 0.0000 29.5958 0.0000
# 6 0.0000 0.0000 0.0000 0.0000 0.0000 20.8714
#
#
#
# Elastic Compliance Matrix: (Units=1/GPa)
#
#
# Indices 1 2 3 4 5 6 
#
# 1 0.015434 -0.007030 -0.004214 0.000000 0.000000 0.000000
# 2 -0.007030 0.015435 -0.004215 0.000000 0.000000 0.000000
# 3 -0.004214 -0.004215 0.015991 0.000000 0.000000 0.000000
# 4 0.000000 0.000000 0.000000 0.033789 0.000000 0.000000
# 5 0.000000 0.000000 0.000000 0.000000 0.033789 0.000000
# 6 0.000000 0.000000 0.000000 0.000000 0.000000 0.047912
#
#
# Mechanical properties :
#
#
# Convention : Reuss Voigt Hill
#
# Bulk Modulus (GPa) = 62.73187 64.33529 63.53358
# Shear Modulus (GPa) = 25.17853 25.83864 25.50859
#
# Velocity S-wave (km/s) = 3.68676 3.73477 3.71084
# Velocity P-wave (km/s) = 7.21024 7.30262 7.25658
#
# Compressibility (1/GPa) = 0.01594086
#
# Stress axis : x y z
#
# Youngs Moduli (GPa) = 64.79203 64.78953 62.53503
#
# Poissons Ratio (x) = 0.45547 0.26354
# Poissons Ratio (y) = 0.45549 0.26358
# Poissons Ratio (z) = 0.27306 0.27309
#
# Static dielectric constant tensor:
#      x y z
#    x 3.523870 0.000000 0.000000 
#    y 0.000000 3.523870 0.000000 
#    z 0.000000 0.000000 3.371110 
# 
# 
# High freq. dielectric constant tensor:
#      x y z
#    x 1.719430 0.000000 0.000000 
#    y 0.000000 1.719430 0.000000 
#    z 0.000000 0.000000 1.721540 
# 
# From -- ./inp_files/13550.got.cif
#   From: 2010.03.12/outbox.cif.g09.slc.cpg/sg131_7_cif.got.tgz:13550.got - 2010.04.06 17:36:35.
