data_PCOD8315995
_publ_section_title
;
Structure prediction by ZEFSAII (Michael W. Deem and Ramdas Pophale) SiO2 
 PCOD8315995
Probable space group: P 42/M M C
;
_chemical_formula_sum "Si O2"
_cell_formula_units_Z 80
_cell_length_a 14.350780
_cell_length_b 14.350780
_cell_length_c 20.353776
_cell_angle_alpha 90.000000
_cell_angle_beta 90.000000
_cell_angle_gamma 90.000000
_cell_volume 4191.756090
_symmetry_space_group_name_H-M "P 42/M M C"
_symmetry_group_IT_number 131
_symmetry_cell_setting 'tetragonal'
loop_
_space_group_symop_operation_xyz
x,y,z
-x,-y,z
-y,x,1/2+z
y,-x,1/2+z
-x,y,-z
x,-y,-z
y,x,1/2-z
-y,-x,1/2-z
-x,-y,-z
x,y,-z
y,-x,1/2-z
-y,x,1/2-z
x,-y,z
-x,y,z
-y,-x,1/2+z
y,x,1/2+z
loop_
_atom_site_type_symbol
_atom_site_label
_atom_site_fract_x
_atom_site_fract_y
_atom_site_fract_z
Si Si1 0.397599 0.322716 0.340154
Si Si2 0.156968 0.399473 0.923481
Si Si3 0.104660 0.800491 0.924304
Si Si4 0.890116 0.786565 0.690880
Si Si5 0.398064 0.216915 0.791018
O O1 0.500000 0.371286 0.332902
O O2 0.389880 0.267486 0.408664
O O3 0.384557 0.242003 0.285221
O O4 0.313655 0.395294 0.333087
O O5 0.120651 0.500000 0.893760
O O6 0.105016 0.306840 0.897507
O O7 0.141299 0.403991 0.000000
O O8 0.168616 0.865228 0.879236
O O9 0.000000 0.838637 0.919226
O O10 0.140413 0.805755 0.000000
O O11 0.841456 0.841456 0.750000
O O12 0.856562 0.679781 0.687754
O O13 0.000000 0.789736 0.702317
O O14 0.500000 0.172575 0.803728
#
# Coordination Sequence:
#
# PCOD8315995 Si02
#       5
#    16  16  16  16  16
#     4   9  16  30  53  80 112 143 176 216 263 321
#     4   9  16  28  51  80 110 145 180 216 264 324
#     4  10  21  37  57  82 112 146 185 228 277 329
#     4  12  24  40  60  82 110 143 185 233 281 328
#     4  10  19  34  56  81 110 142 177 220 273 330
#
# _framework density 19.085079
#
# number of rings (size 3 to 8) (size 9 to 14) (size 15 to 20)
#    0.000    2.000    4.000    0.600    0.000    3.000 
#    0.000    5.000    0.000    8.400    0.000    4.200 
#    0.000    0.000    0.000    0.000    0.000    0.000 
#
# Total GULP energy -991214.001119 kJ/mol
# GULP energy per Si atom -12390.175014 kJ/mol
# Density = 1.904164 g / cm^3
# Si number density = 19.085079 Si / 1000 Ang^3
#
#
#
# Elastic Constant Matrix: (Units=GPa)
#
#
# Indices 1 2 3 4 5 6 
#
# 1 117.3801 51.2345 29.3317 0.0000 0.0000 0.0000
# 2 51.2345 117.3801 29.3317 0.0000 0.0000 0.0000
# 3 29.3317 29.3317 39.5190 0.0000 0.0000 0.0000
# 4 0.0000 0.0000 0.0000 20.6597 0.0000 0.0000
# 5 0.0000 0.0000 0.0000 0.0000 20.6597 0.0000
# 6 0.0000 0.0000 0.0000 0.0000 0.0000 7.9834
#
#
#
# Elastic Compliance Matrix: (Units=1/GPa)
#
#
# Indices 1 2 3 4 5 6 
#
# 1 0.011557 -0.003561 -0.005934 0.000000 0.000000 0.000000
# 2 -0.003561 0.011557 -0.005934 0.000000 0.000000 0.000000
# 3 -0.005934 -0.005934 0.034113 0.000000 0.000000 0.000000
# 4 0.000000 0.000000 0.000000 0.048403 0.000000 0.000000
# 5 0.000000 0.000000 0.000000 0.000000 0.048403 0.000000
# 6 0.000000 0.000000 0.000000 0.000000 0.000000 0.125259
#
#
# Mechanical properties :
#
#
# Convention : Reuss Voigt Hill
#
# Bulk Modulus (GPa) = 37.92636 54.89724 46.41180
# Shear Modulus (GPa) = 15.67684 20.81932 18.24808
#
# Velocity S-wave (km/s) = 2.86915 3.30641 3.09551
# Velocity P-wave (km/s) = 5.55801 6.58813 6.09487
#
# Compressibility (1/GPa) = 0.02636689
#
# Stress axis : x y z
#
# Youngs Moduli (GPa) = 86.52973 86.52973 29.31405
#
# Poissons Ratio (x) = 0.30817 0.17396
# Poissons Ratio (y) = 0.30817 0.17396
# Poissons Ratio (z) = 0.51349 0.51349
#
# Static dielectric constant tensor:
#      x y z
#    x 3.561630 0.000000 0.000000 
#    y 0.000000 3.561630 0.000000 
#    z 0.000000 0.000000 3.450960 
# 
# 
# High freq. dielectric constant tensor:
#      x y z
#    x 1.732070 0.000000 0.000000 
#    y 0.000000 1.732070 0.000000 
#    z 0.000000 0.000000 1.723780 
# 
# From -- ./inp_files/9446.got.cif
#   From: 2010.03.12/outbox.cif.g09.slc.cpg/sg131_5_cif.got.tgz:9446.got - 2010.04.06 17:36:35.
