data_PCOD8315904
_publ_section_title
;
Structure prediction by ZEFSAII (Michael W. Deem and Ramdas Pophale) SiO2 
 PCOD8315904
Probable space group: P 42/M M C
;
_chemical_formula_sum "Si O2"
_cell_formula_units_Z 104
_cell_length_a 18.689432
_cell_length_b 18.689432
_cell_length_c 17.819559
_cell_angle_alpha 90.000000
_cell_angle_beta 90.000000
_cell_angle_gamma 90.000000
_cell_volume 6224.280517
_symmetry_space_group_name_H-M "P 42/M M C"
_symmetry_group_IT_number 131
_symmetry_cell_setting 'tetragonal'
loop_
_space_group_symop_operation_xyz
x,y,z
-x,-y,z
-y,x,1/2+z
y,-x,1/2+z
-x,y,-z
x,-y,-z
y,x,1/2-z
-y,-x,1/2-z
-x,-y,-z
x,y,-z
y,-x,1/2-z
-y,x,1/2-z
x,-y,z
-x,y,z
-y,-x,1/2+z
y,x,1/2+z
loop_
_atom_site_type_symbol
_atom_site_label
_atom_site_fract_x
_atom_site_fract_y
_atom_site_fract_z
Si Si1 0.081548 0.082423 0.162592
Si Si2 0.795850 0.167800 0.411093
Si Si3 0.422286 0.500000 0.088309
Si Si4 0.712548 0.712519 0.661791
Si Si5 0.580852 0.213252 0.587543
Si Si6 0.077934 0.662094 0.087592
Si Si7 0.656029 0.416407 0.587730
O O1 0.095674 0.095674 0.250000
O O2 0.137957 0.127957 0.114991
O O3 0.000000 0.103919 0.141869
O O4 0.094710 0.000000 0.141766
O O5 0.795075 0.176254 0.500000
O O6 0.779117 0.245593 0.375614
O O7 0.734514 0.114025 0.380898
O O8 0.500000 0.500000 0.127262
O O9 0.385255 0.424181 0.109294
O O10 0.433698 0.500000 0.000000
O O11 0.719349 0.719349 0.750000
O O12 0.636241 0.742573 0.636120
O O13 0.713661 0.629405 0.635112
O O14 0.594671 0.230472 0.500000
O O15 0.500000 0.233143 0.610526
O O16 0.594005 0.128726 0.603425
O O17 0.000000 0.650269 0.125819
O O18 0.067274 0.672947 0.000000
O O19 0.671236 0.405305 0.500000
O O20 0.662843 0.500000 0.609220
#
# Coordination Sequence:
#
# PCOD8315904 Si02
#       7
#    16  16   8  16  16  16  16
#     4   9  18  32  50  75 108 140 163 188 233 290
#     4  10  19  32  49  69  95 129 171 207 236 273
#     4   7  12  24  44  66  84 108 142 182 232 285
#     4  11  22  33  46  65  93 125 158 199 248 299
#     4   9  18  31  47  68  93 123 157 191 232 283
#     4   8  14  25  42  66  94 122 153 189 227 264
#     4   9  17  31  49  67  87 115 155 198 242 294
#
# _framework density 16.708759000000001
#
# number of rings (size 3 to 8) (size 9 to 14) (size 15 to 20)
#    0.000    2.846    0.000    4.615    1.077    2.154 
#    0.000    2.308    0.000    0.000    0.000    0.000 
#    0.000    0.615    0.000    3.231    0.000    0.000 
#
# Total GULP energy -1288706.330057 kJ/mol
# GULP energy per Si atom -12391.407020 kJ/mol
# Density = 1.667073 g / cm^3
# Si number density = 16.708759 Si / 1000 Ang^3
#
#
#
# Elastic Constant Matrix: (Units=GPa)
#
#
# Indices 1 2 3 4 5 6 
#
# 1 82.2445 39.7705 39.8056 0.0000 0.0000 0.0000
# 2 39.7705 82.2445 39.8056 0.0000 0.0000 0.0000
# 3 39.8056 39.8056 73.5373 0.0000 0.0000 0.0000
# 4 0.0000 0.0000 0.0000 20.2133 0.0000 0.0000
# 5 0.0000 0.0000 0.0000 0.0000 20.2133 0.0000
# 6 0.0000 0.0000 0.0000 0.0000 0.0000 28.1803
#
#
#
# Elastic Compliance Matrix: (Units=1/GPa)
#
#
# Indices 1 2 3 4 5 6 
#
# 1 0.018107 -0.005436 -0.006859 0.000000 0.000000 0.000000
# 2 -0.005436 0.018107 -0.006859 0.000000 0.000000 0.000000
# 3 -0.006859 -0.006859 0.021024 0.000000 0.000000 0.000000
# 4 0.000000 0.000000 0.000000 0.049472 0.000000 0.000000
# 5 0.000000 0.000000 0.000000 0.000000 0.049472 0.000000
# 6 0.000000 0.000000 0.000000 0.000000 0.000000 0.035486
#
#
# Mechanical properties :
#
#
# Convention : Reuss Voigt Hill
#
# Bulk Modulus (GPa) = 52.82455 52.97666 52.90060
# Shear Modulus (GPa) = 21.16072 21.63102 21.39587
#
# Velocity S-wave (km/s) = 3.56258 3.60195 3.58232
# Velocity P-wave (km/s) = 6.97181 7.00524 6.98855
#
# Compressibility (1/GPa) = 0.01893059
#
# Stress axis : x y z
#
# Youngs Moduli (GPa) = 55.22637 55.22637 47.56530
#
# Poissons Ratio (x) = 0.30024 0.32624
# Poissons Ratio (y) = 0.30024 0.32624
# Poissons Ratio (z) = 0.37878 0.37878
#
# Static dielectric constant tensor:
#      x y z
#    x 3.256660 0.000000 0.000000 
#    y 0.000000 3.256660 0.000000 
#    z 0.000000 0.000000 2.695860 
# 
# 
# High freq. dielectric constant tensor:
#      x y z
#    x 1.638390 0.000000 0.000000 
#    y 0.000000 1.638390 0.000000 
#    z 0.000000 0.000000 1.607920 
# 
# From -- ./inp_files/8064.got.cif
#   From: 2010.03.12/outbox.cif.g09.slc.cpg/sg131_5_cif.got.tgz:8064.got - 2010.04.06 17:36:35.
