data_PCOD8315151
_publ_section_title
;
Structure prediction by ZEFSAII (Michael W. Deem and Ramdas Pophale) SiO2 
 PCOD8315151
Probable space group: P 4/N M M
;
_chemical_formula_sum "Si O2"
_cell_formula_units_Z 64
_cell_length_a 19.363490
_cell_length_b 19.363490
_cell_length_c 10.115116
_cell_angle_alpha 90.000000
_cell_angle_beta 90.000000
_cell_angle_gamma 90.000000
_cell_volume 3792.609589
_symmetry_space_group_name_H-M "P 4/N M M"
_symmetry_group_IT_number 129
_symmetry_cell_setting 'tetragonal'
loop_
_space_group_symop_operation_xyz
x,y,z
1/2-y,x,z
1/2-x,1/2-y,z
y,1/2-x,z
1/2+x,-y,-z
-x,1/2+y,-z
1/2+y,1/2+x,-z
-y,-x,-z
-x,-y,-z
1/2+y,-x,-z
1/2+x,1/2+y,-z
-y,1/2+x,-z
1/2-x,y,z
x,1/2-y,z
1/2-y,1/2-x,z
y,x,z
loop_
_atom_site_type_symbol
_atom_site_label
_atom_site_fract_x
_atom_site_fract_y
_atom_site_fract_z
Si Si1 0.059386 0.671144 0.039238
Si Si2 0.080250 0.828141 0.332324
Si Si3 0.830767 0.942423 0.834533
Si Si4 0.329026 0.543667 0.384715
O O1 0.081210 0.750000 0.008421
O O2 0.039960 0.661916 0.194358
O O3 0.123526 0.623526 0.000000
O O4 0.991338 0.651098 0.958310
O O5 0.110588 0.750000 0.342139
O O6 0.141661 0.882713 0.339501
O O7 0.029593 0.841129 0.458579
O O8 0.750000 0.924057 0.827737
O O9 0.871069 0.871069 0.851623
O O10 0.858834 0.980347 0.701303
O O11 0.250000 0.549190 0.345205
#
# Coordination Sequence:
#
# PCOD8315151 Si02
#       4
#    16  16  16  16
#     4  10  19  32  49  74 106 138 169 201 239 288
#     4   9  17  29  47  71 104 138 166 196 233 286
#     4  10  21  37  55  73  96 126 164 212 258 298
#     4   9  17  31  48  70 100 133 168 205 241 283
#
# _framework density 16.874924
#
# number of rings (size 3 to 8) (size 9 to 14) (size 15 to 20)
#    0.000    2.500    2.500    0.000    0.000    1.500 
#    0.000    8.750    0.000    0.000    0.000    0.000 
#    0.000   10.000    0.000    0.000    0.000    0.000 
#
# Total GULP energy -793118.166200 kJ/mol
# GULP energy per Si atom -12392.471347 kJ/mol
# Density = 1.683652 g / cm^3
# Si number density = 16.874924 Si / 1000 Ang^3
#
#
#
# Elastic Constant Matrix: (Units=GPa)
#
#
# Indices 1 2 3 4 5 6 
#
# 1 76.8299 55.1065 47.5493 0.0000 0.0000 0.0000
# 2 55.1065 76.8299 47.5493 0.0000 0.0000 0.0000
# 3 47.5493 47.5493 147.7656 0.0000 0.0000 0.0000
# 4 0.0000 0.0000 0.0000 15.6725 0.0000 0.0000
# 5 0.0000 0.0000 0.0000 0.0000 15.6725 0.0000
# 6 0.0000 0.0000 0.0000 0.0000 0.0000 30.0579
#
#
#
# Elastic Compliance Matrix: (Units=1/GPa)
#
#
# Indices 1 2 3 4 5 6 
#
# 1 0.027951 -0.018082 -0.003175 0.000000 0.000000 0.000000
# 2 -0.018082 0.027951 -0.003175 0.000000 0.000000 0.000000
# 3 -0.003175 -0.003175 0.008811 0.000000 0.000000 0.000000
# 4 0.000000 0.000000 0.000000 0.063806 0.000000 0.000000
# 5 0.000000 0.000000 0.000000 0.000000 0.063806 0.000000
# 6 0.000000 0.000000 0.000000 0.000000 0.000000 0.033269
#
#
# Mechanical properties :
#
#
# Convention : Reuss Voigt Hill
#
# Bulk Modulus (GPa) = 63.10852 66.87060 64.98956
# Shear Modulus (GPa) = 17.87357 22.36194 20.11775
#
# Velocity S-wave (km/s) = 3.25803 3.64422 3.45652
# Velocity P-wave (km/s) = 7.18554 7.57762 7.38419
#
# Compressibility (1/GPa) = 0.01584572
#
# Stress axis : x y z
#
# Youngs Moduli (GPa) = 35.77722 35.77722 113.49256
#
# Poissons Ratio (x) = 0.64694 0.36040
# Poissons Ratio (y) = 0.64694 0.36040
# Poissons Ratio (z) = 0.11361 0.11361
#
# Static dielectric constant tensor:
#      x y z
#    x 2.893360 0.000000 0.000000 
#    y 0.000000 2.893360 0.000000 
#    z 0.000000 0.000000 3.719210 
# 
# 
# High freq. dielectric constant tensor:
#      x y z
#    x 1.623110 0.000000 0.000000 
#    y 0.000000 1.623110 0.000000 
#    z 0.000000 0.000000 1.678070 
# 
# From -- ./inp_files/3389.got.cif
#   From: 2010.03.12/outbox.cif.g09.slc.cpg/sg129_2_cif.got.tgz:3389.got - 2010.04.06 17:19:44.
