data_PCOD8315432
_publ_section_title
;
Structure prediction by ZEFSAII (Michael W. Deem and Ramdas Pophale) SiO2 
 PCOD8315432
Probable space group: P 4/N M M
;
_chemical_formula_sum "Si O2"
_cell_formula_units_Z 112
_cell_length_a 18.423218
_cell_length_b 18.423218
_cell_length_c 22.151328
_cell_angle_alpha 90.000000
_cell_angle_beta 90.000000
_cell_angle_gamma 90.000000
_cell_volume 7518.492140
_symmetry_space_group_name_H-M "P 4/N M M"
_symmetry_group_IT_number 129
_symmetry_cell_setting 'tetragonal'
loop_
_space_group_symop_operation_xyz
x,y,z
1/2-y,x,z
1/2-x,1/2-y,z
y,1/2-x,z
1/2+x,-y,-z
-x,1/2+y,-z
1/2+y,1/2+x,-z
-y,-x,-z
-x,-y,-z
1/2+y,-x,-z
1/2+x,1/2+y,-z
-y,1/2+x,-z
1/2-x,y,z
x,1/2-y,z
1/2-y,1/2-x,z
y,x,z
loop_
_atom_site_type_symbol
_atom_site_label
_atom_site_fract_x
_atom_site_fract_y
_atom_site_fract_z
Si Si1 0.050773 0.333680 0.624699
Si Si2 0.951340 0.666918 0.009610
Si Si3 0.167079 0.901105 0.056701
Si Si4 0.095669 0.833525 0.444784
Si Si5 0.171057 0.664033 0.322822
Si Si6 0.664203 0.032232 0.259403
Si Si7 0.665075 0.041569 0.125280
O O1 0.074869 0.250000 0.627283
O O2 0.119496 0.380505 0.603760
O O3 0.987062 0.344841 0.576169
O O4 0.026232 0.362079 0.691310
O O5 0.924651 0.750000 0.006853
O O6 0.884055 0.615946 0.992782
O O7 0.015560 0.652947 0.961984
O O8 0.979418 0.647540 0.076742
O O9 0.250000 0.889506 0.077081
O O10 0.114550 0.880385 0.111822
O O11 0.150968 0.849033 0.000000
O O12 0.113199 0.886802 0.500000
O O13 0.108947 0.750000 0.463822
O O14 0.148807 0.856257 0.390706
O O15 0.250000 0.629741 0.308508
O O16 0.174223 0.750000 0.316504
O O17 0.111889 0.632091 0.275921
O O18 0.750000 0.036790 0.266157
O O19 0.641408 0.011704 0.191132
O O20 0.750000 0.062195 0.123133
#
# Coordination Sequence:
#
# PCOD8315432 Si02
#       7
#    16  16  16  16  16  16  16
#     4   9  18  31  44  58  78 104 136 175 210 238
#     4   9  18  31  44  58  75  94 122 162 203 242
#     4   9  17  27  39  58  83 108 133 159 187 225
#     4   9  16  25  39  60  84 108 133 161 195 236
#     4   8  13  21  34  53  77 104 132 159 183 212
#     4   8  15  27  39  54  78 104 130 160 193 227
#     4   9  17  27  40  59  81 106 133 159 190 229
#
# _framework density 14.896604
#
# number of rings (size 3 to 8) (size 9 to 14) (size 15 to 20)
#    0.000    3.286    0.000    3.429    0.000    6.000 
#    0.000    1.429    0.000    0.000    0.000    4.000 
#    0.000    0.000    0.000    0.000    0.000    0.286 
#
# Total GULP energy -1388079.856144 kJ/mol
# GULP energy per Si atom -12393.570144 kJ/mol
# Density = 1.486270 g / cm^3
# Si number density = 14.896604 Si / 1000 Ang^3
#
#
#
# Elastic Constant Matrix: (Units=GPa)
#
#
# Indices 1 2 3 4 5 6 
#
# 1 58.5772 38.8622 15.8449 0.0000 0.0000 0.0000
# 2 38.8622 58.5773 15.8442 0.0000 0.0000 0.0000
# 3 15.8449 15.8442 53.9653 0.0000 0.0000 0.0000
# 4 0.0000 0.0000 0.0000 12.0628 0.0000 0.0000
# 5 0.0000 0.0000 0.0000 0.0000 12.0630 0.0000
# 6 0.0000 0.0000 0.0000 0.0000 0.0000 25.4241
#
#
#
# Elastic Compliance Matrix: (Units=1/GPa)
#
#
# Indices 1 2 3 4 5 6 
#
# 1 0.031035 -0.019688 -0.003332 0.000000 0.000000 0.000000
# 2 -0.019688 0.031034 -0.003331 0.000000 0.000000 0.000000
# 3 -0.003332 -0.003331 0.020487 0.000000 0.000000 0.000000
# 4 0.000000 0.000000 0.000000 0.082899 0.000000 0.000000
# 5 0.000000 0.000000 0.000000 0.000000 0.082898 0.000000
# 6 0.000000 0.000000 0.000000 0.000000 0.000000 0.039333
#
#
# Mechanical properties :
#
#
# Convention : Reuss Voigt Hill
#
# Bulk Modulus (GPa) = 33.49664 34.69138 34.09401
# Shear Modulus (GPa) = 14.27190 16.61454 15.44322
#
# Velocity S-wave (km/s) = 3.09862 3.34327 3.22327
# Velocity P-wave (km/s) = 5.94448 6.18401 6.06543
#
# Compressibility (1/GPa) = 0.02985374
#
# Stress axis : x y z
#
# Youngs Moduli (GPa) = 32.22220 32.22245 48.81231
#
# Poissons Ratio (x) = 0.63440 0.16263
# Poissons Ratio (y) = 0.63440 0.16259
# Poissons Ratio (z) = 0.10735 0.10733
#
# Static dielectric constant tensor:
#      x y z
#    x 2.707480 0.000000 0.000000 
#    y 0.000000 2.707480 0.000000 
#    z 0.000000 0.000000 2.863480 
# 
# 
# High freq. dielectric constant tensor:
#      x y z
#    x 1.548980 0.000000 0.000000 
#    y 0.000000 1.548980 0.000000 
#    z 0.000000 0.000000 1.559790 
# 
# From -- ./inp_files/6721.got.cif
#   From: 2010.03.12/outbox.cif.g09.slc.cpg/sg129_4_cif.got.tgz:6721.got - 2010.04.06 17:19:44.
