data_PCOD8315041
_publ_section_title
;
Structure prediction by ZEFSAII (Michael W. Deem and Ramdas Pophale) SiO2 
 PCOD8315041
Probable space group: P 4/N M M
;
_chemical_formula_sum "Si O2"
_cell_formula_units_Z 128
_cell_length_a 20.276909
_cell_length_b 20.276909
_cell_length_c 18.968411
_cell_angle_alpha 90.000000
_cell_angle_beta 90.000000
_cell_angle_gamma 90.000000
_cell_volume 7798.919820
_symmetry_space_group_name_H-M "P 4/N M M"
_symmetry_group_IT_number 129
_symmetry_cell_setting 'tetragonal'
loop_
_space_group_symop_operation_xyz
x,y,z
1/2-y,x,z
1/2-x,1/2-y,z
y,1/2-x,z
1/2+x,-y,-z
-x,1/2+y,-z
1/2+y,1/2+x,-z
-y,-x,-z
-x,-y,-z
1/2+y,-x,-z
1/2+x,1/2+y,-z
-y,1/2+x,-z
1/2-x,y,z
x,1/2-y,z
1/2-y,1/2-x,z
y,x,z
loop_
_atom_site_type_symbol
_atom_site_label
_atom_site_fract_x
_atom_site_fract_y
_atom_site_fract_z
Si Si1 0.563049 0.672360 0.645574
Si Si2 0.923930 0.821721 0.274933
Si Si3 0.617247 0.509213 0.789957
Si Si4 0.969801 0.419671 0.706454
Si Si5 0.325361 0.565193 0.928245
Si Si6 0.030890 0.920221 0.570212
Si Si7 0.575960 0.677696 0.112353
Si Si8 0.073882 0.824663 0.908177
O O1 0.576574 0.750000 0.633723
O O2 0.631583 0.631583 0.638211
O O3 0.533392 0.661103 0.723843
O O4 0.510712 0.647007 0.585731
O O5 0.919766 0.750000 0.311619
O O6 0.870687 0.870687 0.311743
O O7 0.905759 0.815494 0.193586
O O8 0.998879 0.847965 0.281231
O O9 0.566980 0.566980 0.812454
O O10 0.578536 0.442350 0.768871
O O11 0.660754 0.488863 0.857585
O O12 0.929825 0.417630 0.633556
O O13 0.028221 0.471780 0.701704
O O14 0.250000 0.579557 0.908055
O O15 0.351310 0.497642 0.893495
O O16 0.365519 0.625861 0.895273
O O17 0.334036 0.552690 0.011290
O O18 0.076437 0.923564 0.500000
O O19 0.979243 0.979243 0.568925
O O20 0.580694 0.750000 0.075643
O O21 0.627723 0.627723 0.075622
O O22 0.098160 0.750000 0.893986
#
# Coordination Sequence:
#
# PCOD8315041 Si02
#       8
#    16  16  16  16  16  16  16  16
#     4   9  17  29  46  69  97 126 153 182 217 260
#     4   9  16  25  38  56  79 108 138 168 205 249
#     4   9  17  29  45  65  88 113 144 185 230 270
#     4   8  14  25  41  60  81 106 137 174 215 253
#     4   9  19  32  43  60  85 112 144 183 231 285
#     4   8  14  26  44  64  86 112 143 180 215 243
#     4   9  17  29  44  61  83 110 140 176 215 257
#     4  10  19  30  45  63  84 112 147 187 230 279
#
# _framework density 16.412527999999998
#
# number of rings (size 3 to 8) (size 9 to 14) (size 15 to 20)
#    0.000    3.125    0.000    2.625    0.000    2.625 
#    0.000    4.375    0.000    0.000    0.000    0.000 
#    0.000   17.750    0.000    0.000    0.000    0.000 
#
# Total GULP energy -1585797.214089 kJ/mol
# GULP energy per Si atom -12389.040735 kJ/mol
# Density = 1.637517 g / cm^3
# Si number density = 16.412528 Si / 1000 Ang^3
#
#
#
# Elastic Constant Matrix: (Units=GPa)
#
#
# Indices 1 2 3 4 5 6 
#
# 1 98.5312 56.2364 23.2865 0.0000 0.0000 0.0000
# 2 56.2364 98.5314 23.2866 0.0000 0.0000 0.0000
# 3 23.2865 23.2866 49.5771 0.0000 0.0000 0.0000
# 4 0.0000 0.0000 0.0000 16.4255 0.0000 0.0000
# 5 0.0000 0.0000 0.0000 0.0000 16.4255 0.0000
# 6 0.0000 0.0000 0.0000 0.0000 0.0000 20.7395
#
#
#
# Elastic Compliance Matrix: (Units=1/GPa)
#
#
# Indices 1 2 3 4 5 6 
#
# 1 0.015584 -0.008059 -0.003534 0.000000 0.000000 0.000000
# 2 -0.008059 0.015584 -0.003534 0.000000 0.000000 0.000000
# 3 -0.003534 -0.003534 0.023491 0.000000 0.000000 0.000000
# 4 0.000000 0.000000 0.000000 0.060881 0.000000 0.000000
# 5 0.000000 0.000000 0.000000 0.000000 0.060881 0.000000
# 6 0.000000 0.000000 0.000000 0.000000 0.000000 0.048217
#
#
# Mechanical properties :
#
#
# Convention : Reuss Voigt Hill
#
# Bulk Modulus (GPa) = 40.97888 50.25097 45.61492
# Shear Modulus (GPa) = 19.00931 20.30679 19.65805
#
# Velocity S-wave (km/s) = 3.40695 3.52131 3.46460
# Velocity P-wave (km/s) = 6.36386 6.87144 6.62251
#
# Compressibility (1/GPa) = 0.02440281
#
# Stress axis : x y z
#
# Youngs Moduli (GPa) = 64.16750 64.16767 42.56968
#
# Poissons Ratio (x) = 0.51715 0.15046
# Poissons Ratio (y) = 0.51714 0.15046
# Poissons Ratio (z) = 0.22680 0.22680
#
# Static dielectric constant tensor:
#      x y z
#    x 3.142410 0.000000 0.000000 
#    y 0.000000 3.142410 0.000000 
#    z 0.000000 0.000000 3.038880 
# 
# 
# High freq. dielectric constant tensor:
#      x y z
#    x 1.619360 0.000000 0.000000 
#    y 0.000000 1.619360 0.000000 
#    z 0.000000 0.000000 1.609070 
# 
# From -- ./inp_files/6141.got.cif
#   From: 2010.03.12/outbox.cif.g09.slc.cpg/sg129_4_cif.got.tgz:6141.got - 2010.04.06 17:19:44.
