data_PCOD8315924
_publ_section_title
;
Structure prediction by ZEFSAII (Michael W. Deem and Ramdas Pophale) SiO2 
 PCOD8315924
Probable space group: P 42/M M C
;
_chemical_formula_sum "Si O2"
_cell_formula_units_Z 112
_cell_length_a 14.537026
_cell_length_b 14.537026
_cell_length_c 26.655824
_cell_angle_alpha 90.000000
_cell_angle_beta 90.000000
_cell_angle_gamma 90.000000
_cell_volume 5633.045337
_symmetry_space_group_name_H-M "P 42/M M C"
_symmetry_group_IT_number 131
_symmetry_cell_setting 'tetragonal'
loop_
_space_group_symop_operation_xyz
x,y,z
-x,-y,z
-y,x,1/2+z
y,-x,1/2+z
-x,y,-z
x,-y,-z
y,x,1/2-z
-y,-x,1/2-z
-x,-y,-z
x,y,-z
y,-x,1/2-z
-y,x,1/2-z
x,-y,z
-x,y,z
-y,-x,1/2+z
y,x,1/2+z
loop_
_atom_site_type_symbol
_atom_site_label
_atom_site_fract_x
_atom_site_fract_y
_atom_site_fract_z
Si Si1 0.731113 0.604791 0.387633
Si Si2 0.098958 0.608455 0.128451
Si Si3 0.893189 0.294458 0.660575
Si Si4 0.150188 0.607571 0.236087
Si Si5 0.647773 0.598845 0.200792
Si Si6 0.607444 0.260508 0.442835
Si Si7 0.107634 0.899577 0.307146
O O1 0.748336 0.500000 0.403476
O O2 0.830343 0.652249 0.379737
O O3 0.675943 0.608345 0.335504
O O4 0.670066 0.650985 0.431158
O O5 0.113115 0.500000 0.130629
O O6 0.099466 0.644559 0.185812
O O7 0.180356 0.646750 0.093475
O O8 0.000000 0.634550 0.104503
O O9 0.884220 0.335816 0.716337
O O10 0.858404 0.187453 0.659808
O O11 0.000000 0.302353 0.644053
O O12 0.130883 0.500000 0.246796
O O13 0.255316 0.628468 0.223922
O O14 0.584977 0.584977 0.250000
O O15 0.653588 0.500000 0.172117
O O16 0.622924 0.229687 0.500000
O O17 0.500000 0.283121 0.433380
O O18 0.127813 0.872188 0.250000
O O19 0.000000 0.909777 0.314696
O O20 0.152392 0.000000 0.321727
#
# Coordination Sequence:
#
# PCOD8315924 Si02
#       7
#    16  16  16  16  16  16  16
#     4  12  25  39  57  81 110 145 191 244 292 347
#     4   9  17  31  54  84 117 153 190 228 276 339
#     4  11  23  36  55  82 115 157 195 232 280 333
#     4  10  19  32  50  76 114 157 196 231 268 325
#     4  11  21  34  51  73 109 152 191 235 282 332
#     4  10  22  41  63  86 112 142 184 242 304 364
#     4   8  16  31  49  72 104 143 188 232 270 315
#
# _framework density 19.882673
#
# number of rings (size 3 to 8) (size 9 to 14) (size 15 to 20)
#    0.000    1.857    2.857    2.143    2.000    4.143 
#    0.000    2.857    0.000    0.429    0.000    1.000 
#    0.000    0.000    0.000    4.857    0.000    0.143 
#
# Total GULP energy -1387786.937996 kJ/mol
# GULP energy per Si atom -12390.954804 kJ/mol
# Density = 1.983742 g / cm^3
# Si number density = 19.882673 Si / 1000 Ang^3
#
#
#
# Elastic Constant Matrix: (Units=GPa)
#
#
# Indices 1 2 3 4 5 6 
#
# 1 104.5664 37.2580 17.1496 0.0000 0.0000 0.0000
# 2 37.2580 104.5667 17.1495 0.0000 0.0000 0.0000
# 3 17.1496 17.1495 61.6630 0.0000 0.0000 0.0000
# 4 0.0000 0.0000 0.0000 -32.2041 0.0000 0.0000
# 5 0.0000 0.0000 0.0000 0.0000 -32.2955 0.0000
# 6 0.0000 0.0000 0.0000 0.0000 0.0000 25.1530
#
#
#
# Elastic Compliance Matrix: (Units=1/GPa)
#
#
# Indices 1 2 3 4 5 6 
#
# 1 0.011208 -0.003649 -0.002102 0.000000 0.000000 0.000000
# 2 -0.003649 0.011208 -0.002102 0.000000 0.000000 0.000000
# 3 -0.002102 -0.002102 0.017387 0.000000 0.000000 0.000000
# 4 0.000000 0.000000 0.000000 -0.031052 0.000000 0.000000
# 5 0.000000 0.000000 0.000000 0.000000 -0.030964 0.000000
# 6 0.000000 0.000000 0.000000 0.000000 0.000000 0.039757
#
#
# Mechanical properties :
#
#
# Convention : Reuss Voigt Hill
#
# Bulk Modulus (GPa) = 41.50095 45.99003 43.74549
# Shear Modulus (GPa) = 121.11577 5.41327 63.26452
#
# Velocity S-wave (km/s) = 7.81329 1.65182 5.64695
# Velocity P-wave (km/s) = 10.11508 5.17870 8.03535
#
# Compressibility (1/GPa) = 0.02409583
#
# Stress axis : x y z
#
# Youngs Moduli (GPa) = 89.22034 89.22065 57.51549
#
# Poissons Ratio (x) = 0.32555 0.12092
# Poissons Ratio (y) = 0.32555 0.12092
# Poissons Ratio (z) = 0.18758 0.18758
#
# Static dielectric constant tensor:
#      x y z
#    x 4.430360 0.000000 0.000000 
#    y 0.000000 4.429770 0.000000 
#    z 0.000000 0.000000 3.279540 
# 
# 
# High freq. dielectric constant tensor:
#      x y z
#    x 1.779520 0.000000 0.000000 
#    y 0.000000 1.779520 0.000000 
#    z 0.000000 0.000000 1.718020 
# 
# From -- ./inp_files/12425.got.cif
#   From: 2010.03.12/outbox.cif.g09.slc.cpg/sg131_7_cif.got.tgz:12425.got - 2010.04.06 17:36:35.
