data_PCOD8315566
_publ_section_title
;
Structure prediction by ZEFSAII (Michael W. Deem and Ramdas Pophale) SiO2 
 PCOD8315566
Probable space group: P 4/N C C
;
_chemical_formula_sum "Si O2"
_cell_formula_units_Z 72
_cell_length_a 12.530378
_cell_length_b 12.530378
_cell_length_c 23.822735
_cell_angle_alpha 90.000000
_cell_angle_beta 90.000000
_cell_angle_gamma 90.000000
_cell_volume 3740.416504
_symmetry_space_group_name_H-M "P 4/N C C"
_symmetry_group_IT_number 130
_symmetry_cell_setting 'tetragonal'
loop_
_space_group_symop_operation_xyz
x,y,z
1/2-y,x,z
1/2-x,1/2-y,z
y,1/2-x,z
1/2+x,-y,1/2-z
-x,1/2+y,1/2-z
1/2+y,1/2+x,1/2-z
-y,-x,1/2-z
-x,-y,-z
1/2+y,-x,-z
1/2+x,1/2+y,-z
-y,1/2+x,-z
1/2-x,y,1/2+z
x,1/2-y,1/2+z
1/2-y,1/2-x,1/2+z
y,x,1/2+z
loop_
_atom_site_type_symbol
_atom_site_label
_atom_site_fract_x
_atom_site_fract_y
_atom_site_fract_z
Si Si1 0.606848 0.649655 0.069114
Si Si2 0.024528 0.973236 0.643698
Si Si3 0.281944 0.629769 0.802783
Si Si4 0.568072 0.431929 0.750000
Si Si5 0.104181 0.345642 0.557351
O O1 0.724867 0.603941 0.079325
O O2 0.528981 0.590652 0.112895
O O3 0.567140 0.625948 0.005804
O O4 0.063965 0.851062 0.652514
O O5 0.110308 0.023019 0.602506
O O6 0.017043 0.044985 0.700207
O O7 0.250000 0.750000 0.824219
O O8 0.359251 0.640750 0.750000
O O9 0.182486 0.558808 0.780750
O O10 0.104624 0.219768 0.567092
#
# Coordination Sequence:
#
# PCOD8315566 Si02
#       5
#    16  16  16   8  16
#     4   9  19  38  57  83 117 146 186 240 290 336
#     4  12  20  34  63  85 107 158 196 226 286 354
#     4   9  21  39  51  76 121 153 179 235 284 331
#     4  10  23  34  55  84 116 142 198 226 287 334
#     4   9  21  37  56  83 116 148 188 242 286 333
#
# _framework density 19.249193999999999
#
# number of rings (size 3 to 8) (size 9 to 14) (size 15 to 20)
#    0.000    2.444    1.111    3.333    6.222    0.000 
#    0.000    0.000    0.000    2.667    0.000    0.000 
#    0.000    0.000    0.000    0.000    0.000    0.000 
#
# Total GULP energy -892181.702833 kJ/mol
# GULP energy per Si atom -12391.412539 kJ/mol
# Density = 1.920538 g / cm^3
# Si number density = 19.249194 Si / 1000 Ang^3
#
#
#
# Elastic Constant Matrix: (Units=GPa)
#
#
# Indices 1 2 3 4 5 6 
#
# 1 57.6422 32.3937 44.2754 0.0000 0.0000 0.0000
# 2 32.3937 57.6421 44.2754 0.0000 0.0000 0.0000
# 3 44.2754 44.2754 109.8194 0.0000 0.0000 0.0000
# 4 0.0000 0.0000 0.0000 32.2013 0.0000 0.0000
# 5 0.0000 0.0000 0.0000 0.0000 32.2015 0.0000
# 6 0.0000 0.0000 0.0000 0.0000 0.0000 30.9504
#
#
#
# Elastic Compliance Matrix: (Units=1/GPa)
#
#
# Indices 1 2 3 4 5 6 
#
# 1 0.029005 -0.010601 -0.007420 0.000000 0.000000 0.000000
# 2 -0.010601 0.029005 -0.007420 0.000000 0.000000 0.000000
# 3 -0.007420 -0.007420 0.015089 0.000000 0.000000 0.000000
# 4 0.000000 0.000000 0.000000 0.031055 0.000000 0.000000
# 5 0.000000 0.000000 0.000000 0.000000 0.031054 0.000000
# 6 0.000000 0.000000 0.000000 0.000000 0.000000 0.032310
#
#
# Mechanical properties :
#
#
# Convention : Reuss Voigt Hill
#
# Bulk Modulus (GPa) = 45.00961 51.88808 48.44885
# Shear Modulus (GPa) = 22.14289 26.01459 24.07874
#
# Velocity S-wave (km/s) = 3.39533 3.68021 3.54064
# Velocity P-wave (km/s) = 6.22931 6.71365 6.47601
#
# Compressibility (1/GPa) = 0.02221748
#
# Stress axis : x y z
#
# Youngs Moduli (GPa) = 34.47647 34.47636 66.27429
#
# Poissons Ratio (x) = 0.36549 0.49175
# Poissons Ratio (y) = 0.36549 0.49175
# Poissons Ratio (z) = 0.25581 0.25581
#
# Static dielectric constant tensor:
#      x y z
#    x 3.368180 0.000000 0.000000 
#    y 0.000000 3.368190 0.000000 
#    z 0.000000 0.000000 3.551600 
# 
# 
# High freq. dielectric constant tensor:
#      x y z
#    x 1.738690 0.000000 0.000000 
#    y 0.000000 1.738690 0.000000 
#    z 0.000000 0.000000 1.753550 
# 
# From -- ./inp_files/4477.got.cif
#   From: 2010.03.12/outbox.cif.g09.slc.cpg/sg130_3_cif.got.tgz:4477.got - 2010.04.06 17:30:23.
