data_PCOD8315856
_publ_section_title
;
Structure prediction by ZEFSAII (Michael W. Deem and Ramdas Pophale) SiO2 
 PCOD8315856
Probable space group: P 42/M M C
;
_chemical_formula_sum "Si O2"
_cell_formula_units_Z 72
_cell_length_a 18.094856
_cell_length_b 18.094856
_cell_length_c 15.319227
_cell_angle_alpha 90.000000
_cell_angle_beta 90.000000
_cell_angle_gamma 90.000000
_cell_volume 5015.879727
_symmetry_space_group_name_H-M "P 42/M M C"
_symmetry_group_IT_number 131
_symmetry_cell_setting 'tetragonal'
loop_
_space_group_symop_operation_xyz
x,y,z
-x,-y,z
-y,x,1/2+z
y,-x,1/2+z
-x,y,-z
x,-y,-z
y,x,1/2-z
-y,-x,1/2-z
-x,-y,-z
x,y,-z
y,-x,1/2-z
-y,x,1/2-z
x,-y,z
-x,y,z
-y,-x,1/2+z
y,x,1/2+z
loop_
_atom_site_type_symbol
_atom_site_label
_atom_site_fract_x
_atom_site_fract_y
_atom_site_fract_z
Si Si1 0.918290 0.412785 0.759712
Si Si2 0.666758 0.649504 0.401817
Si Si3 0.581992 0.581992 0.750000
Si Si4 0.585560 0.800116 0.399964
Si Si5 0.176857 0.585120 0.597375
O O1 0.925572 0.500000 0.763715
O O2 0.866967 0.386045 0.839515
O O3 0.884085 0.388709 0.666846
O O4 0.000000 0.376983 0.768804
O O5 0.640619 0.628642 0.500000
O O6 0.634345 0.593241 0.332338
O O7 0.638784 0.731492 0.378214
O O8 0.754807 0.641600 0.394186
O O9 0.594989 0.500000 0.785572
O O10 0.594007 0.825417 0.500000
O O11 0.500000 0.778801 0.379422
O O12 0.142797 0.591223 0.500000
O O13 0.202070 0.500000 0.615324
#
# Coordination Sequence:
#
# PCOD8315856 Si02
#       5
#    16  16   8  16  16
#     4   9  17  28  41  57  77  99 124 159 200 237
#     4  10  19  31  45  58  76 102 132 168 205 239
#     4  11  22  30  38  54  74 100 134 170 208 245
#     4   9  17  28  42  59  77 100 131 164 198 235
#     4   9  17  28  42  59  77 100 131 164 198 235
#
# _framework density 14.354411000000001
#
# number of rings (size 3 to 8) (size 9 to 14) (size 15 to 20)
#    0.000    2.556    0.000    2.667    0.000    5.333 
#    0.000    5.556    0.000    0.000    0.000    0.000 
#    0.000    0.000    0.000    0.000    0.000    8.889 
#
# Total GULP energy -892521.417094 kJ/mol
# GULP energy per Si atom -12396.130793 kJ/mol
# Density = 1.432174 g / cm^3
# Si number density = 14.354411 Si / 1000 Ang^3
#
#
#
# Elastic Constant Matrix: (Units=GPa)
#
#
# Indices 1 2 3 4 5 6 
#
# 1 58.8422 28.3553 31.7555 0.0000 0.0000 0.0000
# 2 28.3553 58.8422 31.7555 0.0000 0.0000 0.0000
# 3 31.7555 31.7555 84.5866 0.0000 0.0000 0.0000
# 4 0.0000 0.0000 0.0000 17.8993 0.0000 0.0000
# 5 0.0000 0.0000 0.0000 0.0000 17.8993 0.0000
# 6 0.0000 0.0000 0.0000 0.0000 0.0000 7.6419
#
#
#
# Elastic Compliance Matrix: (Units=1/GPa)
#
#
# Indices 1 2 3 4 5 6 
#
# 1 0.024293 -0.008508 -0.005926 0.000000 0.000000 0.000000
# 2 -0.008508 0.024293 -0.005926 0.000000 0.000000 0.000000
# 3 -0.005926 -0.005926 0.016271 0.000000 0.000000 0.000000
# 4 0.000000 0.000000 0.000000 0.055868 0.000000 0.000000
# 5 0.000000 0.000000 0.000000 0.000000 0.055868 0.000000
# 6 0.000000 0.000000 0.000000 0.000000 0.000000 0.130858
#
#
# Mechanical properties :
#
#
# Convention : Reuss Voigt Hill
#
# Bulk Modulus (GPa) = 41.42999 42.88928 42.15963
# Shear Modulus (GPa) = 14.03641 16.04840 15.04241
#
# Velocity S-wave (km/s) = 3.13045 3.34730 3.24069
# Velocity P-wave (km/s) = 6.48006 6.69947 6.59067
#
# Compressibility (1/GPa) = 0.02413710
#
# Stress axis : x y z
#
# Youngs Moduli (GPa) = 41.16483 41.16483 61.45724
#
# Poissons Ratio (x) = 0.35024 0.36418
# Poissons Ratio (y) = 0.35024 0.36418
# Poissons Ratio (z) = 0.24393 0.24393
#
# Static dielectric constant tensor:
#      x y z
#    x 2.668310 0.000000 0.000000 
#    y 0.000000 2.668310 0.000000 
#    z 0.000000 0.000000 3.031890 
# 
# 
# High freq. dielectric constant tensor:
#      x y z
#    x 1.513090 0.000000 0.000000 
#    y 0.000000 1.513090 0.000000 
#    z 0.000000 0.000000 1.572200 
# 
# From -- ./inp_files/7527.got.cif
#   From: 2010.03.12/outbox.cif.g09.slc.cpg/sg131_4_cif.got.tgz:7527.got - 2010.04.06 17:36:35.
