data_PCOD8315507
_publ_section_title
;
Structure prediction by ZEFSAII (Michael W. Deem and Ramdas Pophale) SiO2 
 PCOD8315507
Probable space group: P 4/N C C
;
_chemical_formula_sum "Si O2"
_cell_formula_units_Z 112
_cell_length_a 15.674775
_cell_length_b 15.674775
_cell_length_c 25.220903
_cell_angle_alpha 90.000000
_cell_angle_beta 90.000000
_cell_angle_gamma 90.000000
_cell_volume 6196.739834
_symmetry_space_group_name_H-M "P 4/N C C"
_symmetry_group_IT_number 130
_symmetry_cell_setting 'tetragonal'
loop_
_space_group_symop_operation_xyz
x,y,z
1/2-y,x,z
1/2-x,1/2-y,z
y,1/2-x,z
1/2+x,-y,1/2-z
-x,1/2+y,1/2-z
1/2+y,1/2+x,1/2-z
-y,-x,1/2-z
-x,-y,-z
1/2+y,-x,-z
1/2+x,1/2+y,-z
-y,1/2+x,-z
1/2-x,y,1/2+z
x,1/2-y,1/2+z
1/2-y,1/2-x,1/2+z
y,x,1/2+z
loop_
_atom_site_type_symbol
_atom_site_label
_atom_site_fract_x
_atom_site_fract_y
_atom_site_fract_z
Si Si1 0.105867 0.634554 0.567520
Si Si2 0.824183 0.394669 0.544495
Si Si3 0.460260 0.607628 0.806237
Si Si4 0.842960 0.239179 0.133888
Si Si5 0.049990 0.484344 0.403073
Si Si6 0.829241 0.637941 0.648964
Si Si7 0.177928 0.369004 0.230741
O O1 0.066301 0.730806 0.560812
O O2 0.169099 0.620627 0.517943
O O3 0.165385 0.623575 0.619959
O O4 0.032518 0.563013 0.572920
O O5 0.832851 0.308426 0.577836
O O6 0.908085 0.451638 0.555359
O O7 0.424146 0.575855 0.750000
O O8 0.403091 0.687069 0.826122
O O9 0.466560 0.530372 0.847255
O O10 0.557295 0.639058 0.804833
O O11 0.750000 0.250000 0.161234
O O12 0.124659 0.417897 0.393996
O O13 0.867090 0.730093 0.638467
O O14 0.843704 0.606986 0.708883
O O15 0.135069 0.278400 0.218248
#
# Coordination Sequence:
#
# PCOD8315507 Si02
#       7
#    16  16  16  16  16  16  16
#     4  11  20  37  62  82 111 150 195 236 289 363
#     4  10  20  37  59  80 112 147 184 240 293 348
#     4  11  22  38  56  82 126 153 186 244 291 338
#     4   9  21  37  58  84 110 155 195 228 292 352
#     4  11  22  33  53  90 114 142 189 239 291 341
#     4   9  17  33  54  76 106 146 187 230 275 338
#     4   9  19  36  58  75 101 151 198 227 278 341
#
# _framework density 18.074020000000001
#
# number of rings (size 3 to 8) (size 9 to 14) (size 15 to 20)
#    0.000    2.000    2.857    2.143    2.000    0.286 
#    0.000    0.000    0.000    0.000    0.000    0.000 
#    0.000    0.000    0.000    0.000    0.000    0.000 
#
# Total GULP energy -1387800.227186 kJ/mol
# GULP energy per Si atom -12391.073457 kJ/mol
# Density = 1.803288 g / cm^3
# Si number density = 18.074020 Si / 1000 Ang^3
#
#
#
# Elastic Constant Matrix: (Units=GPa)
#
#
# Indices 1 2 3 4 5 6 
#
# 1 101.5512 17.8102 22.4621 0.0000 0.0000 0.0000
# 2 17.8102 101.5516 22.4621 0.0000 0.0000 0.0000
# 3 22.4621 22.4621 60.7059 0.0000 0.0000 0.0000
# 4 0.0000 0.0000 0.0000 20.3440 0.0000 0.0000
# 5 0.0000 0.0000 0.0000 0.0000 20.3440 0.0000
# 6 0.0000 0.0000 0.0000 0.0000 0.0000 34.8057
#
#
#
# Elastic Compliance Matrix: (Units=1/GPa)
#
#
# Indices 1 2 3 4 5 6 
#
# 1 0.010838 -0.001104 -0.003602 0.000000 0.000000 0.000000
# 2 -0.001104 0.010837 -0.003602 0.000000 0.000000 0.000000
# 3 -0.003602 -0.003602 0.019138 0.000000 0.000000 0.000000
# 4 0.000000 0.000000 0.000000 0.049154 0.000000 0.000000
# 5 0.000000 0.000000 0.000000 0.000000 0.049155 0.000000
# 6 0.000000 0.000000 0.000000 0.000000 0.000000 0.028731
#
#
# Mechanical properties :
#
#
# Convention : Reuss Voigt Hill
#
# Bulk Modulus (GPa) = 41.32424 43.25305 42.28865
# Shear Modulus (GPa) = 25.96951 28.50370 27.23661
#
# Velocity S-wave (km/s) = 3.79468 3.97552 3.88615
# Velocity P-wave (km/s) = 6.48945 6.71238 6.60186
#
# Compressibility (1/GPa) = 0.02419887
#
# Stress axis : x y z
#
# Youngs Moduli (GPa) = 92.27218 92.27259 52.25181
#
# Poissons Ratio (x) = 0.10188 0.18819
# Poissons Ratio (y) = 0.10187 0.18819
# Poissons Ratio (z) = 0.33232 0.33232
#
# Static dielectric constant tensor:
#      x y z
#    x 3.401220 0.000000 0.000000 
#    y 0.000000 3.401220 0.000000 
#    z 0.000000 0.000000 3.089520 
# 
# 
# High freq. dielectric constant tensor:
#      x y z
#    x 1.704950 0.000000 0.000000 
#    y 0.000000 1.704950 0.000000 
#    z 0.000000 0.000000 1.682580 
# 
# From -- ./inp_files/4595.got.cif
#   From: 2010.03.12/outbox.cif.g09.slc.cpg/sg130_3_cif.got.tgz:4595.got - 2010.04.06 17:30:23.
