data_PCOD8315728
_publ_section_title
;
Structure prediction by ZEFSAII (Michael W. Deem and Ramdas Pophale) SiO2 
 PCOD8315728
Probable space group: P 42/M M C
;
_chemical_formula_sum "Si O2"
_cell_formula_units_Z 88
_cell_length_a 13.991464
_cell_length_b 13.991464
_cell_length_c 27.438931
_cell_angle_alpha 90.000000
_cell_angle_beta 90.000000
_cell_angle_gamma 90.000000
_cell_volume 5371.474351
_symmetry_space_group_name_H-M "P 42/M M C"
_symmetry_group_IT_number 131
_symmetry_cell_setting 'tetragonal'
loop_
_space_group_symop_operation_xyz
x,y,z
-x,-y,z
-y,x,1/2+z
y,-x,1/2+z
-x,y,-z
x,-y,-z
y,x,1/2-z
-y,-x,1/2-z
-x,-y,-z
x,y,-z
y,-x,1/2-z
-y,x,1/2-z
x,-y,z
-x,y,z
-y,-x,1/2+z
y,x,1/2+z
loop_
_atom_site_type_symbol
_atom_site_label
_atom_site_fract_x
_atom_site_fract_y
_atom_site_fract_z
Si Si1 0.110595 0.252663 0.944348
Si Si2 0.112924 0.734530 0.587603
Si Si3 0.394802 0.886607 0.000000
Si Si4 0.888270 0.606151 0.674962
Si Si5 0.389717 0.237667 0.732856
Si Si6 0.891189 0.612290 0.857102
O O1 0.164051 0.161109 0.922142
O O2 0.133855 0.342375 0.909603
O O3 0.000000 0.225231 0.943028
O O4 0.142468 0.276175 0.000000
O O5 0.149386 0.660488 0.547259
O O6 0.147308 0.688312 0.638334
O O7 0.000000 0.750579 0.585544
O O8 0.500000 0.840396 0.000000
O O9 0.402539 0.000000 0.000000
O O10 0.862452 0.500000 0.654613
O O11 0.842853 0.623516 0.726946
O O12 0.000000 0.615015 0.682641
O O13 0.329131 0.329131 0.750000
O O14 0.500000 0.270545 0.727929
O O15 0.353449 0.187107 0.682907
O O16 0.883178 0.500000 0.864101
O O17 0.000000 0.640287 0.841157
#
# Coordination Sequence:
#
# PCOD8315728 Si02
#       6
#    16  16   8  16  16  16
#     4  10  20  32  46  66  92 122 157 194 229 271
#     4  10  18  29  44  65  94 125 153 183 222 270
#     4   9  16  26  41  61  86 117 151 185 221 260
#     4   9  17  29  47  70  93 117 148 187 228 269
#     4  10  19  31  48  70  96 123 150 182 224 275
#     4   9  18  33  52  71  91 117 152 196 241 275
#
# _framework density 16.382838
#
# number of rings (size 3 to 8) (size 9 to 14) (size 15 to 20)
#    0.000    2.455    0.909    2.182    0.000    5.273 
#    0.000    2.727    0.000    0.000    0.000    0.000 
#    0.000   13.818    0.000    0.000    0.000    0.000 
#
# Total GULP energy -1090771.886122 kJ/mol
# GULP energy per Si atom -12395.135070 kJ/mol
# Density = 1.634555 g / cm^3
# Si number density = 16.382838 Si / 1000 Ang^3
#
#
#
# Elastic Constant Matrix: (Units=GPa)
#
#
# Indices 1 2 3 4 5 6 
#
# 1 58.9983 39.3029 47.7055 0.0000 0.0000 0.0000
# 2 39.3029 58.9983 47.7055 0.0000 0.0000 0.0000
# 3 47.7055 47.7055 114.0741 0.0000 0.0000 0.0000
# 4 0.0000 0.0000 0.0000 22.4259 0.0000 0.0000
# 5 0.0000 0.0000 0.0000 0.0000 22.4259 0.0000
# 6 0.0000 0.0000 0.0000 0.0000 0.0000 25.7339
#
#
#
# Elastic Compliance Matrix: (Units=1/GPa)
#
#
# Indices 1 2 3 4 5 6 
#
# 1 0.033948 -0.016825 -0.007161 0.000000 0.000000 0.000000
# 2 -0.016825 0.033948 -0.007161 0.000000 0.000000 0.000000
# 3 -0.007161 -0.007161 0.014756 0.000000 0.000000 0.000000
# 4 0.000000 0.000000 0.000000 0.044591 0.000000 0.000000
# 5 0.000000 0.000000 0.000000 0.000000 0.044591 0.000000
# 6 0.000000 0.000000 0.000000 0.000000 0.000000 0.038859
#
#
# Mechanical properties :
#
#
# Convention : Reuss Voigt Hill
#
# Bulk Modulus (GPa) = 49.11979 55.72204 52.42092
# Shear Modulus (GPa) = 17.87163 20.60762 19.23963
#
# Velocity S-wave (km/s) = 3.30642 3.55051 3.43064
# Velocity P-wave (km/s) = 6.68013 7.13403 6.91081
#
# Compressibility (1/GPa) = 0.02035839
#
# Stress axis : x y z
#
# Youngs Moduli (GPa) = 29.45670 29.45670 67.77120
#
# Poissons Ratio (x) = 0.49561 0.48530
# Poissons Ratio (y) = 0.49561 0.48530
# Poissons Ratio (z) = 0.21093 0.21093
#
# Static dielectric constant tensor:
#      x y z
#    x 3.022720 0.000000 0.000000 
#    y 0.000000 3.022720 0.000000 
#    z 0.000000 0.000000 3.315210 
# 
# 
# High freq. dielectric constant tensor:
#      x y z
#    x 1.616430 0.000000 0.000000 
#    y 0.000000 1.616430 0.000000 
#    z 0.000000 0.000000 1.643110 
# 
# From -- ./inp_files/11093.got.cif
#   From: 2010.03.12/outbox.cif.g09.slc.cpg/sg131_6_cif.got.tgz:11093.got - 2010.04.06 17:36:35.
