data_PCOD8315679
_publ_section_title
;
Structure prediction by ZEFSAII (Michael W. Deem and Ramdas Pophale) SiO2 
 PCOD8315679
Probable space group: P 42/M M C
;
_chemical_formula_sum "Si O2"
_cell_formula_units_Z 120
_cell_length_a 22.295788
_cell_length_b 22.295788
_cell_length_c 14.994204
_cell_angle_alpha 90.000000
_cell_angle_beta 90.000000
_cell_angle_gamma 90.000000
_cell_volume 7453.651234
_symmetry_space_group_name_H-M "P 42/M M C"
_symmetry_group_IT_number 131
_symmetry_cell_setting 'tetragonal'
loop_
_space_group_symop_operation_xyz
x,y,z
-x,-y,z
-y,x,1/2+z
y,-x,1/2+z
-x,y,-z
x,-y,-z
y,x,1/2-z
-y,-x,1/2-z
-x,-y,-z
x,y,-z
y,-x,1/2-z
-y,x,1/2-z
x,-y,z
-x,y,z
-y,-x,1/2+z
y,x,1/2+z
loop_
_atom_site_type_symbol
_atom_site_label
_atom_site_fract_x
_atom_site_fract_y
_atom_site_fract_z
Si Si1 0.108758 0.568726 0.397257
Si Si2 0.776271 0.360464 0.400229
Si Si3 0.878557 0.431463 0.102341
Si Si4 0.275062 0.817352 0.748472
Si Si5 0.067238 0.654017 0.752662
Si Si6 0.431629 0.568372 0.750000
Si Si7 0.234145 0.357412 0.101807
Si Si8 0.630894 0.360045 0.898655
O O1 0.089423 0.578204 0.500000
O O2 0.097961 0.500000 0.368091
O O3 0.178818 0.584154 0.382267
O O4 0.070352 0.613643 0.336455
O O5 0.785470 0.334768 0.500000
O O6 0.787370 0.306384 0.333209
O O7 0.709713 0.385227 0.387725
O O8 0.887824 0.500000 0.132859
O O9 0.918168 0.387958 0.163025
O O10 0.808148 0.415603 0.113332
O O11 0.898984 0.422445 0.000000
O O12 0.204715 0.795286 0.750000
O O13 0.287359 0.889108 0.751925
O O14 0.302887 0.792044 0.657983
O O15 0.000000 0.679088 0.762390
O O16 0.500000 0.581261 0.727044
O O17 0.414567 0.604768 0.837475
O O18 0.301047 0.373746 0.133534
O O19 0.236410 0.334665 0.000000
O O20 0.621702 0.381597 0.000000
#
# Coordination Sequence:
#
# PCOD8315679 Si02
#       8
#    16  16  16  16  16   8  16  16
#     4   9  18  31  46  66  93 125 157 187 221 263
#     4   9  17  29  48  73  95 110 137 186 234 276
#     4   9  18  31  46  66  93 125 157 187 221 263
#     4  10  17  29  50  69  93 121 148 176 224 272
#     4  10  21  33  45  66  94 123 157 193 221 254
#     4  11  26  42  48  56  80 112 146 182 226 290
#     4   9  17  29  48  73  95 110 137 186 234 276
#     4  10  19  33  55  74  86 106 138 184 240 290
#
# _framework density 16.099492000000001
#
# number of rings (size 3 to 8) (size 9 to 14) (size 15 to 20)
#    0.000    2.467    1.333    1.200    0.000    3.200 
#    0.000    4.667    0.000    0.000    0.000    0.000 
#    0.000    0.267    0.000    0.000    0.000    0.000 
#
# Total GULP energy -1487474.350197 kJ/mol
# GULP energy per Si atom -12395.619585 kJ/mol
# Density = 1.606285 g / cm^3
# Si number density = 16.099492 Si / 1000 Ang^3
#
#
#
# Elastic Constant Matrix: (Units=GPa)
#
#
# Indices 1 2 3 4 5 6 
#
# 1 61.6156 49.6098 18.4495 0.0000 0.0000 0.0000
# 2 49.6098 61.6272 18.4549 0.0000 0.0000 0.0000
# 3 18.4495 18.4549 59.3133 0.0000 0.0000 0.0000
# 4 0.0000 0.0000 0.0000 17.0790 0.0000 0.0000
# 5 0.0000 0.0000 0.0000 0.0000 17.0786 0.0000
# 6 0.0000 0.0000 0.0000 0.0000 0.0000 15.3378
#
#
#
# Elastic Compliance Matrix: (Units=1/GPa)
#
#
# Indices 1 2 3 4 5 6 
#
# 1 0.046642 -0.036614 -0.003116 0.000000 0.000000 0.000000
# 2 -0.036614 0.046636 -0.003122 0.000000 0.000000 0.000000
# 3 -0.003116 -0.003122 0.018800 0.000000 0.000000 0.000000
# 4 0.000000 0.000000 0.000000 0.058551 0.000000 0.000000
# 5 0.000000 0.000000 0.000000 0.000000 0.058553 0.000000
# 6 0.000000 0.000000 0.000000 0.000000 0.000000 0.065198
#
#
# Mechanical properties :
#
#
# Convention : Reuss Voigt Hill
#
# Bulk Modulus (GPa) = 37.91452 39.50941 38.71197
# Shear Modulus (GPa) = 12.85759 16.30187 14.57973
#
# Velocity S-wave (km/s) = 2.82908 3.18554 3.01259
# Velocity P-wave (km/s) = 5.85430 6.17449 6.01652
#
# Compressibility (1/GPa) = 0.02637512
#
# Stress axis : x y z
#
# Youngs Moduli (GPa) = 21.43971 21.44284 53.19115
#
# Poissons Ratio (x) = 0.78511 0.16574
# Poissons Ratio (y) = 0.78499 0.16604
# Poissons Ratio (z) = 0.06681 0.06693
#
# Static dielectric constant tensor:
#      x y z
#    x 2.914900 0.000000 0.000000 
#    y 0.000000 2.914910 0.000000 
#    z 0.000000 0.000000 3.279660 
# 
# 
# High freq. dielectric constant tensor:
#      x y z
#    x 1.589520 0.000000 0.000000 
#    y 0.000000 1.589520 0.000000 
#    z 0.000000 0.000000 1.640950 
# 
# From -- ./inp_files/6436.got.cif
#   From: 2010.03.12/outbox.cif.g09.slc.cpg/sg131_4_cif.got.tgz:6436.got - 2010.04.06 17:36:35.
