data_PCOD8315541
_publ_section_title
;
Structure prediction by ZEFSAII (Michael W. Deem and Ramdas Pophale) SiO2 
 PCOD8315541
Probable space group: P 4/N C C
;
_chemical_formula_sum "Si O2"
_cell_formula_units_Z 64
_cell_length_a 18.465085
_cell_length_b 18.465085
_cell_length_c 9.512736
_cell_angle_alpha 90.000000
_cell_angle_beta 90.000000
_cell_angle_gamma 90.000000
_cell_volume 3243.456417
_symmetry_space_group_name_H-M "P 4/N C C"
_symmetry_group_IT_number 130
_symmetry_cell_setting 'tetragonal'
loop_
_space_group_symop_operation_xyz
x,y,z
1/2-y,x,z
1/2-x,1/2-y,z
y,1/2-x,z
1/2+x,-y,1/2-z
-x,1/2+y,1/2-z
1/2+y,1/2+x,1/2-z
-y,-x,1/2-z
-x,-y,-z
1/2+y,-x,-z
1/2+x,1/2+y,-z
-y,1/2+x,-z
1/2-x,y,1/2+z
x,1/2-y,1/2+z
1/2-y,1/2-x,1/2+z
y,x,1/2+z
loop_
_atom_site_type_symbol
_atom_site_label
_atom_site_fract_x
_atom_site_fract_y
_atom_site_fract_z
Si Si1 0.688120 0.323260 0.589148
Si Si2 0.329033 0.159014 0.271012
Si Si3 0.561774 0.066765 0.407248
Si Si4 0.905962 0.586525 0.477998
O O1 0.702988 0.297013 0.750000
O O2 0.761388 0.347116 0.509306
O O3 0.637833 0.391593 0.593990
O O4 0.350956 0.243020 0.251583
O O5 0.375699 0.107921 0.170577
O O6 0.350596 0.129635 0.423390
O O7 0.541225 0.041225 0.250000
O O8 0.490725 0.092851 0.488693
O O9 0.607054 0.000504 0.477057
#
# Coordination Sequence:
#
# PCOD8315541 Si02
#       4
#    16  16  16  16
#     4  10  21  40  60  89 124 156 200 252 304 365
#     4  11  24  41  64  94 130 167 208 257 306 368
#     4  10  22  42  64  90 123 161 207 257 305 366
#     4  11  22  43  64  90 126 163 204 255 308 360
#
# _framework density 19.732036000000001
#
# number of rings (size 3 to 8) (size 9 to 14) (size 15 to 20)
#    0.000    1.500    2.500    3.000    0.000    6.000 
#    9.000    0.000    0.000    0.000    0.000    0.000 
#    0.000    0.000    0.000    0.000    0.000    0.000 
#
# Total GULP energy -793089.149632 kJ/mol
# GULP energy per Si atom -12392.017963 kJ/mol
# Density = 1.968712 g / cm^3
# Si number density = 19.732036 Si / 1000 Ang^3
#
#
#
# Elastic Constant Matrix: (Units=GPa)
#
#
# Indices 1 2 3 4 5 6 
#
# 1 304.1353 -195.0445 18.4486 0.0000 0.0000 0.0000
# 2 -195.0445 304.1343 18.4449 0.0000 0.0000 0.0000
# 3 18.4486 18.4449 85.7601 0.0000 0.0000 0.0000
# 4 0.0000 0.0000 0.0000 31.1462 0.0000 0.0000
# 5 0.0000 0.0000 0.0000 0.0000 31.1463 0.0000
# 6 0.0000 0.0000 0.0000 0.0000 0.0000 33.6603
#
#
#
# Elastic Compliance Matrix: (Units=1/GPa)
#
#
# Indices 1 2 3 4 5 6 
#
# 1 0.005945 0.003941 -0.002126 0.000000 0.000000 0.000000
# 2 0.003941 0.005945 -0.002126 0.000000 0.000000 0.000000
# 3 -0.002126 -0.002126 0.012575 0.000000 0.000000 0.000000
# 4 0.000000 0.000000 0.000000 0.032107 0.000000 0.000000
# 5 0.000000 0.000000 0.000000 0.000000 0.032107 0.000000
# 6 0.000000 0.000000 0.000000 0.000000 0.000000 0.029709
#
#
# Mechanical properties :
#
#
# Convention : Reuss Voigt Hill
#
# Bulk Modulus (GPa) = 41.94412 41.96975 41.95694
# Shear Modulus (GPa) = 39.38360 76.00259 57.69309
#
# Velocity S-wave (km/s) = 4.47242 6.21297 5.41311
# Velocity P-wave (km/s) = 6.92626 8.53135 7.77036
#
# Compressibility (1/GPa) = 0.02384124
#
# Stress axis : x y z
#
# Youngs Moduli (GPa) = 168.22057 168.22092 79.52157
#
# Poissons Ratio (x) = -0.66301 0.16910
# Poissons Ratio (y) = -0.66300 0.16909
# Poissons Ratio (z) = 0.35771 0.35770
#
# Static dielectric constant tensor:
#      x y z
#    x 3.518420 0.000000 0.000000 
#    y 0.000000 3.518420 0.000000 
#    z 0.000000 0.000000 4.112160 
# 
# 
# High freq. dielectric constant tensor:
#      x y z
#    x 1.771430 0.000000 0.000000 
#    y 0.000000 1.771430 0.000000 
#    z 0.000000 0.000000 1.784830 
# 
# From -- ./inp_files/754.got.cif
#   From: 2010.03.12/outbox.cif.g09.slc.cpg/sg130_1_cif.got.tgz:754.got - 2010.04.06 17:30:23.
