data_PCOD8315764
_publ_section_title
;
Structure prediction by ZEFSAII (Michael W. Deem and Ramdas Pophale) SiO2 
 PCOD8315764
Probable space group: P 42/M M C
;
_chemical_formula_sum "Si O2"
_cell_formula_units_Z 80
_cell_length_a 25.256427
_cell_length_b 25.256427
_cell_length_c 8.899545
_cell_angle_alpha 90.000000
_cell_angle_beta 90.000000
_cell_angle_gamma 90.000000
_cell_volume 5676.904994
_symmetry_space_group_name_H-M "P 42/M M C"
_symmetry_group_IT_number 131
_symmetry_cell_setting 'tetragonal'
loop_
_space_group_symop_operation_xyz
x,y,z
-x,-y,z
-y,x,1/2+z
y,-x,1/2+z
-x,y,-z
x,-y,-z
y,x,1/2-z
-y,-x,1/2-z
-x,-y,-z
x,y,-z
y,-x,1/2-z
-y,x,1/2-z
x,-y,z
-x,y,z
-y,-x,1/2+z
y,x,1/2+z
loop_
_atom_site_type_symbol
_atom_site_label
_atom_site_fract_x
_atom_site_fract_y
_atom_site_fract_z
Si Si1 0.142324 0.365861 0.667950
Si Si2 0.700627 0.223409 0.321559
Si Si3 0.061627 0.559437 0.173956
Si Si4 0.424753 0.500000 0.171670
Si Si5 0.600715 0.746386 0.831131
Si Si6 0.699279 0.500000 0.828215
O O1 0.127164 0.346935 0.500000
O O2 0.163926 0.314358 0.761762
O O3 0.092187 0.394300 0.740368
O O4 0.190103 0.408747 0.662083
O O5 0.756026 0.243974 0.250000
O O6 0.705026 0.223129 0.500000
O O7 0.654466 0.263888 0.264472
O O8 0.075924 0.500000 0.231995
O O9 0.000000 0.570280 0.200123
O O10 0.076657 0.563492 0.000000
O O11 0.447563 0.447563 0.250000
O O12 0.362818 0.500000 0.188831
O O13 0.442902 0.500000 0.000000
O O14 0.551771 0.720148 0.751285
O O15 0.607421 0.723383 0.000000
O O16 0.718276 0.500000 0.000000
#
# Coordination Sequence:
#
# PCOD8315764 Si02
#       6
#    16  16  16   8  16   8
#     4   9  19  31  44  64  87 111 139 169 206 246
#     4  10  18  31  48  65  86 110 135 165 204 250
#     4   9  18  31  46  64  86 115 149 182 218 258
#     4  10  22  39  56  70  80  97 121 147 186 233
#     4   9  20  33  45  64  87 109 132 162 199 243
#     4  11  22  34  49  68  83 101 126 153 192 240
#
# _framework density 14.092186
#
# number of rings (size 3 to 8) (size 9 to 14) (size 15 to 20)
#    1.200    1.300    0.000    3.900    1.400    3.200 
#    0.000    3.000    0.000    0.000    0.000    0.000 
#    0.000    0.000    0.000    0.000    0.000    0.000 
#
# Total GULP energy -991094.080158 kJ/mol
# GULP energy per Si atom -12388.676002 kJ/mol
# Density = 1.406011 g / cm^3
# Si number density = 14.092186 Si / 1000 Ang^3
#
#
#
# Elastic Constant Matrix: (Units=GPa)
#
#
# Indices 1 2 3 4 5 6 
#
# 1 44.5501 20.0495 31.4242 0.0000 0.0000 0.0000
# 2 20.0495 44.5514 31.4243 0.0000 0.0000 0.0000
# 3 31.4242 31.4243 117.4831 0.0000 0.0000 0.0000
# 4 0.0000 0.0000 0.0000 21.7268 0.0000 0.0000
# 5 0.0000 0.0000 0.0000 0.0000 21.7266 0.0000
# 6 0.0000 0.0000 0.0000 0.0000 0.0000 25.2537
#
#
#
# Elastic Compliance Matrix: (Units=1/GPa)
#
#
# Indices 1 2 3 4 5 6 
#
# 1 0.030870 -0.009945 -0.005597 0.000000 0.000000 0.000000
# 2 -0.009945 0.030869 -0.005597 0.000000 0.000000 0.000000
# 3 -0.005597 -0.005597 0.011506 0.000000 0.000000 0.000000
# 4 0.000000 0.000000 0.000000 0.046026 0.000000 0.000000
# 5 0.000000 0.000000 0.000000 0.000000 0.046026 0.000000
# 6 0.000000 0.000000 0.000000 0.000000 0.000000 0.039598
#
#
# Mechanical properties :
#
#
# Convention : Reuss Voigt Hill
#
# Bulk Modulus (GPa) = 32.29128 41.37561 36.83344
# Shear Modulus (GPa) = 19.41779 21.98721 20.70250
#
# Velocity S-wave (km/s) = 3.71605 3.95427 3.83701
# Velocity P-wave (km/s) = 6.43243 7.09033 6.76938
#
# Compressibility (1/GPa) = 0.03096811
#
# Stress axis : x y z
#
# Youngs Moduli (GPa) = 32.39377 32.39483 86.91096
#
# Poissons Ratio (x) = 0.32215 0.48645
# Poissons Ratio (y) = 0.32214 0.48643
# Poissons Ratio (z) = 0.18131 0.18131
#
# Static dielectric constant tensor:
#      x y z
#    x 2.570080 0.000000 0.000000 
#    y 0.000000 2.570100 0.000000 
#    z 0.000000 0.000000 2.909590 
# 
# 
# High freq. dielectric constant tensor:
#      x y z
#    x 1.506360 0.000000 0.000000 
#    y 0.000000 1.506360 0.000000 
#    z 0.000000 0.000000 1.558050 
# 
# From -- ./inp_files/2080.got.cif
#   From: 2010.03.12/outbox.cif.g09.slc.cpg/sg131_2_cif.got.tgz:2080.got - 2010.04.06 17:36:35.
