data_PCOD8315667
_publ_section_title
;
Structure prediction by ZEFSAII (Michael W. Deem and Ramdas Pophale) SiO2 
 PCOD8315667
Probable space group: P 42/M M C
;
_chemical_formula_sum "Si O2"
_cell_formula_units_Z 80
_cell_length_a 16.904383
_cell_length_b 16.904383
_cell_length_c 19.333788
_cell_angle_alpha 90.000000
_cell_angle_beta 90.000000
_cell_angle_gamma 90.000000
_cell_volume 5524.787774
_symmetry_space_group_name_H-M "P 42/M M C"
_symmetry_group_IT_number 131
_symmetry_cell_setting 'tetragonal'
loop_
_space_group_symop_operation_xyz
x,y,z
-x,-y,z
-y,x,1/2+z
y,-x,1/2+z
-x,y,-z
x,-y,-z
y,x,1/2-z
-y,-x,1/2-z
-x,-y,-z
x,y,-z
y,-x,1/2-z
-y,x,1/2-z
x,-y,z
-x,y,z
-y,-x,1/2+z
y,x,1/2+z
loop_
_atom_site_type_symbol
_atom_site_label
_atom_site_fract_x
_atom_site_fract_y
_atom_site_fract_z
Si Si1 0.091116 0.300170 0.578590
Si Si2 0.906243 0.500000 0.923205
Si Si3 0.655572 0.906242 0.343876
Si Si4 0.912299 0.000000 0.581992
Si Si5 0.854755 0.192033 0.919432
Si Si6 0.587789 0.906815 0.800049
O O1 0.100799 0.330054 0.500000
O O2 0.147660 0.226900 0.593705
O O3 0.118548 0.371004 0.628424
O O4 0.000000 0.275079 0.592883
O O5 0.876999 0.422090 0.884115
O O6 0.000000 0.500000 0.925360
O O7 0.870000 0.500000 0.000000
O O8 0.728754 0.857290 0.374232
O O9 0.642926 0.881015 0.264157
O O10 0.670506 0.000000 0.353315
O O11 0.866135 0.922926 0.607747
O O12 0.919344 0.000000 0.500000
O O13 0.000000 0.000000 0.614985
O O14 0.867140 0.213812 0.000000
O O15 0.500000 0.867985 0.796464
O O16 0.577044 0.000000 0.796087
#
# Coordination Sequence:
#
# PCOD8315667 Si02
#       6
#    16   8  16   8  16  16
#     4   9  18  31  45  62  83 110 147 191 228 256
#     4   9  16  24  38  58  83 111 140 178 217 256
#     4  10  17  27  41  61  85 113 145 180 220 269
#     4   9  16  26  40  57  81 117 158 194 221 245
#     4  10  18  27  41  62  87 116 152 188 218 253
#     4   9  17  30  46  62  80 105 139 181 229 275
#
# _framework density 14.480193999999999
#
# number of rings (size 3 to 8) (size 9 to 14) (size 15 to 20)
#    0.000    2.600    2.000    1.200    0.000    4.400 
#    0.000    2.000    0.000    0.000    0.000    0.000 
#    0.000    0.000    0.000    0.900    2.600   10.000 
#
# Total GULP energy -991802.177122 kJ/mol
# GULP energy per Si atom -12397.527214 kJ/mol
# Density = 1.444724 g / cm^3
# Si number density = 14.480194 Si / 1000 Ang^3
#
#
#
# Elastic Constant Matrix: (Units=GPa)
#
#
# Indices 1 2 3 4 5 6 
#
# 1 80.5504 31.7927 45.6313 0.0000 0.0000 0.0000
# 2 31.7927 80.5504 45.6313 0.0000 0.0000 0.0000
# 3 45.6313 45.6313 99.6759 0.0000 0.0000 0.0000
# 4 0.0000 0.0000 0.0000 13.9742 0.0000 0.0000
# 5 0.0000 0.0000 0.0000 0.0000 13.9742 0.0000
# 6 0.0000 0.0000 0.0000 0.0000 0.0000 4.6287
#
#
#
# Elastic Compliance Matrix: (Units=1/GPa)
#
#
# Indices 1 2 3 4 5 6 
#
# 1 0.017341 -0.003169 -0.006488 0.000000 0.000000 0.000000
# 2 -0.003169 0.017341 -0.006488 0.000000 0.000000 0.000000
# 3 -0.006488 -0.006488 0.015973 0.000000 0.000000 0.000000
# 4 0.000000 0.000000 0.000000 0.071561 0.000000 0.000000
# 5 0.000000 0.000000 0.000000 0.000000 0.071561 0.000000
# 6 0.000000 0.000000 0.000000 0.000000 0.000000 0.216045
#
#
# Mechanical properties :
#
#
# Convention : Reuss Voigt Hill
#
# Bulk Modulus (GPa) = 54.45138 56.32081 55.38609
# Shear Modulus (GPa) = 11.15496 15.69682 13.42589
#
# Velocity S-wave (km/s) = 2.77855 3.29602 3.04828
# Velocity P-wave (km/s) = 6.92672 7.31194 7.12194
#
# Compressibility (1/GPa) = 0.01836501
#
# Stress axis : x y z
#
# Youngs Moduli (GPa) = 57.66805 57.66805 62.60699
#
# Poissons Ratio (x) = 0.18275 0.40618
# Poissons Ratio (y) = 0.18275 0.40618
# Poissons Ratio (z) = 0.37414 0.37414
#
# Static dielectric constant tensor:
#      x y z
#    x 2.673580 0.000000 0.000000 
#    y 0.000000 2.673580 0.000000 
#    z 0.000000 0.000000 2.927850 
# 
# 
# High freq. dielectric constant tensor:
#      x y z
#    x 1.525810 0.000000 0.000000 
#    y 0.000000 1.525810 0.000000 
#    z 0.000000 0.000000 1.557480 
# 
# From -- ./inp_files/7856.got.cif
#   From: 2010.03.12/outbox.cif.g09.slc.cpg/sg131_4_cif.got.tgz:7856.got - 2010.04.06 17:36:35.
