data_PCOD8315955
_publ_section_title
;
Structure prediction by ZEFSAII (Michael W. Deem and Ramdas Pophale) SiO2 
 PCOD8315955
Probable space group: P 42/M M C
;
_chemical_formula_sum "Si O2"
_cell_formula_units_Z 112
_cell_length_a 14.555416
_cell_length_b 14.555416
_cell_length_c 27.182413
_cell_angle_alpha 90.000000
_cell_angle_beta 90.000000
_cell_angle_gamma 90.000000
_cell_volume 5758.869686
_symmetry_space_group_name_H-M "P 42/M M C"
_symmetry_group_IT_number 131
_symmetry_cell_setting 'tetragonal'
loop_
_space_group_symop_operation_xyz
x,y,z
-x,-y,z
-y,x,1/2+z
y,-x,1/2+z
-x,y,-z
x,-y,-z
y,x,1/2-z
-y,-x,1/2-z
-x,-y,-z
x,y,-z
y,-x,1/2-z
-y,x,1/2-z
x,-y,z
-x,y,z
-y,-x,1/2+z
y,x,1/2+z
loop_
_atom_site_type_symbol
_atom_site_label
_atom_site_fract_x
_atom_site_fract_y
_atom_site_fract_z
Si Si1 0.108838 0.240321 0.277905
Si Si2 0.176806 0.899051 0.887835
Si Si3 0.640161 0.102142 0.056895
Si Si4 0.599287 0.720821 0.888391
Si Si5 0.259005 0.101513 0.555451
Si Si6 0.745850 0.602250 0.057979
Si Si7 0.256728 0.610814 0.276854
O O1 0.152285 0.152285 0.250000
O O2 0.123603 0.223220 0.335792
O O3 0.162924 0.334088 0.261683
O O4 0.000000 0.249870 0.265043
O O5 0.252700 0.894421 0.930447
O O6 0.103250 0.823919 0.905033
O O7 0.130327 0.000000 0.886074
O O8 0.588341 0.177191 0.089223
O O9 0.600827 0.000000 0.068540
O O10 0.626512 0.126723 0.000000
O O11 0.500000 0.674069 0.887813
O O12 0.659501 0.654807 0.921072
O O13 0.636016 0.727590 0.833416
O O14 0.226646 0.128890 0.500000
O O15 0.341919 0.164508 0.574126
O O16 0.299884 0.000000 0.555469
O O17 0.752220 0.500000 0.080471
O O18 0.735229 0.597444 0.000000
O O19 0.346159 0.653842 0.250000
O O20 0.247477 0.500000 0.266974
#
# Coordination Sequence:
#
# PCOD8315955 Si02
#       7
#    16  16  16  16  16  16  16
#     4  10  21  38  60  86 116 151 193 238 286 345
#     4  10  19  34  56  82 115 153 187 225 278 338
#     4  10  19  32  54  85 121 157 189 222 267 331
#     4  11  22  37  59  85 114 150 189 230 283 346
#     4  10  20  34  54  79 107 144 191 238 285 337
#     4  10  21  37  55  76 107 146 188 237 290 341
#     4  10  22  40  62  87 114 148 192 243 296 350
#
# _framework density 19.448260999999999
#
# number of rings (size 3 to 8) (size 9 to 14) (size 15 to 20)
#    0.000    1.857    2.857    0.857    0.000    4.857 
#    0.000    7.857    0.000    0.000    0.000    4.000 
#    0.000    0.000    0.000    0.000    0.000    0.000 
#
# Total GULP energy -1388124.356525 kJ/mol
# GULP energy per Si atom -12393.967469 kJ/mol
# Density = 1.940400 g / cm^3
# Si number density = 19.448261 Si / 1000 Ang^3
#
#
#
# Elastic Constant Matrix: (Units=GPa)
#
#
# Indices 1 2 3 4 5 6 
#
# 1 116.8351 56.5608 27.6088 0.0000 0.0000 0.0000
# 2 56.5608 116.8371 27.6091 0.0000 0.0000 0.0000
# 3 27.6088 27.6091 58.8202 0.0000 0.0000 0.0000
# 4 0.0000 0.0000 0.0000 17.9568 0.0000 0.0000
# 5 0.0000 0.0000 0.0000 0.0000 17.9560 0.0000
# 6 0.0000 0.0000 0.0000 0.0000 0.0000 -28.1557
#
#
#
# Elastic Compliance Matrix: (Units=1/GPa)
#
#
# Indices 1 2 3 4 5 6 
#
# 1 0.011686 -0.004905 -0.003183 0.000000 0.000000 0.000000
# 2 -0.004905 0.011685 -0.003183 0.000000 0.000000 0.000000
# 3 -0.003183 -0.003183 0.019989 0.000000 0.000000 0.000000
# 4 0.000000 0.000000 0.000000 0.055689 0.000000 0.000000
# 5 0.000000 0.000000 0.000000 0.000000 0.055692 0.000000
# 6 0.000000 0.000000 0.000000 0.000000 0.000000 -0.035517
#
#
# Mechanical properties :
#
#
# Convention : Reuss Voigt Hill
#
# Bulk Modulus (GPa) = 48.03245 57.33888 52.68567
# Shear Modulus (GPa) = 33.62380 13.59901 23.61141
#
# Velocity S-wave (km/s) = 4.16250 2.64718 3.48812
# Velocity P-wave (km/s) = 6.91759 6.23620 6.58571
#
# Compressibility (1/GPa) = 0.02081926
#
# Stress axis : x y z
#
# Youngs Moduli (GPa) = 85.57480 85.57618 50.02817
#
# Poissons Ratio (x) = 0.41975 0.15922
# Poissons Ratio (y) = 0.41974 0.15922
# Poissons Ratio (z) = 0.27236 0.27236
#
# Static dielectric constant tensor:
#      x y z
#    x 3.619790 0.000000 0.000000 
#    y 0.000000 3.619790 0.000000 
#    z 0.000000 0.000000 3.490220 
# 
# 
# High freq. dielectric constant tensor:
#      x y z
#    x 1.755860 0.000000 0.000000 
#    y 0.000000 1.755860 0.000000 
#    z 0.000000 0.000000 1.750340 
# 
# From -- ./inp_files/12501.got.cif
#   From: 2010.03.12/outbox.cif.g09.slc.cpg/sg131_7_cif.got.tgz:12501.got - 2010.04.06 17:36:35.
