data_PCOD8315045
_publ_section_title
;
Structure prediction by ZEFSAII (Michael W. Deem and Ramdas Pophale) SiO2 
 PCOD8315045
Probable space group: P 4/N M M
;
_chemical_formula_sum "Si O2"
_cell_formula_units_Z 96
_cell_length_a 14.356604
_cell_length_b 14.356604
_cell_length_c 30.803064
_cell_angle_alpha 90.000000
_cell_angle_beta 90.000000
_cell_angle_gamma 90.000000
_cell_volume 6348.883543
_symmetry_space_group_name_H-M "P 4/N M M"
_symmetry_group_IT_number 129
_symmetry_cell_setting 'tetragonal'
loop_
_space_group_symop_operation_xyz
x,y,z
1/2-y,x,z
1/2-x,1/2-y,z
y,1/2-x,z
1/2+x,-y,-z
-x,1/2+y,-z
1/2+y,1/2+x,-z
-y,-x,-z
-x,-y,-z
1/2+y,-x,-z
1/2+x,1/2+y,-z
-y,1/2+x,-z
1/2-x,y,z
x,1/2-y,z
1/2-y,1/2-x,z
y,x,z
loop_
_atom_site_type_symbol
_atom_site_label
_atom_site_fract_x
_atom_site_fract_y
_atom_site_fract_z
Si Si1 0.143521 0.856480 0.500000
Si Si2 0.992841 0.356266 0.736591
Si Si3 0.986906 0.141117 0.419035
Si Si4 0.993291 0.357338 0.834491
Si Si5 0.361368 0.854558 0.907035
Si Si6 0.141847 0.858154 0.000000
Si Si7 0.856347 0.357840 0.339737
O O1 0.250000 0.870690 0.515736
O O2 0.074652 0.881111 0.538948
O O3 0.023731 0.250000 0.729760
O O4 0.955518 0.372250 0.785553
O O5 0.910903 0.384914 0.704031
O O6 0.083329 0.416672 0.726270
O O7 0.014261 0.250000 0.416962
O O8 0.081482 0.081482 0.420140
O O9 0.925025 0.110801 0.377967
O O10 0.013741 0.250000 0.844548
O O11 0.917093 0.398995 0.867592
O O12 0.090308 0.409693 0.841386
O O13 0.250000 0.851062 0.907014
O O14 0.400532 0.750000 0.900280
O O15 0.395257 0.899314 0.953786
O O16 0.250000 0.878479 0.004741
O O17 0.750000 0.379985 0.353780
O O18 0.868652 0.250000 0.329140
#
# Coordination Sequence:
#
# PCOD8315045 Si02
#       7
#     8  16  16  16  16   8  16
#     4   9  17  30  48  68  87 107 136 174 210 239
#     4   9  17  28  41  57  78 104 132 162 194 229
#     4  10  19  30  45  64  87 114 140 166 197 235
#     4   9  17  27  38  54  77 104 132 159 187 224
#     4   8  13  22  37  55  74  96 122 155 196 235
#     4   7  10  18  33  52  72  94 119 149 190 236
#     4   9  17  29  45  64  83 103 130 165 204 241
#
# _framework density 15.120768
#
# number of rings (size 3 to 8) (size 9 to 14) (size 15 to 20)
#    0.000    3.167    0.000    2.250    0.000    3.167 
#    0.000    5.417    0.000    0.000    0.000    0.000 
#    0.000   12.333    0.000    3.667    0.000    0.333 
#
# Total GULP energy -1189607.517658 kJ/mol
# GULP energy per Si atom -12391.744976 kJ/mol
# Density = 1.508635 g / cm^3
# Si number density = 15.120768 Si / 1000 Ang^3
#
#
#
# Elastic Constant Matrix: (Units=GPa)
#
#
# Indices 1 2 3 4 5 6 
#
# 1 61.3180 40.8946 56.7013 0.0000 0.0000 0.0000
# 2 40.8946 61.3170 56.7014 0.0000 0.0000 0.0000
# 3 56.7013 56.7014 129.5327 0.0000 0.0000 0.0000
# 4 0.0000 0.0000 0.0000 17.9449 0.0000 0.0000
# 5 0.0000 0.0000 0.0000 0.0000 17.9451 0.0000
# 6 0.0000 0.0000 0.0000 0.0000 0.0000 20.6116
#
#
#
# Elastic Compliance Matrix: (Units=1/GPa)
#
#
# Indices 1 2 3 4 5 6 
#
# 1 0.033993 -0.014971 -0.008326 0.000000 0.000000 0.000000
# 2 -0.014971 0.033994 -0.008327 0.000000 0.000000 0.000000
# 3 -0.008326 -0.008327 0.015010 0.000000 0.000000 0.000000
# 4 0.000000 0.000000 0.000000 0.055726 0.000000 0.000000
# 5 0.000000 0.000000 0.000000 0.000000 0.055726 0.000000
# 6 0.000000 0.000000 0.000000 0.000000 0.000000 0.048516
#
#
# Mechanical properties :
#
#
# Convention : Reuss Voigt Hill
#
# Bulk Modulus (GPa) = 50.64042 62.30693 56.47367
# Shear Modulus (GPa) = 15.98487 17.82500 16.90494
#
# Velocity S-wave (km/s) = 3.25491 3.43715 3.34727
# Velocity P-wave (km/s) = 6.90574 7.55299 7.23660
#
# Compressibility (1/GPa) = 0.01974707
#
# Stress axis : x y z
#
# Youngs Moduli (GPa) = 29.41805 29.41722 66.62339
#
# Poissons Ratio (x) = 0.44042 0.55473
# Poissons Ratio (y) = 0.44043 0.55476
# Poissons Ratio (z) = 0.24494 0.24495
#
# Static dielectric constant tensor:
#      x y z
#    x 2.729140 0.000000 0.000000 
#    y 0.000000 2.729150 0.000000 
#    z 0.000000 0.000000 3.238250 
# 
# 
# High freq. dielectric constant tensor:
#      x y z
#    x 1.554010 0.000000 0.000000 
#    y 0.000000 1.554010 0.000000 
#    z 0.000000 0.000000 1.598190 
# 
# From -- ./inp_files/7533.got.cif
#   From: 2010.03.12/outbox.cif.g09.slc.cpg/sg129_4_cif.got.tgz:7533.got - 2010.04.06 17:19:44.
