data_PCOD8315448
_publ_section_title
;
Structure prediction by ZEFSAII (Michael W. Deem and Ramdas Pophale) SiO2 
 PCOD8315448
Probable space group: P 4/N M M
;
_chemical_formula_sum "Si O2"
_cell_formula_units_Z 80
_cell_length_a 17.410897
_cell_length_b 17.410897
_cell_length_c 16.406295
_cell_angle_alpha 90.000000
_cell_angle_beta 90.000000
_cell_angle_gamma 90.000000
_cell_volume 4973.393345
_symmetry_space_group_name_H-M "P 4/N M M"
_symmetry_group_IT_number 129
_symmetry_cell_setting 'tetragonal'
loop_
_space_group_symop_operation_xyz
x,y,z
1/2-y,x,z
1/2-x,1/2-y,z
y,1/2-x,z
1/2+x,-y,-z
-x,1/2+y,-z
1/2+y,1/2+x,-z
-y,-x,-z
-x,-y,-z
1/2+y,-x,-z
1/2+x,1/2+y,-z
-y,1/2+x,-z
1/2-x,y,z
x,1/2-y,z
1/2-y,1/2-x,z
y,x,z
loop_
_atom_site_type_symbol
_atom_site_label
_atom_site_fract_x
_atom_site_fract_y
_atom_site_fract_z
Si Si1 0.541681 0.835808 0.608732
Si Si2 0.557623 0.070571 0.877852
Si Si3 0.068750 0.559619 0.696808
Si Si4 0.551842 0.163817 0.544269
Si Si5 0.972047 0.841843 0.988885
O O1 0.560087 0.750000 0.635041
O O2 0.616481 0.883520 0.630749
O O3 0.469380 0.863124 0.662128
O O4 0.523810 0.843402 0.512248
O O5 0.576369 0.101814 0.787113
O O6 0.521435 0.140628 0.929475
O O7 0.494871 0.005129 0.874298
O O8 0.633369 0.030054 0.916055
O O9 0.135149 0.532665 0.635145
O O10 0.007038 0.492963 0.699471
O O11 0.618920 0.118920 0.500000
O O12 0.580964 0.250000 0.551287
O O13 0.953588 0.750000 0.983786
O O14 0.892209 0.892209 0.986837
#
# Coordination Sequence:
#
# PCOD8315448 Si02
#       5
#    16  16  16  16  16
#     4   9  17  28  42  62  88 116 145 178 216 256
#     4   8  16  30  46  65  88 117 149 178 215 260
#     4   9  16  28  46  64  83 109 145 184 214 246
#     4   9  17  28  42  61  84 110 141 177 217 256
#     4   9  17  30  48  69  93 118 144 177 217 262
#
# _framework density 16.085595999999999
#
# number of rings (size 3 to 8) (size 9 to 14) (size 15 to 20)
#    0.000    3.200    0.000    1.800    0.000    4.600 
#    0.000    0.000    0.000    4.800    0.000   14.000 
#    0.000    4.800    0.000    0.000    0.000    0.000 
#
# Total GULP energy -991166.263481 kJ/mol
# GULP energy per Si atom -12389.578294 kJ/mol
# Density = 1.604898 g / cm^3
# Si number density = 16.085596 Si / 1000 Ang^3
#
#
#
# Elastic Constant Matrix: (Units=GPa)
#
#
# Indices 1 2 3 4 5 6 
#
# 1 60.0004 8.7238 7.7765 0.0000 0.0000 0.0000
# 2 8.7238 60.0004 7.7765 0.0000 0.0000 0.0000
# 3 7.7765 7.7765 109.8104 0.0000 0.0000 0.0000
# 4 0.0000 0.0000 0.0000 11.9054 0.0000 0.0000
# 5 0.0000 0.0000 0.0000 0.0000 11.9054 0.0000
# 6 0.0000 0.0000 0.0000 0.0000 0.0000 11.5184
#
#
#
# Elastic Compliance Matrix: (Units=1/GPa)
#
#
# Indices 1 2 3 4 5 6 
#
# 1 0.017145 -0.002357 -0.001047 0.000000 0.000000 0.000000
# 2 -0.002357 0.017145 -0.001047 0.000000 0.000000 0.000000
# 3 -0.001047 -0.001047 0.009255 0.000000 0.000000 0.000000
# 4 0.000000 0.000000 0.000000 0.083995 0.000000 0.000000
# 5 0.000000 0.000000 0.000000 0.000000 0.083995 0.000000
# 6 0.000000 0.000000 0.000000 0.000000 0.000000 0.086818
#
#
# Mechanical properties :
#
#
# Convention : Reuss Voigt Hill
#
# Bulk Modulus (GPa) = 28.86687 30.92941 29.89814
# Shear Modulus (GPa) = 15.68362 20.76814 18.22588
#
# Velocity S-wave (km/s) = 3.12590 3.59709 3.36974
# Velocity P-wave (km/s) = 5.56894 6.04333 5.81098
#
# Compressibility (1/GPa) = 0.03464179
#
# Stress axis : x y z
#
# Youngs Moduli (GPa) = 58.32607 58.32607 108.05050
#
# Poissons Ratio (x) = 0.13748 0.11315
# Poissons Ratio (y) = 0.13748 0.11315
# Poissons Ratio (z) = 0.06108 0.06108
#
# Static dielectric constant tensor:
#      x y z
#    x 2.871200 0.000000 0.000000 
#    y 0.000000 2.871200 0.000000 
#    z 0.000000 0.000000 3.664350 
# 
# 
# High freq. dielectric constant tensor:
#      x y z
#    x 1.598490 0.000000 0.000000 
#    y 0.000000 1.598490 0.000000 
#    z 0.000000 0.000000 1.625650 
# 
# From -- ./inp_files/4607.got.cif
#   From: 2010.03.12/outbox.cif.g09.slc.cpg/sg129_3_cif.got.tgz:4607.got - 2010.04.06 17:19:44.
