data_PCOD8315857
_publ_section_title
;
Structure prediction by ZEFSAII (Michael W. Deem and Ramdas Pophale) SiO2 
 PCOD8315857
Probable space group: P 42/M M C
;
_chemical_formula_sum "Si O2"
_cell_formula_units_Z 64
_cell_length_a 15.111046
_cell_length_b 15.111046
_cell_length_c 16.612089
_cell_angle_alpha 90.000000
_cell_angle_beta 90.000000
_cell_angle_gamma 90.000000
_cell_volume 3793.266053
_symmetry_space_group_name_H-M "P 42/M M C"
_symmetry_group_IT_number 131
_symmetry_cell_setting 'tetragonal'
loop_
_space_group_symop_operation_xyz
x,y,z
-x,-y,z
-y,x,1/2+z
y,-x,1/2+z
-x,y,-z
x,-y,-z
y,x,1/2-z
-y,-x,1/2-z
-x,-y,-z
x,y,-z
y,-x,1/2-z
-y,x,1/2-z
x,-y,z
-x,y,z
-y,-x,1/2+z
y,x,1/2+z
loop_
_atom_site_type_symbol
_atom_site_label
_atom_site_fract_x
_atom_site_fract_y
_atom_site_fract_z
Si Si1 0.397406 0.829622 0.821707
Si Si2 0.400856 0.650493 0.905646
Si Si3 0.606147 0.000000 0.090809
Si Si4 0.400026 0.214558 0.648999
Si Si5 0.897443 0.394223 0.000000
O O1 0.500000 0.847142 0.807178
O O2 0.383083 0.752419 0.886085
O O3 0.353105 0.806683 0.734861
O O4 0.354387 0.916118 0.861400
O O5 0.500000 0.621850 0.874302
O O6 0.320789 0.597265 0.864993
O O7 0.396479 0.634412 0.000000
O O8 0.500000 0.000000 0.088690
O O9 0.643083 0.000000 0.000000
O O10 0.500000 0.182188 0.654336
O O11 0.355637 0.156208 0.577591
O O12 0.893594 0.500000 0.000000
O O13 0.000000 0.361638 0.000000
#
# Coordination Sequence:
#
# PCOD8315857 Si02
#       5
#    16  16   8  16   8
#     4   9  18  29  44  63  85 113 148 189 235 284
#     4  10  19  31  45  62  88 122 158 196 237 277
#     4   9  16  28  46  67  87 109 143 186 235 296
#     4  10  19  31  45  64  88 118 160 198 236 283
#     4   9  18  30  45  63  87 116 150 197 242 287
#
# _framework density 16.872004
#
# number of rings (size 3 to 8) (size 9 to 14) (size 15 to 20)
#    0.000    2.500    1.250    1.500    1.750    3.500 
#    0.000    1.250    0.000    4.500    0.000    0.000 
#    0.000    0.000    0.000    2.250    2.250    0.250 
#
# Total GULP energy -792890.043983 kJ/mol
# GULP energy per Si atom -12388.906937 kJ/mol
# Density = 1.683360 g / cm^3
# Si number density = 16.872004 Si / 1000 Ang^3
#
#
#
# Elastic Constant Matrix: (Units=GPa)
#
#
# Indices 1 2 3 4 5 6 
#
# 1 65.5298 -3.7341 26.4042 0.0000 0.0000 0.0000
# 2 -3.7341 65.5298 26.4042 0.0000 0.0000 0.0000
# 3 26.4042 26.4042 111.1645 0.0000 0.0000 0.0000
# 4 0.0000 0.0000 0.0000 21.1408 0.0000 0.0000
# 5 0.0000 0.0000 0.0000 0.0000 21.1408 0.0000
# 6 0.0000 0.0000 0.0000 0.0000 0.0000 1.0618
#
#
#
# Elastic Compliance Matrix: (Units=1/GPa)
#
#
# Indices 1 2 3 4 5 6 
#
# 1 0.017371 0.002933 -0.004823 0.000000 0.000000 0.000000
# 2 0.002933 0.017371 -0.004823 0.000000 0.000000 0.000000
# 3 -0.004823 -0.004823 0.011287 0.000000 0.000000 0.000000
# 4 0.000000 0.000000 0.000000 0.047302 0.000000 0.000000
# 5 0.000000 0.000000 0.000000 0.000000 0.047302 0.000000
# 6 0.000000 0.000000 0.000000 0.000000 0.000000 0.941820
#
#
# Mechanical properties :
#
#
# Convention : Reuss Voigt Hill
#
# Bulk Modulus (GPa) = 30.67164 37.81922 34.24543
# Shear Modulus (GPa) = 4.51776 21.54533 13.03154
#
# Velocity S-wave (km/s) = 1.63813 3.57737 2.78218
# Velocity P-wave (km/s) = 4.66867 6.28709 5.53732
#
# Compressibility (1/GPa) = 0.03260341
#
# Stress axis : x y z
#
# Youngs Moduli (GPa) = 57.56873 57.56873 88.60036
#
# Poissons Ratio (x) = -0.16885 0.42728
# Poissons Ratio (y) = -0.16885 0.42728
# Poissons Ratio (z) = 0.27763 0.27763
#
# Static dielectric constant tensor:
#      x y z
#    x 2.947350 0.000000 0.000000 
#    y 0.000000 2.947350 0.000000 
#    z 0.000000 0.000000 3.601320 
# 
# 
# High freq. dielectric constant tensor:
#      x y z
#    x 1.605070 0.000000 0.000000 
#    y 0.000000 1.605070 0.000000 
#    z 0.000000 0.000000 1.674140 
# 
# From -- ./inp_files/7369.got.cif
#   From: 2010.03.12/outbox.cif.g09.slc.cpg/sg131_4_cif.got.tgz:7369.got - 2010.04.06 17:36:35.
