data_PCOD8315765
_publ_section_title
;
Structure prediction by ZEFSAII (Michael W. Deem and Ramdas Pophale) SiO2 
 PCOD8315765
Probable space group: P 42/M M C
;
_chemical_formula_sum "Si O2"
_cell_formula_units_Z 96
_cell_length_a 16.959482
_cell_length_b 16.959482
_cell_length_c 20.735002
_cell_angle_alpha 90.000000
_cell_angle_beta 90.000000
_cell_angle_gamma 90.000000
_cell_volume 5963.884831
_symmetry_space_group_name_H-M "P 42/M M C"
_symmetry_group_IT_number 131
_symmetry_cell_setting 'tetragonal'
loop_
_space_group_symop_operation_xyz
x,y,z
-x,-y,z
-y,x,1/2+z
y,-x,1/2+z
-x,y,-z
x,-y,-z
y,x,1/2-z
-y,-x,1/2-z
-x,-y,-z
x,y,-z
y,-x,1/2-z
-y,x,1/2-z
x,-y,z
-x,y,z
-y,-x,1/2+z
y,x,1/2+z
loop_
_atom_site_type_symbol
_atom_site_label
_atom_site_fract_x
_atom_site_fract_y
_atom_site_fract_z
Si Si1 0.092311 0.411677 0.371671
Si Si2 0.657215 0.415657 0.192450
Si Si3 0.589349 0.907508 0.277256
Si Si4 0.410920 0.643613 0.929451
Si Si5 0.294509 0.212506 0.072716
Si Si6 0.213586 0.716828 0.188958
O O1 0.115010 0.500000 0.396584
O O2 0.117521 0.404533 0.297210
O O3 0.132531 0.341215 0.411198
O O4 0.000000 0.398513 0.379743
O O5 0.595005 0.404996 0.250000
O O6 0.699919 0.500000 0.201484
O O7 0.611381 0.419437 0.124575
O O8 0.719003 0.346984 0.194575
O O9 0.500000 0.885337 0.302313
O O10 0.663574 0.865865 0.313346
O O11 0.602363 0.000000 0.286893
O O12 0.500000 0.672098 0.920493
O O13 0.359095 0.720580 0.920909
O O14 0.397559 0.604925 0.000000
O O15 0.223298 0.231777 0.123086
O O16 0.259440 0.207092 0.000000
O O17 0.222887 0.777114 0.250000
#
# Coordination Sequence:
#
# PCOD8315765 Si02
#       6
#    16  16  16  16  16  16
#     4   9  17  28  44  69 100 132 162 190 227 281
#     4  10  20  29  39  57  78 103 140 186 227 261
#     4   9  17  30  50  74  97 122 156 199 242 282
#     4   9  18  30  41  53  73 108 149 183 220 263
#     4  10  19  30  44  64  92 123 155 190 228 275
#     4  10  18  31  48  66  87 120 154 187 229 277
#
# _framework density 16.096889999999998
#
# number of rings (size 3 to 8) (size 9 to 14) (size 15 to 20)
#    0.000    2.500    1.667    2.500    0.000    2.833 
#    0.000    1.667    0.000    2.000    0.000    1.167 
#    0.000    2.333    0.000    1.500    0.000    0.000 
#
# Total GULP energy -1189329.380666 kJ/mol
# GULP energy per Si atom -12388.847715 kJ/mol
# Density = 1.606025 g / cm^3
# Si number density = 16.096890 Si / 1000 Ang^3
#
#
#
# Elastic Constant Matrix: (Units=GPa)
#
#
# Indices 1 2 3 4 5 6 
#
# 1 53.5158 18.6236 31.3994 0.0000 0.0000 0.0000
# 2 18.6236 53.5155 31.3987 0.0000 0.0000 0.0000
# 3 31.3994 31.3987 94.7222 0.0000 0.0000 0.0000
# 4 0.0000 0.0000 0.0000 15.1794 0.0000 0.0000
# 5 0.0000 0.0000 0.0000 0.0000 15.1791 0.0000
# 6 0.0000 0.0000 0.0000 0.0000 0.0000 29.4854
#
#
#
# Elastic Compliance Matrix: (Units=1/GPa)
#
#
# Indices 1 2 3 4 5 6 
#
# 1 0.024072 -0.004588 -0.006459 0.000000 0.000000 0.000000
# 2 -0.004588 0.024072 -0.006459 0.000000 0.000000 0.000000
# 3 -0.006459 -0.006459 0.014839 0.000000 0.000000 0.000000
# 4 0.000000 0.000000 0.000000 0.065879 0.000000 0.000000
# 5 0.000000 0.000000 0.000000 0.000000 0.065880 0.000000
# 6 0.000000 0.000000 0.000000 0.000000 0.000000 0.033915
#
#
# Mechanical properties :
#
#
# Convention : Reuss Voigt Hill
#
# Bulk Modulus (GPa) = 35.74878 40.51076 38.12977
# Shear Modulus (GPa) = 18.31552 19.99090 19.15321
#
# Velocity S-wave (km/s) = 3.37683 3.52790 3.45319
# Velocity P-wave (km/s) = 6.12052 6.46655 6.29591
#
# Compressibility (1/GPa) = 0.02797299
#
# Stress axis : x y z
#
# Youngs Moduli (GPa) = 41.54159 41.54173 67.38896
#
# Poissons Ratio (x) = 0.19058 0.43526
# Poissons Ratio (y) = 0.19058 0.43525
# Poissons Ratio (z) = 0.26832 0.26831
#
# Static dielectric constant tensor:
#      x y z
#    x 2.878750 0.000000 0.000000 
#    y 0.000000 2.878750 0.000000 
#    z 0.000000 0.000000 3.414060 
# 
# 
# High freq. dielectric constant tensor:
#      x y z
#    x 1.592480 0.000000 0.000000 
#    y 0.000000 1.592480 0.000000 
#    z 0.000000 0.000000 1.617240 
# 
# From -- ./inp_files/7932.got.cif
#   From: 2010.03.12/outbox.cif.g09.slc.cpg/sg131_4_cif.got.tgz:7932.got - 2010.04.06 17:36:35.
