data_PCOD8315120
_publ_section_title
;
Structure prediction by ZEFSAII (Michael W. Deem and Ramdas Pophale) SiO2 
 PCOD8315120
Probable space group: P 4/N M M
;
_chemical_formula_sum "Si O2"
_cell_formula_units_Z 96
_cell_length_a 16.688613
_cell_length_b 16.688613
_cell_length_c 20.599379
_cell_angle_alpha 90.000000
_cell_angle_beta 90.000000
_cell_angle_gamma 90.000000
_cell_volume 5737.129005
_symmetry_space_group_name_H-M "P 4/N M M"
_symmetry_group_IT_number 129
_symmetry_cell_setting 'tetragonal'
loop_
_space_group_symop_operation_xyz
x,y,z
1/2-y,x,z
1/2-x,1/2-y,z
y,1/2-x,z
1/2+x,-y,-z
-x,1/2+y,-z
1/2+y,1/2+x,-z
-y,-x,-z
-x,-y,-z
1/2+y,-x,-z
1/2+x,1/2+y,-z
-y,1/2+x,-z
1/2-x,y,z
x,1/2-y,z
1/2-y,1/2-x,z
y,x,z
loop_
_atom_site_type_symbol
_atom_site_label
_atom_site_fract_x
_atom_site_fract_y
_atom_site_fract_z
Si Si1 0.088591 0.961111 0.655457
Si Si2 0.023374 0.158628 0.778841
Si Si3 0.959445 0.092606 0.906261
Si Si4 0.468235 0.159484 0.385939
Si Si5 0.477561 0.342574 0.034590
Si Si6 0.463136 0.660204 0.478361
O O1 0.124262 0.996918 0.588658
O O2 0.052565 0.871849 0.644543
O O3 0.151662 0.968555 0.713992
O O4 0.013744 0.013744 0.676876
O O5 0.053656 0.250000 0.784860
O O6 0.102133 0.102133 0.777945
O O7 0.963240 0.137951 0.837706
O O8 0.874576 0.046651 0.915874
O O9 0.024816 0.024816 0.909736
O O10 0.981633 0.154318 0.963514
O O11 0.455589 0.250000 0.362177
O O12 0.392740 0.107261 0.362118
O O13 0.471258 0.153325 0.464498
O O14 0.456513 0.250000 0.051087
O O15 0.396123 0.396123 0.038861
O O16 0.382835 0.617166 0.500000
O O17 0.437256 0.750000 0.464516
#
# Coordination Sequence:
#
# PCOD8315120 Si02
#       6
#    16  16  16  16  16  16
#     4   9  17  29  45  64  86 117 152 179 210 261
#     4  10  19  31  49  71  95 122 150 180 214 256
#     4   8  16  30  46  66  93 128 161 182 212 265
#     4   9  17  29  45  64  85 110 144 187 231 272
#     4   9  16  28  48  71  95 122 153 191 230 267
#     4   9  16  26  41  61  85 112 143 180 219 261
#
# _framework density 16.733108000000001
#
# number of rings (size 3 to 8) (size 9 to 14) (size 15 to 20)
#    0.000    3.000    0.000    2.500    0.000    2.667 
#    0.000    0.833    0.000   14.000    0.000    2.333 
#    0.000    6.667    0.000    0.000    0.000    0.167 
#
# Total GULP energy -1189412.529308 kJ/mol
# GULP energy per Si atom -12389.713847 kJ/mol
# Density = 1.669502 g / cm^3
# Si number density = 16.733108 Si / 1000 Ang^3
#
#
#
# Elastic Constant Matrix: (Units=GPa)
#
#
# Indices 1 2 3 4 5 6 
#
# 1 92.0277 40.3903 30.9024 0.0000 0.0000 0.0000
# 2 40.3903 92.0292 30.9015 0.0000 0.0000 0.0000
# 3 30.9024 30.9015 91.8117 0.0000 0.0000 0.0000
# 4 0.0000 0.0000 0.0000 17.1254 0.0000 0.0000
# 5 0.0000 0.0000 0.0000 0.0000 17.1253 0.0000
# 6 0.0000 0.0000 0.0000 0.0000 0.0000 16.2335
#
#
#
# Elastic Compliance Matrix: (Units=1/GPa)
#
#
# Indices 1 2 3 4 5 6 
#
# 1 0.014163 -0.005203 -0.003016 0.000000 0.000000 0.000000
# 2 -0.005203 0.014162 -0.003015 0.000000 0.000000 0.000000
# 3 -0.003016 -0.003015 0.012922 0.000000 0.000000 0.000000
# 4 0.000000 0.000000 0.000000 0.058393 0.000000 0.000000
# 5 0.000000 0.000000 0.000000 0.000000 0.058393 0.000000
# 6 0.000000 0.000000 0.000000 0.000000 0.000000 0.061601
#
#
# Mechanical properties :
#
#
# Convention : Reuss Voigt Hill
#
# Bulk Modulus (GPa) = 53.25313 53.36190 53.30751
# Shear Modulus (GPa) = 20.13196 21.67512 20.90354
#
# Velocity S-wave (km/s) = 3.47237 3.60299 3.53828
# Velocity P-wave (km/s) = 6.92608 7.01912 6.97275
#
# Compressibility (1/GPa) = 0.01877824
#
# Stress axis : x y z
#
# Youngs Moduli (GPa) = 70.60864 70.61051 77.38885
#
# Poissons Ratio (x) = 0.36740 0.23338
# Poissons Ratio (y) = 0.36739 0.23335
# Poissons Ratio (z) = 0.21293 0.21291
#
# Static dielectric constant tensor:
#      x y z
#    x 3.055670 0.000000 0.000000 
#    y 0.000000 3.055670 0.000000 
#    z 0.000000 0.000000 3.643560 
# 
# 
# High freq. dielectric constant tensor:
#      x y z
#    x 1.628470 0.000000 0.000000 
#    y 0.000000 1.628470 0.000000 
#    z 0.000000 0.000000 1.637850 
# 
# From -- ./inp_files/6575.got.cif
#   From: 2010.03.12/outbox.cif.g09.slc.cpg/sg129_4_cif.got.tgz:6575.got - 2010.04.06 17:19:44.
