data_PCOD8315027
_publ_section_title
;
Structure prediction by ZEFSAII (Michael W. Deem and Ramdas Pophale) SiO2 
 PCOD8315027
Probable space group: P 4/N M M
;
_chemical_formula_sum "Si O2"
_cell_formula_units_Z 96
_cell_length_a 20.788007
_cell_length_b 20.788007
_cell_length_c 14.906086
_cell_angle_alpha 90.000000
_cell_angle_beta 90.000000
_cell_angle_gamma 90.000000
_cell_volume 6441.534414
_symmetry_space_group_name_H-M "P 4/N M M"
_symmetry_group_IT_number 129
_symmetry_cell_setting 'tetragonal'
loop_
_space_group_symop_operation_xyz
x,y,z
1/2-y,x,z
1/2-x,1/2-y,z
y,1/2-x,z
1/2+x,-y,-z
-x,1/2+y,-z
1/2+y,1/2+x,-z
-y,-x,-z
-x,-y,-z
1/2+y,-x,-z
1/2+x,1/2+y,-z
-y,1/2+x,-z
1/2-x,y,z
x,1/2-y,z
1/2-y,1/2-x,z
y,x,z
loop_
_atom_site_type_symbol
_atom_site_label
_atom_site_fract_x
_atom_site_fract_y
_atom_site_fract_z
Si Si1 0.823789 0.930402 0.903646
Si Si2 0.677333 0.071171 0.589705
Si Si3 0.091349 0.512192 0.759577
Si Si4 0.992774 0.399314 0.959610
Si Si5 0.882871 0.515251 0.729612
Si Si6 0.675168 0.425740 0.385349
O O1 0.750000 0.909513 0.911518
O O2 0.866417 0.866417 0.912283
O O3 0.835573 0.966051 0.809819
O O4 0.840069 0.980973 0.982200
O O5 0.750000 0.090621 0.607640
O O6 0.639904 0.134828 0.621849
O O7 0.666159 0.049702 0.486955
O O8 0.658475 0.008512 0.645877
O O9 0.125089 0.513639 0.857095
O O10 0.145328 0.521989 0.683024
O O11 0.055587 0.444414 0.740328
O O12 0.039724 0.569118 0.762917
O O13 0.042202 0.457799 0.963341
O O14 0.924872 0.424872 0.000000
O O15 0.922802 0.577199 0.697194
O O16 0.750000 0.413228 0.361974
#
# Coordination Sequence:
#
# PCOD8315027 Si02
#       6
#    16  16  16  16  16  16
#     4  10  19  29  43  64  88 115 145 174 209 254
#     4   9  17  29  43  59  83 115 146 174 207 251
#     4   9  16  27  45  65  86 109 134 173 220 256
#     4   9  15  27  45  63  83 107 138 176 213 250
#     4   9  16  27  44  65  85 107 138 177 215 252
#     4   9  18  29  41  61  87 112 141 177 212 250
#
# _framework density 14.903281
#
# number of rings (size 3 to 8) (size 9 to 14) (size 15 to 20)
#    0.000    2.833    1.667    0.500    0.000    1.833 
#    0.000    5.000    0.000    0.000    0.000    0.000 
#    0.000    0.667    0.000    3.667    0.000    6.333 
#
# Total GULP energy -1190053.477070 kJ/mol
# GULP energy per Si atom -12396.390386 kJ/mol
# Density = 1.486936 g / cm^3
# Si number density = 14.903281 Si / 1000 Ang^3
#
#
#
# Elastic Constant Matrix: (Units=GPa)
#
#
# Indices 1 2 3 4 5 6 
#
# 1 74.3407 34.6986 58.6142 0.0000 0.0000 0.0000
# 2 34.6986 74.3407 58.6142 0.0000 0.0000 0.0000
# 3 58.6142 58.6142 111.9129 0.0000 0.0000 0.0000
# 4 0.0000 0.0000 0.0000 20.1069 0.0000 0.0000
# 5 0.0000 0.0000 0.0000 0.0000 20.1069 0.0000
# 6 0.0000 0.0000 0.0000 0.0000 0.0000 11.0486
#
#
#
# Elastic Compliance Matrix: (Units=1/GPa)
#
#
# Indices 1 2 3 4 5 6 
#
# 1 0.023108 -0.002118 -0.010994 0.000000 0.000000 0.000000
# 2 -0.002118 0.023108 -0.010994 0.000000 0.000000 0.000000
# 3 -0.010994 -0.010994 0.020451 0.000000 0.000000 0.000000
# 4 0.000000 0.000000 0.000000 0.049734 0.000000 0.000000
# 5 0.000000 0.000000 0.000000 0.000000 0.049734 0.000000
# 6 0.000000 0.000000 0.000000 0.000000 0.000000 0.090509
#
#
# Mechanical properties :
#
#
# Convention : Reuss Voigt Hill
#
# Bulk Modulus (GPa) = 54.17894 62.71650 58.44772
# Shear Modulus (GPa) = 16.07679 17.49696 16.78688
#
# Velocity S-wave (km/s) = 3.28798 3.43014 3.35981
# Velocity P-wave (km/s) = 7.13071 7.60667 7.37253
#
# Compressibility (1/GPa) = 0.01845736
#
# Stress axis : x y z
#
# Youngs Moduli (GPa) = 43.27509 43.27509 48.89666
#
# Poissons Ratio (x) = 0.09164 0.53755
# Poissons Ratio (y) = 0.09164 0.53755
# Poissons Ratio (z) = 0.47575 0.47575
#
# Static dielectric constant tensor:
#      x y z
#    x 2.738720 0.000000 0.000000 
#    y 0.000000 2.738720 0.000000 
#    z 0.000000 0.000000 3.066550 
# 
# 
# High freq. dielectric constant tensor:
#      x y z
#    x 1.550590 0.000000 0.000000 
#    y 0.000000 1.550590 0.000000 
#    z 0.000000 0.000000 1.581220 
# 
# From -- ./inp_files/4907.got.cif
#   From: 2010.03.12/outbox.cif.g09.slc.cpg/sg129_3_cif.got.tgz:4907.got - 2010.04.06 17:19:44.
