data_PCOD8315865
_publ_section_title
;
Structure prediction by ZEFSAII (Michael W. Deem and Ramdas Pophale) SiO2 
 PCOD8315865
Probable space group: P 42/M M C
;
_chemical_formula_sum "Si O2"
_cell_formula_units_Z 128
_cell_length_a 19.601485
_cell_length_b 19.601485
_cell_length_c 18.668735
_cell_angle_alpha 90.000000
_cell_angle_beta 90.000000
_cell_angle_gamma 90.000000
_cell_volume 7172.868023
_symmetry_space_group_name_H-M "P 42/M M C"
_symmetry_group_IT_number 131
_symmetry_cell_setting 'tetragonal'
loop_
_space_group_symop_operation_xyz
x,y,z
-x,-y,z
-y,x,1/2+z
y,-x,1/2+z
-x,y,-z
x,-y,-z
y,x,1/2-z
-y,-x,1/2-z
-x,-y,-z
x,y,-z
y,-x,1/2-z
-y,x,1/2-z
x,-y,z
-x,y,z
-y,-x,1/2+z
y,x,1/2+z
loop_
_atom_site_type_symbol
_atom_site_label
_atom_site_fract_x
_atom_site_fract_y
_atom_site_fract_z
Si Si1 0.075285 0.703267 0.339208
Si Si2 0.704897 0.674763 0.916492
Si Si3 0.576466 0.127908 0.917485
Si Si4 0.362773 0.924141 0.693628
Si Si5 0.422530 0.271913 0.844611
Si Si6 0.781115 0.577514 0.189242
Si Si7 0.213298 0.813533 0.082105
Si Si8 0.924719 0.249929 0.917356
O O1 0.081623 0.628508 0.374086
O O2 0.086653 0.694465 0.254674
O O3 0.127294 0.758665 0.368127
O O4 0.000000 0.731347 0.355763
O O5 0.630297 0.673921 0.878695
O O6 0.753034 0.621003 0.876640
O O7 0.739333 0.748047 0.906943
O O8 0.698181 0.654466 0.000000
O O9 0.500000 0.099734 0.904508
O O10 0.581549 0.205706 0.893824
O O11 0.597508 0.124686 0.000000
O O12 0.417585 0.863407 0.696973
O O13 0.323258 0.918909 0.619116
O O14 0.396972 0.000000 0.701394
O O15 0.500000 0.301574 0.845786
O O16 0.399526 0.253630 0.763836
O O17 0.762588 0.500000 0.172621
O O18 0.135676 0.800210 0.108232
O O19 0.215397 0.837931 0.000000
O O20 0.000000 0.217080 0.903341
O O21 0.912472 0.266321 0.000000
#
# Coordination Sequence:
#
# PCOD8315865 Si02
#       8
#    16  16  16  16  16  16  16  16
#     4  11  22  33  48  76 112 145 181 222 266 321
#     4  11  21  35  57  83 109 140 182 230 280 330
#     4  10  19  31  48  71 100 138 181 217 255 308
#     4  10  20  34  53  78 108 147 187 217 264 326
#     4  10  20  35  56  81 108 144 186 224 263 320
#     4  11  22  36  55  81 114 148 181 224 278 326
#     4  10  19  32  52  76 102 141 183 223 279 330
#     4   9  18  34  55  76  99 131 181 237 278 322
#
# _framework density 17.845025
#
# number of rings (size 3 to 8) (size 9 to 14) (size 15 to 20)
#    0.000    1.750    3.750    1.125    0.000    3.000 
#    0.000    1.875    0.000    0.750    0.000    7.000 
#    0.000    3.000    0.000    0.125    0.000    0.000 
#
# Total GULP energy -1586997.630924 kJ/mol
# GULP energy per Si atom -12398.418992 kJ/mol
# Density = 1.780441 g / cm^3
# Si number density = 17.845025 Si / 1000 Ang^3
#
#
#
# Elastic Constant Matrix: (Units=GPa)
#
#
# Indices 1 2 3 4 5 6 
#
# 1 74.3961 23.1071 34.1170 0.0000 0.0000 0.0000
# 2 23.1071 74.3961 34.1170 0.0000 0.0000 0.0000
# 3 34.1170 34.1170 78.8085 0.0000 0.0000 0.0000
# 4 0.0000 0.0000 0.0000 21.8815 0.0000 0.0000
# 5 0.0000 0.0000 0.0000 0.0000 21.8815 0.0000
# 6 0.0000 0.0000 0.0000 0.0000 0.0000 21.3703
#
#
#
# Elastic Compliance Matrix: (Units=1/GPa)
#
#
# Indices 1 2 3 4 5 6 
#
# 1 0.017106 -0.002392 -0.006370 0.000000 0.000000 0.000000
# 2 -0.002392 0.017106 -0.006370 0.000000 0.000000 0.000000
# 3 -0.006370 -0.006370 0.018204 0.000000 0.000000 0.000000
# 4 0.000000 0.000000 0.000000 0.045701 0.000000 0.000000
# 5 0.000000 0.000000 0.000000 0.000000 0.045701 0.000000
# 6 0.000000 0.000000 0.000000 0.000000 0.000000 0.046794
#
#
# Mechanical properties :
#
#
# Convention : Reuss Voigt Hill
#
# Bulk Modulus (GPa) = 45.14152 45.58698 45.36425
# Shear Modulus (GPa) = 21.90514 22.11064 22.00789
#
# Velocity S-wave (km/s) = 3.50740 3.52381 3.51562
# Velocity P-wave (km/s) = 6.46172 6.49291 6.47733
#
# Compressibility (1/GPa) = 0.02215255
#
# Stress axis : x y z
#
# Youngs Moduli (GPa) = 58.46064 58.46064 54.93291
#
# Poissons Ratio (x) = 0.13983 0.34991
# Poissons Ratio (y) = 0.13983 0.34991
# Poissons Ratio (z) = 0.37238 0.37238
#
# Static dielectric constant tensor:
#      x y z
#    x 3.257480 0.000000 0.000000 
#    y 0.000000 3.257480 0.000000 
#    z 0.000000 0.000000 3.446880 
# 
# 
# High freq. dielectric constant tensor:
#      x y z
#    x 1.672820 0.000000 0.000000 
#    y 0.000000 1.672820 0.000000 
#    z 0.000000 0.000000 1.704880 
# 
# From -- ./inp_files/8457.got.cif
#   From: 2010.03.12/outbox.cif.g09.slc.cpg/sg131_5_cif.got.tgz:8457.got - 2010.04.06 17:36:35.
