data_PCOD8315253
_publ_section_title
;
Structure prediction by ZEFSAII (Michael W. Deem and Ramdas Pophale) SiO2 
 PCOD8315253
Probable space group: P 4/N M M
;
_chemical_formula_sum "Si O2"
_cell_formula_units_Z 96
_cell_length_a 13.324859
_cell_length_b 13.324859
_cell_length_c 30.653891
_cell_angle_alpha 90.000000
_cell_angle_beta 90.000000
_cell_angle_gamma 90.000000
_cell_volume 5442.655589
_symmetry_space_group_name_H-M "P 4/N M M"
_symmetry_group_IT_number 129
_symmetry_cell_setting 'tetragonal'
loop_
_space_group_symop_operation_xyz
x,y,z
1/2-y,x,z
1/2-x,1/2-y,z
y,1/2-x,z
1/2+x,-y,-z
-x,1/2+y,-z
1/2+y,1/2+x,-z
-y,-x,-z
-x,-y,-z
1/2+y,-x,-z
1/2+x,1/2+y,-z
-y,1/2+x,-z
1/2-x,y,z
x,1/2-y,z
1/2-y,1/2-x,z
y,x,z
loop_
_atom_site_type_symbol
_atom_site_label
_atom_site_fract_x
_atom_site_fract_y
_atom_site_fract_z
Si Si1 0.527781 0.368015 0.633241
Si Si2 0.528204 0.133801 0.133193
Si Si3 0.025314 0.863041 0.965643
Si Si4 0.469224 0.866909 0.209200
Si Si5 0.633151 0.467953 0.710660
Si Si6 0.361171 0.869235 0.452497
O O1 0.508482 0.250000 0.635397
O O2 0.422629 0.422629 0.643457
O O3 0.610498 0.399433 0.668641
O O4 0.565642 0.404845 0.585883
O O5 0.511122 0.250000 0.144682
O O6 0.422383 0.077618 0.141591
O O7 0.564780 0.118268 0.083462
O O8 0.614239 0.086213 0.163289
O O9 0.989504 0.750000 0.971602
O O10 0.928824 0.928824 0.976939
O O11 0.113402 0.886599 0.000000
O O12 0.492620 0.750000 0.214669
O O13 0.574941 0.925060 0.211667
O O14 0.395178 0.904158 0.246905
O O15 0.750000 0.495190 0.711893
O O16 0.571925 0.571925 0.708858
O O17 0.403662 0.903662 0.500000
O O18 0.250000 0.914842 0.444418
O O19 0.353033 0.750000 0.452535
#
# Coordination Sequence:
#
# PCOD8315253 Si02
#       6
#    16  16  16  16  16  16
#     4  10  20  32  47  69  96 128 166 204 242 284
#     4   9  18  32  50  73  99 127 160 198 242 291
#     4   9  18  32  49  70  97 127 160 200 243 288
#     4  10  21  36  53  74 100 130 165 202 238 278
#     4  10  21  36  54  77 102 127 157 193 236 287
#     4   8  14  26  45  68  92 118 152 197 246 292
#
# _framework density 17.638449999999999
#
# number of rings (size 3 to 8) (size 9 to 14) (size 15 to 20)
#    0.000    2.667    0.000    2.000    0.000    5.000 
#    0.000    3.333    0.000    6.000    0.000    4.667 
#    0.000    4.000    0.000    0.000    0.000    0.000 
#
# Total GULP energy -1190292.499093 kJ/mol
# GULP energy per Si atom -12398.880199 kJ/mol
# Density = 1.759830 g / cm^3
# Si number density = 17.638450 Si / 1000 Ang^3
#
#
#
# Elastic Constant Matrix: (Units=GPa)
#
#
# Indices 1 2 3 4 5 6 
#
# 1 100.8600 41.3308 45.7650 0.0000 0.0000 0.0000
# 2 41.3308 100.8624 45.7651 0.0000 0.0000 0.0000
# 3 45.7650 45.7651 115.5927 0.0000 0.0000 0.0000
# 4 0.0000 0.0000 0.0000 25.3945 0.0000 0.0000
# 5 0.0000 0.0000 0.0000 0.0000 25.3944 0.0000
# 6 0.0000 0.0000 0.0000 0.0000 0.0000 12.3563
#
#
#
# Elastic Compliance Matrix: (Units=1/GPa)
#
#
# Indices 1 2 3 4 5 6 
#
# 1 0.013118 -0.003680 -0.003737 0.000000 0.000000 0.000000
# 2 -0.003680 0.013118 -0.003737 0.000000 0.000000 0.000000
# 3 -0.003737 -0.003737 0.011610 0.000000 0.000000 0.000000
# 4 0.000000 0.000000 0.000000 0.039379 0.000000 0.000000
# 5 0.000000 0.000000 0.000000 0.000000 0.039379 0.000000
# 6 0.000000 0.000000 0.000000 0.000000 0.000000 0.080930
#
#
# Mechanical properties :
#
#
# Convention : Reuss Voigt Hill
#
# Bulk Modulus (GPa) = 64.35299 64.78189 64.56744
# Shear Modulus (GPa) = 22.22021 24.92599 23.57310
#
# Velocity S-wave (km/s) = 3.55316 3.76328 3.65973
# Velocity P-wave (km/s) = 7.30732 7.46260 7.38537
#
# Compressibility (1/GPa) = 0.01553929
#
# Stress axis : x y z
#
# Youngs Moduli (GPa) = 76.22947 76.23158 86.13342
#
# Poissons Ratio (x) = 0.28053 0.32186
# Poissons Ratio (y) = 0.28053 0.32185
# Poissons Ratio (z) = 0.28485 0.28485
#
# Static dielectric constant tensor:
#      x y z
#    x 3.081430 0.000000 0.000000 
#    y 0.000000 3.081430 0.000000 
#    z 0.000000 0.000000 3.659490 
# 
# 
# High freq. dielectric constant tensor:
#      x y z
#    x 1.666390 0.000000 0.000000 
#    y 0.000000 1.666390 0.000000 
#    z 0.000000 0.000000 1.703140 
# 
# From -- ./inp_files/7865.got.cif
#   From: 2010.03.12/outbox.cif.g09.slc.cpg/sg129_4_cif.got.tgz:7865.got - 2010.04.06 17:19:44.
