data_PCOD8315634
_publ_section_title
;
Structure prediction by ZEFSAII (Michael W. Deem and Ramdas Pophale) SiO2 
 PCOD8315634
Probable space group: P 4/N C C
;
_chemical_formula_sum "Si O2"
_cell_formula_units_Z 64
_cell_length_a 12.287267
_cell_length_b 12.287267
_cell_length_c 18.252024
_cell_angle_alpha 90.000000
_cell_angle_beta 90.000000
_cell_angle_gamma 90.000000
_cell_volume 2755.634556
_symmetry_space_group_name_H-M "P 4/N C C"
_symmetry_group_IT_number 130
_symmetry_cell_setting 'tetragonal'
loop_
_space_group_symop_operation_xyz
x,y,z
1/2-y,x,z
1/2-x,1/2-y,z
y,1/2-x,z
1/2+x,-y,1/2-z
-x,1/2+y,1/2-z
1/2+y,1/2+x,1/2-z
-y,-x,1/2-z
-x,-y,-z
1/2+y,-x,-z
1/2+x,1/2+y,-z
-y,1/2+x,-z
1/2-x,y,1/2+z
x,1/2-y,1/2+z
1/2-y,1/2-x,1/2+z
y,x,1/2+z
loop_
_atom_site_type_symbol
_atom_site_label
_atom_site_fract_x
_atom_site_fract_y
_atom_site_fract_z
Si Si1 0.575004 0.103887 0.506784
Si Si2 0.746378 0.570455 0.232518
Si Si3 0.374950 0.741244 0.121491
Si Si4 0.267827 0.425548 0.600475
O O1 0.617099 0.128673 0.424422
O O2 0.669036 0.083235 0.564948
O O3 0.516577 0.212310 0.539598
O O4 0.500000 0.000000 0.500000
O O5 0.854753 0.640943 0.215187
O O6 0.753721 0.458031 0.188849
O O7 0.734073 0.531329 0.316218
O O8 0.250000 0.750000 0.149070
O O9 0.154859 0.368096 0.586187
#
# Coordination Sequence:
#
# PCOD8315634 Si02
#       4
#    16  16  16  16
#     4  12  23  40  67  91 131 180 227 274 344 408
#     4   9  20  43  72 100 129 175 238 293 334 400
#     4  12  24  43  60  96 142 176 219 279 351 419
#     4   9  20  40  68  99 131 167 228 291 337 391
#
# _framework density 23.225138000000001
#
# number of rings (size 3 to 8) (size 9 to 14) (size 15 to 20)
#    0.000    1.500    2.500    4.500    0.000    1.000 
#    0.000    6.250    0.000    0.000    0.000    0.000 
#    0.000    0.000    0.000    0.000    0.000    0.000 
#
# Total GULP energy -793143.861037 kJ/mol
# GULP energy per Si atom -12392.872829 kJ/mol
# Density = 2.317228 g / cm^3
# Si number density = 23.225138 Si / 1000 Ang^3
#
#
#
# Elastic Constant Matrix: (Units=GPa)
#
#
# Indices 1 2 3 4 5 6 
#
# 1 104.2922 21.8694 47.2645 0.0000 0.0000 0.0000
# 2 21.8694 104.2922 47.2645 0.0000 0.0000 0.0000
# 3 47.2645 47.2645 105.7636 0.0000 0.0000 0.0000
# 4 0.0000 0.0000 0.0000 41.6646 0.0000 0.0000
# 5 0.0000 0.0000 0.0000 0.0000 41.6646 0.0000
# 6 0.0000 0.0000 0.0000 0.0000 0.0000 34.5487
#
#
#
# Elastic Compliance Matrix: (Units=1/GPa)
#
#
# Indices 1 2 3 4 5 6 
#
# 1 0.012024 -0.000108 -0.005325 0.000000 0.000000 0.000000
# 2 -0.000108 0.012024 -0.005325 0.000000 0.000000 0.000000
# 3 -0.005325 -0.005325 0.014215 0.000000 0.000000 0.000000
# 4 0.000000 0.000000 0.000000 0.024001 0.000000 0.000000
# 5 0.000000 0.000000 0.000000 0.000000 0.024001 0.000000
# 6 0.000000 0.000000 0.000000 0.000000 0.000000 0.028945
#
#
# Mechanical properties :
#
#
# Convention : Reuss Voigt Hill
#
# Bulk Modulus (GPa) = 59.71467 60.79387 60.25427
# Shear Modulus (GPa) = 35.13451 36.77221 35.95336
#
# Velocity S-wave (km/s) = 3.89367 3.98338 3.93878
# Velocity P-wave (km/s) = 6.78095 6.88398 6.83265
#
# Compressibility (1/GPa) = 0.01674630
#
# Stress axis : x y z
#
# Youngs Moduli (GPa) = 83.16354 83.16354 70.34975
#
# Poissons Ratio (x) = 0.00899 0.37463
# Poissons Ratio (y) = 0.00899 0.37463
# Poissons Ratio (z) = 0.44287 0.44287
#
# Static dielectric constant tensor:
#      x y z
#    x 2.649810 0.000000 0.000000 
#    y 0.000000 2.649810 0.000000 
#    z 0.000000 0.000000 4.141660 
# 
# 
# High freq. dielectric constant tensor:
#      x y z
#    x 1.931150 0.000000 0.000000 
#    y 0.000000 1.931150 0.000000 
#    z 0.000000 0.000000 1.914850 
# 
# From -- ./inp_files/3490.got.cif
#   From: 2010.03.12/outbox.cif.g09.slc.cpg/sg130_2_cif.got.tgz:3490.got - 2010.04.06 17:30:23.
