data_PCOD8315926
_publ_section_title
;
Structure prediction by ZEFSAII (Michael W. Deem and Ramdas Pophale) SiO2 
 PCOD8315926
Probable space group: P 42/M M C
;
_chemical_formula_sum "Si O2"
_cell_formula_units_Z 104
_cell_length_a 26.418339
_cell_length_b 26.418339
_cell_length_c 9.034550
_cell_angle_alpha 90.000000
_cell_angle_beta 90.000000
_cell_angle_gamma 90.000000
_cell_volume 6305.471154
_symmetry_space_group_name_H-M "P 42/M M C"
_symmetry_group_IT_number 131
_symmetry_cell_setting 'tetragonal'
loop_
_space_group_symop_operation_xyz
x,y,z
-x,-y,z
-y,x,1/2+z
y,-x,1/2+z
-x,y,-z
x,-y,-z
y,x,1/2-z
-y,-x,1/2-z
-x,-y,-z
x,y,-z
y,-x,1/2-z
-y,x,1/2-z
x,-y,z
-x,y,z
-y,-x,1/2+z
y,x,1/2+z
loop_
_atom_site_type_symbol
_atom_site_label
_atom_site_fract_x
_atom_site_fract_y
_atom_site_fract_z
Si Si1 0.630040 0.557193 0.326813
Si Si2 0.185701 0.343852 0.173609
Si Si3 0.556688 0.000000 0.824009
Si Si4 0.230828 0.155255 0.673655
Si Si5 0.087502 0.370779 0.328790
Si Si6 0.943268 0.742619 0.669799
Si Si7 0.361361 0.712188 0.174200
O O1 0.580959 0.580959 0.250000
O O2 0.619711 0.558911 0.500000
O O3 0.637669 0.500000 0.269887
O O4 0.680395 0.588467 0.285605
O O5 0.179759 0.284802 0.216171
O O6 0.136939 0.374692 0.227298
O O7 0.232355 0.368350 0.260129
O O8 0.193319 0.351388 0.000000
O O9 0.585650 0.949864 0.769669
O O10 0.500000 0.000000 0.758605
O O11 0.556614 0.000000 0.000000
O O12 0.186886 0.186886 0.750000
O O13 0.221647 0.155659 0.500000
O O14 0.228219 0.097328 0.729260
O O15 0.102745 0.378715 0.500000
O O16 0.059797 0.317427 0.306365
O O17 0.931709 0.756461 0.500000
O O18 0.000000 0.760041 0.714368
O O19 0.312569 0.687432 0.250000
O O20 0.351597 0.714915 0.000000
#
# Coordination Sequence:
#
# PCOD8315926 Si02
#       7
#    16  16   8  16  16  16  16
#     4   9  19  35  53  74  98 122 151 187 228 277
#     4  10  20  32  47  69  95 125 161 198 238 285
#     4   9  16  28  49  73  93 117 157 207 250 291
#     4  10  20  31  44  66  96 127 157 193 236 281
#     4   9  16  29  48  69  92 120 158 200 243 288
#     4   9  16  28  47  68  91 122 158 195 235 281
#     4  10  19  32  51  72  95 125 157 191 231 279
#
# _framework density 16.493611999999999
#
# number of rings (size 3 to 8) (size 9 to 14) (size 15 to 20)
#    0.000    2.538    0.769    1.846    0.000    4.462 
#    0.000    1.923    0.000    5.538    0.000    0.000 
#    0.000    0.308    0.000    3.231    0.000    1.385 
#
# Total GULP energy -1289741.734621 kJ/mol
# GULP energy per Si atom -12401.362833 kJ/mol
# Density = 1.645607 g / cm^3
# Si number density = 16.493612 Si / 1000 Ang^3
#
#
#
# Elastic Constant Matrix: (Units=GPa)
#
#
# Indices 1 2 3 4 5 6 
#
# 1 114.9567 60.4724 44.3674 0.0000 0.0000 0.0000
# 2 60.4724 114.9530 44.3672 0.0000 0.0000 0.0000
# 3 44.3674 44.3672 63.1570 0.0000 0.0000 0.0000
# 4 0.0000 0.0000 0.0000 24.8531 0.0000 0.0000
# 5 0.0000 0.0000 0.0000 0.0000 24.8532 0.0000
# 6 0.0000 0.0000 0.0000 0.0000 0.0000 23.3464
#
#
#
# Elastic Compliance Matrix: (Units=1/GPa)
#
#
# Indices 1 2 3 4 5 6 
#
# 1 0.013598 -0.004756 -0.006212 0.000000 0.000000 0.000000
# 2 -0.004756 0.013599 -0.006212 0.000000 0.000000 0.000000
# 3 -0.006212 -0.006212 0.024561 0.000000 0.000000 0.000000
# 4 0.000000 0.000000 0.000000 0.040236 0.000000 0.000000
# 5 0.000000 0.000000 0.000000 0.000000 0.040236 0.000000
# 6 0.000000 0.000000 0.000000 0.000000 0.000000 0.042833
#
#
# Mechanical properties :
#
#
# Convention : Reuss Voigt Hill
#
# Bulk Modulus (GPa) = 57.47505 65.72008 61.59757
# Shear Modulus (GPa) = 23.23180 24.20119 23.71649
#
# Velocity S-wave (km/s) = 3.75711 3.83470 3.79611
# Velocity P-wave (km/s) = 7.33101 7.71614 7.52604
#
# Compressibility (1/GPa) = 0.01739885
#
# Stress axis : x y z
#
# Youngs Moduli (GPa) = 73.53921 73.53634 40.71511
#
# Poissons Ratio (x) = 0.34975 0.25290
# Poissons Ratio (y) = 0.34976 0.25292
# Poissons Ratio (z) = 0.45679 0.45680
#
# Static dielectric constant tensor:
#      x y z
#    x 3.103850 0.000000 0.000000 
#    y 0.000000 3.103860 0.000000 
#    z 0.000000 0.000000 3.052380 
# 
# 
# High freq. dielectric constant tensor:
#      x y z
#    x 1.623590 0.000000 0.000000 
#    y 0.000000 1.623590 0.000000 
#    z 0.000000 0.000000 1.633100 
# 
# From -- ./inp_files/2532.got.cif
#   From: 2010.03.12/outbox.cif.g09.slc.cpg/sg131_2_cif.got.tgz:2532.got - 2010.04.06 17:36:35.
