data_PCOD8315483
_publ_section_title
;
Structure prediction by ZEFSAII (Michael W. Deem and Ramdas Pophale) SiO2 
 PCOD8315483
Probable space group: P 4/N C C
;
_chemical_formula_sum "Si O2"
_cell_formula_units_Z 104
_cell_length_a 19.452823
_cell_length_b 19.452823
_cell_length_c 14.876513
_cell_angle_alpha 90.000000
_cell_angle_beta 90.000000
_cell_angle_gamma 90.000000
_cell_volume 5629.455838
_symmetry_space_group_name_H-M "P 4/N C C"
_symmetry_group_IT_number 130
_symmetry_cell_setting 'tetragonal'
loop_
_space_group_symop_operation_xyz
x,y,z
1/2-y,x,z
1/2-x,1/2-y,z
y,1/2-x,z
1/2+x,-y,1/2-z
-x,1/2+y,1/2-z
1/2+y,1/2+x,1/2-z
-y,-x,1/2-z
-x,-y,-z
1/2+y,-x,-z
1/2+x,1/2+y,-z
-y,1/2+x,-z
1/2-x,y,1/2+z
x,1/2-y,1/2+z
1/2-y,1/2-x,1/2+z
y,x,1/2+z
loop_
_atom_site_type_symbol
_atom_site_label
_atom_site_fract_x
_atom_site_fract_y
_atom_site_fract_z
Si Si1 0.634801 0.500329 0.955694
Si Si2 0.364687 0.635314 0.250000
Si Si3 0.288672 0.540985 0.563919
Si Si4 0.965961 0.589785 0.343017
Si Si5 0.732570 0.324232 0.341313
Si Si6 0.459661 0.876251 0.598180
Si Si7 0.923195 0.529414 0.638346
O O1 0.711893 0.486391 0.922595
O O2 0.602027 0.560521 0.893137
O O3 0.591173 0.431358 0.945812
O O4 0.635420 0.517872 0.062771
O O5 0.361503 0.695990 0.321203
O O6 0.359692 0.562543 0.300076
O O7 0.338011 0.488062 0.614842
O O8 0.304400 0.620154 0.595960
O O9 0.306267 0.541692 0.458511
O O10 0.953057 0.605538 0.237349
O O11 0.026914 0.535795 0.356263
O O12 0.750000 0.250000 0.387572
O O13 0.689067 0.310934 0.250000
O O14 0.536225 0.904887 0.600750
#
# Coordination Sequence:
#
# PCOD8315483 Si02
#       7
#    16   8  16  16  16  16  16
#     4  11  21  40  55  91 123 146 208 253 297 362
#     4  10  19  38  52  80 118 160 198 236 285 346
#     4  12  23  35  63  88 119 167 198 251 306 361
#     4  10  21  39  61  87 117 155 206 257 304 351
#     4   9  22  39  50  79 130 163 201 238 279 369
#     4  11  20  37  59  82 115 157 202 246 298 347
#     4  10  20  38  62  81 118 156 196 265 298 348
#
# _framework density 18.474254999999999
#
# number of rings (size 3 to 8) (size 9 to 14) (size 15 to 20)
#    0.000    1.692    4.615    2.769    2.154    3.692 
#    0.000    0.769    0.000    0.462    0.000    0.000 
#    4.615    0.000    0.000    0.000    0.000    0.000 
#
# Total GULP energy -1288963.697588 kJ/mol
# GULP energy per Si atom -12393.881708 kJ/mol
# Density = 1.843221 g / cm^3
# Si number density = 18.474255 Si / 1000 Ang^3
#
#
#
# Elastic Constant Matrix: (Units=GPa)
#
#
# Indices 1 2 3 4 5 6 
#
# 1 76.1650 39.8650 35.8248 0.0000 0.0000 0.0000
# 2 39.8650 76.1645 35.8247 0.0000 0.0000 0.0000
# 3 35.8248 35.8247 106.8121 0.0000 0.0000 0.0000
# 4 0.0000 0.0000 0.0000 21.9979 0.0000 0.0000
# 5 0.0000 0.0000 0.0000 0.0000 21.9983 0.0000
# 6 0.0000 0.0000 0.0000 0.0000 0.0000 18.9801
#
#
#
# Elastic Compliance Matrix: (Units=1/GPa)
#
#
# Indices 1 2 3 4 5 6 
#
# 1 0.019209 -0.008339 -0.003646 0.000000 0.000000 0.000000
# 2 -0.008339 0.019209 -0.003646 0.000000 0.000000 0.000000
# 3 -0.003646 -0.003646 0.011808 0.000000 0.000000 0.000000
# 4 0.000000 0.000000 0.000000 0.045459 0.000000 0.000000
# 5 0.000000 0.000000 0.000000 0.000000 0.045458 0.000000
# 6 0.000000 0.000000 0.000000 0.000000 0.000000 0.052687
#
#
# Mechanical properties :
#
#
# Convention : Reuss Voigt Hill
#
# Bulk Modulus (GPa) = 52.73033 53.57452 53.15243
# Shear Modulus (GPa) = 21.60643 22.43706 22.02174
#
# Velocity S-wave (km/s) = 3.42357 3.48875 3.45631
# Velocity P-wave (km/s) = 6.65074 6.72986 6.69042
#
# Compressibility (1/GPa) = 0.01896442
#
# Stress axis : x y z
#
# Youngs Moduli (GPa) = 52.05886 52.05857 84.68993
#
# Poissons Ratio (x) = 0.43413 0.30875
# Poissons Ratio (y) = 0.43414 0.30876
# Poissons Ratio (z) = 0.18979 0.18979
#
# Static dielectric constant tensor:
#      x y z
#    x 3.276600 0.000000 0.000000 
#    y 0.000000 3.276600 0.000000 
#    z 0.000000 0.000000 3.650470 
# 
# 
# High freq. dielectric constant tensor:
#      x y z
#    x 1.691360 0.000000 0.000000 
#    y 0.000000 1.691360 0.000000 
#    z 0.000000 0.000000 1.733490 
# 
# From -- ./inp_files/2534.got.cif
#   From: 2010.03.12/outbox.cif.g09.slc.cpg/sg130_2_cif.got.tgz:2534.got - 2010.04.06 17:30:23.
