data_PCOD8315691
_publ_section_title
;
Structure prediction by ZEFSAII (Michael W. Deem and Ramdas Pophale) SiO2 
 PCOD8315691
Probable space group: P 42/M M C
;
_chemical_formula_sum "Si O2"
_cell_formula_units_Z 88
_cell_length_a 14.314324
_cell_length_b 14.314324
_cell_length_c 26.140539
_cell_angle_alpha 90.000000
_cell_angle_beta 90.000000
_cell_angle_gamma 90.000000
_cell_volume 5356.193084
_symmetry_space_group_name_H-M "P 42/M M C"
_symmetry_group_IT_number 131
_symmetry_cell_setting 'tetragonal'
loop_
_space_group_symop_operation_xyz
x,y,z
-x,-y,z
-y,x,1/2+z
y,-x,1/2+z
-x,y,-z
x,-y,-z
y,x,1/2-z
-y,-x,1/2-z
-x,-y,-z
x,y,-z
y,-x,1/2-z
-y,x,1/2-z
x,-y,z
-x,y,z
-y,-x,1/2+z
y,x,1/2+z
loop_
_atom_site_type_symbol
_atom_site_label
_atom_site_fract_x
_atom_site_fract_y
_atom_site_fract_z
Si Si1 0.389724 0.395002 0.000000
Si Si2 0.104757 0.389351 0.056727
Si Si3 0.101887 0.389797 0.355996
Si Si4 0.295106 0.609749 0.603211
Si Si5 0.771800 0.388928 0.150264
Si Si6 0.610757 0.895551 0.257829
O O1 0.356935 0.337812 0.950591
O O2 0.500000 0.404482 0.000000
O O3 0.345316 0.500000 0.000000
O O4 0.100750 0.500000 0.061486
O O5 0.171967 0.349646 0.100853
O O6 0.000000 0.349393 0.064582
O O7 0.142398 0.360864 0.000000
O O8 0.093400 0.500000 0.351576
O O9 0.184656 0.363795 0.395431
O O10 0.126674 0.351085 0.299209
O O11 0.000000 0.350409 0.374298
O O12 0.311167 0.500000 0.613553
O O13 0.348240 0.666719 0.647710
O O14 0.766322 0.500000 0.150432
O O15 0.821558 0.349076 0.201249
O O16 0.500000 0.888712 0.258898
O O17 0.641874 0.000000 0.274063
#
# Coordination Sequence:
#
# PCOD8315691 Si02
#       6
#     8  16  16  16  16  16
#     4   9  18  32  45  57  82 122 161 192 219 253
#     4   8  14  24  37  55  81 112 146 185 225 260
#     4   8  15  30  49  63  78 104 141 191 245 281
#     4  10  20  31  43  61  85 119 161 196 222 259
#     4  10  18  25  39  62  89 122 152 180 214 261
#     4   8  14  26  44  64  84 108 141 182 230 280
#
# _framework density 16.429577999999999
#
# number of rings (size 3 to 8) (size 9 to 14) (size 15 to 20)
#    0.000    3.182    0.000    2.727    1.273    4.000 
#    0.000    0.455    0.000    3.818    0.000   10.182 
#    0.000    2.909    0.000   10.000    0.000    0.909 
#
# Total GULP energy -1090290.835498 kJ/mol
# GULP energy per Si atom -12389.668585 kJ/mol
# Density = 1.639218 g / cm^3
# Si number density = 16.429578 Si / 1000 Ang^3
#
#
#
# Elastic Constant Matrix: (Units=GPa)
#
#
# Indices 1 2 3 4 5 6 
#
# 1 71.4021 18.7225 40.8227 0.0000 0.0000 0.0000
# 2 18.7225 71.4021 40.8227 0.0000 0.0000 0.0000
# 3 40.8227 40.8227 81.0838 0.0000 0.0000 0.0000
# 4 0.0000 0.0000 0.0000 19.4151 0.0000 0.0000
# 5 0.0000 0.0000 0.0000 0.0000 19.4151 0.0000
# 6 0.0000 0.0000 0.0000 0.0000 0.0000 5.3019
#
#
#
# Elastic Compliance Matrix: (Units=1/GPa)
#
#
# Indices 1 2 3 4 5 6 
#
# 1 0.019691 0.000709 -0.010271 0.000000 0.000000 0.000000
# 2 0.000709 0.019691 -0.010271 0.000000 0.000000 0.000000
# 3 -0.010271 -0.010271 0.022675 0.000000 0.000000 0.000000
# 4 0.000000 0.000000 0.000000 0.051506 0.000000 0.000000
# 5 0.000000 0.000000 0.000000 0.000000 0.051506 0.000000
# 6 0.000000 0.000000 0.000000 0.000000 0.000000 0.188613
#
#
# Mechanical properties :
#
#
# Convention : Reuss Voigt Hill
#
# Bulk Modulus (GPa) = 44.65841 47.18043 45.91942
# Shear Modulus (GPa) = 12.47466 17.06107 14.76787
#
# Velocity S-wave (km/s) = 2.75849 3.22597 3.00135
# Velocity P-wave (km/s) = 6.11445 6.53108 6.32619
#
# Compressibility (1/GPa) = 0.02239220
#
# Stress axis : x y z
#
# Youngs Moduli (GPa) = 50.78352 50.78352 44.10185
#
# Poissons Ratio (x) = -0.03599 0.45296
# Poissons Ratio (y) = -0.03599 0.45296
# Poissons Ratio (z) = 0.52158 0.52158
#
# Static dielectric constant tensor:
#      x y z
#    x 2.989390 0.000000 0.000000 
#    y 0.000000 2.989390 0.000000 
#    z 0.000000 0.000000 3.321390 
# 
# 
# High freq. dielectric constant tensor:
#      x y z
#    x 1.597880 0.000000 0.000000 
#    y 0.000000 1.597880 0.000000 
#    z 0.000000 0.000000 1.632990 
# 
# From -- ./inp_files/11076.got.cif
#   From: 2010.03.12/outbox.cif.g09.slc.cpg/sg131_6_cif.got.tgz:11076.got - 2010.04.06 17:36:35.
