data_PCOD8315140
_publ_section_title
;
Structure prediction by ZEFSAII (Michael W. Deem and Ramdas Pophale) SiO2 
 PCOD8315140
Probable space group: P 4/N M M
;
_chemical_formula_sum "Si O2"
_cell_formula_units_Z 128
_cell_length_a 17.911539
_cell_length_b 17.911539
_cell_length_c 22.833457
_cell_angle_alpha 90.000000
_cell_angle_beta 90.000000
_cell_angle_gamma 90.000000
_cell_volume 7325.503412
_symmetry_space_group_name_H-M "P 4/N M M"
_symmetry_group_IT_number 129
_symmetry_cell_setting 'tetragonal'
loop_
_space_group_symop_operation_xyz
x,y,z
1/2-y,x,z
1/2-x,1/2-y,z
y,1/2-x,z
1/2+x,-y,-z
-x,1/2+y,-z
1/2+y,1/2+x,-z
-y,-x,-z
-x,-y,-z
1/2+y,-x,-z
1/2+x,1/2+y,-z
-y,1/2+x,-z
1/2-x,y,z
x,1/2-y,z
1/2-y,1/2-x,z
y,x,z
loop_
_atom_site_type_symbol
_atom_site_label
_atom_site_fract_x
_atom_site_fract_y
_atom_site_fract_z
Si Si1 0.014305 0.894561 0.458998
Si Si2 0.062921 0.558828 0.855416
Si Si3 0.833422 0.549691 0.569129
Si Si4 0.044922 0.335528 0.215553
Si Si5 0.166613 0.950808 0.666565
Si Si6 0.836161 0.544435 0.223837
Si Si7 0.835351 0.164903 0.069205
Si Si8 0.451990 0.666397 0.672790
O O1 0.085512 0.914489 0.500000
O O2 0.031955 0.849862 0.400803
O O3 0.963986 0.841287 0.499864
O O4 0.971121 0.971121 0.442474
O O5 0.123085 0.519128 0.813755
O O6 0.108331 0.602470 0.905566
O O7 0.004092 0.495909 0.879929
O O8 0.018147 0.622029 0.820888
O O9 0.750000 0.569625 0.586358
O O10 0.880485 0.619516 0.590062
O O11 0.859326 0.478273 0.607841
O O12 0.051442 0.250000 0.193771
O O13 0.125051 0.374950 0.207654
O O14 0.021693 0.339682 0.283429
O O15 0.250000 0.919438 0.670747
O O16 0.114163 0.887040 0.692917
O O17 0.157386 0.023622 0.707304
O O18 0.750000 0.551145 0.203920
O O19 0.875668 0.624333 0.214619
O O20 0.750000 0.148039 0.089218
O O21 0.856688 0.250000 0.088724
O O22 0.841585 0.158416 0.000000
O O23 0.419664 0.750000 0.671697
#
# Coordination Sequence:
#
# PCOD8315140 Si02
#       8
#    16  16  16  16  16  16  16  16
#     4  10  19  31  51  72  89 118 159 199 242 296
#     4  10  19  32  53  78 107 138 175 219 254 297
#     4  10  20  33  50  71  93 120 155 195 242 294
#     4  10  20  33  51  75 103 137 171 208 254 299
#     4  11  21  34  52  72  98 126 160 207 249 297
#     4  10  21  35  53  77 103 134 170 211 258 305
#     4   9  18  33  53  77 108 145 179 213 256 303
#     4  10  20  34  50  68  96 129 162 201 246 298
#
# _framework density 17.473202000000001
#
# number of rings (size 3 to 8) (size 9 to 14) (size 15 to 20)
#    0.000    2.000    2.500    2.250    0.000    1.875 
#    0.000    0.000    0.000    2.250    0.000    1.750 
#    0.000    0.000    0.000   23.250    0.000    0.000 
#
# Total GULP energy -1586601.308673 kJ/mol
# GULP energy per Si atom -12395.322724 kJ/mol
# Density = 1.743343 g / cm^3
# Si number density = 17.473202 Si / 1000 Ang^3
#
#
#
# Elastic Constant Matrix: (Units=GPa)
#
#
# Indices 1 2 3 4 5 6 
#
# 1 113.5437 67.5421 32.0074 0.0000 0.0000 0.0000
# 2 67.5421 113.5440 32.0073 0.0000 0.0000 0.0000
# 3 32.0074 32.0073 56.3853 0.0000 0.0000 0.0000
# 4 0.0000 0.0000 0.0000 25.0228 0.0000 0.0000
# 5 0.0000 0.0000 0.0000 0.0000 25.0227 0.0000
# 6 0.0000 0.0000 0.0000 0.0000 0.0000 22.1272
#
#
#
# Elastic Compliance Matrix: (Units=1/GPa)
#
#
# Indices 1 2 3 4 5 6 
#
# 1 0.014323 -0.007415 -0.003922 0.000000 0.000000 0.000000
# 2 -0.007415 0.014323 -0.003922 0.000000 0.000000 0.000000
# 3 -0.003922 -0.003922 0.022187 0.000000 0.000000 0.000000
# 4 0.000000 0.000000 0.000000 0.039963 0.000000 0.000000
# 5 0.000000 0.000000 0.000000 0.000000 0.039964 0.000000
# 6 0.000000 0.000000 0.000000 0.000000 0.000000 0.045193
#
#
# Mechanical properties :
#
#
# Convention : Reuss Voigt Hill
#
# Bulk Modulus (GPa) = 49.21781 60.73186 54.97484
# Shear Modulus (GPa) = 23.44734 24.56229 24.00481
#
# Velocity S-wave (km/s) = 3.66717 3.75335 3.71051
# Velocity P-wave (km/s) = 6.79409 7.32230 7.06313
#
# Compressibility (1/GPa) = 0.02031785
#
# Stress axis : x y z
#
# Youngs Moduli (GPa) = 69.81551 69.81578 45.07061
#
# Poissons Ratio (x) = 0.51767 0.17675
# Poissons Ratio (y) = 0.51767 0.17675
# Poissons Ratio (z) = 0.27380 0.27379
#
# Static dielectric constant tensor:
#      x y z
#    x 3.251900 0.000000 0.000000 
#    y 0.000000 3.251900 0.000000 
#    z 0.000000 0.000000 3.058370 
# 
# 
# High freq. dielectric constant tensor:
#      x y z
#    x 1.673580 0.000000 0.000000 
#    y 0.000000 1.673580 0.000000 
#    z 0.000000 0.000000 1.660680 
# 
# From -- ./inp_files/7319.got.cif
#   From: 2010.03.12/outbox.cif.g09.slc.cpg/sg129_4_cif.got.tgz:7319.got - 2010.04.06 17:19:44.
