data_PCOD8315565
_publ_section_title
;
Structure prediction by ZEFSAII (Michael W. Deem and Ramdas Pophale) SiO2 
 PCOD8315565
Probable space group: P 4/N C C
;
_chemical_formula_sum "Si O2"
_cell_formula_units_Z 48
_cell_length_a 14.375515
_cell_length_b 14.375515
_cell_length_c 9.134671
_cell_angle_alpha 90.000000
_cell_angle_beta 90.000000
_cell_angle_gamma 90.000000
_cell_volume 1887.729377
_symmetry_space_group_name_H-M "P 4/N C C"
_symmetry_group_IT_number 130
_symmetry_cell_setting 'tetragonal'
loop_
_space_group_symop_operation_xyz
x,y,z
1/2-y,x,z
1/2-x,1/2-y,z
y,1/2-x,z
1/2+x,-y,1/2-z
-x,1/2+y,1/2-z
1/2+y,1/2+x,1/2-z
-y,-x,1/2-z
-x,-y,-z
1/2+y,-x,-z
1/2+x,1/2+y,-z
-y,1/2+x,-z
1/2-x,y,1/2+z
x,1/2-y,1/2+z
1/2-y,1/2-x,1/2+z
y,x,1/2+z
loop_
_atom_site_type_symbol
_atom_site_label
_atom_site_fract_x
_atom_site_fract_y
_atom_site_fract_z
Si Si1 0.143032 0.673997 0.081304
Si Si2 0.882738 0.674650 0.426822
Si Si3 0.458829 0.421456 0.341521
O O1 0.176935 0.676935 0.250000
O O2 0.048337 0.615057 0.068863
O O3 0.125313 0.777597 0.018576
O O4 0.875708 0.783704 0.450305
O O5 0.923704 0.659870 0.266115
O O6 0.948196 0.624005 0.546745
O O7 0.486139 0.513862 0.250000
#
# Coordination Sequence:
#
# PCOD8315565 Si02
#       3
#    16  16  16
#     4  10  22  43  70 107 147 192 238 293 376 450
#     4  11  25  49  75 105 147 198 252 310 374 434
#     4  11  25  44  73 111 143 188 247 309 372 438
#
# _framework density 25.427371999999998
#
# number of rings (size 3 to 8) (size 9 to 14) (size 15 to 20)
#    0.000    1.333    0.000    5.000    9.333    2.667 
#    6.000    0.000    0.000    0.000    0.000    0.000 
#    0.000    0.000    0.000    0.000    0.000    0.000 
#
# Total GULP energy -595198.366056 kJ/mol
# GULP energy per Si atom -12399.965960 kJ/mol
# Density = 2.536950 g / cm^3
# Si number density = 25.427372 Si / 1000 Ang^3
#
#
#
# Elastic Constant Matrix: (Units=GPa)
#
#
# Indices 1 2 3 4 5 6 
#
# 1 78.2983 2.9769 13.9470 0.0000 0.0000 0.0000
# 2 2.9769 78.2963 13.9469 0.0000 0.0000 0.0000
# 3 13.9470 13.9469 122.5924 0.0000 0.0000 0.0000
# 4 0.0000 0.0000 0.0000 36.1656 0.0000 0.0000
# 5 0.0000 0.0000 0.0000 0.0000 36.1625 0.0000
# 6 0.0000 0.0000 0.0000 0.0000 0.0000 11.7893
#
#
#
# Elastic Compliance Matrix: (Units=1/GPa)
#
#
# Indices 1 2 3 4 5 6 
#
# 1 0.013040 -0.000236 -0.001457 0.000000 0.000000 0.000000
# 2 -0.000236 0.013040 -0.001457 0.000000 0.000000 0.000000
# 3 -0.001457 -0.001457 0.008489 0.000000 0.000000 0.000000
# 4 0.000000 0.000000 0.000000 0.027651 0.000000 0.000000
# 5 0.000000 0.000000 0.000000 0.000000 0.027653 0.000000
# 6 0.000000 0.000000 0.000000 0.000000 0.000000 0.084823
#
#
# Mechanical properties :
#
#
# Convention : Reuss Voigt Hill
#
# Bulk Modulus (GPa) = 35.37343 37.88098 36.62720
# Shear Modulus (GPa) = 26.25799 33.37788 29.81793
#
# Velocity S-wave (km/s) = 3.21700 3.62702 3.42814
# Velocity P-wave (km/s) = 5.26693 5.69828 5.48684
#
# Compressibility (1/GPa) = 0.02826980
#
# Stress axis : x y z
#
# Youngs Moduli (GPa) = 76.68634 76.68446 117.80567
#
# Poissons Ratio (x) = 0.01812 0.17160
# Poissons Ratio (y) = 0.01812 0.17161
# Poissons Ratio (z) = 0.11171 0.11170
#
# Static dielectric constant tensor:
#      x y z
#    x 4.526390 0.000000 0.000000 
#    y 0.000000 4.526400 0.000000 
#    z 0.000000 0.000000 4.707350 
# 
# 
# High freq. dielectric constant tensor:
#      x y z
#    x 2.014020 0.000000 0.000000 
#    y 0.000000 2.014020 0.000000 
#    z 0.000000 0.000000 2.025440 
# 
# From -- ./inp_files/1326.got.cif
#   From: 2010.03.12/outbox.cif.g09.slc.cpg/sg130_1_cif.got.tgz:1326.got - 2010.04.06 17:30:23.
