data_PCOD8315085
_publ_section_title
;
Structure prediction by ZEFSAII (Michael W. Deem and Ramdas Pophale) SiO2 
 PCOD8315085
Probable space group: P 4/N M M
;
_chemical_formula_sum "Si O2"
_cell_formula_units_Z 128
_cell_length_a 21.602752
_cell_length_b 21.602752
_cell_length_c 16.985774
_cell_angle_alpha 90.000000
_cell_angle_beta 90.000000
_cell_angle_gamma 90.000000
_cell_volume 7926.902224
_symmetry_space_group_name_H-M "P 4/N M M"
_symmetry_group_IT_number 129
_symmetry_cell_setting 'tetragonal'
loop_
_space_group_symop_operation_xyz
x,y,z
1/2-y,x,z
1/2-x,1/2-y,z
y,1/2-x,z
1/2+x,-y,-z
-x,1/2+y,-z
1/2+y,1/2+x,-z
-y,-x,-z
-x,-y,-z
1/2+y,-x,-z
1/2+x,1/2+y,-z
-y,1/2+x,-z
1/2-x,y,z
x,1/2-y,z
1/2-y,1/2-x,z
y,x,z
loop_
_atom_site_type_symbol
_atom_site_label
_atom_site_fract_x
_atom_site_fract_y
_atom_site_fract_z
Si Si1 0.921021 0.822012 0.253060
Si Si2 0.101533 0.677105 0.062692
Si Si3 0.895565 0.506063 0.124162
Si Si4 0.535145 0.060758 0.257074
Si Si5 0.678484 0.078218 0.505300
Si Si6 0.318846 0.680391 0.784225
Si Si7 0.817639 0.065294 0.686596
Si Si8 0.610835 0.509944 0.384673
O O1 0.910402 0.750000 0.243634
O O2 0.854386 0.854386 0.249472
O O3 0.962913 0.845895 0.181588
O O4 0.953219 0.836940 0.336230
O O5 0.092864 0.750000 0.044838
O O6 0.130991 0.665819 0.148320
O O7 0.034609 0.642027 0.059742
O O8 0.147971 0.647971 0.000000
O O9 0.940575 0.559426 0.086195
O O10 0.938481 0.459219 0.173084
O O11 0.524721 0.134179 0.263280
O O12 0.468234 0.031767 0.270242
O O13 0.580791 0.040462 0.327190
O O14 0.644413 0.144413 0.500000
O O15 0.750000 0.085814 0.477846
O O16 0.675273 0.054947 0.594427
O O17 0.642975 0.025378 0.456424
O O18 0.250000 0.669019 0.751781
O O19 0.325609 0.750000 0.819065
O O20 0.362817 0.670231 0.709207
O O21 0.750000 0.044117 0.715041
O O22 0.558197 0.558197 0.415138
#
# Coordination Sequence:
#
# PCOD8315085 Si02
#       8
#    16  16  16  16  16  16  16  16
#     4   9  17  30  49  72  97 125 159 199 241 289
#     4  11  21  32  50  74  98 125 159 196 234 274
#     4   9  18  32  49  70  95 125 161 194 232 280
#     4   9  16  30  50  70  87 112 155 198 233 278
#     4  11  22  32  43  62  90 123 161 200 238 284
#     4   9  18  32  47  62  87 123 159 194 231 275
#     4  10  19  31  44  63  88 118 156 193 234 283
#     4   9  18  32  49  67  88 118 158 201 247 289
#
# _framework density 16.147542999999999
#
# number of rings (size 3 to 8) (size 9 to 14) (size 15 to 20)
#    0.000    2.375    2.500    2.625    0.000    2.375 
#    0.000    1.250    0.000    0.000    0.000    0.000 
#    0.000    0.250    0.000    2.750    0.000    1.875 
#
# Total GULP energy -1586477.155494 kJ/mol
# GULP energy per Si atom -12394.352777 kJ/mol
# Density = 1.611079 g / cm^3
# Si number density = 16.147543 Si / 1000 Ang^3
#
#
#
# Elastic Constant Matrix: (Units=GPa)
#
#
# Indices 1 2 3 4 5 6 
#
# 1 100.8511 47.5140 22.4551 0.0000 0.0000 0.0000
# 2 47.5140 100.8511 22.4551 0.0000 0.0000 0.0000
# 3 22.4551 22.4551 40.8288 0.0000 0.0000 0.0000
# 4 0.0000 0.0000 0.0000 23.5135 0.0000 0.0000
# 5 0.0000 0.0000 0.0000 0.0000 23.5135 0.0000
# 6 0.0000 0.0000 0.0000 0.0000 0.0000 25.0542
#
#
#
# Elastic Compliance Matrix: (Units=1/GPa)
#
#
# Indices 1 2 3 4 5 6 
#
# 1 0.013418 -0.005331 -0.004447 0.000000 0.000000 0.000000
# 2 -0.005331 0.013418 -0.004447 0.000000 0.000000 0.000000
# 3 -0.004447 -0.004447 0.029384 0.000000 0.000000 0.000000
# 4 0.000000 0.000000 0.000000 0.042529 0.000000 0.000000
# 5 0.000000 0.000000 0.000000 0.000000 0.042529 0.000000
# 6 0.000000 0.000000 0.000000 0.000000 0.000000 0.039913
#
#
# Mechanical properties :
#
#
# Convention : Reuss Voigt Hill
#
# Bulk Modulus (GPa) = 36.01300 47.48657 41.74978
# Shear Modulus (GPa) = 22.84170 24.42337 23.63254
#
# Velocity S-wave (km/s) = 3.76515 3.89332 3.82977
# Velocity P-wave (km/s) = 6.42282 7.04857 6.74296
#
# Compressibility (1/GPa) = 0.02776775
#
# Stress axis : x y z
#
# Youngs Moduli (GPa) = 74.52949 74.52949 34.03168
#
# Poissons Ratio (x) = 0.39733 0.15135
# Poissons Ratio (y) = 0.39733 0.15135
# Poissons Ratio (z) = 0.33146 0.33146
#
# Static dielectric constant tensor:
#      x y z
#    x 3.120510 0.000000 0.000000 
#    y 0.000000 3.120510 0.000000 
#    z 0.000000 0.000000 2.805060 
# 
# 
# High freq. dielectric constant tensor:
#      x y z
#    x 1.616370 0.000000 0.000000 
#    y 0.000000 1.616370 0.000000 
#    z 0.000000 0.000000 1.596760 
# 
# From -- ./inp_files/6137.got.cif
#   From: 2010.03.12/outbox.cif.g09.slc.cpg/sg129_4_cif.got.tgz:6137.got - 2010.04.06 17:19:44.
