data_PCOD8315051
_publ_section_title
;
Structure prediction by ZEFSAII (Michael W. Deem and Ramdas Pophale) SiO2 
 PCOD8315051
Probable space group: P 4/N M M
;
_chemical_formula_sum "Si O2"
_cell_formula_units_Z 112
_cell_length_a 14.875545
_cell_length_b 14.875545
_cell_length_c 30.884511
_cell_angle_alpha 90.000000
_cell_angle_beta 90.000000
_cell_angle_gamma 90.000000
_cell_volume 6834.181392
_symmetry_space_group_name_H-M "P 4/N M M"
_symmetry_group_IT_number 129
_symmetry_cell_setting 'tetragonal'
loop_
_space_group_symop_operation_xyz
x,y,z
1/2-y,x,z
1/2-x,1/2-y,z
y,1/2-x,z
1/2+x,-y,-z
-x,1/2+y,-z
1/2+y,1/2+x,-z
-y,-x,-z
-x,-y,-z
1/2+y,-x,-z
1/2+x,1/2+y,-z
-y,1/2+x,-z
1/2-x,y,z
x,1/2-y,z
1/2-y,1/2-x,z
y,x,z
loop_
_atom_site_type_symbol
_atom_site_label
_atom_site_fract_x
_atom_site_fract_y
_atom_site_fract_z
Si Si1 0.846620 0.986967 0.971567
Si Si2 0.647514 0.503146 0.620815
Si Si3 0.067547 0.849842 0.062719
Si Si4 0.004928 0.856729 0.519687
Si Si5 0.650594 0.356554 0.779577
Si Si6 0.643399 0.150607 0.683515
Si Si7 0.854179 0.502995 0.156864
O O1 0.750000 0.944023 0.962020
O O2 0.921598 0.921598 0.952520
O O3 0.851715 0.081100 0.945890
O O4 0.859620 0.997925 0.023074
O O5 0.750000 0.523379 0.634161
O O6 0.591658 0.591658 0.632597
O O7 0.639684 0.478764 0.570695
O O8 0.607225 0.419219 0.647815
O O9 0.109665 0.750000 0.064511
O O10 0.015866 0.871880 0.106597
O O11 0.092585 0.907416 0.500000
O O12 0.997985 0.750000 0.504994
O O13 0.912659 0.912659 0.507669
O O14 0.750000 0.397549 0.789040
O O15 0.657754 0.250000 0.782028
O O16 0.616324 0.383775 0.731551
O O17 0.580907 0.392032 0.815383
O O18 0.750000 0.157723 0.680836
O O19 0.602199 0.250000 0.674210
O O20 0.750000 0.521399 0.166928
O O21 0.908259 0.591742 0.170470
#
# Coordination Sequence:
#
# PCOD8315051 Si02
#       7
#    16  16  16  16  16  16  16
#     4  10  19  31  47  65  88 115 140 170 207 249
#     4   9  17  28  43  64  89 117 146 176 214 260
#     4   9  18  32  48  64  84 111 142 178 216 247
#     4   9  18  31  45  64  91 120 152 190 229 271
#     4   8  15  28  44  62  85 112 142 179 218 250
#     4   8  14  26  43  62  85 111 141 179 219 256
#     4  10  19  30  45  65  89 115 142 171 205 250
#
# _framework density 16.388210999999998
#
# number of rings (size 3 to 8) (size 9 to 14) (size 15 to 20)
#    0.000    3.000    0.000    2.571    0.000    2.714 
#    0.000    5.714    0.000    2.571    0.000    0.000 
#    0.000    0.571    0.000    0.571    0.000    0.286 
#
# Total GULP energy -1387854.256633 kJ/mol
# GULP energy per Si atom -12391.555863 kJ/mol
# Density = 1.635091 g / cm^3
# Si number density = 16.388211 Si / 1000 Ang^3
#
#
#
# Elastic Constant Matrix: (Units=GPa)
#
#
# Indices 1 2 3 4 5 6 
#
# 1 93.0480 57.4081 41.9684 0.0000 0.0000 0.0000
# 2 57.4081 93.0485 41.9682 0.0000 0.0000 0.0000
# 3 41.9684 41.9682 56.1866 0.0000 0.0000 0.0000
# 4 0.0000 0.0000 0.0000 16.8831 0.0000 0.0000
# 5 0.0000 0.0000 0.0000 0.0000 16.8831 0.0000
# 6 0.0000 0.0000 0.0000 0.0000 0.0000 17.0574
#
#
#
# Elastic Compliance Matrix: (Units=1/GPa)
#
#
# Indices 1 2 3 4 5 6 
#
# 1 0.019727 -0.008332 -0.008511 0.000000 0.000000 0.000000
# 2 -0.008332 0.019726 -0.008511 0.000000 0.000000 0.000000
# 3 -0.008511 -0.008511 0.030513 0.000000 0.000000 0.000000
# 4 0.000000 0.000000 0.000000 0.059231 0.000000 0.000000
# 5 0.000000 0.000000 0.000000 0.000000 0.059231 0.000000
# 6 0.000000 0.000000 0.000000 0.000000 0.000000 0.058626
#
#
# Mechanical properties :
#
#
# Convention : Reuss Voigt Hill
#
# Bulk Modulus (GPa) = 51.92867 58.33030 55.12949
# Shear Modulus (GPa) = 16.43764 16.89396 16.66580
#
# Velocity S-wave (km/s) = 3.17048 3.21418 3.19241
# Velocity P-wave (km/s) = 6.71997 7.03170 6.87760
#
# Compressibility (1/GPa) = 0.01925718
#
# Stress axis : x y z
#
# Youngs Moduli (GPa) = 50.69303 50.69365 32.77338
#
# Poissons Ratio (x) = 0.42237 0.27894
# Poissons Ratio (y) = 0.42236 0.27894
# Poissons Ratio (z) = 0.43146 0.43146
#
# Static dielectric constant tensor:
#      x y z
#    x 3.109130 0.000000 0.000000 
#    y 0.000000 3.109130 0.000000 
#    z 0.000000 0.000000 3.163510 
# 
# 
# High freq. dielectric constant tensor:
#      x y z
#    x 1.614400 0.000000 0.000000 
#    y 0.000000 1.614400 0.000000 
#    z 0.000000 0.000000 1.623550 
# 
# From -- ./inp_files/7557.got.cif
#   From: 2010.03.12/outbox.cif.g09.slc.cpg/sg129_4_cif.got.tgz:7557.got - 2010.04.06 17:19:44.
