data_PCOD8315072
_publ_section_title
;
Structure prediction by ZEFSAII (Michael W. Deem and Ramdas Pophale) SiO2 
 PCOD8315072
Probable space group: P 4/N M M
;
_chemical_formula_sum "Si O2"
_cell_formula_units_Z 128
_cell_length_a 17.387068
_cell_length_b 17.387068
_cell_length_c 25.064232
_cell_angle_alpha 90.000000
_cell_angle_beta 90.000000
_cell_angle_gamma 90.000000
_cell_volume 7577.171325
_symmetry_space_group_name_H-M "P 4/N M M"
_symmetry_group_IT_number 129
_symmetry_cell_setting 'tetragonal'
loop_
_space_group_symop_operation_xyz
x,y,z
1/2-y,x,z
1/2-x,1/2-y,z
y,1/2-x,z
1/2+x,-y,-z
-x,1/2+y,-z
1/2+y,1/2+x,-z
-y,-x,-z
-x,-y,-z
1/2+y,-x,-z
1/2+x,1/2+y,-z
-y,1/2+x,-z
1/2-x,y,z
x,1/2-y,z
1/2-y,1/2-x,z
y,x,z
loop_
_atom_site_type_symbol
_atom_site_label
_atom_site_fract_x
_atom_site_fract_y
_atom_site_fract_z
Si Si1 0.983844 0.336770 0.931902
Si Si2 0.843272 0.969224 0.500390
Si Si3 0.395815 0.664768 0.891582
Si Si4 0.458803 0.338852 0.043355
Si Si5 0.337802 0.621886 0.781924
Si Si6 0.956962 0.662084 0.179960
Si Si7 0.937160 0.062228 0.415927
Si Si8 0.662195 0.160672 0.663426
O O1 0.010563 0.250000 0.935920
O O2 0.892175 0.339283 0.922886
O O3 0.023634 0.371695 0.879057
O O4 0.008555 0.375299 0.987698
O O5 0.750000 0.959765 0.500480
O O6 0.885032 0.885032 0.500293
O O7 0.871567 0.018149 0.449540
O O8 0.871841 0.017935 0.551278
O O9 0.373942 0.750000 0.910904
O O10 0.482442 0.644441 0.908790
O O11 0.390883 0.658730 0.827577
O O12 0.439702 0.250000 0.037451
O O13 0.380219 0.380219 0.058745
O O14 0.250000 0.644334 0.795555
O O15 0.346958 0.529756 0.781143
O O16 0.362541 0.656028 0.725354
O O17 0.929752 0.750000 0.177115
O O18 0.887665 0.612336 0.204362
O O19 0.894375 0.104050 0.367669
O O20 0.999454 0.999454 0.395228
O O21 0.750000 0.147484 0.644309
O O22 0.638716 0.250000 0.655145
#
# Coordination Sequence:
#
# PCOD8315072 Si02
#       8
#    16  16  16  16  16  16  16  16
#     4   9  18  31  46  66  91 116 142 173 211 260
#     4   9  17  30  48  70  99 134 169 203 238 277
#     4  10  19  30  46  67  90 116 144 175 214 261
#     4  10  21  35  49  66  86 108 139 177 216 262
#     4   9  19  33  47  66  92 121 152 185 224 271
#     4   9  17  29  45  65  89 118 152 188 227 271
#     4   9  18  31  47  70 101 134 163 196 241 287
#     4  10  19  31  50  74  97 123 159 202 242 280
#
# _framework density 16.892848000000001
#
# number of rings (size 3 to 8) (size 9 to 14) (size 15 to 20)
#    0.000    2.625    0.000    3.750    0.000    5.375 
#    0.000    0.625    0.000    9.750    0.000    0.000 
#    0.000    3.000    0.000    4.125    0.000    0.125 
#
# Total GULP energy -1586227.730048 kJ/mol
# GULP energy per Si atom -12392.404141 kJ/mol
# Density = 1.685440 g / cm^3
# Si number density = 16.892848 Si / 1000 Ang^3
#
#
#
# Elastic Constant Matrix: (Units=GPa)
#
#
# Indices 1 2 3 4 5 6 
#
# 1 79.3109 43.7327 34.0802 0.0000 0.0000 0.0000
# 2 43.7327 79.3109 34.0802 0.0000 0.0000 0.0000
# 3 34.0802 34.0802 75.9907 0.0000 0.0000 0.0000
# 4 0.0000 0.0000 0.0000 16.9438 0.0000 0.0000
# 5 0.0000 0.0000 0.0000 0.0000 16.9438 0.0000
# 6 0.0000 0.0000 0.0000 0.0000 0.0000 28.9093
#
#
#
# Elastic Compliance Matrix: (Units=1/GPa)
#
#
# Indices 1 2 3 4 5 6 
#
# 1 0.019460 -0.008647 -0.004850 0.000000 0.000000 0.000000
# 2 -0.008647 0.019460 -0.004850 0.000000 0.000000 0.000000
# 3 -0.004850 -0.004850 0.017510 0.000000 0.000000 0.000000
# 4 0.000000 0.000000 0.000000 0.059019 0.000000 0.000000
# 5 0.000000 0.000000 0.000000 0.000000 0.059019 0.000000
# 6 0.000000 0.000000 0.000000 0.000000 0.000000 0.034591
#
#
# Mechanical properties :
#
#
# Convention : Reuss Voigt Hill
#
# Bulk Modulus (GPa) = 50.66358 50.93321 50.79839
# Shear Modulus (GPa) = 19.81530 20.74067 20.27798
#
# Velocity S-wave (km/s) = 3.42862 3.50777 3.46842
# Velocity P-wave (km/s) = 6.76241 6.82804 6.79530
#
# Compressibility (1/GPa) = 0.01973804
#
# Stress axis : x y z
#
# Youngs Moduli (GPa) = 51.38640 51.38640 57.11182
#
# Poissons Ratio (x) = 0.44432 0.27698
# Poissons Ratio (y) = 0.44432 0.27698
# Poissons Ratio (z) = 0.24921 0.24921
#
# Static dielectric constant tensor:
#      x y z
#    x 3.085620 0.000000 0.000000 
#    y 0.000000 3.085620 0.000000 
#    z 0.000000 0.000000 3.066770 
# 
# 
# High freq. dielectric constant tensor:
#      x y z
#    x 1.645650 0.000000 0.000000 
#    y 0.000000 1.645650 0.000000 
#    z 0.000000 0.000000 1.634510 
# 
# From -- ./inp_files/7296.got.cif
#   From: 2010.03.12/outbox.cif.g09.slc.cpg/sg129_4_cif.got.tgz:7296.got - 2010.04.06 17:19:44.
