data_PCOD8315013
_publ_section_title
;
Structure prediction by ZEFSAII (Michael W. Deem and Ramdas Pophale) SiO2 
 PCOD8315013
Probable space group: P 4/N M M
;
_chemical_formula_sum "Si O2"
_cell_formula_units_Z 72
_cell_length_a 13.800241
_cell_length_b 13.800241
_cell_length_c 23.207859
_cell_angle_alpha 90.000000
_cell_angle_beta 90.000000
_cell_angle_gamma 90.000000
_cell_volume 4419.859039
_symmetry_space_group_name_H-M "P 4/N M M"
_symmetry_group_IT_number 129
_symmetry_cell_setting 'tetragonal'
loop_
_space_group_symop_operation_xyz
x,y,z
1/2-y,x,z
1/2-x,1/2-y,z
y,1/2-x,z
1/2+x,-y,-z
-x,1/2+y,-z
1/2+y,1/2+x,-z
-y,-x,-z
-x,-y,-z
1/2+y,-x,-z
1/2+x,1/2+y,-z
-y,1/2+x,-z
1/2-x,y,z
x,1/2-y,z
1/2-y,1/2-x,z
y,x,z
loop_
_atom_site_type_symbol
_atom_site_label
_atom_site_fract_x
_atom_site_fract_y
_atom_site_fract_z
Si Si1 0.361568 0.861568 0.500000
Si Si2 0.357853 0.864669 0.844022
Si Si3 0.982912 0.136035 0.389141
Si Si4 0.365070 0.641826 0.283448
Si Si5 0.477537 0.634650 0.953084
O O1 0.380484 0.750000 0.485010
O O2 0.395073 0.921531 0.444679
O O3 0.250000 0.907203 0.856809
O O4 0.350181 0.750000 0.845866
O O5 0.393249 0.898191 0.780368
O O6 0.435034 0.898935 0.891376
O O7 0.998912 0.250000 0.385865
O O8 0.929144 0.094372 0.332457
O O9 0.088054 0.088054 0.392848
O O10 0.250000 0.643720 0.287609
O O11 0.405191 0.750000 0.294740
O O12 0.494623 0.750000 0.957549
O O13 0.580040 0.580040 0.962461
O O14 0.398650 0.601351 0.000000
#
# Coordination Sequence:
#
# PCOD8315013 Si02
#       5
#     8  16  16  16  16
#     4   9  17  30  48  66  81 101 136 184 232 267
#     4   8  14  26  45  66  86 110 142 181 222 261
#     4  10  19  29  42  61  87 117 145 174 211 261
#     4   8  14  26  44  64  84 108 142 183 221 251
#     4  10  20  32  47  68  93 122 156 192 231 277
#
# _framework density 16.290112000000001
#
# number of rings (size 3 to 8) (size 9 to 14) (size 15 to 20)
#    0.000    3.000    0.000    3.000    0.000    5.111 
#    0.000    0.000    0.000    0.000    0.000    6.222 
#    0.000    4.000    0.000   16.444    0.000    1.778 
#
# Total GULP energy -892344.989730 kJ/mol
# GULP energy per Si atom -12393.680413 kJ/mol
# Density = 1.625303 g / cm^3
# Si number density = 16.290112 Si / 1000 Ang^3
#
#
#
# Elastic Constant Matrix: (Units=GPa)
#
#
# Indices 1 2 3 4 5 6 
#
# 1 62.4903 38.4208 46.7334 0.0000 0.0000 0.0000
# 2 38.4208 62.4899 46.7331 0.0000 0.0000 0.0000
# 3 46.7334 46.7331 131.7708 0.0000 0.0000 0.0000
# 4 0.0000 0.0000 0.0000 16.0458 0.0000 0.0000
# 5 0.0000 0.0000 0.0000 0.0000 16.0458 0.0000
# 6 0.0000 0.0000 0.0000 0.0000 0.0000 17.7212
#
#
#
# Elastic Compliance Matrix: (Units=1/GPa)
#
#
# Indices 1 2 3 4 5 6 
#
# 1 0.028152 -0.013395 -0.005234 0.000000 0.000000 0.000000
# 2 -0.013395 0.028152 -0.005234 0.000000 0.000000 0.000000
# 3 -0.005234 -0.005234 0.011301 0.000000 0.000000 0.000000
# 4 0.000000 0.000000 0.000000 0.062322 0.000000 0.000000
# 5 0.000000 0.000000 0.000000 0.000000 0.062322 0.000000
# 6 0.000000 0.000000 0.000000 0.000000 0.000000 0.056430
#
#
# Mechanical properties :
#
#
# Convention : Reuss Voigt Hill
#
# Bulk Modulus (GPa) = 50.29936 57.83618 54.06777
# Shear Modulus (GPa) = 16.50003 18.28681 17.39342
#
# Velocity S-wave (km/s) = 3.18604 3.35411 3.27116
# Velocity P-wave (km/s) = 6.66924 7.11204 6.89419
#
# Compressibility (1/GPa) = 0.01988097
#
# Stress axis : x y z
#
# Youngs Moduli (GPa) = 35.52143 35.52123 88.48521
#
# Poissons Ratio (x) = 0.47580 0.46311
# Poissons Ratio (y) = 0.47580 0.46311
# Poissons Ratio (z) = 0.18591 0.18591
#
# Static dielectric constant tensor:
#      x y z
#    x 2.811220 0.000000 0.000000 
#    y 0.000000 2.811220 0.000000 
#    z 0.000000 0.000000 3.507570 
# 
# 
# High freq. dielectric constant tensor:
#      x y z
#    x 1.597560 0.000000 0.000000 
#    y 0.000000 1.597560 0.000000 
#    z 0.000000 0.000000 1.648220 
# 
# From -- ./inp_files/7429.got.cif
#   From: 2010.03.12/outbox.cif.g09.slc.cpg/sg129_4_cif.got.tgz:7429.got - 2010.04.06 17:19:44.
