data_PCOD8315855
_publ_section_title
;
Structure prediction by ZEFSAII (Michael W. Deem and Ramdas Pophale) SiO2 
 PCOD8315855
Probable space group: P 42/M M C
;
_chemical_formula_sum "Si O2"
_cell_formula_units_Z 88
_cell_length_a 14.258837
_cell_length_b 14.258837
_cell_length_c 27.514328
_cell_angle_alpha 90.000000
_cell_angle_beta 90.000000
_cell_angle_gamma 90.000000
_cell_volume 5594.059985
_symmetry_space_group_name_H-M "P 42/M M C"
_symmetry_group_IT_number 131
_symmetry_cell_setting 'tetragonal'
loop_
_space_group_symop_operation_xyz
x,y,z
-x,-y,z
-y,x,1/2+z
y,-x,1/2+z
-x,y,-z
x,-y,-z
y,x,1/2-z
-y,-x,1/2-z
-x,-y,-z
x,y,-z
y,-x,1/2-z
-y,x,1/2-z
x,-y,z
-x,y,z
-y,-x,1/2+z
y,x,1/2+z
loop_
_atom_site_type_symbol
_atom_site_label
_atom_site_fract_x
_atom_site_fract_y
_atom_site_fract_z
Si Si1 0.730595 0.390353 0.380304
Si Si2 0.897538 0.388698 0.446079
Si Si3 0.611076 0.216760 0.596330
Si Si4 0.250187 0.607616 0.731767
Si Si5 0.611551 0.108099 0.500000
Si Si6 0.611399 0.104479 0.309588
O O1 0.704850 0.500000 0.390592
O O2 0.819674 0.351847 0.409600
O O3 0.645746 0.324186 0.397638
O O4 0.761870 0.375410 0.325072
O O5 0.874011 0.351550 0.500000
O O6 0.898084 0.500000 0.445891
O O7 0.000000 0.351503 0.429704
O O8 0.500000 0.222906 0.595415
O O9 0.647746 0.164842 0.547521
O O10 0.648112 0.156928 0.642198
O O11 0.343600 0.656401 0.750000
O O12 0.265477 0.500000 0.744817
O O13 0.159671 0.645665 0.761307
O O14 0.500000 0.104651 0.500000
O O15 0.649416 0.000000 0.500000
O O16 0.500000 0.098135 0.311162
O O17 0.654737 0.000000 0.307889
#
# Coordination Sequence:
#
# PCOD8315855 Si02
#       6
#    16  16  16  16   8  16
#     4  10  20  30  45  68  97 129 157 188 225 272
#     4   8  15  29  47  65  87 117 151 186 227 273
#     4  10  19  31  46  67  96 127 159 191 225 272
#     4  10  19  31  44  64  93 124 158 191 222 266
#     4   9  18  32  49  67  88 119 159 203 245 274
#     4   9  17  30  48  66  87 119 156 196 238 271
#
# _framework density 15.730971
#
# number of rings (size 3 to 8) (size 9 to 14) (size 15 to 20)
#    0.000    2.636    1.818    1.091    1.273    3.455 
#    0.000    5.455    0.000    1.636    0.000    0.000 
#    0.000    5.455    0.000    0.000    0.000    0.000 
#
# Total GULP energy -1090656.780036 kJ/mol
# GULP energy per Si atom -12393.827046 kJ/mol
# Density = 1.569517 g / cm^3
# Si number density = 15.730971 Si / 1000 Ang^3
#
#
#
# Elastic Constant Matrix: (Units=GPa)
#
#
# Indices 1 2 3 4 5 6 
#
# 1 68.5687 37.0825 46.1383 0.0000 0.0000 0.0000
# 2 37.0825 68.5720 46.1376 0.0000 0.0000 0.0000
# 3 46.1383 46.1376 109.7361 0.0000 0.0000 0.0000
# 4 0.0000 0.0000 0.0000 23.4463 0.0000 0.0000
# 5 0.0000 0.0000 0.0000 0.0000 23.4467 0.0000
# 6 0.0000 0.0000 0.0000 0.0000 0.0000 3.2022
#
#
#
# Elastic Compliance Matrix: (Units=1/GPa)
#
#
# Indices 1 2 3 4 5 6 
#
# 1 0.023359 -0.008400 -0.006289 0.000000 0.000000 0.000000
# 2 -0.008400 0.023357 -0.006288 0.000000 0.000000 0.000000
# 3 -0.006289 -0.006288 0.014401 0.000000 0.000000 0.000000
# 4 0.000000 0.000000 0.000000 0.042651 0.000000 0.000000
# 5 0.000000 0.000000 0.000000 0.000000 0.042650 0.000000
# 6 0.000000 0.000000 0.000000 0.000000 0.000000 0.312283
#
#
# Mechanical properties :
#
#
# Convention : Reuss Voigt Hill
#
# Bulk Modulus (GPa) = 52.18996 56.17708 54.18352
# Shear Modulus (GPa) = 9.86110 17.85361 13.85735
#
# Velocity S-wave (km/s) = 2.50643 3.37253 2.97121
# Velocity P-wave (km/s) = 6.45173 7.13820 6.80363
#
# Compressibility (1/GPa) = 0.01916077
#
# Stress axis : x y z
#
# Youngs Moduli (GPa) = 42.81032 42.81372 69.43975
#
# Poissons Ratio (x) = 0.35965 0.43673
# Poissons Ratio (y) = 0.35962 0.43666
# Poissons Ratio (z) = 0.26925 0.26923
#
# Static dielectric constant tensor:
#      x y z
#    x 2.928360 0.000000 0.000000 
#    y 0.000000 2.928360 0.000000 
#    z 0.000000 0.000000 3.349120 
# 
# 
# High freq. dielectric constant tensor:
#      x y z
#    x 1.575280 0.000000 0.000000 
#    y 0.000000 1.575280 0.000000 
#    z 0.000000 0.000000 1.622300 
# 
# From -- ./inp_files/11082.got.cif
#   From: 2010.03.12/outbox.cif.g09.slc.cpg/sg131_6_cif.got.tgz:11082.got - 2010.04.06 17:36:35.
