data_PCOD8315062
_publ_section_title
;
Structure prediction by ZEFSAII (Michael W. Deem and Ramdas Pophale) SiO2 
 PCOD8315062
Probable space group: P 4/N M M
;
_chemical_formula_sum "Si O2"
_cell_formula_units_Z 104
_cell_length_a 18.690686
_cell_length_b 18.690686
_cell_length_c 18.245742
_cell_angle_alpha 90.000000
_cell_angle_beta 90.000000
_cell_angle_gamma 90.000000
_cell_volume 6373.999315
_symmetry_space_group_name_H-M "P 4/N M M"
_symmetry_group_IT_number 129
_symmetry_cell_setting 'tetragonal'
loop_
_space_group_symop_operation_xyz
x,y,z
1/2-y,x,z
1/2-x,1/2-y,z
y,1/2-x,z
1/2+x,-y,-z
-x,1/2+y,-z
1/2+y,1/2+x,-z
-y,-x,-z
-x,-y,-z
1/2+y,-x,-z
1/2+x,1/2+y,-z
-y,1/2+x,-z
1/2-x,y,z
x,1/2-y,z
1/2-y,1/2-x,z
y,x,z
loop_
_atom_site_type_symbol
_atom_site_label
_atom_site_fract_x
_atom_site_fract_y
_atom_site_fract_z
Si Si1 0.166971 0.543298 0.137404
Si Si2 0.667433 0.950492 0.722993
Si Si3 0.670266 0.555408 0.160534
Si Si4 0.667663 0.332338 0.500000
Si Si5 0.947369 0.667817 0.993607
Si Si6 0.831721 0.096733 0.215753
Si Si7 0.167291 0.595729 0.350604
O O1 0.250000 0.561299 0.141631
O O2 0.147209 0.484266 0.198531
O O3 0.127566 0.618070 0.151692
O O4 0.143583 0.513037 0.058259
O O5 0.750000 0.924942 0.721232
O O6 0.617486 0.882515 0.706554
O O7 0.653345 0.011325 0.661358
O O8 0.750000 0.587698 0.165244
O O9 0.616530 0.616530 0.186600
O O10 0.654973 0.529397 0.077379
O O11 0.661324 0.488911 0.214665
O O12 0.750000 0.344728 0.477098
O O13 0.616783 0.354546 0.432808
O O14 0.927868 0.750000 0.977081
O O15 0.876923 0.623078 0.973936
O O16 0.750000 0.120490 0.200370
O O17 0.856148 0.121592 0.295520
O O18 0.250000 0.614136 0.335019
#
# Coordination Sequence:
#
# PCOD8315062 Si02
#       7
#    16  16  16   8  16  16  16
#     4   9  18  30  44  63  88 119 151 186 229 269
#     4   9  17  29  44  64  91 122 156 190 224 266
#     4   9  19  33  48  67  88 112 146 189 233 273
#     4   9  16  28  49  74  96 118 145 176 214 263
#     4   9  17  30  46  64  87 113 146 189 233 274
#     4  10  19  30  45  66  91 118 150 182 211 257
#     4   9  18  31  48  71  97 122 146 178 221 265
#
# _framework density 16.316286000000002
#
# number of rings (size 3 to 8) (size 9 to 14) (size 15 to 20)
#    0.000    2.846    0.000    2.308    0.000    6.000 
#    0.000    3.462    0.000    3.692    0.000    8.615 
#    0.000    0.000    0.000    8.000    0.000    0.154 
#
# Total GULP energy -1289466.740155 kJ/mol
# GULP energy per Si atom -12398.718655 kJ/mol
# Density = 1.627915 g / cm^3
# Si number density = 16.316286 Si / 1000 Ang^3
#
#
#
# Elastic Constant Matrix: (Units=GPa)
#
#
# Indices 1 2 3 4 5 6 
#
# 1 94.0412 65.2567 44.1869 0.0000 0.0000 0.0000
# 2 65.2567 94.0407 44.1870 0.0000 0.0000 0.0000
# 3 44.1869 44.1870 72.2762 0.0000 0.0000 0.0000
# 4 0.0000 0.0000 0.0000 21.3262 0.0000 0.0000
# 5 0.0000 0.0000 0.0000 0.0000 21.3261 0.0000
# 6 0.0000 0.0000 0.0000 0.0000 0.0000 31.3031
#
#
#
# Elastic Compliance Matrix: (Units=1/GPa)
#
#
# Indices 1 2 3 4 5 6 
#
# 1 0.022120 -0.012621 -0.005808 0.000000 0.000000 0.000000
# 2 -0.012621 0.022120 -0.005808 0.000000 0.000000 0.000000
# 3 -0.005808 -0.005808 0.020937 0.000000 0.000000 0.000000
# 4 0.000000 0.000000 0.000000 0.046891 0.000000 0.000000
# 5 0.000000 0.000000 0.000000 0.000000 0.046891 0.000000
# 6 0.000000 0.000000 0.000000 0.000000 0.000000 0.031946
#
#
# Mechanical properties :
#
#
# Convention : Reuss Voigt Hill
#
# Bulk Modulus (GPa) = 59.86088 63.06880 61.46484
# Shear Modulus (GPa) = 20.41271 21.90625 21.15948
#
# Velocity S-wave (km/s) = 3.54087 3.66813 3.60506
# Velocity P-wave (km/s) = 7.31331 7.52848 7.42168
#
# Compressibility (1/GPa) = 0.01670540
#
# Stress axis : x y z
#
# Youngs Moduli (GPa) = 45.20755 45.20713 47.76252
#
# Poissons Ratio (x) = 0.57055 0.27738
# Poissons Ratio (y) = 0.57056 0.27739
# Poissons Ratio (z) = 0.26254 0.26255
#
# Static dielectric constant tensor:
#      x y z
#    x 3.025060 0.000000 0.000000 
#    y 0.000000 3.025070 0.000000 
#    z 0.000000 0.000000 3.004850 
# 
# 
# High freq. dielectric constant tensor:
#      x y z
#    x 1.623270 0.000000 0.000000 
#    y 0.000000 1.623270 0.000000 
#    z 0.000000 0.000000 1.608130 
# 
# From -- ./inp_files/5813.got.cif
#   From: 2010.03.12/outbox.cif.g09.slc.cpg/sg129_3_cif.got.tgz:5813.got - 2010.04.06 17:19:44.
