data_PCOD8315437
_publ_section_title
;
Structure prediction by ZEFSAII (Michael W. Deem and Ramdas Pophale) SiO2 
 PCOD8315437
Probable space group: P 4/N M M
;
_chemical_formula_sum "Si O2"
_cell_formula_units_Z 112
_cell_length_a 17.975898
_cell_length_b 17.975898
_cell_length_c 21.542765
_cell_angle_alpha 90.000000
_cell_angle_beta 90.000000
_cell_angle_gamma 90.000000
_cell_volume 6961.176320
_symmetry_space_group_name_H-M "P 4/N M M"
_symmetry_group_IT_number 129
_symmetry_cell_setting 'tetragonal'
loop_
_space_group_symop_operation_xyz
x,y,z
1/2-y,x,z
1/2-x,1/2-y,z
y,1/2-x,z
1/2+x,-y,-z
-x,1/2+y,-z
1/2+y,1/2+x,-z
-y,-x,-z
-x,-y,-z
1/2+y,-x,-z
1/2+x,1/2+y,-z
-y,1/2+x,-z
1/2-x,y,z
x,1/2-y,z
1/2-y,1/2-x,z
y,x,z
loop_
_atom_site_type_symbol
_atom_site_label
_atom_site_fract_x
_atom_site_fract_y
_atom_site_fract_z
Si Si1 0.834626 0.437217 0.537890
Si Si2 0.435725 0.557777 0.647623
Si Si3 0.337766 0.038098 0.135194
Si Si4 0.562456 0.062334 0.787306
Si Si5 0.665294 0.954010 0.429011
Si Si6 0.451308 0.166469 0.999728
Si Si7 0.537929 0.837804 0.135804
O O1 0.869352 0.369352 0.500000
O O2 0.750000 0.416495 0.549686
O O3 0.871019 0.449260 0.604738
O O4 0.844362 0.511993 0.497651
O O5 0.511243 0.511243 0.646099
O O6 0.416608 0.584521 0.717019
O O7 0.367416 0.509159 0.622566
O O8 0.250000 0.054586 0.147661
O O9 0.386308 0.113693 0.146654
O O10 0.351544 0.006423 0.064611
O O11 0.364609 0.971036 0.179356
O O12 0.529799 0.135867 0.820452
O O13 0.498640 0.001361 0.789011
O O14 0.750000 0.939739 0.411270
O O15 0.624830 0.875170 0.427672
O O16 0.425617 0.250000 0.999758
O O17 0.373515 0.126486 0.999922
O O18 0.493464 0.148321 0.934889
O O19 0.554651 0.750000 0.148065
O O20 0.613437 0.886564 0.147436
#
# Coordination Sequence:
#
# PCOD8315437 Si02
#       7
#    16  16  16  16  16  16  16
#     4   9  17  29  46  67  88 111 140 174 213 254
#     4   9  17  30  46  63  86 116 149 180 210 250
#     4   9  17  29  45  66  91 117 147 183 223 268
#     4   9  18  30  44  64  89 118 150 185 223 260
#     4   9  17  29  46  68  92 117 145 177 213 254
#     4   8  14  24  39  61  87 114 144 179 221 267
#     4   9  17  29  45  65  89 117 149 185 226 270
#
# _framework density 16.089234999999999
#
# number of rings (size 3 to 8) (size 9 to 14) (size 15 to 20)
#    0.000    3.143    0.000    0.429    0.000    4.143 
#    0.000    5.714    0.000    0.429    0.000    6.000 
#    0.000    6.857    0.000    0.000    0.000    0.000 
#
# Total GULP energy -1387606.521456 kJ/mol
# GULP energy per Si atom -12389.343942 kJ/mol
# Density = 1.605262 g / cm^3
# Si number density = 16.089235 Si / 1000 Ang^3
#
#
#
# Elastic Constant Matrix: (Units=GPa)
#
#
# Indices 1 2 3 4 5 6 
#
# 1 76.3915 34.3699 46.3685 0.0000 0.0000 0.0000
# 2 34.3699 76.3915 46.3685 0.0000 0.0000 0.0000
# 3 46.3685 46.3685 139.5024 0.0000 0.0000 0.0000
# 4 0.0000 0.0000 0.0000 18.3039 0.0000 0.0000
# 5 0.0000 0.0000 0.0000 0.0000 18.3039 0.0000
# 6 0.0000 0.0000 0.0000 0.0000 0.0000 14.6915
#
#
#
# Elastic Compliance Matrix: (Units=1/GPa)
#
#
# Indices 1 2 3 4 5 6 
#
# 1 0.018154 -0.005644 -0.004158 0.000000 0.000000 0.000000
# 2 -0.005644 0.018154 -0.004158 0.000000 0.000000 0.000000
# 3 -0.004158 -0.004158 0.009933 0.000000 0.000000 0.000000
# 4 0.000000 0.000000 0.000000 0.054633 0.000000 0.000000
# 5 0.000000 0.000000 0.000000 0.000000 0.054633 0.000000
# 6 0.000000 0.000000 0.000000 0.000000 0.000000 0.068067
#
#
# Mechanical properties :
#
#
# Convention : Reuss Voigt Hill
#
# Bulk Modulus (GPa) = 54.58557 60.72212 57.65385
# Shear Modulus (GPa) = 19.41002 21.27176 20.34089
#
# Velocity S-wave (km/s) = 3.47709 3.64003 3.55949
# Velocity P-wave (km/s) = 7.07959 7.44911 7.26670
#
# Compressibility (1/GPa) = 0.01831986
#
# Stress axis : x y z
#
# Youngs Moduli (GPa) = 55.08558 55.08558 100.67957
#
# Poissons Ratio (x) = 0.31089 0.41863
# Poissons Ratio (y) = 0.31089 0.41863
# Poissons Ratio (z) = 0.22905 0.22905
#
# Static dielectric constant tensor:
#      x y z
#    x 2.891760 0.000000 0.000000 
#    y 0.000000 2.891760 0.000000 
#    z 0.000000 0.000000 3.387830 
# 
# 
# High freq. dielectric constant tensor:
#      x y z
#    x 1.599050 0.000000 0.000000 
#    y 0.000000 1.599050 0.000000 
#    z 0.000000 0.000000 1.628910 
# 
# From -- ./inp_files/6642.got.cif
#   From: 2010.03.12/outbox.cif.g09.slc.cpg/sg129_4_cif.got.tgz:6642.got - 2010.04.06 17:19:44.
