data_PCOD8315194
_publ_section_title
;
Structure prediction by ZEFSAII (Michael W. Deem and Ramdas Pophale) SiO2 
 PCOD8315194
Probable space group: P 4/N M M
;
_chemical_formula_sum "Si O2"
_cell_formula_units_Z 96
_cell_length_a 20.688423
_cell_length_b 20.688423
_cell_length_c 12.096355
_cell_angle_alpha 90.000000
_cell_angle_beta 90.000000
_cell_angle_gamma 90.000000
_cell_volume 5177.371140
_symmetry_space_group_name_H-M "P 4/N M M"
_symmetry_group_IT_number 129
_symmetry_cell_setting 'tetragonal'
loop_
_space_group_symop_operation_xyz
x,y,z
1/2-y,x,z
1/2-x,1/2-y,z
y,1/2-x,z
1/2+x,-y,-z
-x,1/2+y,-z
1/2+y,1/2+x,-z
-y,-x,-z
-x,-y,-z
1/2+y,-x,-z
1/2+x,1/2+y,-z
-y,1/2+x,-z
1/2-x,y,z
x,1/2-y,z
1/2-y,1/2-x,z
y,x,z
loop_
_atom_site_type_symbol
_atom_site_label
_atom_site_fract_x
_atom_site_fract_y
_atom_site_fract_z
Si Si1 0.360697 0.821896 0.615851
Si Si2 0.323402 0.489540 0.379550
Si Si3 0.822006 0.426058 0.004756
Si Si4 0.444952 0.642473 0.244516
Si Si5 0.904138 0.494831 0.825299
Si Si6 0.430387 0.174560 0.610896
O O1 0.323574 0.823574 0.500000
O O2 0.349974 0.750000 0.668126
O O3 0.435722 0.834293 0.589955
O O4 0.334639 0.877430 0.698466
O O5 0.250000 0.475773 0.346496
O O6 0.366033 0.470358 0.274067
O O7 0.343163 0.446635 0.484479
O O8 0.750000 0.416208 0.959797
O O9 0.820298 0.453202 0.128994
O O10 0.857258 0.357258 0.000000
O O11 0.856700 0.476642 0.924412
O O12 0.442921 0.566243 0.222240
O O13 0.506323 0.659613 0.317816
O O14 0.955340 0.544661 0.875529
O O15 0.411544 0.250000 0.624119
O O16 0.369852 0.130149 0.648790
#
# Coordination Sequence:
#
# PCOD8315194 Si02
#       6
#    16  16  16  16  16  16
#     4  10  19  33  52  79 114 148 182 221 262 312
#     4   9  18  33  54  79 112 144 175 215 266 324
#     4  10  22  38  56  76 106 144 184 225 270 322
#     4  10  21  36  55  80 109 144 181 223 271 324
#     4  10  20  34  56  83 109 138 179 227 273 321
#     4  11  22  36  56  79 106 141 179 225 280 334
#
# _framework density 18.542228999999999
#
# number of rings (size 3 to 8) (size 9 to 14) (size 15 to 20)
#    0.000    2.000    1.667    2.000    0.000    8.833 
#    0.000    2.500    0.000    0.000    0.000    0.000 
#    0.000    3.000    0.000    0.333    0.000    0.000 
#
# Total GULP energy -1190325.483897 kJ/mol
# GULP energy per Si atom -12399.223791 kJ/mol
# Density = 1.850003 g / cm^3
# Si number density = 18.542229 Si / 1000 Ang^3
#
#
#
# Elastic Constant Matrix: (Units=GPa)
#
#
# Indices 1 2 3 4 5 6 
#
# 1 99.5526 69.0958 49.7351 0.0000 0.0000 0.0000
# 2 69.0958 99.5526 49.7351 0.0000 0.0000 0.0000
# 3 49.7351 49.7351 108.9283 0.0000 0.0000 0.0000
# 4 0.0000 0.0000 0.0000 18.8206 0.0000 0.0000
# 5 0.0000 0.0000 0.0000 0.0000 18.8206 0.0000
# 6 0.0000 0.0000 0.0000 0.0000 0.0000 12.5444
#
#
#
# Elastic Compliance Matrix: (Units=1/GPa)
#
#
# Indices 1 2 3 4 5 6 
#
# 1 0.020474 -0.012359 -0.003705 0.000000 0.000000 0.000000
# 2 -0.012359 0.020474 -0.003705 0.000000 0.000000 0.000000
# 3 -0.003705 -0.003705 0.012564 0.000000 0.000000 0.000000
# 4 0.000000 0.000000 0.000000 0.053133 0.000000 0.000000
# 5 0.000000 0.000000 0.000000 0.000000 0.053133 0.000000
# 6 0.000000 0.000000 0.000000 0.000000 0.000000 0.079717
#
#
# Mechanical properties :
#
#
# Convention : Reuss Voigt Hill
#
# Bulk Modulus (GPa) = 71.56693 71.68505 71.62599
# Shear Modulus (GPa) = 17.62476 19.33495 18.47985
#
# Velocity S-wave (km/s) = 3.08640 3.23267 3.16038
# Velocity P-wave (km/s) = 7.16810 7.25795 7.21317
#
# Compressibility (1/GPa) = 0.01397293
#
# Stress axis : x y z
#
# Youngs Moduli (GPa) = 48.84229 48.84229 79.59411
#
# Poissons Ratio (x) = 0.60366 0.29490
# Poissons Ratio (y) = 0.60366 0.29490
# Poissons Ratio (z) = 0.18097 0.18097
#
# Static dielectric constant tensor:
#      x y z
#    x 3.280900 0.000000 0.000000 
#    y 0.000000 3.280900 0.000000 
#    z 0.000000 0.000000 3.502030 
# 
# 
# High freq. dielectric constant tensor:
#      x y z
#    x 1.707440 0.000000 0.000000 
#    y 0.000000 1.707440 0.000000 
#    z 0.000000 0.000000 1.724090 
# 
# From -- ./inp_files/3824.got.cif
#   From: 2010.03.12/outbox.cif.g09.slc.cpg/sg129_2_cif.got.tgz:3824.got - 2010.04.06 17:19:44.
