data_PCOD8315622
_publ_section_title
;
Structure prediction by ZEFSAII (Michael W. Deem and Ramdas Pophale) SiO2 
 PCOD8315622
Probable space group: P 4/N C C
;
_chemical_formula_sum "Si O2"
_cell_formula_units_Z 112
_cell_length_a 14.104664
_cell_length_b 14.104664
_cell_length_c 27.881192
_cell_angle_alpha 90.000000
_cell_angle_beta 90.000000
_cell_angle_gamma 90.000000
_cell_volume 5546.727456
_symmetry_space_group_name_H-M "P 4/N C C"
_symmetry_group_IT_number 130
_symmetry_cell_setting 'tetragonal'
loop_
_space_group_symop_operation_xyz
x,y,z
1/2-y,x,z
1/2-x,1/2-y,z
y,1/2-x,z
1/2+x,-y,1/2-z
-x,1/2+y,1/2-z
1/2+y,1/2+x,1/2-z
-y,-x,1/2-z
-x,-y,-z
1/2+y,-x,-z
1/2+x,1/2+y,-z
-y,1/2+x,-z
1/2-x,y,1/2+z
x,1/2-y,1/2+z
1/2-y,1/2-x,1/2+z
y,x,1/2+z
loop_
_atom_site_type_symbol
_atom_site_label
_atom_site_fract_x
_atom_site_fract_y
_atom_site_fract_z
Si Si1 0.117488 0.332204 0.765309
Si Si2 0.184488 0.659059 0.803751
Si Si3 0.213649 0.401336 0.431830
Si Si4 0.621486 0.977125 0.827847
Si Si5 0.183290 0.995601 0.132714
Si Si6 0.668577 0.020805 0.655363
Si Si7 0.284431 0.097729 0.541162
O O1 0.121518 0.219398 0.758234
O O2 0.042704 0.379679 0.728883
O O3 0.077357 0.357380 0.817796
O O4 0.250000 0.750000 0.801609
O O5 0.141353 0.641353 0.750000
O O6 0.240456 0.564986 0.818410
O O7 0.109615 0.678738 0.846116
O O8 0.137738 0.318694 0.421311
O O9 0.191308 0.493128 0.399398
O O10 0.206467 0.436718 0.486473
O O11 0.726717 0.950144 0.845081
O O12 0.545519 0.913570 0.854067
O O13 0.597545 0.085141 0.840889
O O14 0.195043 0.006010 0.074908
O O15 0.361350 0.179767 0.551404
#
# Coordination Sequence:
#
# PCOD8315622 Si02
#       7
#    16  16  16  16  16  16  16
#     4  11  24  40  61  91 124 162 211 279 333 372
#     4  11  26  45  63  84 130 182 221 253 315 394
#     4   9  20  41  67  96 128 167 216 274 330 383
#     4  12  25  39  62  93 130 162 214 262 332 385
#     4  12  23  41  66  98 125 166 210 273 322 384
#     4  12  25  42  62  89 128 176 220 261 314 402
#     4   9  18  37  68  99 129 163 208 272 337 386
#
# _framework density 20.192086
#
# number of rings (size 3 to 8) (size 9 to 14) (size 15 to 20)
#    0.000    1.143    4.286    3.000    6.000    1.429 
#    0.000    2.143    0.000    0.000    0.000    0.000 
#    0.000    0.000    0.000    0.000    0.000    0.000 
#
# Total GULP energy -1388688.985956 kJ/mol
# GULP energy per Si atom -12399.008803 kJ/mol
# Density = 2.014613 g / cm^3
# Si number density = 20.192086 Si / 1000 Ang^3
#
#
#
# Elastic Constant Matrix: (Units=GPa)
#
#
# Indices 1 2 3 4 5 6 
#
# 1 74.6663 22.4614 44.4008 0.0000 0.0000 0.0000
# 2 22.4614 74.6663 44.4008 0.0000 0.0000 0.0000
# 3 44.4008 44.4008 148.5863 0.0000 0.0000 0.0000
# 4 0.0000 0.0000 0.0000 28.0038 0.0000 0.0000
# 5 0.0000 0.0000 0.0000 0.0000 28.0038 0.0000
# 6 0.0000 0.0000 0.0000 0.0000 0.0000 26.0878
#
#
#
# Elastic Compliance Matrix: (Units=1/GPa)
#
#
# Indices 1 2 3 4 5 6 
#
# 1 0.016661 -0.002495 -0.004233 0.000000 0.000000 0.000000
# 2 -0.002495 0.016661 -0.004233 0.000000 0.000000 0.000000
# 3 -0.004233 -0.004233 0.009260 0.000000 0.000000 0.000000
# 4 0.000000 0.000000 0.000000 0.035709 0.000000 0.000000
# 5 0.000000 0.000000 0.000000 0.000000 0.035709 0.000000
# 6 0.000000 0.000000 0.000000 0.000000 0.000000 0.038332
#
#
# Mechanical properties :
#
#
# Convention : Reuss Voigt Hill
#
# Bulk Modulus (GPa) = 48.40388 57.82719 53.11554
# Shear Modulus (GPa) = 27.60290 28.86280 28.23285
#
# Velocity S-wave (km/s) = 3.70133 3.78486 3.74333
# Velocity P-wave (km/s) = 6.50309 6.91382 6.71160
#
# Compressibility (1/GPa) = 0.02065950
#
# Stress axis : x y z
#
# Youngs Moduli (GPa) = 60.02177 60.02177 107.99168
#
# Poissons Ratio (x) = 0.14974 0.45714
# Poissons Ratio (y) = 0.14974 0.45714
# Poissons Ratio (z) = 0.25408 0.25408
#
# Static dielectric constant tensor:
#      x y z
#    x 3.593060 0.000000 0.000000 
#    y 0.000000 3.593060 0.000000 
#    z 0.000000 0.000000 3.750960 
# 
# 
# High freq. dielectric constant tensor:
#      x y z
#    x 1.780020 0.000000 0.000000 
#    y 0.000000 1.780020 0.000000 
#    z 0.000000 0.000000 1.790660 
# 
# From -- ./inp_files/4607.got.cif
#   From: 2010.03.12/outbox.cif.g09.slc.cpg/sg130_3_cif.got.tgz:4607.got - 2010.04.06 17:30:23.
