data_PCOD8315166
_publ_section_title
;
Structure prediction by ZEFSAII (Michael W. Deem and Ramdas Pophale) SiO2 
 PCOD8315166
Probable space group: P 4/N M M
;
_chemical_formula_sum "Si O2"
_cell_formula_units_Z 88
_cell_length_a 12.284501
_cell_length_b 12.284501
_cell_length_c 32.838176
_cell_angle_alpha 90.000000
_cell_angle_beta 90.000000
_cell_angle_gamma 90.000000
_cell_volume 4955.575147
_symmetry_space_group_name_H-M "P 4/N M M"
_symmetry_group_IT_number 129
_symmetry_cell_setting 'tetragonal'
loop_
_space_group_symop_operation_xyz
x,y,z
1/2-y,x,z
1/2-x,1/2-y,z
y,1/2-x,z
1/2+x,-y,-z
-x,1/2+y,-z
1/2+y,1/2+x,-z
-y,-x,-z
-x,-y,-z
1/2+y,-x,-z
1/2+x,1/2+y,-z
-y,1/2+x,-z
1/2-x,y,z
x,1/2-y,z
1/2-y,1/2-x,z
y,x,z
loop_
_atom_site_type_symbol
_atom_site_label
_atom_site_fract_x
_atom_site_fract_y
_atom_site_fract_z
Si Si1 0.545453 0.371877 0.122966
Si Si2 0.370252 0.543661 0.794865
Si Si3 0.870439 0.450063 0.041525
Si Si4 0.250000 0.436785 0.328871
Si Si5 0.750000 0.374943 0.603642
Si Si6 0.124609 0.750000 0.738956
Si Si7 0.626635 0.449880 0.456286
O O1 0.521532 0.250000 0.136565
O O2 0.429364 0.429364 0.118231
O O3 0.617067 0.429275 0.157507
O O4 0.608161 0.372541 0.080057
O O5 0.250000 0.497370 0.788300
O O6 0.451802 0.451802 0.779764
O O7 0.392025 0.647072 0.767314
O O8 0.750000 0.497094 0.043871
O O9 0.946218 0.553783 0.042911
O O10 0.883171 0.383171 0.000000
O O11 0.141865 0.358136 0.328781
O O12 0.250000 0.521723 0.366237
O O13 0.250000 0.522942 0.291866
O O14 0.750000 0.250000 0.622645
O O15 0.643279 0.389417 0.576767
O O16 0.250000 0.750000 0.720332
O O17 0.597859 0.402142 0.500000
O O18 0.750000 0.492787 0.456720
O O19 0.550939 0.550939 0.444317
#
# Coordination Sequence:
#
# PCOD8315166 Si02
#       7
#    16  16  16   8   8   8  16
#     4  10  20  34  52  75 104 135 173 216 259 314
#     4  10  20  34  54  80 107 139 176 218 268 322
#     4  10  21  35  51  73  99 130 169 212 258 309
#     4  11  23  38  56  82 117 149 180 228 286 339
#     4  10  20  35  58  79 107 145 193 232 273 327
#     4  10  20  37  60  81 107 141 185 226 269 327
#     4  10  19  32  51  75 106 143 185 232 276 325
#
# _framework density 17.757777999999998
#
# number of rings (size 3 to 8) (size 9 to 14) (size 15 to 20)
#    0.000    1.909    1.818    2.455    0.000    2.727 
#    0.000    0.000    0.000    6.545    0.000    0.000 
#    0.000   13.091    0.000    0.000    0.000    0.000 
#
# Total GULP energy -1090663.634360 kJ/mol
# GULP energy per Si atom -12393.904936 kJ/mol
# Density = 1.771736 g / cm^3
# Si number density = 17.757778 Si / 1000 Ang^3
#
#
#
# Elastic Constant Matrix: (Units=GPa)
#
#
# Indices 1 2 3 4 5 6 
#
# 1 122.7666 89.0601 43.8377 0.0000 0.0000 0.0000
# 2 89.0601 122.7650 43.8390 0.0000 0.0000 0.0000
# 3 43.8377 43.8390 83.2624 0.0000 0.0000 0.0000
# 4 0.0000 0.0000 0.0000 24.6255 0.0000 0.0000
# 5 0.0000 0.0000 0.0000 0.0000 24.6264 0.0000
# 6 0.0000 0.0000 0.0000 0.0000 0.0000 21.8938
#
#
#
# Elastic Compliance Matrix: (Units=1/GPa)
#
#
# Indices 1 2 3 4 5 6 
#
# 1 0.017852 -0.011816 -0.003178 0.000000 0.000000 0.000000
# 2 -0.011816 0.017853 -0.003179 0.000000 0.000000 0.000000
# 3 -0.003178 -0.003179 0.015357 0.000000 0.000000 0.000000
# 4 0.000000 0.000000 0.000000 0.040608 0.000000 0.000000
# 5 0.000000 0.000000 0.000000 0.000000 0.040607 0.000000
# 6 0.000000 0.000000 0.000000 0.000000 0.000000 0.045675
#
#
# Mechanical properties :
#
#
# Convention : Reuss Voigt Hill
#
# Bulk Modulus (GPa) = 67.94933 75.80750 71.87841
# Shear Modulus (GPa) = 22.80995 24.36628 23.58812
#
# Velocity S-wave (km/s) = 3.58789 3.70827 3.64857
# Velocity P-wave (km/s) = 7.45061 7.81776 7.63639
#
# Compressibility (1/GPa) = 0.01471685
#
# Stress axis : x y z
#
# Youngs Moduli (GPa) = 56.01558 56.01393 65.11735
#
# Poissons Ratio (x) = 0.66187 0.20693
# Poissons Ratio (y) = 0.66189 0.20698
# Poissons Ratio (z) = 0.17801 0.17804
#
# Static dielectric constant tensor:
#      x y z
#    x 3.383900 0.000000 0.000000 
#    y 0.000000 3.383900 0.000000 
#    z 0.000000 0.000000 3.357720 
# 
# 
# High freq. dielectric constant tensor:
#      x y z
#    x 1.692210 0.000000 0.000000 
#    y 0.000000 1.692210 0.000000 
#    z 0.000000 0.000000 1.685890 
# 
# From -- ./inp_files/7803.got.cif
#   From: 2010.03.12/outbox.cif.g09.slc.cpg/sg129_4_cif.got.tgz:7803.got - 2010.04.06 17:19:44.
