data_PCOD8315940
_publ_section_title
;
Structure prediction by ZEFSAII (Michael W. Deem and Ramdas Pophale) SiO2 
 PCOD8315940
Probable space group: P 42/M M C
;
_chemical_formula_sum "Si O2"
_cell_formula_units_Z 112
_cell_length_a 13.948106
_cell_length_b 13.948106
_cell_length_c 27.419052
_cell_angle_alpha 90.000000
_cell_angle_beta 90.000000
_cell_angle_gamma 90.000000
_cell_volume 5334.367271
_symmetry_space_group_name_H-M "P 42/M M C"
_symmetry_group_IT_number 131
_symmetry_cell_setting 'tetragonal'
loop_
_space_group_symop_operation_xyz
x,y,z
-x,-y,z
-y,x,1/2+z
y,-x,1/2+z
-x,y,-z
x,-y,-z
y,x,1/2-z
-y,-x,1/2-z
-x,-y,-z
x,y,-z
y,-x,1/2-z
-y,x,1/2-z
x,-y,z
-x,y,z
-y,-x,1/2+z
y,x,1/2+z
loop_
_atom_site_type_symbol
_atom_site_label
_atom_site_fract_x
_atom_site_fract_y
_atom_site_fract_z
Si Si1 0.887745 0.279808 0.945680
Si Si2 0.198812 0.389430 0.556420
Si Si3 0.791767 0.215981 0.197550
Si Si4 0.322712 0.392452 0.299091
Si Si5 0.109905 0.783714 0.399585
Si Si6 0.612619 0.603194 0.903056
Si Si7 0.886412 0.391101 0.148192
O O1 0.840427 0.175913 0.937651
O O2 0.851858 0.357813 0.905943
O O3 0.000000 0.264021 0.939538
O O4 0.861858 0.316616 0.000000
O O5 0.173161 0.376790 0.500000
O O6 0.191064 0.500000 0.572766
O O7 0.124608 0.329570 0.589508
O O8 0.306172 0.346842 0.566369
O O9 0.826405 0.173596 0.250000
O O10 0.677379 0.231270 0.202823
O O11 0.812889 0.139381 0.155431
O O12 0.841120 0.319134 0.187603
O O13 0.385563 0.385563 0.250000
O O14 0.283425 0.500000 0.305419
O O15 0.386214 0.362671 0.345863
O O16 0.000000 0.812619 0.407494
O O17 0.655626 0.500000 0.920412
O O18 0.500000 0.601116 0.911900
O O19 0.850497 0.500000 0.157086
O O20 0.000000 0.385283 0.152905
#
# Coordination Sequence:
#
# PCOD8315940 Si02
#       7
#    16  16  16  16  16  16  16
#     4   9  19  37  61  90 120 147 181 228 283 345
#     4  10  21  37  54  76 112 154 197 242 282 325
#     4  10  22  38  58  84 110 148 189 236 288 341
#     4  10  19  32  51  77 111 145 182 230 281 334
#     4  11  23  40  60  83 112 147 190 238 286 336
#     4   9  17  30  49  73 105 146 188 231 279 331
#     4   9  19  37  60  86 118 153 188 230 282 344
#
# _framework density 20.995930000000001
#
# number of rings (size 3 to 8) (size 9 to 14) (size 15 to 20)
#    0.000    2.286    1.429    0.857    0.000    6.429 
#    0.000    4.286    0.000    1.714    0.000    2.000 
#    0.000    0.000    0.000    0.000    0.000    0.000 
#
# Total GULP energy -1388384.440113 kJ/mol
# GULP energy per Si atom -12396.289644 kJ/mol
# Density = 2.094814 g / cm^3
# Si number density = 20.995930 Si / 1000 Ang^3
#
#
#
# Elastic Constant Matrix: (Units=GPa)
#
#
# Indices 1 2 3 4 5 6 
#
# 1 55.7656 4.1932 19.3694 0.0000 0.0000 0.0000
# 2 4.1932 55.7658 19.3694 0.0000 0.0000 0.0000
# 3 19.3694 19.3694 111.5353 0.0000 0.0000 0.0000
# 4 0.0000 0.0000 0.0000 19.9277 0.0000 0.0000
# 5 0.0000 0.0000 0.0000 0.0000 19.9276 0.0000
# 6 0.0000 0.0000 0.0000 0.0000 0.0000 23.2354
#
#
#
# Elastic Compliance Matrix: (Units=1/GPa)
#
#
# Indices 1 2 3 4 5 6 
#
# 1 0.019088 -0.000302 -0.003262 0.000000 0.000000 0.000000
# 2 -0.000302 0.019088 -0.003262 0.000000 0.000000 0.000000
# 3 -0.003262 -0.003262 0.010099 0.000000 0.000000 0.000000
# 4 0.000000 0.000000 0.000000 0.050181 0.000000 0.000000
# 5 0.000000 0.000000 0.000000 0.000000 0.050182 0.000000
# 6 0.000000 0.000000 0.000000 0.000000 0.000000 0.043038
#
#
# Mechanical properties :
#
#
# Convention : Reuss Voigt Hill
#
# Bulk Modulus (GPa) = 28.88414 34.32565 31.60489
# Shear Modulus (GPa) = 23.05529 24.62712 23.84120
#
# Velocity S-wave (km/s) = 3.31733 3.42855 3.37340
# Velocity P-wave (km/s) = 5.33477 5.66193 5.50078
#
# Compressibility (1/GPa) = 0.03462108
#
# Stress axis : x y z
#
# Youngs Moduli (GPa) = 52.38879 52.38896 99.02086
#
# Poissons Ratio (x) = 0.01583 0.32305
# Poissons Ratio (y) = 0.01583 0.32304
# Poissons Ratio (z) = 0.17091 0.17091
#
# Static dielectric constant tensor:
#      x y z
#    x 3.728430 0.000000 0.000000 
#    y 0.000000 3.728430 0.000000 
#    z 0.000000 0.000000 3.979030 
# 
# 
# High freq. dielectric constant tensor:
#      x y z
#    x 1.806260 0.000000 0.000000 
#    y 0.000000 1.806260 0.000000 
#    z 0.000000 0.000000 1.825150 
# 
# From -- ./inp_files/12498.got.cif
#   From: 2010.03.12/outbox.cif.g09.slc.cpg/sg131_7_cif.got.tgz:12498.got - 2010.04.06 17:36:35.
