data_PCOD8315690
_publ_section_title
;
Structure prediction by ZEFSAII (Michael W. Deem and Ramdas Pophale) SiO2 
 PCOD8315690
Probable space group: P 42/M M C
;
_chemical_formula_sum "Si O2"
_cell_formula_units_Z 42
_cell_length_a 11.348785
_cell_length_b 11.348785
_cell_length_c 21.640864
_cell_angle_alpha 90.000000
_cell_angle_beta 90.000000
_cell_angle_gamma 90.000000
_cell_volume 2787.233369
_symmetry_space_group_name_H-M "P 42/M M C"
_symmetry_group_IT_number 131
_symmetry_cell_setting 'tetragonal'
loop_
_space_group_symop_operation_xyz
x,y,z
-x,-y,z
-y,x,1/2+z
y,-x,1/2+z
-x,y,-z
x,-y,-z
y,x,1/2-z
-y,-x,1/2-z
-x,-y,-z
x,y,-z
y,-x,1/2-z
-y,x,1/2-z
x,-y,z
-x,y,z
-y,-x,1/2+z
y,x,1/2+z
loop_
_atom_site_type_symbol
_atom_site_label
_atom_site_fract_x
_atom_site_fract_y
_atom_site_fract_z
Si Si1 0.776435 0.131350 0.883357
Si Si2 0.228917 0.000000 0.668715
Si Si3 0.631343 0.140115 0.000000
Si Si4 0.000000 0.000000 0.250000
Si Si5 0.362161 0.000000 0.211153
O O1 0.882154 0.224689 0.872878
O O2 0.699273 0.184419 0.939029
O O3 0.825934 0.000000 0.901105
O O4 0.695434 0.116099 0.821530
O O5 0.340194 0.000000 0.715005
O O6 0.113230 0.000000 0.709083
O O7 0.500000 0.194665 0.000000
O O8 0.622350 0.000000 0.000000
O O9 0.500000 0.000000 0.198058
#
# Coordination Sequence:
#
# PCOD8315690 Si02
#       5
#    16   8   8   2   8
#     4   9  17  24  42  58  85 117 146 168 205 258
#     4  12  16  27  42  60  88 117 143 170 208 256
#     4   9  16  27  37  57  91 121 143 179 213 247
#     4  12  12  28  36  58  80 120 132 156 194 244
#     4  10  18  25  38  58  85 117 144 170 208 261
#
# _framework density 15.068707
#
# number of rings (size 3 to 8) (size 9 to 14) (size 15 to 20)
#    1.143    0.952    5.714    1.143    0.000    0.762 
#    0.000    2.857    0.000    0.000    0.000    2.667 
#    0.000   27.429    0.000    0.000    0.000    0.000 
#
# Total GULP energy -520367.274698 kJ/mol
# GULP energy per Si atom -12389.697017 kJ/mol
# Density = 1.503441 g / cm^3
# Si number density = 15.068707 Si / 1000 Ang^3
#
#
#
# Elastic Constant Matrix: (Units=GPa)
#
#
# Indices 1 2 3 4 5 6 
#
# 1 72.3796 16.5610 37.3360 0.0000 0.0000 0.0000
# 2 16.5610 72.3796 37.3360 0.0000 0.0000 0.0000
# 3 37.3360 37.3360 96.9971 0.0000 0.0000 0.0000
# 4 0.0000 0.0000 0.0000 15.4880 0.0000 0.0000
# 5 0.0000 0.0000 0.0000 0.0000 15.4880 0.0000
# 6 0.0000 0.0000 0.0000 0.0000 0.0000 3.3462
#
#
#
# Elastic Compliance Matrix: (Units=1/GPa)
#
#
# Indices 1 2 3 4 5 6 
#
# 1 0.017264 -0.000652 -0.006394 0.000000 0.000000 0.000000
# 2 -0.000652 0.017264 -0.006394 0.000000 0.000000 0.000000
# 3 -0.006394 -0.006394 0.015232 0.000000 0.000000 0.000000
# 4 0.000000 0.000000 0.000000 0.064566 0.000000 0.000000
# 5 0.000000 0.000000 0.000000 0.000000 0.064566 0.000000
# 6 0.000000 0.000000 0.000000 0.000000 0.000000 0.298844
#
#
# Mechanical properties :
#
#
# Convention : Reuss Voigt Hill
#
# Bulk Modulus (GPa) = 43.70828 47.13580 45.42204
# Shear Modulus (GPa) = 9.76101 16.89934 13.33017
#
# Velocity S-wave (km/s) = 2.54789 3.35249 2.97749
# Velocity P-wave (km/s) = 6.14204 6.80692 6.48300
#
# Compressibility (1/GPa) = 0.02287896
#
# Stress axis : x y z
#
# Youngs Moduli (GPa) = 57.92564 57.92564 65.65088
#
# Poissons Ratio (x) = 0.03775 0.41979
# Poissons Ratio (y) = 0.03775 0.41979
# Poissons Ratio (z) = 0.37039 0.37039
#
# Static dielectric constant tensor:
#      x y z
#    x 2.608970 0.000000 0.000000 
#    y 0.000000 2.608970 0.000000 
#    z 0.000000 0.000000 3.018710 
# 
# 
# High freq. dielectric constant tensor:
#      x y z
#    x 1.531370 0.000000 0.000000 
#    y 0.000000 1.531370 0.000000 
#    z 0.000000 0.000000 1.581890 
# 
# From -- ./inp_files/8790.got.cif
#   From: 2010.03.12/outbox.cif.g09.slc.cpg/sg131_5_cif.got.tgz:8790.got - 2010.04.06 17:36:35.
