data_PCOD8315939
_publ_section_title
;
Structure prediction by ZEFSAII (Michael W. Deem and Ramdas Pophale) SiO2 
 PCOD8315939
Probable space group: P 42/M M C
;
_chemical_formula_sum "Si O2"
_cell_formula_units_Z 120
_cell_length_a 26.752198
_cell_length_b 26.752198
_cell_length_c 8.892506
_cell_angle_alpha 90.000000
_cell_angle_beta 90.000000
_cell_angle_gamma 90.000000
_cell_volume 6364.189564
_symmetry_space_group_name_H-M "P 42/M M C"
_symmetry_group_IT_number 131
_symmetry_cell_setting 'tetragonal'
loop_
_space_group_symop_operation_xyz
x,y,z
-x,-y,z
-y,x,1/2+z
y,-x,1/2+z
-x,y,-z
x,-y,-z
y,x,1/2-z
-y,-x,1/2-z
-x,-y,-z
x,y,-z
y,-x,1/2-z
-y,x,1/2-z
x,-y,z
-x,y,z
-y,-x,1/2+z
y,x,1/2+z
loop_
_atom_site_type_symbol
_atom_site_label
_atom_site_fract_x
_atom_site_fract_y
_atom_site_fract_z
Si Si1 0.054914 0.330638 0.672834
Si Si2 0.867189 0.057520 0.677843
Si Si3 0.274682 0.346553 0.674557
Si Si4 0.442983 0.780908 0.175046
Si Si5 0.500000 0.058740 0.169128
Si Si6 0.586555 0.884051 0.678160
Si Si7 0.091469 0.241741 0.821592
Si Si8 0.806401 0.266312 0.322236
O O1 0.071328 0.324467 0.500000
O O2 0.098865 0.360540 0.756532
O O3 0.048157 0.276771 0.753857
O O4 0.000000 0.356634 0.683066
O O5 0.913352 0.086649 0.750000
O O6 0.872064 0.060835 0.500000
O O7 0.815175 0.082594 0.731671
O O8 0.868903 0.000000 0.731627
O O9 0.325171 0.325171 0.750000
O O10 0.284155 0.339961 0.500000
O O11 0.264275 0.404713 0.717263
O O12 0.225719 0.315126 0.724532
O O13 0.500000 0.764032 0.210543
O O14 0.428734 0.828839 0.271674
O O15 0.436613 0.794881 0.000000
O O16 0.547976 0.076076 0.258924
O O17 0.500000 0.000000 0.159790
O O18 0.500000 0.081692 0.000000
O O19 0.587751 0.885858 0.500000
O O20 0.139576 0.268387 0.750033
O O21 0.092856 0.244713 0.000000
O O22 0.782372 0.217629 0.250000
O O23 0.809981 0.260052 0.500000
#
# Coordination Sequence:
#
# PCOD8315939 Si02
#       8
#    16  16  16  16   8  16  16  16
#     4  11  24  40  57  77 104 141 184 228 279 337
#     4  10  23  42  62  85 112 140 171 212 265 327
#     4   9  19  34  53  79 110 149 189 228 277 328
#     4  10  20  36  58  81 111 150 190 231 279 339
#     4  11  23  39  57  75 103 147 197 249 302 351
#     4  12  24  37  56  82 110 143 189 242 295 341
#     4  11  22  37  58  83 111 142 176 219 273 330
#     4  10  19  32  51  77 111 145 182 222 264 322
#
# _framework density 18.855502999999999
#
# number of rings (size 3 to 8) (size 9 to 14) (size 15 to 20)
#    0.000    1.533    0.667    4.600    0.000    8.400 
#    0.000    0.667    0.000    0.000    0.000    0.000 
#    0.000    0.267    0.000    3.333    0.000    0.000 
#
# Total GULP energy -1487805.075489 kJ/mol
# GULP energy per Si atom -12398.375629 kJ/mol
# Density = 1.881259 g / cm^3
# Si number density = 18.855503 Si / 1000 Ang^3
#
#
#
# Elastic Constant Matrix: (Units=GPa)
#
#
# Indices 1 2 3 4 5 6 
#
# 1 116.4859 53.8256 45.8254 0.0000 0.0000 0.0000
# 2 53.8256 116.4929 45.8268 0.0000 0.0000 0.0000
# 3 45.8254 45.8268 96.4158 0.0000 0.0000 0.0000
# 4 0.0000 0.0000 0.0000 27.6409 0.0000 0.0000
# 5 0.0000 0.0000 0.0000 0.0000 27.6406 0.0000
# 6 0.0000 0.0000 0.0000 0.0000 0.0000 26.6105
#
#
#
# Elastic Compliance Matrix: (Units=1/GPa)
#
#
# Indices 1 2 3 4 5 6 
#
# 1 0.011924 -0.004034 -0.003750 0.000000 0.000000 0.000000
# 2 -0.004034 0.011923 -0.003750 0.000000 0.000000 0.000000
# 3 -0.003750 -0.003750 0.013936 0.000000 0.000000 0.000000
# 4 0.000000 0.000000 0.000000 0.036178 0.000000 0.000000
# 5 0.000000 0.000000 0.000000 0.000000 0.036179 0.000000
# 6 0.000000 0.000000 0.000000 0.000000 0.000000 0.037579
#
#
# Mechanical properties :
#
#
# Convention : Reuss Voigt Hill
#
# Bulk Modulus (GPa) = 67.95399 68.92781 68.44090
# Shear Modulus (GPa) = 28.45870 28.63951 28.54911
#
# Velocity S-wave (km/s) = 3.88919 3.90153 3.89536
# Velocity P-wave (km/s) = 7.50236 7.54527 7.52384
#
# Compressibility (1/GPa) = 0.01471584
#
# Stress axis : x y z
#
# Youngs Moduli (GPa) = 83.86354 83.86859 71.75525
#
# Poissons Ratio (x) = 0.33836 0.26907
# Poissons Ratio (y) = 0.33834 0.26906
# Poissons Ratio (z) = 0.31447 0.31448
#
# Static dielectric constant tensor:
#      x y z
#    x 3.640930 0.000000 0.000000 
#    y 0.000000 3.640920 0.000000 
#    z 0.000000 0.000000 3.481990 
# 
# 
# High freq. dielectric constant tensor:
#      x y z
#    x 1.724640 0.000000 0.000000 
#    y 0.000000 1.724640 0.000000 
#    z 0.000000 0.000000 1.736230 
# 
# From -- ./inp_files/2649.got.cif
#   From: 2010.03.12/outbox.cif.g09.slc.cpg/sg131_2_cif.got.tgz:2649.got - 2010.04.06 17:36:35.
