data_PCOD8315319
_publ_section_title
;
Structure prediction by ZEFSAII (Michael W. Deem and Ramdas Pophale) SiO2 
 PCOD8315319
Probable space group: P 4/N M M
;
_chemical_formula_sum "Si O2"
_cell_formula_units_Z 64
_cell_length_a 13.178071
_cell_length_b 13.178071
_cell_length_c 20.642070
_cell_angle_alpha 90.000000
_cell_angle_beta 90.000000
_cell_angle_gamma 90.000000
_cell_volume 3584.733980
_symmetry_space_group_name_H-M "P 4/N M M"
_symmetry_group_IT_number 129
_symmetry_cell_setting 'tetragonal'
loop_
_space_group_symop_operation_xyz
x,y,z
1/2-y,x,z
1/2-x,1/2-y,z
y,1/2-x,z
1/2+x,-y,-z
-x,1/2+y,-z
1/2+y,1/2+x,-z
-y,-x,-z
-x,-y,-z
1/2+y,-x,-z
1/2+x,1/2+y,-z
-y,1/2+x,-z
1/2-x,y,z
x,1/2-y,z
1/2-y,1/2-x,z
y,x,z
loop_
_atom_site_type_symbol
_atom_site_label
_atom_site_fract_x
_atom_site_fract_y
_atom_site_fract_z
Si Si1 0.370287 0.637061 0.311607
Si Si2 0.534556 0.367737 0.938531
Si Si3 0.531403 0.131873 0.442328
Si Si4 0.468222 0.869022 0.819853
O O1 0.250000 0.645023 0.312417
O O2 0.417704 0.750000 0.310348
O O3 0.408542 0.579754 0.375584
O O4 0.406533 0.576583 0.248448
O O5 0.506193 0.250000 0.942708
O O6 0.429489 0.429489 0.936087
O O7 0.602155 0.387745 0.875048
O O8 0.601047 0.398954 0.000000
O O9 0.610771 0.110771 0.500000
O O10 0.505469 0.250000 0.439006
O O11 0.426565 0.073436 0.455444
O O12 0.490668 0.750000 0.820783
O O13 0.574653 0.925347 0.832716
#
# Coordination Sequence:
#
# PCOD8315319 Si02
#       4
#    16  16  16  16
#     4   9  17  30  49  71  95 126 164 205 248 292
#     4  10  21  36  54  77 103 132 168 208 251 301
#     4  10  20  33  50  73 100 131 168 208 251 301
#     4  10  20  33  50  74 103 135 172 211 252 299
#
# _framework density 17.853487000000001
#
# number of rings (size 3 to 8) (size 9 to 14) (size 15 to 20)
#    0.000    2.250    0.000    3.000    0.000    4.750 
#    0.000    0.000    0.000    9.000    0.000    0.000 
#    0.000   18.000    0.000    0.000    0.000    0.000 
#
# Total GULP energy -793761.007736 kJ/mol
# GULP energy per Si atom -12402.515746 kJ/mol
# Density = 1.781285 g / cm^3
# Si number density = 17.853487 Si / 1000 Ang^3
#
#
#
# Elastic Constant Matrix: (Units=GPa)
#
#
# Indices 1 2 3 4 5 6 
#
# 1 96.6690 40.6792 35.2162 0.0000 0.0000 0.0000
# 2 40.6792 96.6674 35.2167 0.0000 0.0000 0.0000
# 3 35.2162 35.2167 147.2244 0.0000 0.0000 0.0000
# 4 0.0000 0.0000 0.0000 26.9175 0.0000 0.0000
# 5 0.0000 0.0000 0.0000 0.0000 26.9178 0.0000
# 6 0.0000 0.0000 0.0000 0.0000 0.0000 14.6886
#
#
#
# Elastic Compliance Matrix: (Units=1/GPa)
#
#
# Indices 1 2 3 4 5 6 
#
# 1 0.013080 -0.004781 -0.001985 0.000000 0.000000 0.000000
# 2 -0.004781 0.013080 -0.001985 0.000000 0.000000 0.000000
# 3 -0.001985 -0.001985 0.007742 0.000000 0.000000 0.000000
# 4 0.000000 0.000000 0.000000 0.037151 0.000000 0.000000
# 5 0.000000 0.000000 0.000000 0.000000 0.037150 0.000000
# 6 0.000000 0.000000 0.000000 0.000000 0.000000 0.068080
#
#
# Mechanical properties :
#
#
# Convention : Reuss Voigt Hill
#
# Bulk Modulus (GPa) = 60.97847 62.53166 61.75506
# Shear Modulus (GPa) = 25.09403 29.00137 27.04770
#
# Velocity S-wave (km/s) = 3.75314 4.03477 3.89650
# Velocity P-wave (km/s) = 7.28083 7.53702 7.41003
#
# Compressibility (1/GPa) = 0.01639923
#
# Stress axis : x y z
#
# Youngs Moduli (GPa) = 76.45500 76.45343 129.16511
#
# Poissons Ratio (x) = 0.36552 0.25640
# Poissons Ratio (y) = 0.36553 0.25641
# Poissons Ratio (z) = 0.15177 0.15177
#
# Static dielectric constant tensor:
#      x y z
#    x 3.111270 0.000000 0.000000 
#    y 0.000000 3.111270 0.000000 
#    z 0.000000 0.000000 3.605840 
# 
# 
# High freq. dielectric constant tensor:
#      x y z
#    x 1.678780 0.000000 0.000000 
#    y 0.000000 1.678780 0.000000 
#    z 0.000000 0.000000 1.713900 
# 
# From -- ./inp_files/5370.got.cif
#   From: 2010.03.12/outbox.cif.g09.slc.cpg/sg129_3_cif.got.tgz:5370.got - 2010.04.06 17:19:44.
