data_PCOD8315080
_publ_section_title
;
Structure prediction by ZEFSAII (Michael W. Deem and Ramdas Pophale) SiO2 
 PCOD8315080
Probable space group: P 4/N M M
;
_chemical_formula_sum "Si O2"
_cell_formula_units_Z 128
_cell_length_a 17.986712
_cell_length_b 17.986712
_cell_length_c 23.158352
_cell_angle_alpha 90.000000
_cell_angle_beta 90.000000
_cell_angle_gamma 90.000000
_cell_volume 7492.231923
_symmetry_space_group_name_H-M "P 4/N M M"
_symmetry_group_IT_number 129
_symmetry_cell_setting 'tetragonal'
loop_
_space_group_symop_operation_xyz
x,y,z
1/2-y,x,z
1/2-x,1/2-y,z
y,1/2-x,z
1/2+x,-y,-z
-x,1/2+y,-z
1/2+y,1/2+x,-z
-y,-x,-z
-x,-y,-z
1/2+y,-x,-z
1/2+x,1/2+y,-z
-y,1/2+x,-z
1/2-x,y,z
x,1/2-y,z
1/2-y,1/2-x,z
y,x,z
loop_
_atom_site_type_symbol
_atom_site_label
_atom_site_fract_x
_atom_site_fract_y
_atom_site_fract_z
Si Si1 0.940445 0.064951 0.564908
Si Si2 0.167099 0.447344 0.874128
Si Si3 0.543302 0.333526 0.762619
Si Si4 0.944617 0.670971 0.757580
Si Si5 0.662812 0.541266 0.627826
Si Si6 0.415149 0.667330 0.832218
Si Si7 0.464582 0.339894 0.645807
Si Si8 0.062066 0.943113 0.934252
O O1 0.915246 0.084755 0.500000
O O2 0.977835 0.137432 0.594845
O O3 0.867109 0.032777 0.596240
O O4 0.000940 0.000940 0.565652
O O5 0.250000 0.444180 0.897090
O O6 0.135990 0.364011 0.871853
O O7 0.159751 0.480029 0.810383
O O8 0.122694 0.495545 0.919724
O O9 0.567903 0.250000 0.750677
O O10 0.617986 0.372467 0.784965
O O11 0.506980 0.365772 0.704248
O O12 0.903291 0.750000 0.750429
O O13 0.887844 0.612157 0.781988
O O14 0.977202 0.649293 0.695140
O O15 0.004378 0.677800 0.806850
O O16 0.750000 0.553627 0.612384
O O17 0.616013 0.616013 0.610656
O O18 0.378459 0.750000 0.839835
O O19 0.423910 0.628625 0.894420
O O20 0.448727 0.250000 0.643829
O O21 0.386413 0.386413 0.641079
O O22 0.078560 0.921441 0.000000
O O23 0.979455 0.979455 0.926083
#
# Coordination Sequence:
#
# PCOD8315080 Si02
#       8
#    16  16  16  16  16  16  16  16
#     4   9  18  32  49  69  95 130 169 204 241 292
#     4   9  17  29  46  68  93 122 155 192 236 287
#     4   9  18  32  48  68  97 129 158 190 236 296
#     4   9  17  28  43  66  93 119 148 182 224 274
#     4   9  17  29  47  71  98 128 162 202 248 297
#     4  10  19  30  48  72  94 120 159 206 247 283
#     4  10  20  34  54  79 105 134 168 208 256 308
#     4   9  18  32  48  66  91 125 162 199 244 298
#
# _framework density 17.084361000000001
#
# number of rings (size 3 to 8) (size 9 to 14) (size 15 to 20)
#    0.000    2.750    0.000    1.500    0.000    4.250 
#    0.000    1.250    0.000    3.375    0.000    6.125 
#    0.000    3.000    0.000    0.000    0.000    0.125 
#
# Total GULP energy -1585936.307922 kJ/mol
# GULP energy per Si atom -12390.127406 kJ/mol
# Density = 1.704548 g / cm^3
# Si number density = 17.084361 Si / 1000 Ang^3
#
#
#
# Elastic Constant Matrix: (Units=GPa)
#
#
# Indices 1 2 3 4 5 6 
#
# 1 95.0990 44.6411 37.6001 0.0000 0.0000 0.0000
# 2 44.6411 95.0992 37.6001 0.0000 0.0000 0.0000
# 3 37.6001 37.6001 97.0841 0.0000 0.0000 0.0000
# 4 0.0000 0.0000 0.0000 17.3250 0.0000 0.0000
# 5 0.0000 0.0000 0.0000 0.0000 17.3250 0.0000
# 6 0.0000 0.0000 0.0000 0.0000 0.0000 9.4475
#
#
#
# Elastic Compliance Matrix: (Units=1/GPa)
#
#
# Indices 1 2 3 4 5 6 
#
# 1 0.014429 -0.005389 -0.003501 0.000000 0.000000 0.000000
# 2 -0.005389 0.014429 -0.003501 0.000000 0.000000 0.000000
# 3 -0.003501 -0.003501 0.013012 0.000000 0.000000 0.000000
# 4 0.000000 0.000000 0.000000 0.057720 0.000000 0.000000
# 5 0.000000 0.000000 0.000000 0.000000 0.057720 0.000000
# 6 0.000000 0.000000 0.000000 0.000000 0.000000 0.105848
#
#
# Mechanical properties :
#
#
# Convention : Reuss Voigt Hill
#
# Bulk Modulus (GPa) = 58.52069 58.55165 58.53617
# Shear Modulus (GPa) = 17.02775 19.98223 18.50499
#
# Velocity S-wave (km/s) = 3.16046 3.42368 3.29470
# Velocity P-wave (km/s) = 6.90263 7.06932 6.98647
#
# Compressibility (1/GPa) = 0.01708797
#
# Stress axis : x y z
#
# Youngs Moduli (GPa) = 69.30294 69.30303 76.84988
#
# Poissons Ratio (x) = 0.37348 0.26907
# Poissons Ratio (y) = 0.37348 0.26907
# Poissons Ratio (z) = 0.24265 0.24265
#
# Static dielectric constant tensor:
#      x y z
#    x 3.324730 0.000000 0.000000 
#    y 0.000000 3.324730 0.000000 
#    z 0.000000 0.000000 3.200760 
# 
# 
# High freq. dielectric constant tensor:
#      x y z
#    x 1.651200 0.000000 0.000000 
#    y 0.000000 1.651200 0.000000 
#    z 0.000000 0.000000 1.656850 
# 
# From -- ./inp_files/7289.got.cif
#   From: 2010.03.12/outbox.cif.g09.slc.cpg/sg129_4_cif.got.tgz:7289.got - 2010.04.06 17:19:44.
