data_PCOD8315872
_publ_section_title
;
Structure prediction by ZEFSAII (Michael W. Deem and Ramdas Pophale) SiO2 
 PCOD8315872
Probable space group: P 42/M M C
;
_chemical_formula_sum "Si O2"
_cell_formula_units_Z 112
_cell_length_a 14.136418
_cell_length_b 14.136418
_cell_length_c 30.628139
_cell_angle_alpha 90.000000
_cell_angle_beta 90.000000
_cell_angle_gamma 90.000000
_cell_volume 6120.675655
_symmetry_space_group_name_H-M "P 42/M M C"
_symmetry_group_IT_number 131
_symmetry_cell_setting 'tetragonal'
loop_
_space_group_symop_operation_xyz
x,y,z
-x,-y,z
-y,x,1/2+z
y,-x,1/2+z
-x,y,-z
x,-y,-z
y,x,1/2-z
-y,-x,1/2-z
-x,-y,-z
x,y,-z
y,-x,1/2-z
-y,x,1/2-z
x,-y,z
-x,y,z
-y,-x,1/2+z
y,x,1/2+z
loop_
_atom_site_type_symbol
_atom_site_label
_atom_site_fract_x
_atom_site_fract_y
_atom_site_fract_z
Si Si1 0.294168 0.108057 0.322229
Si Si2 0.719729 0.388096 0.212760
Si Si3 0.106499 0.390067 0.914775
Si Si4 0.208803 0.895237 0.048327
Si Si5 0.610045 0.606952 0.626613
Si Si6 0.889225 0.896769 0.863378
Si Si7 0.297710 0.711737 0.548664
O O1 0.340721 0.175924 0.285693
O O2 0.359279 0.113717 0.364736
O O3 0.188811 0.148813 0.333299
O O4 0.290647 0.000000 0.304496
O O5 0.653599 0.346402 0.250000
O O6 0.727068 0.500000 0.219663
O O7 0.673615 0.360419 0.166487
O O8 0.133232 0.500000 0.917064
O O9 0.180881 0.333239 0.943938
O O10 0.000000 0.371462 0.932403
O O11 0.131116 0.877769 0.085684
O O12 0.290270 0.816355 0.053204
O O13 0.254378 0.000000 0.053764
O O14 0.161424 0.885874 0.000000
O O15 0.638694 0.500000 0.638410
O O16 0.500000 0.616058 0.616926
O O17 0.662474 0.637522 0.582829
O O18 0.000000 0.896450 0.858207
O O19 0.848230 0.000000 0.848509
O O20 0.328390 0.680307 0.500000
#
# Coordination Sequence:
#
# PCOD8315872 Si02
#       7
#    16  16  16  16  16  16  16
#     4  10  19  34  56  82 112 148 183 217 267 330
#     4  11  22  38  61  86 110 138 176 226 281 332
#     4  10  19  31  48  72 105 145 185 222 261 312
#     4   9  17  28  43  66  97 134 178 228 275 314
#     4  10  21  37  56  79 107 137 173 220 273 329
#     4   9  16  27  46  72 102 139 183 224 264 315
#     4  11  21  33  51  75 107 146 184 222 267 321
#
# _framework density 18.298632999999999
#
# number of rings (size 3 to 8) (size 9 to 14) (size 15 to 20)
#    0.000    2.000    2.857    1.286    0.000    3.571 
#    0.000    5.000    0.000    1.286    0.000    2.000 
#    0.000    0.000    0.000    0.000    0.000    0.000 
#
# Total GULP energy -1388239.175370 kJ/mol
# GULP energy per Si atom -12394.992637 kJ/mol
# Density = 1.825698 g / cm^3
# Si number density = 18.298633 Si / 1000 Ang^3
#
#
#
# Elastic Constant Matrix: (Units=GPa)
#
#
# Indices 1 2 3 4 5 6 
#
# 1 93.5870 46.0349 35.7765 0.0000 0.0000 0.0000
# 2 46.0349 93.5858 35.7767 0.0000 0.0000 0.0000
# 3 35.7765 35.7767 62.8256 0.0000 0.0000 0.0000
# 4 0.0000 0.0000 0.0000 26.2826 0.0000 0.0000
# 5 0.0000 0.0000 0.0000 0.0000 26.2823 0.0000
# 6 0.0000 0.0000 0.0000 0.0000 0.0000 21.1770
#
#
#
# Elastic Compliance Matrix: (Units=1/GPa)
#
#
# Indices 1 2 3 4 5 6 
#
# 1 0.015572 -0.005458 -0.005759 0.000000 0.000000 0.000000
# 2 -0.005458 0.015572 -0.005760 0.000000 0.000000 0.000000
# 3 -0.005759 -0.005760 0.022477 0.000000 0.000000 0.000000
# 4 0.000000 0.000000 0.000000 0.038048 0.000000 0.000000
# 5 0.000000 0.000000 0.000000 0.000000 0.038048 0.000000
# 6 0.000000 0.000000 0.000000 0.000000 0.000000 0.047221
#
#
# Mechanical properties :
#
#
# Convention : Reuss Voigt Hill
#
# Bulk Modulus (GPa) = 50.84766 53.90828 52.37797
# Shear Modulus (GPa) = 22.99413 23.57574 23.28493
#
# Velocity S-wave (km/s) = 3.54871 3.59331 3.57108
# Velocity P-wave (km/s) = 6.68125 6.83667 6.75941
#
# Compressibility (1/GPa) = 0.01966659
#
# Stress axis : x y z
#
# Youngs Moduli (GPa) = 64.21913 64.21798 44.49074
#
# Poissons Ratio (x) = 0.35050 0.25624
# Poissons Ratio (y) = 0.35051 0.25625
# Poissons Ratio (z) = 0.36986 0.36986
#
# Static dielectric constant tensor:
#      x y z
#    x 3.559950 0.000000 0.000000 
#    y 0.000000 3.559950 0.000000 
#    z 0.000000 0.000000 3.158170 
# 
# 
# High freq. dielectric constant tensor:
#      x y z
#    x 1.704450 0.000000 0.000000 
#    y 0.000000 1.704450 0.000000 
#    z 0.000000 0.000000 1.687050 
# 
# From -- ./inp_files/12437.got.cif
#   From: 2010.03.12/outbox.cif.g09.slc.cpg/sg131_7_cif.got.tgz:12437.got - 2010.04.06 17:36:35.
