data_PCOD8315076
_publ_section_title
;
Structure prediction by ZEFSAII (Michael W. Deem and Ramdas Pophale) SiO2 
 PCOD8315076
Probable space group: P 4/N M M
;
_chemical_formula_sum "Si O2"
_cell_formula_units_Z 112
_cell_length_a 18.345562
_cell_length_b 18.345562
_cell_length_c 18.838519
_cell_angle_alpha 90.000000
_cell_angle_beta 90.000000
_cell_angle_gamma 90.000000
_cell_volume 6340.285269
_symmetry_space_group_name_H-M "P 4/N M M"
_symmetry_group_IT_number 129
_symmetry_cell_setting 'tetragonal'
loop_
_space_group_symop_operation_xyz
x,y,z
1/2-y,x,z
1/2-x,1/2-y,z
y,1/2-x,z
1/2+x,-y,-z
-x,1/2+y,-z
1/2+y,1/2+x,-z
-y,-x,-z
-x,-y,-z
1/2+y,-x,-z
1/2+x,1/2+y,-z
-y,1/2+x,-z
1/2-x,y,z
x,1/2-y,z
1/2-y,1/2-x,z
y,x,z
loop_
_atom_site_type_symbol
_atom_site_label
_atom_site_fract_x
_atom_site_fract_y
_atom_site_fract_z
Si Si1 0.332831 0.450274 0.344461
Si Si2 0.608074 0.490670 0.037088
Si Si3 0.549452 0.833301 0.899305
Si Si4 0.442395 0.667940 0.782715
Si Si5 0.334823 0.563394 0.706999
Si Si6 0.944108 0.436916 0.419836
Si Si7 0.046833 0.167500 0.826712
O O1 0.250000 0.436844 0.368266
O O2 0.372537 0.372537 0.341472
O O3 0.338895 0.488312 0.268657
O O4 0.370218 0.503399 0.401034
O O5 0.532740 0.532740 0.052485
O O6 0.650029 0.485806 0.112424
O O7 0.586944 0.413057 0.000000
O O8 0.659230 0.535347 0.982994
O O9 0.568492 0.750000 0.879780
O O10 0.617134 0.882867 0.875077
O O11 0.475390 0.858617 0.858163
O O12 0.413354 0.750000 0.787365
O O13 0.373352 0.622598 0.756961
O O14 0.250000 0.584164 0.696301
O O15 0.373221 0.558910 0.630454
O O16 0.343299 0.487232 0.748617
O O17 0.920046 0.420046 0.500000
O O18 0.986323 0.513678 0.413033
O O19 0.073639 0.250000 0.835984
O O20 0.116991 0.116991 0.836052
#
# Coordination Sequence:
#
# PCOD8315076 Si02
#       7
#    16  16  16  16  16  16  16
#     4   9  17  29  46  69  96 126 158 191 230 280
#     4   9  17  29  46  67  91 123 165 211 255 296
#     4  10  19  30  46  69  97 131 170 211 257 308
#     4   9  18  32  48  67  94 127 161 196 238 291
#     4  10  20  33  52  76  98 124 161 204 247 291
#     4   9  18  33  52  73  98 128 160 195 239 291
#     4  10  20  33  49  71  99 131 169 211 254 301
#
# _framework density 17.664819000000001
#
# number of rings (size 3 to 8) (size 9 to 14) (size 15 to 20)
#    0.000    2.571    0.000    2.143    0.000    4.143 
#    0.000    0.000    0.000    5.143    0.000    2.000 
#    0.000   13.714    0.000    0.000    0.000    0.143 
#
# Total GULP energy -1388342.810221 kJ/mol
# GULP energy per Si atom -12395.917948 kJ/mol
# Density = 1.762461 g / cm^3
# Si number density = 17.664819 Si / 1000 Ang^3
#
#
#
# Elastic Constant Matrix: (Units=GPa)
#
#
# Indices 1 2 3 4 5 6 
#
# 1 99.1458 49.2122 36.8291 0.0000 0.0000 0.0000
# 2 49.2122 99.1460 36.8292 0.0000 0.0000 0.0000
# 3 36.8291 36.8292 101.4463 0.0000 0.0000 0.0000
# 4 0.0000 0.0000 0.0000 20.9553 0.0000 0.0000
# 5 0.0000 0.0000 0.0000 0.0000 20.9551 0.0000
# 6 0.0000 0.0000 0.0000 0.0000 0.0000 20.4290
#
#
#
# Elastic Compliance Matrix: (Units=1/GPa)
#
#
# Indices 1 2 3 4 5 6 
#
# 1 0.014125 -0.005902 -0.002985 0.000000 0.000000 0.000000
# 2 -0.005902 0.014125 -0.002985 0.000000 0.000000 0.000000
# 3 -0.002985 -0.002985 0.012025 0.000000 0.000000 0.000000
# 4 0.000000 0.000000 0.000000 0.047721 0.000000 0.000000
# 5 0.000000 0.000000 0.000000 0.000000 0.047721 0.000000
# 6 0.000000 0.000000 0.000000 0.000000 0.000000 0.048950
#
#
# Mechanical properties :
#
#
# Convention : Reuss Voigt Hill
#
# Bulk Modulus (GPa) = 60.49802 60.60879 60.55341
# Shear Modulus (GPa) = 23.37324 24.25907 23.81616
#
# Velocity S-wave (km/s) = 3.64146 3.70982 3.67580
# Velocity P-wave (km/s) = 7.21127 7.26191 7.23663
#
# Compressibility (1/GPa) = 0.01652947
#
# Stress axis : x y z
#
# Youngs Moduli (GPa) = 70.79875 70.79886 83.16103
#
# Poissons Ratio (x) = 0.41786 0.24825
# Poissons Ratio (y) = 0.41785 0.24824
# Poissons Ratio (z) = 0.21134 0.21134
#
# Static dielectric constant tensor:
#      x y z
#    x 3.170370 0.000000 0.000000 
#    y 0.000000 3.170370 0.000000 
#    z 0.000000 0.000000 3.342420 
# 
# 
# High freq. dielectric constant tensor:
#      x y z
#    x 1.670410 0.000000 0.000000 
#    y 0.000000 1.670410 0.000000 
#    z 0.000000 0.000000 1.686570 
# 
# From -- ./inp_files/6667.got.cif
#   From: 2010.03.12/outbox.cif.g09.slc.cpg/sg129_4_cif.got.tgz:6667.got - 2010.04.06 17:19:44.
