data_PCOD8315736
_publ_section_title
;
Structure prediction by ZEFSAII (Michael W. Deem and Ramdas Pophale) SiO2 
 PCOD8315736
Probable space group: P 42/M M C
;
_chemical_formula_sum "Si O2"
_cell_formula_units_Z 128
_cell_length_a 19.821668
_cell_length_b 19.821668
_cell_length_c 16.866853
_cell_angle_alpha 90.000000
_cell_angle_beta 90.000000
_cell_angle_gamma 90.000000
_cell_volume 6626.961620
_symmetry_space_group_name_H-M "P 42/M M C"
_symmetry_group_IT_number 131
_symmetry_cell_setting 'tetragonal'
loop_
_space_group_symop_operation_xyz
x,y,z
-x,-y,z
-y,x,1/2+z
y,-x,1/2+z
-x,y,-z
x,-y,-z
y,x,1/2-z
-y,-x,1/2-z
-x,-y,-z
x,y,-z
y,-x,1/2-z
-y,x,1/2-z
x,-y,z
-x,y,z
-y,-x,1/2+z
y,x,1/2+z
loop_
_atom_site_type_symbol
_atom_site_label
_atom_site_fract_x
_atom_site_fract_y
_atom_site_fract_z
Si Si1 0.289635 0.424132 0.331321
Si Si2 0.814137 0.703842 0.907902
Si Si3 0.072166 0.744962 0.649160
Si Si4 0.313453 0.796231 0.909224
Si Si5 0.076852 0.110342 0.589804
Si Si6 0.575950 0.754298 0.656952
Si Si7 0.613776 0.575665 0.090042
Si Si8 0.196787 0.110140 0.696829
O O1 0.265829 0.500000 0.343810
O O2 0.241176 0.382044 0.388158
O O3 0.278662 0.402317 0.240548
O O4 0.368736 0.418605 0.352716
O O5 0.744909 0.742834 0.891287
O O6 0.811381 0.629598 0.868065
O O7 0.873323 0.746701 0.868092
O O8 0.830940 0.696376 0.000000
O O9 0.134688 0.693637 0.641499
O O10 0.087112 0.808860 0.592269
O O11 0.059901 0.770763 0.739451
O O12 0.000000 0.711520 0.624593
O O13 0.314537 0.818433 0.000000
O O14 0.091559 0.085875 0.500000
O O15 0.131143 0.078233 0.651305
O O16 0.000000 0.090455 0.614268
O O17 0.500000 0.785194 0.659695
O O18 0.579996 0.694873 0.592350
O O19 0.590836 0.500000 0.116730
O O20 0.590735 0.589866 0.000000
O O21 0.175224 0.175224 0.750000
#
# Coordination Sequence:
#
# PCOD8315736 Si02
#       8
#    16  16  16  16  16  16  16  16
#     4  11  23  36  52  73 100 137 180 228 278 327
#     4  11  20  31  52  78 104 138 174 220 275 323
#     4  10  20  33  52  78 107 140 176 220 269 320
#     4  11  21  33  53  80 105 135 173 219 278 332
#     4   9  16  27  46  75 111 145 179 219 261 307
#     4  10  21  34  49  71 102 140 179 221 272 325
#     4  10  20  33  49  69  97 137 183 226 266 312
#     4  10  18  29  49  77 108 141 175 221 268 313
#
# _framework density 19.315035999999999
#
# number of rings (size 3 to 8) (size 9 to 14) (size 15 to 20)
#    0.000    1.750    3.750    2.625    0.000    2.750 
#    0.000    0.625    0.000    4.500    0.000    4.375 
#    0.000    0.500    0.000    5.875    0.000    0.000 
#
# Total GULP energy -1586583.199411 kJ/mol
# GULP energy per Si atom -12395.181245 kJ/mol
# Density = 1.927107 g / cm^3
# Si number density = 19.315036 Si / 1000 Ang^3
#
#
#
# Elastic Constant Matrix: (Units=GPa)
#
#
# Indices 1 2 3 4 5 6 
#
# 1 76.4964 27.8205 32.7496 0.0000 0.0000 0.0000
# 2 27.8205 76.4964 32.7496 0.0000 0.0000 0.0000
# 3 32.7496 32.7496 102.6804 0.0000 0.0000 0.0000
# 4 0.0000 0.0000 0.0000 17.1503 0.0000 0.0000
# 5 0.0000 0.0000 0.0000 0.0000 17.1503 0.0000
# 6 0.0000 0.0000 0.0000 0.0000 0.0000 5.2210
#
#
#
# Elastic Compliance Matrix: (Units=1/GPa)
#
#
# Indices 1 2 3 4 5 6 
#
# 1 0.016265 -0.004279 -0.003823 0.000000 0.000000 0.000000
# 2 -0.004279 0.016265 -0.003823 0.000000 0.000000 0.000000
# 3 -0.003823 -0.003823 0.012178 0.000000 0.000000 0.000000
# 4 0.000000 0.000000 0.000000 0.058308 0.000000 0.000000
# 5 0.000000 0.000000 0.000000 0.000000 0.058308 0.000000
# 6 0.000000 0.000000 0.000000 0.000000 0.000000 0.191535
#
#
# Mechanical properties :
#
#
# Convention : Reuss Voigt Hill
#
# Bulk Modulus (GPa) = 47.94189 49.14581 48.54385
# Shear Modulus (GPa) = 13.03230 18.72786 15.88008
#
# Velocity S-wave (km/s) = 2.60036 3.11722 2.87045
# Velocity P-wave (km/s) = 5.82158 6.20126 6.01441
#
# Compressibility (1/GPa) = 0.02085859
#
# Stress axis : x y z
#
# Youngs Moduli (GPa) = 61.48036 61.48036 82.11735
#
# Poissons Ratio (x) = 0.26306 0.31394
# Poissons Ratio (y) = 0.26306 0.31394
# Poissons Ratio (z) = 0.23505 0.23505
#
# Static dielectric constant tensor:
#      x y z
#    x 3.317270 0.000000 0.000000 
#    y 0.000000 3.317270 0.000000 
#    z 0.000000 0.000000 3.641010 
# 
# 
# High freq. dielectric constant tensor:
#      x y z
#    x 1.721230 0.000000 0.000000 
#    y 0.000000 1.721230 0.000000 
#    z 0.000000 0.000000 1.766310 
# 
# From -- ./inp_files/8418.got.cif
#   From: 2010.03.12/outbox.cif.g09.slc.cpg/sg131_5_cif.got.tgz:8418.got - 2010.04.06 17:36:35.
