data_PCOD8315556
_publ_section_title
;
Structure prediction by ZEFSAII (Michael W. Deem and Ramdas Pophale) SiO2 
 PCOD8315556
Probable space group: P 4/N C C
;
_chemical_formula_sum "Si O2"
_cell_formula_units_Z 112
_cell_length_a 14.328748
_cell_length_b 14.328748
_cell_length_c 24.763680
_cell_angle_alpha 90.000000
_cell_angle_beta 90.000000
_cell_angle_gamma 90.000000
_cell_volume 5084.305908
_symmetry_space_group_name_H-M "P 4/N C C"
_symmetry_group_IT_number 130
_symmetry_cell_setting 'tetragonal'
loop_
_space_group_symop_operation_xyz
x,y,z
1/2-y,x,z
1/2-x,1/2-y,z
y,1/2-x,z
1/2+x,-y,1/2-z
-x,1/2+y,1/2-z
1/2+y,1/2+x,1/2-z
-y,-x,1/2-z
-x,-y,-z
1/2+y,-x,-z
1/2+x,1/2+y,-z
-y,1/2+x,-z
1/2-x,y,1/2+z
x,1/2-y,1/2+z
1/2-y,1/2-x,1/2+z
y,x,1/2+z
loop_
_atom_site_type_symbol
_atom_site_label
_atom_site_fract_x
_atom_site_fract_y
_atom_site_fract_z
Si Si1 0.154153 0.639522 0.988752
Si Si2 0.424128 0.640336 0.126762
Si Si3 0.960785 0.663582 0.456501
Si Si4 0.256994 0.100841 0.724559
Si Si5 0.105114 0.747357 0.728887
Si Si6 0.832716 0.539829 0.383455
Si Si7 0.184194 0.115549 0.425926
O O1 0.129564 0.638351 0.926424
O O2 0.123122 0.734669 0.015221
O O3 0.110345 0.555704 0.024426
O O4 0.396104 0.729797 0.163809
O O5 0.389719 0.540331 0.150757
O O6 0.532513 0.642976 0.110564
O O7 0.910212 0.604994 0.410586
O O8 0.990668 0.763596 0.431894
O O9 0.898355 0.676656 0.509787
O O10 0.346531 0.162196 0.742517
O O11 0.266930 0.092106 0.659905
O O12 0.252342 0.000971 0.752649
O O13 0.155929 0.655929 0.750000
O O14 0.159668 0.840333 0.750000
O O15 0.292555 0.126752 0.410210
#
# Coordination Sequence:
#
# PCOD8315556 Si02
#       7
#    16  16  16  16  16  16  16
#     4  10  22  39  61  93 139 180 215 269 332 414
#     4  11  25  43  68 100 136 176 233 282 352 427
#     4  11  22  36  63  98 134 176 224 273 338 404
#     4  11  25  46  72 106 139 178 236 300 361 418
#     4  11  26  49  75  99 136 185 242 307 369 432
#     4  12  22  39  67  99 134 176 222 287 340 405
#     4  10  22  41  65  98 142 188 228 274 336 423
#
# _framework density 22.028572
#
# number of rings (size 3 to 8) (size 9 to 14) (size 15 to 20)
#    0.000    1.143    5.714    0.000    0.000   10.000 
#    2.571    1.429    0.000    0.000    0.000    0.000 
#    0.000    0.000    0.000    0.000    0.000    0.000 
#
# Total GULP energy -1387584.816220 kJ/mol
# GULP energy per Si atom -12389.150145 kJ/mol
# Density = 2.197843 g / cm^3
# Si number density = 22.028572 Si / 1000 Ang^3
#
#
#
# Elastic Constant Matrix: (Units=GPa)
#
#
# Indices 1 2 3 4 5 6 
#
# 1 109.1880 49.0055 26.1303 0.0000 0.0000 0.0000
# 2 49.0055 109.1874 26.1300 0.0000 0.0000 0.0000
# 3 26.1303 26.1300 65.4132 0.0000 0.0000 0.0000
# 4 0.0000 0.0000 0.0000 27.0016 0.0000 0.0000
# 5 0.0000 0.0000 0.0000 0.0000 27.0015 0.0000
# 6 0.0000 0.0000 0.0000 0.0000 0.0000 24.4647
#
#
#
# Elastic Compliance Matrix: (Units=1/GPa)
#
#
# Indices 1 2 3 4 5 6 
#
# 1 0.011949 -0.004667 -0.002909 0.000000 0.000000 0.000000
# 2 -0.004667 0.011949 -0.002909 0.000000 0.000000 0.000000
# 3 -0.002909 -0.002909 0.017612 0.000000 0.000000 0.000000
# 4 0.000000 0.000000 0.000000 0.037035 0.000000 0.000000
# 5 0.000000 0.000000 0.000000 0.000000 0.037035 0.000000
# 6 0.000000 0.000000 0.000000 0.000000 0.000000 0.040875
#
#
# Mechanical properties :
#
#
# Convention : Reuss Voigt Hill
#
# Bulk Modulus (GPa) = 48.68509 54.03556 51.36032
# Shear Modulus (GPa) = 27.13381 27.86175 27.49778
#
# Velocity S-wave (km/s) = 3.51344 3.56026 3.53693
# Velocity P-wave (km/s) = 6.21353 6.44078 6.32817
#
# Compressibility (1/GPa) = 0.02054017
#
# Stress axis : x y z
#
# Youngs Moduli (GPa) = 83.68700 83.68669 56.78088
#
# Poissons Ratio (x) = 0.39056 0.16518
# Poissons Ratio (y) = 0.39056 0.16518
# Poissons Ratio (z) = 0.24345 0.24345
#
# Static dielectric constant tensor:
#      x y z
#    x 3.977770 0.000000 0.000000 
#    y 0.000000 3.977770 0.000000 
#    z 0.000000 0.000000 3.980250 
# 
# 
# High freq. dielectric constant tensor:
#      x y z
#    x 1.870870 0.000000 0.000000 
#    y 0.000000 1.870870 0.000000 
#    z 0.000000 0.000000 1.857870 
# 
# From -- ./inp_files/4281.got.cif
#   From: 2010.03.12/outbox.cif.g09.slc.cpg/sg130_3_cif.got.tgz:4281.got - 2010.04.06 17:30:23.
