data_PCOD8315572
_publ_section_title
;
Structure prediction by ZEFSAII (Michael W. Deem and Ramdas Pophale) SiO2 
 PCOD8315572
Probable space group: P 4/N C C
;
_chemical_formula_sum "Si O2"
_cell_formula_units_Z 72
_cell_length_a 16.702883
_cell_length_b 16.702883
_cell_length_c 11.426816
_cell_angle_alpha 90.000000
_cell_angle_beta 90.000000
_cell_angle_gamma 90.000000
_cell_volume 3187.925122
_symmetry_space_group_name_H-M "P 4/N C C"
_symmetry_group_IT_number 130
_symmetry_cell_setting 'tetragonal'
loop_
_space_group_symop_operation_xyz
x,y,z
1/2-y,x,z
1/2-x,1/2-y,z
y,1/2-x,z
1/2+x,-y,1/2-z
-x,1/2+y,1/2-z
1/2+y,1/2+x,1/2-z
-y,-x,1/2-z
-x,-y,-z
1/2+y,-x,-z
1/2+x,1/2+y,-z
-y,1/2+x,-z
1/2-x,y,1/2+z
x,1/2-y,1/2+z
1/2-y,1/2-x,1/2+z
y,x,1/2+z
loop_
_atom_site_type_symbol
_atom_site_label
_atom_site_fract_x
_atom_site_fract_y
_atom_site_fract_z
Si Si1 0.990800 0.847296 0.818730
Si Si2 0.258706 0.542524 0.893221
Si Si3 0.403913 0.899178 0.535808
Si Si4 0.119413 0.227353 0.006902
Si Si5 0.016455 0.516455 0.750000
O O1 0.918645 0.791010 0.864907
O O2 0.048717 0.793949 0.736984
O O3 0.962285 0.921796 0.738692
O O4 0.039651 0.887517 0.923834
O O5 0.187381 0.607134 0.902560
O O6 0.320476 0.562477 0.996947
O O7 0.223390 0.452488 0.912557
O O8 0.442238 0.957098 0.630660
O O9 0.185599 0.158514 0.990955
#
# Coordination Sequence:
#
# PCOD8315572 Si02
#       5
#    16  16  16  16   8
#     4  11  24  43  71 103 143 184 248 307 360 441
#     4  11  25  44  71 101 142 185 242 308 369 446
#     4  11  26  44  70 107 138 191 244 301 373 443
#     4  10  24  42  65 102 146 187 236 298 374 442
#     4  12  24  42  78 103 141 194 246 298 370 450
#
# _framework density 22.585222000000002
#
# number of rings (size 3 to 8) (size 9 to 14) (size 15 to 20)
#    0.000    1.111    2.222    2.000   15.556    0.444 
#    0.000    2.222    0.000    0.000    0.000    0.000 
#    0.000    0.000    0.000    0.000    0.000    0.000 
#
# Total GULP energy -892441.494243 kJ/mol
# GULP energy per Si atom -12395.020753 kJ/mol
# Density = 2.253382 g / cm^3
# Si number density = 22.585222 Si / 1000 Ang^3
#
#
#
# Elastic Constant Matrix: (Units=GPa)
#
#
# Indices 1 2 3 4 5 6 
#
# 1 91.1539 25.5791 18.2146 0.0000 0.0000 0.0000
# 2 25.5791 91.1539 18.2146 0.0000 0.0000 0.0000
# 3 18.2146 18.2146 88.2172 0.0000 0.0000 0.0000
# 4 0.0000 0.0000 0.0000 39.0344 0.0000 0.0000
# 5 0.0000 0.0000 0.0000 0.0000 39.0344 0.0000
# 6 0.0000 0.0000 0.0000 0.0000 0.0000 37.1829
#
#
#
# Elastic Compliance Matrix: (Units=1/GPa)
#
#
# Indices 1 2 3 4 5 6 
#
# 1 0.012203 -0.003047 -0.001891 0.000000 0.000000 0.000000
# 2 -0.003047 0.012203 -0.001891 0.000000 0.000000 0.000000
# 3 -0.001891 -0.001891 0.012116 0.000000 0.000000 0.000000
# 4 0.000000 0.000000 0.000000 0.025618 0.000000 0.000000
# 5 0.000000 0.000000 0.000000 0.000000 0.025618 0.000000
# 6 0.000000 0.000000 0.000000 0.000000 0.000000 0.026894
#
#
# Mechanical properties :
#
#
# Convention : Reuss Voigt Hill
#
# Bulk Modulus (GPa) = 43.73092 43.83796 43.78444
# Shear Modulus (GPa) = 36.78321 36.95146 36.86733
#
# Velocity S-wave (km/s) = 4.04002 4.04925 4.04464
# Velocity P-wave (km/s) = 6.41615 6.42760 6.42188
#
# Compressibility (1/GPa) = 0.02286712
#
# Stress axis : x y z
#
# Youngs Moduli (GPa) = 81.94599 81.94599 82.53296
#
# Poissons Ratio (x) = 0.24966 0.15604
# Poissons Ratio (y) = 0.24966 0.15604
# Poissons Ratio (z) = 0.15493 0.15493
#
# Static dielectric constant tensor:
#      x y z
#    x 4.246780 0.000000 0.000000 
#    y 0.000000 4.246780 0.000000 
#    z 0.000000 0.000000 4.109580 
# 
# 
# High freq. dielectric constant tensor:
#      x y z
#    x 1.889320 0.000000 0.000000 
#    y 0.000000 1.889320 0.000000 
#    z 0.000000 0.000000 1.894690 
# 
# From -- ./inp_files/1619.got.cif
#   From: 2010.03.12/outbox.cif.g09.slc.cpg/sg130_1_cif.got.tgz:1619.got - 2010.04.06 17:30:23.
