data_PCOD8315142
_publ_section_title
;
Structure prediction by ZEFSAII (Michael W. Deem and Ramdas Pophale) SiO2 
 PCOD8315142
Probable space group: P 4/N M M
;
_chemical_formula_sum "Si O2"
_cell_formula_units_Z 128
_cell_length_a 23.127574
_cell_length_b 23.127574
_cell_length_c 12.320066
_cell_angle_alpha 90.000000
_cell_angle_beta 90.000000
_cell_angle_gamma 90.000000
_cell_volume 6589.814549
_symmetry_space_group_name_H-M "P 4/N M M"
_symmetry_group_IT_number 129
_symmetry_cell_setting 'tetragonal'
loop_
_space_group_symop_operation_xyz
x,y,z
1/2-y,x,z
1/2-x,1/2-y,z
y,1/2-x,z
1/2+x,-y,-z
-x,1/2+y,-z
1/2+y,1/2+x,-z
-y,-x,-z
-x,-y,-z
1/2+y,-x,-z
1/2+x,1/2+y,-z
-y,1/2+x,-z
1/2-x,y,z
x,1/2-y,z
1/2-y,1/2-x,z
y,x,z
loop_
_atom_site_type_symbol
_atom_site_label
_atom_site_fract_x
_atom_site_fract_y
_atom_site_fract_z
Si Si1 0.815081 0.160414 0.158601
Si Si2 0.314781 0.405186 0.230894
Si Si3 0.035442 0.374296 0.043168
Si Si4 0.681772 0.997027 0.349183
Si Si5 0.124027 0.817801 0.395746
Si Si6 0.588067 0.682016 0.161665
Si Si7 0.688363 0.075948 0.982236
Si Si8 0.184998 0.091818 0.476824
O O1 0.750000 0.187309 0.139717
O O2 0.828318 0.162041 0.287211
O O3 0.867097 0.191676 0.094609
O O4 0.814401 0.095466 0.108420
O O5 0.250000 0.402421 0.185989
O O6 0.340419 0.340419 0.224244
O O7 0.317522 0.428947 0.352914
O O8 0.353556 0.448957 0.163001
O O9 0.059509 0.440491 0.026044
O O10 0.067062 0.331720 0.959382
O O11 0.965892 0.366801 0.036745
O O12 0.750000 0.003296 0.346299
O O13 0.661174 0.963988 0.240527
O O14 0.660133 0.960454 0.452319
O O15 0.655946 0.061110 0.365480
O O16 0.149686 0.850314 0.500000
O O17 0.121720 0.750000 0.424504
O O18 0.601938 0.750000 0.174404
O O19 0.646307 0.646307 0.189510
O O20 0.750000 0.043138 0.963553
O O21 0.250000 0.107116 0.512921
O O22 0.149176 0.149176 0.499325
#
# Coordination Sequence:
#
# PCOD8315142 Si02
#       8
#    16  16  16  16  16  16  16  16
#     4   9  20  37  55  81 112 137 171 221 273 326
#     4   9  17  28  42  63  94 130 169 217 268 317
#     4  10  20  33  50  76 108 142 183 226 266 312
#     4   9  18  33  52  73  98 133 176 215 255 312
#     4  10  21  37  57  80 108 139 167 203 258 325
#     4  10  19  31  51  78 109 146 186 230 277 321
#     4  10  19  34  59  83 107 145 186 224 270 322
#     4   9  17  29  46  68  95 129 170 217 265 310
#
# _framework density 19.423915999999998
#
# number of rings (size 3 to 8) (size 9 to 14) (size 15 to 20)
#    0.000    2.500    0.000    2.250    0.000    4.250 
#    0.000    6.250    0.000    7.500    0.000    0.000 
#    0.000    0.000    0.000    0.000    0.000    0.000 
#
# Total GULP energy -1585762.917390 kJ/mol
# GULP energy per Si atom -12388.772792 kJ/mol
# Density = 1.937971 g / cm^3
# Si number density = 19.423916 Si / 1000 Ang^3
#
#
#
# Elastic Constant Matrix: (Units=GPa)
#
#
# Indices 1 2 3 4 5 6 
#
# 1 80.0703 28.9615 21.9579 0.0000 0.0000 0.0000
# 2 28.9615 80.0694 21.9573 0.0000 0.0000 0.0000
# 3 21.9579 21.9573 87.9368 0.0000 0.0000 0.0000
# 4 0.0000 0.0000 0.0000 24.0259 0.0000 0.0000
# 5 0.0000 0.0000 0.0000 0.0000 24.0259 0.0000
# 6 0.0000 0.0000 0.0000 0.0000 0.0000 20.7538
#
#
#
# Elastic Compliance Matrix: (Units=1/GPa)
#
#
# Indices 1 2 3 4 5 6 
#
# 1 0.014882 -0.004685 -0.002546 0.000000 0.000000 0.000000
# 2 -0.004685 0.014882 -0.002546 0.000000 0.000000 0.000000
# 3 -0.002546 -0.002546 0.012643 0.000000 0.000000 0.000000
# 4 0.000000 0.000000 0.000000 0.041622 0.000000 0.000000
# 5 0.000000 0.000000 0.000000 0.000000 0.041622 0.000000
# 6 0.000000 0.000000 0.000000 0.000000 0.000000 0.048184
#
#
# Mechanical properties :
#
#
# Convention : Reuss Voigt Hill
#
# Bulk Modulus (GPa) = 43.75805 43.75889 43.75847
# Shear Modulus (GPa) = 24.87489 25.44111 25.15800
#
# Velocity S-wave (km/s) = 3.58247 3.62302 3.60280
# Velocity P-wave (km/s) = 6.29992 6.33079 6.31538
#
# Compressibility (1/GPa) = 0.02285294
#
# Stress axis : x y z
#
# Youngs Moduli (GPa) = 67.19659 67.19613 79.09284
#
# Poissons Ratio (x) = 0.31478 0.20139
# Poissons Ratio (y) = 0.31478 0.20138
# Poissons Ratio (z) = 0.17110 0.17109
#
# Static dielectric constant tensor:
#      x y z
#    x 3.466950 0.000000 0.000000 
#    y 0.000000 3.466950 0.000000 
#    z 0.000000 0.000000 3.660340 
# 
# 
# High freq. dielectric constant tensor:
#      x y z
#    x 1.737800 0.000000 0.000000 
#    y 0.000000 1.737800 0.000000 
#    z 0.000000 0.000000 1.767710 
# 
# From -- ./inp_files/4217.got.cif
#   From: 2010.03.12/outbox.cif.g09.slc.cpg/sg129_3_cif.got.tgz:4217.got - 2010.04.06 17:19:44.
