data_PCOD8315406
_publ_section_title
;
Structure prediction by ZEFSAII (Michael W. Deem and Ramdas Pophale) SiO2 
 PCOD8315406
Probable space group: P 4/N M M
;
_chemical_formula_sum "Si O2"
_cell_formula_units_Z 96
_cell_length_a 20.108529
_cell_length_b 20.108529
_cell_length_c 12.246581
_cell_angle_alpha 90.000000
_cell_angle_beta 90.000000
_cell_angle_gamma 90.000000
_cell_volume 4951.941014
_symmetry_space_group_name_H-M "P 4/N M M"
_symmetry_group_IT_number 129
_symmetry_cell_setting 'tetragonal'
loop_
_space_group_symop_operation_xyz
x,y,z
1/2-y,x,z
1/2-x,1/2-y,z
y,1/2-x,z
1/2+x,-y,-z
-x,1/2+y,-z
1/2+y,1/2+x,-z
-y,-x,-z
-x,-y,-z
1/2+y,-x,-z
1/2+x,1/2+y,-z
-y,1/2+x,-z
1/2-x,y,z
x,1/2-y,z
1/2-y,1/2-x,z
y,x,z
loop_
_atom_site_type_symbol
_atom_site_label
_atom_site_fract_x
_atom_site_fract_y
_atom_site_fract_z
Si Si1 0.327062 0.877397 0.395301
Si Si2 0.371169 0.476735 0.407206
Si Si3 0.823429 0.432551 0.014377
Si Si4 0.442942 0.627807 0.244198
Si Si5 0.887447 0.508839 0.827801
Si Si6 0.431469 0.174500 0.625628
O O1 0.328742 0.828742 0.500000
O O2 0.250000 0.886903 0.358113
O O3 0.371854 0.847989 0.296092
O O4 0.363458 0.945364 0.433443
O O5 0.447230 0.447230 0.417115
O O6 0.347282 0.466691 0.280685
O O7 0.325484 0.437058 0.493436
O O8 0.750000 0.406628 0.992672
O O9 0.829618 0.460796 0.136760
O O10 0.870435 0.370435 0.000000
O O11 0.838499 0.489197 0.925149
O O12 0.436081 0.550883 0.210622
O O13 0.502746 0.638681 0.328369
O O14 0.932846 0.567155 0.876105
O O15 0.424788 0.250000 0.667548
O O16 0.366495 0.133506 0.663835
#
# Coordination Sequence:
#
# PCOD8315406 Si02
#       6
#    16  16  16  16  16  16
#     4  11  22  36  55  80 113 150 190 236 283 333
#     4   9  19  34  56  83 110 141 178 222 276 334
#     4  10  22  37  54  76 106 145 187 227 273 329
#     4  10  21  36  56  81 111 146 186 230 279 337
#     4   9  19  35  57  84 109 136 179 233 279 324
#     4  11  22  36  57  83 112 148 186 228 283 342
#
# _framework density 19.386337999999999
#
# number of rings (size 3 to 8) (size 9 to 14) (size 15 to 20)
#    0.000    2.000    1.667    1.500    0.000   12.500 
#    0.000    0.000    0.000    0.000    0.000    0.000 
#    0.000    0.333    0.000    0.333    0.000    0.000 
#
# Total GULP energy -1189551.006726 kJ/mol
# GULP energy per Si atom -12391.156320 kJ/mol
# Density = 1.934221 g / cm^3
# Si number density = 19.386338 Si / 1000 Ang^3
#
#
#
# Elastic Constant Matrix: (Units=GPa)
#
#
# Indices 1 2 3 4 5 6 
#
# 1 67.5847 35.1072 28.7904 0.0000 0.0000 0.0000
# 2 35.1072 67.5847 28.7904 0.0000 0.0000 0.0000
# 3 28.7904 28.7904 105.2613 0.0000 0.0000 0.0000
# 4 0.0000 0.0000 0.0000 17.1407 0.0000 0.0000
# 5 0.0000 0.0000 0.0000 0.0000 17.1407 0.0000
# 6 0.0000 0.0000 0.0000 0.0000 0.0000 7.9152
#
#
#
# Elastic Compliance Matrix: (Units=1/GPa)
#
#
# Indices 1 2 3 4 5 6 
#
# 1 0.021146 -0.009644 -0.003146 0.000000 0.000000 0.000000
# 2 -0.009644 0.021146 -0.003146 0.000000 0.000000 0.000000
# 3 -0.003146 -0.003146 0.011221 0.000000 0.000000 0.000000
# 4 0.000000 0.000000 0.000000 0.058341 0.000000 0.000000
# 5 0.000000 0.000000 0.000000 0.000000 0.058341 0.000000
# 6 0.000000 0.000000 0.000000 0.000000 0.000000 0.126339
#
#
# Mechanical properties :
#
#
# Convention : Reuss Voigt Hill
#
# Bulk Modulus (GPa) = 46.20839 47.31184 46.76012
# Shear Modulus (GPa) = 14.89780 18.28882 16.59331
#
# Velocity S-wave (km/s) = 2.77513 3.07479 2.92880
# Velocity P-wave (km/s) = 5.84429 6.08798 5.96738
#
# Compressibility (1/GPa) = 0.02164109
#
# Stress axis : x y z
#
# Youngs Moduli (GPa) = 47.28985 47.28985 89.11817
#
# Poissons Ratio (x) = 0.45608 0.28036
# Poissons Ratio (y) = 0.45608 0.28036
# Poissons Ratio (z) = 0.14877 0.14877
#
# Static dielectric constant tensor:
#      x y z
#    x 3.298750 0.000000 0.000000 
#    y 0.000000 3.298750 0.000000 
#    z 0.000000 0.000000 3.935120 
# 
# 
# High freq. dielectric constant tensor:
#      x y z
#    x 1.728630 0.000000 0.000000 
#    y 0.000000 1.728630 0.000000 
#    z 0.000000 0.000000 1.767580 
# 
# From -- ./inp_files/3867.got.cif
#   From: 2010.03.12/outbox.cif.g09.slc.cpg/sg129_2_cif.got.tgz:3867.got - 2010.04.06 17:19:44.
