data_PCOD8315745
_publ_section_title
;
Structure prediction by ZEFSAII (Michael W. Deem and Ramdas Pophale) SiO2 
 PCOD8315745
Probable space group: P 42/M M C
;
_chemical_formula_sum "Si O2"
_cell_formula_units_Z 104
_cell_length_a 26.843947
_cell_length_b 26.843947
_cell_length_c 8.780052
_cell_angle_alpha 90.000000
_cell_angle_beta 90.000000
_cell_angle_gamma 90.000000
_cell_volume 6326.883438
_symmetry_space_group_name_H-M "P 42/M M C"
_symmetry_group_IT_number 131
_symmetry_cell_setting 'tetragonal'
loop_
_space_group_symop_operation_xyz
x,y,z
-x,-y,z
-y,x,1/2+z
y,-x,1/2+z
-x,y,-z
x,-y,-z
y,x,1/2-z
-y,-x,1/2-z
-x,-y,-z
x,y,-z
y,-x,1/2-z
-y,x,1/2-z
x,-y,z
-x,y,z
-y,-x,1/2+z
y,x,1/2+z
loop_
_atom_site_type_symbol
_atom_site_label
_atom_site_fract_x
_atom_site_fract_y
_atom_site_fract_z
Si Si1 0.632386 0.557680 0.320665
Si Si2 0.185913 0.341668 0.180059
Si Si3 0.556773 0.000000 0.820564
Si Si4 0.233116 0.158286 0.680583
Si Si5 0.080259 0.374105 0.179813
Si Si6 0.946421 0.735702 0.819417
Si Si7 0.369765 0.706009 0.318575
O O1 0.584175 0.584175 0.250000
O O2 0.633414 0.567567 0.500000
O O3 0.629088 0.500000 0.279440
O O4 0.682720 0.579437 0.246676
O O5 0.181799 0.284973 0.242160
O O6 0.138650 0.375363 0.230099
O O7 0.236821 0.366982 0.237732
O O8 0.185651 0.337496 0.000000
O O9 0.582013 0.949575 0.760400
O O10 0.500000 0.000000 0.763406
O O11 0.560329 0.000000 0.000000
O O12 0.186177 0.186177 0.750000
O O13 0.229819 0.162002 0.500000
O O14 0.231260 0.100376 0.737215
O O15 0.058494 0.321279 0.235391
O O16 0.074135 0.380994 0.000000
O O17 0.000000 0.756846 0.760417
O O18 0.944864 0.735237 0.000000
O O19 0.322588 0.677413 0.250000
O O20 0.369000 0.701227 0.500000
#
# Coordination Sequence:
#
# PCOD8315745 Si02
#       7
#    16  16   8  16  16  16  16
#     4  10  21  36  53  73  95 119 149 183 221 269
#     4   8  16  29  47  71  93 117 152 192 224 258
#     4  11  23  35  45  63  93 119 141 183 244 291
#     4   9  16  26  41  63  94 122 147 181 222 268
#     4   9  16  31  53  69  82 109 156 198 224 262
#     4   8  13  24  45  67  83 110 151 190 223 258
#     4  10  18  30  49  72  99 127 154 184 220 266
#
# _framework density 16.437792999999999
#
# number of rings (size 3 to 8) (size 9 to 14) (size 15 to 20)
#    0.000    2.846    0.769    4.385    0.000    2.000 
#    0.000    6.923    0.000    4.615    0.000    0.000 
#    0.000    0.308    0.000    3.846    0.000    0.000 
#
# Total GULP energy -1288845.163812 kJ/mol
# GULP energy per Si atom -12392.741960 kJ/mol
# Density = 1.640038 g / cm^3
# Si number density = 16.437793 Si / 1000 Ang^3
#
#
#
# Elastic Constant Matrix: (Units=GPa)
#
#
# Indices 1 2 3 4 5 6 
#
# 1 147.9409 78.7497 35.4721 0.0000 0.0000 0.0000
# 2 78.7497 147.9381 35.4760 0.0000 0.0000 0.0000
# 3 35.4721 35.4760 44.9784 0.0000 0.0000 0.0000
# 4 0.0000 0.0000 0.0000 14.8302 0.0000 0.0000
# 5 0.0000 0.0000 0.0000 0.0000 14.8295 0.0000
# 6 0.0000 0.0000 0.0000 0.0000 0.0000 24.0120
#
#
#
# Elastic Compliance Matrix: (Units=1/GPa)
#
#
# Indices 1 2 3 4 5 6 
#
# 1 0.010155 -0.004298 -0.004619 0.000000 0.000000 0.000000
# 2 -0.004298 0.010155 -0.004620 0.000000 0.000000 0.000000
# 3 -0.004619 -0.004620 0.029520 0.000000 0.000000 0.000000
# 4 0.000000 0.000000 0.000000 0.067430 0.000000 0.000000
# 5 0.000000 0.000000 0.000000 0.000000 0.067433 0.000000
# 6 0.000000 0.000000 0.000000 0.000000 0.000000 0.041646
#
#
# Mechanical properties :
#
#
# Convention : Reuss Voigt Hill
#
# Bulk Modulus (GPa) = 43.94455 71.13924 57.54190
# Shear Modulus (GPa) = 19.15728 23.47832 21.31780
#
# Velocity S-wave (km/s) = 3.41756 3.78340 3.60513
# Velocity P-wave (km/s) = 6.50883 7.90299 7.23955
#
# Compressibility (1/GPa) = 0.02275595
#
# Stress axis : x y z
#
# Youngs Moduli (GPa) = 98.47692 98.46952 33.87588
#
# Poissons Ratio (x) = 0.42322 0.15646
# Poissons Ratio (y) = 0.42325 0.15652
# Poissons Ratio (z) = 0.45482 0.45497
#
# Static dielectric constant tensor:
#      x y z
#    x 3.275060 0.000000 0.000000 
#    y 0.000000 3.275070 0.000000 
#    z 0.000000 0.000000 2.846850 
# 
# 
# High freq. dielectric constant tensor:
#      x y z
#    x 1.625500 0.000000 0.000000 
#    y 0.000000 1.625500 0.000000 
#    z 0.000000 0.000000 1.611390 
# 
# From -- ./inp_files/2561.got.cif
#   From: 2010.03.12/outbox.cif.g09.slc.cpg/sg131_2_cif.got.tgz:2561.got - 2010.04.06 17:36:35.
