data_PCOD8315698
_publ_section_title
;
Structure prediction by ZEFSAII (Michael W. Deem and Ramdas Pophale) SiO2 
 PCOD8315698
Probable space group: P 42/M M C
;
_chemical_formula_sum "Si O2"
_cell_formula_units_Z 80
_cell_length_a 22.183732
_cell_length_b 22.183732
_cell_length_c 9.274323
_cell_angle_alpha 90.000000
_cell_angle_beta 90.000000
_cell_angle_gamma 90.000000
_cell_volume 4564.060966
_symmetry_space_group_name_H-M "P 42/M M C"
_symmetry_group_IT_number 131
_symmetry_cell_setting 'tetragonal'
loop_
_space_group_symop_operation_xyz
x,y,z
-x,-y,z
-y,x,1/2+z
y,-x,1/2+z
-x,y,-z
x,-y,-z
y,x,1/2-z
-y,-x,1/2-z
-x,-y,-z
x,y,-z
y,-x,1/2-z
-y,x,1/2-z
x,-y,z
-x,y,z
-y,-x,1/2+z
y,x,1/2+z
loop_
_atom_site_type_symbol
_atom_site_label
_atom_site_fract_x
_atom_site_fract_y
_atom_site_fract_z
Si Si1 0.652385 0.568423 0.167972
Si Si2 0.000000 0.190719 0.663435
Si Si3 0.113500 0.808571 0.838517
Si Si4 0.665298 0.000000 0.837819
Si Si5 0.750935 0.665075 0.169637
Si Si6 0.666427 0.114344 0.339404
O O1 0.594565 0.594565 0.250000
O O2 0.663479 0.500000 0.217651
O O3 0.712146 0.605976 0.207516
O O4 0.637899 0.572758 0.000000
O O5 0.057382 0.165026 0.748819
O O6 0.000000 0.166205 0.500000
O O7 0.000000 0.262906 0.663126
O O8 0.173295 0.826705 0.750000
O O9 0.108967 0.737627 0.847918
O O10 0.114593 0.835887 0.000000
O O11 0.640324 0.060617 0.759914
O O12 0.639933 0.000000 0.000000
O O13 0.723120 0.723120 0.250000
O O14 0.819085 0.651029 0.223065
O O15 0.751389 0.680190 0.000000
O O16 0.638935 0.106578 0.500000
#
# Coordination Sequence:
#
# PCOD8315698 Si02
#       6
#    16   8  16   8  16  16
#     4   9  18  32  49  70  97 128 162 199 236 275
#     4   9  17  29  41  54  74 100 130 165 204 247
#     4  10  18  27  40  58  78 101 129 162 203 252
#     4   9  17  27  41  61  85 113 145 180 218 263
#     4   9  17  29  45  66  92 122 154 190 234 281
#     4   9  17  28  42  61  87 116 144 177 220 269
#
# _framework density 17.528248999999999
#
# number of rings (size 3 to 8) (size 9 to 14) (size 15 to 20)
#    0.000    2.800    0.000    1.800    0.000    4.600 
#    0.000    1.000    0.000    0.300    0.000    2.800 
#    0.000    5.600    0.000    0.000    0.000    0.000 
#
# Total GULP energy -991712.291983 kJ/mol
# GULP energy per Si atom -12396.403650 kJ/mol
# Density = 1.748835 g / cm^3
# Si number density = 17.528249 Si / 1000 Ang^3
#
#
#
# Elastic Constant Matrix: (Units=GPa)
#
#
# Indices 1 2 3 4 5 6 
#
# 1 93.9321 29.1767 39.7965 0.0000 0.0000 0.0000
# 2 29.1767 93.9337 39.7964 0.0000 0.0000 0.0000
# 3 39.7965 39.7964 97.7017 0.0000 0.0000 0.0000
# 4 0.0000 0.0000 0.0000 21.8052 0.0000 0.0000
# 5 0.0000 0.0000 0.0000 0.0000 21.8050 0.0000
# 6 0.0000 0.0000 0.0000 0.0000 0.0000 12.3096
#
#
#
# Elastic Compliance Matrix: (Units=1/GPa)
#
#
# Indices 1 2 3 4 5 6 
#
# 1 0.013235 -0.002208 -0.004491 0.000000 0.000000 0.000000
# 2 -0.002208 0.013234 -0.004491 0.000000 0.000000 0.000000
# 3 -0.004491 -0.004491 0.013894 0.000000 0.000000 0.000000
# 4 0.000000 0.000000 0.000000 0.045861 0.000000 0.000000
# 5 0.000000 0.000000 0.000000 0.000000 0.045861 0.000000
# 6 0.000000 0.000000 0.000000 0.000000 0.000000 0.081237
#
#
# Mechanical properties :
#
#
# Convention : Reuss Voigt Hill
#
# Bulk Modulus (GPa) = 55.61201 55.90076 55.75639
# Shear Modulus (GPa) = 20.68700 22.97050 21.82875
#
# Velocity S-wave (km/s) = 3.43914 3.62399 3.53278
# Velocity P-wave (km/s) = 6.89683 7.03364 6.96557
#
# Compressibility (1/GPa) = 0.01798173
#
# Stress axis : x y z
#
# Youngs Moduli (GPa) = 75.55878 75.56037 71.97252
#
# Poissons Ratio (x) = 0.16683 0.32326
# Poissons Ratio (y) = 0.16683 0.32326
# Poissons Ratio (z) = 0.33937 0.33937
#
# Static dielectric constant tensor:
#      x y z
#    x 3.142610 0.000000 0.000000 
#    y 0.000000 3.142610 0.000000 
#    z 0.000000 0.000000 3.467030 
# 
# 
# High freq. dielectric constant tensor:
#      x y z
#    x 1.651970 0.000000 0.000000 
#    y 0.000000 1.651970 0.000000 
#    z 0.000000 0.000000 1.683350 
# 
# From -- ./inp_files/2105.got.cif
#   From: 2010.03.12/outbox.cif.g09.slc.cpg/sg131_2_cif.got.tgz:2105.got - 2010.04.06 17:36:35.
