data_PCOD8315071
_publ_section_title
;
Structure prediction by ZEFSAII (Michael W. Deem and Ramdas Pophale) SiO2 
 PCOD8315071
Probable space group: P 4/N M M
;
_chemical_formula_sum "Si O2"
_cell_formula_units_Z 96
_cell_length_a 17.608247
_cell_length_b 17.608247
_cell_length_c 18.071377
_cell_angle_alpha 90.000000
_cell_angle_beta 90.000000
_cell_angle_gamma 90.000000
_cell_volume 5603.036988
_symmetry_space_group_name_H-M "P 4/N M M"
_symmetry_group_IT_number 129
_symmetry_cell_setting 'tetragonal'
loop_
_space_group_symop_operation_xyz
x,y,z
1/2-y,x,z
1/2-x,1/2-y,z
y,1/2-x,z
1/2+x,-y,-z
-x,1/2+y,-z
1/2+y,1/2+x,-z
-y,-x,-z
-x,-y,-z
1/2+y,-x,-z
1/2+x,1/2+y,-z
-y,1/2+x,-z
1/2-x,y,z
x,1/2-y,z
1/2-y,1/2-x,z
y,x,z
loop_
_atom_site_type_symbol
_atom_site_label
_atom_site_fract_x
_atom_site_fract_y
_atom_site_fract_z
Si Si1 0.029674 0.908649 0.411921
Si Si2 0.441584 0.935062 0.810795
Si Si3 0.542247 0.335160 0.325973
Si Si4 0.833572 0.547840 0.537153
Si Si5 0.163036 0.045193 0.718859
Si Si6 0.663499 0.162998 0.087172
O O1 0.113585 0.901192 0.376455
O O2 0.021382 0.881907 0.498130
O O3 0.976786 0.849542 0.366820
O O4 0.994302 0.994302 0.400927
O O5 0.474416 0.872702 0.753233
O O6 0.399834 0.891816 0.877463
O O7 0.511709 0.988292 0.838842
O O8 0.378822 0.984377 0.770085
O O9 0.576204 0.250000 0.315724
O O10 0.465194 0.331406 0.374507
O O11 0.750000 0.549537 0.502952
O O12 0.872151 0.627849 0.519106
O O13 0.250000 0.046819 0.741355
O O14 0.128337 0.128337 0.734139
O O15 0.750000 0.140662 0.110750
O O16 0.647910 0.250000 0.111449
O O17 0.654472 0.154472 0.000000
#
# Coordination Sequence:
#
# PCOD8315071 Si02
#       6
#    16  16  16  16  16  16
#     4   9  17  30  46  63  85 115 153 195 238 282
#     4  10  19  31  48  70  98 128 158 193 230 278
#     4  10  19  30  46  67  89 117 156 197 237 280
#     4  10  19  30  46  66  89 120 156 196 241 285
#     4   9  17  28  43  64  89 119 153 189 231 276
#     4   9  18  33  53  76 101 128 157 192 237 286
#
# _framework density 17.133564
#
# number of rings (size 3 to 8) (size 9 to 14) (size 15 to 20)
#    0.000    2.500    0.000    5.000    0.000    2.000 
#    0.000    0.000    0.000   14.000    0.000   14.000 
#    0.000    4.333    0.000   12.333    0.000    0.333 
#
# Total GULP energy -1189563.488920 kJ/mol
# GULP energy per Si atom -12391.286343 kJ/mol
# Density = 1.709457 g / cm^3
# Si number density = 17.133564 Si / 1000 Ang^3
#
#
#
# Elastic Constant Matrix: (Units=GPa)
#
#
# Indices 1 2 3 4 5 6 
#
# 1 112.3013 51.6117 30.5944 0.0000 0.0000 0.0000
# 2 51.6117 112.3013 30.5944 0.0000 0.0000 0.0000
# 3 30.5944 30.5944 63.6649 0.0000 0.0000 0.0000
# 4 0.0000 0.0000 0.0000 22.6439 0.0000 0.0000
# 5 0.0000 0.0000 0.0000 0.0000 22.6439 0.0000
# 6 0.0000 0.0000 0.0000 0.0000 0.0000 22.9663
#
#
#
# Elastic Compliance Matrix: (Units=1/GPa)
#
#
# Indices 1 2 3 4 5 6 
#
# 1 0.011956 -0.004521 -0.003573 0.000000 0.000000 0.000000
# 2 -0.004521 0.011956 -0.003573 0.000000 0.000000 0.000000
# 3 -0.003573 -0.003573 0.019141 0.000000 0.000000 0.000000
# 4 0.000000 0.000000 0.000000 0.044162 0.000000 0.000000
# 5 0.000000 0.000000 0.000000 0.000000 0.044162 0.000000
# 6 0.000000 0.000000 0.000000 0.000000 0.000000 0.043542
#
#
# Mechanical properties :
#
#
# Convention : Reuss Voigt Hill
#
# Bulk Modulus (GPa) = 50.71189 57.09652 53.90420
# Shear Modulus (GPa) = 24.41105 25.34863 24.87984
#
# Velocity S-wave (km/s) = 3.77868 3.85056 3.81479
# Velocity P-wave (km/s) = 6.97855 7.29149 7.13673
#
# Compressibility (1/GPa) = 0.01971924
#
# Stress axis : x y z
#
# Youngs Moduli (GPa) = 83.64087 83.64087 52.24399
#
# Poissons Ratio (x) = 0.37817 0.18665
# Poissons Ratio (y) = 0.37817 0.18665
# Poissons Ratio (z) = 0.29882 0.29882
#
# Static dielectric constant tensor:
#      x y z
#    x 3.173010 0.000000 0.000000 
#    y 0.000000 3.173010 0.000000 
#    z 0.000000 0.000000 3.084800 
# 
# 
# High freq. dielectric constant tensor:
#      x y z
#    x 1.651110 0.000000 0.000000 
#    y 0.000000 1.651110 0.000000 
#    z 0.000000 0.000000 1.648770 
# 
# From -- ./inp_files/5652.got.cif
#   From: 2010.03.12/outbox.cif.g09.slc.cpg/sg129_3_cif.got.tgz:5652.got - 2010.04.06 17:19:44.
