data_PCOD8315873
_publ_section_title
;
Structure prediction by ZEFSAII (Michael W. Deem and Ramdas Pophale) SiO2 
 PCOD8315873
Probable space group: P 42/M M C
;
_chemical_formula_sum "Si O2"
_cell_formula_units_Z 96
_cell_length_a 24.977377
_cell_length_b 24.977377
_cell_length_c 8.848637
_cell_angle_alpha 90.000000
_cell_angle_beta 90.000000
_cell_angle_gamma 90.000000
_cell_volume 5520.393518
_symmetry_space_group_name_H-M "P 42/M M C"
_symmetry_group_IT_number 131
_symmetry_cell_setting 'tetragonal'
loop_
_space_group_symop_operation_xyz
x,y,z
-x,-y,z
-y,x,1/2+z
y,-x,1/2+z
-x,y,-z
x,-y,-z
y,x,1/2-z
-y,-x,1/2-z
-x,-y,-z
x,y,-z
y,-x,1/2-z
-y,x,1/2-z
x,-y,z
-x,y,z
-y,-x,1/2+z
y,x,1/2+z
loop_
_atom_site_type_symbol
_atom_site_label
_atom_site_fract_x
_atom_site_fract_y
_atom_site_fract_z
Si Si1 0.216545 0.337910 0.675826
Si Si2 0.121575 0.605126 0.177161
Si Si3 0.611837 0.314560 0.321163
Si Si4 0.144927 0.500000 0.677825
Si Si5 0.290252 0.939220 0.321935
Si Si6 0.230606 0.154453 0.826013
Si Si7 0.500000 0.262106 0.323392
O O1 0.212373 0.354201 0.500000
O O2 0.180883 0.377106 0.777169
O O3 0.275643 0.345476 0.739527
O O4 0.197595 0.277305 0.701366
O O5 0.110121 0.550376 0.265120
O O6 0.078985 0.650202 0.228111
O O7 0.119289 0.594075 0.000000
O O8 0.626955 0.373046 0.250000
O O9 0.620701 0.314553 0.500000
O O10 0.551469 0.297742 0.277966
O O11 0.148003 0.500000 0.500000
O O12 0.205586 0.500000 0.739010
O O13 0.284091 0.932457 0.500000
O O14 0.245428 0.902783 0.244586
O O15 0.281514 0.000000 0.268952
O O16 0.176721 0.176721 0.750000
O O17 0.218701 0.144908 0.000000
O O18 0.500000 0.248595 0.500000
#
# Coordination Sequence:
#
# PCOD8315873 Si02
#       7
#    16  16  16   8  16  16   8
#     4  10  19  31  48  74 104 133 165 200 246 304
#     4  10  19  32  51  73 101 135 171 213 261 306
#     4  11  22  35  52  73  99 127 159 198 247 306
#     4  12  22  32  51  75 101 132 172 214 256 305
#     4   9  19  36  56  76 101 138 181 221 263 312
#     4  10  20  32  49  75 107 140 174 213 257 304
#     4  10  22  38  54  72  98 130 161 199 251 307
#
# _framework density 17.390065
#
# number of rings (size 3 to 8) (size 9 to 14) (size 15 to 20)
#    0.000    1.833    1.667    3.250    0.000    5.000 
#    0.000    0.417    0.000    2.750    0.000    1.750 
#    0.000    0.333    0.000    3.500    0.000    1.500 
#
# Total GULP energy -1190418.573783 kJ/mol
# GULP energy per Si atom -12400.193477 kJ/mol
# Density = 1.735048 g / cm^3
# Si number density = 17.390065 Si / 1000 Ang^3
#
#
#
# Elastic Constant Matrix: (Units=GPa)
#
#
# Indices 1 2 3 4 5 6 
#
# 1 96.2029 66.8685 46.7810 0.0000 0.0000 0.0000
# 2 66.8685 96.2002 46.7819 0.0000 0.0000 0.0000
# 3 46.7810 46.7819 77.3941 0.0000 0.0000 0.0000
# 4 0.0000 0.0000 0.0000 24.6291 0.0000 0.0000
# 5 0.0000 0.0000 0.0000 0.0000 24.6293 0.0000
# 6 0.0000 0.0000 0.0000 0.0000 0.0000 16.0614
#
#
#
# Elastic Compliance Matrix: (Units=1/GPa)
#
#
# Indices 1 2 3 4 5 6 
#
# 1 0.021739 -0.012351 -0.005674 0.000000 0.000000 0.000000
# 2 -0.012351 0.021740 -0.005675 0.000000 0.000000 0.000000
# 3 -0.005674 -0.005675 0.019781 0.000000 0.000000 0.000000
# 4 0.000000 0.000000 0.000000 0.040602 0.000000 0.000000
# 5 0.000000 0.000000 0.000000 0.000000 0.040602 0.000000
# 6 0.000000 0.000000 0.000000 0.000000 0.000000 0.062261
#
#
# Mechanical properties :
#
#
# Convention : Reuss Voigt Hill
#
# Bulk Modulus (GPa) = 63.05742 65.62889 64.34316
# Shear Modulus (GPa) = 19.27413 20.35501 19.81457
#
# Velocity S-wave (km/s) = 3.33279 3.42496 3.37919
# Velocity P-wave (km/s) = 7.15187 7.31175 7.23225
#
# Compressibility (1/GPa) = 0.01585856
#
# Stress axis : x y z
#
# Youngs Moduli (GPa) = 45.99984 45.99726 50.55278
#
# Poissons Ratio (x) = 0.56813 0.28685
# Poissons Ratio (y) = 0.56817 0.28691
# Poissons Ratio (z) = 0.26102 0.26105
#
# Static dielectric constant tensor:
#      x y z
#    x 3.176220 0.000000 0.000000 
#    y 0.000000 3.176220 0.000000 
#    z 0.000000 0.000000 3.274360 
# 
# 
# High freq. dielectric constant tensor:
#      x y z
#    x 1.651630 0.000000 0.000000 
#    y 0.000000 1.651630 0.000000 
#    z 0.000000 0.000000 1.683060 
# 
# From -- ./inp_files/2320.got.cif
#   From: 2010.03.12/outbox.cif.g09.slc.cpg/sg131_2_cif.got.tgz:2320.got - 2010.04.06 17:36:35.
