data_PCOD8315481
_publ_section_title
;
Structure prediction by ZEFSAII (Michael W. Deem and Ramdas Pophale) SiO2 
 PCOD8315481
Probable space group: P 4/N C C
;
_chemical_formula_sum "Si O2"
_cell_formula_units_Z 64
_cell_length_a 25.184144
_cell_length_b 25.184144
_cell_length_c 5.173389
_cell_angle_alpha 90.000000
_cell_angle_beta 90.000000
_cell_angle_gamma 90.000000
_cell_volume 3281.175977
_symmetry_space_group_name_H-M "P 4/N C C"
_symmetry_group_IT_number 130
_symmetry_cell_setting 'tetragonal'
loop_
_space_group_symop_operation_xyz
x,y,z
1/2-y,x,z
1/2-x,1/2-y,z
y,1/2-x,z
1/2+x,-y,1/2-z
-x,1/2+y,1/2-z
1/2+y,1/2+x,1/2-z
-y,-x,1/2-z
-x,-y,-z
1/2+y,-x,-z
1/2+x,1/2+y,-z
-y,1/2+x,-z
1/2-x,y,1/2+z
x,1/2-y,1/2+z
1/2-y,1/2-x,1/2+z
y,x,1/2+z
loop_
_atom_site_type_symbol
_atom_site_label
_atom_site_fract_x
_atom_site_fract_y
_atom_site_fract_z
Si Si1 0.774374 0.554786 0.757841
Si Si2 0.062604 0.770280 0.151280
Si Si3 0.938255 0.108447 0.008131
Si Si4 0.054397 0.103137 0.172913
O O1 0.762036 0.581969 0.481993
O O2 0.758591 0.492798 0.733697
O O3 0.834080 0.562148 0.852694
O O4 0.093552 0.762265 0.424188
O O5 0.056736 0.831203 0.080357
O O6 0.897340 0.102661 0.250000
O O7 0.993645 0.087293 0.122388
O O8 0.924246 0.075755 0.750000
O O9 0.071737 0.088915 0.462943
#
# Coordination Sequence:
#
# PCOD8315481 Si02
#       4
#    16  16  16  16
#     4  10  19  36  64  80 104 155 206 253 300 319
#     4  10  19  36  64  80 104 155 206 254 300 319
#     4  12  25  38  57  87 126 167 205 237 289 366
#     4  12  25  38  57  87 126 166 205 235 287 366
#
# _framework density 19.505203000000002
#
# number of rings (size 3 to 8) (size 9 to 14) (size 15 to 20)
#    0.000    1.000    5.000    4.500    7.000    3.000 
#    0.000    0.000    0.000    0.000    0.000    0.000 
#    0.000   70.000    0.000    0.000    0.000    0.000 
#
# Total GULP energy -792874.675707 kJ/mol
# GULP energy per Si atom -12388.666808 kJ/mol
# Density = 1.946081 g / cm^3
# Si number density = 19.505203 Si / 1000 Ang^3
#
#
#
# Elastic Constant Matrix: (Units=GPa)
#
#
# Indices 1 2 3 4 5 6 
#
# 1 66.8321 32.6216 28.3409 0.0000 0.0000 0.0000
# 2 32.6216 66.8313 28.3402 0.0000 0.0000 0.0000
# 3 28.3409 28.3402 178.1106 0.0000 0.0000 0.0000
# 4 0.0000 0.0000 0.0000 34.0341 0.0000 0.0000
# 5 0.0000 0.0000 0.0000 0.0000 34.0337 0.0000
# 6 0.0000 0.0000 0.0000 0.0000 0.0000 1.5860
#
#
#
# Elastic Compliance Matrix: (Units=1/GPa)
#
#
# Indices 1 2 3 4 5 6 
#
# 1 0.020144 -0.009087 -0.001760 0.000000 0.000000 0.000000
# 2 -0.009087 0.020145 -0.001759 0.000000 0.000000 0.000000
# 3 -0.001760 -0.001759 0.006174 0.000000 0.000000 0.000000
# 4 0.000000 0.000000 0.000000 0.029382 0.000000 0.000000
# 5 0.000000 0.000000 0.000000 0.000000 0.029383 0.000000
# 6 0.000000 0.000000 0.000000 0.000000 0.000000 0.630502
#
#
# Mechanical properties :
#
#
# Convention : Reuss Voigt Hill
#
# Bulk Modulus (GPa) = 47.05445 54.48661 50.77053
# Shear Modulus (GPa) = 6.51020 28.76217 17.63619
#
# Velocity S-wave (km/s) = 1.82891 3.84420 3.01022
# Velocity P-wave (km/s) = 5.35129 6.90644 6.17799
#
# Compressibility (1/GPa) = 0.02125198
#
# Stress axis : x y z
#
# Youngs Moduli (GPa) = 49.64164 49.64118 161.95852
#
# Poissons Ratio (x) = 0.45108 0.28497
# Poissons Ratio (y) = 0.45108 0.28496
# Poissons Ratio (z) = 0.08735 0.08734
#
# Static dielectric constant tensor:
#      x y z
#    x 3.329010 0.000000 0.000000 
#    y 0.000000 3.329020 0.000000 
#    z 0.000000 0.000000 5.330500 
# 
# 
# High freq. dielectric constant tensor:
#      x y z
#    x 1.721930 0.000000 0.000000 
#    y 0.000000 1.721930 0.000000 
#    z 0.000000 0.000000 1.812460 
# 
# From -- ./inp_files/173.got.cif
#   From: 2010.03.12/outbox.cif.g09.slc.cpg/sg130_1_cif.got.tgz:173.got - 2010.04.06 17:30:23.
