data_PCOD8315539
_publ_section_title
;
Structure prediction by ZEFSAII (Michael W. Deem and Ramdas Pophale) SiO2 
 PCOD8315539
Probable space group: P 4/N C C
;
_chemical_formula_sum "Si O2"
_cell_formula_units_Z 80
_cell_length_a 12.357355
_cell_length_b 12.357355
_cell_length_c 26.946894
_cell_angle_alpha 90.000000
_cell_angle_beta 90.000000
_cell_angle_gamma 90.000000
_cell_volume 4114.904500
_symmetry_space_group_name_H-M "P 4/N C C"
_symmetry_group_IT_number 130
_symmetry_cell_setting 'tetragonal'
loop_
_space_group_symop_operation_xyz
x,y,z
1/2-y,x,z
1/2-x,1/2-y,z
y,1/2-x,z
1/2+x,-y,1/2-z
-x,1/2+y,1/2-z
1/2+y,1/2+x,1/2-z
-y,-x,1/2-z
-x,-y,-z
1/2+y,-x,-z
1/2+x,1/2+y,-z
-y,1/2+x,-z
1/2-x,y,1/2+z
x,1/2-y,1/2+z
1/2-y,1/2-x,1/2+z
y,x,1/2+z
loop_
_atom_site_type_symbol
_atom_site_label
_atom_site_fract_x
_atom_site_fract_y
_atom_site_fract_z
Si Si1 0.745820 0.122653 0.626763
Si Si2 0.622336 0.049843 0.803343
Si Si3 0.972485 0.140827 0.662045
Si Si4 0.081793 0.307598 0.060767
Si Si5 0.412897 0.715541 0.516930
O O1 0.750000 0.250000 0.615847
O O2 0.638652 0.088461 0.656044
O O3 0.744053 0.061247 0.574025
O O4 0.851179 0.090975 0.659530
O O5 0.598563 0.098563 0.750000
O O6 0.553387 0.942000 0.811987
O O7 0.749590 0.022817 0.805776
O O8 0.002307 0.166470 0.605579
O O9 0.114298 0.183095 0.064394
O O10 0.021651 0.329092 0.008677
O O11 0.320812 0.623870 0.514181
#
# Coordination Sequence:
#
# PCOD8315539 Si02
#       5
#    16  16  16  16  16
#     4  10  21  39  62  94 128 161 213 262 310 381
#     4  11  26  41  66  94 121 165 214 265 327 371
#     4  11  22  42  66  91 127 165 211 267 315 378
#     4  11  23  38  57  91 128 166 209 260 316 380
#     4  11  19  34  59  91 124 161 204 248 306 374
#
# _framework density 19.441521000000002
#
# number of rings (size 3 to 8) (size 9 to 14) (size 15 to 20)
#    0.000    1.200    6.000    1.200    2.800    5.600 
#    0.000    0.000    0.000    0.600    0.000    0.000 
#    0.000    0.000    0.000    0.000    0.000    0.000 
#
# Total GULP energy -992357.553359 kJ/mol
# GULP energy per Si atom -12404.469417 kJ/mol
# Density = 1.939727 g / cm^3
# Si number density = 19.441521 Si / 1000 Ang^3
#
#
#
# Elastic Constant Matrix: (Units=GPa)
#
#
# Indices 1 2 3 4 5 6 
#
# 1 91.4116 24.6399 34.5077 0.0000 0.0000 0.0000
# 2 24.6399 91.4116 34.5077 0.0000 0.0000 0.0000
# 3 34.5077 34.5077 114.4330 0.0000 0.0000 0.0000
# 4 0.0000 0.0000 0.0000 21.2403 0.0000 0.0000
# 5 0.0000 0.0000 0.0000 0.0000 21.2403 0.0000
# 6 0.0000 0.0000 0.0000 0.0000 0.0000 7.1367
#
#
#
# Elastic Compliance Matrix: (Units=1/GPa)
#
#
# Indices 1 2 3 4 5 6 
#
# 1 0.012738 -0.002238 -0.003166 0.000000 0.000000 0.000000
# 2 -0.002238 0.012738 -0.003166 0.000000 0.000000 0.000000
# 3 -0.003166 -0.003166 0.010648 0.000000 0.000000 0.000000
# 4 0.000000 0.000000 0.000000 0.047080 0.000000 0.000000
# 5 0.000000 0.000000 0.000000 0.000000 0.047080 0.000000
# 6 0.000000 0.000000 0.000000 0.000000 0.000000 0.140121
#
#
# Mechanical properties :
#
#
# Convention : Reuss Voigt Hill
#
# Bulk Modulus (GPa) = 52.67889 53.84077 53.25983
# Shear Modulus (GPa) = 17.01404 23.49687 20.25546
#
# Velocity S-wave (km/s) = 2.96148 3.48025 3.23130
# Velocity P-wave (km/s) = 6.23288 6.62596 6.43242
#
# Compressibility (1/GPa) = 0.01898294
#
# Stress axis : x y z
#
# Youngs Moduli (GPa) = 78.50460 78.50460 93.91147
#
# Poissons Ratio (x) = 0.17572 0.29735
# Poissons Ratio (y) = 0.17572 0.29735
# Poissons Ratio (z) = 0.24857 0.24857
#
# Static dielectric constant tensor:
#      x y z
#    x 3.586440 0.000000 0.000000 
#    y 0.000000 3.586440 0.000000 
#    z 0.000000 0.000000 3.446960 
# 
# 
# High freq. dielectric constant tensor:
#      x y z
#    x 1.750750 0.000000 0.000000 
#    y 0.000000 1.750750 0.000000 
#    z 0.000000 0.000000 1.757490 
# 
# From -- ./inp_files/4774.got.cif
#   From: 2010.03.12/outbox.cif.g09.slc.cpg/sg130_3_cif.got.tgz:4774.got - 2010.04.06 17:30:23.
