data_PCOD8315228
_publ_section_title
;
Structure prediction by ZEFSAII (Michael W. Deem and Ramdas Pophale) SiO2 
 PCOD8315228
Probable space group: P 4/N M M
;
_chemical_formula_sum "Si O2"
_cell_formula_units_Z 80
_cell_length_a 13.468738
_cell_length_b 13.468738
_cell_length_c 25.365137
_cell_angle_alpha 90.000000
_cell_angle_beta 90.000000
_cell_angle_gamma 90.000000
_cell_volume 4601.410955
_symmetry_space_group_name_H-M "P 4/N M M"
_symmetry_group_IT_number 129
_symmetry_cell_setting 'tetragonal'
loop_
_space_group_symop_operation_xyz
x,y,z
1/2-y,x,z
1/2-x,1/2-y,z
y,1/2-x,z
1/2+x,-y,-z
-x,1/2+y,-z
1/2+y,1/2+x,-z
-y,-x,-z
-x,-y,-z
1/2+y,-x,-z
1/2+x,1/2+y,-z
-y,1/2+x,-z
1/2-x,y,z
x,1/2-y,z
1/2-y,1/2-x,z
y,x,z
loop_
_atom_site_type_symbol
_atom_site_label
_atom_site_fract_x
_atom_site_fract_y
_atom_site_fract_z
Si Si1 0.524656 0.135500 0.863714
Si Si2 0.523668 0.365315 0.341184
Si Si3 0.631817 0.360168 0.557584
Si Si4 0.524272 0.363187 0.742962
Si Si5 0.471043 0.633664 0.952752
O O1 0.508902 0.250000 0.879435
O O2 0.558545 0.123692 0.803292
O O3 0.611057 0.086099 0.898342
O O4 0.420140 0.079861 0.874278
O O5 0.499710 0.250000 0.343744
O O6 0.420689 0.420689 0.330074
O O7 0.568560 0.406268 0.396103
O O8 0.600826 0.385769 0.293937
O O9 0.598431 0.401570 0.500000
O O10 0.750000 0.353691 0.558661
O O11 0.587458 0.250000 0.567084
O O12 0.498106 0.250000 0.730220
O O13 0.425594 0.425594 0.730285
O O14 0.494014 0.750000 0.956635
O O15 0.575611 0.575611 0.955596
O O16 0.399585 0.600416 0.000000
#
# Coordination Sequence:
#
# PCOD8315228 Si02
#       5
#    16  16  16  16  16
#     4   9  18  32  50  74 102 129 158 192 231 279
#     4  10  20  32  46  65  90 122 160 199 236 274
#     4   8  14  26  45  68  91 113 141 182 231 281
#     4   9  18  32  50  73  99 125 154 190 234 284
#     4  10  21  36  53  74 100 129 163 202 241 283
#
# _framework density 17.385971999999999
#
# number of rings (size 3 to 8) (size 9 to 14) (size 15 to 20)
#    0.000    2.800    0.000    1.800    0.000    4.600 
#    0.000    4.000    0.000    3.600    0.000    5.600 
#    0.000    4.800    0.000    0.000    0.000    0.000 
#
# Total GULP energy -991896.293507 kJ/mol
# GULP energy per Si atom -12398.703669 kJ/mol
# Density = 1.734640 g / cm^3
# Si number density = 17.385972 Si / 1000 Ang^3
#
#
#
# Elastic Constant Matrix: (Units=GPa)
#
#
# Indices 1 2 3 4 5 6 
#
# 1 97.9755 39.5606 48.1481 0.0000 0.0000 0.0000
# 2 39.5606 97.9753 48.1478 0.0000 0.0000 0.0000
# 3 48.1481 48.1478 104.6722 0.0000 0.0000 0.0000
# 4 0.0000 0.0000 0.0000 25.0422 0.0000 0.0000
# 5 0.0000 0.0000 0.0000 0.0000 25.0421 0.0000
# 6 0.0000 0.0000 0.0000 0.0000 0.0000 12.3451
#
#
#
# Elastic Compliance Matrix: (Units=1/GPa)
#
#
# Indices 1 2 3 4 5 6 
#
# 1 0.013922 -0.003197 -0.004933 0.000000 0.000000 0.000000
# 2 -0.003197 0.013922 -0.004933 0.000000 0.000000 0.000000
# 3 -0.004933 -0.004933 0.014092 0.000000 0.000000 0.000000
# 4 0.000000 0.000000 0.000000 0.039933 0.000000 0.000000
# 5 0.000000 0.000000 0.000000 0.000000 0.039933 0.000000
# 6 0.000000 0.000000 0.000000 0.000000 0.000000 0.081004
#
#
# Mechanical properties :
#
#
# Convention : Reuss Voigt Hill
#
# Bulk Modulus (GPa) = 63.25643 63.59289 63.42466
# Shear Modulus (GPa) = 21.34911 23.47032 22.40971
#
# Velocity S-wave (km/s) = 3.50801 3.67816 3.59409
# Velocity P-wave (km/s) = 7.27123 7.39561 7.33368
#
# Compressibility (1/GPa) = 0.01580867
#
# Stress axis : x y z
#
# Youngs Moduli (GPa) = 71.82910 71.82923 70.96139
#
# Poissons Ratio (x) = 0.22964 0.35008
# Poissons Ratio (y) = 0.22964 0.35007
# Poissons Ratio (z) = 0.35436 0.35435
#
# Static dielectric constant tensor:
#      x y z
#    x 3.043470 0.000000 0.000000 
#    y 0.000000 3.043470 0.000000 
#    z 0.000000 0.000000 3.573910 
# 
# 
# High freq. dielectric constant tensor:
#      x y z
#    x 1.654790 0.000000 0.000000 
#    y 0.000000 1.654790 0.000000 
#    z 0.000000 0.000000 1.689800 
# 
# From -- ./inp_files/6329.got.cif
#   From: 2010.03.12/outbox.cif.g09.slc.cpg/sg129_4_cif.got.tgz:6329.got - 2010.04.06 17:19:44.
