data_PCOD8315771
_publ_section_title
;
Structure prediction by ZEFSAII (Michael W. Deem and Ramdas Pophale) SiO2 
 PCOD8315771
Probable space group: P 42/M M C
;
_chemical_formula_sum "Si O2"
_cell_formula_units_Z 48
_cell_length_a 10.106773
_cell_length_b 10.106773
_cell_length_c 27.530054
_cell_angle_alpha 90.000000
_cell_angle_beta 90.000000
_cell_angle_gamma 90.000000
_cell_volume 2812.108585
_symmetry_space_group_name_H-M "P 42/M M C"
_symmetry_group_IT_number 131
_symmetry_cell_setting 'tetragonal'
loop_
_space_group_symop_operation_xyz
x,y,z
-x,-y,z
-y,x,1/2+z
y,-x,1/2+z
-x,y,-z
x,-y,-z
y,x,1/2-z
-y,-x,1/2-z
-x,-y,-z
x,y,-z
y,-x,1/2-z
-y,x,1/2-z
x,-y,z
-x,y,z
-y,-x,1/2+z
y,x,1/2+z
loop_
_atom_site_type_symbol
_atom_site_label
_atom_site_fract_x
_atom_site_fract_y
_atom_site_fract_z
Si Si1 0.156012 0.000000 0.554330
Si Si2 0.653355 0.348718 0.806363
Si Si3 0.500000 0.843987 0.053539
Si Si4 0.251465 0.843103 0.884275
O O1 0.201814 0.874465 0.584999
O O2 0.219309 0.000000 0.500000
O O3 0.000000 0.000000 0.548235
O O4 0.679173 0.320828 0.750000
O O5 0.692987 0.500000 0.819405
O O6 0.500000 0.324731 0.818922
O O7 0.743267 0.243242 0.835232
O O8 0.627423 0.797609 0.082598
O O9 0.500000 0.000000 0.047807
O O10 0.500000 0.778485 0.000000
O O11 0.252215 0.000000 0.871598
#
# Coordination Sequence:
#
# PCOD8315771 Si02
#       4
#     8  16   8  16
#     4   9  18  32  51  75 107 141 167 197 250 307
#     4   9  18  34  54  73  97 133 170 207 256 308
#     4   9  16  26  47  77 101 125 161 209 250 281
#     4  10  18  31  52  76 103 128 168 213 247 291
#
# _framework density 17.069042
#
# number of rings (size 3 to 8) (size 9 to 14) (size 15 to 20)
#    0.000    2.667    1.667    2.000    0.000    4.000 
#    3.000    0.833    0.000    6.000    0.000    0.000 
#    0.000    0.000    0.000    0.000    0.000    0.000 
#
# Total GULP energy -595015.855231 kJ/mol
# GULP energy per Si atom -12396.163651 kJ/mol
# Density = 1.703019 g / cm^3
# Si number density = 17.069042 Si / 1000 Ang^3
#
#
#
# Elastic Constant Matrix: (Units=GPa)
#
#
# Indices 1 2 3 4 5 6 
#
# 1 95.7091 35.8456 63.7703 0.0000 0.0000 0.0000
# 2 35.8456 95.7094 63.7705 0.0000 0.0000 0.0000
# 3 63.7703 63.7705 132.0963 0.0000 0.0000 0.0000
# 4 0.0000 0.0000 0.0000 -21.2841 0.0000 0.0000
# 5 0.0000 0.0000 0.0000 0.0000 -21.2851 0.0000
# 6 0.0000 0.0000 0.0000 0.0000 0.0000 -5.3557
#
#
#
# Elastic Compliance Matrix: (Units=1/GPa)
#
#
# Indices 1 2 3 4 5 6 
#
# 1 0.015497 -0.001208 -0.006898 0.000000 0.000000 0.000000
# 2 -0.001208 0.015497 -0.006898 0.000000 0.000000 0.000000
# 3 -0.006898 -0.006898 0.014230 0.000000 0.000000 0.000000
# 4 0.000000 0.000000 0.000000 -0.046983 0.000000 0.000000
# 5 0.000000 0.000000 0.000000 0.000000 -0.046981 0.000000
# 6 0.000000 0.000000 0.000000 0.000000 0.000000 -0.186716
#
#
# Mechanical properties :
#
#
# Convention : Reuss Voigt Hill
#
# Bulk Modulus (GPa) = 65.72013 72.25418 68.98715
# Shear Modulus (GPa) = -24.95310 1.09023 -11.93143
#
# Velocity S-wave (km/s) = -3.82762 0.80007 -2.64675
# Velocity P-wave (km/s) = 4.36485 6.57844 5.58246
#
# Compressibility (1/GPa) = 0.01521604
#
# Stress axis : x y z
#
# Youngs Moduli (GPa) = 64.52920 64.52931 70.27164
#
# Poissons Ratio (x) = 0.07794 0.48474
# Poissons Ratio (y) = 0.07794 0.48474
# Poissons Ratio (z) = 0.44513 0.44513
#
# Static dielectric constant tensor:
#      x y z
#    x 3.036800 0.000000 0.000000 
#    y 0.000000 3.036810 0.000000 
#    z 0.000000 0.000000 3.311480 
# 
# 
# High freq. dielectric constant tensor:
#      x y z
#    x 1.637710 0.000000 0.000000 
#    y 0.000000 1.637710 0.000000 
#    z 0.000000 0.000000 1.668480 
# 
# From -- ./inp_files/12866.got.cif
#   From: 2010.03.12/outbox.cif.g09.slc.cpg/sg131_7_cif.got.tgz:12866.got - 2010.04.06 17:36:35.
