data_PCOD8315082
_publ_section_title
;
Structure prediction by ZEFSAII (Michael W. Deem and Ramdas Pophale) SiO2 
 PCOD8315082
Probable space group: P 4/N M M
;
_chemical_formula_sum "Si O2"
_cell_formula_units_Z 80
_cell_length_a 17.964619
_cell_length_b 17.964619
_cell_length_c 13.926790
_cell_angle_alpha 90.000000
_cell_angle_beta 90.000000
_cell_angle_gamma 90.000000
_cell_volume 4494.558619
_symmetry_space_group_name_H-M "P 4/N M M"
_symmetry_group_IT_number 129
_symmetry_cell_setting 'tetragonal'
loop_
_space_group_symop_operation_xyz
x,y,z
1/2-y,x,z
1/2-x,1/2-y,z
y,1/2-x,z
1/2+x,-y,-z
-x,1/2+y,-z
1/2+y,1/2+x,-z
-y,-x,-z
-x,-y,-z
1/2+y,-x,-z
1/2+x,1/2+y,-z
-y,1/2+x,-z
1/2-x,y,z
x,1/2-y,z
1/2-y,1/2-x,z
y,x,z
loop_
_atom_site_type_symbol
_atom_site_label
_atom_site_fract_x
_atom_site_fract_y
_atom_site_fract_z
Si Si1 0.334028 0.554870 0.779683
Si Si2 0.666838 0.548389 0.055895
Si Si3 0.406174 0.975055 0.112817
Si Si4 0.938152 0.061319 0.391335
Si Si5 0.335570 0.452577 0.283501
O O1 0.250000 0.589476 0.779467
O O2 0.331625 0.474422 0.832069
O O3 0.391803 0.602805 0.844606
O O4 0.363181 0.547609 0.670716
O O5 0.750000 0.554764 0.014387
O O6 0.627814 0.627814 0.042808
O O7 0.620318 0.483455 0.998237
O O8 0.490509 0.009492 0.126587
O O9 0.349439 0.027489 0.172185
O O10 0.917380 0.082621 0.500000
O O11 0.982227 0.130832 0.348896
O O12 0.986117 0.986117 0.386121
O O13 0.250000 0.443894 0.308095
O O14 0.374683 0.374683 0.309640
#
# Coordination Sequence:
#
# PCOD8315082 Si02
#       5
#    16  16  16  16  16
#     4  10  19  30  48  74  97 119 157 207 254 296
#     4  10  19  30  48  74 103 136 168 199 239 286
#     4   9  17  31  49  68  95 132 171 204 235 281
#     4   9  18  33  51  69  92 125 165 205 243 288
#     4   9  17  29  47  71  96 123 155 193 240 291
#
# _framework density 17.799301
#
# number of rings (size 3 to 8) (size 9 to 14) (size 15 to 20)
#    0.000    2.600    0.000    4.200    0.000    2.800 
#    0.000    0.000    0.000   18.600    0.000   19.600 
#    0.000    4.800    0.000    0.000    0.000    0.200 
#
# Total GULP energy -991426.861223 kJ/mol
# GULP energy per Si atom -12392.835765 kJ/mol
# Density = 1.775879 g / cm^3
# Si number density = 17.799301 Si / 1000 Ang^3
#
#
#
# Elastic Constant Matrix: (Units=GPa)
#
#
# Indices 1 2 3 4 5 6 
#
# 1 120.2747 33.9500 33.1776 0.0000 0.0000 0.0000
# 2 33.9500 120.2747 33.1776 0.0000 0.0000 0.0000
# 3 33.1776 33.1776 122.1732 0.0000 0.0000 0.0000
# 4 0.0000 0.0000 0.0000 19.3787 0.0000 0.0000
# 5 0.0000 0.0000 0.0000 0.0000 19.3787 0.0000
# 6 0.0000 0.0000 0.0000 0.0000 0.0000 11.3432
#
#
#
# Elastic Compliance Matrix: (Units=1/GPa)
#
#
# Indices 1 2 3 4 5 6 
#
# 1 0.009463 -0.002121 -0.001994 0.000000 0.000000 0.000000
# 2 -0.002121 0.009463 -0.001994 0.000000 0.000000 0.000000
# 3 -0.001994 -0.001994 0.009268 0.000000 0.000000 0.000000
# 4 0.000000 0.000000 0.000000 0.051603 0.000000 0.000000
# 5 0.000000 0.000000 0.000000 0.000000 0.051603 0.000000
# 6 0.000000 0.000000 0.000000 0.000000 0.000000 0.088159
#
#
# Mechanical properties :
#
#
# Convention : Reuss Voigt Hill
#
# Bulk Modulus (GPa) = 62.59149 62.59255 62.59202
# Shear Modulus (GPa) = 21.08801 27.51462 24.30131
#
# Velocity S-wave (km/s) = 3.44578 3.93596 3.69900
# Velocity P-wave (km/s) = 7.14651 7.47649 7.31336
#
# Compressibility (1/GPa) = 0.01597661
#
# Stress axis : x y z
#
# Youngs Moduli (GPa) = 105.67460 105.67455 107.89854
#
# Poissons Ratio (x) = 0.22415 0.21512
# Poissons Ratio (y) = 0.22415 0.21513
# Poissons Ratio (z) = 0.21069 0.21069
#
# Static dielectric constant tensor:
#      x y z
#    x 3.146520 0.000000 0.000000 
#    y 0.000000 3.146520 0.000000 
#    z 0.000000 0.000000 3.505860 
# 
# 
# High freq. dielectric constant tensor:
#      x y z
#    x 1.668220 0.000000 0.000000 
#    y 0.000000 1.668220 0.000000 
#    z 0.000000 0.000000 1.692790 
# 
# From -- ./inp_files/4566.got.cif
#   From: 2010.03.12/outbox.cif.g09.slc.cpg/sg129_3_cif.got.tgz:4566.got - 2010.04.06 17:19:44.
