data_PCOD8315611
_publ_section_title
;
Structure prediction by ZEFSAII (Michael W. Deem and Ramdas Pophale) SiO2 
 PCOD8315611
Probable space group: P 4/N C C
;
_chemical_formula_sum "Si O2"
_cell_formula_units_Z 52
_cell_length_a 9.700532
_cell_length_b 9.700532
_cell_length_c 26.175902
_cell_angle_alpha 90.000000
_cell_angle_beta 90.000000
_cell_angle_gamma 90.000000
_cell_volume 2463.160783
_symmetry_space_group_name_H-M "P 4/N C C"
_symmetry_group_IT_number 130
_symmetry_cell_setting 'tetragonal'
loop_
_space_group_symop_operation_xyz
x,y,z
1/2-y,x,z
1/2-x,1/2-y,z
y,1/2-x,z
1/2+x,-y,1/2-z
-x,1/2+y,1/2-z
1/2+y,1/2+x,1/2-z
-y,-x,1/2-z
-x,-y,-z
1/2+y,-x,-z
1/2+x,1/2+y,-z
-y,1/2+x,-z
1/2-x,y,1/2+z
x,1/2-y,1/2+z
1/2-y,1/2-x,1/2+z
y,x,1/2+z
loop_
_atom_site_type_symbol
_atom_site_label
_atom_site_fract_x
_atom_site_fract_y
_atom_site_fract_z
Si Si1 0.315913 0.030891 0.013607
Si Si2 0.971319 0.760450 0.686974
Si Si3 0.288536 0.896492 0.417998
Si Si4 0.750000 0.250000 0.250000
O O1 0.419140 0.158532 0.013927
O O2 0.322020 0.938234 0.962061
O O3 0.371982 0.942846 0.060889
O O4 0.879202 0.891901 0.702534
O O5 0.990273 0.779203 0.626131
O O6 0.115503 0.755969 0.715337
O O7 0.250000 0.750000 0.393741
#
# Coordination Sequence:
#
# PCOD8315611 Si02
#       4
#    16  16  16   4
#     4  11  23  37  58  90 131 178 224 269 317 379
#     4  11  26  46  71 101 132 172 219 269 336 407
#     4  12  22  38  61  90 128 174 219 265 317 385
#     4  12  24  48  76 102 128 164 212 288 340 394
#
# _framework density 21.111084999999999
#
# number of rings (size 3 to 8) (size 9 to 14) (size 15 to 20)
#    0.000    0.615    4.615    3.692    4.308    2.462 
#    0.000    0.000    0.000    3.692    0.000    0.000 
#    0.000    0.000    0.000    0.000    0.000    0.000 
#
# Total GULP energy -644523.633856 kJ/mol
# GULP energy per Si atom -12394.685266 kJ/mol
# Density = 2.106304 g / cm^3
# Si number density = 21.111085 Si / 1000 Ang^3
#
#
#
# Elastic Constant Matrix: (Units=GPa)
#
#
# Indices 1 2 3 4 5 6 
#
# 1 148.1261 51.6280 46.5624 0.0000 0.0000 0.0000
# 2 51.6280 148.1261 46.5624 0.0000 0.0000 0.0000
# 3 46.5624 46.5624 90.4661 0.0000 0.0000 0.0000
# 4 0.0000 0.0000 0.0000 18.2208 0.0000 0.0000
# 5 0.0000 0.0000 0.0000 0.0000 18.2208 0.0000
# 6 0.0000 0.0000 0.0000 0.0000 0.0000 15.7320
#
#
#
# Elastic Compliance Matrix: (Units=1/GPa)
#
#
# Indices 1 2 3 4 5 6 
#
# 1 0.008475 -0.001888 -0.003390 0.000000 0.000000 0.000000
# 2 -0.001888 0.008475 -0.003390 0.000000 0.000000 0.000000
# 3 -0.003390 -0.003390 0.014544 0.000000 0.000000 0.000000
# 4 0.000000 0.000000 0.000000 0.054882 0.000000 0.000000
# 5 0.000000 0.000000 0.000000 0.000000 0.054882 0.000000
# 6 0.000000 0.000000 0.000000 0.000000 0.000000 0.063565
#
#
# Mechanical properties :
#
#
# Convention : Reuss Voigt Hill
#
# Bulk Modulus (GPa) = 70.63924 75.13600 72.88762
# Shear Modulus (GPa) = 22.03825 26.56573 24.30199
#
# Velocity S-wave (km/s) = 3.23448 3.55121 3.39654
# Velocity P-wave (km/s) = 6.89075 7.24450 7.06984
#
# Compressibility (1/GPa) = 0.01415644
#
# Stress axis : x y z
#
# Youngs Moduli (GPa) = 117.99753 117.99753 68.75882
#
# Poissons Ratio (x) = 0.22280 0.23310
# Poissons Ratio (y) = 0.22280 0.23310
# Poissons Ratio (z) = 0.40002 0.40002
#
# Static dielectric constant tensor:
#      x y z
#    x 4.127710 0.000000 0.000000 
#    y 0.000000 4.127710 0.000000 
#    z 0.000000 0.000000 3.492980 
# 
# 
# High freq. dielectric constant tensor:
#      x y z
#    x 1.851030 0.000000 0.000000 
#    y 0.000000 1.851030 0.000000 
#    z 0.000000 0.000000 1.796320 
# 
# From -- ./inp_files/3441.got.cif
#   From: 2010.03.12/outbox.cif.g09.slc.cpg/sg130_2_cif.got.tgz:3441.got - 2010.04.06 17:30:23.
