data_PCOD8315503
_publ_section_title
;
Structure prediction by ZEFSAII (Michael W. Deem and Ramdas Pophale) SiO2 
 PCOD8315503
Probable space group: P 4/N C C
;
_chemical_formula_sum "Si O2"
_cell_formula_units_Z 64
_cell_length_a 14.447160
_cell_length_b 14.447160
_cell_length_c 15.248183
_cell_angle_alpha 90.000000
_cell_angle_beta 90.000000
_cell_angle_gamma 90.000000
_cell_volume 3182.607344
_symmetry_space_group_name_H-M "P 4/N C C"
_symmetry_group_IT_number 130
_symmetry_cell_setting 'tetragonal'
loop_
_space_group_symop_operation_xyz
x,y,z
1/2-y,x,z
1/2-x,1/2-y,z
y,1/2-x,z
1/2+x,-y,1/2-z
-x,1/2+y,1/2-z
1/2+y,1/2+x,1/2-z
-y,-x,1/2-z
-x,-y,-z
1/2+y,-x,-z
1/2+x,1/2+y,-z
-y,1/2+x,-z
1/2-x,y,1/2+z
x,1/2-y,1/2+z
1/2-y,1/2-x,1/2+z
y,x,1/2+z
loop_
_atom_site_type_symbol
_atom_site_label
_atom_site_fract_x
_atom_site_fract_y
_atom_site_fract_z
Si Si1 0.368985 0.338309 0.256367
Si Si2 0.045316 0.124500 0.436446
Si Si3 0.605784 0.519014 0.402361
Si Si4 0.604341 0.253385 0.008032
O O1 0.269027 0.377293 0.232533
O O2 0.384259 0.352343 0.359459
O O3 0.442071 0.390881 0.195596
O O4 0.104224 0.101910 0.524849
O O5 0.974338 0.210641 0.445574
O O6 0.991341 0.032472 0.408962
O O7 0.692418 0.448479 0.414416
O O8 0.669567 0.329135 0.956869
#
# Coordination Sequence:
#
# PCOD8315503 Si02
#       4
#    16  16  16  16
#     4  11  23  36  52  77 109 143 182 225 266 319
#     4  10  20  36  58  81 108 142 179 222 273 329
#     4  10  20  36  58  81 108 142 179 222 273 329
#     4   9  18  34  56  81 108 140 180 225 272 322
#
# _framework density 20.109299
#
# number of rings (size 3 to 8) (size 9 to 14) (size 15 to 20)
#    0.000    2.000    0.000    3.750    0.000    0.000 
#    0.000    6.250    0.000    6.000    0.000    0.000 
#    0.000    0.000    0.000    0.000    0.000    0.000 
#
# Total GULP energy -793270.170761 kJ/mol
# GULP energy per Si atom -12394.846418 kJ/mol
# Density = 2.006353 g / cm^3
# Si number density = 20.109299 Si / 1000 Ang^3
#
#
#
# Elastic Constant Matrix: (Units=GPa)
#
#
# Indices 1 2 3 4 5 6 
#
# 1 27.5054 60.5233 14.7623 0.0000 0.0000 0.0000
# 2 60.5233 27.5054 14.7623 0.0000 0.0000 0.0000
# 3 14.7623 14.7623 66.4851 0.0000 0.0000 0.0000
# 4 0.0000 0.0000 0.0000 29.8661 0.0000 0.0000
# 5 0.0000 0.0000 0.0000 0.0000 29.8661 0.0000
# 6 0.0000 0.0000 0.0000 0.0000 0.0000 3.6989
#
#
#
# Elastic Compliance Matrix: (Units=1/GPa)
#
#
# Indices 1 2 3 4 5 6 
#
# 1 -0.009006 0.021280 -0.002725 0.000000 0.000000 0.000000
# 2 0.021280 -0.009006 -0.002725 0.000000 0.000000 0.000000
# 3 -0.002725 -0.002725 0.016251 0.000000 0.000000 0.000000
# 4 0.000000 0.000000 0.000000 0.033483 0.000000 0.000000
# 5 0.000000 0.000000 0.000000 0.000000 0.033483 0.000000
# 6 0.000000 0.000000 0.000000 0.000000 0.000000 0.270351
#
#
# Mechanical properties :
#
#
# Convention : Reuss Voigt Hill
#
# Bulk Modulus (GPa) = 33.44710 33.51020 33.47865
# Shear Modulus (GPa) = 15.93058 14.78275 15.35667
#
# Velocity S-wave (km/s) = 2.81766 2.71425 2.76644
# Velocity P-wave (km/s) = 5.22057 5.15006 5.18543
#
# Compressibility (1/GPa) = 0.02989795
#
# Stress axis : x y z
#
# Youngs Moduli (GPa) = -111.03371 -111.03371 61.53390
#
# Poissons Ratio (x) = 2.36283 0.16770
# Poissons Ratio (y) = 2.36283 0.16770
# Poissons Ratio (z) = -0.30260 -0.30260
#
# Static dielectric constant tensor:
#      x y z
#    x 3.828390 0.000000 0.000000 
#    y 0.000000 3.828390 0.000000 
#    z 0.000000 0.000000 3.285040 
# 
# 
# High freq. dielectric constant tensor:
#      x y z
#    x 1.796140 0.000000 0.000000 
#    y 0.000000 1.796140 0.000000 
#    z 0.000000 0.000000 1.748240 
# 
# From -- ./inp_files/2157.got.cif
#   From: 2010.03.12/outbox.cif.g09.slc.cpg/sg130_2_cif.got.tgz:2157.got - 2010.04.06 17:30:23.
