data_PCOD8315644
_publ_section_title
;
Structure prediction by ZEFSAII (Michael W. Deem and Ramdas Pophale) SiO2 
 PCOD8315644
Probable space group: P 42/M M C
;
_chemical_formula_sum "Si O2"
_cell_formula_units_Z 128
_cell_length_a 20.642320
_cell_length_b 20.642320
_cell_length_c 18.733121
_cell_angle_alpha 90.000000
_cell_angle_beta 90.000000
_cell_angle_gamma 90.000000
_cell_volume 7982.283548
_symmetry_space_group_name_H-M "P 42/M M C"
_symmetry_group_IT_number 131
_symmetry_cell_setting 'tetragonal'
loop_
_space_group_symop_operation_xyz
x,y,z
-x,-y,z
-y,x,1/2+z
y,-x,1/2+z
-x,y,-z
x,-y,-z
y,x,1/2-z
-y,-x,1/2-z
-x,-y,-z
x,y,-z
y,-x,1/2-z
-y,x,1/2-z
x,-y,z
-x,y,z
-y,-x,1/2+z
y,x,1/2+z
loop_
_atom_site_type_symbol
_atom_site_label
_atom_site_fract_x
_atom_site_fract_y
_atom_site_fract_z
Si Si1 0.191106 0.227039 0.327326
Si Si2 0.618601 0.809514 0.171820
Si Si3 0.226601 0.072024 0.920159
Si Si4 0.772021 0.687547 0.920257
Si Si5 0.618238 0.312049 0.079692
Si Si6 0.572719 0.620059 0.677485
Si Si7 0.619589 0.071674 0.920332
Si Si8 0.573356 0.230133 0.320966
O O1 0.194448 0.194448 0.250000
O O2 0.192620 0.304266 0.318842
O O3 0.125506 0.200953 0.364606
O O4 0.251239 0.202881 0.375155
O O5 0.593505 0.749222 0.124843
O O6 0.593018 0.874787 0.134053
O O7 0.585428 0.809134 0.248695
O O8 0.303490 0.075457 0.922227
O O9 0.203929 0.000000 0.896051
O O10 0.200293 0.087109 0.000000
O O11 0.695137 0.689294 0.925152
O O12 0.795523 0.621240 0.882612
O O13 0.801772 0.690193 0.000000
O O14 0.593931 0.377948 0.117545
O O15 0.588514 0.309273 0.000000
O O16 0.579902 0.579902 0.750000
O O17 0.500000 0.611203 0.647735
O O18 0.588134 0.694753 0.695473
O O19 0.597015 0.000000 0.895384
O O20 0.593039 0.085978 0.000000
O O21 0.500000 0.219363 0.347556
#
# Coordination Sequence:
#
# PCOD8315644 Si02
#       8
#    16  16  16  16  16  16  16  16
#     4  10  16  23  41  66  91 118 148 183 220 256
#     4  10  16  26  44  61  89 116 144 178 218 260
#     4   8  14  24  37  58  93 130 155 177 212 261
#     4   9  17  27  40  62  88 113 141 180 224 264
#     4   9  17  27  44  65  83 106 139 176 218 265
#     4  10  19  31  46  60  80 107 139 179 222 267
#     4   8  14  24  40  64  90 117 148 178 213 259
#     4  10  19  29  43  61  82 113 146 181 222 263
#
# _framework density 16.035512000000001
#
# number of rings (size 3 to 8) (size 9 to 14) (size 15 to 20)
#    0.000    2.750    2.500    1.500    0.000    3.625 
#    0.000    2.500    0.000    3.000    0.000    1.750 
#    0.000    3.750    0.000    2.500    0.000    0.250 
#
# Total GULP energy -1586778.212707 kJ/mol
# GULP energy per Si atom -12396.704787 kJ/mol
# Density = 1.599901 g / cm^3
# Si number density = 16.035512 Si / 1000 Ang^3
#
#
#
# Elastic Constant Matrix: (Units=GPa)
#
#
# Indices 1 2 3 4 5 6 
#
# 1 72.8680 20.8410 44.1789 0.0000 0.0000 0.0000
# 2 20.8410 72.8680 44.1789 0.0000 0.0000 0.0000
# 3 44.1789 44.1789 129.4481 0.0000 0.0000 0.0000
# 4 0.0000 0.0000 0.0000 15.6537 0.0000 0.0000
# 5 0.0000 0.0000 0.0000 0.0000 15.6537 0.0000
# 6 0.0000 0.0000 0.0000 0.0000 0.0000 5.7780
#
#
#
# Elastic Compliance Matrix: (Units=1/GPa)
#
#
# Indices 1 2 3 4 5 6 
#
# 1 0.017478 -0.001743 -0.005370 0.000000 0.000000 0.000000
# 2 -0.001743 0.017478 -0.005370 0.000000 0.000000 0.000000
# 3 -0.005370 -0.005370 0.011391 0.000000 0.000000 0.000000
# 4 0.000000 0.000000 0.000000 0.063883 0.000000 0.000000
# 5 0.000000 0.000000 0.000000 0.000000 0.063883 0.000000
# 6 0.000000 0.000000 0.000000 0.000000 0.000000 0.173070
#
#
# Mechanical properties :
#
#
# Convention : Reuss Voigt Hill
#
# Bulk Modulus (GPa) = 46.77312 54.84241 50.80776
# Shear Modulus (GPa) = 13.18305 18.48276 15.83290
#
# Velocity S-wave (km/s) = 2.87037 3.39870 3.14565
# Velocity P-wave (km/s) = 6.34170 7.04815 6.70423
#
# Compressibility (1/GPa) = 0.02137980
#
# Stress axis : x y z
#
# Youngs Moduli (GPa) = 57.21558 57.21558 87.79210
#
# Poissons Ratio (x) = 0.09973 0.47145
# Poissons Ratio (y) = 0.09973 0.47145
# Poissons Ratio (z) = 0.30725 0.30725
#
# Static dielectric constant tensor:
#      x y z
#    x 2.842180 0.000000 0.000000 
#    y 0.000000 2.842180 0.000000 
#    z 0.000000 0.000000 3.174050 
# 
# 
# High freq. dielectric constant tensor:
#      x y z
#    x 1.579320 0.000000 0.000000 
#    y 0.000000 1.579320 0.000000 
#    z 0.000000 0.000000 1.619440 
# 
# From -- ./inp_files/8477.got.cif
#   From: 2010.03.12/outbox.cif.g09.slc.cpg/sg131_5_cif.got.tgz:8477.got - 2010.04.06 17:36:35.
