data_PCOD8315509
_publ_section_title
;
Structure prediction by ZEFSAII (Michael W. Deem and Ramdas Pophale) SiO2 
 PCOD8315509
Probable space group: P 4/N C C
;
_chemical_formula_sum "Si O2"
_cell_formula_units_Z 128
_cell_length_a 22.454322
_cell_length_b 22.454322
_cell_length_c 12.343232
_cell_angle_alpha 90.000000
_cell_angle_beta 90.000000
_cell_angle_gamma 90.000000
_cell_volume 6223.415317
_symmetry_space_group_name_H-M "P 4/N C C"
_symmetry_group_IT_number 130
_symmetry_cell_setting 'tetragonal'
loop_
_space_group_symop_operation_xyz
x,y,z
1/2-y,x,z
1/2-x,1/2-y,z
y,1/2-x,z
1/2+x,-y,1/2-z
-x,1/2+y,1/2-z
1/2+y,1/2+x,1/2-z
-y,-x,1/2-z
-x,-y,-z
1/2+y,-x,-z
1/2+x,1/2+y,-z
-y,1/2+x,-z
1/2-x,y,1/2+z
x,1/2-y,1/2+z
1/2-y,1/2-x,1/2+z
y,x,1/2+z
loop_
_atom_site_type_symbol
_atom_site_label
_atom_site_fract_x
_atom_site_fract_y
_atom_site_fract_z
Si Si1 0.102565 0.274328 0.656774
Si Si2 0.469534 0.716154 0.906142
Si Si3 0.384984 0.352951 0.760163
Si Si4 0.897904 0.012094 0.785086
Si Si5 0.188468 0.899760 0.800088
Si Si6 0.415669 0.819517 0.620802
Si Si7 0.296163 0.333688 0.448374
Si Si8 0.157742 0.578049 0.537094
O O1 0.106108 0.325896 0.747424
O O2 0.118094 0.207958 0.692058
O O3 0.152251 0.298921 0.574423
O O4 0.038975 0.270812 0.599898
O O5 0.449222 0.684393 0.794523
O O6 0.432555 0.775887 0.923082
O O7 0.457371 0.678061 0.013922
O O8 0.441567 0.394056 0.732979
O O9 0.386429 0.329990 0.884053
O O10 0.963044 0.036957 0.750000
O O11 0.846258 0.045136 0.717606
O O12 0.886064 0.027337 0.912147
O O13 0.161234 0.838766 0.750000
O O14 0.255747 0.890593 0.841634
O O15 0.151120 0.921480 0.906058
O O16 0.358367 0.858779 0.591624
O O17 0.227050 0.329330 0.415802
#
# Coordination Sequence:
#
# PCOD8315509 Si02
#       8
#    16  16  16  16  16  16  16  16
#     4  12  24  40  66  93 132 164 216 267 316 391
#     4  11  22  39  60  93 118 164 214 260 323 380
#     4  12  23  42  64  98 129 171 218 262 326 384
#     4  10  21  41  68  90 122 170 222 266 316 383
#     4  11  21  37  61  90 129 160 210 268 328 382
#     4  10  20  38  65  85 123 164 214 264 319 380
#     4  11  23  39  63  94 134 175 208 259 327 388
#     4  10  20  37  64  88 120 165 213 258 316 388
#
# _framework density 20.567482999999999
#
# number of rings (size 3 to 8) (size 9 to 14) (size 15 to 20)
#    0.000    1.125    6.250    0.750    0.000    1.250 
#    2.250    1.875    0.000    2.250    0.000    0.000 
#    0.000    0.000    0.000    0.000    0.000    0.000 
#
# Total GULP energy -1586377.713967 kJ/mol
# GULP energy per Si atom -12393.575890 kJ/mol
# Density = 2.052067 g / cm^3
# Si number density = 20.567483 Si / 1000 Ang^3
#
#
#
# Elastic Constant Matrix: (Units=GPa)
#
#
# Indices 1 2 3 4 5 6 
#
# 1 53.3925 41.4421 16.2702 0.0000 0.0000 0.0000
# 2 41.4421 53.3929 16.2704 0.0000 0.0000 0.0000
# 3 16.2702 16.2704 103.3116 0.0000 0.0000 0.0000
# 4 0.0000 0.0000 0.0000 22.3906 0.0000 0.0000
# 5 0.0000 0.0000 0.0000 0.0000 22.3902 0.0000
# 6 0.0000 0.0000 0.0000 0.0000 0.0000 15.7044
#
#
#
# Elastic Compliance Matrix: (Units=1/GPa)
#
#
# Indices 1 2 3 4 5 6 
#
# 1 0.047413 -0.036265 -0.001755 0.000000 0.000000 0.000000
# 2 -0.036265 0.047412 -0.001756 0.000000 0.000000 0.000000
# 3 -0.001755 -0.001756 0.010232 0.000000 0.000000 0.000000
# 4 0.000000 0.000000 0.000000 0.044662 0.000000 0.000000
# 5 0.000000 0.000000 0.000000 0.000000 0.044662 0.000000
# 6 0.000000 0.000000 0.000000 0.000000 0.000000 0.063676
#
#
# Mechanical properties :
#
#
# Convention : Reuss Voigt Hill
#
# Bulk Modulus (GPa) = 39.20896 39.78471 39.49683
# Shear Modulus (GPa) = 14.44618 21.17133 17.80875
#
# Velocity S-wave (km/s) = 2.65312 3.21184 2.94576
# Velocity P-wave (km/s) = 5.33763 5.75674 5.55114
#
# Compressibility (1/GPa) = 0.02550437
#
# Stress axis : x y z
#
# Youngs Moduli (GPa) = 21.09144 21.09155 97.72877
#
# Poissons Ratio (x) = 0.76489 0.17156
# Poissons Ratio (y) = 0.76489 0.17157
# Poissons Ratio (z) = 0.03702 0.03703
#
# Static dielectric constant tensor:
#      x y z
#    x 3.570800 0.000000 0.000000 
#    y 0.000000 3.570800 0.000000 
#    z 0.000000 0.000000 4.098960 
# 
# 
# High freq. dielectric constant tensor:
#      x y z
#    x 1.787840 0.000000 0.000000 
#    y 0.000000 1.787840 0.000000 
#    z 0.000000 0.000000 1.822630 
# 
# From -- ./inp_files/1897.got.cif
#   From: 2010.03.12/outbox.cif.g09.slc.cpg/sg130_1_cif.got.tgz:1897.got - 2010.04.06 17:30:23.
