data_PCOD8315230
_publ_section_title
;
Structure prediction by ZEFSAII (Michael W. Deem and Ramdas Pophale) SiO2 
 PCOD8315230
Probable space group: P 4/N M M
;
_chemical_formula_sum "Si O2"
_cell_formula_units_Z 88
_cell_length_a 13.095699
_cell_length_b 13.095699
_cell_length_c 28.695797
_cell_angle_alpha 90.000000
_cell_angle_beta 90.000000
_cell_angle_gamma 90.000000
_cell_volume 4921.252634
_symmetry_space_group_name_H-M "P 4/N M M"
_symmetry_group_IT_number 129
_symmetry_cell_setting 'tetragonal'
loop_
_space_group_symop_operation_xyz
x,y,z
1/2-y,x,z
1/2-x,1/2-y,z
y,1/2-x,z
1/2+x,-y,-z
-x,1/2+y,-z
1/2+y,1/2+x,-z
-y,-x,-z
-x,-y,-z
1/2+y,-x,-z
1/2+x,1/2+y,-z
-y,1/2+x,-z
1/2-x,y,z
x,1/2-y,z
1/2-y,1/2-x,z
y,x,z
loop_
_atom_site_type_symbol
_atom_site_label
_atom_site_fract_x
_atom_site_fract_y
_atom_site_fract_z
Si Si1 0.128219 0.864493 0.599425
Si Si2 0.869786 0.468812 0.306881
Si Si3 0.368661 0.868661 0.500000
Si Si4 0.131492 0.535715 0.867189
Si Si5 0.535633 0.132024 0.221645
Si Si6 0.964098 0.368274 0.044418
O O1 0.250000 0.858601 0.598546
O O2 0.084295 0.750000 0.606170
O O3 0.091499 0.933108 0.642321
O O4 0.090480 0.914524 0.549530
O O5 0.750000 0.487955 0.305124
O O6 0.902195 0.383896 0.269443
O O7 0.924361 0.575640 0.294738
O O8 0.390996 0.750000 0.505240
O O9 0.250000 0.507655 0.869353
O O10 0.108152 0.596163 0.820027
O O11 0.101767 0.608260 0.909904
O O12 0.070473 0.429528 0.869659
O O13 0.507518 0.250000 0.215925
O O14 0.429615 0.070386 0.221489
O O15 0.993530 0.250000 0.043179
O O16 0.069889 0.430112 0.044460
O O17 0.896031 0.396031 0.000000
#
# Coordination Sequence:
#
# PCOD8315230 Si02
#       6
#    16  16   8  16  16  16
#     4   8  13  23  41  63  86 113 145 185 235 285
#     4  10  20  32  46  66  92 123 161 201 239 282
#     4   7  10  18  35  60  86 110 139 179 230 284
#     4  10  21  36  54  78 106 136 172 210 247 290
#     4  10  21  36  54  77 102 127 158 195 237 289
#     4  10  21  36  54  78 106 136 173 214 256 305
#
# _framework density 17.881627999999999
#
# number of rings (size 3 to 8) (size 9 to 14) (size 15 to 20)
#    0.000    2.636    0.000    3.273    0.000    4.909 
#    0.000    0.455    0.000    9.818    0.000    0.000 
#    0.000    0.000    0.000   11.455    0.000    0.364 
#
# Total GULP energy -1090725.674148 kJ/mol
# GULP energy per Si atom -12394.609934 kJ/mol
# Density = 1.784093 g / cm^3
# Si number density = 17.881628 Si / 1000 Ang^3
#
#
#
# Elastic Constant Matrix: (Units=GPa)
#
#
# Indices 1 2 3 4 5 6 
#
# 1 100.9187 38.3165 38.7495 0.0000 0.0000 0.0000
# 2 38.3165 100.9187 38.7495 0.0000 0.0000 0.0000
# 3 38.7495 38.7495 141.5165 0.0000 0.0000 0.0000
# 4 0.0000 0.0000 0.0000 21.7224 0.0000 0.0000
# 5 0.0000 0.0000 0.0000 0.0000 21.7224 0.0000
# 6 0.0000 0.0000 0.0000 0.0000 0.0000 10.8213
#
#
#
# Elastic Compliance Matrix: (Units=1/GPa)
#
#
# Indices 1 2 3 4 5 6 
#
# 1 0.012224 -0.003750 -0.002320 0.000000 0.000000 0.000000
# 2 -0.003750 0.012224 -0.002320 0.000000 0.000000 0.000000
# 3 -0.002320 -0.002320 0.008337 0.000000 0.000000 0.000000
# 4 0.000000 0.000000 0.000000 0.046035 0.000000 0.000000
# 5 0.000000 0.000000 0.000000 0.000000 0.046035 0.000000
# 6 0.000000 0.000000 0.000000 0.000000 0.000000 0.092410
#
#
# Mechanical properties :
#
#
# Convention : Reuss Voigt Hill
#
# Bulk Modulus (GPa) = 62.48742 63.88720 63.18731
# Shear Modulus (GPa) = 20.88721 26.02244 23.45482
#
# Velocity S-wave (km/s) = 3.42143 3.81893 3.62563
# Velocity P-wave (km/s) = 7.11542 7.43310 7.27599
#
# Compressibility (1/GPa) = 0.01600322
#
# Stress axis : x y z
#
# Youngs Moduli (GPa) = 81.80830 81.80830 119.94830
#
# Poissons Ratio (x) = 0.30680 0.27830
# Poissons Ratio (y) = 0.30680 0.27830
# Poissons Ratio (z) = 0.18981 0.18981
#
# Static dielectric constant tensor:
#      x y z
#    x 3.012220 0.000000 0.000000 
#    y 0.000000 3.012220 0.000000 
#    z 0.000000 0.000000 3.842850 
# 
# 
# High freq. dielectric constant tensor:
#      x y z
#    x 1.668520 0.000000 0.000000 
#    y 0.000000 1.668520 0.000000 
#    z 0.000000 0.000000 1.724370 
# 
# From -- ./inp_files/7769.got.cif
#   From: 2010.03.12/outbox.cif.g09.slc.cpg/sg129_4_cif.got.tgz:7769.got - 2010.04.06 17:19:44.
