data_PCOD8315604
_publ_section_title
;
Structure prediction by ZEFSAII (Michael W. Deem and Ramdas Pophale) SiO2 
 PCOD8315604
Probable space group: P 4/N C C
;
_chemical_formula_sum "Si O2"
_cell_formula_units_Z 72
_cell_length_a 16.100873
_cell_length_b 16.100873
_cell_length_c 13.164813
_cell_angle_alpha 90.000000
_cell_angle_beta 90.000000
_cell_angle_gamma 90.000000
_cell_volume 3412.821259
_symmetry_space_group_name_H-M "P 4/N C C"
_symmetry_group_IT_number 130
_symmetry_cell_setting 'tetragonal'
loop_
_space_group_symop_operation_xyz
x,y,z
1/2-y,x,z
1/2-x,1/2-y,z
y,1/2-x,z
1/2+x,-y,1/2-z
-x,1/2+y,1/2-z
1/2+y,1/2+x,1/2-z
-y,-x,1/2-z
-x,-y,-z
1/2+y,-x,-z
1/2+x,1/2+y,-z
-y,1/2+x,-z
1/2-x,y,1/2+z
x,1/2-y,1/2+z
1/2-y,1/2-x,1/2+z
y,x,1/2+z
loop_
_atom_site_type_symbol
_atom_site_label
_atom_site_fract_x
_atom_site_fract_y
_atom_site_fract_z
Si Si1 0.180347 0.046638 0.056933
Si Si2 0.133166 0.187951 0.353968
Si Si3 0.630587 0.203281 0.959181
Si Si4 0.543696 0.644844 0.832966
Si Si5 0.128392 0.628392 0.250000
O O1 0.098958 0.068894 0.123679
O O2 0.266582 0.060649 0.115210
O O3 0.176723 0.116114 0.971392
O O4 0.172288 0.955492 0.008413
O O5 0.216067 0.139832 0.324986
O O6 0.060445 0.150057 0.287019
O O7 0.630516 0.203193 0.833784
O O8 0.645122 0.298066 0.993265
O O9 0.446366 0.625191 0.832286
#
# Coordination Sequence:
#
# PCOD8315604 Si02
#       5
#    16  16  16  16   8
#     4  12  24  44  70 101 142 181 226 286 348 410
#     4  11  22  38  67 100 137 183 225 267 332 417
#     4  11  26  49  74  98 130 184 240 288 340 402
#     4  12  25  43  68 104 140 181 226 281 348 418
#     4  12  26  49  70 100 140 173 230 296 342 414
#
# _framework density 21.096914999999999
#
# number of rings (size 3 to 8) (size 9 to 14) (size 15 to 20)
#    0.000    0.444    8.889    0.000    0.000    3.111 
#    8.000    0.000    0.000    0.000    0.000    0.000 
#    0.000    0.000    0.000    0.000    0.000    0.000 
#
# Total GULP energy -892346.735634 kJ/mol
# GULP energy per Si atom -12393.704662 kJ/mol
# Density = 2.104890 g / cm^3
# Si number density = 21.096915 Si / 1000 Ang^3
#
#
#
# Elastic Constant Matrix: (Units=GPa)
#
#
# Indices 1 2 3 4 5 6 
#
# 1 104.4472 7.5906 37.8452 0.0000 0.0000 0.0000
# 2 7.5906 104.4472 37.8452 0.0000 0.0000 0.0000
# 3 37.8452 37.8452 123.8718 0.0000 0.0000 0.0000
# 4 0.0000 0.0000 0.0000 34.7242 0.0000 0.0000
# 5 0.0000 0.0000 0.0000 0.0000 34.7242 0.0000
# 6 0.0000 0.0000 0.0000 0.0000 0.0000 26.0804
#
#
#
# Elastic Compliance Matrix: (Units=1/GPa)
#
#
# Indices 1 2 3 4 5 6 
#
# 1 0.010786 0.000461 -0.003436 0.000000 0.000000 0.000000
# 2 0.000461 0.010786 -0.003436 0.000000 0.000000 0.000000
# 3 -0.003436 -0.003436 0.010172 0.000000 0.000000 0.000000
# 4 0.000000 0.000000 0.000000 0.028798 0.000000 0.000000
# 5 0.000000 0.000000 0.000000 0.000000 0.028798 0.000000
# 6 0.000000 0.000000 0.000000 0.000000 0.000000 0.038343
#
#
# Mechanical properties :
#
#
# Convention : Reuss Voigt Hill
#
# Bulk Modulus (GPa) = 52.84920 55.48090 54.16505
# Shear Modulus (GPa) = 34.05689 35.73810 34.89749
#
# Velocity S-wave (km/s) = 4.02220 4.12028 4.07154
# Velocity P-wave (km/s) = 6.83197 6.99935 6.91617
#
# Compressibility (1/GPa) = 0.01892176
#
# Stress axis : x y z
#
# Youngs Moduli (GPa) = 92.71497 92.71497 98.30444
#
# Poissons Ratio (x) = -0.04276 0.33779
# Poissons Ratio (y) = -0.04276 0.33779
# Poissons Ratio (z) = 0.31858 0.31858
#
# Static dielectric constant tensor:
#      x y z
#    x 3.781160 0.000000 0.000000 
#    y 0.000000 3.781160 0.000000 
#    z 0.000000 0.000000 3.855940 
# 
# 
# High freq. dielectric constant tensor:
#      x y z
#    x 1.823590 0.000000 0.000000 
#    y 0.000000 1.823590 0.000000 
#    z 0.000000 0.000000 1.842830 
# 
# From -- ./inp_files/1604.got.cif
#   From: 2010.03.12/outbox.cif.g09.slc.cpg/sg130_1_cif.got.tgz:1604.got - 2010.04.06 17:30:23.
