data_PCOD8315909
_publ_section_title
;
Structure prediction by ZEFSAII (Michael W. Deem and Ramdas Pophale) SiO2 
 PCOD8315909
Probable space group: P 42/M M C
;
_chemical_formula_sum "Si O2"
_cell_formula_units_Z 50
_cell_length_a 19.554740
_cell_length_b 19.554740
_cell_length_c 8.788016
_cell_angle_alpha 90.000000
_cell_angle_beta 90.000000
_cell_angle_gamma 90.000000
_cell_volume 3360.430601
_symmetry_space_group_name_H-M "P 42/M M C"
_symmetry_group_IT_number 131
_symmetry_cell_setting 'tetragonal'
loop_
_space_group_symop_operation_xyz
x,y,z
-x,-y,z
-y,x,1/2+z
y,-x,1/2+z
-x,y,-z
x,-y,-z
y,x,1/2-z
-y,-x,1/2-z
-x,-y,-z
x,y,-z
y,-x,1/2-z
-y,x,1/2-z
x,-y,z
-x,y,z
-y,-x,1/2+z
y,x,1/2+z
loop_
_atom_site_type_symbol
_atom_site_label
_atom_site_fract_x
_atom_site_fract_y
_atom_site_fract_z
Si Si1 0.500000 0.651025 0.669481
Si Si2 0.724331 0.373869 0.680161
Si Si3 0.581255 0.000000 0.171500
Si Si4 0.138938 0.419278 0.824163
Si Si5 0.500000 0.500000 0.250000
O O1 0.500000 0.683340 0.500000
O O2 0.434076 0.676491 0.758578
O O3 0.500000 0.568997 0.650142
O O4 0.697121 0.302880 0.750000
O O5 0.718861 0.372415 0.500000
O O6 0.802452 0.382080 0.729328
O O7 0.607687 0.066781 0.260085
O O8 0.500000 0.000000 0.169810
O O9 0.610324 0.000000 0.000000
O O10 0.147105 0.500000 0.800105
O O11 0.144344 0.399035 0.000000
#
# Coordination Sequence:
#
# PCOD8315909 Si02
#       5
#     8  16   8  16   2
#     4  12  24  37  50  64  82 108 147 193 239 283
#     4  12  24  36  50  66  88 116 150 189 234 280
#     4   9  17  29  47  71  95 115 143 178 222 273
#     4  10  19  32  50  69  92 117 147 184 228 276
#     4  12  26  36  56  62  82 104 154 196 246 284
#
# _framework density 14.879046000000001
#
# number of rings (size 3 to 8) (size 9 to 14) (size 15 to 20)
#    0.000    1.120    3.200    5.040    0.000    4.480 
#    0.000    0.000    0.000    0.000    0.000    0.000 
#    0.000    0.000    0.000    0.000    0.000    0.800 
#
# Total GULP energy -620128.870754 kJ/mol
# GULP energy per Si atom -12402.577415 kJ/mol
# Density = 1.484518 g / cm^3
# Si number density = 14.879046 Si / 1000 Ang^3
#
#
#
# Elastic Constant Matrix: (Units=GPa)
#
#
# Indices 1 2 3 4 5 6 
#
# 1 87.1890 34.4438 45.0897 0.0000 0.0000 0.0000
# 2 34.4438 87.1931 45.0902 0.0000 0.0000 0.0000
# 3 45.0897 45.0902 150.1470 0.0000 0.0000 0.0000
# 4 0.0000 0.0000 0.0000 22.4130 0.0000 0.0000
# 5 0.0000 0.0000 0.0000 0.0000 22.4128 0.0000
# 6 0.0000 0.0000 0.0000 0.0000 0.0000 7.6943
#
#
#
# Elastic Compliance Matrix: (Units=1/GPa)
#
#
# Indices 1 2 3 4 5 6 
#
# 1 0.014768 -0.004191 -0.003176 0.000000 0.000000 0.000000
# 2 -0.004191 0.014767 -0.003176 0.000000 0.000000 0.000000
# 3 -0.003176 -0.003176 0.008568 0.000000 0.000000 0.000000
# 4 0.000000 0.000000 0.000000 0.044617 0.000000 0.000000
# 5 0.000000 0.000000 0.000000 0.000000 0.044617 0.000000
# 6 0.000000 0.000000 0.000000 0.000000 0.000000 0.129966
#
#
# Mechanical properties :
#
#
# Convention : Reuss Voigt Hill
#
# Bulk Modulus (GPa) = 58.76953 63.75294 61.26124
# Shear Modulus (GPa) = 17.60186 23.83104 20.71645
#
# Velocity S-wave (km/s) = 3.44320 4.00641 3.73543
# Velocity P-wave (km/s) = 7.44254 8.02136 7.73737
#
# Compressibility (1/GPa) = 0.01701562
#
# Stress axis : x y z
#
# Youngs Moduli (GPa) = 67.71595 67.71945 116.71732
#
# Poissons Ratio (x) = 0.28382 0.37071
# Poissons Ratio (y) = 0.28381 0.37069
# Poissons Ratio (z) = 0.21507 0.21507
#
# Static dielectric constant tensor:
#      x y z
#    x 2.748840 0.000000 0.000000 
#    y 0.000000 2.748880 0.000000 
#    z 0.000000 0.000000 3.040950 
# 
# 
# High freq. dielectric constant tensor:
#      x y z
#    x 1.541010 0.000000 0.000000 
#    y 0.000000 1.541010 0.000000 
#    z 0.000000 0.000000 1.594100 
# 
# From -- ./inp_files/1133.got.cif
#   From: 2010.03.12/outbox.cif.g09.slc.cpg/sg131_1_cif.got.tgz:1133.got - 2010.04.06 17:36:35.
