data_PCOD8315276
_publ_section_title
;
Structure prediction by ZEFSAII (Michael W. Deem and Ramdas Pophale) SiO2 
 PCOD8315276
Probable space group: P 4/N M M
;
_chemical_formula_sum "Si O2"
_cell_formula_units_Z 96
_cell_length_a 13.907374
_cell_length_b 13.907374
_cell_length_c 29.902312
_cell_angle_alpha 90.000000
_cell_angle_beta 90.000000
_cell_angle_gamma 90.000000
_cell_volume 5783.557218
_symmetry_space_group_name_H-M "P 4/N M M"
_symmetry_group_IT_number 129
_symmetry_cell_setting 'tetragonal'
loop_
_space_group_symop_operation_xyz
x,y,z
1/2-y,x,z
1/2-x,1/2-y,z
y,1/2-x,z
1/2+x,-y,-z
-x,1/2+y,-z
1/2+y,1/2+x,-z
-y,-x,-z
-x,-y,-z
1/2+y,-x,-z
1/2+x,1/2+y,-z
-y,1/2+x,-z
1/2-x,y,z
x,1/2-y,z
1/2-y,1/2-x,z
y,x,z
loop_
_atom_site_type_symbol
_atom_site_label
_atom_site_fract_x
_atom_site_fract_y
_atom_site_fract_z
Si Si1 0.520211 0.136327 0.301047
Si Si2 0.014719 0.859323 0.470659
Si Si3 0.486530 0.640267 0.132762
Si Si4 0.361119 0.517765 0.968170
Si Si5 0.016289 0.639188 0.367099
Si Si6 0.141033 0.637883 0.784820
O O1 0.501434 0.250000 0.304537
O O2 0.591717 0.104736 0.340639
O O3 0.570519 0.105954 0.254745
O O4 0.418250 0.081751 0.304705
O O5 0.103798 0.896203 0.500000
O O6 0.992278 0.750000 0.483559
O O7 0.043452 0.869721 0.418989
O O8 0.919109 0.919109 0.482240
O O9 0.514061 0.750000 0.140249
O O10 0.584392 0.584392 0.141099
O O11 0.446325 0.622816 0.082754
O O12 0.408269 0.605699 0.168732
O O13 0.250000 0.495406 0.978106
O O14 0.420105 0.420105 0.977799
O O15 0.396699 0.603302 0.000000
O O16 0.002234 0.750000 0.352777
O O17 0.917053 0.582948 0.356325
O O18 0.250000 0.606570 0.772523
O O19 0.135201 0.750000 0.792783
#
# Coordination Sequence:
#
# PCOD8315276 Si02
#       6
#    16  16  16  16  16  16
#     4  10  20  33  49  68  91 121 156 193 231 269
#     4   9  18  32  49  70  96 124 155 191 229 271
#     4   9  17  29  45  65  90 118 146 178 217 263
#     4   9  18  31  46  66  91 119 152 188 226 269
#     4   9  18  32  50  72  96 122 152 187 229 276
#     4   9  17  29  46  68  91 115 146 183 223 268
#
# _framework density 16.598782
#
# number of rings (size 3 to 8) (size 9 to 14) (size 15 to 20)
#    0.000    2.833    0.000    1.000    0.000    3.500 
#    0.000    6.667    0.000    0.000    0.000    7.000 
#    0.000    4.000    0.000    0.000    0.000    0.000 
#
# Total GULP energy -1190336.322015 kJ/mol
# GULP energy per Si atom -12399.336688 kJ/mol
# Density = 1.656100 g / cm^3
# Si number density = 16.598782 Si / 1000 Ang^3
#
#
#
# Elastic Constant Matrix: (Units=GPa)
#
#
# Indices 1 2 3 4 5 6 
#
# 1 95.5781 50.0272 55.3581 0.0000 0.0000 0.0000
# 2 50.0272 95.5799 55.3576 0.0000 0.0000 0.0000
# 3 55.3581 55.3576 85.7780 0.0000 0.0000 0.0000
# 4 0.0000 0.0000 0.0000 27.7514 0.0000 0.0000
# 5 0.0000 0.0000 0.0000 0.0000 27.7513 0.0000
# 6 0.0000 0.0000 0.0000 0.0000 0.0000 18.6747
#
#
#
# Elastic Compliance Matrix: (Units=1/GPa)
#
#
# Indices 1 2 3 4 5 6 
#
# 1 0.017720 -0.004234 -0.008703 0.000000 0.000000 0.000000
# 2 -0.004234 0.017719 -0.008703 0.000000 0.000000 0.000000
# 3 -0.008703 -0.008703 0.022891 0.000000 0.000000 0.000000
# 4 0.000000 0.000000 0.000000 0.036034 0.000000 0.000000
# 5 0.000000 0.000000 0.000000 0.000000 0.036034 0.000000
# 6 0.000000 0.000000 0.000000 0.000000 0.000000 0.053549
#
#
# Mechanical properties :
#
#
# Convention : Reuss Voigt Hill
#
# Bulk Modulus (GPa) = 66.44492 66.49131 66.46812
# Shear Modulus (GPa) = 21.52920 22.58167 22.05544
#
# Velocity S-wave (km/s) = 3.60534 3.69242 3.64914
# Velocity P-wave (km/s) = 7.57946 7.63698 7.60828
#
# Compressibility (1/GPa) = 0.01505006
#
# Stress axis : x y z
#
# Youngs Moduli (GPa) = 56.43487 56.43705 43.68512
#
# Poissons Ratio (x) = 0.23895 0.38020
# Poissons Ratio (y) = 0.23894 0.38018
# Poissons Ratio (z) = 0.49116 0.49115
#
# Static dielectric constant tensor:
#      x y z
#    x 3.073270 0.000000 0.000000 
#    y 0.000000 3.073270 0.000000 
#    z 0.000000 0.000000 3.289120 
# 
# 
# High freq. dielectric constant tensor:
#      x y z
#    x 1.633410 0.000000 0.000000 
#    y 0.000000 1.633410 0.000000 
#    z 0.000000 0.000000 1.647280 
# 
# From -- ./inp_files/6519.got.cif
#   From: 2010.03.12/outbox.cif.g09.slc.cpg/sg129_4_cif.got.tgz:6519.got - 2010.04.06 17:19:44.
