data_PCOD8315582
_publ_section_title
;
Structure prediction by ZEFSAII (Michael W. Deem and Ramdas Pophale) SiO2 
 PCOD8315582
Probable space group: P 4/N C C
;
_chemical_formula_sum "Si O2"
_cell_formula_units_Z 80
_cell_length_a 13.801439
_cell_length_b 13.801439
_cell_length_c 22.400669
_cell_angle_alpha 90.000000
_cell_angle_beta 90.000000
_cell_angle_gamma 90.000000
_cell_volume 4266.873125
_symmetry_space_group_name_H-M "P 4/N C C"
_symmetry_group_IT_number 130
_symmetry_cell_setting 'tetragonal'
loop_
_space_group_symop_operation_xyz
x,y,z
1/2-y,x,z
1/2-x,1/2-y,z
y,1/2-x,z
1/2+x,-y,1/2-z
-x,1/2+y,1/2-z
1/2+y,1/2+x,1/2-z
-y,-x,1/2-z
-x,-y,-z
1/2+y,-x,-z
1/2+x,1/2+y,-z
-y,1/2+x,-z
1/2-x,y,1/2+z
x,1/2-y,1/2+z
1/2-y,1/2-x,1/2+z
y,x,1/2+z
loop_
_atom_site_type_symbol
_atom_site_label
_atom_site_fract_x
_atom_site_fract_y
_atom_site_fract_z
Si Si1 0.801414 0.390040 0.520611
Si Si2 0.102625 0.301679 0.174483
Si Si3 0.729513 0.071202 0.256641
Si Si4 0.657758 0.181191 0.847900
Si Si5 0.096422 0.293487 0.037576
O O1 0.861868 0.313085 0.480362
O O2 0.845057 0.383931 0.587309
O O3 0.818479 0.500095 0.499468
O O4 0.128943 0.191063 0.187762
O O5 0.067087 0.308291 0.106455
O O6 0.022349 0.331680 0.223645
O O7 0.665082 0.165082 0.250000
O O8 0.776879 0.066606 0.190721
O O9 0.806521 0.087352 0.310708
O O10 0.750000 0.250000 0.857598
O O11 0.132199 0.184107 0.023109
#
# Coordination Sequence:
#
# PCOD8315582 Si02
#       5
#    16  16  16  16  16
#     4  11  20  31  56  83 111 140 183 227 276 326
#     4   9  18  35  56  76 104 143 183 220 265 318
#     4   9  18  32  55  74 105 137 177 220 268 316
#     4   9  17  33  50  78 106 140 165 218 276 320
#     4   9  20  38  57  78 111 153 188 225 274 327
#
# _framework density 18.749092999999998
#
# number of rings (size 3 to 8) (size 9 to 14) (size 15 to 20)
#    0.000    2.600    2.000    3.600    2.800    0.800 
#    3.600    2.000    0.000    2.400    0.000    0.000 
#    0.000    0.000    0.000    0.000    0.000    0.000 
#
# Total GULP energy -991048.885583 kJ/mol
# GULP energy per Si atom -12388.111070 kJ/mol
# Density = 1.870642 g / cm^3
# Si number density = 18.749093 Si / 1000 Ang^3
#
#
#
# Elastic Constant Matrix: (Units=GPa)
#
#
# Indices 1 2 3 4 5 6 
#
# 1 60.2856 -16.2326 20.1175 0.0000 0.0000 0.0000
# 2 -16.2326 60.2856 20.1175 0.0000 0.0000 0.0000
# 3 20.1175 20.1175 102.9539 0.0000 0.0000 0.0000
# 4 0.0000 0.0000 0.0000 29.8751 0.0000 0.0000
# 5 0.0000 0.0000 0.0000 0.0000 29.8751 0.0000
# 6 0.0000 0.0000 0.0000 0.0000 0.0000 10.3838
#
#
#
# Elastic Compliance Matrix: (Units=1/GPa)
#
#
# Indices 1 2 3 4 5 6 
#
# 1 0.020350 0.007281 -0.005399 0.000000 0.000000 0.000000
# 2 0.007281 0.020350 -0.005399 0.000000 0.000000 0.000000
# 3 -0.005399 -0.005399 0.011823 0.000000 0.000000 0.000000
# 4 0.000000 0.000000 0.000000 0.033473 0.000000 0.000000
# 5 0.000000 0.000000 0.000000 0.000000 0.033473 0.000000
# 6 0.000000 0.000000 0.000000 0.000000 0.000000 0.096304
#
#
# Mechanical properties :
#
#
# Convention : Reuss Voigt Hill
#
# Bulk Modulus (GPa) = 21.98347 30.16998 26.07672
# Shear Modulus (GPa) = 21.01105 27.32832 24.16969
#
# Velocity S-wave (km/s) = 3.35123 3.82197 3.59432
# Velocity P-wave (km/s) = 5.16961 5.96682 5.58247
#
# Compressibility (1/GPa) = 0.04548873
#
# Stress axis : x y z
#
# Youngs Moduli (GPa) = 49.14000 49.14000 84.57997
#
# Poissons Ratio (x) = -0.35780 0.45667
# Poissons Ratio (y) = -0.35780 0.45667
# Poissons Ratio (z) = 0.26532 0.26532
#
# Static dielectric constant tensor:
#      x y z
#    x 3.229660 0.000000 0.000000 
#    y 0.000000 3.229660 0.000000 
#    z 0.000000 0.000000 3.537660 
# 
# 
# High freq. dielectric constant tensor:
#      x y z
#    x 1.708900 0.000000 0.000000 
#    y 0.000000 1.708900 0.000000 
#    z 0.000000 0.000000 1.726040 
# 
# From -- ./inp_files/3607.got.cif
#   From: 2010.03.12/outbox.cif.g09.slc.cpg/sg130_2_cif.got.tgz:3607.got - 2010.04.06 17:30:23.
