data_PCOD8315327
_publ_section_title
;
Structure prediction by ZEFSAII (Michael W. Deem and Ramdas Pophale) SiO2 
 PCOD8315327
Probable space group: P 4/N M M
;
_chemical_formula_sum "Si O2"
_cell_formula_units_Z 96
_cell_length_a 18.577151
_cell_length_b 18.577151
_cell_length_c 14.979770
_cell_angle_alpha 90.000000
_cell_angle_beta 90.000000
_cell_angle_gamma 90.000000
_cell_volume 5169.676503
_symmetry_space_group_name_H-M "P 4/N M M"
_symmetry_group_IT_number 129
_symmetry_cell_setting 'tetragonal'
loop_
_space_group_symop_operation_xyz
x,y,z
1/2-y,x,z
1/2-x,1/2-y,z
y,1/2-x,z
1/2+x,-y,-z
-x,1/2+y,-z
1/2+y,1/2+x,-z
-y,-x,-z
-x,-y,-z
1/2+y,-x,-z
1/2+x,1/2+y,-z
-y,1/2+x,-z
1/2-x,y,z
x,1/2-y,z
1/2-y,1/2-x,z
y,x,z
loop_
_atom_site_type_symbol
_atom_site_label
_atom_site_fract_x
_atom_site_fract_y
_atom_site_fract_z
Si Si1 0.667742 0.395960 0.750116
Si Si2 0.451055 0.332885 0.818241
Si Si3 0.332038 0.052734 0.489754
Si Si4 0.053526 0.169299 0.283982
Si Si5 0.955922 0.166485 0.648755
Si Si6 0.905139 0.167288 0.919040
O O1 0.750000 0.379534 0.723464
O O2 0.657994 0.480864 0.772693
O O3 0.617782 0.376438 0.665799
O O4 0.645938 0.349451 0.835351
O O5 0.425289 0.250000 0.819336
O O6 0.382889 0.382889 0.839593
O O7 0.484034 0.353852 0.722338
O O8 0.511754 0.345938 0.893704
O O9 0.250000 0.073673 0.510759
O O10 0.377916 0.122085 0.516467
O O11 0.343842 0.032039 0.387002
O O12 0.355163 0.985269 0.551186
O O13 0.084294 0.250000 0.271153
O O14 0.114119 0.114119 0.250211
O O15 0.936780 0.250000 0.656618
O O16 0.892171 0.250000 0.946980
O O17 0.884894 0.115107 0.000000
#
# Coordination Sequence:
#
# PCOD8315327 Si02
#       6
#    16  16  16  16  16  16
#     4  10  20  33  50  73  99 126 159 199 243 296
#     4   9  18  32  49  73 105 137 170 205 243 291
#     4   9  17  30  48  70  97 129 167 209 248 286
#     4   9  19  34  51  73  99 128 165 207 248 290
#     4   9  18  31  47  69  99 134 169 207 248 287
#     4  10  21  36  56  81 103 125 158 202 250 298
#
# _framework density 18.569825999999999
#
# number of rings (size 3 to 8) (size 9 to 14) (size 15 to 20)
#    0.000    2.667    0.000    2.500    0.000    7.000 
#    0.000    3.333    0.000    4.000    0.000    9.333 
#    0.000    5.333    0.000    0.000    0.000    0.167 
#
# Total GULP energy -1190360.546727 kJ/mol
# GULP energy per Si atom -12399.589028 kJ/mol
# Density = 1.852756 g / cm^3
# Si number density = 18.569826 Si / 1000 Ang^3
#
#
#
# Elastic Constant Matrix: (Units=GPa)
#
#
# Indices 1 2 3 4 5 6 
#
# 1 91.1445 63.0796 12.6992 0.0000 0.0000 0.0000
# 2 63.0796 91.1446 12.6985 0.0000 0.0000 0.0000
# 3 12.6992 12.6985 26.1759 0.0000 0.0000 0.0000
# 4 0.0000 0.0000 0.0000 22.2785 0.0000 0.0000
# 5 0.0000 0.0000 0.0000 0.0000 22.2778 0.0000
# 6 0.0000 0.0000 0.0000 0.0000 0.0000 37.0585
#
#
#
# Elastic Compliance Matrix: (Units=1/GPa)
#
#
# Indices 1 2 3 4 5 6 
#
# 1 0.021339 -0.014292 -0.003419 0.000000 0.000000 0.000000
# 2 -0.014292 0.021339 -0.003418 0.000000 0.000000 0.000000
# 3 -0.003419 -0.003418 0.041520 0.000000 0.000000 0.000000
# 4 0.000000 0.000000 0.000000 0.044886 0.000000 0.000000
# 5 0.000000 0.000000 0.000000 0.000000 0.044888 0.000000
# 6 0.000000 0.000000 0.000000 0.000000 0.000000 0.026984
#
#
# Mechanical properties :
#
#
# Convention : Reuss Voigt Hill
#
# Bulk Modulus (GPa) = 23.84403 42.82441 33.33422
# Shear Modulus (GPa) = 19.44037 24.32215 21.88126
#
# Velocity S-wave (km/s) = 3.23906 3.62300 3.43640
# Velocity P-wave (km/s) = 5.18235 6.37282 5.80817
#
# Compressibility (1/GPa) = 0.04193921
#
# Stress axis : x y z
#
# Youngs Moduli (GPa) = 46.86155 46.86200 24.08468
#
# Poissons Ratio (x) = 0.66976 0.08235
# Poissons Ratio (y) = 0.66976 0.08233
# Poissons Ratio (z) = 0.16024 0.16018
#
# Static dielectric constant tensor:
#      x y z
#    x 3.391890 0.000000 0.000000 
#    y 0.000000 3.391890 0.000000 
#    z 0.000000 0.000000 3.251990 
# 
# 
# High freq. dielectric constant tensor:
#      x y z
#    x 1.719900 0.000000 0.000000 
#    y 0.000000 1.719900 0.000000 
#    z 0.000000 0.000000 1.698130 
# 
# From -- ./inp_files/5693.got.cif
#   From: 2010.03.12/outbox.cif.g09.slc.cpg/sg129_3_cif.got.tgz:5693.got - 2010.04.06 17:19:44.
