data_PCOD8315348
_publ_section_title
;
Structure prediction by ZEFSAII (Michael W. Deem and Ramdas Pophale) SiO2 
 PCOD8315348
Probable space group: P 4/N M M
;
_chemical_formula_sum "Si O2"
_cell_formula_units_Z 128
_cell_length_a 23.459939
_cell_length_b 23.459939
_cell_length_c 12.754082
_cell_angle_alpha 90.000000
_cell_angle_beta 90.000000
_cell_angle_gamma 90.000000
_cell_volume 7019.448013
_symmetry_space_group_name_H-M "P 4/N M M"
_symmetry_group_IT_number 129
_symmetry_cell_setting 'tetragonal'
loop_
_space_group_symop_operation_xyz
x,y,z
1/2-y,x,z
1/2-x,1/2-y,z
y,1/2-x,z
1/2+x,-y,-z
-x,1/2+y,-z
1/2+y,1/2+x,-z
-y,-x,-z
-x,-y,-z
1/2+y,-x,-z
1/2+x,1/2+y,-z
-y,1/2+x,-z
1/2-x,y,z
x,1/2-y,z
1/2-y,1/2-x,z
y,x,z
loop_
_atom_site_type_symbol
_atom_site_label
_atom_site_fract_x
_atom_site_fract_y
_atom_site_fract_z
Si Si1 0.185329 0.404719 0.733822
Si Si2 0.314320 0.686084 0.295565
Si Si3 0.407347 0.890757 0.383156
Si Si4 0.681908 0.506999 0.439073
Si Si5 0.485667 0.389628 0.346937
Si Si6 0.909392 0.684312 0.032990
Si Si7 0.314347 0.621501 0.086056
Si Si8 0.816349 0.505341 0.849767
O O1 0.250000 0.389570 0.718391
O O2 0.155351 0.344650 0.729134
O O3 0.164611 0.441163 0.635378
O O4 0.174296 0.433362 0.848477
O O5 0.250000 0.683600 0.337622
O O6 0.339082 0.750000 0.309587
O O7 0.347186 0.638997 0.362172
O O8 0.317331 0.669889 0.174105
O O9 0.411772 0.911772 0.500000
O O10 0.455559 0.843086 0.367924
O O11 0.414442 0.950742 0.321122
O O12 0.750000 0.499569 0.454251
O O13 0.651619 0.514013 0.551362
O O14 0.441191 0.441191 0.362628
O O15 0.468213 0.351847 0.246684
O O16 0.890671 0.750000 0.017318
O O17 0.854434 0.645567 0.009188
O O18 0.960181 0.667737 0.954544
O O19 0.250000 0.618267 0.039809
O O20 0.332670 0.560559 0.132118
O O21 0.360227 0.639774 0.000000
O O22 0.750000 0.511152 0.821172
#
# Coordination Sequence:
#
# PCOD8315348 Si02
#       8
#    16  16  16  16  16  16  16  16
#     4   9  18  33  53  79 109 138 174 218 269 330
#     4  10  20  34  53  78 108 141 178 223 275 329
#     4  10  22  36  53  76 105 139 179 224 270 327
#     4  10  21  36  57  81 106 141 181 226 275 327
#     4  11  22  37  58  81 110 147 190 235 279 330
#     4   9  18  33  54  80 109 143 182 228 282 338
#     4  10  20  34  54  78 108 143 181 227 276 328
#     4  10  20  36  57  80 111 150 189 232 280 336
#
# _framework density 18.235053000000001
#
# number of rings (size 3 to 8) (size 9 to 14) (size 15 to 20)
#    0.000    2.125    1.250    1.875    0.000    7.125 
#    0.000    4.375    0.000    0.750    0.000    0.000 
#    0.000    9.000    0.000    0.000    0.000    0.000 
#
# Total GULP energy -1586325.684241 kJ/mol
# GULP energy per Si atom -12393.169408 kJ/mol
# Density = 1.819355 g / cm^3
# Si number density = 18.235053 Si / 1000 Ang^3
#
#
#
# Elastic Constant Matrix: (Units=GPa)
#
#
# Indices 1 2 3 4 5 6 
#
# 1 70.8351 64.3646 34.7121 0.0000 0.0000 0.0000
# 2 64.3646 70.8354 34.7122 0.0000 0.0000 0.0000
# 3 34.7121 34.7122 79.7943 0.0000 0.0000 0.0000
# 4 0.0000 0.0000 0.0000 27.7052 0.0000 0.0000
# 5 0.0000 0.0000 0.0000 0.0000 27.7050 0.0000
# 6 0.0000 0.0000 0.0000 0.0000 0.0000 33.9422
#
#
#
# Elastic Compliance Matrix: (Units=1/GPa)
#
#
# Indices 1 2 3 4 5 6 
#
# 1 0.082034 -0.072510 -0.004143 0.000000 0.000000 0.000000
# 2 -0.072510 0.082034 -0.004143 0.000000 0.000000 0.000000
# 3 -0.004143 -0.004143 0.016137 0.000000 0.000000 0.000000
# 4 0.000000 0.000000 0.000000 0.036094 0.000000 0.000000
# 5 0.000000 0.000000 0.000000 0.000000 0.036095 0.000000
# 6 0.000000 0.000000 0.000000 0.000000 0.000000 0.029462
#
#
# Mechanical properties :
#
#
# Convention : Reuss Voigt Hill
#
# Bulk Modulus (GPa) = 53.72786 54.33809 54.03297
# Shear Modulus (GPa) = 11.11967 23.71553 17.41760
#
# Velocity S-wave (km/s) = 2.47208 3.61022 3.09394
# Velocity P-wave (km/s) = 6.13810 6.87326 6.51605
#
# Compressibility (1/GPa) = 0.01861232
#
# Stress axis : x y z
#
# Youngs Moduli (GPa) = 12.19000 12.19004 61.96981
#
# Poissons Ratio (x) = 0.88390 0.25674
# Poissons Ratio (y) = 0.88390 0.25675
# Poissons Ratio (z) = 0.05050 0.05051
#
# Static dielectric constant tensor:
#      x y z
#    x 3.466130 0.000000 0.000000 
#    y 0.000000 3.466120 0.000000 
#    z 0.000000 0.000000 3.382630 
# 
# 
# High freq. dielectric constant tensor:
#      x y z
#    x 1.704230 0.000000 0.000000 
#    y 0.000000 1.704230 0.000000 
#    z 0.000000 0.000000 1.707710 
# 
# From -- ./inp_files/4213.got.cif
#   From: 2010.03.12/outbox.cif.g09.slc.cpg/sg129_3_cif.got.tgz:4213.got - 2010.04.06 17:19:44.
