data_PCOD8315961
_publ_section_title
;
Structure prediction by ZEFSAII (Michael W. Deem and Ramdas Pophale) SiO2 
 PCOD8315961
Probable space group: P 42/M M C
;
_chemical_formula_sum "Si O2"
_cell_formula_units_Z 104
_cell_length_a 27.603928
_cell_length_b 27.603928
_cell_length_c 8.945559
_cell_angle_alpha 90.000000
_cell_angle_beta 90.000000
_cell_angle_gamma 90.000000
_cell_volume 6816.308788
_symmetry_space_group_name_H-M "P 42/M M C"
_symmetry_group_IT_number 131
_symmetry_cell_setting 'tetragonal'
loop_
_space_group_symop_operation_xyz
x,y,z
-x,-y,z
-y,x,1/2+z
y,-x,1/2+z
-x,y,-z
x,-y,-z
y,x,1/2-z
-y,-x,1/2-z
-x,-y,-z
x,y,-z
y,-x,1/2-z
-y,x,1/2-z
x,-y,z
-x,y,z
-y,-x,1/2+z
y,x,1/2+z
loop_
_atom_site_type_symbol
_atom_site_label
_atom_site_fract_x
_atom_site_fract_y
_atom_site_fract_z
Si Si1 0.195214 0.263204 0.677258
Si Si2 0.105586 0.788393 0.828779
Si Si3 0.105464 0.555004 0.177115
Si Si4 0.000000 0.555386 0.175041
Si Si5 0.055245 0.877142 0.323840
Si Si6 0.858260 0.642560 0.673122
Si Si7 0.055246 0.691178 0.830916
O O1 0.246522 0.246522 0.750000
O O2 0.195730 0.255477 0.500000
O O3 0.153937 0.230480 0.750371
O O4 0.184834 0.319914 0.716526
O O5 0.088440 0.834924 0.740464
O O6 0.062854 0.748797 0.821242
O O7 0.117737 0.801898 0.000000
O O8 0.113780 0.500000 0.235640
O O9 0.146607 0.590955 0.241943
O O10 0.052083 0.576023 0.231901
O O11 0.108665 0.554995 0.000000
O O12 0.000000 0.500000 0.221939
O O13 0.000000 0.561792 0.000000
O O14 0.072529 0.927472 0.250000
O O15 0.061918 0.879954 0.500000
O O16 0.000000 0.867994 0.277779
O O17 0.857093 0.630897 0.500000
O O18 0.909651 0.665962 0.713795
O O19 0.000000 0.678255 0.789083
O O20 0.067062 0.673133 0.000000
#
# Coordination Sequence:
#
# PCOD8315961 Si02
#       7
#    16  16  16   8  16  16  16
#     4  10  20  34  50  68  91 116 141 171 209 252
#     4  10  19  33  53  73  90 108 132 160 193 238
#     4   9  17  30  47  64  84 114 151 185 214 250
#     4   7  12  24  41  59  77 103 141 179 209 237
#     4  11  24  39  54  70  86 104 124 149 184 227
#     4  10  21  32  43  64  90 113 139 175 220 260
#     4   9  18  31  46  63  84 112 141 167 197 239
#
# _framework density 15.257524
#
# number of rings (size 3 to 8) (size 9 to 14) (size 15 to 20)
#    0.000    2.385    0.000    3.692    1.077    5.077 
#    0.000    0.769    0.000    1.385    0.000    0.000 
#    0.000    0.000    0.000    0.000    0.000    0.000 
#
# Total GULP energy -1288849.522154 kJ/mol
# GULP energy per Si atom -12392.783867 kJ/mol
# Density = 1.522280 g / cm^3
# Si number density = 15.257524 Si / 1000 Ang^3
#
#
#
# Elastic Constant Matrix: (Units=GPa)
#
#
# Indices 1 2 3 4 5 6 
#
# 1 68.1672 35.4119 30.4244 0.0000 0.0000 0.0000
# 2 35.4119 68.1652 30.4267 0.0000 0.0000 0.0000
# 3 30.4244 30.4267 58.1507 0.0000 0.0000 0.0000
# 4 0.0000 0.0000 0.0000 20.6030 0.0000 0.0000
# 5 0.0000 0.0000 0.0000 0.0000 20.6032 0.0000
# 6 0.0000 0.0000 0.0000 0.0000 0.0000 18.1482
#
#
#
# Elastic Compliance Matrix: (Units=1/GPa)
#
#
# Indices 1 2 3 4 5 6 
#
# 1 0.022234 -0.008296 -0.007292 0.000000 0.000000 0.000000
# 2 -0.008296 0.022236 -0.007294 0.000000 0.000000 0.000000
# 3 -0.007292 -0.007294 0.024829 0.000000 0.000000 0.000000
# 4 0.000000 0.000000 0.000000 0.048537 0.000000 0.000000
# 5 0.000000 0.000000 0.000000 0.000000 0.048536 0.000000
# 6 0.000000 0.000000 0.000000 0.000000 0.000000 0.055102
#
#
# Mechanical properties :
#
#
# Convention : Reuss Voigt Hill
#
# Bulk Modulus (GPa) = 42.49160 43.00101 42.74630
# Shear Modulus (GPa) = 18.17639 18.41887 18.29763
#
# Velocity S-wave (km/s) = 3.45528 3.47825 3.46678
# Velocity P-wave (km/s) = 6.62032 6.66150 6.64094
#
# Compressibility (1/GPa) = 0.02353406
#
# Stress axis : x y z
#
# Youngs Moduli (GPa) = 44.97636 44.97258 40.27603
#
# Poissons Ratio (x) = 0.37307 0.29370
# Poissons Ratio (y) = 0.37310 0.29379
# Poissons Ratio (z) = 0.32798 0.32805
#
# Static dielectric constant tensor:
#      x y z
#    x 2.944290 0.000000 0.000000 
#    y 0.000000 2.944300 0.000000 
#    z 0.000000 0.000000 2.909190 
# 
# 
# High freq. dielectric constant tensor:
#      x y z
#    x 1.558860 0.000000 0.000000 
#    y 0.000000 1.558860 0.000000 
#    z 0.000000 0.000000 1.586980 
# 
# From -- ./inp_files/2574.got.cif
#   From: 2010.03.12/outbox.cif.g09.slc.cpg/sg131_2_cif.got.tgz:2574.got - 2010.04.06 17:36:35.
