data_PCOD8315312
_publ_section_title
;
Structure prediction by ZEFSAII (Michael W. Deem and Ramdas Pophale) SiO2 
 PCOD8315312
Probable space group: P 4/N M M
;
_chemical_formula_sum "Si O2"
_cell_formula_units_Z 88
_cell_length_a 13.381275
_cell_length_b 13.381275
_cell_length_c 27.976273
_cell_angle_alpha 90.000000
_cell_angle_beta 90.000000
_cell_angle_gamma 90.000000
_cell_volume 5009.390056
_symmetry_space_group_name_H-M "P 4/N M M"
_symmetry_group_IT_number 129
_symmetry_cell_setting 'tetragonal'
loop_
_space_group_symop_operation_xyz
x,y,z
1/2-y,x,z
1/2-x,1/2-y,z
y,1/2-x,z
1/2+x,-y,-z
-x,1/2+y,-z
1/2+y,1/2+x,-z
-y,-x,-z
-x,-y,-z
1/2+y,-x,-z
1/2+x,1/2+y,-z
-y,1/2+x,-z
1/2-x,y,z
x,1/2-y,z
1/2-y,1/2-x,z
y,x,z
loop_
_atom_site_type_symbol
_atom_site_label
_atom_site_fract_x
_atom_site_fract_y
_atom_site_fract_z
Si Si1 0.972516 0.133027 0.403008
Si Si2 0.135783 0.864217 0.500000
Si Si3 0.866104 0.469444 0.318562
Si Si4 0.867082 0.472314 0.765923
Si Si5 0.135023 0.864573 0.137019
Si Si6 0.633788 0.472920 0.040590
O O1 0.990871 0.250000 0.395865
O O2 0.933472 0.106749 0.455670
O O3 0.890815 0.095238 0.365361
O O4 0.077690 0.077690 0.394404
O O5 0.250000 0.881573 0.515533
O O6 0.750000 0.497198 0.318407
O O7 0.891055 0.402775 0.272423
O O8 0.927140 0.572861 0.318058
O O9 0.750000 0.491544 0.759924
O O10 0.895174 0.431933 0.818144
O O11 0.922732 0.577269 0.757234
O O12 0.250000 0.880195 0.123099
O O13 0.113779 0.750000 0.150696
O O14 0.070144 0.898415 0.091872
O O15 0.750000 0.497662 0.038549
O O16 0.575565 0.575565 0.030921
O O17 0.607853 0.392148 0.000000
#
# Coordination Sequence:
#
# PCOD8315312 Si02
#       6
#    16   8  16  16  16  16
#     4  10  20  33  50  73 101 133 168 205 244 287
#     4   9  17  30  50  74  97 125 164 208 251 293
#     4  10  21  36  54  76 100 126 159 200 246 296
#     4  10  20  33  50  73 101 133 168 204 241 282
#     4   9  17  30  50  74  97 124 161 203 244 287
#     4  10  20  33  50  72  98 128 162 201 244 290
#
# _framework density 17.567008999999999
#
# number of rings (size 3 to 8) (size 9 to 14) (size 15 to 20)
#    0.000    2.273    0.000    3.000    0.000    4.545 
#    0.000    0.000    0.000    3.273    0.000    7.636 
#    0.000    0.000    0.000    0.000    0.000    0.000 
#
# Total GULP energy -1091454.714281 kJ/mol
# GULP energy per Si atom -12402.894480 kJ/mol
# Density = 1.752703 g / cm^3
# Si number density = 17.567009 Si / 1000 Ang^3
#
#
#
# Elastic Constant Matrix: (Units=GPa)
#
#
# Indices 1 2 3 4 5 6 
#
# 1 101.2029 47.2618 50.0072 0.0000 0.0000 0.0000
# 2 47.2618 101.2038 50.0071 0.0000 0.0000 0.0000
# 3 50.0072 50.0071 104.4355 0.0000 0.0000 0.0000
# 4 0.0000 0.0000 0.0000 25.3748 0.0000 0.0000
# 5 0.0000 0.0000 0.0000 0.0000 25.3751 0.0000
# 6 0.0000 0.0000 0.0000 0.0000 0.0000 18.5443
#
#
#
# Elastic Compliance Matrix: (Units=1/GPa)
#
#
# Indices 1 2 3 4 5 6 
#
# 1 0.014241 -0.004298 -0.004761 0.000000 0.000000 0.000000
# 2 -0.004298 0.014241 -0.004761 0.000000 0.000000 0.000000
# 3 -0.004761 -0.004761 0.014135 0.000000 0.000000 0.000000
# 4 0.000000 0.000000 0.000000 0.039409 0.000000 0.000000
# 5 0.000000 0.000000 0.000000 0.000000 0.039409 0.000000
# 6 0.000000 0.000000 0.000000 0.000000 0.000000 0.053925
#
#
# Mechanical properties :
#
#
# Convention : Reuss Voigt Hill
#
# Bulk Modulus (GPa) = 66.77114 66.82162 66.79638
# Shear Modulus (GPa) = 24.03954 24.49658 24.26806
#
# Velocity S-wave (km/s) = 3.70327 3.73831 3.72083
# Velocity P-wave (km/s) = 7.50850 7.53352 7.52102
#
# Compressibility (1/GPa) = 0.01497653
#
# Stress axis : x y z
#
# Youngs Moduli (GPa) = 70.22075 70.22163 70.74792
#
# Poissons Ratio (x) = 0.30180 0.33683
# Poissons Ratio (y) = 0.30180 0.33682
# Poissons Ratio (z) = 0.33432 0.33432
#
# Static dielectric constant tensor:
#      x y z
#    x 3.101470 0.000000 0.000000 
#    y 0.000000 3.101460 0.000000 
#    z 0.000000 0.000000 3.416790 
# 
# 
# High freq. dielectric constant tensor:
#      x y z
#    x 1.673730 0.000000 0.000000 
#    y 0.000000 1.673730 0.000000 
#    z 0.000000 0.000000 1.696840 
# 
# From -- ./inp_files/7745.got.cif
#   From: 2010.03.12/outbox.cif.g09.slc.cpg/sg129_4_cif.got.tgz:7745.got - 2010.04.06 17:19:44.
