data_PCOD8315672
_publ_section_title
;
Structure prediction by ZEFSAII (Michael W. Deem and Ramdas Pophale) SiO2 
 PCOD8315672
Probable space group: P 42/M M C
;
_chemical_formula_sum "Si O2"
_cell_formula_units_Z 112
_cell_length_a 18.597411
_cell_length_b 18.597411
_cell_length_c 18.590993
_cell_angle_alpha 90.000000
_cell_angle_beta 90.000000
_cell_angle_gamma 90.000000
_cell_volume 6429.949549
_symmetry_space_group_name_H-M "P 42/M M C"
_symmetry_group_IT_number 131
_symmetry_cell_setting 'tetragonal'
loop_
_space_group_symop_operation_xyz
x,y,z
-x,-y,z
-y,x,1/2+z
y,-x,1/2+z
-x,y,-z
x,-y,-z
y,x,1/2-z
-y,-x,1/2-z
-x,-y,-z
x,y,-z
y,-x,1/2-z
-y,x,1/2-z
x,-y,z
-x,y,z
-y,-x,1/2+z
y,x,1/2+z
loop_
_atom_site_type_symbol
_atom_site_label
_atom_site_fract_x
_atom_site_fract_y
_atom_site_fract_z
Si Si1 0.144300 0.209372 0.418792
Si Si2 0.284676 0.695844 0.579666
Si Si3 0.580235 0.773207 0.362567
Si Si4 0.342481 0.231955 0.777991
Si Si5 0.717266 0.080323 0.790884
Si Si6 0.079501 0.213467 0.856814
Si Si7 0.918918 0.370260 0.916002
O O1 0.115641 0.211008 0.500000
O O2 0.222942 0.244626 0.411176
O O3 0.084983 0.247942 0.369764
O O4 0.151559 0.129047 0.389226
O O5 0.280403 0.659834 0.500000
O O6 0.362525 0.733183 0.586398
O O7 0.268738 0.638687 0.644259
O O8 0.500000 0.746624 0.381749
O O9 0.595413 0.751555 0.279506
O O10 0.583855 0.859493 0.373211
O O11 0.266479 0.266479 0.750000
O O12 0.339534 0.145226 0.783839
O O13 0.776304 0.091563 0.728516
O O14 0.682161 0.000000 0.782815
O O15 0.094502 0.287430 0.898458
O O16 0.000000 0.185792 0.872747
O O17 0.000000 0.393231 0.892261
O O18 0.907995 0.383946 0.000000
#
# Coordination Sequence:
#
# PCOD8315672 Si02
#       7
#    16  16  16  16  16  16  16
#     4  10  18  29  45  65  89 113 146 196 250 292
#     4   9  17  30  48  68  90 122 158 193 234 277
#     4  11  20  29  45  69  99 130 159 194 234 275
#     4   9  17  32  49  66  93 127 163 195 232 284
#     4  10  18  28  46  66  85 113 153 199 239 276
#     4  10  17  27  45  63  81 114 158 193 223 279
#     4  10  19  29  40  59  92 131 165 192 221 268
#
# _framework density 17.418486999999999
#
# number of rings (size 3 to 8) (size 9 to 14) (size 15 to 20)
#    0.000    2.143    2.857    3.000    0.000    2.571 
#    0.000    0.714    0.000    0.857    0.000    5.000 
#    0.000   23.143    0.000   20.000    0.000    0.000 
#
# Total GULP energy -1387830.791173 kJ/mol
# GULP energy per Si atom -12391.346350 kJ/mol
# Density = 1.737884 g / cm^3
# Si number density = 17.418487 Si / 1000 Ang^3
#
#
#
# Elastic Constant Matrix: (Units=GPa)
#
#
# Indices 1 2 3 4 5 6 
#
# 1 47.0845 4.3630 13.4685 0.0000 0.0000 0.0000
# 2 4.3630 47.0845 13.4685 0.0000 0.0000 0.0000
# 3 13.4685 13.4685 119.2036 0.0000 0.0000 0.0000
# 4 0.0000 0.0000 0.0000 14.5491 0.0000 0.0000
# 5 0.0000 0.0000 0.0000 0.0000 14.5491 0.0000
# 6 0.0000 0.0000 0.0000 0.0000 0.0000 -26.2851
#
#
#
# Elastic Compliance Matrix: (Units=1/GPa)
#
#
# Indices 1 2 3 4 5 6 
#
# 1 0.022033 -0.001374 -0.002334 0.000000 0.000000 0.000000
# 2 -0.001374 0.022033 -0.002334 0.000000 0.000000 0.000000
# 3 -0.002334 -0.002334 0.008916 0.000000 0.000000 0.000000
# 4 0.000000 0.000000 0.000000 0.068733 0.000000 0.000000
# 5 0.000000 0.000000 0.000000 0.000000 0.068733 0.000000
# 6 0.000000 0.000000 0.000000 0.000000 0.000000 -0.038044
#
#
# Mechanical properties :
#
#
# Convention : Reuss Voigt Hill
#
# Bulk Modulus (GPa) = 24.45084 30.66362 27.55723
# Shear Modulus (GPa) = 28.07062 12.70079 20.38570
#
# Velocity S-wave (km/s) = 4.01876 2.70322 3.42475
# Velocity P-wave (km/s) = 5.96671 5.23311 5.61191
#
# Compressibility (1/GPa) = 0.04089839
#
# Stress axis : x y z
#
# Youngs Moduli (GPa) = 45.38551 45.38551 112.15167
#
# Poissons Ratio (x) = 0.06236 0.26179
# Poissons Ratio (y) = 0.06236 0.26179
# Poissons Ratio (z) = 0.10594 0.10594
#
# Static dielectric constant tensor:
#      x y z
#    x 2.921680 0.000000 0.000000 
#    y 0.000000 2.921680 0.000000 
#    z 0.000000 0.000000 3.619710 
# 
# 
# High freq. dielectric constant tensor:
#      x y z
#    x 1.628660 0.000000 0.000000 
#    y 0.000000 1.628660 0.000000 
#    z 0.000000 0.000000 1.694120 
# 
# From -- ./inp_files/10029.got.cif
#   From: 2010.03.12/outbox.cif.g09.slc.cpg/sg131_6_cif.got.tgz:10029.got - 2010.04.06 17:36:35.
