data_PCOD8315176
_publ_section_title
;
Structure prediction by ZEFSAII (Michael W. Deem and Ramdas Pophale) SiO2 
 PCOD8315176
Probable space group: P 4/N M M
;
_chemical_formula_sum "Si O2"
_cell_formula_units_Z 80
_cell_length_a 12.568965
_cell_length_b 12.568965
_cell_length_c 29.161140
_cell_angle_alpha 90.000000
_cell_angle_beta 90.000000
_cell_angle_gamma 90.000000
_cell_volume 4606.844271
_symmetry_space_group_name_H-M "P 4/N M M"
_symmetry_group_IT_number 129
_symmetry_cell_setting 'tetragonal'
loop_
_space_group_symop_operation_xyz
x,y,z
1/2-y,x,z
1/2-x,1/2-y,z
y,1/2-x,z
1/2+x,-y,-z
-x,1/2+y,-z
1/2+y,1/2+x,-z
-y,-x,-z
-x,-y,-z
1/2+y,-x,-z
1/2+x,1/2+y,-z
-y,1/2+x,-z
1/2-x,y,z
x,1/2-y,z
1/2-y,1/2-x,z
y,x,z
loop_
_atom_site_type_symbol
_atom_site_label
_atom_site_fract_x
_atom_site_fract_y
_atom_site_fract_z
Si Si1 0.750000 0.376261 0.212861
Si Si2 0.250000 0.624014 0.890168
Si Si3 0.870655 0.461654 0.542558
Si Si4 0.375790 0.551426 0.049343
Si Si5 0.866597 0.375193 0.363725
Si Si6 0.625494 0.457472 0.732864
O O1 0.750000 0.250000 0.212887
O O2 0.750000 0.422396 0.161340
O O3 0.644857 0.415730 0.239092
O O4 0.250000 0.750000 0.890115
O O5 0.358131 0.585738 0.914928
O O6 0.879819 0.379819 0.500000
O O7 0.750000 0.493080 0.551317
O O8 0.921735 0.413613 0.589031
O O9 0.930725 0.569276 0.529091
O O10 0.250000 0.524650 0.054184
O O11 0.443691 0.443691 0.058062
O O12 0.399457 0.600544 0.000000
O O13 0.750000 0.425720 0.355455
O O14 0.853831 0.250000 0.369090
O O15 0.941031 0.401216 0.320648
O O16 0.750000 0.479056 0.741427
O O17 0.560507 0.560507 0.750023
#
# Coordination Sequence:
#
# PCOD8315176 Si02
#       6
#     8   8  16  16  16  16
#     4   9  18  34  52  75 101 135 179 216 253 305
#     4   9  18  32  54  75 101 137 177 220 255 303
#     4  10  20  32  47  70  98 128 163 203 250 303
#     4  10  19  32  52  78 108 141 177 217 261 309
#     4   9  16  29  49  71  95 127 167 207 248 296
#     4  10  19  32  52  77 105 136 173 217 265 314
#
# _framework density 17.365466999999999
#
# number of rings (size 3 to 8) (size 9 to 14) (size 15 to 20)
#    0.000    2.400    2.000    1.200    0.000    2.400 
#    0.000    0.000    0.000    4.200    0.000    7.000 
#    0.000    0.000    0.000    0.000    0.000    0.000 
#
# Total GULP energy -991663.282653 kJ/mol
# GULP energy per Si atom -12395.791033 kJ/mol
# Density = 1.732594 g / cm^3
# Si number density = 17.365467 Si / 1000 Ang^3
#
#
#
# Elastic Constant Matrix: (Units=GPa)
#
#
# Indices 1 2 3 4 5 6 
#
# 1 88.8935 54.3206 34.0093 0.0000 0.0000 0.0000
# 2 54.3206 88.8933 34.0093 0.0000 0.0000 0.0000
# 3 34.0093 34.0093 125.1330 0.0000 0.0000 0.0000
# 4 0.0000 0.0000 0.0000 13.7099 0.0000 0.0000
# 5 0.0000 0.0000 0.0000 0.0000 13.7096 0.0000
# 6 0.0000 0.0000 0.0000 0.0000 0.0000 20.6058
#
#
#
# Elastic Compliance Matrix: (Units=1/GPa)
#
#
# Indices 1 2 3 4 5 6 
#
# 1 0.018471 -0.010453 -0.002179 0.000000 0.000000 0.000000
# 2 -0.010453 0.018471 -0.002179 0.000000 0.000000 0.000000
# 3 -0.002179 -0.002179 0.009176 0.000000 0.000000 0.000000
# 4 0.000000 0.000000 0.000000 0.072940 0.000000 0.000000
# 5 0.000000 0.000000 0.000000 0.000000 0.072941 0.000000
# 6 0.000000 0.000000 0.000000 0.000000 0.000000 0.048530
#
#
# Mechanical properties :
#
#
# Convention : Reuss Voigt Hill
#
# Bulk Modulus (GPa) = 60.62524 60.84424 60.73474
# Shear Modulus (GPa) = 18.13888 21.64376 19.89132
#
# Velocity S-wave (km/s) = 3.23544 3.53422 3.38813
# Velocity P-wave (km/s) = 6.99604 7.19499 7.09621
#
# Compressibility (1/GPa) = 0.01649478
#
# Stress axis : x y z
#
# Youngs Moduli (GPa) = 54.13909 54.13900 108.98048
#
# Poissons Ratio (x) = 0.56594 0.23747
# Poissons Ratio (y) = 0.56594 0.23747
# Poissons Ratio (z) = 0.11797 0.11797
#
# Static dielectric constant tensor:
#      x y z
#    x 3.044950 0.000000 0.000000 
#    y 0.000000 3.044950 0.000000 
#    z 0.000000 0.000000 3.502650 
# 
# 
# High freq. dielectric constant tensor:
#      x y z
#    x 1.650360 0.000000 0.000000 
#    y 0.000000 1.650360 0.000000 
#    z 0.000000 0.000000 1.681070 
# 
# From -- ./inp_files/7725.got.cif
#   From: 2010.03.12/outbox.cif.g09.slc.cpg/sg129_4_cif.got.tgz:7725.got - 2010.04.06 17:19:44.
