data_PCOD8315581
_publ_section_title
;
Structure prediction by ZEFSAII (Michael W. Deem and Ramdas Pophale) SiO2 
 PCOD8315581
Probable space group: P 4/N C C
;
_chemical_formula_sum "Si O2"
_cell_formula_units_Z 60
_cell_length_a 17.865479
_cell_length_b 17.865479
_cell_length_c 8.100955
_cell_angle_alpha 90.000000
_cell_angle_beta 90.000000
_cell_angle_gamma 90.000000
_cell_volume 2585.625066
_symmetry_space_group_name_H-M "P 4/N C C"
_symmetry_group_IT_number 130
_symmetry_cell_setting 'tetragonal'
loop_
_space_group_symop_operation_xyz
x,y,z
1/2-y,x,z
1/2-x,1/2-y,z
y,1/2-x,z
1/2+x,-y,1/2-z
-x,1/2+y,1/2-z
1/2+y,1/2+x,1/2-z
-y,-x,1/2-z
-x,-y,-z
1/2+y,-x,-z
1/2+x,1/2+y,-z
-y,1/2+x,-z
1/2-x,y,1/2+z
x,1/2-y,1/2+z
1/2-y,1/2-x,1/2+z
y,x,1/2+z
loop_
_atom_site_type_symbol
_atom_site_label
_atom_site_fract_x
_atom_site_fract_y
_atom_site_fract_z
Si Si1 0.390955 0.833306 0.910451
Si Si2 0.055990 0.209271 0.596052
Si Si3 0.581947 0.081947 0.750000
Si Si4 0.640268 0.581502 0.250911
Si Si5 0.750000 0.250000 0.000000
O O1 0.387673 0.887673 0.750000
O O2 0.466201 0.784856 0.896295
O O3 0.388789 0.876500 0.085287
O O4 0.322154 0.775255 0.894128
O O5 0.085362 0.177685 0.425935
O O6 0.087441 0.292508 0.617446
O O7 0.085032 0.151941 0.735465
O O8 0.493807 0.092944 0.724085
#
# Coordination Sequence:
#
# PCOD8315581 Si02
#       5
#    16  16   8  16   4
#     4  11  27  42  71  99 150 191 243 297 360 440
#     4  11  26  45  73 103 143 190 245 309 369 439
#     4  10  26  45  70 106 144 189 244 294 364 442
#     4  11  25  46  72 105 144 188 245 308 370 444
#     4  12  26  44  66 110 144 198 238 292 362 434
#
# _framework density 23.205220000000001
#
# number of rings (size 3 to 8) (size 9 to 14) (size 15 to 20)
#    0.000    1.067    0.000    3.600   20.533    2.667 
#    0.000    2.667    0.000    0.000    0.000    0.000 
#    0.000    0.000    0.000    0.000    0.000    0.000 
#
# Total GULP energy -744038.034692 kJ/mol
# GULP energy per Si atom -12400.633912 kJ/mol
# Density = 2.315240 g / cm^3
# Si number density = 23.205220 Si / 1000 Ang^3
#
#
#
# Elastic Constant Matrix: (Units=GPa)
#
#
# Indices 1 2 3 4 5 6 
#
# 1 94.8160 75.3714 31.2653 0.0000 0.0000 0.0000
# 2 75.3714 94.8160 31.2653 0.0000 0.0000 0.0000
# 3 31.2653 31.2653 107.3659 0.0000 0.0000 0.0000
# 4 0.0000 0.0000 0.0000 24.6688 0.0000 0.0000
# 5 0.0000 0.0000 0.0000 0.0000 24.6688 0.0000
# 6 0.0000 0.0000 0.0000 0.0000 0.0000 39.6200
#
#
#
# Elastic Compliance Matrix: (Units=1/GPa)
#
#
# Indices 1 2 3 4 5 6 
#
# 1 0.029004 -0.022424 -0.001916 0.000000 0.000000 0.000000
# 2 -0.022424 0.029004 -0.001916 0.000000 0.000000 0.000000
# 3 -0.001916 -0.001916 0.010430 0.000000 0.000000 0.000000
# 4 0.000000 0.000000 0.000000 0.040537 0.000000 0.000000
# 5 0.000000 0.000000 0.000000 0.000000 0.040537 0.000000
# 6 0.000000 0.000000 0.000000 0.000000 0.000000 0.025240
#
#
# Mechanical properties :
#
#
# Convention : Reuss Voigt Hill
#
# Bulk Modulus (GPa) = 62.79310 63.64467 63.21888
# Shear Modulus (GPa) = 21.49865 28.39793 24.94829
#
# Velocity S-wave (km/s) = 3.04708 3.50204 3.28245
# Velocity P-wave (km/s) = 6.28476 6.62109 6.45512
#
# Compressibility (1/GPa) = 0.01592532
#
# Stress axis : x y z
#
# Youngs Moduli (GPa) = 34.47797 34.47797 95.87836
#
# Poissons Ratio (x) = 0.77314 0.18371
# Poissons Ratio (y) = 0.77314 0.18371
# Poissons Ratio (z) = 0.06606 0.06606
#
# Static dielectric constant tensor:
#      x y z
#    x 4.290160 0.000000 0.000000 
#    y 0.000000 4.290160 0.000000 
#    z 0.000000 0.000000 4.269770 
# 
# 
# High freq. dielectric constant tensor:
#      x y z
#    x 1.919150 0.000000 0.000000 
#    y 0.000000 1.919150 0.000000 
#    z 0.000000 0.000000 1.930630 
# 
# From -- ./inp_files/636.got.cif
#   From: 2010.03.12/outbox.cif.g09.slc.cpg/sg130_1_cif.got.tgz:636.got - 2010.04.06 17:30:23.
