data_PCOD8315052
_publ_section_title
;
Structure prediction by ZEFSAII (Michael W. Deem and Ramdas Pophale) SiO2 
 PCOD8315052
Probable space group: P 4/N M M
;
_chemical_formula_sum "Si O2"
_cell_formula_units_Z 104
_cell_length_a 18.551029
_cell_length_b 18.551029
_cell_length_c 17.932415
_cell_angle_alpha 90.000000
_cell_angle_beta 90.000000
_cell_angle_gamma 90.000000
_cell_volume 6171.273438
_symmetry_space_group_name_H-M "P 4/N M M"
_symmetry_group_IT_number 129
_symmetry_cell_setting 'tetragonal'
loop_
_space_group_symop_operation_xyz
x,y,z
1/2-y,x,z
1/2-x,1/2-y,z
y,1/2-x,z
1/2+x,-y,-z
-x,1/2+y,-z
1/2+y,1/2+x,-z
-y,-x,-z
-x,-y,-z
1/2+y,-x,-z
1/2+x,1/2+y,-z
-y,1/2+x,-z
1/2-x,y,z
x,1/2-y,z
1/2-y,1/2-x,z
y,x,z
loop_
_atom_site_type_symbol
_atom_site_label
_atom_site_fract_x
_atom_site_fract_y
_atom_site_fract_z
Si Si1 0.096578 0.519256 0.135373
Si Si2 0.666354 0.949844 0.725310
Si Si3 0.672031 0.559127 0.165985
Si Si4 0.666640 0.333361 0.500000
Si Si5 0.947205 0.666784 0.996890
Si Si6 0.830758 0.092750 0.210925
Si Si7 0.166077 0.598299 0.346888
O O1 0.147939 0.475072 0.191303
O O2 0.105424 0.604508 0.151712
O O3 0.014318 0.485683 0.142481
O O4 0.126761 0.507543 0.052390
O O5 0.750000 0.928215 0.720675
O O6 0.619234 0.880767 0.701478
O O7 0.647118 0.015012 0.668736
O O8 0.750000 0.597298 0.163725
O O9 0.615983 0.615983 0.197119
O O10 0.654098 0.530083 0.082704
O O11 0.672127 0.492996 0.223050
O O12 0.750000 0.346769 0.479894
O O13 0.618054 0.358210 0.430320
O O14 0.942080 0.750000 0.974819
O O15 0.868997 0.631004 0.982003
O O16 0.750000 0.118911 0.183586
O O17 0.848097 0.127003 0.290077
O O18 0.250000 0.613204 0.335266
#
# Coordination Sequence:
#
# PCOD8315052 Si02
#       7
#    16  16  16   8  16  16  16
#     4   9  17  29  45  63  86 118 151 186 231 273
#     4   9  17  29  45  66  92 122 154 186 222 266
#     4   9  18  31  47  68  91 115 147 187 229 271
#     4   9  16  28  49  74  96 118 145 178 218 265
#     4   9  17  29  45  65  88 114 146 186 231 274
#     4  10  19  30  45  65  89 118 151 183 214 258
#     4   9  18  32  49  70  96 121 145 179 224 269
#
# _framework density 16.852274999999999
#
# number of rings (size 3 to 8) (size 9 to 14) (size 15 to 20)
#    0.000    2.846    0.000    1.385    0.000    3.231 
#    0.000    4.231    0.000    3.692    0.000    2.154 
#    0.000    0.000    0.000    8.000    0.000    0.154 
#
# Total GULP energy -1288881.893844 kJ/mol
# GULP energy per Si atom -12393.095133 kJ/mol
# Density = 1.681392 g / cm^3
# Si number density = 16.852275 Si / 1000 Ang^3
#
#
#
# Elastic Constant Matrix: (Units=GPa)
#
#
# Indices 1 2 3 4 5 6 
#
# 1 97.8449 49.6686 33.7059 0.0000 0.0000 0.0000
# 2 49.6686 97.8444 33.7059 0.0000 0.0000 0.0000
# 3 33.7059 33.7059 48.4054 0.0000 0.0000 0.0000
# 4 0.0000 0.0000 0.0000 20.9889 0.0000 0.0000
# 5 0.0000 0.0000 0.0000 0.0000 20.9890 0.0000
# 6 0.0000 0.0000 0.0000 0.0000 0.0000 23.3321
#
#
#
# Elastic Compliance Matrix: (Units=1/GPa)
#
#
# Indices 1 2 3 4 5 6 
#
# 1 0.015350 -0.005407 -0.006924 0.000000 0.000000 0.000000
# 2 -0.005407 0.015350 -0.006924 0.000000 0.000000 0.000000
# 3 -0.006924 -0.006924 0.030301 0.000000 0.000000 0.000000
# 4 0.000000 0.000000 0.000000 0.047644 0.000000 0.000000
# 5 0.000000 0.000000 0.000000 0.000000 0.047644 0.000000
# 6 0.000000 0.000000 0.000000 0.000000 0.000000 0.042859
#
#
# Mechanical properties :
#
#
# Convention : Reuss Voigt Hill
#
# Bulk Modulus (GPa) = 44.45880 53.13948 48.79914
# Shear Modulus (GPa) = 20.39526 21.52962 20.96244
#
# Velocity S-wave (km/s) = 3.48262 3.57816 3.53071
# Velocity P-wave (km/s) = 6.52766 6.97653 6.75582
#
# Compressibility (1/GPa) = 0.02249274
#
# Stress axis : x y z
#
# Youngs Moduli (GPa) = 65.14624 65.14583 33.00219
#
# Poissons Ratio (x) = 0.35225 0.22849
# Poissons Ratio (y) = 0.35225 0.22849
# Poissons Ratio (z) = 0.45104 0.45105
#
# Static dielectric constant tensor:
#      x y z
#    x 3.214190 0.000000 0.000000 
#    y 0.000000 3.214190 0.000000 
#    z 0.000000 0.000000 3.005310 
# 
# 
# High freq. dielectric constant tensor:
#      x y z
#    x 1.649250 0.000000 0.000000 
#    y 0.000000 1.649250 0.000000 
#    z 0.000000 0.000000 1.621140 
# 
# From -- ./inp_files/5812.got.cif
#   From: 2010.03.12/outbox.cif.g09.slc.cpg/sg129_3_cif.got.tgz:5812.got - 2010.04.06 17:19:44.
