data_PCOD8315258
_publ_section_title
;
Structure prediction by ZEFSAII (Michael W. Deem and Ramdas Pophale) SiO2 
 PCOD8315258
Probable space group: P 4/N M M
;
_chemical_formula_sum "Si O2"
_cell_formula_units_Z 128
_cell_length_a 18.256225
_cell_length_b 18.256225
_cell_length_c 23.099146
_cell_angle_alpha 90.000000
_cell_angle_beta 90.000000
_cell_angle_gamma 90.000000
_cell_volume 7698.708624
_symmetry_space_group_name_H-M "P 4/N M M"
_symmetry_group_IT_number 129
_symmetry_cell_setting 'tetragonal'
loop_
_space_group_symop_operation_xyz
x,y,z
1/2-y,x,z
1/2-x,1/2-y,z
y,1/2-x,z
1/2+x,-y,-z
-x,1/2+y,-z
1/2+y,1/2+x,-z
-y,-x,-z
-x,-y,-z
1/2+y,-x,-z
1/2+x,1/2+y,-z
-y,1/2+x,-z
1/2-x,y,z
x,1/2-y,z
1/2-y,1/2-x,z
y,x,z
loop_
_atom_site_type_symbol
_atom_site_label
_atom_site_fract_x
_atom_site_fract_y
_atom_site_fract_z
Si Si1 0.046271 0.333411 0.032764
Si Si2 0.665495 0.547088 0.184918
Si Si3 0.927190 0.333485 0.540847
Si Si4 0.434785 0.834397 0.870864
Si Si5 0.333548 0.951956 0.926059
Si Si6 0.333378 0.049060 0.448386
Si Si7 0.072591 0.545835 0.366634
Si Si8 0.437511 0.942494 0.235606
O O1 0.068535 0.250000 0.017894
O O2 0.118898 0.381103 0.028657
O O3 0.012976 0.339335 0.097101
O O4 0.985169 0.361072 0.986920
O O5 0.750000 0.557772 0.202464
O O6 0.625433 0.625433 0.189322
O O7 0.655853 0.516546 0.120369
O O8 0.629043 0.488415 0.228267
O O9 0.862097 0.362097 0.500000
O O10 0.910185 0.250000 0.556619
O O11 0.932731 0.377104 0.600683
O O12 0.003466 0.342713 0.507227
O O13 0.408787 0.750000 0.865730
O O14 0.377197 0.879159 0.909424
O O15 0.441974 0.868378 0.807142
O O16 0.250000 0.926475 0.930330
O O17 0.250000 0.067581 0.434486
O O18 0.374918 0.125083 0.457060
O O19 0.364555 0.004128 0.394220
O O20 0.094311 0.559253 0.300274
O O21 0.994067 0.505934 0.371417
O O22 0.484731 0.015270 0.222959
#
# Coordination Sequence:
#
# PCOD8315258 Si02
#       8
#    16  16  16  16  16  16  16  16
#     4  10  20  33  50  72  95 120 151 186 228 279
#     4   9  17  29  45  66  92 121 153 190 232 278
#     4   9  17  29  46  68  94 122 151 186 228 273
#     4  10  20  32  48  70  93 120 155 192 231 276
#     4   9  18  32  48  67  92 120 151 188 230 276
#     4   9  17  29  46  69  95 122 152 187 229 276
#     4   9  17  30  48  68  90 120 159 197 231 269
#     4   9  18  32  48  66  91 123 157 195 236 273
#
# _framework density 16.626163999999999
#
# number of rings (size 3 to 8) (size 9 to 14) (size 15 to 20)
#    0.000    2.750    0.000    1.500    0.000    5.250 
#    0.000    0.000    0.000    4.500    0.000    3.500 
#    0.000    6.000    0.000    0.000    0.000    0.125 
#
# Total GULP energy -1587261.218432 kJ/mol
# GULP energy per Si atom -12400.478269 kJ/mol
# Density = 1.658832 g / cm^3
# Si number density = 16.626164 Si / 1000 Ang^3
#
#
#
# Elastic Constant Matrix: (Units=GPa)
#
#
# Indices 1 2 3 4 5 6 
#
# 1 117.0146 61.1804 49.3185 0.0000 0.0000 0.0000
# 2 61.1804 117.0146 49.3185 0.0000 0.0000 0.0000
# 3 49.3185 49.3185 100.9020 0.0000 0.0000 0.0000
# 4 0.0000 0.0000 0.0000 18.8152 0.0000 0.0000
# 5 0.0000 0.0000 0.0000 0.0000 18.8152 0.0000
# 6 0.0000 0.0000 0.0000 0.0000 0.0000 21.1093
#
#
#
# Elastic Compliance Matrix: (Units=1/GPa)
#
#
# Indices 1 2 3 4 5 6 
#
# 1 0.012802 -0.005108 -0.003760 0.000000 0.000000 0.000000
# 2 -0.005108 0.012802 -0.003760 0.000000 0.000000 0.000000
# 3 -0.003760 -0.003760 0.013587 0.000000 0.000000 0.000000
# 4 0.000000 0.000000 0.000000 0.053149 0.000000 0.000000
# 5 0.000000 0.000000 0.000000 0.000000 0.053149 0.000000
# 6 0.000000 0.000000 0.000000 0.000000 0.000000 0.047372
#
#
# Mechanical properties :
#
#
# Convention : Reuss Voigt Hill
#
# Bulk Modulus (GPa) = 71.77784 72.72957 72.25370
# Shear Modulus (GPa) = 22.44553 23.42218 22.93385
#
# Velocity S-wave (km/s) = 3.67824 3.75741 3.71803
# Velocity P-wave (km/s) = 7.82972 7.91601 7.87298
#
# Compressibility (1/GPa) = 0.01393188
#
# Stress axis : x y z
#
# Youngs Moduli (GPa) = 78.11446 78.11446 73.60244
#
# Poissons Ratio (x) = 0.39904 0.27677
# Poissons Ratio (y) = 0.39904 0.27677
# Poissons Ratio (z) = 0.29373 0.29373
#
# Static dielectric constant tensor:
#      x y z
#    x 3.065660 0.000000 0.000000 
#    y 0.000000 3.065660 0.000000 
#    z 0.000000 0.000000 3.107530 
# 
# 
# High freq. dielectric constant tensor:
#      x y z
#    x 1.635000 0.000000 0.000000 
#    y 0.000000 1.635000 0.000000 
#    z 0.000000 0.000000 1.636910 
# 
# From -- ./inp_files/7249.got.cif
#   From: 2010.03.12/outbox.cif.g09.slc.cpg/sg129_4_cif.got.tgz:7249.got - 2010.04.06 17:19:44.
