data_PCOD8315636
_publ_section_title
;
Structure prediction by ZEFSAII (Michael W. Deem and Ramdas Pophale) SiO2 
 PCOD8315636
Probable space group: P 42/M M C
;
_chemical_formula_sum "Si O2"
_cell_formula_units_Z 112
_cell_length_a 21.076485
_cell_length_b 21.076485
_cell_length_c 15.581911
_cell_angle_alpha 90.000000
_cell_angle_beta 90.000000
_cell_angle_gamma 90.000000
_cell_volume 6921.768768
_symmetry_space_group_name_H-M "P 42/M M C"
_symmetry_group_IT_number 131
_symmetry_cell_setting 'tetragonal'
loop_
_space_group_symop_operation_xyz
x,y,z
-x,-y,z
-y,x,1/2+z
y,-x,1/2+z
-x,y,-z
x,-y,-z
y,x,1/2-z
-y,-x,1/2-z
-x,-y,-z
x,y,-z
y,-x,1/2-z
-y,x,1/2-z
x,-y,z
-x,y,z
-y,-x,1/2+z
y,x,1/2+z
loop_
_atom_site_type_symbol
_atom_site_label
_atom_site_fract_x
_atom_site_fract_y
_atom_site_fract_z
Si Si1 0.875369 0.253694 0.905561
Si Si2 0.762889 0.428550 0.403507
Si Si3 0.684128 0.305147 0.850706
Si Si4 0.764303 0.811215 0.159462
Si Si5 0.428423 0.139025 0.755031
Si Si6 0.071176 0.298675 0.737842
Si Si7 0.380688 0.205153 0.594507
O O1 0.830107 0.191067 0.895327
O O2 0.926561 0.261432 0.829602
O O3 0.830153 0.314095 0.895264
O O4 0.908045 0.251309 0.000000
O O5 0.789148 0.418495 0.500000
O O6 0.740459 0.500000 0.388545
O O7 0.699434 0.387399 0.385883
O O8 0.818285 0.410963 0.336641
O O9 0.684661 0.315339 0.750000
O O10 0.712469 0.236402 0.880344
O O11 0.720462 0.364312 0.893919
O O12 0.781098 0.781098 0.250000
O O13 0.735473 0.881816 0.169773
O O14 0.500000 0.110074 0.763458
O O15 0.373913 0.085420 0.750442
O O16 0.428134 0.180826 0.667773
O O17 0.000000 0.292049 0.702015
O O18 0.410784 0.193760 0.500000
#
# Coordination Sequence:
#
# PCOD8315636 Si02
#       7
#    16  16  16  16  16  16  16
#     4   8  15  27  45  66  86 110 140 181 234 284
#     4  10  19  29  43  62  85 116 151 186 224 265
#     4  10  14  26  45  65  88 110 138 183 239 284
#     4   8  14  26  42  62  85 110 139 177 229 272
#     4  10  19  32  44  59  90 127 161 195 221 251
#     4  10  18  29  44  64  91 122 157 190 217 257
#     4   9  16  26  44  68  86 108 143 185 235 286
#
# _framework density 16.180835999999999
#
# number of rings (size 3 to 8) (size 9 to 14) (size 15 to 20)
#    0.000    2.714    2.857    2.143    0.000    1.429 
#    0.000    0.000    0.000    1.714    0.000    6.000 
#    0.000   25.143    0.000   19.429    0.000    0.000 
#
# Total GULP energy -1387526.153575 kJ/mol
# GULP energy per Si atom -12388.626371 kJ/mol
# Density = 1.614401 g / cm^3
# Si number density = 16.180836 Si / 1000 Ang^3
#
#
#
# Elastic Constant Matrix: (Units=GPa)
#
#
# Indices 1 2 3 4 5 6 
#
# 1 55.8005 28.9844 6.8253 0.0000 0.0000 0.0000
# 2 28.9844 55.8007 6.8256 0.0000 0.0000 0.0000
# 3 6.8253 6.8256 69.3840 0.0000 0.0000 0.0000
# 4 0.0000 0.0000 0.0000 13.6081 0.0000 0.0000
# 5 0.0000 0.0000 0.0000 0.0000 13.6081 0.0000
# 6 0.0000 0.0000 0.0000 0.0000 0.0000 12.3352
#
#
#
# Elastic Compliance Matrix: (Units=1/GPa)
#
#
# Indices 1 2 3 4 5 6 
#
# 1 0.024638 -0.012653 -0.001179 0.000000 0.000000 0.000000
# 2 -0.012653 0.024638 -0.001179 0.000000 0.000000 0.000000
# 3 -0.001179 -0.001179 0.014644 0.000000 0.000000 0.000000
# 4 0.000000 0.000000 0.000000 0.073486 0.000000 0.000000
# 5 0.000000 0.000000 0.000000 0.000000 0.073486 0.000000
# 6 0.000000 0.000000 0.000000 0.000000 0.000000 0.081069
#
#
# Mechanical properties :
#
#
# Convention : Reuss Voigt Hill
#
# Bulk Modulus (GPa) = 29.50072 29.58399 29.54236
# Shear Modulus (GPa) = 15.00231 17.13358 16.06795
#
# Velocity S-wave (km/s) = 3.04824 3.25758 3.15465
# Velocity P-wave (km/s) = 5.53719 5.69843 5.61839
#
# Compressibility (1/GPa) = 0.03389748
#
# Stress axis : x y z
#
# Youngs Moduli (GPa) = 40.58830 40.58836 68.28507
#
# Poissons Ratio (x) = 0.51358 0.08050
# Poissons Ratio (y) = 0.51357 0.08051
# Poissons Ratio (z) = 0.04785 0.04785
#
# Static dielectric constant tensor:
#      x y z
#    x 2.834780 0.000000 0.000000 
#    y 0.000000 2.834780 0.000000 
#    z 0.000000 0.000000 3.286950 
# 
# 
# High freq. dielectric constant tensor:
#      x y z
#    x 1.586590 0.000000 0.000000 
#    y 0.000000 1.586590 0.000000 
#    z 0.000000 0.000000 1.628810 
# 
# From -- ./inp_files/8372.got.cif
#   From: 2010.03.12/outbox.cif.g09.slc.cpg/sg131_5_cif.got.tgz:8372.got - 2010.04.06 17:36:35.
