data_PCOD8315191
_publ_section_title
;
Structure prediction by ZEFSAII (Michael W. Deem and Ramdas Pophale) SiO2 
 PCOD8315191
Probable space group: P 4/N M M
;
_chemical_formula_sum "Si O2"
_cell_formula_units_Z 128
_cell_length_a 23.320605
_cell_length_b 23.320605
_cell_length_c 12.978144
_cell_angle_alpha 90.000000
_cell_angle_beta 90.000000
_cell_angle_gamma 90.000000
_cell_volume 7058.171629
_symmetry_space_group_name_H-M "P 4/N M M"
_symmetry_group_IT_number 129
_symmetry_cell_setting 'tetragonal'
loop_
_space_group_symop_operation_xyz
x,y,z
1/2-y,x,z
1/2-x,1/2-y,z
y,1/2-x,z
1/2+x,-y,-z
-x,1/2+y,-z
1/2+y,1/2+x,-z
-y,-x,-z
-x,-y,-z
1/2+y,-x,-z
1/2+x,1/2+y,-z
-y,1/2+x,-z
1/2-x,y,z
x,1/2-y,z
1/2-y,1/2-x,z
y,x,z
loop_
_atom_site_type_symbol
_atom_site_label
_atom_site_fract_x
_atom_site_fract_y
_atom_site_fract_z
Si Si1 0.612756 0.105851 0.743553
Si Si2 0.093582 0.184802 0.407339
Si Si3 0.186287 0.686193 0.379116
Si Si4 0.871339 0.187329 0.078525
Si Si5 0.992041 0.817187 0.768928
Si Si6 0.684768 0.002338 0.998678
Si Si7 0.090258 0.316469 0.638301
Si Si8 0.518612 0.614292 0.201721
O O1 0.633921 0.142887 0.646330
O O2 0.638821 0.141107 0.838348
O O3 0.642455 0.044550 0.740882
O O4 0.544578 0.099311 0.756088
O O5 0.108927 0.250000 0.388747
O O6 0.153461 0.153461 0.399392
O O7 0.066058 0.175057 0.521335
O O8 0.054020 0.162685 0.314747
O O9 0.188954 0.688954 0.500000
O O10 0.250000 0.666502 0.338676
O O11 0.172670 0.750000 0.335297
O O12 0.872139 0.250000 0.129458
O O13 0.930414 0.175198 0.018670
O O14 0.818549 0.181452 0.000000
O O15 0.008647 0.750000 0.755767
O O16 0.971548 0.827899 0.887580
O O17 0.750000 0.989193 0.033900
O O18 0.641441 0.980839 0.087081
O O19 0.102013 0.250000 0.662182
O O20 0.150224 0.349777 0.652632
O O21 0.043676 0.340116 0.717846
O O22 0.556154 0.556154 0.199240
#
# Coordination Sequence:
#
# PCOD8315191 Si02
#       8
#    16  16  16  16  16  16  16  16
#     4  11  21  35  53  73 104 141 180 216 265 313
#     4   9  18  34  56  82 109 134 167 211 264 325
#     4   9  19  35  54  79 108 137 177 225 265 313
#     4  10  19  33  51  74 104 135 171 217 264 311
#     4   9  19  34  54  77 103 140 180 220 259 304
#     4   9  18  35  55  73 101 139 179 219 264 315
#     4   9  19  36  57  81 108 135 166 212 265 322
#     4  11  23  36  52  77 107 139 181 227 268 313
#
# _framework density 18.135007999999999
#
# number of rings (size 3 to 8) (size 9 to 14) (size 15 to 20)
#    0.000    2.375    1.250    2.625    0.000    3.875 
#    0.000    8.125    0.000    2.625    0.000    0.000 
#    0.000    3.000    0.000    0.000    0.000    0.000 
#
# Total GULP energy -1585870.490298 kJ/mol
# GULP energy per Si atom -12389.613205 kJ/mol
# Density = 1.809373 g / cm^3
# Si number density = 18.135008 Si / 1000 Ang^3
#
#
#
# Elastic Constant Matrix: (Units=GPa)
#
#
# Indices 1 2 3 4 5 6 
#
# 1 84.5823 41.4924 45.7884 0.0000 0.0000 0.0000
# 2 41.4924 84.5815 45.7882 0.0000 0.0000 0.0000
# 3 45.7884 45.7882 99.5081 0.0000 0.0000 0.0000
# 4 0.0000 0.0000 0.0000 27.6713 0.0000 0.0000
# 5 0.0000 0.0000 0.0000 0.0000 27.6713 0.0000
# 6 0.0000 0.0000 0.0000 0.0000 0.0000 22.2019
#
#
#
# Elastic Compliance Matrix: (Units=1/GPa)
#
#
# Indices 1 2 3 4 5 6 
#
# 1 0.017561 -0.005647 -0.005482 0.000000 0.000000 0.000000
# 2 -0.005647 0.017561 -0.005482 0.000000 0.000000 0.000000
# 3 -0.005482 -0.005482 0.015095 0.000000 0.000000 0.000000
# 4 0.000000 0.000000 0.000000 0.036139 0.000000 0.000000
# 5 0.000000 0.000000 0.000000 0.000000 0.036138 0.000000
# 6 0.000000 0.000000 0.000000 0.000000 0.000000 0.045041
#
#
# Mechanical properties :
#
#
# Convention : Reuss Voigt Hill
#
# Bulk Modulus (GPa) = 58.84484 59.42333 59.13408
# Shear Modulus (GPa) = 24.22235 24.54910 24.38573
#
# Velocity S-wave (km/s) = 3.65864 3.68324 3.67096
# Velocity P-wave (km/s) = 7.09692 7.13629 7.11663
#
# Compressibility (1/GPa) = 0.01699384
#
# Stress axis : x y z
#
# Youngs Moduli (GPa) = 56.94556 56.94507 66.24886
#
# Poissons Ratio (x) = 0.32156 0.36318
# Poissons Ratio (y) = 0.32156 0.36319
# Poissons Ratio (z) = 0.31218 0.31218
#
# Static dielectric constant tensor:
#      x y z
#    x 3.293380 0.000000 0.000000 
#    y 0.000000 3.293380 0.000000 
#    z 0.000000 0.000000 3.620460 
# 
# 
# High freq. dielectric constant tensor:
#      x y z
#    x 1.690810 0.000000 0.000000 
#    y 0.000000 1.690810 0.000000 
#    z 0.000000 0.000000 1.713410 
# 
# From -- ./inp_files/4225.got.cif
#   From: 2010.03.12/outbox.cif.g09.slc.cpg/sg129_3_cif.got.tgz:4225.got - 2010.04.06 17:19:44.
