data_PCOD8315459
_publ_section_title
;
Structure prediction by ZEFSAII (Michael W. Deem and Ramdas Pophale) SiO2 
 PCOD8315459
Probable space group: P 4/N M M
;
_chemical_formula_sum "Si O2"
_cell_formula_units_Z 96
_cell_length_a 18.012878
_cell_length_b 18.012878
_cell_length_c 18.434895
_cell_angle_alpha 90.000000
_cell_angle_beta 90.000000
_cell_angle_gamma 90.000000
_cell_volume 5981.455602
_symmetry_space_group_name_H-M "P 4/N M M"
_symmetry_group_IT_number 129
_symmetry_cell_setting 'tetragonal'
loop_
_space_group_symop_operation_xyz
x,y,z
1/2-y,x,z
1/2-x,1/2-y,z
y,1/2-x,z
1/2+x,-y,-z
-x,1/2+y,-z
1/2+y,1/2+x,-z
-y,-x,-z
-x,-y,-z
1/2+y,-x,-z
1/2+x,1/2+y,-z
-y,1/2+x,-z
1/2-x,y,z
x,1/2-y,z
1/2-y,1/2-x,z
y,x,z
loop_
_atom_site_type_symbol
_atom_site_label
_atom_site_fract_x
_atom_site_fract_y
_atom_site_fract_z
Si Si1 0.062421 0.562165 0.164479
Si Si2 0.453804 0.165371 0.417712
Si Si3 0.544218 0.835227 0.914951
Si Si4 0.063337 0.834524 0.455584
Si Si5 0.057139 0.935414 0.672079
Si Si6 0.335217 0.044363 0.914976
O O1 0.135337 0.530191 0.124543
O O2 0.083465 0.583626 0.246755
O O3 0.001508 0.498492 0.162166
O O4 0.029537 0.634699 0.124858
O O5 0.439432 0.250000 0.397281
O O6 0.375135 0.124866 0.417026
O O7 0.488685 0.155639 0.497502
O O8 0.508251 0.132671 0.356900
O O9 0.558775 0.750000 0.892111
O O10 0.616808 0.883193 0.892429
O O11 0.529294 0.842359 0.000033
O O12 0.131267 0.868734 0.500000
O O13 0.083513 0.750000 0.441289
O O14 0.051653 0.871481 0.377716
O O15 0.011004 0.011004 0.669841
O O16 0.250000 0.058456 0.891885
O O17 0.382879 0.117122 0.892542
#
# Coordination Sequence:
#
# PCOD8315459 Si02
#       6
#    16  16  16  16  16  16
#     4   9  17  29  45  65  89 117 150 185 219 259
#     4   9  17  29  45  65  89 116 145 177 214 257
#     4   9  17  29  46  67  91 119 149 183 223 265
#     4   9  17  29  45  64  85 110 140 175 215 257
#     4   9  17  29  45  64  86 113 145 180 215 252
#     4   9  17  29  46  68  92 118 148 182 221 265
#
# _framework density 16.049605
#
# number of rings (size 3 to 8) (size 9 to 14) (size 15 to 20)
#    0.000    3.000    0.000    1.000    0.000    6.000 
#    0.000    1.667    0.000    0.500    0.000    9.333 
#    0.000    4.000    0.000    0.000    0.000    0.000 
#
# Total GULP energy -1190306.288419 kJ/mol
# GULP energy per Si atom -12399.023838 kJ/mol
# Density = 1.601307 g / cm^3
# Si number density = 16.049605 Si / 1000 Ang^3
#
#
#
# Elastic Constant Matrix: (Units=GPa)
#
#
# Indices 1 2 3 4 5 6 
#
# 1 97.0614 49.7669 45.2933 0.0000 0.0000 0.0000
# 2 49.7669 97.0611 45.2930 0.0000 0.0000 0.0000
# 3 45.2933 45.2930 86.8582 0.0000 0.0000 0.0000
# 4 0.0000 0.0000 0.0000 16.8132 0.0000 0.0000
# 5 0.0000 0.0000 0.0000 0.0000 16.8133 0.0000
# 6 0.0000 0.0000 0.0000 0.0000 0.0000 17.4869
#
#
#
# Elastic Compliance Matrix: (Units=1/GPa)
#
#
# Indices 1 2 3 4 5 6 
#
# 1 0.015593 -0.005552 -0.005236 0.000000 0.000000 0.000000
# 2 -0.005552 0.015593 -0.005236 0.000000 0.000000 0.000000
# 3 -0.005236 -0.005236 0.016974 0.000000 0.000000 0.000000
# 4 0.000000 0.000000 0.000000 0.059477 0.000000 0.000000
# 5 0.000000 0.000000 0.000000 0.000000 0.059477 0.000000
# 6 0.000000 0.000000 0.000000 0.000000 0.000000 0.057186
#
#
# Mechanical properties :
#
#
# Convention : Reuss Voigt Hill
#
# Bulk Modulus (GPa) = 62.06621 62.40967 62.23794
# Shear Modulus (GPa) = 19.10466 19.59785 19.35125
#
# Velocity S-wave (km/s) = 3.45389 3.49819 3.47611
# Velocity P-wave (km/s) = 7.39332 7.43548 7.41443
#
# Compressibility (1/GPa) = 0.01611183
#
# Stress axis : x y z
#
# Youngs Moduli (GPa) = 64.13289 64.13287 58.91445
#
# Poissons Ratio (x) = 0.35604 0.30848
# Poissons Ratio (y) = 0.35604 0.30847
# Poissons Ratio (z) = 0.33580 0.33580
#
# Static dielectric constant tensor:
#      x y z
#    x 2.996990 0.000000 0.000000 
#    y 0.000000 2.996990 0.000000 
#    z 0.000000 0.000000 3.122700 
# 
# 
# High freq. dielectric constant tensor:
#      x y z
#    x 1.605670 0.000000 0.000000 
#    y 0.000000 1.605670 0.000000 
#    z 0.000000 0.000000 1.616010 
# 
# From -- ./inp_files/5646.got.cif
#   From: 2010.03.12/outbox.cif.g09.slc.cpg/sg129_3_cif.got.tgz:5646.got - 2010.04.06 17:19:44.
