data_PCOD8315107
_publ_section_title
;
Structure prediction by ZEFSAII (Michael W. Deem and Ramdas Pophale) SiO2 
 PCOD8315107
Probable space group: P 4/N M M
;
_chemical_formula_sum "Si O2"
_cell_formula_units_Z 96
_cell_length_a 17.839476
_cell_length_b 17.839476
_cell_length_c 17.832384
_cell_angle_alpha 90.000000
_cell_angle_beta 90.000000
_cell_angle_gamma 90.000000
_cell_volume 5675.100998
_symmetry_space_group_name_H-M "P 4/N M M"
_symmetry_group_IT_number 129
_symmetry_cell_setting 'tetragonal'
loop_
_space_group_symop_operation_xyz
x,y,z
1/2-y,x,z
1/2-x,1/2-y,z
y,1/2-x,z
1/2+x,-y,-z
-x,1/2+y,-z
1/2+y,1/2+x,-z
-y,-x,-z
-x,-y,-z
1/2+y,-x,-z
1/2+x,1/2+y,-z
-y,1/2+x,-z
1/2-x,y,z
x,1/2-y,z
1/2-y,1/2-x,z
y,x,z
loop_
_atom_site_type_symbol
_atom_site_label
_atom_site_fract_x
_atom_site_fract_y
_atom_site_fract_z
Si Si1 0.835777 0.052193 0.030594
Si Si2 0.834732 0.410212 0.561115
Si Si3 0.048405 0.926383 0.177274
Si Si4 0.539493 0.662964 0.883510
Si Si5 0.044120 0.335152 0.541983
Si Si6 0.163733 0.563276 0.674766
O O1 0.750000 0.068206 0.052452
O O2 0.882681 0.025591 0.102185
O O3 0.870063 0.129938 0.000000
O O4 0.842022 0.985834 0.969908
O O5 0.843371 0.343371 0.500000
O O6 0.750000 0.421388 0.584335
O O7 0.865981 0.484432 0.518985
O O8 0.876657 0.391748 0.637611
O O9 0.054163 0.863866 0.240988
O O10 0.125243 0.974102 0.167219
O O11 0.982079 0.982079 0.199167
O O12 0.550554 0.750000 0.859020
O O13 0.617687 0.617687 0.874055
O O14 0.063901 0.250000 0.523479
O O15 0.119980 0.380021 0.533906
O O16 0.012799 0.342754 0.626633
O O17 0.250000 0.591372 0.675141
#
# Coordination Sequence:
#
# PCOD8315107 Si02
#       6
#    16  16  16  16  16  16
#     4   9  17  30  48  69  94 123 155 190 229 277
#     4   9  18  31  47  67  91 120 153 188 228 275
#     4  10  19  31  48  68  93 126 158 189 227 271
#     4   9  18  32  49  69  91 117 153 194 235 278
#     4   9  18  32  49  70  95 123 157 194 231 272
#     4  10  20  31  46  71  98 123 153 188 227 273
#
# _framework density 16.915997999999998
#
# number of rings (size 3 to 8) (size 9 to 14) (size 15 to 20)
#    0.000    2.667    0.000    3.000    0.000    8.000 
#    0.000    0.000    0.000    3.000    0.000    0.000 
#    0.000   14.667    0.000    0.000    0.000    0.000 
#
# Total GULP energy -1189997.643806 kJ/mol
# GULP energy per Si atom -12395.808790 kJ/mol
# Density = 1.687750 g / cm^3
# Si number density = 16.915998 Si / 1000 Ang^3
#
#
#
# Elastic Constant Matrix: (Units=GPa)
#
#
# Indices 1 2 3 4 5 6 
#
# 1 90.8719 48.4948 30.0649 0.0000 0.0000 0.0000
# 2 48.4948 90.8717 30.0650 0.0000 0.0000 0.0000
# 3 30.0649 30.0650 77.6307 0.0000 0.0000 0.0000
# 4 0.0000 0.0000 0.0000 20.2476 0.0000 0.0000
# 5 0.0000 0.0000 0.0000 0.0000 20.2478 0.0000
# 6 0.0000 0.0000 0.0000 0.0000 0.0000 23.0679
#
#
#
# Elastic Compliance Matrix: (Units=1/GPa)
#
#
# Indices 1 2 3 4 5 6 
#
# 1 0.016106 -0.007491 -0.003336 0.000000 0.000000 0.000000
# 2 -0.007491 0.016106 -0.003336 0.000000 0.000000 0.000000
# 3 -0.003336 -0.003336 0.015466 0.000000 0.000000 0.000000
# 4 0.000000 0.000000 0.000000 0.049389 0.000000 0.000000
# 5 0.000000 0.000000 0.000000 0.000000 0.049388 0.000000
# 6 0.000000 0.000000 0.000000 0.000000 0.000000 0.043350
#
#
# Mechanical properties :
#
#
# Convention : Reuss Voigt Hill
#
# Bulk Modulus (GPa) = 51.67985 52.95818 52.31902
# Shear Modulus (GPa) = 22.26343 22.76262 22.51302
#
# Velocity S-wave (km/s) = 3.63177 3.67226 3.65207
# Velocity P-wave (km/s) = 6.94288 7.02532 6.98422
#
# Compressibility (1/GPa) = 0.01934990
#
# Stress axis : x y z
#
# Youngs Moduli (GPa) = 62.08781 62.08758 64.65909
#
# Poissons Ratio (x) = 0.46513 0.21572
# Poissons Ratio (y) = 0.46513 0.21573
# Poissons Ratio (z) = 0.20715 0.20715
#
# Static dielectric constant tensor:
#      x y z
#    x 3.108520 0.000000 0.000000 
#    y 0.000000 3.108520 0.000000 
#    z 0.000000 0.000000 3.067100 
# 
# 
# High freq. dielectric constant tensor:
#      x y z
#    x 1.645980 0.000000 0.000000 
#    y 0.000000 1.645980 0.000000 
#    z 0.000000 0.000000 1.644440 
# 
# From -- ./inp_files/5659.got.cif
#   From: 2010.03.12/outbox.cif.g09.slc.cpg/sg129_3_cif.got.tgz:5659.got - 2010.04.06 17:19:44.
