data_PCOD8315014
_publ_section_title
;
Structure prediction by ZEFSAII (Michael W. Deem and Ramdas Pophale) SiO2 
 PCOD8315014
Probable space group: P 4/N M M
;
_chemical_formula_sum "Si O2"
_cell_formula_units_Z 64
_cell_length_a 13.794796
_cell_length_b 13.794796
_cell_length_c 20.484369
_cell_angle_alpha 90.000000
_cell_angle_beta 90.000000
_cell_angle_gamma 90.000000
_cell_volume 3898.101609
_symmetry_space_group_name_H-M "P 4/N M M"
_symmetry_group_IT_number 129
_symmetry_cell_setting 'tetragonal'
loop_
_space_group_symop_operation_xyz
x,y,z
1/2-y,x,z
1/2-x,1/2-y,z
y,1/2-x,z
1/2+x,-y,-z
-x,1/2+y,-z
1/2+y,1/2+x,-z
-y,-x,-z
-x,-y,-z
1/2+y,-x,-z
1/2+x,1/2+y,-z
-y,1/2+x,-z
1/2-x,y,z
x,1/2-y,z
1/2-y,1/2-x,z
y,x,z
loop_
_atom_site_type_symbol
_atom_site_label
_atom_site_fract_x
_atom_site_fract_y
_atom_site_fract_z
Si Si1 0.482651 0.636372 0.808135
Si Si2 0.977594 0.364088 0.553108
Si Si3 0.357629 0.865423 0.928385
Si Si4 0.638226 0.140049 0.318221
O O1 0.500411 0.750000 0.813012
O O2 0.587117 0.587117 0.803845
O O3 0.427409 0.595294 0.871789
O O4 0.421780 0.607560 0.744581
O O5 0.900524 0.400524 0.500000
O O6 0.996853 0.250000 0.543136
O O7 0.932076 0.387279 0.623320
O O8 0.079512 0.420489 0.546065
O O9 0.250000 0.908278 0.916510
O O10 0.352051 0.750000 0.925749
O O11 0.397129 0.897129 0.000000
O O12 0.750000 0.132816 0.298418
O O13 0.612149 0.250000 0.339368
#
# Coordination Sequence:
#
# PCOD8315014 Si02
#       4
#    16  16  16  16
#     4  10  19  29  42  61  87 118 148 177 211 255
#     4  10  20  33  50  72  97 124 154 188 226 269
#     4   8  14  26  44  64  84 105 134 178 227 265
#     4   9  17  30  49  70  89 111 144 187 230 267
#
# _framework density 16.418248999999999
#
# number of rings (size 3 to 8) (size 9 to 14) (size 15 to 20)
#    0.000    2.750    0.000    3.000    0.000    5.250 
#    0.000    0.000    0.000    0.000    0.000    3.500 
#    0.000    4.500    0.000    1.000    0.000    0.000 
#
# Total GULP energy -793461.255345 kJ/mol
# GULP energy per Si atom -12397.832115 kJ/mol
# Density = 1.638088 g / cm^3
# Si number density = 16.418249 Si / 1000 Ang^3
#
#
#
# Elastic Constant Matrix: (Units=GPa)
#
#
# Indices 1 2 3 4 5 6 
#
# 1 73.5105 47.9591 53.9901 0.0000 0.0000 0.0000
# 2 47.9591 73.5105 53.9901 0.0000 0.0000 0.0000
# 3 53.9901 53.9901 124.4224 0.0000 0.0000 0.0000
# 4 0.0000 0.0000 0.0000 13.3102 0.0000 0.0000
# 5 0.0000 0.0000 0.0000 0.0000 13.3102 0.0000
# 6 0.0000 0.0000 0.0000 0.0000 0.0000 22.8367
#
#
#
# Elastic Compliance Matrix: (Units=1/GPa)
#
#
# Indices 1 2 3 4 5 6 
#
# 1 0.026270 -0.012867 -0.005816 0.000000 0.000000 0.000000
# 2 -0.012867 0.026270 -0.005816 0.000000 0.000000 0.000000
# 3 -0.005816 -0.005816 0.013084 0.000000 0.000000 0.000000
# 4 0.000000 0.000000 0.000000 0.075130 0.000000 0.000000
# 5 0.000000 0.000000 0.000000 0.000000 0.075130 0.000000
# 6 0.000000 0.000000 0.000000 0.000000 0.000000 0.043789
#
#
# Mechanical properties :
#
#
# Convention : Reuss Voigt Hill
#
# Bulk Modulus (GPa) = 60.14535 64.81354 62.47944
# Shear Modulus (GPa) = 15.91280 17.59168 16.75224
#
# Velocity S-wave (km/s) = 3.11660 3.27688 3.19775
# Velocity P-wave (km/s) = 7.04725 7.34027 7.19525
#
# Compressibility (1/GPa) = 0.01662639
#
# Stress axis : x y z
#
# Youngs Moduli (GPa) = 38.06684 38.06684 76.42796
#
# Poissons Ratio (x) = 0.48982 0.44447
# Poissons Ratio (y) = 0.48982 0.44447
# Poissons Ratio (z) = 0.22138 0.22138
#
# Static dielectric constant tensor:
#      x y z
#    x 2.894440 0.000000 0.000000 
#    y 0.000000 2.894440 0.000000 
#    z 0.000000 0.000000 3.351150 
# 
# 
# High freq. dielectric constant tensor:
#      x y z
#    x 1.612060 0.000000 0.000000 
#    y 0.000000 1.612060 0.000000 
#    z 0.000000 0.000000 1.650340 
# 
# From -- ./inp_files/5365.got.cif
#   From: 2010.03.12/outbox.cif.g09.slc.cpg/sg129_3_cif.got.tgz:5365.got - 2010.04.06 17:19:44.
