data_PCOD8315845
_publ_section_title
;
Structure prediction by ZEFSAII (Michael W. Deem and Ramdas Pophale) SiO2 
 PCOD8315845
Probable space group: P 42/M M C
;
_chemical_formula_sum "Si O2"
_cell_formula_units_Z 104
_cell_length_a 26.468372
_cell_length_b 26.468372
_cell_length_c 9.024646
_cell_angle_alpha 90.000000
_cell_angle_beta 90.000000
_cell_angle_gamma 90.000000
_cell_volume 6322.438811
_symmetry_space_group_name_H-M "P 42/M M C"
_symmetry_group_IT_number 131
_symmetry_cell_setting 'tetragonal'
loop_
_space_group_symop_operation_xyz
x,y,z
-x,-y,z
-y,x,1/2+z
y,-x,1/2+z
-x,y,-z
x,-y,-z
y,x,1/2-z
-y,-x,1/2-z
-x,-y,-z
x,y,-z
y,-x,1/2-z
-y,x,1/2-z
x,-y,z
-x,y,z
-y,-x,1/2+z
y,x,1/2+z
loop_
_atom_site_type_symbol
_atom_site_label
_atom_site_fract_x
_atom_site_fract_y
_atom_site_fract_z
Si Si1 0.689449 0.160216 0.169072
Si Si2 0.556741 0.761588 0.328323
Si Si3 0.138543 0.211647 0.173723
Si Si4 0.863650 0.578563 0.328490
Si Si5 0.271410 0.346722 0.325196
Si Si6 0.057306 0.869467 0.174133
Si Si7 0.944671 0.500000 0.674486
O O1 0.731018 0.133865 0.272020
O O2 0.638361 0.128244 0.192752
O O3 0.679533 0.218210 0.215816
O O4 0.708082 0.157625 0.000000
O O5 0.572383 0.760860 0.500000
O O6 0.500000 0.740005 0.305955
O O7 0.557839 0.818843 0.271810
O O8 0.596172 0.727387 0.236950
O O9 0.187393 0.187393 0.250000
O O10 0.088127 0.180935 0.219077
O O11 0.147460 0.210639 0.000000
O O12 0.850018 0.566712 0.500000
O O13 0.914515 0.550323 0.277192
O O14 0.316273 0.316273 0.250000
O O15 0.279698 0.348724 0.500000
O O16 0.081447 0.918554 0.250000
O O17 0.000000 0.862757 0.230345
O O18 0.059438 0.878590 0.000000
O O19 0.951494 0.500000 0.500000
O O20 0.000000 0.500000 0.750973
#
# Coordination Sequence:
#
# PCOD8315845 Si02
#       7
#    16  16  16  16  16  16   8
#     4   9  18  30  45  68  94 122 155 193 233 277
#     4  10  19  30  47  70  95 125 162 202 241 285
#     4  10  19  31  49  69  91 122 153 184 222 271
#     4   9  17  30  48  67  90 120 158 200 243 291
#     4  10  20  32  47  69  99 131 161 197 241 287
#     4   9  19  35  52  71  94 118 147 182 222 272
#     4   9  16  28  49  71  89 115 155 203 250 293
#
# _framework density 16.449348000000001
#
# number of rings (size 3 to 8) (size 9 to 14) (size 15 to 20)
#    0.000    2.538    0.769    2.769    0.000    6.308 
#    0.000    1.538    0.000    1.846    0.000    0.000 
#    0.000    0.308    0.000    3.231    0.000    1.385 
#
# Total GULP energy -1289563.809892 kJ/mol
# GULP energy per Si atom -12399.652018 kJ/mol
# Density = 1.641191 g / cm^3
# Si number density = 16.449348 Si / 1000 Ang^3
#
#
#
# Elastic Constant Matrix: (Units=GPa)
#
#
# Indices 1 2 3 4 5 6 
#
# 1 115.9285 61.5444 41.9959 0.0000 0.0000 0.0000
# 2 61.5444 115.9267 41.9958 0.0000 0.0000 0.0000
# 3 41.9959 41.9958 66.2620 0.0000 0.0000 0.0000
# 4 0.0000 0.0000 0.0000 22.9080 0.0000 0.0000
# 5 0.0000 0.0000 0.0000 0.0000 22.9083 0.0000
# 6 0.0000 0.0000 0.0000 0.0000 0.0000 20.1789
#
#
#
# Elastic Compliance Matrix: (Units=1/GPa)
#
#
# Indices 1 2 3 4 5 6 
#
# 1 0.013218 -0.005170 -0.005101 0.000000 0.000000 0.000000
# 2 -0.005170 0.013219 -0.005101 0.000000 0.000000 0.000000
# 3 -0.005101 -0.005101 0.021558 0.000000 0.000000 0.000000
# 4 0.000000 0.000000 0.000000 0.043653 0.000000 0.000000
# 5 0.000000 0.000000 0.000000 0.000000 0.043652 0.000000
# 6 0.000000 0.000000 0.000000 0.000000 0.000000 0.049557
#
#
# Mechanical properties :
#
#
# Convention : Reuss Voigt Hill
#
# Bulk Modulus (GPa) = 57.96912 65.46548 61.71730
# Shear Modulus (GPa) = 22.58850 23.37109 22.97980
#
# Velocity S-wave (km/s) = 3.70971 3.77343 3.74171
# Velocity P-wave (km/s) = 7.32576 7.67265 7.50121
#
# Compressibility (1/GPa) = 0.01725056
#
# Stress axis : x y z
#
# Youngs Moduli (GPa) = 75.65222 75.65077 46.38674
#
# Poissons Ratio (x) = 0.39108 0.23663
# Poissons Ratio (y) = 0.39109 0.23664
# Poissons Ratio (z) = 0.38592 0.38592
#
# Static dielectric constant tensor:
#      x y z
#    x 3.121960 0.000000 0.000000 
#    y 0.000000 3.121970 0.000000 
#    z 0.000000 0.000000 3.070590 
# 
# 
# High freq. dielectric constant tensor:
#      x y z
#    x 1.621370 0.000000 0.000000 
#    y 0.000000 1.621370 0.000000 
#    z 0.000000 0.000000 1.633470 
# 
# From -- ./inp_files/2545.got.cif
#   From: 2010.03.12/outbox.cif.g09.slc.cpg/sg131_2_cif.got.tgz:2545.got - 2010.04.06 17:36:35.
