data_PCOD8315692
_publ_section_title
;
Structure prediction by ZEFSAII (Michael W. Deem and Ramdas Pophale) SiO2 
 PCOD8315692
Probable space group: P 42/M M C
;
_chemical_formula_sum "Si O2"
_cell_formula_units_Z 96
_cell_length_a 24.901981
_cell_length_b 24.901981
_cell_length_c 9.180141
_cell_angle_alpha 90.000000
_cell_angle_beta 90.000000
_cell_angle_gamma 90.000000
_cell_volume 5692.684913
_symmetry_space_group_name_H-M "P 42/M M C"
_symmetry_group_IT_number 131
_symmetry_cell_setting 'tetragonal'
loop_
_space_group_symop_operation_xyz
x,y,z
-x,-y,z
-y,x,1/2+z
y,-x,1/2+z
-x,y,-z
x,-y,-z
y,x,1/2-z
-y,-x,1/2-z
-x,-y,-z
x,y,-z
y,-x,1/2-z
-y,x,1/2-z
x,-y,z
-x,y,z
-y,-x,1/2+z
y,x,1/2+z
loop_
_atom_site_type_symbol
_atom_site_label
_atom_site_fract_x
_atom_site_fract_y
_atom_site_fract_z
Si Si1 0.271067 0.441300 0.336855
Si Si2 0.138247 0.063216 0.829181
Si Si3 0.727634 0.342506 0.160657
Si Si4 0.145458 0.339641 0.161311
Si Si5 0.139815 0.218714 0.176353
Si Si6 0.440961 0.143375 0.836539
O O1 0.292351 0.431818 0.500000
O O2 0.289028 0.500000 0.280078
O O3 0.296537 0.396335 0.233186
O O4 0.207121 0.437305 0.336058
O O5 0.084297 0.084297 0.750000
O O6 0.188358 0.088532 0.742779
O O7 0.141027 0.000000 0.811293
O O8 0.138892 0.080112 0.000000
O O9 0.709674 0.290326 0.250000
O O10 0.791029 0.345129 0.157160
O O11 0.703360 0.337943 0.000000
O O12 0.132449 0.280698 0.225836
O O13 0.119538 0.389592 0.249769
O O14 0.121130 0.344070 0.000000
O O15 0.193389 0.193389 0.250000
O O16 0.143330 0.213642 0.000000
O O17 0.500000 0.126242 0.771889
O O18 0.436435 0.121093 0.000000
#
# Coordination Sequence:
#
# PCOD8315692 Si02
#       6
#    16  16  16  16  16  16
#     4   8  14  25  38  50  67  93 125 161 202 246
#     4  10  21  36  54  76 100 126 157 192 231 274
#     4  10  18  26  36  52  76 103 133 167 201 240
#     4   9  18  28  39  59  85 116 151 184 219 260
#     4  10  19  31  47  67  93 124 158 192 229 274
#     4   8  14  24  38  56  78 108 146 184 221 261
#
# _framework density 16.863748000000001
#
# number of rings (size 3 to 8) (size 9 to 14) (size 15 to 20)
#    0.000    2.833    0.000    4.000    0.000    4.167 
#    0.000    4.167    0.000    0.000    0.000    0.000 
#    0.000    1.000    0.000   10.833    0.000    7.500 
#
# Total GULP energy -1189385.801797 kJ/mol
# GULP energy per Si atom -12389.435435 kJ/mol
# Density = 1.682536 g / cm^3
# Si number density = 16.863748 Si / 1000 Ang^3
#
#
#
# Elastic Constant Matrix: (Units=GPa)
#
#
# Indices 1 2 3 4 5 6 
#
# 1 85.6085 18.6827 37.4447 0.0000 0.0000 0.0000
# 2 18.6827 85.6091 37.4448 0.0000 0.0000 0.0000
# 3 37.4447 37.4448 99.5169 0.0000 0.0000 0.0000
# 4 0.0000 0.0000 0.0000 22.7930 0.0000 0.0000
# 5 0.0000 0.0000 0.0000 0.0000 22.7928 0.0000
# 6 0.0000 0.0000 0.0000 0.0000 0.0000 8.0103
#
#
#
# Elastic Compliance Matrix: (Units=1/GPa)
#
#
# Indices 1 2 3 4 5 6 
#
# 1 0.014040 -0.000902 -0.004943 0.000000 0.000000 0.000000
# 2 -0.000902 0.014040 -0.004943 0.000000 0.000000 0.000000
# 3 -0.004943 -0.004943 0.013769 0.000000 0.000000 0.000000
# 4 0.000000 0.000000 0.000000 0.043873 0.000000 0.000000
# 5 0.000000 0.000000 0.000000 0.000000 0.043874 0.000000
# 6 0.000000 0.000000 0.000000 0.000000 0.000000 0.124839
#
#
# Mechanical properties :
#
#
# Convention : Reuss Voigt Hill
#
# Bulk Modulus (GPa) = 49.33073 50.87544 50.10308
# Shear Modulus (GPa) = 17.68225 22.53003 20.10614
#
# Velocity S-wave (km/s) = 3.24162 3.65910 3.45667
# Velocity P-wave (km/s) = 6.58231 6.93441 6.76066
#
# Compressibility (1/GPa) = 0.02027134
#
# Stress axis : x y z
#
# Youngs Moduli (GPa) = 71.22440 71.22484 72.62863
#
# Poissons Ratio (x) = 0.06423 0.35904
# Poissons Ratio (y) = 0.06423 0.35904
# Poissons Ratio (z) = 0.35210 0.35210
#
# Static dielectric constant tensor:
#      x y z
#    x 3.050580 0.000000 0.000000 
#    y 0.000000 3.050580 0.000000 
#    z 0.000000 0.000000 3.508010 
# 
# 
# High freq. dielectric constant tensor:
#      x y z
#    x 1.622470 0.000000 0.000000 
#    y 0.000000 1.622470 0.000000 
#    z 0.000000 0.000000 1.658690 
# 
# From -- ./inp_files/2432.got.cif
#   From: 2010.03.12/outbox.cif.g09.slc.cpg/sg131_2_cif.got.tgz:2432.got - 2010.04.06 17:36:35.
