data_PCOD8315056
_publ_section_title
;
Structure prediction by ZEFSAII (Michael W. Deem and Ramdas Pophale) SiO2 
 PCOD8315056
Probable space group: P 4/N M M
;
_chemical_formula_sum "Si O2"
_cell_formula_units_Z 112
_cell_length_a 13.878773
_cell_length_b 13.878773
_cell_length_c 36.228584
_cell_angle_alpha 90.000000
_cell_angle_beta 90.000000
_cell_angle_gamma 90.000000
_cell_volume 6978.362167
_symmetry_space_group_name_H-M "P 4/N M M"
_symmetry_group_IT_number 129
_symmetry_cell_setting 'tetragonal'
loop_
_space_group_symop_operation_xyz
x,y,z
1/2-y,x,z
1/2-x,1/2-y,z
y,1/2-x,z
1/2+x,-y,-z
-x,1/2+y,-z
1/2+y,1/2+x,-z
-y,-x,-z
-x,-y,-z
1/2+y,-x,-z
1/2+x,1/2+y,-z
-y,1/2+x,-z
1/2-x,y,z
x,1/2-y,z
1/2-y,1/2-x,z
y,x,z
loop_
_atom_site_type_symbol
_atom_site_label
_atom_site_fract_x
_atom_site_fract_y
_atom_site_fract_z
Si Si1 0.865105 0.356564 0.540202
Si Si2 0.360486 0.515762 0.312693
Si Si3 0.357916 0.863516 0.102998
Si Si4 0.637435 0.359185 0.243796
Si Si5 0.479823 0.863948 0.173051
Si Si6 0.986503 0.139170 0.394533
Si Si7 0.475897 0.865395 0.030916
O O1 0.897713 0.397713 0.500000
O O2 0.750000 0.352847 0.541199
O O3 0.907670 0.250000 0.545813
O O4 0.906831 0.419003 0.573933
O O5 0.250000 0.487962 0.307003
O O6 0.417663 0.417663 0.307068
O O7 0.395011 0.592048 0.282215
O O8 0.376994 0.560080 0.353805
O O9 0.250000 0.909294 0.099973
O O10 0.346458 0.750000 0.103482
O O11 0.408914 0.898199 0.140462
O O12 0.425495 0.894619 0.069197
O O13 0.750000 0.365381 0.249713
O O14 0.606110 0.250000 0.233976
O O15 0.604602 0.428690 0.210918
O O16 0.500981 0.750000 0.171063
O O17 0.581579 0.918422 0.169682
O O18 0.004799 0.250000 0.403010
O O19 0.090178 0.090178 0.396368
O O20 0.493817 0.750000 0.027391
O O21 0.578379 0.921622 0.027856
O O22 0.401209 0.901209 0.000000
#
# Coordination Sequence:
#
# PCOD8315056 Si02
#       7
#    16  16  16  16  16  16  16
#     4   8  14  25  40  57  77 100 127 162 202 240
#     4   9  17  28  41  58  81 107 135 167 201 241
#     4   9  17  30  48  68  90 117 150 188 227 266
#     4   9  17  29  45  64  84 107 137 174 216 255
#     4  10  19  30  45  65  90 119 148 179 217 261
#     4   9  17  27  39  57  80 106 134 162 195 238
#     4  10  20  33  50  73 100 130 164 201 242 287
#
# _framework density 16.049610000000001
#
# number of rings (size 3 to 8) (size 9 to 14) (size 15 to 20)
#    0.000    2.857    0.000    2.143    0.000    3.857 
#    0.000    4.286    0.000    2.571    0.000    0.000 
#    0.000   12.000    0.000    3.143    0.000    5.429 
#
# Total GULP energy -1388123.269677 kJ/mol
# GULP energy per Si atom -12393.957765 kJ/mol
# Density = 1.601308 g / cm^3
# Si number density = 16.049610 Si / 1000 Ang^3
#
#
#
# Elastic Constant Matrix: (Units=GPa)
#
#
# Indices 1 2 3 4 5 6 
#
# 1 63.2588 36.8532 46.5074 0.0000 0.0000 0.0000
# 2 36.8532 63.2588 46.5074 0.0000 0.0000 0.0000
# 3 46.5074 46.5074 137.6375 0.0000 0.0000 0.0000
# 4 0.0000 0.0000 0.0000 21.9300 0.0000 0.0000
# 5 0.0000 0.0000 0.0000 0.0000 21.9300 0.0000
# 6 0.0000 0.0000 0.0000 0.0000 0.0000 19.9910
#
#
#
# Elastic Compliance Matrix: (Units=1/GPa)
#
#
# Indices 1 2 3 4 5 6 
#
# 1 0.026215 -0.011656 -0.004920 0.000000 0.000000 0.000000
# 2 -0.011656 0.026215 -0.004920 0.000000 0.000000 0.000000
# 3 -0.004920 -0.004920 0.010590 0.000000 0.000000 0.000000
# 4 0.000000 0.000000 0.000000 0.045600 0.000000 0.000000
# 5 0.000000 0.000000 0.000000 0.000000 0.045600 0.000000
# 6 0.000000 0.000000 0.000000 0.000000 0.000000 0.050023
#
#
# Mechanical properties :
#
#
# Convention : Reuss Voigt Hill
#
# Bulk Modulus (GPa) = 49.92302 58.21012 54.06657
# Shear Modulus (GPa) = 19.69208 21.72268 20.70738
#
# Velocity S-wave (km/s) = 3.50659 3.68295 3.59585
# Velocity P-wave (km/s) = 6.89694 7.37788 7.14146
#
# Compressibility (1/GPa) = 0.02003084
#
# Stress axis : x y z
#
# Youngs Moduli (GPa) = 38.14575 38.14575 94.42716
#
# Poissons Ratio (x) = 0.44461 0.46455
# Poissons Ratio (y) = 0.44461 0.46455
# Poissons Ratio (z) = 0.18767 0.18767
#
# Static dielectric constant tensor:
#      x y z
#    x 2.897740 0.000000 0.000000 
#    y 0.000000 2.897740 0.000000 
#    z 0.000000 0.000000 3.425970 
# 
# 
# High freq. dielectric constant tensor:
#      x y z
#    x 1.594930 0.000000 0.000000 
#    y 0.000000 1.594930 0.000000 
#    z 0.000000 0.000000 1.638460 
# 
# From -- ./inp_files/7913.got.cif
#   From: 2010.03.12/outbox.cif.g09.slc.cpg/sg129_4_cif.got.tgz:7913.got - 2010.04.06 17:19:44.
