data_PCOD8315548
_publ_section_title
;
Structure prediction by ZEFSAII (Michael W. Deem and Ramdas Pophale) SiO2 
 PCOD8315548
Probable space group: P 4/N C C
;
_chemical_formula_sum "Si O2"
_cell_formula_units_Z 112
_cell_length_a 21.805171
_cell_length_b 21.805171
_cell_length_c 12.402111
_cell_angle_alpha 90.000000
_cell_angle_beta 90.000000
_cell_angle_gamma 90.000000
_cell_volume 5896.775689
_symmetry_space_group_name_H-M "P 4/N C C"
_symmetry_group_IT_number 130
_symmetry_cell_setting 'tetragonal'
loop_
_space_group_symop_operation_xyz
x,y,z
1/2-y,x,z
1/2-x,1/2-y,z
y,1/2-x,z
1/2+x,-y,1/2-z
-x,1/2+y,1/2-z
1/2+y,1/2+x,1/2-z
-y,-x,1/2-z
-x,-y,-z
1/2+y,-x,-z
1/2+x,1/2+y,-z
-y,1/2+x,-z
1/2-x,y,1/2+z
x,1/2-y,1/2+z
1/2-y,1/2-x,1/2+z
y,x,1/2+z
loop_
_atom_site_type_symbol
_atom_site_label
_atom_site_fract_x
_atom_site_fract_y
_atom_site_fract_z
Si Si1 0.850788 0.745512 0.604911
Si Si2 0.472709 0.562593 0.458630
Si Si3 0.994851 0.638768 0.621627
Si Si4 0.922324 0.579009 0.796603
Si Si5 0.381400 0.960607 0.311866
Si Si6 0.479688 0.254748 0.272053
Si Si7 0.195142 0.426249 0.075074
O O1 0.813342 0.807594 0.627075
O O2 0.912035 0.749146 0.675239
O O3 0.872920 0.735126 0.480931
O O4 0.500000 0.500000 0.500000
O O5 0.410623 0.549024 0.391295
O O6 0.522420 0.593399 0.379691
O O7 0.458178 0.604086 0.561433
O O8 0.934967 0.614150 0.685140
O O9 0.019771 0.695956 0.692370
O O10 0.971373 0.659693 0.505415
O O11 0.920216 0.507895 0.762288
O O12 0.857337 0.601620 0.845659
O O13 0.395982 0.895982 0.250000
O O14 0.311045 0.979690 0.311278
O O15 0.468195 0.257897 0.143977
#
# Coordination Sequence:
#
# PCOD8315548 Si02
#       7
#    16  16  16  16  16  16  16
#     4  10  24  39  52  76 107 154 219 259 290 343
#     4  12  19  32  58  87 118 149 188 255 321 373
#     4  11  22  37  53  87 119 147 200 250 312 386
#     4  11  20  32  58  87 114 148 198 254 315 372
#     4  11  20  36  56  84 114 156 202 246 322 391
#     4  10  25  37  57  80 116 159 203 257 310 370
#     4  10  22  36  57  75 109 160 202 257 301 354
#
# _framework density 18.99343
#
# number of rings (size 3 to 8) (size 9 to 14) (size 15 to 20)
#    0.000    1.286    4.286    1.286   12.000    1.143 
#    0.000    1.429    0.000    0.000    0.000    0.000 
#    0.000    7.429    0.000    0.000    0.000    0.000 
#
# Total GULP energy -1387904.274946 kJ/mol
# GULP energy per Si atom -12392.002455 kJ/mol
# Density = 1.895020 g / cm^3
# Si number density = 18.993430 Si / 1000 Ang^3
#
#
#
# Elastic Constant Matrix: (Units=GPa)
#
#
# Indices 1 2 3 4 5 6 
#
# 1 71.5465 31.0584 18.5412 0.0000 0.0000 0.0000
# 2 31.0584 71.5465 18.5412 0.0000 0.0000 0.0000
# 3 18.5412 18.5412 91.1747 0.0000 0.0000 0.0000
# 4 0.0000 0.0000 0.0000 34.6911 0.0000 0.0000
# 5 0.0000 0.0000 0.0000 0.0000 34.6911 0.0000
# 6 0.0000 0.0000 0.0000 0.0000 0.0000 24.1838
#
#
#
# Elastic Compliance Matrix: (Units=1/GPa)
#
#
# Indices 1 2 3 4 5 6 
#
# 1 0.017609 -0.007090 -0.002139 0.000000 0.000000 0.000000
# 2 -0.007090 0.017609 -0.002139 0.000000 0.000000 0.000000
# 3 -0.002139 -0.002139 0.011838 0.000000 0.000000 0.000000
# 4 0.000000 0.000000 0.000000 0.028826 0.000000 0.000000
# 5 0.000000 0.000000 0.000000 0.000000 0.028826 0.000000
# 6 0.000000 0.000000 0.000000 0.000000 0.000000 0.041350
#
#
# Mechanical properties :
#
#
# Convention : Reuss Voigt Hill
#
# Bulk Modulus (GPa) = 41.11883 41.17214 41.14548
# Shear Modulus (GPa) = 28.26453 29.78834 29.02643
#
# Velocity S-wave (km/s) = 3.86180 3.96454 3.91351
# Velocity P-wave (km/s) = 6.44831 6.53306 6.49082
#
# Compressibility (1/GPa) = 0.02431976
#
# Stress axis : x y z
#
# Youngs Moduli (GPa) = 56.78929 56.78929 84.47380
#
# Poissons Ratio (x) = 0.40262 0.18070
# Poissons Ratio (y) = 0.40262 0.18070
# Poissons Ratio (z) = 0.12148 0.12148
#
# Static dielectric constant tensor:
#      x y z
#    x 3.547590 0.000000 0.000000 
#    y 0.000000 3.547590 0.000000 
#    z 0.000000 0.000000 3.975640 
# 
# 
# High freq. dielectric constant tensor:
#      x y z
#    x 1.710620 0.000000 0.000000 
#    y 0.000000 1.710620 0.000000 
#    z 0.000000 0.000000 1.760880 
# 
# From -- ./inp_files/1851.got.cif
#   From: 2010.03.12/outbox.cif.g09.slc.cpg/sg130_1_cif.got.tgz:1851.got - 2010.04.06 17:30:23.
