data_PCOD8315321
_publ_section_title
;
Structure prediction by ZEFSAII (Michael W. Deem and Ramdas Pophale) SiO2 
 PCOD8315321
Probable space group: P 4/N M M
;
_chemical_formula_sum "Si O2"
_cell_formula_units_Z 112
_cell_length_a 18.121474
_cell_length_b 18.121474
_cell_length_c 18.879702
_cell_angle_alpha 90.000000
_cell_angle_beta 90.000000
_cell_angle_gamma 90.000000
_cell_volume 6199.864181
_symmetry_space_group_name_H-M "P 4/N M M"
_symmetry_group_IT_number 129
_symmetry_cell_setting 'tetragonal'
loop_
_space_group_symop_operation_xyz
x,y,z
1/2-y,x,z
1/2-x,1/2-y,z
y,1/2-x,z
1/2+x,-y,-z
-x,1/2+y,-z
1/2+y,1/2+x,-z
-y,-x,-z
-x,-y,-z
1/2+y,-x,-z
1/2+x,1/2+y,-z
-y,1/2+x,-z
1/2-x,y,z
x,1/2-y,z
1/2-y,1/2-x,z
y,x,z
loop_
_atom_site_type_symbol
_atom_site_label
_atom_site_fract_x
_atom_site_fract_y
_atom_site_fract_z
Si Si1 0.333204 0.451138 0.345364
Si Si2 0.666029 0.448895 0.032073
Si Si3 0.545820 0.833944 0.903200
Si Si4 0.443025 0.667289 0.782104
Si Si5 0.335258 0.558440 0.708881
Si Si6 0.940939 0.438767 0.420884
Si Si7 0.043447 0.165369 0.835812
O O1 0.250000 0.439590 0.371375
O O2 0.371828 0.371828 0.344807
O O3 0.338416 0.485723 0.267900
O O4 0.372229 0.506602 0.398918
O O5 0.750000 0.418417 0.031004
O O6 0.643894 0.475961 0.111061
O O7 0.614458 0.385543 0.000000
O O8 0.659187 0.522643 0.984748
O O9 0.566939 0.750000 0.882614
O O10 0.616159 0.883842 0.886914
O O11 0.474112 0.859875 0.857786
O O12 0.412448 0.750000 0.787009
O O13 0.374215 0.621246 0.754880
O O14 0.250000 0.579746 0.698413
O O15 0.371485 0.551355 0.631421
O O16 0.343926 0.483592 0.754546
O O17 0.916283 0.416283 0.500000
O O18 0.983535 0.516466 0.420134
O O19 0.067428 0.250000 0.850225
O O20 0.113566 0.113566 0.848677
#
# Coordination Sequence:
#
# PCOD8315321 Si02
#       7
#    16  16  16  16  16  16  16
#     4   9  17  29  46  69  96 126 159 194 234 284
#     4  10  21  35  51  74 102 133 173 218 264 314
#     4  10  20  33  50  73 100 132 171 214 261 312
#     4   9  18  32  48  68  97 131 165 199 239 292
#     4  10  20  33  52  77 101 128 165 208 251 295
#     4   9  18  33  52  73  98 129 163 199 244 297
#     4  10  21  36  53  75 102 132 170 214 259 309
#
# _framework density 18.064912
#
# number of rings (size 3 to 8) (size 9 to 14) (size 15 to 20)
#    0.000    2.429    0.000    2.143    0.000    5.429 
#    0.000    0.000    0.000   10.286    0.000    2.000 
#    0.000    3.429    0.000    0.000    0.000    0.143 
#
# Total GULP energy -1388513.741978 kJ/mol
# GULP energy per Si atom -12397.444125 kJ/mol
# Density = 1.802380 g / cm^3
# Si number density = 18.064912 Si / 1000 Ang^3
#
#
#
# Elastic Constant Matrix: (Units=GPa)
#
#
# Indices 1 2 3 4 5 6 
#
# 1 106.8171 60.9915 38.5693 0.0000 0.0000 0.0000
# 2 60.9915 106.8173 38.5689 0.0000 0.0000 0.0000
# 3 38.5693 38.5689 110.5167 0.0000 0.0000 0.0000
# 4 0.0000 0.0000 0.0000 21.2254 0.0000 0.0000
# 5 0.0000 0.0000 0.0000 0.0000 21.2254 0.0000
# 6 0.0000 0.0000 0.0000 0.0000 0.0000 22.5071
#
#
#
# Elastic Compliance Matrix: (Units=1/GPa)
#
#
# Indices 1 2 3 4 5 6 
#
# 1 0.014460 -0.007362 -0.002477 0.000000 0.000000 0.000000
# 2 -0.007362 0.014460 -0.002477 0.000000 0.000000 0.000000
# 3 -0.002477 -0.002477 0.010777 0.000000 0.000000 0.000000
# 4 0.000000 0.000000 0.000000 0.047113 0.000000 0.000000
# 5 0.000000 0.000000 0.000000 0.000000 0.047113 0.000000
# 6 0.000000 0.000000 0.000000 0.000000 0.000000 0.044430
#
#
# Mechanical properties :
#
#
# Convention : Reuss Voigt Hill
#
# Bulk Modulus (GPa) = 66.38017 66.71227 66.54622
# Shear Modulus (GPa) = 24.03754 25.39301 24.71528
#
# Velocity S-wave (km/s) = 3.65172 3.75327 3.70285
# Velocity P-wave (km/s) = 7.38954 7.46941 7.42958
#
# Compressibility (1/GPa) = 0.01506474
#
# Stress axis : x y z
#
# Youngs Moduli (GPa) = 69.15701 69.15738 92.78729
#
# Poissons Ratio (x) = 0.50914 0.22984
# Poissons Ratio (y) = 0.50913 0.22984
# Poissons Ratio (z) = 0.17131 0.17130
#
# Static dielectric constant tensor:
#      x y z
#    x 3.220140 0.000000 0.000000 
#    y 0.000000 3.220140 0.000000 
#    z 0.000000 0.000000 3.495580 
# 
# 
# High freq. dielectric constant tensor:
#      x y z
#    x 1.690340 0.000000 0.000000 
#    y 0.000000 1.690340 0.000000 
#    z 0.000000 0.000000 1.705350 
# 
# From -- ./inp_files/6666.got.cif
#   From: 2010.03.12/outbox.cif.g09.slc.cpg/sg129_4_cif.got.tgz:6666.got - 2010.04.06 17:19:44.
