data_PCOD8315515
_publ_section_title
;
Structure prediction by ZEFSAII (Michael W. Deem and Ramdas Pophale) SiO2 
 PCOD8315515
Probable space group: P 4/N C C
;
_chemical_formula_sum "Si O2"
_cell_formula_units_Z 56
_cell_length_a 16.598266
_cell_length_b 16.598266
_cell_length_c 9.858193
_cell_angle_alpha 90.000000
_cell_angle_beta 90.000000
_cell_angle_gamma 90.000000
_cell_volume 2715.956168
_symmetry_space_group_name_H-M "P 4/N C C"
_symmetry_group_IT_number 130
_symmetry_cell_setting 'tetragonal'
loop_
_space_group_symop_operation_xyz
x,y,z
1/2-y,x,z
1/2-x,1/2-y,z
y,1/2-x,z
1/2+x,-y,1/2-z
-x,1/2+y,1/2-z
1/2+y,1/2+x,1/2-z
-y,-x,1/2-z
-x,-y,-z
1/2+y,-x,-z
1/2+x,1/2+y,-z
-y,1/2+x,-z
1/2-x,y,1/2+z
x,1/2-y,1/2+z
1/2-y,1/2-x,1/2+z
y,x,1/2+z
loop_
_atom_site_type_symbol
_atom_site_label
_atom_site_fract_x
_atom_site_fract_y
_atom_site_fract_z
Si Si1 0.618765 0.765061 0.606086
Si Si2 0.100695 0.899306 0.750000
Si Si3 0.282186 0.628082 0.987932
Si Si4 0.484611 0.282376 0.152768
O O1 0.662139 0.679882 0.630347
O O2 0.587648 0.780894 0.454497
O O3 0.545220 0.763773 0.711992
O O4 0.099388 0.824027 0.648846
O O5 0.015429 0.877315 0.824575
O O6 0.271780 0.557225 0.096214
O O7 0.196164 0.663339 0.941233
#
# Coordination Sequence:
#
# PCOD8315515 Si02
#       4
#    16   8  16  16
#     4  11  24  44  70  93 121 172 234 286 322 376
#     4  10  20  39  60  98 138 172 202 267 334 400
#     4   9  19  34  60  91 127 171 212 251 314 396
#     4  11  21  40  64  96 130 163 215 270 332 389
#
# _framework density 20.61889
#
# number of rings (size 3 to 8) (size 9 to 14) (size 15 to 20)
#    0.000    1.714    2.857    1.714    0.000   11.429 
#    0.000    1.429    6.286    0.000    0.000    0.000 
#    0.000    0.000    0.000    0.000    0.000    0.000 
#
# Total GULP energy -693763.530740 kJ/mol
# GULP energy per Si atom -12388.634477 kJ/mol
# Density = 2.057196 g / cm^3
# Si number density = 20.618890 Si / 1000 Ang^3
#
#
#
# Elastic Constant Matrix: (Units=GPa)
#
#
# Indices 1 2 3 4 5 6 
#
# 1 93.8217 44.9148 29.9302 0.0000 0.0000 0.0000
# 2 44.9148 93.8216 29.9294 0.0000 0.0000 0.0000
# 3 29.9302 29.9294 91.0715 0.0000 0.0000 0.0000
# 4 0.0000 0.0000 0.0000 26.8378 0.0000 0.0000
# 5 0.0000 0.0000 0.0000 0.0000 26.8377 0.0000
# 6 0.0000 0.0000 0.0000 0.0000 0.0000 27.6427
#
#
#
# Elastic Compliance Matrix: (Units=1/GPa)
#
#
# Indices 1 2 3 4 5 6 
#
# 1 0.014423 -0.006024 -0.002760 0.000000 0.000000 0.000000
# 2 -0.006024 0.014423 -0.002760 0.000000 0.000000 0.000000
# 3 -0.002760 -0.002760 0.012795 0.000000 0.000000 0.000000
# 4 0.000000 0.000000 0.000000 0.037261 0.000000 0.000000
# 5 0.000000 0.000000 0.000000 0.000000 0.037261 0.000000
# 6 0.000000 0.000000 0.000000 0.000000 0.000000 0.036176
#
#
# Mechanical properties :
#
#
# Convention : Reuss Voigt Hill
#
# Bulk Modulus (GPa) = 53.90403 54.25150 54.07776
# Shear Modulus (GPa) = 27.53134 27.85965 27.69549
#
# Velocity S-wave (km/s) = 3.65807 3.67982 3.66896
# Velocity P-wave (km/s) = 6.63640 6.66509 6.65076
#
# Compressibility (1/GPa) = 0.01855149
#
# Stress axis : x y z
#
# Youngs Moduli (GPa) = 69.33379 69.33413 78.15791
#
# Poissons Ratio (x) = 0.41768 0.21574
# Poissons Ratio (y) = 0.41767 0.21572
# Poissons Ratio (z) = 0.19138 0.19137
#
# Static dielectric constant tensor:
#      x y z
#    x 3.732920 0.000000 0.000000 
#    y 0.000000 3.732920 0.000000 
#    z 0.000000 0.000000 3.847340 
# 
# 
# High freq. dielectric constant tensor:
#      x y z
#    x 1.795970 0.000000 0.000000 
#    y 0.000000 1.795970 0.000000 
#    z 0.000000 0.000000 1.818860 
# 
# From -- ./inp_files/532.got.cif
#   From: 2010.03.12/outbox.cif.g09.slc.cpg/sg130_1_cif.got.tgz:532.got - 2010.04.06 17:30:23.
