data_PCOD8315254
_publ_section_title
;
Structure prediction by ZEFSAII (Michael W. Deem and Ramdas Pophale) SiO2 
 PCOD8315254
Probable space group: P 4/N M M
;
_chemical_formula_sum "Si O2"
_cell_formula_units_Z 88
_cell_length_a 13.246164
_cell_length_b 13.246164
_cell_length_c 28.232918
_cell_angle_alpha 90.000000
_cell_angle_beta 90.000000
_cell_angle_gamma 90.000000
_cell_volume 4953.772093
_symmetry_space_group_name_H-M "P 4/N M M"
_symmetry_group_IT_number 129
_symmetry_cell_setting 'tetragonal'
loop_
_space_group_symop_operation_xyz
x,y,z
1/2-y,x,z
1/2-x,1/2-y,z
y,1/2-x,z
1/2+x,-y,-z
-x,1/2+y,-z
1/2+y,1/2+x,-z
-y,-x,-z
-x,-y,-z
1/2+y,-x,-z
1/2+x,1/2+y,-z
-y,1/2+x,-z
1/2-x,y,z
x,1/2-y,z
1/2-y,1/2-x,z
y,x,z
loop_
_atom_site_type_symbol
_atom_site_label
_atom_site_fract_x
_atom_site_fract_y
_atom_site_fract_z
Si Si1 0.970474 0.368167 0.596891
Si Si2 0.471297 0.631539 0.854936
Si Si3 0.533176 0.367031 0.770240
Si Si4 0.629985 0.361822 0.948486
Si Si5 0.634500 0.134500 0.500000
Si Si6 0.867290 0.467361 0.681994
O O1 0.988024 0.250000 0.603784
O O2 0.934024 0.395710 0.544317
O O3 0.886631 0.407129 0.633477
O O4 0.076677 0.423324 0.606741
O O5 0.491200 0.750000 0.853021
O O6 0.576690 0.576690 0.843150
O O7 0.387619 0.600731 0.816564
O O8 0.434406 0.593921 0.906464
O O9 0.504444 0.250000 0.767957
O O10 0.429015 0.429015 0.771848
O O11 0.598941 0.396105 0.724810
O O12 0.750000 0.353983 0.948595
O O13 0.584201 0.250000 0.939946
O O14 0.595140 0.404861 0.000000
O O15 0.616517 0.250000 0.485203
O O16 0.750000 0.493549 0.686513
O O17 0.927124 0.572877 0.683024
#
# Coordination Sequence:
#
# PCOD8315254 Si02
#       6
#    16  16  16  16   8  16
#     4  10  20  33  50  73 101 133 169 208 249 294
#     4  10  20  32  47  69  96 128 166 204 243 287
#     4  10  21  36  54  77 102 128 160 197 239 288
#     4   8  14  26  45  68  92 118 152 197 246 292
#     4   9  17  30  50  74  97 125 164 208 253 299
#     4  10  21  36  54  77 103 131 165 203 243 288
#
# _framework density 17.764240999999998
#
# number of rings (size 3 to 8) (size 9 to 14) (size 15 to 20)
#    0.000    2.455    0.000    3.000    0.000    5.091 
#    0.000    0.000    0.000    6.545    0.000    2.545 
#    0.000    4.364    0.000    0.000    0.000    0.000 
#
# Total GULP energy -1091193.742048 kJ/mol
# GULP energy per Si atom -12399.928887 kJ/mol
# Density = 1.772381 g / cm^3
# Si number density = 17.764241 Si / 1000 Ang^3
#
#
#
# Elastic Constant Matrix: (Units=GPa)
#
#
# Indices 1 2 3 4 5 6 
#
# 1 100.0353 45.7373 42.8447 0.0000 0.0000 0.0000
# 2 45.7373 100.0352 42.8448 0.0000 0.0000 0.0000
# 3 42.8447 42.8448 108.1080 0.0000 0.0000 0.0000
# 4 0.0000 0.0000 0.0000 25.3546 0.0000 0.0000
# 5 0.0000 0.0000 0.0000 0.0000 25.3547 0.0000
# 6 0.0000 0.0000 0.0000 0.0000 0.0000 14.6180
#
#
#
# Elastic Compliance Matrix: (Units=1/GPa)
#
#
# Indices 1 2 3 4 5 6 
#
# 1 0.013680 -0.004737 -0.003544 0.000000 0.000000 0.000000
# 2 -0.004737 0.013680 -0.003544 0.000000 0.000000 0.000000
# 3 -0.003544 -0.003544 0.012059 0.000000 0.000000 0.000000
# 4 0.000000 0.000000 0.000000 0.039441 0.000000 0.000000
# 5 0.000000 0.000000 0.000000 0.000000 0.039440 0.000000
# 6 0.000000 0.000000 0.000000 0.000000 0.000000 0.068409
#
#
# Mechanical properties :
#
#
# Convention : Reuss Voigt Hill
#
# Bulk Modulus (GPa) = 63.41672 63.44801 63.43236
# Shear Modulus (GPa) = 23.18925 24.84891 24.01908
#
# Velocity S-wave (km/s) = 3.61694 3.74413 3.68108
# Velocity P-wave (km/s) = 7.29517 7.38144 7.33843
#
# Compressibility (1/GPa) = 0.01576871
#
# Stress axis : x y z
#
# Youngs Moduli (GPa) = 73.09828 73.09817 82.92259
#
# Poissons Ratio (x) = 0.34624 0.29391
# Poissons Ratio (y) = 0.34624 0.29392
# Poissons Ratio (z) = 0.25909 0.25909
#
# Static dielectric constant tensor:
#      x y z
#    x 3.074330 0.000000 0.000000 
#    y 0.000000 3.074330 0.000000 
#    z 0.000000 0.000000 3.624650 
# 
# 
# High freq. dielectric constant tensor:
#      x y z
#    x 1.673090 0.000000 0.000000 
#    y 0.000000 1.673090 0.000000 
#    z 0.000000 0.000000 1.710010 
# 
# From -- ./inp_files/7747.got.cif
#   From: 2010.03.12/outbox.cif.g09.slc.cpg/sg129_4_cif.got.tgz:7747.got - 2010.04.06 17:19:44.
