data_PCOD8315344
_publ_section_title
;
Structure prediction by ZEFSAII (Michael W. Deem and Ramdas Pophale) SiO2 
 PCOD8315344
Probable space group: P 4/N M M
;
_chemical_formula_sum "Si O2"
_cell_formula_units_Z 96
_cell_length_a 23.271508
_cell_length_b 23.271508
_cell_length_c 9.916680
_cell_angle_alpha 90.000000
_cell_angle_beta 90.000000
_cell_angle_gamma 90.000000
_cell_volume 5370.507810
_symmetry_space_group_name_H-M "P 4/N M M"
_symmetry_group_IT_number 129
_symmetry_cell_setting 'tetragonal'
loop_
_space_group_symop_operation_xyz
x,y,z
1/2-y,x,z
1/2-x,1/2-y,z
y,1/2-x,z
1/2+x,-y,-z
-x,1/2+y,-z
1/2+y,1/2+x,-z
-y,-x,-z
-x,-y,-z
1/2+y,-x,-z
1/2+x,1/2+y,-z
-y,1/2+x,-z
1/2-x,y,z
x,1/2-y,z
1/2-y,1/2-x,z
y,x,z
loop_
_atom_site_type_symbol
_atom_site_label
_atom_site_fract_x
_atom_site_fract_y
_atom_site_fract_z
Si Si1 0.684315 0.505450 0.737553
Si Si2 0.314317 0.630312 0.880771
Si Si3 0.888112 0.398928 0.651855
Si Si4 0.884941 0.521100 0.294634
Si Si5 0.000829 0.684249 0.042249
Si Si6 0.589922 0.815769 0.505806
O O1 0.750000 0.481707 0.730344
O O2 0.640529 0.460655 0.671896
O O3 0.678920 0.565052 0.656836
O O4 0.667052 0.518451 0.891854
O O5 0.250000 0.636045 0.826190
O O6 0.354510 0.642318 0.752769
O O7 0.326320 0.568603 0.946240
O O8 0.324229 0.675772 0.000000
O O9 0.877417 0.377417 0.500000
O O10 0.955775 0.402889 0.680189
O O11 0.942816 0.557185 0.305828
O O12 0.856876 0.531153 0.147876
O O13 0.838443 0.541185 0.404189
O O14 0.984670 0.750000 0.075323
O O15 0.604368 0.750000 0.469704
O O16 0.648393 0.851608 0.492989
#
# Coordination Sequence:
#
# PCOD8315344 Si02
#       6
#    16  16  16  16  16  16
#     4  10  20  35  55  78 107 144 185 225 267 323
#     4  10  20  34  53  76 101 136 182 226 268 314
#     4  11  21  35  54  79 112 145 182 223 274 328
#     4  10  21  34  53  82 113 142 176 221 275 331
#     4   9  18  34  55  75 103 140 180 221 264 320
#     4  10  21  37  57  82 110 142 181 221 268 325
#
# _framework density 17.875402999999999
#
# number of rings (size 3 to 8) (size 9 to 14) (size 15 to 20)
#    0.000    2.000    3.333    0.500    0.000    3.333 
#    0.000    0.833    0.000    0.000    0.000    1.167 
#    0.000    4.000    0.000    0.000    0.000    0.000 
#
# Total GULP energy -1190585.949703 kJ/mol
# GULP energy per Si atom -12401.936976 kJ/mol
# Density = 1.783472 g / cm^3
# Si number density = 17.875403 Si / 1000 Ang^3
#
#
#
# Elastic Constant Matrix: (Units=GPa)
#
#
# Indices 1 2 3 4 5 6 
#
# 1 76.1848 36.9215 30.8007 0.0000 0.0000 0.0000
# 2 36.9215 76.1835 30.7997 0.0000 0.0000 0.0000
# 3 30.8007 30.7997 124.0253 0.0000 0.0000 0.0000
# 4 0.0000 0.0000 0.0000 24.2017 0.0000 0.0000
# 5 0.0000 0.0000 0.0000 0.0000 24.2018 0.0000
# 6 0.0000 0.0000 0.0000 0.0000 0.0000 14.5172
#
#
#
# Elastic Compliance Matrix: (Units=1/GPa)
#
#
# Indices 1 2 3 4 5 6 
#
# 1 0.017847 -0.007623 -0.002539 0.000000 0.000000 0.000000
# 2 -0.007623 0.017847 -0.002539 0.000000 0.000000 0.000000
# 3 -0.002539 -0.002539 0.009324 0.000000 0.000000 0.000000
# 4 0.000000 0.000000 0.000000 0.041319 0.000000 0.000000
# 5 0.000000 0.000000 0.000000 0.000000 0.041319 0.000000
# 6 0.000000 0.000000 0.000000 0.000000 0.000000 0.068884
#
#
# Mechanical properties :
#
#
# Convention : Reuss Voigt Hill
#
# Bulk Modulus (GPa) = 50.97869 52.60415 51.79142
# Shear Modulus (GPa) = 21.88374 24.44225 23.16300
#
# Velocity S-wave (km/s) = 3.50271 3.70181 3.60363
# Velocity P-wave (km/s) = 6.70369 6.91110 6.80818
#
# Compressibility (1/GPa) = 0.01961604
#
# Stress axis : x y z
#
# Youngs Moduli (GPa) = 56.03277 56.03204 107.25074
#
# Poissons Ratio (x) = 0.42712 0.27232
# Poissons Ratio (y) = 0.42712 0.27231
# Poissons Ratio (z) = 0.14227 0.14226
#
# Static dielectric constant tensor:
#      x y z
#    x 3.146660 0.000000 0.000000 
#    y 0.000000 3.146660 0.000000 
#    z 0.000000 0.000000 3.504940 
# 
# 
# High freq. dielectric constant tensor:
#      x y z
#    x 1.679330 0.000000 0.000000 
#    y 0.000000 1.679330 0.000000 
#    z 0.000000 0.000000 1.706360 
# 
# From -- ./inp_files/2607.got.cif
#   From: 2010.03.12/outbox.cif.g09.slc.cpg/sg129_2_cif.got.tgz:2607.got - 2010.04.06 17:19:44.
