data_PCOD8315427
_publ_section_title
;
Structure prediction by ZEFSAII (Michael W. Deem and Ramdas Pophale) SiO2 
 PCOD8315427
Probable space group: P 4/N M M
;
_chemical_formula_sum "Si O2"
_cell_formula_units_Z 52
_cell_length_a 14.290527
_cell_length_b 14.290527
_cell_length_c 11.891356
_cell_angle_alpha 90.000000
_cell_angle_beta 90.000000
_cell_angle_gamma 90.000000
_cell_volume 2428.442757
_symmetry_space_group_name_H-M "P 4/N M M"
_symmetry_group_IT_number 129
_symmetry_cell_setting 'tetragonal'
loop_
_space_group_symop_operation_xyz
x,y,z
1/2-y,x,z
1/2-x,1/2-y,z
y,1/2-x,z
1/2+x,-y,-z
-x,1/2+y,-z
1/2+y,1/2+x,-z
-y,-x,-z
-x,-y,-z
1/2+y,-x,-z
1/2+x,1/2+y,-z
-y,1/2+x,-z
1/2-x,y,z
x,1/2-y,z
1/2-y,1/2-x,z
y,x,z
loop_
_atom_site_type_symbol
_atom_site_label
_atom_site_fract_x
_atom_site_fract_y
_atom_site_fract_z
Si Si1 0.984604 0.250000 0.192697
Si Si2 0.250000 0.402699 0.414901
Si Si3 0.250000 0.750000 0.500000
Si Si4 0.899981 0.448781 0.209517
Si Si5 0.965152 0.750000 0.059262
Si Si6 0.250000 0.250000 0.926481
Si Si7 0.750000 0.448169 0.392698
O O1 0.917198 0.338642 0.203334
O O2 0.065300 0.250000 0.286034
O O3 0.040265 0.250000 0.075747
O O4 0.157783 0.342218 0.439008
O O5 0.250000 0.493188 0.493175
O O6 0.160800 0.750000 0.419834
O O7 0.842417 0.480074 0.099846
O O8 0.841829 0.473525 0.321349
O O9 0.999084 0.500917 0.215324
O O10 0.860119 0.750000 0.101880
#
# Coordination Sequence:
#
# PCOD8315427 Si02
#       7
#     8   8   2  16   8   2   8
#     4  12  26  41  66  97 138 180 217 267 329 403
#     4  11  25  42  65 100 133 172 221 273 334 394
#     4  12  24  40  64  92 126 164 224 260 344 406
#     4  11  24  44  67  98 131 175 225 272 329 387
#     4  11  26  42  71  98 134 175 218 279 324 398
#     4  12  24  44  68 104 130 176 224 264 344 378
#     4  11  23  43  67  92 126 173 215 284 325 392
#
# _framework density 21.412897999999998
#
# number of rings (size 3 to 8) (size 9 to 14) (size 15 to 20)
#    0.000    0.769    1.538    5.538    4.308    3.077 
#    0.000    7.692    0.000    0.000    0.000    0.000 
#    0.000    0.000    0.000    0.000    0.000    0.000 
#
# Total GULP energy -644326.290129 kJ/mol
# GULP energy per Si atom -12390.890195 kJ/mol
# Density = 2.136416 g / cm^3
# Si number density = 21.412898 Si / 1000 Ang^3
#
#
#
# Elastic Constant Matrix: (Units=GPa)
#
#
# Indices 1 2 3 4 5 6 
#
# 1 138.0630 82.5504 39.5400 0.0000 0.0000 0.0000
# 2 82.5504 138.0630 39.5400 0.0000 0.0000 0.0000
# 3 39.5400 39.5400 121.5485 0.0000 0.0000 0.0000
# 4 0.0000 0.0000 0.0000 14.8672 0.0000 0.0000
# 5 0.0000 0.0000 0.0000 0.0000 14.8672 0.0000
# 6 0.0000 0.0000 0.0000 0.0000 0.0000 22.9049
#
#
#
# Elastic Compliance Matrix: (Units=1/GPa)
#
#
# Indices 1 2 3 4 5 6 
#
# 1 0.011573 -0.006441 -0.001669 0.000000 0.000000 0.000000
# 2 -0.006441 0.011573 -0.001669 0.000000 0.000000 0.000000
# 3 -0.001669 -0.001669 0.009313 0.000000 0.000000 0.000000
# 4 0.000000 0.000000 0.000000 0.067262 0.000000 0.000000
# 5 0.000000 0.000000 0.000000 0.000000 0.067262 0.000000
# 6 0.000000 0.000000 0.000000 0.000000 0.000000 0.043659
#
#
# Mechanical properties :
#
#
# Convention : Reuss Voigt Hill
#
# Bulk Modulus (GPa) = 77.52699 80.10391 78.81545
# Shear Modulus (GPa) = 21.32189 26.26412 23.79301
#
# Velocity S-wave (km/s) = 3.15897 3.50602 3.33701
# Velocity P-wave (km/s) = 7.04200 7.34030 7.19270
#
# Compressibility (1/GPa) = 0.01289873
#
# Stress axis : x y z
#
# Youngs Moduli (GPa) = 86.41150 86.41150 107.37523
#
# Poissons Ratio (x) = 0.55661 0.17923
# Poissons Ratio (y) = 0.55661 0.17923
# Poissons Ratio (z) = 0.14424 0.14424
#
# Static dielectric constant tensor:
#      x y z
#    x 4.496150 0.000000 0.000000 
#    y 0.000000 4.496150 0.000000 
#    z 0.000000 0.000000 3.807800 
# 
# 
# High freq. dielectric constant tensor:
#      x y z
#    x 1.860850 0.000000 0.000000 
#    y 0.000000 1.860850 0.000000 
#    z 0.000000 0.000000 1.833110 
# 
# From -- ./inp_files/3312.got.cif
#   From: 2010.03.12/outbox.cif.g09.slc.cpg/sg129_2_cif.got.tgz:3312.got - 2010.04.06 17:19:44.
