data_PCOD8315720
_publ_section_title
;
Structure prediction by ZEFSAII (Michael W. Deem and Ramdas Pophale) SiO2 
 PCOD8315720
Probable space group: P 42/M M C
;
_chemical_formula_sum "Si O2"
_cell_formula_units_Z 112
_cell_length_a 18.692858
_cell_length_b 18.692858
_cell_length_c 19.486093
_cell_angle_alpha 90.000000
_cell_angle_beta 90.000000
_cell_angle_gamma 90.000000
_cell_volume 6808.887909
_symmetry_space_group_name_H-M "P 42/M M C"
_symmetry_group_IT_number 131
_symmetry_cell_setting 'tetragonal'
loop_
_space_group_symop_operation_xyz
x,y,z
-x,-y,z
-y,x,1/2+z
y,-x,1/2+z
-x,y,-z
x,-y,-z
y,x,1/2-z
-y,-x,1/2-z
-x,-y,-z
x,y,-z
y,-x,1/2-z
-y,x,1/2-z
x,-y,z
-x,y,z
-y,-x,1/2+z
y,x,1/2+z
loop_
_atom_site_type_symbol
_atom_site_label
_atom_site_fract_x
_atom_site_fract_y
_atom_site_fract_z
Si Si1 0.218796 0.784098 0.920965
Si Si2 0.917140 0.580453 0.180552
Si Si3 0.328536 0.708737 0.173071
Si Si4 0.694317 0.919386 0.920569
Si Si5 0.848484 0.583596 0.675842
Si Si6 0.579845 0.578927 0.831661
Si Si7 0.919899 0.294599 0.920982
O O1 0.262691 0.728856 0.875003
O O2 0.239771 0.865959 0.902427
O O3 0.134583 0.770911 0.905976
O O4 0.237157 0.767770 0.000000
O O5 0.897888 0.500000 0.156089
O O6 0.872961 0.601807 0.247497
O O7 0.896386 0.635093 0.120566
O O8 0.000000 0.586023 0.200083
O O9 0.299879 0.700122 0.250000
O O10 0.391025 0.767267 0.169164
O O11 0.362514 0.636216 0.141954
O O12 0.624332 0.899298 0.877568
O O13 0.719079 0.000000 0.902486
O O14 0.672944 0.912649 0.000000
O O15 0.854157 0.500000 0.659197
O O16 0.580102 0.580102 0.750000
O O17 0.602506 0.500000 0.857959
O O18 0.500000 0.597395 0.858470
O O19 0.000000 0.268986 0.900548
O O20 0.916909 0.317594 0.000000
#
# Coordination Sequence:
#
# PCOD8315720 Si02
#       7
#    16  16  16  16  16  16  16
#     4   9  18  32  47  65  90 114 139 176 218 258
#     4   9  17  28  42  63  92 121 146 177 218 259
#     4  10  18  28  45  66  87 114 148 183 217 258
#     4   9  18  32  49  67  88 118 150 176 210 261
#     4  10  19  29  43  66  94 119 146 183 222 256
#     4   8  14  25  41  61  84 110 143 183 221 253
#     4   9  17  30  48  66  85 114 149 181 216 262
#
# _framework density 16.449088
#
# number of rings (size 3 to 8) (size 9 to 14) (size 15 to 20)
#    0.000    2.857    0.000    2.143    0.000    2.000 
#    0.000    2.857    0.000    3.000    0.000    4.000 
#    0.000    0.000    0.000    6.857    0.000    9.429 
#
# Total GULP energy -1388425.859171 kJ/mol
# GULP energy per Si atom -12396.659457 kJ/mol
# Density = 1.641165 g / cm^3
# Si number density = 16.449088 Si / 1000 Ang^3
#
#
#
# Elastic Constant Matrix: (Units=GPa)
#
#
# Indices 1 2 3 4 5 6 
#
# 1 112.3392 71.0607 44.6357 0.0000 0.0000 0.0000
# 2 71.0607 112.3390 44.6357 0.0000 0.0000 0.0000
# 3 44.6357 44.6357 51.9192 0.0000 0.0000 0.0000
# 4 0.0000 0.0000 0.0000 21.3099 0.0000 0.0000
# 5 0.0000 0.0000 0.0000 0.0000 21.3099 0.0000
# 6 0.0000 0.0000 0.0000 0.0000 0.0000 21.0469
#
#
#
# Elastic Compliance Matrix: (Units=1/GPa)
#
#
# Indices 1 2 3 4 5 6 
#
# 1 0.016801 -0.007425 -0.008061 0.000000 0.000000 0.000000
# 2 -0.007425 0.016801 -0.008061 0.000000 0.000000 0.000000
# 3 -0.008061 -0.008061 0.033121 0.000000 0.000000 0.000000
# 4 0.000000 0.000000 0.000000 0.046927 0.000000 0.000000
# 5 0.000000 0.000000 0.000000 0.000000 0.046927 0.000000
# 6 0.000000 0.000000 0.000000 0.000000 0.000000 0.047513
#
#
# Mechanical properties :
#
#
# Convention : Reuss Voigt Hill
#
# Bulk Modulus (GPa) = 50.94311 66.36240 58.65275
# Shear Modulus (GPa) = 19.10399 20.48436 19.79417
#
# Velocity S-wave (km/s) = 3.41163 3.53274 3.47271
# Velocity P-wave (km/s) = 6.82322 7.55460 7.19821
#
# Compressibility (1/GPa) = 0.01962974
#
# Stress axis : x y z
#
# Youngs Moduli (GPa) = 59.52023 59.52013 30.19239
#
# Poissons Ratio (x) = 0.44192 0.24338
# Poissons Ratio (y) = 0.44192 0.24338
# Poissons Ratio (z) = 0.47979 0.47979
#
# Static dielectric constant tensor:
#      x y z
#    x 3.223470 0.000000 0.000000 
#    y 0.000000 3.223470 0.000000 
#    z 0.000000 0.000000 2.969260 
# 
# 
# High freq. dielectric constant tensor:
#      x y z
#    x 1.630960 0.000000 0.000000 
#    y 0.000000 1.630960 0.000000 
#    z 0.000000 0.000000 1.617070 
# 
# From -- ./inp_files/10038.got.cif
#   From: 2010.03.12/outbox.cif.g09.slc.cpg/sg131_6_cif.got.tgz:10038.got - 2010.04.06 17:36:35.
