data_PCOD8315834
_publ_section_title
;
Structure prediction by ZEFSAII (Michael W. Deem and Ramdas Pophale) SiO2 
 PCOD8315834
Probable space group: P 42/M M C
;
_chemical_formula_sum "Si O2"
_cell_formula_units_Z 104
_cell_length_a 21.256661
_cell_length_b 21.256661
_cell_length_c 14.175353
_cell_angle_alpha 90.000000
_cell_angle_beta 90.000000
_cell_angle_gamma 90.000000
_cell_volume 6405.071404
_symmetry_space_group_name_H-M "P 42/M M C"
_symmetry_group_IT_number 131
_symmetry_cell_setting 'tetragonal'
loop_
_space_group_symop_operation_xyz
x,y,z
-x,-y,z
-y,x,1/2+z
y,-x,1/2+z
-x,y,-z
x,-y,-z
y,x,1/2-z
-y,-x,1/2-z
-x,-y,-z
x,y,-z
y,-x,1/2-z
-y,x,1/2-z
x,-y,z
-x,y,z
-y,-x,1/2+z
y,x,1/2+z
loop_
_atom_site_type_symbol
_atom_site_label
_atom_site_fract_x
_atom_site_fract_y
_atom_site_fract_z
Si Si1 0.788480 0.928798 0.716470
Si Si2 0.823204 0.684844 0.786220
Si Si3 0.875127 0.842783 0.395702
Si Si4 0.265280 0.773172 0.104861
Si Si5 0.431307 0.426090 0.000000
Si Si6 0.211569 0.571238 0.890375
Si Si7 0.353042 0.572241 0.822714
O O1 0.725914 0.886507 0.708409
O O2 0.840586 0.905486 0.641766
O O3 0.819375 0.927222 0.821133
O O4 0.769494 0.000000 0.692466
O O5 0.798948 0.681635 0.677449
O O6 0.767306 0.711591 0.852174
O O7 0.835618 0.615470 0.829282
O O8 0.904466 0.855668 0.500000
O O9 0.824519 0.788415 0.402742
O O10 0.293839 0.760005 0.000000
O O11 0.392059 0.404448 0.088579
O O12 0.500000 0.393449 0.000000
O O13 0.439431 0.500000 0.000000
O O14 0.186887 0.500000 0.880837
O O15 0.279893 0.577764 0.844195
O O16 0.213147 0.591282 0.000000
O O17 0.375074 0.624927 0.750000
O O18 0.369904 0.500000 0.793019
#
# Coordination Sequence:
#
# PCOD8315834 Si02
#       7
#    16  16  16  16   8  16  16
#     4   9  17  29  47  73 100 124 156 195 230 269
#     4   9  17  28  46  69  90 118 152 189 235 277
#     4   8  15  28  44  67 100 130 152 181 226 270
#     4   8  14  26  45  68  91 112 141 185 234 280
#     4   9  16  28  44  60  82 110 141 181 224 264
#     4  10  20  34  48  62  85 118 156 192 227 277
#     4  10  19  30  44  63  84 111 147 184 223 269
#
# _framework density 16.237133
#
# number of rings (size 3 to 8) (size 9 to 14) (size 15 to 20)
#    0.000    3.000    0.769    2.769    2.154    2.000 
#    0.000    0.000    0.000    4.615    0.000    5.385 
#    0.000    0.000    0.000    7.692    0.000    0.000 
#
# Total GULP energy -1288510.599580 kJ/mol
# GULP energy per Si atom -12389.524996 kJ/mol
# Density = 1.620018 g / cm^3
# Si number density = 16.237133 Si / 1000 Ang^3
#
#
#
# Elastic Constant Matrix: (Units=GPa)
#
#
# Indices 1 2 3 4 5 6 
#
# 1 67.5869 25.7454 33.2517 0.0000 0.0000 0.0000
# 2 25.7454 67.5863 33.2515 0.0000 0.0000 0.0000
# 3 33.2517 33.2515 120.7357 0.0000 0.0000 0.0000
# 4 0.0000 0.0000 0.0000 16.1757 0.0000 0.0000
# 5 0.0000 0.0000 0.0000 0.0000 16.1758 0.0000
# 6 0.0000 0.0000 0.0000 0.0000 0.0000 13.6191
#
#
#
# Elastic Compliance Matrix: (Units=1/GPa)
#
#
# Indices 1 2 3 4 5 6 
#
# 1 0.018615 -0.005285 -0.003671 0.000000 0.000000 0.000000
# 2 -0.005285 0.018615 -0.003671 0.000000 0.000000 0.000000
# 3 -0.003671 -0.003671 0.010305 0.000000 0.000000 0.000000
# 4 0.000000 0.000000 0.000000 0.061821 0.000000 0.000000
# 5 0.000000 0.000000 0.000000 0.000000 0.061821 0.000000
# 6 0.000000 0.000000 0.000000 0.000000 0.000000 0.073426
#
#
# Mechanical properties :
#
#
# Convention : Reuss Voigt Hill
#
# Bulk Modulus (GPa) = 44.88258 48.93402 46.90830
# Shear Modulus (GPa) = 18.03201 20.10481 19.06841
#
# Velocity S-wave (km/s) = 3.33609 3.52262 3.43063
# Velocity P-wave (km/s) = 6.52237 6.83723 6.68165
#
# Compressibility (1/GPa) = 0.02228036
#
# Stress axis : x y z
#
# Youngs Moduli (GPa) = 53.71997 53.71950 97.04249
#
# Poissons Ratio (x) = 0.28389 0.35627
# Poissons Ratio (y) = 0.28390 0.35627
# Poissons Ratio (z) = 0.19722 0.19722
#
# Static dielectric constant tensor:
#      x y z
#    x 2.813890 0.000000 0.000000 
#    y 0.000000 2.813890 0.000000 
#    z 0.000000 0.000000 3.725820 
# 
# 
# High freq. dielectric constant tensor:
#      x y z
#    x 1.592250 0.000000 0.000000 
#    y 0.000000 1.592250 0.000000 
#    z 0.000000 0.000000 1.638360 
# 
# From -- ./inp_files/6273.got.cif
#   From: 2010.03.12/outbox.cif.g09.slc.cpg/sg131_4_cif.got.tgz:6273.got - 2010.04.06 17:36:35.
