data_PCOD8315026
_publ_section_title
;
Structure prediction by ZEFSAII (Michael W. Deem and Ramdas Pophale) SiO2 
 PCOD8315026
Probable space group: P 4/N M M
;
_chemical_formula_sum "Si O2"
_cell_formula_units_Z 128
_cell_length_a 18.994202
_cell_length_b 18.994202
_cell_length_c 23.198516
_cell_angle_alpha 90.000000
_cell_angle_beta 90.000000
_cell_angle_gamma 90.000000
_cell_volume 8369.553866
_symmetry_space_group_name_H-M "P 4/N M M"
_symmetry_group_IT_number 129
_symmetry_cell_setting 'tetragonal'
loop_
_space_group_symop_operation_xyz
x,y,z
1/2-y,x,z
1/2-x,1/2-y,z
y,1/2-x,z
1/2+x,-y,-z
-x,1/2+y,-z
1/2+y,1/2+x,-z
-y,-x,-z
-x,-y,-z
1/2+y,-x,-z
1/2+x,1/2+y,-z
-y,1/2+x,-z
1/2-x,y,z
x,1/2-y,z
1/2-y,1/2-x,z
y,x,z
loop_
_atom_site_type_symbol
_atom_site_label
_atom_site_fract_x
_atom_site_fract_y
_atom_site_fract_z
Si Si1 0.833343 0.328755 0.063473
Si Si2 0.551459 0.167899 0.654662
Si Si3 0.494032 0.891897 0.466795
Si Si4 0.444484 0.169844 0.305577
Si Si5 0.167498 0.450951 0.760350
Si Si6 0.562042 0.673797 0.565351
Si Si7 0.089397 0.832702 0.173577
Si Si8 0.668377 0.402563 0.725384
O O1 0.750000 0.322300 0.064496
O O2 0.864436 0.250000 0.076611
O O3 0.858086 0.388024 0.109529
O O4 0.856232 0.356232 0.000000
O O5 0.568139 0.250000 0.654176
O O6 0.533632 0.141816 0.591385
O O7 0.487131 0.152263 0.698608
O O8 0.622184 0.128483 0.673615
O O9 0.439346 0.939346 0.500000
O O10 0.506065 0.830037 0.513662
O O11 0.563242 0.936759 0.450947
O O12 0.417672 0.250000 0.297771
O O13 0.381752 0.118249 0.285874
O O14 0.468452 0.154370 0.371684
O O15 0.513672 0.155371 0.267973
O O16 0.250000 0.428185 0.765106
O O17 0.117785 0.382216 0.767762
O O18 0.148059 0.508451 0.810271
O O19 0.596129 0.750000 0.568472
O O20 0.623148 0.623148 0.546386
O O21 0.099518 0.750000 0.182022
O O22 0.145787 0.868954 0.214777
O O23 0.750000 0.386509 0.711984
#
# Coordination Sequence:
#
# PCOD8315026 Si02
#       8
#    16  16  16  16  16  16  16  16
#     4   8  13  22  39  64  92 121 151 179 206 240
#     4  10  20  32  46  62  82 110 141 175 214 256
#     4  10  19  30  45  62  78 100 132 169 210 255
#     4   9  18  31  46  65  86 107 134 169 211 258
#     4   9  18  31  46  65  86 110 143 180 221 265
#     4   9  17  29  44  60  78  98 121 156 202 251
#     4   9  17  28  43  64  90 120 149 176 209 250
#     4  10  19  29  43  63  86 113 143 174 205 239
#
# _framework density 15.293528
#
# number of rings (size 3 to 8) (size 9 to 14) (size 15 to 20)
#    0.000    2.750    0.000    3.375    0.000    5.375 
#    0.000    1.875    0.000    0.375    0.000    1.750 
#    0.000    0.000    0.000    0.000    0.000   15.750 
#
# Total GULP energy -1585947.866033 kJ/mol
# GULP energy per Si atom -12390.217703 kJ/mol
# Density = 1.525872 g / cm^3
# Si number density = 15.293528 Si / 1000 Ang^3
#
#
#
# Elastic Constant Matrix: (Units=GPa)
#
#
# Indices 1 2 3 4 5 6 
#
# 1 69.6957 42.6380 20.0019 0.0000 0.0000 0.0000
# 2 42.6380 69.6957 20.0019 0.0000 0.0000 0.0000
# 3 20.0019 20.0019 59.0863 0.0000 0.0000 0.0000
# 4 0.0000 0.0000 0.0000 17.7885 0.0000 0.0000
# 5 0.0000 0.0000 0.0000 0.0000 17.7885 0.0000
# 6 0.0000 0.0000 0.0000 0.0000 0.0000 25.0253
#
#
#
# Elastic Compliance Matrix: (Units=1/GPa)
#
#
# Indices 1 2 3 4 5 6 
#
# 1 0.023540 -0.013418 -0.003427 0.000000 0.000000 0.000000
# 2 -0.013418 0.023540 -0.003427 0.000000 0.000000 0.000000
# 3 -0.003427 -0.003427 0.019244 0.000000 0.000000 0.000000
# 4 0.000000 0.000000 0.000000 0.056216 0.000000 0.000000
# 5 0.000000 0.000000 0.000000 0.000000 0.056216 0.000000
# 6 0.000000 0.000000 0.000000 0.000000 0.000000 0.039959
#
#
# Mechanical properties :
#
#
# Convention : Reuss Voigt Hill
#
# Bulk Modulus (GPa) = 38.78595 40.41794 39.60195
# Shear Modulus (GPa) = 18.66698 19.84286 19.25492
#
# Velocity S-wave (km/s) = 3.49747 3.60595 3.55212
# Velocity P-wave (km/s) = 6.45955 6.61987 6.54020
#
# Compressibility (1/GPa) = 0.02578253
#
# Stress axis : x y z
#
# Youngs Moduli (GPa) = 42.48064 42.48064 51.96332
#
# Poissons Ratio (x) = 0.57000 0.17806
# Poissons Ratio (y) = 0.57000 0.17806
# Poissons Ratio (z) = 0.14556 0.14556
#
# Static dielectric constant tensor:
#      x y z
#    x 2.926330 0.000000 0.000000 
#    y 0.000000 2.926330 0.000000 
#    z 0.000000 0.000000 2.957260 
# 
# 
# High freq. dielectric constant tensor:
#      x y z
#    x 1.576460 0.000000 0.000000 
#    y 0.000000 1.576460 0.000000 
#    z 0.000000 0.000000 1.574020 
# 
# From -- ./inp_files/7258.got.cif
#   From: 2010.03.12/outbox.cif.g09.slc.cpg/sg129_4_cif.got.tgz:7258.got - 2010.04.06 17:19:44.
