data_PCOD8315544
_publ_section_title
;
Structure prediction by ZEFSAII (Michael W. Deem and Ramdas Pophale) SiO2 
 PCOD8315544
Probable space group: P 4/N C C
;
_chemical_formula_sum "Si O2"
_cell_formula_units_Z 112
_cell_length_a 15.144754
_cell_length_b 15.144754
_cell_length_c 27.792646
_cell_angle_alpha 90.000000
_cell_angle_beta 90.000000
_cell_angle_gamma 90.000000
_cell_volume 6374.620610
_symmetry_space_group_name_H-M "P 4/N C C"
_symmetry_group_IT_number 130
_symmetry_cell_setting 'tetragonal'
loop_
_space_group_symop_operation_xyz
x,y,z
1/2-y,x,z
1/2-x,1/2-y,z
y,1/2-x,z
1/2+x,-y,1/2-z
-x,1/2+y,1/2-z
1/2+y,1/2+x,1/2-z
-y,-x,1/2-z
-x,-y,-z
1/2+y,-x,-z
1/2+x,1/2+y,-z
-y,1/2+x,-z
1/2-x,y,1/2+z
x,1/2-y,1/2+z
1/2-y,1/2-x,1/2+z
y,x,1/2+z
loop_
_atom_site_type_symbol
_atom_site_label
_atom_site_fract_x
_atom_site_fract_y
_atom_site_fract_z
Si Si1 0.637687 0.842160 0.932780
Si Si2 0.458628 0.068419 0.153300
Si Si3 0.718778 0.989782 0.678348
Si Si4 0.641151 0.654205 0.540142
Si Si5 0.366724 0.592614 0.697259
Si Si6 0.314268 0.546899 0.228763
Si Si7 0.064745 0.107298 0.865722
O O1 0.628194 0.737967 0.924893
O O2 0.573721 0.889096 0.895803
O O3 0.608043 0.870770 0.986627
O O4 0.475498 0.142578 0.193469
O O5 0.385366 0.999708 0.171187
O O6 0.551239 0.022316 0.142924
O O7 0.639643 0.917994 0.673999
O O8 0.791124 0.964656 0.638610
O O9 0.674987 0.087319 0.669058
O O10 0.766233 0.988807 0.730213
O O11 0.742426 0.628142 0.547430
O O12 0.586723 0.601642 0.580813
O O13 0.411357 0.588644 0.750000
O O14 0.260763 0.604665 0.700983
O O15 0.386794 0.613207 0.250000
#
# Coordination Sequence:
#
# PCOD8315544 Si02
#       7
#    16  16  16  16  16  16  16
#     4   9  19  36  56  78 104 140 177 214 271 334
#     4  11  21  34  54  79 112 141 178 224 268 311
#     4  10  22  34  53  80 108 139 179 223 268 318
#     4   9  17  32  56  79 105 136 172 222 271 318
#     4   9  21  36  52  74 109 143 180 221 266 306
#     4  11  21  36  55  75 106 152 187 217 258 320
#     4  11  20  35  55  81 108 137 177 226 275 315
#
# _framework density 17.569673000000002
#
# number of rings (size 3 to 8) (size 9 to 14) (size 15 to 20)
#    0.000    2.000    2.857    2.143    4.000    3.429 
#    0.000    0.000    0.000    0.000    0.000    0.000 
#    0.000    0.000    0.000    0.000    0.000    0.000 
#
# Total GULP energy -1388346.939186 kJ/mol
# GULP energy per Si atom -12395.954814 kJ/mol
# Density = 1.752968 g / cm^3
# Si number density = 17.569673 Si / 1000 Ang^3
#
#
#
# Elastic Constant Matrix: (Units=GPa)
#
#
# Indices 1 2 3 4 5 6 
#
# 1 66.2057 36.4358 46.3576 0.0000 0.0000 0.0000
# 2 36.4358 66.2058 46.3576 0.0000 0.0000 0.0000
# 3 46.3576 46.3576 105.8789 0.0000 0.0000 0.0000
# 4 0.0000 0.0000 0.0000 30.0497 0.0000 0.0000
# 5 0.0000 0.0000 0.0000 0.0000 30.0496 0.0000
# 6 0.0000 0.0000 0.0000 0.0000 0.0000 13.0225
#
#
#
# Elastic Compliance Matrix: (Units=1/GPa)
#
#
# Indices 1 2 3 4 5 6 
#
# 1 0.024854 -0.008737 -0.007056 0.000000 0.000000 0.000000
# 2 -0.008737 0.024854 -0.007056 0.000000 0.000000 0.000000
# 3 -0.007056 -0.007056 0.015624 0.000000 0.000000 0.000000
# 4 0.000000 0.000000 0.000000 0.033278 0.000000 0.000000
# 5 0.000000 0.000000 0.000000 0.000000 0.033278 0.000000
# 6 0.000000 0.000000 0.000000 0.000000 0.000000 0.076790
#
#
# Mechanical properties :
#
#
# Convention : Reuss Voigt Hill
#
# Bulk Modulus (GPa) = 50.93878 55.17693 53.05785
# Shear Modulus (GPa) = 19.16281 21.90033 20.53157
#
# Velocity S-wave (km/s) = 3.30612 3.53439 3.42216
# Velocity P-wave (km/s) = 6.60525 6.93748 6.77340
#
# Compressibility (1/GPa) = 0.01963141
#
# Stress axis : x y z
#
# Youngs Moduli (GPa) = 40.23527 40.23541 64.00458
#
# Poissons Ratio (x) = 0.35154 0.45165
# Poissons Ratio (y) = 0.35154 0.45164
# Poissons Ratio (z) = 0.28392 0.28392
#
# Static dielectric constant tensor:
#      x y z
#    x 3.223580 0.000000 0.000000 
#    y 0.000000 3.223580 0.000000 
#    z 0.000000 0.000000 3.283310 
# 
# 
# High freq. dielectric constant tensor:
#      x y z
#    x 1.671770 0.000000 0.000000 
#    y 0.000000 1.671770 0.000000 
#    z 0.000000 0.000000 1.673430 
# 
# From -- ./inp_files/4268.got.cif
#   From: 2010.03.12/outbox.cif.g09.slc.cpg/sg130_3_cif.got.tgz:4268.got - 2010.04.06 17:30:23.
