data_PCOD8315325
_publ_section_title
;
Structure prediction by ZEFSAII (Michael W. Deem and Ramdas Pophale) SiO2 
 PCOD8315325
Probable space group: P 4/N M M
;
_chemical_formula_sum "Si O2"
_cell_formula_units_Z 56
_cell_length_a 13.155275
_cell_length_b 13.155275
_cell_length_c 17.890942
_cell_angle_alpha 90.000000
_cell_angle_beta 90.000000
_cell_angle_gamma 90.000000
_cell_volume 3096.228971
_symmetry_space_group_name_H-M "P 4/N M M"
_symmetry_group_IT_number 129
_symmetry_cell_setting 'tetragonal'
loop_
_space_group_symop_operation_xyz
x,y,z
1/2-y,x,z
1/2-x,1/2-y,z
y,1/2-x,z
1/2+x,-y,-z
-x,1/2+y,-z
1/2+y,1/2+x,-z
-y,-x,-z
-x,-y,-z
1/2+y,-x,-z
1/2+x,1/2+y,-z
-y,1/2+x,-z
1/2-x,y,z
x,1/2-y,z
1/2-y,1/2-x,z
y,x,z
loop_
_atom_site_type_symbol
_atom_site_label
_atom_site_fract_x
_atom_site_fract_y
_atom_site_fract_z
Si Si1 0.530774 0.369005 0.153571
Si Si2 0.465941 0.632381 0.289461
Si Si3 0.133455 0.633455 0.000000
Si Si4 0.034599 0.867845 0.570075
O O1 0.513595 0.250000 0.163256
O O2 0.423753 0.423753 0.170110
O O3 0.615151 0.407674 0.211581
O O4 0.566524 0.398530 0.070671
O O5 0.492918 0.750000 0.298427
O O6 0.571883 0.571883 0.292436
O O7 0.391822 0.596912 0.355278
O O8 0.114655 0.750000 0.021811
O O9 0.105024 0.894977 0.500000
O O10 0.005798 0.750000 0.568187
O O11 0.929293 0.929293 0.567155
#
# Coordination Sequence:
#
# PCOD8315325 Si02
#       4
#    16  16   8  16
#     4  10  20  33  50  73 101 133 169 208 249 295
#     4  10  21  36  54  77 103 131 166 207 251 301
#     4   9  17  30  50  74  97 125 164 208 253 299
#     4  10  21  36  54  78 106 136 172 211 251 297
#
# _framework density 18.086517000000001
#
# number of rings (size 3 to 8) (size 9 to 14) (size 15 to 20)
#    0.000    2.143    0.000    3.000    0.000    5.714 
#    0.000    0.000    0.000   10.286    0.000    4.000 
#    0.000    0.000    0.000    0.000    0.000    0.000 
#
# Total GULP energy -694602.520708 kJ/mol
# GULP energy per Si atom -12403.616441 kJ/mol
# Density = 1.804535 g / cm^3
# Si number density = 18.086517 Si / 1000 Ang^3
#
#
#
# Elastic Constant Matrix: (Units=GPa)
#
#
# Indices 1 2 3 4 5 6 
#
# 1 120.5525 54.0193 47.4558 0.0000 0.0000 0.0000
# 2 54.0193 120.5516 47.4548 0.0000 0.0000 0.0000
# 3 47.4558 47.4548 95.4569 0.0000 0.0000 0.0000
# 4 0.0000 0.0000 0.0000 18.2599 0.0000 0.0000
# 5 0.0000 0.0000 0.0000 0.0000 18.2616 0.0000
# 6 0.0000 0.0000 0.0000 0.0000 0.0000 14.6483
#
#
#
# Elastic Compliance Matrix: (Units=1/GPa)
#
#
# Indices 1 2 3 4 5 6 
#
# 1 0.011440 -0.003590 -0.003903 0.000000 0.000000 0.000000
# 2 -0.003590 0.011440 -0.003902 0.000000 0.000000 0.000000
# 3 -0.003903 -0.003902 0.014356 0.000000 0.000000 0.000000
# 4 0.000000 0.000000 0.000000 0.054765 0.000000 0.000000
# 5 0.000000 0.000000 0.000000 0.000000 0.054760 0.000000
# 6 0.000000 0.000000 0.000000 0.000000 0.000000 0.068267
#
#
# Mechanical properties :
#
#
# Convention : Reuss Voigt Hill
#
# Bulk Modulus (GPa) = 69.22325 70.49119 69.85722
# Shear Modulus (GPa) = 20.60719 22.74271 21.67495
#
# Velocity S-wave (km/s) = 3.37911 3.54989 3.46555
# Velocity P-wave (km/s) = 7.31991 7.47404 7.39738
#
# Compressibility (1/GPa) = 0.01444601
#
# Stress axis : x y z
#
# Youngs Moduli (GPa) = 87.41159 87.41167 69.65654
#
# Poissons Ratio (x) = 0.31381 0.27184
# Poissons Ratio (y) = 0.31381 0.27183
# Poissons Ratio (z) = 0.34114 0.34112
#
# Static dielectric constant tensor:
#      x y z
#    x 3.185440 0.000000 0.000000 
#    y 0.000000 3.185440 0.000000 
#    z 0.000000 0.000000 3.564450 
# 
# 
# High freq. dielectric constant tensor:
#      x y z
#    x 1.695640 0.000000 0.000000 
#    y 0.000000 1.695640 0.000000 
#    z 0.000000 0.000000 1.722290 
# 
# From -- ./inp_files/6182.got.cif
#   From: 2010.03.12/outbox.cif.g09.slc.cpg/sg129_4_cif.got.tgz:6182.got - 2010.04.06 17:19:44.
