data_PCOD8315908
_publ_section_title
;
Structure prediction by ZEFSAII (Michael W. Deem and Ramdas Pophale) SiO2 
 PCOD8315908
Probable space group: P 42/M M C
;
_chemical_formula_sum "Si O2"
_cell_formula_units_Z 104
_cell_length_a 27.477214
_cell_length_b 27.477214
_cell_length_c 8.998610
_cell_angle_alpha 90.000000
_cell_angle_beta 90.000000
_cell_angle_gamma 90.000000
_cell_volume 6793.926157
_symmetry_space_group_name_H-M "P 42/M M C"
_symmetry_group_IT_number 131
_symmetry_cell_setting 'tetragonal'
loop_
_space_group_symop_operation_xyz
x,y,z
-x,-y,z
-y,x,1/2+z
y,-x,1/2+z
-x,y,-z
x,-y,-z
y,x,1/2-z
-y,-x,1/2-z
-x,-y,-z
x,y,-z
y,-x,1/2-z
-y,x,1/2-z
x,-y,z
-x,y,z
-y,-x,1/2+z
y,x,1/2+z
loop_
_atom_site_type_symbol
_atom_site_label
_atom_site_fract_x
_atom_site_fract_y
_atom_site_fract_z
Si Si1 0.500000 0.942515 0.162265
Si Si2 0.141295 0.650342 0.175763
Si Si3 0.399405 0.721174 0.174098
Si Si4 0.805563 0.446701 0.827249
Si Si5 0.055930 0.393843 0.676406
Si Si6 0.554757 0.622573 0.825531
Si Si7 0.699971 0.228641 0.823085
O O1 0.448216 0.929194 0.241093
O O2 0.500000 0.000000 0.139559
O O3 0.500000 0.917569 0.000000
O O4 0.159572 0.596722 0.222889
O O5 0.086771 0.648984 0.242626
O O6 0.174738 0.691190 0.254856
O O7 0.140930 0.660084 0.000000
O O8 0.440896 0.754286 0.246116
O O9 0.410080 0.666459 0.226599
O O10 0.345367 0.737220 0.224455
O O11 0.405315 0.727004 0.000000
O O12 0.828022 0.500000 0.786276
O O13 0.794691 0.442780 0.000000
O O14 0.064977 0.392391 0.500000
O O15 0.000000 0.382424 0.714139
O O16 0.573312 0.573312 0.750000
O O17 0.500000 0.633133 0.772319
O O18 0.557001 0.615200 0.000000
O O19 0.748401 0.251599 0.750000
O O20 0.706441 0.224810 0.000000
#
# Coordination Sequence:
#
# PCOD8315908 Si02
#       7
#     8  16  16  16  16  16  16
#     4   7  12  24  41  59  79 107 143 181 219 257
#     4  10  20  31  44  63  88 115 145 177 214 258
#     4   9  18  32  49  67  83 100 124 154 189 235
#     4   9  18  30  42  59  85 112 134 162 200 241
#     4   9  17  30  46  63  85 114 150 189 224 259
#     4  10  21  35  49  64  80  96 116 144 177 218
#     4  10  19  32  50  69  89 110 135 166 206 253
#
# _framework density 15.307791
#
# number of rings (size 3 to 8) (size 9 to 14) (size 15 to 20)
#    0.000    2.692    0.000    2.769    1.077    3.538 
#    0.000    0.769    0.000    1.385    0.000    0.000 
#    0.000    0.000    0.000    0.000    0.000    0.000 
#
# Total GULP energy -1288881.158420 kJ/mol
# GULP energy per Si atom -12393.088062 kJ/mol
# Density = 1.527295 g / cm^3
# Si number density = 15.307791 Si / 1000 Ang^3
#
#
#
# Elastic Constant Matrix: (Units=GPa)
#
#
# Indices 1 2 3 4 5 6 
#
# 1 59.2981 36.0626 25.9600 0.0000 0.0000 0.0000
# 2 36.0626 59.2981 25.9600 0.0000 0.0000 0.0000
# 3 25.9600 25.9600 39.1797 0.0000 0.0000 0.0000
# 4 0.0000 0.0000 0.0000 20.6640 0.0000 0.0000
# 5 0.0000 0.0000 0.0000 0.0000 20.6640 0.0000
# 6 0.0000 0.0000 0.0000 0.0000 0.0000 20.6984
#
#
#
# Elastic Compliance Matrix: (Units=1/GPa)
#
#
# Indices 1 2 3 4 5 6 
#
# 1 0.029721 -0.013317 -0.010869 0.000000 0.000000 0.000000
# 2 -0.013317 0.029721 -0.010869 0.000000 0.000000 0.000000
# 3 -0.010869 -0.010869 0.039927 0.000000 0.000000 0.000000
# 4 0.000000 0.000000 0.000000 0.048393 0.000000 0.000000
# 5 0.000000 0.000000 0.000000 0.000000 0.048393 0.000000
# 6 0.000000 0.000000 0.000000 0.000000 0.000000 0.048313
#
#
# Mechanical properties :
#
#
# Convention : Reuss Voigt Hill
#
# Bulk Modulus (GPa) = 34.17801 37.08238 35.63020
# Shear Modulus (GPa) = 15.41627 17.05815 16.23721
#
# Velocity S-wave (km/s) = 3.17691 3.34180 3.26040
# Velocity P-wave (km/s) = 5.98604 6.25838 6.12372
#
# Compressibility (1/GPa) = 0.02925858
#
# Stress axis : x y z
#
# Youngs Moduli (GPa) = 33.64618 33.64618 25.04555
#
# Poissons Ratio (x) = 0.44805 0.27223
# Poissons Ratio (y) = 0.44805 0.27223
# Poissons Ratio (z) = 0.36571 0.36571
#
# Static dielectric constant tensor:
#      x y z
#    x 2.828580 0.000000 0.000000 
#    y 0.000000 2.828580 0.000000 
#    z 0.000000 0.000000 2.820120 
# 
# 
# High freq. dielectric constant tensor:
#      x y z
#    x 1.556720 0.000000 0.000000 
#    y 0.000000 1.556720 0.000000 
#    z 0.000000 0.000000 1.585560 
# 
# From -- ./inp_files/2572.got.cif
#   From: 2010.03.12/outbox.cif.g09.slc.cpg/sg131_2_cif.got.tgz:2572.got - 2010.04.06 17:36:35.
