data_PCOD8315127
_publ_section_title
;
Structure prediction by ZEFSAII (Michael W. Deem and Ramdas Pophale) SiO2 
 PCOD8315127
Probable space group: P 4/N M M
;
_chemical_formula_sum "Si O2"
_cell_formula_units_Z 96
_cell_length_a 16.052822
_cell_length_b 16.052822
_cell_length_c 20.377955
_cell_angle_alpha 90.000000
_cell_angle_beta 90.000000
_cell_angle_gamma 90.000000
_cell_volume 5251.258277
_symmetry_space_group_name_H-M "P 4/N M M"
_symmetry_group_IT_number 129
_symmetry_cell_setting 'tetragonal'
loop_
_space_group_symop_operation_xyz
x,y,z
1/2-y,x,z
1/2-x,1/2-y,z
y,1/2-x,z
1/2+x,-y,-z
-x,1/2+y,-z
1/2+y,1/2+x,-z
-y,-x,-z
-x,-y,-z
1/2+y,-x,-z
1/2+x,1/2+y,-z
-y,1/2+x,-z
1/2-x,y,z
x,1/2-y,z
1/2-y,1/2-x,z
y,x,z
loop_
_atom_site_type_symbol
_atom_site_label
_atom_site_fract_x
_atom_site_fract_y
_atom_site_fract_z
Si Si1 0.482091 0.344460 0.119685
Si Si2 0.842670 0.980260 0.271944
Si Si3 0.406394 0.656472 0.148107
Si Si4 0.904142 0.457205 0.400639
Si Si5 0.026492 0.158261 0.968439
Si Si6 0.479766 0.157950 0.467807
O O1 0.448271 0.250000 0.132096
O O2 0.413111 0.413111 0.145330
O O3 0.573642 0.349101 0.154676
O O4 0.497837 0.361703 0.043086
O O5 0.750000 0.944874 0.278859
O O6 0.902157 0.902157 0.279444
O O7 0.854816 0.022706 0.202097
O O8 0.858762 0.047400 0.330232
O O9 0.363815 0.750000 0.156740
O O10 0.444761 0.652316 0.075687
O O11 0.841676 0.487976 0.457246
O O12 0.979783 0.520218 0.396924
O O13 0.944110 0.368486 0.420005
O O14 0.066491 0.250000 0.963475
O O15 0.094090 0.094090 0.941099
O O16 0.451739 0.250000 0.447991
O O17 0.400517 0.099484 0.458465
#
# Coordination Sequence:
#
# PCOD8315127 Si02
#       6
#    16  16  16  16  16  16
#     4  10  20  34  53  74  97 128 165 208 256 300
#     4  10  19  31  49  72  99 130 162 196 234 281
#     4  10  20  33  50  73 100 131 166 200 239 293
#     4   8  16  30  46  66  93 128 163 187 219 274
#     4   9  17  29  46  69  97 129 165 205 248 295
#     4   9  16  28  48  71  95 122 153 192 234 276
#
# _framework density 18.281333
#
# number of rings (size 3 to 8) (size 9 to 14) (size 15 to 20)
#    0.000    2.667    0.000    3.500    0.000    2.333 
#    0.000    2.500    0.000   18.500    0.000    0.000 
#    0.000    4.000    0.000    0.000    0.000    0.167 
#
# Total GULP energy -1189342.887839 kJ/mol
# GULP energy per Si atom -12388.988415 kJ/mol
# Density = 1.823972 g / cm^3
# Si number density = 18.281333 Si / 1000 Ang^3
#
#
#
# Elastic Constant Matrix: (Units=GPa)
#
#
# Indices 1 2 3 4 5 6 
#
# 1 88.4031 52.5073 22.5359 0.0000 0.0000 0.0000
# 2 52.5073 88.4031 22.5359 0.0000 0.0000 0.0000
# 3 22.5359 22.5359 48.8227 0.0000 0.0000 0.0000
# 4 0.0000 0.0000 0.0000 16.2185 0.0000 0.0000
# 5 0.0000 0.0000 0.0000 0.0000 16.2185 0.0000
# 6 0.0000 0.0000 0.0000 0.0000 0.0000 -7.8787
#
#
#
# Elastic Compliance Matrix: (Units=1/GPa)
#
#
# Indices 1 2 3 4 5 6 
#
# 1 0.018092 -0.009766 -0.003843 0.000000 0.000000 0.000000
# 2 -0.009766 0.018092 -0.003843 0.000000 0.000000 0.000000
# 3 -0.003843 -0.003843 0.024030 0.000000 0.000000 0.000000
# 4 0.000000 0.000000 0.000000 0.061658 0.000000 0.000000
# 5 0.000000 0.000000 0.000000 0.000000 0.061658 0.000000
# 6 0.000000 0.000000 0.000000 0.000000 0.000000 -0.126925
#
#
# Mechanical properties :
#
#
# Convention : Reuss Voigt Hill
#
# Bulk Modulus (GPa) = 39.51085 46.75412 43.13249
# Shear Modulus (GPa) = 50.02634 13.44830 31.73732
#
# Velocity S-wave (km/s) = 5.23680 2.71519 4.17111
# Velocity P-wave (km/s) = 7.63054 5.95483 6.84416
#
# Compressibility (1/GPa) = 0.02530950
#
# Stress axis : x y z
#
# Youngs Moduli (GPa) = 55.27242 55.27242 41.61426
#
# Poissons Ratio (x) = 0.53980 0.15993
# Poissons Ratio (y) = 0.53980 0.15993
# Poissons Ratio (z) = 0.21242 0.21242
#
# Static dielectric constant tensor:
#      x y z
#    x 3.342540 0.000000 0.000000 
#    y 0.000000 3.342540 0.000000 
#    z 0.000000 0.000000 3.513500 
# 
# 
# High freq. dielectric constant tensor:
#      x y z
#    x 1.696560 0.000000 0.000000 
#    y 0.000000 1.696560 0.000000 
#    z 0.000000 0.000000 1.695950 
# 
# From -- ./inp_files/6507.got.cif
#   From: 2010.03.12/outbox.cif.g09.slc.cpg/sg129_4_cif.got.tgz:6507.got - 2010.04.06 17:19:44.
