data_PCOD8315453
_publ_section_title
;
Structure prediction by ZEFSAII (Michael W. Deem and Ramdas Pophale) SiO2 
 PCOD8315453
Probable space group: P 4/N M M
;
_chemical_formula_sum "Si O2"
_cell_formula_units_Z 112
_cell_length_a 17.951623
_cell_length_b 17.951623
_cell_length_c 22.592241
_cell_angle_alpha 90.000000
_cell_angle_beta 90.000000
_cell_angle_gamma 90.000000
_cell_volume 7280.592943
_symmetry_space_group_name_H-M "P 4/N M M"
_symmetry_group_IT_number 129
_symmetry_cell_setting 'tetragonal'
loop_
_space_group_symop_operation_xyz
x,y,z
1/2-y,x,z
1/2-x,1/2-y,z
y,1/2-x,z
1/2+x,-y,-z
-x,1/2+y,-z
1/2+y,1/2+x,-z
-y,-x,-z
-x,-y,-z
1/2+y,-x,-z
1/2+x,1/2+y,-z
-y,1/2+x,-z
1/2-x,y,z
x,1/2-y,z
1/2-y,1/2-x,z
y,x,z
loop_
_atom_site_type_symbol
_atom_site_label
_atom_site_fract_x
_atom_site_fract_y
_atom_site_fract_z
Si Si1 0.665290 0.334758 0.673557
Si Si2 0.834134 0.405909 0.446237
Si Si3 0.053135 0.932853 0.134880
Si Si4 0.335756 0.046683 0.632475
Si Si5 0.082299 0.535922 0.729538
Si Si6 0.446484 0.834589 0.026682
Si Si7 0.458143 0.163688 0.084342
O O1 0.750000 0.346792 0.693135
O O2 0.638395 0.250000 0.691268
O O3 0.658677 0.342286 0.602816
O O4 0.618137 0.401387 0.703857
O O5 0.890332 0.390332 0.500000
O O6 0.750000 0.407612 0.471021
O O7 0.855209 0.484014 0.415917
O O8 0.041112 0.902963 0.200873
O O9 0.038215 0.862872 0.092764
O O10 0.133091 0.973797 0.125508
O O11 0.993190 0.993190 0.115491
O O12 0.250000 0.067545 0.633302
O O13 0.379729 0.120272 0.613721
O O14 0.358958 0.019126 0.698022
O O15 0.998148 0.501853 0.718079
O O16 0.422212 0.750000 0.031065
O O17 0.376625 0.876625 0.000000
O O18 0.518480 0.845266 0.984522
O O19 0.444421 0.250000 0.101092
O O20 0.381825 0.118176 0.095383
#
# Coordination Sequence:
#
# PCOD8315453 Si02
#       7
#    16  16  16  16  16  16  16
#     4   9  17  28  42  62  89 117 142 172 212 259
#     4   9  16  26  42  64  88 113 142 175 212 254
#     4   9  17  29  45  62  80 107 140 170 203 245
#     4   9  18  31  45  63  88 116 146 180 213 246
#     4   9  17  29  44  62  85 111 140 176 213 247
#     4   9  17  28  42  60  82 107 135 168 204 244
#     4   9  17  29  44  62  83 105 132 167 205 246
#
# _framework density 15.383362
#
# number of rings (size 3 to 8) (size 9 to 14) (size 15 to 20)
#    0.000    3.000    0.000    2.143    0.000    4.857 
#    0.000    0.000    0.000    0.000    0.000    0.000 
#    0.000    3.714    0.000    0.000    0.000    7.143 
#
# Total GULP energy -1387907.367183 kJ/mol
# GULP energy per Si atom -12392.030064 kJ/mol
# Density = 1.534835 g / cm^3
# Si number density = 15.383362 Si / 1000 Ang^3
#
#
#
# Elastic Constant Matrix: (Units=GPa)
#
#
# Indices 1 2 3 4 5 6 
#
# 1 78.2891 43.2748 38.8168 0.0000 0.0000 0.0000
# 2 43.2748 78.2891 38.8168 0.0000 0.0000 0.0000
# 3 38.8168 38.8168 90.6438 0.0000 0.0000 0.0000
# 4 0.0000 0.0000 0.0000 15.0856 0.0000 0.0000
# 5 0.0000 0.0000 0.0000 0.0000 15.0856 0.0000
# 6 0.0000 0.0000 0.0000 0.0000 0.0000 23.0807
#
#
#
# Elastic Compliance Matrix: (Units=1/GPa)
#
#
# Indices 1 2 3 4 5 6 
#
# 1 0.019941 -0.008619 -0.004849 0.000000 0.000000 0.000000
# 2 -0.008619 0.019941 -0.004849 0.000000 0.000000 0.000000
# 3 -0.004849 -0.004849 0.015185 0.000000 0.000000 0.000000
# 4 0.000000 0.000000 0.000000 0.066289 0.000000 0.000000
# 5 0.000000 0.000000 0.000000 0.000000 0.066289 0.000000
# 6 0.000000 0.000000 0.000000 0.000000 0.000000 0.043326
#
#
# Mechanical properties :
#
#
# Convention : Reuss Voigt Hill
#
# Bulk Modulus (GPa) = 54.24375 54.33764 54.29069
# Shear Modulus (GPa) = 18.26498 19.07127 18.66812
#
# Velocity S-wave (km/s) = 3.44949 3.52480 3.48735
# Velocity P-wave (km/s) = 7.15564 7.20865 7.18219
#
# Compressibility (1/GPa) = 0.01843531
#
# Stress axis : x y z
#
# Youngs Moduli (GPa) = 50.14738 50.14738 65.85442
#
# Poissons Ratio (x) = 0.43220 0.31931
# Poissons Ratio (y) = 0.43220 0.31931
# Poissons Ratio (z) = 0.24315 0.24315
#
# Static dielectric constant tensor:
#      x y z
#    x 2.925710 0.000000 0.000000 
#    y 0.000000 2.925710 0.000000 
#    z 0.000000 0.000000 2.862790 
# 
# 
# High freq. dielectric constant tensor:
#      x y z
#    x 1.581120 0.000000 0.000000 
#    y 0.000000 1.581120 0.000000 
#    z 0.000000 0.000000 1.581030 
# 
# From -- ./inp_files/6654.got.cif
#   From: 2010.03.12/outbox.cif.g09.slc.cpg/sg129_4_cif.got.tgz:6654.got - 2010.04.06 17:19:44.
