data_PCOD8315048
_publ_section_title
;
Structure prediction by ZEFSAII (Michael W. Deem and Ramdas Pophale) SiO2 
 PCOD8315048
Probable space group: P 4/N M M
;
_chemical_formula_sum "Si O2"
_cell_formula_units_Z 104
_cell_length_a 13.906586
_cell_length_b 13.906586
_cell_length_c 33.157747
_cell_angle_alpha 90.000000
_cell_angle_beta 90.000000
_cell_angle_gamma 90.000000
_cell_volume 6412.480615
_symmetry_space_group_name_H-M "P 4/N M M"
_symmetry_group_IT_number 129
_symmetry_cell_setting 'tetragonal'
loop_
_space_group_symop_operation_xyz
x,y,z
1/2-y,x,z
1/2-x,1/2-y,z
y,1/2-x,z
1/2+x,-y,-z
-x,1/2+y,-z
1/2+y,1/2+x,-z
-y,-x,-z
-x,-y,-z
1/2+y,-x,-z
1/2+x,1/2+y,-z
-y,1/2+x,-z
1/2-x,y,z
x,1/2-y,z
1/2-y,1/2-x,z
y,x,z
loop_
_atom_site_type_symbol
_atom_site_label
_atom_site_fract_x
_atom_site_fract_y
_atom_site_fract_z
Si Si1 0.359508 0.513136 0.227408
Si Si2 0.017321 0.863018 0.077493
Si Si3 0.520224 0.364089 0.619855
Si Si4 0.363907 0.643284 0.544352
Si Si5 0.360700 0.639301 0.000000
Si Si6 0.019139 0.637882 0.681173
Si Si7 0.862049 0.139936 0.153407
O O1 0.250000 0.486192 0.219704
O O2 0.415026 0.415026 0.220242
O O3 0.375152 0.552989 0.272581
O O4 0.395633 0.591551 0.195264
O O5 0.997930 0.750000 0.079098
O O6 0.077253 0.892701 0.038194
O O7 0.076189 0.899379 0.116360
O O8 0.914750 0.914750 0.076492
O O9 0.501933 0.250000 0.621855
O O10 0.418215 0.418215 0.624633
O O11 0.567925 0.398484 0.577862
O O12 0.593878 0.394366 0.655003
O O13 0.395083 0.604918 0.500000
O O14 0.250000 0.652160 0.545419
O O15 0.407740 0.750000 0.552829
O O16 0.250000 0.621455 0.011308
O O17 0.002541 0.750000 0.670430
O O18 0.919504 0.580497 0.672823
O O19 0.750000 0.126329 0.159453
O O20 0.888489 0.250000 0.143595
#
# Coordination Sequence:
#
# PCOD8315048 Si02
#       7
#    16  16  16  16   8  16  16
#     4   9  17  29  45  66  92 118 143 173 210 257
#     4  10  19  30  45  64  87 115 144 175 212 254
#     4  10  20  32  46  65  89 119 155 192 228 265
#     4   8  14  26  45  68  91 113 140 178 223 268
#     4   9  17  30  48  68  87 107 136 176 218 257
#     4   9  18  31  47  69  94 119 148 181 221 270
#     4   9  17  29  45  65  87 112 145 183 219 250
#
# _framework density 16.218373
#
# number of rings (size 3 to 8) (size 9 to 14) (size 15 to 20)
#    0.000    2.846    0.000    2.077    0.000    4.308 
#    0.000    3.077    0.000    0.000    0.000    0.000 
#    0.000   18.462    0.000    0.000    0.000    0.000 
#
# Total GULP energy -1289308.393805 kJ/mol
# GULP energy per Si atom -12397.196094 kJ/mol
# Density = 1.618146 g / cm^3
# Si number density = 16.218373 Si / 1000 Ang^3
#
#
#
# Elastic Constant Matrix: (Units=GPa)
#
#
# Indices 1 2 3 4 5 6 
#
# 1 73.1985 43.5865 53.7830 0.0000 0.0000 0.0000
# 2 43.5865 73.1990 53.7830 0.0000 0.0000 0.0000
# 3 53.7830 53.7830 124.2431 0.0000 0.0000 0.0000
# 4 0.0000 0.0000 0.0000 23.2480 0.0000 0.0000
# 5 0.0000 0.0000 0.0000 0.0000 23.2479 0.0000
# 6 0.0000 0.0000 0.0000 0.0000 0.0000 22.3313
#
#
#
# Elastic Compliance Matrix: (Units=1/GPa)
#
#
# Indices 1 2 3 4 5 6 
#
# 1 0.024005 -0.009765 -0.006165 0.000000 0.000000 0.000000
# 2 -0.009765 0.024005 -0.006164 0.000000 0.000000 0.000000
# 3 -0.006165 -0.006164 0.013386 0.000000 0.000000 0.000000
# 4 0.000000 0.000000 0.000000 0.043014 0.000000 0.000000
# 5 0.000000 0.000000 0.000000 0.000000 0.043015 0.000000
# 6 0.000000 0.000000 0.000000 0.000000 0.000000 0.044780
#
#
# Mechanical properties :
#
#
# Convention : Reuss Voigt Hill
#
# Bulk Modulus (GPa) = 58.10960 63.66063 60.88512
# Shear Modulus (GPa) = 20.65013 21.73132 21.19072
#
# Velocity S-wave (km/s) = 3.57214 3.66446 3.61860
# Velocity P-wave (km/s) = 7.27467 7.56583 7.42168
#
# Compressibility (1/GPa) = 0.01720886
#
# Stress axis : x y z
#
# Youngs Moduli (GPa) = 41.65737 41.65780 74.70589
#
# Poissons Ratio (x) = 0.40677 0.46053
# Poissons Ratio (y) = 0.40677 0.46052
# Poissons Ratio (z) = 0.25680 0.25680
#
# Static dielectric constant tensor:
#      x y z
#    x 2.919670 0.000000 0.000000 
#    y 0.000000 2.919660 0.000000 
#    z 0.000000 0.000000 3.403240 
# 
# 
# High freq. dielectric constant tensor:
#      x y z
#    x 1.608580 0.000000 0.000000 
#    y 0.000000 1.608580 0.000000 
#    z 0.000000 0.000000 1.639500 
# 
# From -- ./inp_files/7895.got.cif
#   From: 2010.03.12/outbox.cif.g09.slc.cpg/sg129_4_cif.got.tgz:7895.got - 2010.04.06 17:19:44.
