data_PCOD8315365
_publ_section_title
;
Structure prediction by ZEFSAII (Michael W. Deem and Ramdas Pophale) SiO2 
 PCOD8315365
Probable space group: P 4/N M M
;
_chemical_formula_sum "Si O2"
_cell_formula_units_Z 128
_cell_length_a 22.918205
_cell_length_b 22.918205
_cell_length_c 12.571337
_cell_angle_alpha 90.000000
_cell_angle_beta 90.000000
_cell_angle_gamma 90.000000
_cell_volume 6603.020845
_symmetry_space_group_name_H-M "P 4/N M M"
_symmetry_group_IT_number 129
_symmetry_cell_setting 'tetragonal'
loop_
_space_group_symop_operation_xyz
x,y,z
1/2-y,x,z
1/2-x,1/2-y,z
y,1/2-x,z
1/2+x,-y,-z
-x,1/2+y,-z
1/2+y,1/2+x,-z
-y,-x,-z
-x,-y,-z
1/2+y,-x,-z
1/2+x,1/2+y,-z
-y,1/2+x,-z
1/2-x,y,z
x,1/2-y,z
1/2-y,1/2-x,z
y,x,z
loop_
_atom_site_type_symbol
_atom_site_label
_atom_site_fract_x
_atom_site_fract_y
_atom_site_fract_z
Si Si1 0.380005 0.625997 0.619398
Si Si2 0.184420 0.092925 0.355206
Si Si3 0.913727 0.004058 0.937511
Si Si4 0.932319 0.315739 0.935473
Si Si5 0.817346 0.181543 0.811914
Si Si6 0.595013 0.502136 0.698071
Si Si7 0.480872 0.684355 0.292917
Si Si8 0.684879 0.592964 0.400761
O O1 0.358563 0.641438 0.500000
O O2 0.355459 0.673890 0.703332
O O3 0.450066 0.617140 0.622329
O O4 0.354831 0.563917 0.645949
O O5 0.250000 0.095044 0.312195
O O6 0.157546 0.157546 0.342599
O O7 0.148593 0.046737 0.285987
O O8 0.180177 0.072207 0.477315
O O9 0.851962 0.028933 0.980241
O O10 0.961883 0.038118 0.000000
O O11 0.934487 0.934487 0.948354
O O12 0.918131 0.023233 0.814690
O O13 0.926296 0.250000 0.980638
O O14 0.865812 0.338430 0.901483
O O15 0.972526 0.317325 0.832256
O O16 0.750000 0.171914 0.851929
O O17 0.828806 0.250000 0.786720
O O18 0.538212 0.538212 0.653095
O O19 0.475153 0.750000 0.337570
O O20 0.543594 0.658546 0.323827
O O21 0.750000 0.607794 0.367755
O O22 0.651618 0.651618 0.377465
#
# Coordination Sequence:
#
# PCOD8315365 Si02
#       8
#    16  16  16  16  16  16  16  16
#     4  11  21  32  52  77 100 134 177 213 247 299
#     4   9  18  33  51  72 101 134 168 208 253 306
#     4  10  20  35  54  75 102 134 168 212 268 321
#     4   9  18  34  55  77 101 132 176 222 259 308
#     4   9  19  36  55  76 106 140 172 213 263 308
#     4  10  22  37  51  74 107 136 165 209 266 318
#     4   9  18  32  47  67  98 129 161 208 255 293
#     4   9  17  29  47  71 100 135 171 210 259 310
#
# _framework density 19.385065999999998
#
# number of rings (size 3 to 8) (size 9 to 14) (size 15 to 20)
#    0.000    2.500    0.000    3.375    0.000    3.500 
#    0.000    3.750    0.000    1.500    0.000    1.750 
#    0.000    0.250    0.000    0.250    0.000    0.250 
#
# Total GULP energy -1585678.715011 kJ/mol
# GULP energy per Si atom -12388.114961 kJ/mol
# Density = 1.934094 g / cm^3
# Si number density = 19.385066 Si / 1000 Ang^3
#
#
#
# Elastic Constant Matrix: (Units=GPa)
#
#
# Indices 1 2 3 4 5 6 
#
# 1 74.8012 26.7595 10.1705 0.0000 0.0000 0.0000
# 2 26.7595 74.8074 10.1717 0.0000 0.0000 0.0000
# 3 10.1705 10.1717 46.4501 0.0000 0.0000 0.0000
# 4 0.0000 0.0000 0.0000 7.2884 0.0000 0.0000
# 5 0.0000 0.0000 0.0000 0.0000 7.2804 0.0000
# 6 0.0000 0.0000 0.0000 0.0000 0.0000 27.6987
#
#
#
# Elastic Compliance Matrix: (Units=1/GPa)
#
#
# Indices 1 2 3 4 5 6 
#
# 1 0.015556 -0.005258 -0.002255 0.000000 0.000000 0.000000
# 2 -0.005258 0.015555 -0.002255 0.000000 0.000000 0.000000
# 3 -0.002255 -0.002255 0.022516 0.000000 0.000000 0.000000
# 4 0.000000 0.000000 0.000000 0.137204 0.000000 0.000000
# 5 0.000000 0.000000 0.000000 0.000000 0.137355 0.000000
# 6 0.000000 0.000000 0.000000 0.000000 0.000000 0.036103
#
#
# Mechanical properties :
#
#
# Convention : Reuss Voigt Hill
#
# Bulk Modulus (GPa) = 29.33254 32.25136 30.79195
# Shear Modulus (GPa) = 12.65216 18.38396 15.51806
#
# Velocity S-wave (km/s) = 2.55752 3.08288 2.83241
# Velocity P-wave (km/s) = 4.88729 5.41715 5.15903
#
# Compressibility (1/GPa) = 0.03409184
#
# Stress axis : x y z
#
# Youngs Moduli (GPa) = 64.28228 64.28732 44.41289
#
# Poissons Ratio (x) = 0.33803 0.10014
# Poissons Ratio (y) = 0.33800 0.10015
# Poissons Ratio (z) = 0.14494 0.14497
#
# Static dielectric constant tensor:
#      x y z
#    x 3.695200 0.000000 0.000000 
#    y 0.000000 3.695170 0.000000 
#    z 0.000000 0.000000 3.511840 
# 
# 
# High freq. dielectric constant tensor:
#      x y z
#    x 1.753040 0.000000 0.000000 
#    y 0.000000 1.753040 0.000000 
#    z 0.000000 0.000000 1.739120 
# 
# From -- ./inp_files/4230.got.cif
#   From: 2010.03.12/outbox.cif.g09.slc.cpg/sg129_3_cif.got.tgz:4230.got - 2010.04.06 17:19:44.
