data_PCOD8315925
_publ_section_title
;
Structure prediction by ZEFSAII (Michael W. Deem and Ramdas Pophale) SiO2 
 PCOD8315925
Probable space group: P 42/M M C
;
_chemical_formula_sum "Si O2"
_cell_formula_units_Z 104
_cell_length_a 26.042923
_cell_length_b 26.042923
_cell_length_c 9.101058
_cell_angle_alpha 90.000000
_cell_angle_beta 90.000000
_cell_angle_gamma 90.000000
_cell_volume 6172.645501
_symmetry_space_group_name_H-M "P 42/M M C"
_symmetry_group_IT_number 131
_symmetry_cell_setting 'tetragonal'
loop_
_space_group_symop_operation_xyz
x,y,z
-x,-y,z
-y,x,1/2+z
y,-x,1/2+z
-x,y,-z
x,-y,-z
y,x,1/2-z
-y,-x,1/2-z
-x,-y,-z
x,y,-z
y,-x,1/2-z
-y,x,1/2-z
x,-y,z
-x,y,z
-y,-x,1/2+z
y,x,1/2+z
loop_
_atom_site_type_symbol
_atom_site_label
_atom_site_fract_x
_atom_site_fract_y
_atom_site_fract_z
Si Si1 0.154346 0.692947 0.831691
Si Si2 0.399631 0.110370 0.169978
Si Si3 0.557951 0.220318 0.169126
Si Si4 0.266542 0.655723 0.827059
Si Si5 0.943079 0.127129 0.671657
Si Si6 0.000000 0.555988 0.326702
Si Si7 0.861330 0.790783 0.671446
O O1 0.123255 0.643070 0.788469
O O2 0.215150 0.688802 0.800677
O O3 0.128226 0.734103 0.725774
O O4 0.143807 0.706698 0.000000
O O5 0.439140 0.158097 0.187995
O O6 0.418454 0.053956 0.221388
O O7 0.380560 0.108273 0.000000
O O8 0.500000 0.236224 0.216425
O O9 0.598878 0.254340 0.261930
O O10 0.568376 0.234540 0.000000
O O11 0.314680 0.685321 0.750000
O O12 0.278829 0.649907 0.000000
O O13 0.924574 0.075427 0.750000
O O14 0.939277 0.117408 0.500000
O O15 0.909267 0.175139 0.722464
O O16 0.000000 0.139903 0.723910
O O17 0.000000 0.500000 0.253717
O O18 0.000000 0.551499 0.500000
O O19 0.809873 0.809873 0.750000
O O20 0.852037 0.792445 0.500000
#
# Coordination Sequence:
#
# PCOD8315925 Si02
#       7
#    16  16  16  16  16   8  16
#     4  10  20  33  48  68  96 127 161 199 242 289
#     4   9  17  30  48  70  95 125 163 206 249 292
#     4   9  17  30  49  72  99 131 166 204 246 292
#     4  10  20  32  48  71  99 131 164 203 245 290
#     4   9  19  35  52  71  93 115 142 178 220 272
#     4   9  16  28  49  73  93 119 163 213 252 289
#     4  10  19  32  51  71  92 119 151 186 226 277
#
# _framework density 16.848531000000001
#
# number of rings (size 3 to 8) (size 9 to 14) (size 15 to 20)
#    0.000    2.538    0.000    2.308    0.000    6.308 
#    1.385    1.154    0.000    1.846    0.000    0.000 
#    0.000    0.308    0.000    3.231    0.000    1.385 
#
# Total GULP energy -1288706.268684 kJ/mol
# GULP energy per Si atom -12391.406430 kJ/mol
# Density = 1.681018 g / cm^3
# Si number density = 16.848531 Si / 1000 Ang^3
#
#
#
# Elastic Constant Matrix: (Units=GPa)
#
#
# Indices 1 2 3 4 5 6 
#
# 1 101.7561 49.3656 42.9150 0.0000 0.0000 0.0000
# 2 49.3656 101.7569 42.9231 0.0000 0.0000 0.0000
# 3 42.9150 42.9231 63.8034 0.0000 0.0000 0.0000
# 4 0.0000 0.0000 0.0000 23.2672 0.0000 0.0000
# 5 0.0000 0.0000 0.0000 0.0000 23.2669 0.0000
# 6 0.0000 0.0000 0.0000 0.0000 0.0000 17.2409
#
#
#
# Elastic Compliance Matrix: (Units=1/GPa)
#
#
# Indices 1 2 3 4 5 6 
#
# 1 0.014897 -0.004189 -0.007202 0.000000 0.000000 0.000000
# 2 -0.004189 0.014899 -0.007206 0.000000 0.000000 0.000000
# 3 -0.007202 -0.007206 0.025365 0.000000 0.000000 0.000000
# 4 0.000000 0.000000 0.000000 0.042979 0.000000 0.000000
# 5 0.000000 0.000000 0.000000 0.000000 0.042979 0.000000
# 6 0.000000 0.000000 0.000000 0.000000 0.000000 0.058002
#
#
# Mechanical properties :
#
#
# Convention : Reuss Voigt Hill
#
# Bulk Modulus (GPa) = 55.65497 59.74709 57.70103
# Shear Modulus (GPa) = 20.63535 21.56253 21.09894
#
# Velocity S-wave (km/s) = 3.50345 3.58129 3.54258
# Velocity P-wave (km/s) = 7.03348 7.25528 7.14524
#
# Compressibility (1/GPa) = 0.01796785
#
# Stress axis : x y z
#
# Youngs Moduli (GPa) = 67.12752 67.11818 39.42516
#
# Poissons Ratio (x) = 0.28117 0.28393
# Poissons Ratio (y) = 0.28121 0.28408
# Poissons Ratio (z) = 0.48343 0.48362
#
# Static dielectric constant tensor:
#      x y z
#    x 3.251970 0.000000 0.000000 
#    y 0.000000 3.251980 0.000000 
#    z 0.000000 0.000000 3.102270 
# 
# 
# High freq. dielectric constant tensor:
#      x y z
#    x 1.638340 0.000000 0.000000 
#    y 0.000000 1.638340 0.000000 
#    z 0.000000 0.000000 1.648050 
# 
# From -- ./inp_files/2555.got.cif
#   From: 2010.03.12/outbox.cif.g09.slc.cpg/sg131_2_cif.got.tgz:2555.got - 2010.04.06 17:36:35.
