data_PCOD8315385
_publ_section_title
;
Structure prediction by ZEFSAII (Michael W. Deem and Ramdas Pophale) SiO2 
 PCOD8315385
Probable space group: P 4/N M M
;
_chemical_formula_sum "Si O2"
_cell_formula_units_Z 96
_cell_length_a 22.428677
_cell_length_b 22.428677
_cell_length_c 9.816513
_cell_angle_alpha 90.000000
_cell_angle_beta 90.000000
_cell_angle_gamma 90.000000
_cell_volume 4938.153201
_symmetry_space_group_name_H-M "P 4/N M M"
_symmetry_group_IT_number 129
_symmetry_cell_setting 'tetragonal'
loop_
_space_group_symop_operation_xyz
x,y,z
1/2-y,x,z
1/2-x,1/2-y,z
y,1/2-x,z
1/2+x,-y,-z
-x,1/2+y,-z
1/2+y,1/2+x,-z
-y,-x,-z
-x,-y,-z
1/2+y,-x,-z
1/2+x,1/2+y,-z
-y,1/2+x,-z
1/2-x,y,z
x,1/2-y,z
1/2-y,1/2-x,z
y,x,z
loop_
_atom_site_type_symbol
_atom_site_label
_atom_site_fract_x
_atom_site_fract_y
_atom_site_fract_z
Si Si1 0.588973 0.683328 0.478833
Si Si2 0.816805 0.320737 0.150806
Si Si3 0.882719 0.979438 0.259757
Si Si4 0.518680 0.682919 0.742059
Si Si5 0.388758 0.904344 0.338780
Si Si6 0.918510 0.680029 0.019607
O O1 0.594038 0.750000 0.420764
O O2 0.652510 0.652510 0.452924
O O3 0.536807 0.647989 0.402339
O O4 0.573624 0.682568 0.637648
O O5 0.750000 0.345222 0.172775
O O6 0.817389 0.250000 0.157661
O O7 0.855922 0.345350 0.273532
O O8 0.840371 0.340371 0.000000
O O9 0.944073 0.944073 0.237561
O O10 0.835939 0.963363 0.141651
O O11 0.898568 0.048588 0.261906
O O12 0.491542 0.750000 0.752004
O O13 0.469339 0.636812 0.691945
O O14 0.545742 0.662004 0.884525
O O15 0.393758 0.893758 0.500000
O O16 0.902276 0.750000 0.022530
O O17 0.857122 0.642879 0.031447
#
# Coordination Sequence:
#
# PCOD8315385 Si02
#       6
#    16  16  16  16  16  16
#     4  10  20  37  59  84 118 155 195 246 303 360
#     4   9  21  41  62  87 121 156 194 247 302 352
#     4  10  23  40  58  85 120 157 198 246 297 348
#     4  10  22  39  59  87 123 156 197 252 303 349
#     4  12  24  39  61  91 117 162 210 245 293 360
#     4  10  22  41  64  91 123 158 198 248 305 362
#
# _framework density 19.440466000000001
#
# number of rings (size 3 to 8) (size 9 to 14) (size 15 to 20)
#    0.000    1.833    1.667    2.000    2.333    4.667 
#    0.000    2.500    0.000    6.000    0.000    0.000 
#    0.000    0.000    0.000    0.000    0.000    0.000 
#
# Total GULP energy -1190519.797835 kJ/mol
# GULP energy per Si atom -12401.247894 kJ/mol
# Density = 1.939622 g / cm^3
# Si number density = 19.440466 Si / 1000 Ang^3
#
#
#
# Elastic Constant Matrix: (Units=GPa)
#
#
# Indices 1 2 3 4 5 6 
#
# 1 84.1391 46.9437 27.7106 0.0000 0.0000 0.0000
# 2 46.9437 84.1391 27.7106 0.0000 0.0000 0.0000
# 3 27.7106 27.7106 110.7412 0.0000 0.0000 0.0000
# 4 0.0000 0.0000 0.0000 30.7018 0.0000 0.0000
# 5 0.0000 0.0000 0.0000 0.0000 30.7018 0.0000
# 6 0.0000 0.0000 0.0000 0.0000 0.0000 22.2264
#
#
#
# Elastic Compliance Matrix: (Units=1/GPa)
#
#
# Indices 1 2 3 4 5 6 
#
# 1 0.017708 -0.009177 -0.002135 0.000000 0.000000 0.000000
# 2 -0.009177 0.017708 -0.002135 0.000000 0.000000 0.000000
# 3 -0.002135 -0.002135 0.010098 0.000000 0.000000 0.000000
# 4 0.000000 0.000000 0.000000 0.032571 0.000000 0.000000
# 5 0.000000 0.000000 0.000000 0.000000 0.032571 0.000000
# 6 0.000000 0.000000 0.000000 0.000000 0.000000 0.044991
#
#
# Mechanical properties :
#
#
# Convention : Reuss Voigt Hill
#
# Bulk Modulus (GPa) = 53.69998 53.74990 53.72494
# Shear Modulus (GPa) = 26.49017 28.50297 27.49657
#
# Velocity S-wave (km/s) = 3.69539 3.83321 3.76493
# Velocity P-wave (km/s) = 6.77426 6.87749 6.82607
#
# Compressibility (1/GPa) = 0.01862198
#
# Stress axis : x y z
#
# Youngs Moduli (GPa) = 56.47095 56.47095 99.02524
#
# Poissons Ratio (x) = 0.51823 0.21140
# Poissons Ratio (y) = 0.51823 0.21140
# Poissons Ratio (z) = 0.12055 0.12055
#
# Static dielectric constant tensor:
#      x y z
#    x 3.488020 0.000000 0.000000 
#    y 0.000000 3.488020 0.000000 
#    z 0.000000 0.000000 3.683170 
# 
# 
# High freq. dielectric constant tensor:
#      x y z
#    x 1.755160 0.000000 0.000000 
#    y 0.000000 1.755160 0.000000 
#    z 0.000000 0.000000 1.771040 
# 
# From -- ./inp_files/2613.got.cif
#   From: 2010.03.12/outbox.cif.g09.slc.cpg/sg129_2_cif.got.tgz:2613.got - 2010.04.06 17:19:44.
