data_PCOD8315023
_publ_section_title
;
Structure prediction by ZEFSAII (Michael W. Deem and Ramdas Pophale) SiO2 
 PCOD8315023
Probable space group: P 4/N M M
;
_chemical_formula_sum "Si O2"
_cell_formula_units_Z 128
_cell_length_a 18.668611
_cell_length_b 18.668611
_cell_length_c 24.014862
_cell_angle_alpha 90.000000
_cell_angle_beta 90.000000
_cell_angle_gamma 90.000000
_cell_volume 8369.588540
_symmetry_space_group_name_H-M "P 4/N M M"
_symmetry_group_IT_number 129
_symmetry_cell_setting 'tetragonal'
loop_
_space_group_symop_operation_xyz
x,y,z
1/2-y,x,z
1/2-x,1/2-y,z
y,1/2-x,z
1/2+x,-y,-z
-x,1/2+y,-z
1/2+y,1/2+x,-z
-y,-x,-z
-x,-y,-z
1/2+y,-x,-z
1/2+x,1/2+y,-z
-y,1/2+x,-z
1/2-x,y,z
x,1/2-y,z
1/2-y,1/2-x,z
y,x,z
loop_
_atom_site_type_symbol
_atom_site_label
_atom_site_fract_x
_atom_site_fract_y
_atom_site_fract_z
Si Si1 0.835043 0.329849 0.060590
Si Si2 0.541804 0.166480 0.665951
Si Si3 0.548129 0.834153 0.437711
Si Si4 0.449065 0.168731 0.320656
Si Si5 0.167237 0.450307 0.772546
Si Si6 0.555306 0.669122 0.558101
Si Si7 0.095034 0.833555 0.170653
Si Si8 0.667651 0.402356 0.725726
O O1 0.750000 0.325110 0.059166
O O2 0.866218 0.250000 0.072125
O O3 0.860602 0.384087 0.108901
O O4 0.859989 0.359989 0.000000
O O5 0.556794 0.250000 0.667365
O O6 0.511654 0.140507 0.606463
O O7 0.483819 0.146040 0.713046
O O8 0.618167 0.130388 0.677313
O O9 0.565884 0.750000 0.428493
O O10 0.621089 0.878912 0.428250
O O11 0.514773 0.850463 0.499806
O O12 0.419269 0.250000 0.318235
O O13 0.384848 0.115153 0.305868
O O14 0.483905 0.153404 0.382788
O O15 0.511820 0.158100 0.275959
O O16 0.250000 0.425437 0.773434
O O17 0.118336 0.381665 0.785299
O O18 0.152679 0.510759 0.819554
O O19 0.578138 0.750000 0.553674
O O20 0.630641 0.630641 0.559862
O O21 0.112920 0.750000 0.179436
O O22 0.143974 0.876624 0.213707
O O23 0.750000 0.380449 0.714177
#
# Coordination Sequence:
#
# PCOD8315023 Si02
#       8
#    16  16  16  16  16  16  16  16
#     4   8  13  22  39  64  91 116 140 165 195 236
#     4   9  18  30  42  58  80 106 135 166 205 251
#     4   9  16  26  41  60  81 105 132 162 200 248
#     4   9  18  31  45  63  84 104 130 164 205 252
#     4   9  17  28  41  58  81 110 144 178 210 245
#     4   8  14  25  40  57  78 101 125 159 202 248
#     4   9  17  28  43  64  89 116 142 167 201 244
#     4  10  19  29  43  62  82 106 137 172 202 229
#
# _framework density 15.293464
#
# number of rings (size 3 to 8) (size 9 to 14) (size 15 to 20)
#    0.000    3.125    0.000    2.250    0.000    4.500 
#    0.000    3.125    0.000    4.875    0.000    0.875 
#    0.000   10.000    0.000    0.000    0.000   15.750 
#
# Total GULP energy -1585699.313993 kJ/mol
# GULP energy per Si atom -12388.275891 kJ/mol
# Density = 1.525866 g / cm^3
# Si number density = 15.293464 Si / 1000 Ang^3
#
#
#
# Elastic Constant Matrix: (Units=GPa)
#
#
# Indices 1 2 3 4 5 6 
#
# 1 67.1296 47.3998 40.7088 0.0000 0.0000 0.0000
# 2 47.3998 67.1296 40.7088 0.0000 0.0000 0.0000
# 3 40.7088 40.7088 96.9656 0.0000 0.0000 0.0000
# 4 0.0000 0.0000 0.0000 17.8757 0.0000 0.0000
# 5 0.0000 0.0000 0.0000 0.0000 17.8757 0.0000
# 6 0.0000 0.0000 0.0000 0.0000 0.0000 22.6762
#
#
#
# Elastic Compliance Matrix: (Units=1/GPa)
#
#
# Indices 1 2 3 4 5 6 
#
# 1 0.031565 -0.019119 -0.005225 0.000000 0.000000 0.000000
# 2 -0.019119 0.031565 -0.005225 0.000000 0.000000 0.000000
# 3 -0.005225 -0.005225 0.014700 0.000000 0.000000 0.000000
# 4 0.000000 0.000000 0.000000 0.055942 0.000000 0.000000
# 5 0.000000 0.000000 0.000000 0.000000 0.055942 0.000000
# 6 0.000000 0.000000 0.000000 0.000000 0.000000 0.044099
#
#
# Mechanical properties :
#
#
# Convention : Reuss Voigt Hill
#
# Bulk Modulus (GPa) = 53.50026 54.31772 53.90899
# Shear Modulus (GPa) = 16.71216 18.51267 17.61241
#
# Velocity S-wave (km/s) = 3.30929 3.48299 3.39725
# Velocity P-wave (km/s) = 7.04700 7.19507 7.12142
#
# Compressibility (1/GPa) = 0.01869150
#
# Stress axis : x y z
#
# Youngs Moduli (GPa) = 31.68043 31.68043 68.02616
#
# Poissons Ratio (x) = 0.60571 0.35544
# Poissons Ratio (y) = 0.60571 0.35544
# Poissons Ratio (z) = 0.16553 0.16553
#
# Static dielectric constant tensor:
#      x y z
#    x 2.773910 0.000000 0.000000 
#    y 0.000000 2.773910 0.000000 
#    z 0.000000 0.000000 3.265850 
# 
# 
# High freq. dielectric constant tensor:
#      x y z
#    x 1.567450 0.000000 0.000000 
#    y 0.000000 1.567450 0.000000 
#    z 0.000000 0.000000 1.580470 
# 
# From -- ./inp_files/7257.got.cif
#   From: 2010.03.12/outbox.cif.g09.slc.cpg/sg129_4_cif.got.tgz:7257.got - 2010.04.06 17:19:44.
