data_PCOD8315407
_publ_section_title
;
Structure prediction by ZEFSAII (Michael W. Deem and Ramdas Pophale) SiO2 
 PCOD8315407
Probable space group: P 4/N M M
;
_chemical_formula_sum "Si O2"
_cell_formula_units_Z 128
_cell_length_a 23.897728
_cell_length_b 23.897728
_cell_length_c 12.387047
_cell_angle_alpha 90.000000
_cell_angle_beta 90.000000
_cell_angle_gamma 90.000000
_cell_volume 7074.259928
_symmetry_space_group_name_H-M "P 4/N M M"
_symmetry_group_IT_number 129
_symmetry_cell_setting 'tetragonal'
loop_
_space_group_symop_operation_xyz
x,y,z
1/2-y,x,z
1/2-x,1/2-y,z
y,1/2-x,z
1/2+x,-y,-z
-x,1/2+y,-z
1/2+y,1/2+x,-z
-y,-x,-z
-x,-y,-z
1/2+y,-x,-z
1/2+x,1/2+y,-z
-y,1/2+x,-z
1/2-x,y,z
x,1/2-y,z
1/2-y,1/2-x,z
y,x,z
loop_
_atom_site_type_symbol
_atom_site_label
_atom_site_fract_x
_atom_site_fract_y
_atom_site_fract_z
Si Si1 0.596515 0.686803 0.521945
Si Si2 0.103781 0.620442 0.774465
Si Si3 0.813809 0.474915 0.147074
Si Si4 0.187306 0.684055 0.621403
Si Si5 0.457358 0.955036 0.377370
Si Si6 0.485835 0.814453 0.900170
Si Si7 0.364562 0.452163 0.678924
Si Si8 0.185042 0.407261 0.233687
O O1 0.613424 0.750000 0.500256
O O2 0.653182 0.653182 0.505190
O O3 0.550192 0.668174 0.434914
O O4 0.572488 0.677823 0.642333
O O5 0.142875 0.574393 0.829382
O O6 0.143598 0.660119 0.705706
O O7 0.054791 0.596153 0.697610
O O8 0.070914 0.653868 0.866564
O O9 0.750000 0.453503 0.161438
O O10 0.823510 0.527787 0.226080
O O11 0.824274 0.496435 0.026377
O O12 0.168144 0.668144 0.500000
O O13 0.250000 0.660267 0.643589
O O14 0.188391 0.750000 0.634716
O O15 0.441276 0.941276 0.500000
O O16 0.503878 0.913305 0.335297
O O17 0.481164 0.018837 0.368033
O O18 0.476013 0.750000 0.870906
O O19 0.541296 0.836223 0.839358
O O20 0.391924 0.391924 0.708918
O O21 0.250000 0.391772 0.209603
O O22 0.147339 0.352662 0.208937
#
# Coordination Sequence:
#
# PCOD8315407 Si02
#       8
#    16  16  16  16  16  16  16  16
#     4   9  17  30  50  76 105 134 165 202 247 301
#     4  11  20  33  54  75  98 132 181 218 261 312
#     4  10  21  37  54  73 101 136 177 224 267 308
#     4   9  18  33  52  76 107 137 167 212 271 329
#     4   9  19  32  46  69 101 132 161 198 245 295
#     4  10  22  37  52  74 104 137 174 219 268 315
#     4   9  18  32  51  74 101 131 166 204 248 305
#     4   9  19  35  55  81 109 139 175 214 262 318
#
# _framework density 18.093765000000001
#
# number of rings (size 3 to 8) (size 9 to 14) (size 15 to 20)
#    0.000    2.500    0.000    2.250    1.750    1.250 
#    0.000    1.250    0.000    3.750    0.000    5.250 
#    0.000    3.000    0.000    0.000    0.000    0.000 
#
# Total GULP energy -1586857.813156 kJ/mol
# GULP energy per Si atom -12397.326665 kJ/mol
# Density = 1.805258 g / cm^3
# Si number density = 18.093765 Si / 1000 Ang^3
#
#
#
# Elastic Constant Matrix: (Units=GPa)
#
#
# Indices 1 2 3 4 5 6 
#
# 1 68.5649 33.2391 43.1728 0.0000 0.0000 0.0000
# 2 33.2391 68.5649 43.1728 0.0000 0.0000 0.0000
# 3 43.1728 43.1728 105.1376 0.0000 0.0000 0.0000
# 4 0.0000 0.0000 0.0000 16.1113 0.0000 0.0000
# 5 0.0000 0.0000 0.0000 0.0000 16.1113 0.0000
# 6 0.0000 0.0000 0.0000 0.0000 0.0000 25.0587
#
#
#
# Elastic Compliance Matrix: (Units=1/GPa)
#
#
# Indices 1 2 3 4 5 6 
#
# 1 0.021690 -0.006618 -0.006189 0.000000 0.000000 0.000000
# 2 -0.006618 0.021690 -0.006189 0.000000 0.000000 0.000000
# 3 -0.006189 -0.006189 0.014594 0.000000 0.000000 0.000000
# 4 0.000000 0.000000 0.000000 0.062068 0.000000 0.000000
# 5 0.000000 0.000000 0.000000 0.000000 0.062068 0.000000
# 6 0.000000 0.000000 0.000000 0.000000 0.000000 0.039906
#
#
# Mechanical properties :
#
#
# Convention : Reuss Voigt Hill
#
# Bulk Modulus (GPa) = 50.04485 53.49299 51.76892
# Shear Modulus (GPa) = 18.74978 19.63511 19.19245
#
# Velocity S-wave (km/s) = 3.22259 3.29779 3.26041
# Velocity P-wave (km/s) = 6.44712 6.64297 6.54578
#
# Compressibility (1/GPa) = 0.01998208
#
# Stress axis : x y z
#
# Youngs Moduli (GPa) = 46.10421 46.10421 68.52042
#
# Poissons Ratio (x) = 0.30511 0.42408
# Poissons Ratio (y) = 0.30511 0.42408
# Poissons Ratio (z) = 0.28534 0.28534
#
# Static dielectric constant tensor:
#      x y z
#    x 3.400750 0.000000 0.000000 
#    y 0.000000 3.400750 0.000000 
#    z 0.000000 0.000000 3.447950 
# 
# 
# High freq. dielectric constant tensor:
#      x y z
#    x 1.697290 0.000000 0.000000 
#    y 0.000000 1.697290 0.000000 
#    z 0.000000 0.000000 1.701200 
# 
# From -- ./inp_files/4199.got.cif
#   From: 2010.03.12/outbox.cif.g09.slc.cpg/sg129_3_cif.got.tgz:4199.got - 2010.04.06 17:19:44.
