data_PCOD8315163
_publ_section_title
;
Structure prediction by ZEFSAII (Michael W. Deem and Ramdas Pophale) SiO2 
 PCOD8315163
Probable space group: P 4/N M M
;
_chemical_formula_sum "Si O2"
_cell_formula_units_Z 42
_cell_length_a 12.512626
_cell_length_b 12.512626
_cell_length_c 16.193694
_cell_angle_alpha 90.000000
_cell_angle_beta 90.000000
_cell_angle_gamma 90.000000
_cell_volume 2535.378809
_symmetry_space_group_name_H-M "P 4/N M M"
_symmetry_group_IT_number 129
_symmetry_cell_setting 'tetragonal'
loop_
_space_group_symop_operation_xyz
x,y,z
1/2-y,x,z
1/2-x,1/2-y,z
y,1/2-x,z
1/2+x,-y,-z
-x,1/2+y,-z
1/2+y,1/2+x,-z
-y,-x,-z
-x,-y,-z
1/2+y,-x,-z
1/2+x,1/2+y,-z
-y,1/2+x,-z
1/2-x,y,z
x,1/2-y,z
1/2-y,1/2-x,z
y,x,z
loop_
_atom_site_type_symbol
_atom_site_label
_atom_site_fract_x
_atom_site_fract_y
_atom_site_fract_z
Si Si1 0.750000 0.368347 0.158145
Si Si2 0.373106 0.545484 0.247820
Si Si3 0.750000 0.250000 0.000000
Si Si4 0.953856 0.373255 0.583489
O O1 0.750000 0.250000 0.199935
O O2 0.858608 0.423022 0.191186
O O3 0.750000 0.356240 0.057962
O O4 0.250000 0.521116 0.226073
O O5 0.439421 0.439421 0.226809
O O6 0.383564 0.576753 0.343416
O O7 0.886463 0.386463 0.500000
O O8 0.977419 0.250000 0.601288
O O9 0.067765 0.432236 0.576336
#
# Coordination Sequence:
#
# PCOD8315163 Si02
#       4
#     8  16   2  16
#     4   8  16  32  54  72  99 125 167 207 241 311
#     4  10  19  32  51  75 103 135 168 210 253 299
#     4   8  16  32  60  76  98 128 168 212 264 296
#     4  10  20  32  48  72 100 134 175 216 257 297
#
# _framework density 16.565572
#
# number of rings (size 3 to 8) (size 9 to 14) (size 15 to 20)
#    0.571    1.905    1.905    1.143    0.000    2.667 
#    0.000    0.952    0.000    7.429    0.000    0.000 
#    0.000    0.000    0.000    0.000    0.000    0.000 
#
# Total GULP energy -520596.848559 kJ/mol
# GULP energy per Si atom -12395.163061 kJ/mol
# Density = 1.652787 g / cm^3
# Si number density = 16.565572 Si / 1000 Ang^3
#
#
#
# Elastic Constant Matrix: (Units=GPa)
#
#
# Indices 1 2 3 4 5 6 
#
# 1 93.5423 51.5808 21.7889 0.0000 0.0000 0.0000
# 2 51.5808 93.5423 21.7889 0.0000 0.0000 0.0000
# 3 21.7889 21.7889 95.6405 0.0000 0.0000 0.0000
# 4 0.0000 0.0000 0.0000 15.0054 0.0000 0.0000
# 5 0.0000 0.0000 0.0000 0.0000 15.0054 0.0000
# 6 0.0000 0.0000 0.0000 0.0000 0.0000 13.2805
#
#
#
# Elastic Compliance Matrix: (Units=1/GPa)
#
#
# Indices 1 2 3 4 5 6 
#
# 1 0.015614 -0.008217 -0.001685 0.000000 0.000000 0.000000
# 2 -0.008217 0.015614 -0.001685 0.000000 0.000000 0.000000
# 3 -0.001685 -0.001685 0.011224 0.000000 0.000000 0.000000
# 4 0.000000 0.000000 0.000000 0.066643 0.000000 0.000000
# 5 0.000000 0.000000 0.000000 0.000000 0.066643 0.000000
# 6 0.000000 0.000000 0.000000 0.000000 0.000000 0.075299
#
#
# Mechanical properties :
#
#
# Convention : Reuss Voigt Hill
#
# Bulk Modulus (GPa) = 51.87650 52.56028 52.21839
# Shear Modulus (GPa) = 17.81665 21.16268 19.48967
#
# Velocity S-wave (km/s) = 3.28307 3.57810 3.43376
# Velocity P-wave (km/s) = 6.76426 6.99056 6.87834
#
# Compressibility (1/GPa) = 0.01927655
#
# Stress axis : x y z
#
# Youngs Moduli (GPa) = 64.04491 64.04491 89.09764
#
# Poissons Ratio (x) = 0.52628 0.15014
# Poissons Ratio (y) = 0.52628 0.15014
# Poissons Ratio (z) = 0.10792 0.10792
#
# Static dielectric constant tensor:
#      x y z
#    x 2.987270 0.000000 0.000000 
#    y 0.000000 2.987270 0.000000 
#    z 0.000000 0.000000 3.000960 
# 
# 
# High freq. dielectric constant tensor:
#      x y z
#    x 1.623630 0.000000 0.000000 
#    y 0.000000 1.623630 0.000000 
#    z 0.000000 0.000000 1.629770 
# 
# From -- ./inp_files/5262.got.cif
#   From: 2010.03.12/outbox.cif.g09.slc.cpg/sg129_3_cif.got.tgz:5262.got - 2010.04.06 17:19:44.
