data_PCOD8315098
_publ_section_title
;
Structure prediction by ZEFSAII (Michael W. Deem and Ramdas Pophale) SiO2 
 PCOD8315098
Probable space group: P 4/N M M
;
_chemical_formula_sum "Si O2"
_cell_formula_units_Z 128
_cell_length_a 24.826109
_cell_length_b 24.826109
_cell_length_c 12.630113
_cell_angle_alpha 90.000000
_cell_angle_beta 90.000000
_cell_angle_gamma 90.000000
_cell_volume 7784.389386
_symmetry_space_group_name_H-M "P 4/N M M"
_symmetry_group_IT_number 129
_symmetry_cell_setting 'tetragonal'
loop_
_space_group_symop_operation_xyz
x,y,z
1/2-y,x,z
1/2-x,1/2-y,z
y,1/2-x,z
1/2+x,-y,-z
-x,1/2+y,-z
1/2+y,1/2+x,-z
-y,-x,-z
-x,-y,-z
1/2+y,-x,-z
1/2+x,1/2+y,-z
-y,1/2+x,-z
1/2-x,y,z
x,1/2-y,z
1/2-y,1/2-x,z
y,x,z
loop_
_atom_site_type_symbol
_atom_site_label
_atom_site_fract_x
_atom_site_fract_y
_atom_site_fract_z
Si Si1 0.890061 0.519288 0.317802
Si Si2 0.813271 0.900162 0.952568
Si Si3 0.069301 0.691302 0.760304
Si Si4 0.099358 0.581077 0.383825
Si Si5 0.536676 0.620345 0.546901
Si Si6 0.190743 0.443086 0.271997
Si Si7 0.492729 0.187219 0.878447
Si Si8 0.098569 0.688022 0.996425
O O1 0.939719 0.560282 0.296625
O O2 0.911226 0.458362 0.329690
O O3 0.857120 0.532468 0.426500
O O4 0.848058 0.522958 0.222667
O O5 0.750000 0.885273 0.954875
O O6 0.847775 0.847775 0.986607
O O7 0.825591 0.949384 0.030930
O O8 0.833066 0.918357 0.835905
O O9 0.094968 0.750000 0.734727
O O10 0.102722 0.646485 0.693925
O O11 0.007087 0.692533 0.731852
O O12 0.071704 0.678685 0.883554
O O13 0.107255 0.607255 0.500000
O O14 0.109236 0.518481 0.395284
O O15 0.561832 0.561832 0.534925
O O16 0.573437 0.657664 0.622711
O O17 0.250000 0.419045 0.288001
O O18 0.490761 0.250000 0.847026
O O19 0.552840 0.171719 0.918123
O O20 0.116282 0.750000 0.013696
O O21 0.151463 0.651463 0.000000
#
# Coordination Sequence:
#
# PCOD8315098 Si02
#       8
#    16  16  16  16  16  16  16  16
#     4  10  19  31  47  68  97 129 159 194 238 286
#     4  10  19  32  50  70  95 126 160 200 243 288
#     4   9  16  29  48  68  91 122 157 193 234 283
#     4   9  17  29  46  68  94 123 155 191 234 284
#     4   9  17  28  44  65  90 122 155 189 232 283
#     4   9  16  28  46  67  90 117 154 196 238 281
#     4  10  20  34  50  69  95 129 163 196 240 287
#     4  10  19  32  51  71  94 124 158 196 239 284
#
# _framework density 16.443165
#
# number of rings (size 3 to 8) (size 9 to 14) (size 15 to 20)
#    0.000    2.500    1.250    1.875    0.000    2.250 
#    0.000    1.875    0.000    2.250    0.000    0.000 
#    0.000    0.000    0.000   23.250    0.000    0.125 
#
# Total GULP energy -1585977.723882 kJ/mol
# GULP energy per Si atom -12390.450968 kJ/mol
# Density = 1.640574 g / cm^3
# Si number density = 16.443165 Si / 1000 Ang^3
#
#
#
# Elastic Constant Matrix: (Units=GPa)
#
#
# Indices 1 2 3 4 5 6 
#
# 1 66.0415 45.5831 48.4377 0.0000 0.0000 0.0000
# 2 45.5831 66.0415 48.4377 0.0000 0.0000 0.0000
# 3 48.4377 48.4377 113.0654 0.0000 0.0000 0.0000
# 4 0.0000 0.0000 0.0000 23.8510 0.0000 0.0000
# 5 0.0000 0.0000 0.0000 0.0000 23.8510 0.0000
# 6 0.0000 0.0000 0.0000 0.0000 0.0000 22.7583
#
#
#
# Elastic Compliance Matrix: (Units=1/GPa)
#
#
# Indices 1 2 3 4 5 6 
#
# 1 0.031570 -0.017309 -0.006109 0.000000 0.000000 0.000000
# 2 -0.017309 0.031570 -0.006109 0.000000 0.000000 0.000000
# 3 -0.006109 -0.006109 0.014079 0.000000 0.000000 0.000000
# 4 0.000000 0.000000 0.000000 0.041927 0.000000 0.000000
# 5 0.000000 0.000000 0.000000 0.000000 0.041927 0.000000
# 6 0.000000 0.000000 0.000000 0.000000 0.000000 0.043940
#
#
# Mechanical properties :
#
#
# Convention : Reuss Voigt Hill
#
# Bulk Modulus (GPa) = 55.05701 58.89615 56.97658
# Shear Modulus (GPa) = 18.51002 20.93805 19.72403
#
# Velocity S-wave (km/s) = 3.35878 3.57229 3.46718
# Velocity P-wave (km/s) = 6.97121 7.27398 7.12420
#
# Compressibility (1/GPa) = 0.01816299
#
# Stress axis : x y z
#
# Youngs Moduli (GPa) = 31.67547 31.67547 71.02796
#
# Poissons Ratio (x) = 0.54829 0.43393
# Poissons Ratio (y) = 0.54829 0.43393
# Poissons Ratio (z) = 0.19352 0.19352
#
# Static dielectric constant tensor:
#      x y z
#    x 3.142640 0.000000 0.000000 
#    y 0.000000 3.142640 0.000000 
#    z 0.000000 0.000000 3.377860 
# 
# 
# High freq. dielectric constant tensor:
#      x y z
#    x 1.618300 0.000000 0.000000 
#    y 0.000000 1.618300 0.000000 
#    z 0.000000 0.000000 1.643330 
# 
# From -- ./inp_files/4205.got.cif
#   From: 2010.03.12/outbox.cif.g09.slc.cpg/sg129_3_cif.got.tgz:4205.got - 2010.04.06 17:19:44.
