data_PCOD8315875
_publ_section_title
;
Structure prediction by ZEFSAII (Michael W. Deem and Ramdas Pophale) SiO2 
 PCOD8315875
Probable space group: P 42/M M C
;
_chemical_formula_sum "Si O2"
_cell_formula_units_Z 96
_cell_length_a 18.142792
_cell_length_b 18.142792
_cell_length_c 17.370372
_cell_angle_alpha 90.000000
_cell_angle_beta 90.000000
_cell_angle_gamma 90.000000
_cell_volume 5717.647308
_symmetry_space_group_name_H-M "P 42/M M C"
_symmetry_group_IT_number 131
_symmetry_cell_setting 'tetragonal'
loop_
_space_group_symop_operation_xyz
x,y,z
-x,-y,z
-y,x,1/2+z
y,-x,1/2+z
-x,y,-z
x,-y,-z
y,x,1/2-z
-y,-x,1/2-z
-x,-y,-z
x,y,-z
y,-x,1/2-z
-y,x,1/2-z
x,-y,z
-x,y,z
-y,-x,1/2+z
y,x,1/2+z
loop_
_atom_site_type_symbol
_atom_site_label
_atom_site_fract_x
_atom_site_fract_y
_atom_site_fract_z
Si Si1 0.779735 0.808239 0.085641
Si Si2 0.084285 0.802477 0.281630
Si Si3 0.417222 0.586027 0.412722
Si Si4 0.297914 0.323705 0.837907
Si Si5 0.280722 0.917049 0.370304
Si Si6 0.414955 0.172158 0.589872
O O1 0.775168 0.879718 0.139272
O O2 0.720191 0.748152 0.112270
O O3 0.861141 0.772228 0.084436
O O4 0.759832 0.834338 0.000000
O O5 0.125083 0.874918 0.250000
O O6 0.091314 0.735633 0.220737
O O7 0.000000 0.824220 0.297230
O O8 0.408037 0.614697 0.500000
O O9 0.402862 0.500000 0.408288
O O10 0.500000 0.605011 0.384090
O O11 0.355976 0.622489 0.358764
O O12 0.297756 0.297756 0.750000
O O13 0.239297 0.388023 0.856586
O O14 0.366219 0.899116 0.387766
O O15 0.263911 0.000000 0.398490
O O16 0.404108 0.192617 0.500000
O O17 0.500000 0.154438 0.608186
#
# Coordination Sequence:
#
# PCOD8315875 Si02
#       6
#    16  16  16  16  16  16
#     4  10  19  31  49  71  93 121 157 194 231 270
#     4   9  18  33  51  71  95 124 155 187 229 277
#     4   9  18  32  48  66  91 124 159 195 239 288
#     4  11  20  31  47  66  92 123 157 196 234 277
#     4   9  17  31  49  68  95 126 153 182 219 269
#     4  10  20  32  47  68  94 124 154 184 224 272
#
# _framework density 16.790122
#
# number of rings (size 3 to 8) (size 9 to 14) (size 15 to 20)
#    0.000    2.333    0.000    6.500    0.000    4.833 
#    0.000    1.667    0.000    0.000    0.000    4.667 
#    0.000    0.000    0.000   12.167    0.000    0.000 
#
# Total GULP energy -1190286.801626 kJ/mol
# GULP energy per Si atom -12398.820850 kJ/mol
# Density = 1.675191 g / cm^3
# Si number density = 16.790122 Si / 1000 Ang^3
#
#
#
# Elastic Constant Matrix: (Units=GPa)
#
#
# Indices 1 2 3 4 5 6 
#
# 1 81.6341 31.9926 38.2107 0.0000 0.0000 0.0000
# 2 31.9926 81.6339 38.2108 0.0000 0.0000 0.0000
# 3 38.2107 38.2108 107.2446 0.0000 0.0000 0.0000
# 4 0.0000 0.0000 0.0000 23.8877 0.0000 0.0000
# 5 0.0000 0.0000 0.0000 0.0000 23.8879 0.0000
# 6 0.0000 0.0000 0.0000 0.0000 0.0000 17.6223
#
#
#
# Elastic Compliance Matrix: (Units=1/GPa)
#
#
# Indices 1 2 3 4 5 6 
#
# 1 0.015859 -0.004285 -0.004124 0.000000 0.000000 0.000000
# 2 -0.004285 0.015859 -0.004124 0.000000 0.000000 0.000000
# 3 -0.004124 -0.004124 0.012263 0.000000 0.000000 0.000000
# 4 0.000000 0.000000 0.000000 0.041862 0.000000 0.000000
# 5 0.000000 0.000000 0.000000 0.000000 0.041862 0.000000
# 6 0.000000 0.000000 0.000000 0.000000 0.000000 0.056746
#
#
# Mechanical properties :
#
#
# Convention : Reuss Voigt Hill
#
# Bulk Modulus (GPa) = 52.86453 54.14896 53.50675
# Shear Modulus (GPa) = 23.16703 23.88616 23.52659
#
# Velocity S-wave (km/s) = 3.71860 3.77587 3.74734
# Velocity P-wave (km/s) = 7.07044 7.16450 7.11763
#
# Compressibility (1/GPa) = 0.01891628
#
# Stress axis : x y z
#
# Youngs Moduli (GPa) = 63.05416 63.05389 81.54531
#
# Poissons Ratio (x) = 0.27019 0.33628
# Poissons Ratio (y) = 0.27019 0.33628
# Poissons Ratio (z) = 0.26003 0.26003
#
# Static dielectric constant tensor:
#      x y z
#    x 3.117160 0.000000 0.000000 
#    y 0.000000 3.117160 0.000000 
#    z 0.000000 0.000000 3.199740 
# 
# 
# High freq. dielectric constant tensor:
#      x y z
#    x 1.638630 0.000000 0.000000 
#    y 0.000000 1.638630 0.000000 
#    z 0.000000 0.000000 1.645620 
# 
# From -- ./inp_files/7979.got.cif
#   From: 2010.03.12/outbox.cif.g09.slc.cpg/sg131_4_cif.got.tgz:7979.got - 2010.04.06 17:36:35.
