data_PCOD8315021
_publ_section_title
;
Structure prediction by ZEFSAII (Michael W. Deem and Ramdas Pophale) SiO2 
 PCOD8315021
Probable space group: P 4/N M M
;
_chemical_formula_sum "Si O2"
_cell_formula_units_Z 80
_cell_length_a 13.379715
_cell_length_b 13.379715
_cell_length_c 25.914200
_cell_angle_alpha 90.000000
_cell_angle_beta 90.000000
_cell_angle_gamma 90.000000
_cell_volume 4639.076471
_symmetry_space_group_name_H-M "P 4/N M M"
_symmetry_group_IT_number 129
_symmetry_cell_setting 'tetragonal'
loop_
_space_group_symop_operation_xyz
x,y,z
1/2-y,x,z
1/2-x,1/2-y,z
y,1/2-x,z
1/2+x,-y,-z
-x,1/2+y,-z
1/2+y,1/2+x,-z
-y,-x,-z
-x,-y,-z
1/2+y,-x,-z
1/2+x,1/2+y,-z
-y,1/2+x,-z
1/2-x,y,z
x,1/2-y,z
1/2-y,1/2-x,z
y,x,z
loop_
_atom_site_type_symbol
_atom_site_label
_atom_site_fract_x
_atom_site_fract_y
_atom_site_fract_z
Si Si1 0.139124 0.630939 0.056181
Si Si2 0.132485 0.968001 0.452017
Si Si3 0.868272 0.360666 0.256515
Si Si4 0.632290 0.023960 0.156042
Si Si5 0.528752 0.368140 0.640606
O O1 0.250000 0.586812 0.065046
O O2 0.144738 0.750000 0.056796
O O3 0.069963 0.592485 0.102397
O O4 0.096681 0.596681 0.000000
O O5 0.099235 0.900766 0.500000
O O6 0.250000 0.991714 0.455242
O O7 0.109808 0.903505 0.401097
O O8 0.073227 0.073227 0.451525
O O9 0.750000 0.352264 0.256004
O O10 0.915212 0.250000 0.262531
O O11 0.905745 0.406465 0.202642
O O12 0.901805 0.429985 0.303799
O O13 0.750000 0.009761 0.157035
O O14 0.585220 0.914781 0.162432
O O15 0.510536 0.250000 0.636356
O O16 0.422854 0.422854 0.630917
#
# Coordination Sequence:
#
# PCOD8315021 Si02
#       5
#    16  16  16  16  16
#     4   8  14  26  44  64  85 109 140 183 232 272
#     4  10  21  36  54  77 103 132 168 208 251 299
#     4   9  17  30  48  67  87 114 150 193 237 275
#     4  10  19  29  42  62  89 120 151 182 220 271
#     4  10  20  33  50  74 103 134 167 200 237 285
#
# _framework density 17.244812
#
# number of rings (size 3 to 8) (size 9 to 14) (size 15 to 20)
#    0.000    2.600    0.000    3.000    0.000    5.600 
#    0.000    0.000    0.000    7.200    0.000    0.000 
#    0.000   17.600    0.000    0.000    0.000    0.200 
#
# Total GULP energy -991747.807356 kJ/mol
# GULP energy per Si atom -12396.847592 kJ/mol
# Density = 1.720556 g / cm^3
# Si number density = 17.244812 Si / 1000 Ang^3
#
#
#
# Elastic Constant Matrix: (Units=GPa)
#
#
# Indices 1 2 3 4 5 6 
#
# 1 85.6428 45.6553 39.8232 0.0000 0.0000 0.0000
# 2 45.6553 85.6423 39.8236 0.0000 0.0000 0.0000
# 3 39.8232 39.8236 135.7811 0.0000 0.0000 0.0000
# 4 0.0000 0.0000 0.0000 20.7488 0.0000 0.0000
# 5 0.0000 0.0000 0.0000 0.0000 20.7488 0.0000
# 6 0.0000 0.0000 0.0000 0.0000 0.0000 16.2909
#
#
#
# Elastic Compliance Matrix: (Units=1/GPa)
#
#
# Indices 1 2 3 4 5 6 
#
# 1 0.017136 -0.007872 -0.002717 0.000000 0.000000 0.000000
# 2 -0.007872 0.017136 -0.002717 0.000000 0.000000 0.000000
# 3 -0.002717 -0.002717 0.008959 0.000000 0.000000 0.000000
# 4 0.000000 0.000000 0.000000 0.048196 0.000000 0.000000
# 5 0.000000 0.000000 0.000000 0.000000 0.048196 0.000000
# 6 0.000000 0.000000 0.000000 0.000000 0.000000 0.061384
#
#
# Mechanical properties :
#
#
# Convention : Reuss Voigt Hill
#
# Bulk Modulus (GPa) = 60.17234 61.96339 61.06787
# Shear Modulus (GPa) = 21.44467 23.67531 22.55999
#
# Velocity S-wave (km/s) = 3.53022 3.70928 3.62085
# Velocity P-wave (km/s) = 7.18229 7.37256 7.27805
#
# Compressibility (1/GPa) = 0.01661893
#
# Stress axis : x y z
#
# Youngs Moduli (GPa) = 58.35607 58.35548 111.62379
#
# Poissons Ratio (x) = 0.45936 0.30330
# Poissons Ratio (y) = 0.45936 0.30331
# Poissons Ratio (z) = 0.15856 0.15857
#
# Static dielectric constant tensor:
#      x y z
#    x 2.989510 0.000000 0.000000 
#    y 0.000000 2.989510 0.000000 
#    z 0.000000 0.000000 3.625180 
# 
# 
# High freq. dielectric constant tensor:
#      x y z
#    x 1.641950 0.000000 0.000000 
#    y 0.000000 1.641950 0.000000 
#    z 0.000000 0.000000 1.691390 
# 
# From -- ./inp_files/7703.got.cif
#   From: 2010.03.12/outbox.cif.g09.slc.cpg/sg129_4_cif.got.tgz:7703.got - 2010.04.06 17:19:44.
