data_PCOD8315421
_publ_section_title
;
Structure prediction by ZEFSAII (Michael W. Deem and Ramdas Pophale) SiO2 
 PCOD8315421
Probable space group: P 4/N M M
;
_chemical_formula_sum "Si O2"
_cell_formula_units_Z 96
_cell_length_a 23.694825
_cell_length_b 23.694825
_cell_length_c 9.831767
_cell_angle_alpha 90.000000
_cell_angle_beta 90.000000
_cell_angle_gamma 90.000000
_cell_volume 5519.993786
_symmetry_space_group_name_H-M "P 4/N M M"
_symmetry_group_IT_number 129
_symmetry_cell_setting 'tetragonal'
loop_
_space_group_symop_operation_xyz
x,y,z
1/2-y,x,z
1/2-x,1/2-y,z
y,1/2-x,z
1/2+x,-y,-z
-x,1/2+y,-z
1/2+y,1/2+x,-z
-y,-x,-z
-x,-y,-z
1/2+y,-x,-z
1/2+x,1/2+y,-z
-y,1/2+x,-z
1/2-x,y,z
x,1/2-y,z
1/2-y,1/2-x,z
y,x,z
loop_
_atom_site_type_symbol
_atom_site_label
_atom_site_fract_x
_atom_site_fract_y
_atom_site_fract_z
Si Si1 0.684290 0.128104 0.875157
Si Si2 0.493014 0.817271 0.950674
Si Si3 0.872272 0.317083 0.627546
Si Si4 0.406410 0.314989 0.239104
Si Si5 0.315032 0.093486 0.550586
Si Si6 0.993055 0.316775 0.741011
O O1 0.750000 0.121033 0.886962
O O2 0.658962 0.064481 0.881987
O O3 0.670230 0.163833 0.743390
O O4 0.663908 0.163908 0.000000
O O5 0.493484 0.750000 0.952425
O O6 0.544899 0.839133 0.859351
O O7 0.497799 0.840913 0.105365
O O8 0.853807 0.353807 0.500000
O O9 0.867312 0.250000 0.599879
O O10 0.934958 0.335882 0.670703
O O11 0.392409 0.250000 0.206605
O O12 0.349535 0.349535 0.210948
O O13 0.426955 0.322102 0.394841
O O14 0.250000 0.107432 0.583229
O O15 0.349764 0.150237 0.579279
O O16 0.338983 0.044503 0.648612
O O17 0.994314 0.250000 0.746733
#
# Coordination Sequence:
#
# PCOD8315421 Si02
#       6
#    16  16  16  16  16  16
#     4  11  21  34  53  76 103 136 172 213 259 308
#     4   9  18  33  52  74 100 136 179 213 247 300
#     4  11  23  36  51  76 107 138 171 212 263 314
#     4   9  18  32  53  81 109 137 169 207 252 303
#     4   9  18  32  53  80 108 138 170 207 252 303
#     4   9  18  34  52  72 101 138 178 212 248 300
#
# _framework density 17.391323
#
# number of rings (size 3 to 8) (size 9 to 14) (size 15 to 20)
#    0.000    2.333    1.667    1.000    2.333    3.000 
#    0.000    1.667    0.000    2.000    0.000    4.667 
#    0.000    0.000    0.000    0.000    0.000    0.000 
#
# Total GULP energy -1190103.845181 kJ/mol
# GULP energy per Si atom -12396.915054 kJ/mol
# Density = 1.735174 g / cm^3
# Si number density = 17.391323 Si / 1000 Ang^3
#
#
#
# Elastic Constant Matrix: (Units=GPa)
#
#
# Indices 1 2 3 4 5 6 
#
# 1 105.5861 0.4119 33.0445 0.0000 0.0000 0.0000
# 2 0.4119 105.5861 33.0445 0.0000 0.0000 0.0000
# 3 33.0445 33.0445 109.8502 0.0000 0.0000 0.0000
# 4 0.0000 0.0000 0.0000 22.0528 0.0000 0.0000
# 5 0.0000 0.0000 0.0000 0.0000 22.0528 0.0000
# 6 0.0000 0.0000 0.0000 0.0000 0.0000 5.8656
#
#
#
# Elastic Compliance Matrix: (Units=1/GPa)
#
#
# Indices 1 2 3 4 5 6 
#
# 1 0.010560 0.001052 -0.003493 0.000000 0.000000 0.000000
# 2 0.001052 0.010560 -0.003493 0.000000 0.000000 0.000000
# 3 -0.003493 -0.003493 0.011205 0.000000 0.000000 0.000000
# 4 0.000000 0.000000 0.000000 0.045346 0.000000 0.000000
# 5 0.000000 0.000000 0.000000 0.000000 0.045346 0.000000
# 6 0.000000 0.000000 0.000000 0.000000 0.000000 0.170485
#
#
# Mechanical properties :
#
#
# Convention : Reuss Voigt Hill
#
# Bulk Modulus (GPa) = 48.88387 50.44715 49.66551
# Shear Modulus (GPa) = 16.01597 26.96235 21.48916
#
# Velocity S-wave (km/s) = 3.03795 3.94170 3.51896
# Velocity P-wave (km/s) = 6.36198 7.05592 6.71792
#
# Compressibility (1/GPa) = 0.02045665
#
# Stress axis : x y z
#
# Youngs Moduli (GPa) = 94.69658 94.69658 89.24713
#
# Poissons Ratio (x) = -0.09962 0.31175
# Poissons Ratio (y) = -0.09962 0.31175
# Poissons Ratio (z) = 0.33078 0.33078
#
# Static dielectric constant tensor:
#      x y z
#    x 3.189000 0.000000 0.000000 
#    y 0.000000 3.189000 0.000000 
#    z 0.000000 0.000000 3.481470 
# 
# 
# High freq. dielectric constant tensor:
#      x y z
#    x 1.655420 0.000000 0.000000 
#    y 0.000000 1.655420 0.000000 
#    z 0.000000 0.000000 1.684390 
# 
# From -- ./inp_files/2617.got.cif
#   From: 2010.03.12/outbox.cif.g09.slc.cpg/sg129_2_cif.got.tgz:2617.got - 2010.04.06 17:19:44.
