data_PCOD8315083
_publ_section_title
;
Structure prediction by ZEFSAII (Michael W. Deem and Ramdas Pophale) SiO2 
 PCOD8315083
Probable space group: P 4/N M M
;
_chemical_formula_sum "Si O2"
_cell_formula_units_Z 96
_cell_length_a 19.758014
_cell_length_b 19.758014
_cell_length_c 14.111899
_cell_angle_alpha 90.000000
_cell_angle_beta 90.000000
_cell_angle_gamma 90.000000
_cell_volume 5508.990674
_symmetry_space_group_name_H-M "P 4/N M M"
_symmetry_group_IT_number 129
_symmetry_cell_setting 'tetragonal'
loop_
_space_group_symop_operation_xyz
x,y,z
1/2-y,x,z
1/2-x,1/2-y,z
y,1/2-x,z
1/2+x,-y,-z
-x,1/2+y,-z
1/2+y,1/2+x,-z
-y,-x,-z
-x,-y,-z
1/2+y,-x,-z
1/2+x,1/2+y,-z
-y,1/2+x,-z
1/2-x,y,z
x,1/2-y,z
1/2-y,1/2-x,z
y,x,z
loop_
_atom_site_type_symbol
_atom_site_label
_atom_site_fract_x
_atom_site_fract_y
_atom_site_fract_z
Si Si1 0.826545 0.508429 0.744630
Si Si2 0.173906 0.433005 0.057421
Si Si3 0.329627 0.568532 0.547007
Si Si4 0.430361 0.176211 0.444767
Si Si5 0.095897 0.982597 0.928861
Si Si6 0.956756 0.427120 0.716924
O O1 0.750000 0.477166 0.752393
O O2 0.853790 0.533697 0.845817
O O3 0.825433 0.570377 0.669817
O O4 0.880989 0.454975 0.707481
O O5 0.250000 0.411660 0.071113
O O6 0.135437 0.364563 0.035100
O O7 0.164615 0.484282 0.969511
O O8 0.366079 0.633922 0.500000
O O9 0.250000 0.585329 0.566748
O O10 0.337301 0.507485 0.473442
O O11 0.366474 0.540038 0.641280
O O12 0.406184 0.250000 0.481547
O O13 0.379763 0.120237 0.487333
O O14 0.106961 0.962760 0.820231
O O15 0.079671 0.920330 0.000000
O O16 0.035591 0.035591 0.937769
O O17 0.014506 0.485495 0.699306
#
# Coordination Sequence:
#
# PCOD8315083 Si02
#       6
#    16  16  16  16  16  16
#     4  10  19  30  49  79 110 137 172 216 262 313
#     4  10  19  31  48  73 106 141 175 213 259 313
#     4  11  24  38  54  78 104 134 177 224 269 320
#     4  10  20  34  52  77 108 138 173 214 257 312
#     4   9  17  30  49  75 102 130 168 213 257 301
#     4  11  20  33  58  81 105 140 177 219 269 317
#
# _framework density 17.42606
#
# number of rings (size 3 to 8) (size 9 to 14) (size 15 to 20)
#    0.000    1.833    3.333    2.000    0.000    1.833 
#    0.000    0.000    0.000    3.000    0.000    0.000 
#    0.000    4.333    0.000    0.000    0.000    0.000 
#
# Total GULP energy -1189569.984372 kJ/mol
# GULP energy per Si atom -12391.354004 kJ/mol
# Density = 1.738640 g / cm^3
# Si number density = 17.426060 Si / 1000 Ang^3
#
#
#
# Elastic Constant Matrix: (Units=GPa)
#
#
# Indices 1 2 3 4 5 6 
#
# 1 85.2070 50.8582 33.7780 0.0000 0.0000 0.0000
# 2 50.8582 85.2071 33.7782 0.0000 0.0000 0.0000
# 3 33.7780 33.7782 96.6912 0.0000 0.0000 0.0000
# 4 0.0000 0.0000 0.0000 23.4590 0.0000 0.0000
# 5 0.0000 0.0000 0.0000 0.0000 23.4591 0.0000
# 6 0.0000 0.0000 0.0000 0.0000 0.0000 19.3903
#
#
#
# Elastic Compliance Matrix: (Units=1/GPa)
#
#
# Indices 1 2 3 4 5 6 
#
# 1 0.019002 -0.010111 -0.003106 0.000000 0.000000 0.000000
# 2 -0.010111 0.019002 -0.003106 0.000000 0.000000 0.000000
# 3 -0.003106 -0.003106 0.012512 0.000000 0.000000 0.000000
# 4 0.000000 0.000000 0.000000 0.042628 0.000000 0.000000
# 5 0.000000 0.000000 0.000000 0.000000 0.042627 0.000000
# 6 0.000000 0.000000 0.000000 0.000000 0.000000 0.051572
#
#
# Mechanical properties :
#
#
# Convention : Reuss Voigt Hill
#
# Bulk Modulus (GPa) = 55.95686 55.99267 55.97476
# Shear Modulus (GPa) = 22.12904 23.17441 22.65173
#
# Velocity S-wave (km/s) = 3.56741 3.65070 3.60929
# Velocity P-wave (km/s) = 7.01065 7.06905 7.03991
#
# Compressibility (1/GPa) = 0.01787091
#
# Stress axis : x y z
#
# Youngs Moduli (GPa) = 52.62509 52.62505 79.92049
#
# Poissons Ratio (x) = 0.53208 0.24825
# Poissons Ratio (y) = 0.53208 0.24825
# Poissons Ratio (z) = 0.16346 0.16347
#
# Static dielectric constant tensor:
#      x y z
#    x 3.122940 0.000000 0.000000 
#    y 0.000000 3.122940 0.000000 
#    z 0.000000 0.000000 3.469780 
# 
# 
# High freq. dielectric constant tensor:
#      x y z
#    x 1.657060 0.000000 0.000000 
#    y 0.000000 1.657060 0.000000 
#    z 0.000000 0.000000 1.681580 
# 
# From -- ./inp_files/3873.got.cif
#   From: 2010.03.12/outbox.cif.g09.slc.cpg/sg129_2_cif.got.tgz:3873.got - 2010.04.06 17:19:44.
