data_PCOD8315086
_publ_section_title
;
Structure prediction by ZEFSAII (Michael W. Deem and Ramdas Pophale) SiO2 
 PCOD8315086
Probable space group: P 4/N M M
;
_chemical_formula_sum "Si O2"
_cell_formula_units_Z 72
_cell_length_a 19.241477
_cell_length_b 19.241477
_cell_length_c 12.720762
_cell_angle_alpha 90.000000
_cell_angle_beta 90.000000
_cell_angle_gamma 90.000000
_cell_volume 4709.664159
_symmetry_space_group_name_H-M "P 4/N M M"
_symmetry_group_IT_number 129
_symmetry_cell_setting 'tetragonal'
loop_
_space_group_symop_operation_xyz
x,y,z
1/2-y,x,z
1/2-x,1/2-y,z
y,1/2-x,z
1/2+x,-y,-z
-x,1/2+y,-z
1/2+y,1/2+x,-z
-y,-x,-z
-x,-y,-z
1/2+y,-x,-z
1/2+x,1/2+y,-z
-y,1/2+x,-z
1/2-x,y,z
x,1/2-y,z
1/2-y,1/2-x,z
y,x,z
loop_
_atom_site_type_symbol
_atom_site_label
_atom_site_fract_x
_atom_site_fract_y
_atom_site_fract_z
Si Si1 0.443237 0.169832 0.211121
Si Si2 0.829675 0.088580 0.705744
Si Si3 0.330676 0.830676 0.500000
Si Si4 0.993938 0.611855 0.009274
Si Si5 0.887443 0.327239 0.894298
O O1 0.418496 0.250000 0.205706
O O2 0.377702 0.122299 0.243945
O O3 0.504953 0.160606 0.296799
O O4 0.474859 0.146950 0.100370
O O5 0.750000 0.109106 0.725101
O O6 0.855473 0.121692 0.596793
O O7 0.872389 0.119573 0.801796
O O8 0.343656 0.750000 0.471772
O O9 0.028711 0.669624 0.084228
O O10 0.924540 0.575461 0.056997
O O11 0.053535 0.553535 0.000000
O O12 0.867386 0.250000 0.858075
O O13 0.845030 0.345030 0.000000
#
# Coordination Sequence:
#
# PCOD8315086 Si02
#       5
#    16  16   8  16  16
#     4  10  19  32  49  68  92 121 154 192 234 279
#     4  10  19  31  45  63  89 124 159 188 228 274
#     4   9  18  32  47  62  86 124 165 192 214 261
#     4   9  16  27  43  62  87 120 150 177 216 271
#     4  11  19  26  40  65  94 117 147 188 228 270
#
# _framework density 15.287713999999999
#
# number of rings (size 3 to 8) (size 9 to 14) (size 15 to 20)
#    0.000    2.111    4.444    2.000    0.000    2.667 
#    0.000    0.556    0.000    0.000    0.000    0.000 
#    0.000    0.000    0.000    0.000    0.000   30.222 
#
# Total GULP energy -892162.624410 kJ/mol
# GULP energy per Si atom -12391.147561 kJ/mol
# Density = 1.525292 g / cm^3
# Si number density = 15.287714 Si / 1000 Ang^3
#
#
#
# Elastic Constant Matrix: (Units=GPa)
#
#
# Indices 1 2 3 4 5 6 
#
# 1 122.5554 -0.3411 34.3346 0.0000 0.0000 0.0000
# 2 -0.3411 122.5554 34.3346 0.0000 0.0000 0.0000
# 3 34.3346 34.3346 73.9695 0.0000 0.0000 0.0000
# 4 0.0000 0.0000 0.0000 16.6392 0.0000 0.0000
# 5 0.0000 0.0000 0.0000 0.0000 16.6392 0.0000
# 6 0.0000 0.0000 0.0000 0.0000 0.0000 24.6862
#
#
#
# Elastic Compliance Matrix: (Units=1/GPa)
#
#
# Indices 1 2 3 4 5 6 
#
# 1 0.009603 0.001466 -0.005138 0.000000 0.000000 0.000000
# 2 0.001466 0.009603 -0.005138 0.000000 0.000000 0.000000
# 3 -0.005138 -0.005138 0.018289 0.000000 0.000000 0.000000
# 4 0.000000 0.000000 0.000000 0.060099 0.000000 0.000000
# 5 0.000000 0.000000 0.000000 0.000000 0.060099 0.000000
# 6 0.000000 0.000000 0.000000 0.000000 0.000000 0.040508
#
#
# Mechanical properties :
#
#
# Convention : Reuss Voigt Hill
#
# Bulk Modulus (GPa) = 50.31364 50.63738 50.47551
# Shear Modulus (GPa) = 22.47727 28.30972 25.39350
#
# Velocity S-wave (km/s) = 3.83859 4.30792 4.08001
# Velocity P-wave (km/s) = 7.25458 7.61177 7.43532
#
# Compressibility (1/GPa) = 0.01987533
#
# Stress axis : x y z
#
# Youngs Moduli (GPa) = 104.13285 104.13285 54.67776
#
# Poissons Ratio (x) = -0.15268 0.28094
# Poissons Ratio (y) = -0.15268 0.28094
# Poissons Ratio (z) = 0.53504 0.53504
#
# Static dielectric constant tensor:
#      x y z
#    x 3.168030 0.000000 0.000000 
#    y 0.000000 3.168030 0.000000 
#    z 0.000000 0.000000 2.739040 
# 
# 
# High freq. dielectric constant tensor:
#      x y z
#    x 1.582110 0.000000 0.000000 
#    y 0.000000 1.582110 0.000000 
#    z 0.000000 0.000000 1.553490 
# 
# From -- ./inp_files/3688.got.cif
#   From: 2010.03.12/outbox.cif.g09.slc.cpg/sg129_2_cif.got.tgz:3688.got - 2010.04.06 17:19:44.
