data_PCOD8315892
_publ_section_title
;
Structure prediction by ZEFSAII (Michael W. Deem and Ramdas Pophale) SiO2 
 PCOD8315892
Probable space group: P 42/M M C
;
_chemical_formula_sum "Si O2"
_cell_formula_units_Z 96
_cell_length_a 24.236231
_cell_length_b 24.236231
_cell_length_c 8.750780
_cell_angle_alpha 90.000000
_cell_angle_beta 90.000000
_cell_angle_gamma 90.000000
_cell_volume 5140.163483
_symmetry_space_group_name_H-M "P 42/M M C"
_symmetry_group_IT_number 131
_symmetry_cell_setting 'tetragonal'
loop_
_space_group_symop_operation_xyz
x,y,z
-x,-y,z
-y,x,1/2+z
y,-x,1/2+z
-x,y,-z
x,-y,-z
y,x,1/2-z
-y,-x,1/2-z
-x,-y,-z
x,y,-z
y,-x,1/2-z
-y,x,1/2-z
x,-y,z
-x,y,z
-y,-x,1/2+z
y,x,1/2+z
loop_
_atom_site_type_symbol
_atom_site_label
_atom_site_fract_x
_atom_site_fract_y
_atom_site_fract_z
Si Si1 0.642138 0.435708 0.821976
Si Si2 0.061736 0.437867 0.818487
Si Si3 0.938315 0.141639 0.180902
Si Si4 0.646198 0.154363 0.681073
Si Si5 0.850485 0.770844 0.820717
Si Si6 0.727454 0.354259 0.680743
O O1 0.584089 0.415912 0.750000
O O2 0.648536 0.500000 0.794928
O O3 0.690877 0.405795 0.731995
O O4 0.644876 0.419757 0.000000
O O5 0.076898 0.500000 0.764091
O O6 0.106985 0.394820 0.754248
O O7 0.000000 0.422199 0.759661
O O8 0.061951 0.435286 0.000000
O O9 0.914994 0.085006 0.250000
O O10 0.901860 0.193072 0.239976
O O11 0.000000 0.150698 0.242182
O O12 0.937040 0.137241 0.000000
O O13 0.639695 0.161217 0.500000
O O14 0.708216 0.137742 0.728304
O O15 0.632070 0.211861 0.759610
O O16 0.793348 0.793348 0.750000
O O17 0.844011 0.776117 0.000000
O O18 0.702576 0.297425 0.750000
O O19 0.727883 0.348435 0.500000
#
# Coordination Sequence:
#
# PCOD8315892 Si02
#       6
#    16  16  16  16  16  16
#     4  10  21  37  57  80 107 140 177 217 260 305
#     4   8  15  29  49  74 103 132 164 206 252 295
#     4   9  18  32  48  67  93 124 159 200 245 293
#     4  10  19  31  51  78 103 131 170 211 253 306
#     4   9  18  31  47  68  95 126 158 196 243 291
#     4  11  22  36  54  76 106 140 174 215 262 311
#
# _framework density 18.676449999999999
#
# number of rings (size 3 to 8) (size 9 to 14) (size 15 to 20)
#    0.000    2.500    0.000    4.000    0.000    5.333 
#    0.000    6.667    0.000    0.500    0.000    3.500 
#    0.000    0.000    0.000    0.000    0.000    0.000 
#
# Total GULP energy -1190250.903654 kJ/mol
# GULP energy per Si atom -12398.446913 kJ/mol
# Density = 1.863394 g / cm^3
# Si number density = 18.676450 Si / 1000 Ang^3
#
#
#
# Elastic Constant Matrix: (Units=GPa)
#
#
# Indices 1 2 3 4 5 6 
#
# 1 141.5419 80.2763 33.7243 0.0000 0.0000 0.0000
# 2 80.2763 141.5393 33.7262 0.0000 0.0000 0.0000
# 3 33.7243 33.7262 44.3716 0.0000 0.0000 0.0000
# 4 0.0000 0.0000 0.0000 23.8602 0.0000 0.0000
# 5 0.0000 0.0000 0.0000 0.0000 23.8600 0.0000
# 6 0.0000 0.0000 0.0000 0.0000 0.0000 28.0846
#
#
#
# Elastic Compliance Matrix: (Units=1/GPa)
#
#
# Indices 1 2 3 4 5 6 
#
# 1 0.011093 -0.005230 -0.004456 0.000000 0.000000 0.000000
# 2 -0.005230 0.011093 -0.004457 0.000000 0.000000 0.000000
# 3 -0.004456 -0.004457 0.029311 0.000000 0.000000 0.000000
# 4 0.000000 0.000000 0.000000 0.041911 0.000000 0.000000
# 5 0.000000 0.000000 0.000000 0.000000 0.041911 0.000000
# 6 0.000000 0.000000 0.000000 0.000000 0.000000 0.035607
#
#
# Mechanical properties :
#
#
# Convention : Reuss Voigt Hill
#
# Bulk Modulus (GPa) = 43.08111 69.21180 56.14645
# Shear Modulus (GPa) = 24.16056 27.14271 25.65164
#
# Velocity S-wave (km/s) = 3.60062 3.81637 3.71006
# Velocity P-wave (km/s) = 6.35634 7.52053 6.96281
#
# Compressibility (1/GPa) = 0.02321203
#
# Stress axis : x y z
#
# Youngs Moduli (GPa) = 90.14868 90.14442 34.11641
#
# Poissons Ratio (x) = 0.47143 0.15202
# Poissons Ratio (y) = 0.47145 0.15206
# Poissons Ratio (z) = 0.40170 0.40178
#
# Static dielectric constant tensor:
#      x y z
#    x 3.737230 0.000000 0.000000 
#    y 0.000000 3.737190 0.000000 
#    z 0.000000 0.000000 3.248570 
# 
# 
# High freq. dielectric constant tensor:
#      x y z
#    x 1.729110 0.000000 0.000000 
#    y 0.000000 1.729110 0.000000 
#    z 0.000000 0.000000 1.703840 
# 
# From -- ./inp_files/2252.got.cif
#   From: 2010.03.12/outbox.cif.g09.slc.cpg/sg131_2_cif.got.tgz:2252.got - 2010.04.06 17:36:35.
