data_PCOD8315694
_publ_section_title
;
Structure prediction by ZEFSAII (Michael W. Deem and Ramdas Pophale) SiO2 
 PCOD8315694
Probable space group: P 42/M M C
;
_chemical_formula_sum "Si O2"
_cell_formula_units_Z 112
_cell_length_a 19.776926
_cell_length_b 19.776926
_cell_length_c 23.081899
_cell_angle_alpha 90.000000
_cell_angle_beta 90.000000
_cell_angle_gamma 90.000000
_cell_volume 9027.949340
_symmetry_space_group_name_H-M "P 42/M M C"
_symmetry_group_IT_number 131
_symmetry_cell_setting 'tetragonal'
loop_
_space_group_symop_operation_xyz
x,y,z
-x,-y,z
-y,x,1/2+z
y,-x,1/2+z
-x,y,-z
x,-y,-z
y,x,1/2-z
-y,-x,1/2-z
-x,-y,-z
x,y,-z
y,-x,1/2-z
-y,x,1/2-z
x,-y,z
-x,y,z
-y,-x,1/2+z
y,x,1/2+z
loop_
_atom_site_type_symbol
_atom_site_label
_atom_site_fract_x
_atom_site_fract_y
_atom_site_fract_z
Si Si1 0.420662 0.687960 0.933384
Si Si2 0.420026 0.787547 0.834930
Si Si3 0.823689 0.580286 0.063620
Si Si4 0.074502 0.419432 0.288470
Si Si5 0.075227 0.580181 0.158243
Si Si6 0.577513 0.318040 0.606623
Si Si7 0.315554 0.576988 0.760399
O O1 0.500000 0.673375 0.925523
O O2 0.398062 0.753487 0.895731
O O3 0.382747 0.622040 0.909629
O O4 0.402203 0.702931 0.000000
O O5 0.500000 0.791468 0.830313
O O6 0.391697 0.864767 0.829692
O O7 0.392550 0.743238 0.780781
O O8 0.825296 0.500000 0.069870
O O9 0.872311 0.612940 0.112424
O O10 0.746297 0.604276 0.070751
O O11 0.849015 0.603110 0.000000
O O12 0.072776 0.500000 0.288764
O O13 0.090141 0.393798 0.223222
O O14 0.000000 0.392769 0.308854
O O15 0.081939 0.500000 0.157213
O O16 0.000000 0.602163 0.139216
O O17 0.500000 0.336929 0.591643
O O18 0.584224 0.294507 0.673043
O O19 0.385380 0.614621 0.750000
O O20 0.329490 0.500000 0.742760
#
# Coordination Sequence:
#
# PCOD8315694 Si02
#       7
#    16  16  16  16  16  16  16
#     4  10  20  31  40  49  63  86 115 145 179 218
#     4   9  16  27  40  53  69  85 104 132 171 214
#     4   9  16  24  33  46  65  89 113 136 164 196
#     4   8  13  22  38  56  69  81  99 126 163 208
#     4   8  13  21  33  50  69  86 104 126 156 196
#     4  10  19  29  40  51  65  85 114 150 182 212
#     4  10  18  27  39  53  67  85 109 142 183 217
#
# _framework density 12.405919000000001
#
# number of rings (size 3 to 8) (size 9 to 14) (size 15 to 20)
#    0.000    2.857    1.429    2.143    0.000    5.000 
#    0.000    3.571    0.000    0.429    0.000    3.000 
#    0.000    0.000    0.000    0.000    0.000    0.000 
#
# Total GULP energy -1387840.021695 kJ/mol
# GULP energy per Si atom -12391.428765 kJ/mol
# Density = 1.237768 g / cm^3
# Si number density = 12.405919 Si / 1000 Ang^3
#
#
#
# Elastic Constant Matrix: (Units=GPa)
#
#
# Indices 1 2 3 4 5 6 
#
# 1 55.0839 24.0554 31.4816 0.0000 0.0000 0.0000
# 2 24.0554 55.0854 31.4804 0.0000 0.0000 0.0000
# 3 31.4816 31.4804 76.2603 0.0000 0.0000 0.0000
# 4 0.0000 0.0000 0.0000 13.9738 0.0000 0.0000
# 5 0.0000 0.0000 0.0000 0.0000 13.9738 0.0000
# 6 0.0000 0.0000 0.0000 0.0000 0.0000 0.7345
#
#
#
# Elastic Compliance Matrix: (Units=1/GPa)
#
#
# Indices 1 2 3 4 5 6 
#
# 1 0.025522 -0.006706 -0.007768 0.000000 0.000000 0.000000
# 2 -0.006706 0.025521 -0.007767 0.000000 0.000000 0.000000
# 3 -0.007768 -0.007767 0.019526 0.000000 0.000000 0.000000
# 4 0.000000 0.000000 0.000000 0.071563 0.000000 0.000000
# 5 0.000000 0.000000 0.000000 0.000000 0.071562 0.000000
# 6 0.000000 0.000000 0.000000 0.000000 0.000000 1.361416
#
#
# Mechanical properties :
#
#
# Convention : Reuss Voigt Hill
#
# Bulk Modulus (GPa) = 38.33237 40.05160 39.19198
# Shear Modulus (GPa) = 3.07071 12.36390 7.71731
#
# Velocity S-wave (km/s) = 1.57498 3.16034 2.49683
# Velocity P-wave (km/s) = 5.85431 6.75806 6.32235
#
# Compressibility (1/GPa) = 0.02608761
#
# Stress axis : x y z
#
# Youngs Moduli (GPa) = 39.18169 39.18396 51.21467
#
# Poissons Ratio (x) = 0.26278 0.39782
# Poissons Ratio (y) = 0.26276 0.39776
# Poissons Ratio (z) = 0.30435 0.30432
#
# Static dielectric constant tensor:
#      x y z
#    x 2.422860 0.000000 0.000000 
#    y 0.000000 2.422860 0.000000 
#    z 0.000000 0.000000 2.743910 
# 
# 
# High freq. dielectric constant tensor:
#      x y z
#    x 1.432450 0.000000 0.000000 
#    y 0.000000 1.432450 0.000000 
#    z 0.000000 0.000000 1.480790 
# 
# From -- ./inp_files/10179.got.cif
#   From: 2010.03.12/outbox.cif.g09.slc.cpg/sg131_6_cif.got.tgz:10179.got - 2010.04.06 17:36:35.
