data_PCOD8315754
_publ_section_title
;
Structure prediction by ZEFSAII (Michael W. Deem and Ramdas Pophale) SiO2 
 PCOD8315754
Probable space group: P 42/M M C
;
_chemical_formula_sum "Si O2"
_cell_formula_units_Z 84
_cell_length_a 11.960162
_cell_length_b 11.960162
_cell_length_c 32.252850
_cell_angle_alpha 90.000000
_cell_angle_beta 90.000000
_cell_angle_gamma 90.000000
_cell_volume 4613.624250
_symmetry_space_group_name_H-M "P 42/M M C"
_symmetry_group_IT_number 131
_symmetry_cell_setting 'tetragonal'
loop_
_space_group_symop_operation_xyz
x,y,z
-x,-y,z
-y,x,1/2+z
y,-x,1/2+z
-x,y,-z
x,-y,-z
y,x,1/2-z
-y,-x,1/2-z
-x,-y,-z
x,y,-z
y,-x,1/2-z
-y,x,1/2-z
x,-y,z
-x,y,z
-y,-x,1/2+z
y,x,1/2+z
loop_
_atom_site_type_symbol
_atom_site_label
_atom_site_fract_x
_atom_site_fract_y
_atom_site_fract_z
Si Si1 0.288108 0.000000 0.123272
Si Si2 0.235830 0.500000 0.545778
Si Si3 0.207581 0.369042 0.229929
Si Si4 0.744973 0.778240 0.079856
Si Si5 0.868027 0.866895 0.500000
Si Si6 0.632664 0.126797 0.358867
Si Si7 0.000000 0.369327 0.714153
Si Si8 0.000000 0.500000 0.566799
O O1 0.230110 0.115614 0.109699
O O2 0.400779 0.000000 0.098437
O O3 0.298854 0.000000 0.172374
O O4 0.295226 0.500000 0.500000
O O5 0.258953 0.614618 0.571712
O O6 0.104244 0.500000 0.536209
O O7 0.318132 0.318132 0.250000
O O8 0.225916 0.500000 0.228963
O O9 0.184060 0.324126 0.183608
O O10 0.105933 0.334133 0.259148
O O11 0.801822 0.673016 0.101895
O O12 0.809664 0.805965 0.038064
O O13 0.000000 0.837382 0.500000
O O14 0.849219 0.000000 0.500000
O O15 0.500000 0.125375 0.359551
O O16 0.678680 0.000000 0.361323
O O17 0.000000 0.500000 0.703276
#
# Coordination Sequence:
#
# PCOD8315754 Si02
#       8
#     8   8  16  16   8  16   8   4
#     4  10  18  30  50  85 120 146 181 221 279 340
#     4  10  19  32  55  82 117 147 184 230 294 355
#     4  10  20  36  59  83 112 147 187 239 292 339
#     4  11  21  36  58  87 116 153 188 237 291 349
#     4  11  22  37  56  84 119 153 197 241 293 345
#     4  10  21  41  62  81 109 153 202 240 279 339
#     4  10  18  32  54  81 110 146 188 227 275 337
#     4   8  17  26  46  78 120 152 178 214 262 341
#
# _framework density 18.206945000000001
#
# number of rings (size 3 to 8) (size 9 to 14) (size 15 to 20)
#    0.000    1.810    3.333    1.857    0.000    0.190 
#    1.714    0.952    0.000    2.571    0.000    0.000 
#    0.000    0.000    0.000    0.000    0.000    0.000 
#
# Total GULP energy -1041035.907758 kJ/mol
# GULP energy per Si atom -12393.284616 kJ/mol
# Density = 1.816551 g / cm^3
# Si number density = 18.206945 Si / 1000 Ang^3
#
#
#
# Elastic Constant Matrix: (Units=GPa)
#
#
# Indices 1 2 3 4 5 6 
#
# 1 66.9659 35.4838 46.6268 0.0000 0.0000 0.0000
# 2 35.4838 66.9659 46.6268 0.0000 0.0000 0.0000
# 3 46.6268 46.6268 149.8709 0.0000 0.0000 0.0000
# 4 0.0000 0.0000 0.0000 33.9318 0.0000 0.0000
# 5 0.0000 0.0000 0.0000 0.0000 33.9318 0.0000
# 6 0.0000 0.0000 0.0000 0.0000 0.0000 28.4294
#
#
#
# Elastic Compliance Matrix: (Units=1/GPa)
#
#
# Indices 1 2 3 4 5 6 
#
# 1 0.022691 -0.009073 -0.004236 0.000000 0.000000 0.000000
# 2 -0.009073 0.022691 -0.004236 0.000000 0.000000 0.000000
# 3 -0.004236 -0.004236 0.009308 0.000000 0.000000 0.000000
# 4 0.000000 0.000000 0.000000 0.029471 0.000000 0.000000
# 5 0.000000 0.000000 0.000000 0.000000 0.029471 0.000000
# 6 0.000000 0.000000 0.000000 0.000000 0.000000 0.035175
#
#
# Mechanical properties :
#
#
# Convention : Reuss Voigt Hill
#
# Bulk Modulus (GPa) = 51.02876 60.14191 55.58534
# Shear Modulus (GPa) = 26.25620 29.59629 27.92624
#
# Velocity S-wave (km/s) = 3.80162 4.03618 3.92065
# Velocity P-wave (km/s) = 6.88169 7.40440 7.14782
#
# Compressibility (1/GPa) = 0.01959679
#
# Stress axis : x y z
#
# Youngs Moduli (GPa) = 44.07119 44.07119 107.42952
#
# Poissons Ratio (x) = 0.39988 0.45512
# Poissons Ratio (y) = 0.39988 0.45512
# Poissons Ratio (z) = 0.18670 0.18670
#
# Static dielectric constant tensor:
#      x y z
#    x 3.344210 0.000000 0.000000 
#    y 0.000000 3.344210 0.000000 
#    z 0.000000 0.000000 3.422990 
# 
# 
# High freq. dielectric constant tensor:
#      x y z
#    x 1.693580 0.000000 0.000000 
#    y 0.000000 1.693580 0.000000 
#    z 0.000000 0.000000 1.720880 
# 
# From -- ./inp_files/13632.got.cif
#   From: 2010.03.12/outbox.cif.g09.slc.cpg/sg131_7_cif.got.tgz:13632.got - 2010.04.06 17:36:35.
