data_PCOD8315311
_publ_section_title
;
Structure prediction by ZEFSAII (Michael W. Deem and Ramdas Pophale) SiO2 
 PCOD8315311
Probable space group: P 4/N M M
;
_chemical_formula_sum "Si O2"
_cell_formula_units_Z 80
_cell_length_a 13.477531
_cell_length_b 13.477531
_cell_length_c 25.720297
_cell_angle_alpha 90.000000
_cell_angle_beta 90.000000
_cell_angle_gamma 90.000000
_cell_volume 4671.933561
_symmetry_space_group_name_H-M "P 4/N M M"
_symmetry_group_IT_number 129
_symmetry_cell_setting 'tetragonal'
loop_
_space_group_symop_operation_xyz
x,y,z
1/2-y,x,z
1/2-x,1/2-y,z
y,1/2-x,z
1/2+x,-y,-z
-x,1/2+y,-z
1/2+y,1/2+x,-z
-y,-x,-z
-x,-y,-z
1/2+y,-x,-z
1/2+x,1/2+y,-z
-y,1/2+x,-z
1/2-x,y,z
x,1/2-y,z
1/2-y,1/2-x,z
y,x,z
loop_
_atom_site_type_symbol
_atom_site_label
_atom_site_fract_x
_atom_site_fract_y
_atom_site_fract_z
Si Si1 0.030756 0.632617 0.952194
Si Si2 0.364050 0.978368 0.343036
Si Si3 0.027052 0.632454 0.139903
Si Si4 0.861162 0.133739 0.756971
Si Si5 0.025238 0.863538 0.541373
O O1 0.009113 0.750000 0.955334
O O2 0.093373 0.608522 0.900623
O O3 0.925542 0.574459 0.952568
O O4 0.098580 0.598580 0.000000
O O5 0.250000 0.001089 0.334460
O O6 0.403669 0.905826 0.297904
O O7 0.384029 0.932270 0.400392
O O8 0.416397 0.083604 0.337825
O O9 0.011451 0.750000 0.133484
O O10 0.066371 0.601899 0.196679
O O11 0.921510 0.578491 0.130285
O O12 0.750000 0.093010 0.768148
O O13 0.857737 0.250000 0.751857
O O14 0.110467 0.889534 0.500000
O O15 0.993902 0.750000 0.534714
O O16 0.927251 0.927251 0.529841
#
# Coordination Sequence:
#
# PCOD8315311 Si02
#       5
#    16  16  16  16  16
#     4  10  21  36  54  77 103 131 164 200 239 284
#     4   9  17  29  45  65  90 118 147 182 224 271
#     4  10  20  33  50  72  97 127 163 201 241 283
#     4   9  17  29  46  68  92 119 153 191 231 276
#     4   9  18  31  46  66  91 119 152 189 230 276
#
# _framework density 17.123531
#
# number of rings (size 3 to 8) (size 9 to 14) (size 15 to 20)
#    0.000    2.600    0.000    1.800    0.000    4.000 
#    0.000    4.000    0.000    3.600    0.000    2.800 
#    0.000    4.800    0.000    0.000    0.000    0.000 
#
# Total GULP energy -991714.268035 kJ/mol
# GULP energy per Si atom -12396.428350 kJ/mol
# Density = 1.708456 g / cm^3
# Si number density = 17.123531 Si / 1000 Ang^3
#
#
#
# Elastic Constant Matrix: (Units=GPa)
#
#
# Indices 1 2 3 4 5 6 
#
# 1 79.1980 42.5061 49.7481 0.0000 0.0000 0.0000
# 2 42.5061 79.2010 49.7492 0.0000 0.0000 0.0000
# 3 49.7481 49.7492 131.6173 0.0000 0.0000 0.0000
# 4 0.0000 0.0000 0.0000 24.6789 0.0000 0.0000
# 5 0.0000 0.0000 0.0000 0.0000 24.6789 0.0000
# 6 0.0000 0.0000 0.0000 0.0000 0.0000 18.1391
#
#
#
# Elastic Compliance Matrix: (Units=1/GPa)
#
#
# Indices 1 2 3 4 5 6 
#
# 1 0.019572 -0.007681 -0.004495 0.000000 0.000000 0.000000
# 2 -0.007681 0.019572 -0.004495 0.000000 0.000000 0.000000
# 3 -0.004495 -0.004495 0.010995 0.000000 0.000000 0.000000
# 4 0.000000 0.000000 0.000000 0.040520 0.000000 0.000000
# 5 0.000000 0.000000 0.000000 0.000000 0.040521 0.000000
# 6 0.000000 0.000000 0.000000 0.000000 0.000000 0.055130
#
#
# Mechanical properties :
#
#
# Convention : Reuss Voigt Hill
#
# Bulk Modulus (GPa) = 59.52659 63.78035 61.65347
# Shear Modulus (GPa) = 22.19761 23.36690 22.78226
#
# Velocity S-wave (km/s) = 3.60435 3.69807 3.65151
# Velocity P-wave (km/s) = 7.22221 7.45401 7.33903
#
# Compressibility (1/GPa) = 0.01679921
#
# Stress axis : x y z
#
# Youngs Moduli (GPa) = 51.09269 51.09454 90.94659
#
# Poissons Ratio (x) = 0.39246 0.40876
# Poissons Ratio (y) = 0.39244 0.40876
# Poissons Ratio (z) = 0.22964 0.22964
#
# Static dielectric constant tensor:
#      x y z
#    x 3.083800 0.000000 0.000000 
#    y 0.000000 3.083800 0.000000 
#    z 0.000000 0.000000 3.587060 
# 
# 
# High freq. dielectric constant tensor:
#      x y z
#    x 1.649130 0.000000 0.000000 
#    y 0.000000 1.649130 0.000000 
#    z 0.000000 0.000000 1.681690 
# 
# From -- ./inp_files/6338.got.cif
#   From: 2010.03.12/outbox.cif.g09.slc.cpg/sg129_4_cif.got.tgz:6338.got - 2010.04.06 17:19:44.
