data_PCOD8315115
_publ_section_title
;
Structure prediction by ZEFSAII (Michael W. Deem and Ramdas Pophale) SiO2 
 PCOD8315115
Probable space group: P 4/N M M
;
_chemical_formula_sum "Si O2"
_cell_formula_units_Z 96
_cell_length_a 21.325985
_cell_length_b 21.325985
_cell_length_c 12.157062
_cell_angle_alpha 90.000000
_cell_angle_beta 90.000000
_cell_angle_gamma 90.000000
_cell_volume 5529.003061
_symmetry_space_group_name_H-M "P 4/N M M"
_symmetry_group_IT_number 129
_symmetry_cell_setting 'tetragonal'
loop_
_space_group_symop_operation_xyz
x,y,z
1/2-y,x,z
1/2-x,1/2-y,z
y,1/2-x,z
1/2+x,-y,-z
-x,1/2+y,-z
1/2+y,1/2+x,-z
-y,-x,-z
-x,-y,-z
1/2+y,-x,-z
1/2+x,1/2+y,-z
-y,1/2+x,-z
1/2-x,y,z
x,1/2-y,z
1/2-y,1/2-x,z
y,x,z
loop_
_atom_site_type_symbol
_atom_site_label
_atom_site_fract_x
_atom_site_fract_y
_atom_site_fract_z
Si Si1 0.525222 0.321918 0.048465
Si Si2 0.321630 0.550991 0.808617
Si Si3 0.824850 0.924744 0.780899
Si Si4 0.494208 0.905202 0.376206
Si Si5 0.524611 0.130639 0.385202
Si Si6 0.125412 0.820020 0.766206
O O1 0.512031 0.250000 0.025789
O O2 0.464241 0.348374 0.112364
O O3 0.585429 0.330535 0.124312
O O4 0.539026 0.352589 0.929358
O O5 0.250000 0.530078 0.805064
O O6 0.359431 0.505815 0.727561
O O7 0.323989 0.624208 0.770268
O O8 0.750000 0.917245 0.776605
O O9 0.856265 0.856265 0.786290
O O10 0.848961 0.959992 0.671676
O O11 0.481922 0.862323 0.483634
O O12 0.441652 0.958800 0.359179
O O13 0.561480 0.938521 0.385846
O O14 0.581149 0.174479 0.341312
O O15 0.156102 0.750000 0.765123
#
# Coordination Sequence:
#
# PCOD8315115 Si02
#       6
#    16  16  16  16  16  16
#     4   8  16  31  46  63  89 121 158 194 228 269
#     4  10  20  31  45  69  99 127 157 195 236 280
#     4  10  19  31  50  72  95 125 158 199 251 302
#     4  10  19  31  49  70  93 121 155 197 237 278
#     4   9  17  32  50  69  92 118 155 195 234 279
#     4   9  17  30  49  69  93 128 161 191 230 278
#
# _framework density 17.362985999999999
#
# number of rings (size 3 to 8) (size 9 to 14) (size 15 to 20)
#    0.000    2.667    0.000    4.000    0.000    2.500 
#    0.000    0.000    0.000    9.000    0.000    4.667 
#    0.000    0.333    0.000    0.333    0.000    0.000 
#
# Total GULP energy -1189762.958104 kJ/mol
# GULP energy per Si atom -12393.364147 kJ/mol
# Density = 1.732347 g / cm^3
# Si number density = 17.362986 Si / 1000 Ang^3
#
#
#
# Elastic Constant Matrix: (Units=GPa)
#
#
# Indices 1 2 3 4 5 6 
#
# 1 56.9438 22.0070 31.6949 0.0000 0.0000 0.0000
# 2 22.0070 56.9438 31.6949 0.0000 0.0000 0.0000
# 3 31.6949 31.6949 125.0447 0.0000 0.0000 0.0000
# 4 0.0000 0.0000 0.0000 16.6368 0.0000 0.0000
# 5 0.0000 0.0000 0.0000 0.0000 16.6368 0.0000
# 6 0.0000 0.0000 0.0000 0.0000 0.0000 18.5683
#
#
#
# Elastic Compliance Matrix: (Units=1/GPa)
#
#
# Indices 1 2 3 4 5 6 
#
# 1 0.022263 -0.006360 -0.004031 0.000000 0.000000 0.000000
# 2 -0.006360 0.022263 -0.004031 0.000000 0.000000 0.000000
# 3 -0.004031 -0.004031 0.010040 0.000000 0.000000 0.000000
# 4 0.000000 0.000000 0.000000 0.060108 0.000000 0.000000
# 5 0.000000 0.000000 0.000000 0.000000 0.060108 0.000000
# 6 0.000000 0.000000 0.000000 0.000000 0.000000 0.053855
#
#
# Mechanical properties :
#
#
# Convention : Reuss Voigt Hill
#
# Bulk Modulus (GPa) = 38.87681 45.52510 42.20096
# Shear Modulus (GPa) = 18.79312 20.60407 19.69860
#
# Velocity S-wave (km/s) = 3.29350 3.44854 3.37191
# Velocity P-wave (km/s) = 6.07471 6.49100 6.28630
#
# Compressibility (1/GPa) = 0.02572227
#
# Stress axis : x y z
#
# Youngs Moduli (GPa) = 44.91797 44.91797 99.59677
#
# Poissons Ratio (x) = 0.28570 0.40145
# Poissons Ratio (y) = 0.28570 0.40145
# Poissons Ratio (z) = 0.18105 0.18105
#
# Static dielectric constant tensor:
#      x y z
#    x 3.032650 0.000000 0.000000 
#    y 0.000000 3.032650 0.000000 
#    z 0.000000 0.000000 3.495390 
# 
# 
# High freq. dielectric constant tensor:
#      x y z
#    x 1.646670 0.000000 0.000000 
#    y 0.000000 1.646670 0.000000 
#    z 0.000000 0.000000 1.678970 
# 
# From -- ./inp_files/3816.got.cif
#   From: 2010.03.12/outbox.cif.g09.slc.cpg/sg129_2_cif.got.tgz:3816.got - 2010.04.06 17:19:44.
