data_PCOD8315796
_publ_section_title
;
Structure prediction by ZEFSAII (Michael W. Deem and Ramdas Pophale) SiO2 
 PCOD8315796
Probable space group: P 42/M M C
;
_chemical_formula_sum "Si O2"
_cell_formula_units_Z 96
_cell_length_a 14.338067
_cell_length_b 14.338067
_cell_length_c 22.208310
_cell_angle_alpha 90.000000
_cell_angle_beta 90.000000
_cell_angle_gamma 90.000000
_cell_volume 4565.588041
_symmetry_space_group_name_H-M "P 42/M M C"
_symmetry_group_IT_number 131
_symmetry_cell_setting 'tetragonal'
loop_
_space_group_symop_operation_xyz
x,y,z
-x,-y,z
-y,x,1/2+z
y,-x,1/2+z
-x,y,-z
x,-y,-z
y,x,1/2-z
-y,-x,1/2-z
-x,-y,-z
x,y,-z
y,-x,1/2-z
-y,x,1/2-z
x,-y,z
-x,y,z
-y,-x,1/2+z
y,x,1/2+z
loop_
_atom_site_type_symbol
_atom_site_label
_atom_site_fract_x
_atom_site_fract_y
_atom_site_fract_z
Si Si1 0.894984 0.323604 0.853597
Si Si2 0.500000 0.643563 0.430268
Si Si3 0.000000 0.292015 0.566238
Si Si4 0.224040 0.800441 0.068218
Si Si5 0.606145 0.000000 0.180217
Si Si6 0.605827 0.302089 0.875366
Si Si7 0.500000 0.136507 0.567979
Si Si8 0.811845 0.609135 0.262343
O O1 0.859623 0.234114 0.889775
O O2 0.901551 0.409975 0.898501
O O3 0.815341 0.340277 0.802481
O O4 0.000000 0.306592 0.827770
O O5 0.500000 0.604844 0.500000
O O6 0.588574 0.609141 0.391417
O O7 0.500000 0.753087 0.432455
O O8 0.910917 0.226943 0.577384
O O9 0.000000 0.335443 0.500000
O O10 0.000000 0.381468 0.608809
O O11 0.324050 0.753596 0.081998
O O12 0.199678 0.772868 0.000000
O O13 0.650111 0.095434 0.205273
O O14 0.500000 0.000000 0.198991
O O15 0.500000 0.265554 0.886748
O O16 0.630994 0.278528 0.804642
O O17 0.500000 0.097942 0.500000
O O18 0.818654 0.500000 0.248815
#
# Coordination Sequence:
#
# PCOD8315796 Si02
#       8
#    16   8   8  16   8  16   8  16
#     4  12  24  41  67  95 127 169 216 274 345 410
#     4  11  23  43  63  94 141 187 229 269 319 385
#     4  10  22  41  61  88 130 171 213 275 339 388
#     4  11  24  42  64  94 129 168 220 278 338 402
#     4  10  18  35  62  93 127 162 211 272 331 390
#     4  11  23  40  65  94 131 181 227 269 319 385
#     4  11  23  39  63  96 135 169 212 275 336 399
#     4  10  21  38  62  95 132 168 217 272 331 391
#
# _framework density 21.026864
#
# number of rings (size 3 to 8) (size 9 to 14) (size 15 to 20)
#    0.000    1.167    5.000    1.500    0.000    4.167 
#    0.000    2.083    0.000    1.500    0.000    0.000 
#    0.000    0.000    0.000    0.000    0.000    0.000 
#
# Total GULP energy -1189852.938077 kJ/mol
# GULP energy per Si atom -12394.301438 kJ/mol
# Density = 2.097901 g / cm^3
# Si number density = 21.026864 Si / 1000 Ang^3
#
#
#
# Elastic Constant Matrix: (Units=GPa)
#
#
# Indices 1 2 3 4 5 6 
#
# 1 104.6767 21.7017 42.3259 0.0000 0.0000 0.0000
# 2 21.7017 104.6767 42.3259 0.0000 0.0000 0.0000
# 3 42.3259 42.3259 149.3145 0.0000 0.0000 0.0000
# 4 0.0000 0.0000 0.0000 34.6189 0.0000 0.0000
# 5 0.0000 0.0000 0.0000 0.0000 34.6189 0.0000
# 6 0.0000 0.0000 0.0000 0.0000 0.0000 15.9325
#
#
#
# Elastic Compliance Matrix: (Units=1/GPa)
#
#
# Indices 1 2 3 4 5 6 
#
# 1 0.010910 -0.001142 -0.002769 0.000000 0.000000 0.000000
# 2 -0.001142 0.010910 -0.002769 0.000000 0.000000 0.000000
# 3 -0.002769 -0.002769 0.008267 0.000000 0.000000 0.000000
# 4 0.000000 0.000000 0.000000 0.028886 0.000000 0.000000
# 5 0.000000 0.000000 0.000000 0.000000 0.028886 0.000000
# 6 0.000000 0.000000 0.000000 0.000000 0.000000 0.062765
#
#
# Mechanical properties :
#
#
# Convention : Reuss Voigt Hill
#
# Bulk Modulus (GPa) = 59.78465 63.48608 61.63536
# Shear Modulus (GPa) = 29.48847 33.85502 31.67174
#
# Velocity S-wave (km/s) = 3.74895 4.01694 3.88526
# Velocity P-wave (km/s) = 6.87268 7.19533 7.03586
#
# Compressibility (1/GPa) = 0.01672670
#
# Stress axis : x y z
#
# Youngs Moduli (GPa) = 91.66272 91.66272 120.96343
#
# Poissons Ratio (x) = 0.10470 0.33491
# Poissons Ratio (y) = 0.10470 0.33491
# Poissons Ratio (z) = 0.25379 0.25379
#
# Static dielectric constant tensor:
#      x y z
#    x 3.795920 0.000000 0.000000 
#    y 0.000000 3.795920 0.000000 
#    z 0.000000 0.000000 4.081380 
# 
# 
# High freq. dielectric constant tensor:
#      x y z
#    x 1.812400 0.000000 0.000000 
#    y 0.000000 1.812400 0.000000 
#    z 0.000000 0.000000 1.836960 
# 
# From -- ./inp_files/9833.got.cif
#   From: 2010.03.12/outbox.cif.g09.slc.cpg/sg131_5_cif.got.tgz:9833.got - 2010.04.06 17:36:35.
