data_PCOD8315696
_publ_section_title
;
Structure prediction by ZEFSAII (Michael W. Deem and Ramdas Pophale) SiO2 
 PCOD8315696
Probable space group: P 42/M M C
;
_chemical_formula_sum "Si O2"
_cell_formula_units_Z 80
_cell_length_a 13.938916
_cell_length_b 13.938916
_cell_length_c 27.375028
_cell_angle_alpha 90.000000
_cell_angle_beta 90.000000
_cell_angle_gamma 90.000000
_cell_volume 5318.786697
_symmetry_space_group_name_H-M "P 42/M M C"
_symmetry_group_IT_number 131
_symmetry_cell_setting 'tetragonal'
loop_
_space_group_symop_operation_xyz
x,y,z
-x,-y,z
-y,x,1/2+z
y,-x,1/2+z
-x,y,-z
x,-y,-z
y,x,1/2-z
-y,-x,1/2-z
-x,-y,-z
x,y,-z
y,-x,1/2-z
-y,x,1/2-z
x,-y,z
-x,y,z
-y,-x,1/2+z
y,x,1/2+z
loop_
_atom_site_type_symbol
_atom_site_label
_atom_site_fract_x
_atom_site_fract_y
_atom_site_fract_z
Si Si1 0.214636 0.112319 0.601106
Si Si2 0.724080 0.104867 0.943089
Si Si3 0.719603 0.605465 0.442349
Si Si4 0.106989 0.113458 0.696598
Si Si5 0.609761 0.209988 0.442702
O O1 0.144563 0.168353 0.564333
O O2 0.184143 0.145363 0.655801
O O3 0.325076 0.139533 0.590021
O O4 0.199026 0.000000 0.592787
O O5 0.647590 0.180426 0.920592
O O6 0.711004 0.000000 0.918425
O O7 0.706049 0.095357 0.000000
O O8 0.729697 0.596180 0.500000
O O9 0.698940 0.500000 0.419553
O O10 0.633785 0.679058 0.429766
O O11 0.146157 0.146157 0.750000
O O12 0.000000 0.156115 0.685537
O O13 0.097828 0.000000 0.697440
O O14 0.629835 0.190243 0.500000
O O15 0.500000 0.189408 0.429054
#
# Coordination Sequence:
#
# PCOD8315696 Si02
#       5
#    16  16  16  16  16
#     4  10  18  27  40  57  78 108 144 172 195 232
#     4   9  17  26  35  53  82 111 136 161 192 234
#     4   8  14  25  40  56  74  99 132 167 201 237
#     4   8  14  25  41  61  82 101 126 165 209 247
#     4   9  18  30  41  57  83 111 140 176 214 248
#
# _framework density 15.041024
#
# number of rings (size 3 to 8) (size 9 to 14) (size 15 to 20)
#    0.000    3.200    0.000    3.000    0.000    4.000 
#    0.000    6.000    0.000    0.000    0.000    5.600 
#    0.000   12.800    0.000    0.000    0.000    0.000 
#
# Total GULP energy -991148.961023 kJ/mol
# GULP energy per Si atom -12389.362013 kJ/mol
# Density = 1.500679 g / cm^3
# Si number density = 15.041024 Si / 1000 Ang^3
#
#
#
# Elastic Constant Matrix: (Units=GPa)
#
#
# Indices 1 2 3 4 5 6 
#
# 1 69.7165 9.1850 22.6214 0.0000 0.0000 0.0000
# 2 9.1850 69.7165 22.6214 0.0000 0.0000 0.0000
# 3 22.6214 22.6214 42.0898 0.0000 0.0000 0.0000
# 4 0.0000 0.0000 0.0000 10.5945 0.0000 0.0000
# 5 0.0000 0.0000 0.0000 0.0000 10.5945 0.0000
# 6 0.0000 0.0000 0.0000 0.0000 0.0000 13.2031
#
#
#
# Elastic Compliance Matrix: (Units=1/GPa)
#
#
# Indices 1 2 3 4 5 6 
#
# 1 0.017420 0.000900 -0.009846 0.000000 0.000000 0.000000
# 2 0.000900 0.017420 -0.009846 0.000000 0.000000 0.000000
# 3 -0.009846 -0.009846 0.034342 0.000000 0.000000 0.000000
# 4 0.000000 0.000000 0.000000 0.094389 0.000000 0.000000
# 5 0.000000 0.000000 0.000000 0.000000 0.094389 0.000000
# 6 0.000000 0.000000 0.000000 0.000000 0.000000 0.075740
#
#
# Mechanical properties :
#
#
# Convention : Reuss Voigt Hill
#
# Bulk Modulus (GPa) = 31.64788 32.26428 31.95608
# Shear Modulus (GPa) = 13.09526 15.35142 14.22334
#
# Velocity S-wave (km/s) = 2.95386 3.19821 3.07846
# Velocity P-wave (km/s) = 5.72018 5.92752 5.82477
#
# Compressibility (1/GPa) = 0.03159769
#
# Stress axis : x y z
#
# Youngs Moduli (GPa) = 57.40496 57.40496 29.11849
#
# Poissons Ratio (x) = -0.05165 0.28670
# Poissons Ratio (y) = -0.05165 0.28670
# Poissons Ratio (z) = 0.56522 0.56522
#
# Static dielectric constant tensor:
#      x y z
#    x 2.992430 0.000000 0.000000 
#    y 0.000000 2.992430 0.000000 
#    z 0.000000 0.000000 2.844630 
# 
# 
# High freq. dielectric constant tensor:
#      x y z
#    x 1.568580 0.000000 0.000000 
#    y 0.000000 1.568580 0.000000 
#    z 0.000000 0.000000 1.529700 
# 
# From -- ./inp_files/10913.got.cif
#   From: 2010.03.12/outbox.cif.g09.slc.cpg/sg131_6_cif.got.tgz:10913.got - 2010.04.06 17:36:35.
