data_PCOD8315830
_publ_section_title
;
Structure prediction by ZEFSAII (Michael W. Deem and Ramdas Pophale) SiO2 
 PCOD8315830
Probable space group: P 42/M M C
;
_chemical_formula_sum "Si O2"
_cell_formula_units_Z 112
_cell_length_a 29.441499
_cell_length_b 29.441499
_cell_length_c 7.978715
_cell_angle_alpha 90.000000
_cell_angle_beta 90.000000
_cell_angle_gamma 90.000000
_cell_volume 6915.965029
_symmetry_space_group_name_H-M "P 42/M M C"
_symmetry_group_IT_number 131
_symmetry_cell_setting 'tetragonal'
loop_
_space_group_symop_operation_xyz
x,y,z
-x,-y,z
-y,x,1/2+z
y,-x,1/2+z
-x,y,-z
x,-y,-z
y,x,1/2-z
-y,-x,1/2-z
-x,-y,-z
x,y,-z
y,-x,1/2-z
-y,x,1/2-z
x,-y,z
-x,y,z
-y,-x,1/2+z
y,x,1/2+z
loop_
_atom_site_type_symbol
_atom_site_label
_atom_site_fract_x
_atom_site_fract_y
_atom_site_fract_z
Si Si1 0.450326 0.622599 0.697285
Si Si2 0.276122 0.447660 0.194824
Si Si3 0.201675 0.380744 0.690663
Si Si4 0.275097 0.890969 0.313708
Si Si5 0.274453 0.051629 0.000000
Si Si6 0.106869 0.617037 0.184251
Si Si7 0.721363 0.793546 0.803639
Si Si8 0.948734 0.382933 0.500000
O O1 0.412978 0.587023 0.750000
O O2 0.453558 0.625181 0.500000
O O3 0.500000 0.608067 0.768601
O O4 0.437880 0.672922 0.762410
O O5 0.263181 0.500000 0.228089
O O6 0.243186 0.415262 0.297503
O O7 0.271715 0.435640 0.000000
O O8 0.185051 0.377126 0.500000
O O9 0.158817 0.399703 0.794999
O O10 0.216498 0.330564 0.752964
O O11 0.258485 0.906447 0.500000
O O12 0.255206 0.923740 0.168096
O O13 0.329016 0.893289 0.302690
O O14 0.259608 0.839024 0.284504
O O15 0.328706 0.053000 0.000000
O O16 0.256557 0.000000 0.000000
O O17 0.075116 0.597257 0.331944
O O18 0.089330 0.601180 0.000000
O O19 0.750486 0.750486 0.750000
O O20 0.724714 0.801681 0.000000
O O21 0.000000 0.400976 0.500000
#
# Coordination Sequence:
#
# PCOD8315830 Si02
#       8
#    16  16  16  16   8  16  16   8
#     4   9  19  35  52  70  93 119 146 179 220 265
#     4   9  19  35  51  67  90 118 146 180 224 270
#     4  10  19  31  47  66  90 117 149 189 226 270
#     4   9  16  27  41  57  82 114 147 188 234 275
#     4   9  16  26  40  58  82 113 150 191 234 279
#     4   9  16  27  43  61  86 120 150 182 229 273
#     4  10  19  30  43  62  88 118 153 190 228 273
#     4   9  16  26  40  62  91 118 151 190 223 271
#
# _framework density 16.194413000000001
#
# number of rings (size 3 to 8) (size 9 to 14) (size 15 to 20)
#    0.000    2.714    1.429    1.714    0.000    4.143 
#    0.000    7.857    0.000    0.000    0.000    0.000 
#    0.000    1.143    0.000    3.000    0.000    2.857 
#
# Total GULP energy -1388214.478020 kJ/mol
# GULP energy per Si atom -12394.772125 kJ/mol
# Density = 1.615755 g / cm^3
# Si number density = 16.194413 Si / 1000 Ang^3
#
#
#
# Elastic Constant Matrix: (Units=GPa)
#
#
# Indices 1 2 3 4 5 6 
#
# 1 103.0523 15.5879 36.3233 0.0000 0.0000 0.0000
# 2 15.5879 103.0598 36.2660 0.0000 0.0000 0.0000
# 3 36.3233 36.2660 98.6203 0.0000 0.0000 0.0000
# 4 0.0000 0.0000 0.0000 18.8931 0.0000 0.0000
# 5 0.0000 0.0000 0.0000 0.0000 18.8927 0.0000
# 6 0.0000 0.0000 0.0000 0.0000 0.0000 -1.0845
#
#
#
# Elastic Compliance Matrix: (Units=1/GPa)
#
#
# Indices 1 2 3 4 5 6 
#
# 1 0.011158 -0.000277 -0.004008 0.000000 0.000000 0.000000
# 2 -0.000277 0.011152 -0.003999 0.000000 0.000000 0.000000
# 3 -0.004008 -0.003999 0.013087 0.000000 0.000000 0.000000
# 4 0.000000 0.000000 0.000000 0.052929 0.000000 0.000000
# 5 0.000000 0.000000 0.000000 0.000000 0.052930 0.000000
# 6 0.000000 0.000000 0.000000 0.000000 0.000000 -0.922104
#
#
# Mechanical properties :
#
#
# Convention : Reuss Voigt Hill
#
# Bulk Modulus (GPa) = 53.10945 53.45410 53.28177
# Shear Modulus (GPa) = -6.59629 21.77728 7.59049
#
# Velocity S-wave (km/s) = -2.02040 3.67105 2.16732
# Velocity P-wave (km/s) = 5.23674 7.14480 6.26385
#
# Compressibility (1/GPa) = 0.01882904
#
# Stress axis : x y z
#
# Youngs Moduli (GPa) = 89.61846 89.66806 76.41436
#
# Poissons Ratio (x) = 0.02487 0.30625
# Poissons Ratio (y) = 0.02486 0.30557
# Poissons Ratio (z) = 0.35917 0.35857
#
# Static dielectric constant tensor:
#      x y z
#    x 2.827820 0.000000 0.000000 
#    y 0.000000 2.827810 0.000000 
#    z 0.000000 0.000000 3.260880 
# 
# 
# High freq. dielectric constant tensor:
#      x y z
#    x 1.587610 0.000000 0.000000 
#    y 0.000000 1.587610 0.000000 
#    z 0.000000 0.000000 1.638870 
# 
# From -- ./inp_files/2763.got.cif
#   From: 2010.03.12/outbox.cif.g09.slc.cpg/sg131_2_cif.got.tgz:2763.got - 2010.04.06 17:36:35.
