data_PCOD8315359
_publ_section_title
;
Structure prediction by ZEFSAII (Michael W. Deem and Ramdas Pophale) SiO2 
 PCOD8315359
Probable space group: P 4/N M M
;
_chemical_formula_sum "Si O2"
_cell_formula_units_Z 88
_cell_length_a 18.766131
_cell_length_b 18.766131
_cell_length_c 14.084480
_cell_angle_alpha 90.000000
_cell_angle_beta 90.000000
_cell_angle_gamma 90.000000
_cell_volume 4960.098543
_symmetry_space_group_name_H-M "P 4/N M M"
_symmetry_group_IT_number 129
_symmetry_cell_setting 'tetragonal'
loop_
_space_group_symop_operation_xyz
x,y,z
1/2-y,x,z
1/2-x,1/2-y,z
y,1/2-x,z
1/2+x,-y,-z
-x,1/2+y,-z
1/2+y,1/2+x,-z
-y,-x,-z
-x,-y,-z
1/2+y,-x,-z
1/2+x,1/2+y,-z
-y,1/2+x,-z
1/2-x,y,z
x,1/2-y,z
1/2-y,1/2-x,z
y,x,z
loop_
_atom_site_type_symbol
_atom_site_label
_atom_site_fract_x
_atom_site_fract_y
_atom_site_fract_z
Si Si1 0.552023 0.829560 0.899602
Si Si2 0.750000 0.364889 0.487854
Si Si3 0.750000 0.504405 0.574283
Si Si4 0.064626 0.832997 0.053956
Si Si5 0.878359 0.504751 0.707591
Si Si6 0.892479 0.487625 0.251629
Si Si7 0.750000 0.008057 0.363839
O O1 0.583181 0.750000 0.897483
O O2 0.618532 0.881469 0.900105
O O3 0.499461 0.840307 0.809804
O O4 0.506454 0.842511 0.993272
O O5 0.820419 0.320419 0.500000
O O6 0.750000 0.418750 0.575711
O O7 0.750000 0.406803 0.386768
O O8 0.822221 0.525639 0.626577
O O9 0.750000 0.534139 0.465378
O O10 0.083308 0.750000 0.071251
O O11 0.047794 0.872308 0.152057
O O12 0.131129 0.868872 0.000000
O O13 0.927981 0.572020 0.711126
O O14 0.925779 0.433751 0.688636
O O15 0.943665 0.556336 0.237521
O O16 0.821089 0.512485 0.306119
#
# Coordination Sequence:
#
# PCOD8315359 Si02
#       7
#    16   8   8  16  16  16   8
#     4  10  20  34  54  83 112 144 184 229 286 344
#     4   9  18  34  54  76 107 151 191 227 286 349
#     4  10  21  36  55  76 119 149 185 248 298 334
#     4  11  22  38  60  86 121 156 189 234 286 354
#     4  10  20  34  57  86 112 147 192 238 290 347
#     4  11  22  38  62  88 116 153 200 246 295 347
#     4  10  23  38  55  86 114 151 196 245 294 344
#
# _framework density 17.741582000000001
#
# number of rings (size 3 to 8) (size 9 to 14) (size 15 to 20)
#    0.545    1.182    3.636    1.636    0.000    1.818 
#    0.000    1.818    0.000    0.545    0.000    1.273 
#    0.000    0.000    0.000    0.000    0.000    0.000 
#
# Total GULP energy -1090606.879099 kJ/mol
# GULP energy per Si atom -12393.259990 kJ/mol
# Density = 1.770120 g / cm^3
# Si number density = 17.741582 Si / 1000 Ang^3
#
#
#
# Elastic Constant Matrix: (Units=GPa)
#
#
# Indices 1 2 3 4 5 6 
#
# 1 89.6918 31.4585 27.8623 0.0000 0.0000 0.0000
# 2 31.4585 89.6944 27.8627 0.0000 0.0000 0.0000
# 3 27.8623 27.8627 93.8361 0.0000 0.0000 0.0000
# 4 0.0000 0.0000 0.0000 14.2736 0.0000 0.0000
# 5 0.0000 0.0000 0.0000 0.0000 14.2693 0.0000
# 6 0.0000 0.0000 0.0000 0.0000 0.0000 10.3416
#
#
#
# Elastic Compliance Matrix: (Units=1/GPa)
#
#
# Indices 1 2 3 4 5 6 
#
# 1 0.013366 -0.003806 -0.002839 0.000000 0.000000 0.000000
# 2 -0.003806 0.013366 -0.002839 0.000000 0.000000 0.000000
# 3 -0.002839 -0.002839 0.012343 0.000000 0.000000 0.000000
# 4 0.000000 0.000000 0.000000 0.070059 0.000000 0.000000
# 5 0.000000 0.000000 0.000000 0.000000 0.070080 0.000000
# 6 0.000000 0.000000 0.000000 0.000000 0.000000 0.096697
#
#
# Mechanical properties :
#
#
# Convention : Reuss Voigt Hill
#
# Bulk Modulus (GPa) = 49.73181 49.73214 49.73198
# Shear Modulus (GPa) = 16.57937 20.17949 18.37943
#
# Velocity S-wave (km/s) = 3.06026 3.37621 3.22211
# Velocity P-wave (km/s) = 6.37017 6.57957 6.47571
#
# Compressibility (1/GPa) = 0.02010786
#
# Stress axis : x y z
#
# Youngs Moduli (GPa) = 74.81651 74.81872 81.02040
#
# Poissons Ratio (x) = 0.28477 0.22998
# Poissons Ratio (y) = 0.28476 0.22998
# Poissons Ratio (z) = 0.21237 0.21238
#
# Static dielectric constant tensor:
#      x y z
#    x 3.225670 0.000000 0.000000 
#    y 0.000000 3.225670 0.000000 
#    z 0.000000 0.000000 3.391960 
# 
# 
# High freq. dielectric constant tensor:
#      x y z
#    x 1.682700 0.000000 0.000000 
#    y 0.000000 1.682700 0.000000 
#    z 0.000000 0.000000 1.687560 
# 
# From -- ./inp_files/4832.got.cif
#   From: 2010.03.12/outbox.cif.g09.slc.cpg/sg129_3_cif.got.tgz:4832.got - 2010.04.06 17:19:44.
