data_PCOD8315378
_publ_section_title
;
Structure prediction by ZEFSAII (Michael W. Deem and Ramdas Pophale) SiO2 
 PCOD8315378
Probable space group: P 4/N M M
;
_chemical_formula_sum "Si O2"
_cell_formula_units_Z 80
_cell_length_a 18.755347
_cell_length_b 18.755347
_cell_length_c 12.493631
_cell_angle_alpha 90.000000
_cell_angle_beta 90.000000
_cell_angle_gamma 90.000000
_cell_volume 4394.797635
_symmetry_space_group_name_H-M "P 4/N M M"
_symmetry_group_IT_number 129
_symmetry_cell_setting 'tetragonal'
loop_
_space_group_symop_operation_xyz
x,y,z
1/2-y,x,z
1/2-x,1/2-y,z
y,1/2-x,z
1/2+x,-y,-z
-x,1/2+y,-z
1/2+y,1/2+x,-z
-y,-x,-z
-x,-y,-z
1/2+y,-x,-z
1/2+x,1/2+y,-z
-y,1/2+x,-z
1/2-x,y,z
x,1/2-y,z
1/2-y,1/2-x,z
y,x,z
loop_
_atom_site_type_symbol
_atom_site_label
_atom_site_fract_x
_atom_site_fract_y
_atom_site_fract_z
Si Si1 0.166988 0.953735 0.833032
Si Si2 0.551485 0.667674 0.366208
Si Si3 0.442020 0.667989 0.543998
Si Si4 0.550725 0.832164 0.967616
Si Si5 0.668213 0.060692 0.789579
O O1 0.250000 0.934016 0.833867
O O2 0.124628 0.879803 0.833688
O O3 0.145689 0.998352 0.728569
O O4 0.144743 0.998470 0.936838
O O5 0.573312 0.750000 0.357051
O O6 0.623793 0.623793 0.357234
O O7 0.513435 0.649699 0.478416
O O8 0.375662 0.624339 0.500000
O O9 0.420901 0.750000 0.526749
O O10 0.457538 0.649894 0.667079
O O11 0.573444 0.750000 0.980375
O O12 0.622429 0.877572 0.971921
O O13 0.511090 0.846515 0.855795
O O14 0.750000 0.085402 0.803686
#
# Coordination Sequence:
#
# PCOD8315378 Si02
#       5
#    16  16  16  16  16
#     4  10  20  36  56  81 112 143 180 223 269 325
#     4  10  21  36  54  78 107 140 181 229 277 328
#     4  10  20  36  55  80 112 145 184 226 268 323
#     4  10  22  39  58  81 109 142 183 231 277 326
#     4  10  21  36  55  82 115 147 182 223 268 323
#
# _framework density 18.203341999999999
#
# number of rings (size 3 to 8) (size 9 to 14) (size 15 to 20)
#    0.000    2.000    2.000    1.200    0.000    4.600 
#    0.000    2.000    0.000    7.200    0.000    5.600 
#    0.000    0.000    0.000    0.000    0.000    0.000 
#
# Total GULP energy -992319.431118 kJ/mol
# GULP energy per Si atom -12403.992889 kJ/mol
# Density = 1.816191 g / cm^3
# Si number density = 18.203342 Si / 1000 Ang^3
#
#
#
# Elastic Constant Matrix: (Units=GPa)
#
#
# Indices 1 2 3 4 5 6 
#
# 1 96.7308 74.3943 50.3633 0.0000 0.0000 0.0000
# 2 74.3943 96.7278 50.3636 0.0000 0.0000 0.0000
# 3 50.3633 50.3636 133.7724 0.0000 0.0000 0.0000
# 4 0.0000 0.0000 0.0000 20.1480 0.0000 0.0000
# 5 0.0000 0.0000 0.0000 0.0000 20.1479 0.0000
# 6 0.0000 0.0000 0.0000 0.0000 0.0000 40.1551
#
#
#
# Elastic Compliance Matrix: (Units=1/GPa)
#
#
# Indices 1 2 3 4 5 6 
#
# 1 0.026140 -0.018633 -0.002826 0.000000 0.000000 0.000000
# 2 -0.018633 0.026141 -0.002827 0.000000 0.000000 0.000000
# 3 -0.002826 -0.002827 0.009604 0.000000 0.000000 0.000000
# 4 0.000000 0.000000 0.000000 0.049633 0.000000 0.000000
# 5 0.000000 0.000000 0.000000 0.000000 0.049633 0.000000
# 6 0.000000 0.000000 0.000000 0.000000 0.000000 0.024903
#
#
# Mechanical properties :
#
#
# Convention : Reuss Voigt Hill
#
# Bulk Modulus (GPa) = 75.11618 75.27480 75.19549
# Shear Modulus (GPa) = 20.91510 26.23084 23.57297
#
# Velocity S-wave (km/s) = 3.39332 3.80016 3.60249
# Velocity P-wave (km/s) = 7.53044 7.79082 7.66174
#
# Compressibility (1/GPa) = 0.01331271
#
# Stress axis : x y z
#
# Youngs Moduli (GPa) = 38.25617 38.25459 104.12743
#
# Poissons Ratio (x) = 0.71279 0.29428
# Poissons Ratio (y) = 0.71282 0.29434
# Poissons Ratio (z) = 0.10812 0.10813
#
# Static dielectric constant tensor:
#      x y z
#    x 3.201680 0.000000 0.000000 
#    y 0.000000 3.201680 0.000000 
#    z 0.000000 0.000000 3.727130 
# 
# 
# High freq. dielectric constant tensor:
#      x y z
#    x 1.698320 0.000000 0.000000 
#    y 0.000000 1.698320 0.000000 
#    z 0.000000 0.000000 1.726140 
# 
# From -- ./inp_files/4605.got.cif
#   From: 2010.03.12/outbox.cif.g09.slc.cpg/sg129_3_cif.got.tgz:4605.got - 2010.04.06 17:19:44.
