data_PCOD8315179
_publ_section_title
;
Structure prediction by ZEFSAII (Michael W. Deem and Ramdas Pophale) SiO2 
 PCOD8315179
Probable space group: P 4/N M M
;
_chemical_formula_sum "Si O2"
_cell_formula_units_Z 96
_cell_length_a 23.195203
_cell_length_b 23.195203
_cell_length_c 10.110932
_cell_angle_alpha 90.000000
_cell_angle_beta 90.000000
_cell_angle_gamma 90.000000
_cell_volume 5439.857773
_symmetry_space_group_name_H-M "P 4/N M M"
_symmetry_group_IT_number 129
_symmetry_cell_setting 'tetragonal'
loop_
_space_group_symop_operation_xyz
x,y,z
1/2-y,x,z
1/2-x,1/2-y,z
y,1/2-x,z
1/2+x,-y,-z
-x,1/2+y,-z
1/2+y,1/2+x,-z
-y,-x,-z
-x,-y,-z
1/2+y,-x,-z
1/2+x,1/2+y,-z
-y,1/2+x,-z
1/2-x,y,z
x,1/2-y,z
1/2-y,1/2-x,z
y,x,z
loop_
_atom_site_type_symbol
_atom_site_label
_atom_site_fract_x
_atom_site_fract_y
_atom_site_fract_z
Si Si1 0.121851 0.816434 0.385302
Si Si2 0.884170 0.103033 0.853971
Si Si3 0.612393 0.517340 0.153846
Si Si4 0.089709 0.183957 0.349437
Si Si5 0.990392 0.817003 0.893108
Si Si6 0.316660 0.489670 0.591783
O O1 0.164980 0.835021 0.500000
O O2 0.131693 0.750000 0.352917
O O3 0.136575 0.850042 0.251121
O O4 0.056954 0.829238 0.432935
O O5 0.952080 0.089382 0.840801
O O6 0.848753 0.045006 0.828696
O O7 0.871606 0.128395 0.000000
O O8 0.557276 0.557276 0.134310
O O9 0.645635 0.534391 0.287404
O O10 0.656528 0.526609 0.033705
O O11 0.107799 0.250000 0.370419
O O12 0.147017 0.147017 0.364907
O O13 0.063000 0.174317 0.205057
O O14 0.043312 0.164890 0.459323
O O15 0.005809 0.750000 0.911873
O O16 0.250000 0.479506 0.627371
#
# Coordination Sequence:
#
# PCOD8315179 Si02
#       6
#    16  16  16  16  16  16
#     4  10  20  35  53  74 101 132 169 210 249 290
#     4   9  20  34  51  76 102 131 164 199 246 294
#     4  10  19  32  52  78 105 129 157 201 252 296
#     4  10  20  33  50  72  97 128 165 204 246 291
#     4  10  20  34  52  72  97 132 169 201 238 291
#     4   9  18  33  52  73  99 132 167 201 242 298
#
# _framework density 17.64752
#
# number of rings (size 3 to 8) (size 9 to 14) (size 15 to 20)
#    0.000    2.333    0.000    2.500    0.000   10.000 
#    0.000    0.000    0.000    5.500    0.000    3.500 
#    0.000   12.000    0.000    0.000    0.000    0.000 
#
# Total GULP energy -1190701.405099 kJ/mol
# GULP energy per Si atom -12403.139636 kJ/mol
# Density = 1.760735 g / cm^3
# Si number density = 17.647520 Si / 1000 Ang^3
#
#
#
# Elastic Constant Matrix: (Units=GPa)
#
#
# Indices 1 2 3 4 5 6 
#
# 1 65.7123 39.2054 32.4188 0.0000 0.0000 0.0000
# 2 39.2054 65.7185 32.4220 0.0000 0.0000 0.0000
# 3 32.4188 32.4220 85.5900 0.0000 0.0000 0.0000
# 4 0.0000 0.0000 0.0000 21.4112 0.0000 0.0000
# 5 0.0000 0.0000 0.0000 0.0000 21.4108 0.0000
# 6 0.0000 0.0000 0.0000 0.0000 0.0000 30.6756
#
#
#
# Elastic Compliance Matrix: (Units=1/GPa)
#
#
# Indices 1 2 3 4 5 6 
#
# 1 0.025084 -0.012639 -0.004713 0.000000 0.000000 0.000000
# 2 -0.012639 0.025082 -0.004714 0.000000 0.000000 0.000000
# 3 -0.004713 -0.004714 0.015255 0.000000 0.000000 0.000000
# 4 0.000000 0.000000 0.000000 0.046704 0.000000 0.000000
# 5 0.000000 0.000000 0.000000 0.000000 0.046705 0.000000
# 6 0.000000 0.000000 0.000000 0.000000 0.000000 0.032599
#
#
# Mechanical properties :
#
#
# Convention : Reuss Voigt Hill
#
# Bulk Modulus (GPa) = 46.97476 47.23480 47.10478
# Shear Modulus (GPa) = 20.60519 22.23116 21.41818
#
# Velocity S-wave (km/s) = 3.42072 3.55312 3.48755
# Velocity P-wave (km/s) = 6.50214 6.60732 6.55494
#
# Compressibility (1/GPa) = 0.02128803
#
# Stress axis : x y z
#
# Youngs Moduli (GPa) = 39.86659 39.86937 65.55424
#
# Poissons Ratio (x) = 0.50390 0.30898
# Poissons Ratio (y) = 0.50386 0.30902
# Poissons Ratio (z) = 0.18790 0.18794
#
# Static dielectric constant tensor:
#      x y z
#    x 3.182500 0.000000 0.000000 
#    y 0.000000 3.182500 0.000000 
#    z 0.000000 0.000000 3.445260 
# 
# 
# High freq. dielectric constant tensor:
#      x y z
#    x 1.675420 0.000000 0.000000 
#    y 0.000000 1.675420 0.000000 
#    z 0.000000 0.000000 1.696910 
# 
# From -- ./inp_files/2624.got.cif
#   From: 2010.03.12/outbox.cif.g09.slc.cpg/sg129_2_cif.got.tgz:2624.got - 2010.04.06 17:19:44.
