data_PCOD8315522
_publ_section_title
;
Structure prediction by ZEFSAII (Michael W. Deem and Ramdas Pophale) SiO2 
 PCOD8315522
Probable space group: P 4/N C C
;
_chemical_formula_sum "Si O2"
_cell_formula_units_Z 96
_cell_length_a 25.432632
_cell_length_b 25.432632
_cell_length_c 9.662204
_cell_angle_alpha 90.000000
_cell_angle_beta 90.000000
_cell_angle_gamma 90.000000
_cell_volume 6249.694911
_symmetry_space_group_name_H-M "P 4/N C C"
_symmetry_group_IT_number 130
_symmetry_cell_setting 'tetragonal'
loop_
_space_group_symop_operation_xyz
x,y,z
1/2-y,x,z
1/2-x,1/2-y,z
y,1/2-x,z
1/2+x,-y,1/2-z
-x,1/2+y,1/2-z
1/2+y,1/2+x,1/2-z
-y,-x,1/2-z
-x,-y,-z
1/2+y,-x,-z
1/2+x,1/2+y,-z
-y,1/2+x,-z
1/2-x,y,1/2+z
x,1/2-y,1/2+z
1/2-y,1/2-x,1/2+z
y,x,1/2+z
loop_
_atom_site_type_symbol
_atom_site_label
_atom_site_fract_x
_atom_site_fract_y
_atom_site_fract_z
Si Si1 0.267133 0.599286 0.746251
Si Si2 0.974841 0.944443 0.959257
Si Si3 0.767100 0.332737 0.506675
Si Si4 0.495506 0.083153 0.255227
Si Si5 0.655197 0.416462 0.669806
Si Si6 0.371133 0.563561 0.642008
O O1 0.291505 0.642205 0.853074
O O2 0.242145 0.624524 0.610238
O O3 0.217876 0.574830 0.830512
O O4 0.311392 0.556391 0.701847
O O5 0.920940 0.955068 0.873679
O O6 0.011274 0.906647 0.863359
O O7 0.962280 0.914225 0.101839
O O8 0.000000 0.000000 0.000000
O O9 0.807482 0.289105 0.451703
O O10 0.533151 0.133261 0.245927
O O11 0.530340 0.030340 0.250000
O O12 0.636122 0.363879 0.750000
O O13 0.632404 0.413166 0.513738
O O14 0.396808 0.603193 0.750000
#
# Coordination Sequence:
#
# PCOD8315522 Si02
#       6
#    16  16  16  16  16  16
#     4  12  23  34  45  65  85 111 154 191 242 283
#     4   9  16  30  48  70  88 105 136 181 231 286
#     4  11  22  36  49  58  77 112 157 204 238 274
#     4   8  15  28  45  66  84 106 135 171 225 275
#     4  10  21  34  48  62  86 116 146 189 233 280
#     4  11  22  33  49  67  88 113 146 191 238 284
#
# _framework density 15.360749999999999
#
# number of rings (size 3 to 8) (size 9 to 14) (size 15 to 20)
#    0.000    1.833    1.667    5.500    2.333    1.333 
#    0.000    0.000    0.000    0.000    0.000    0.000 
#    0.000    0.000    0.000    0.000    0.000    0.833 
#
# Total GULP energy -1189298.145891 kJ/mol
# GULP energy per Si atom -12388.522353 kJ/mol
# Density = 1.532579 g / cm^3
# Si number density = 15.360750 Si / 1000 Ang^3
#
#
#
# Elastic Constant Matrix: (Units=GPa)
#
#
# Indices 1 2 3 4 5 6 
#
# 1 43.8648 33.2649 21.9920 0.0000 0.0000 0.0000
# 2 33.2649 43.8642 21.9926 0.0000 0.0000 0.0000
# 3 21.9920 21.9926 69.7007 0.0000 0.0000 0.0000
# 4 0.0000 0.0000 0.0000 24.4014 0.0000 0.0000
# 5 0.0000 0.0000 0.0000 0.0000 24.4013 0.0000
# 6 0.0000 0.0000 0.0000 0.0000 0.0000 18.9657
#
#
#
# Elastic Compliance Matrix: (Units=1/GPa)
#
#
# Indices 1 2 3 4 5 6 
#
# 1 0.055076 -0.039266 -0.004988 0.000000 0.000000 0.000000
# 2 -0.039266 0.055077 -0.004989 0.000000 0.000000 0.000000
# 3 -0.004988 -0.004989 0.017495 0.000000 0.000000 0.000000
# 4 0.000000 0.000000 0.000000 0.040981 0.000000 0.000000
# 5 0.000000 0.000000 0.000000 0.000000 0.040981 0.000000
# 6 0.000000 0.000000 0.000000 0.000000 0.000000 0.052727
#
#
# Mechanical properties :
#
#
# Convention : Reuss Voigt Hill
#
# Bulk Modulus (GPa) = 34.29213 34.65875 34.47544
# Shear Modulus (GPa) = 13.49367 18.89902 16.19634
#
# Velocity S-wave (km/s) = 2.96708 3.51143 3.25067
# Velocity P-wave (km/s) = 5.84047 6.24919 6.04828
#
# Compressibility (1/GPa) = 0.02916121
#
# Stress axis : x y z
#
# Youngs Moduli (GPa) = 18.15686 18.15635 57.15906
#
# Poissons Ratio (x) = 0.71293 0.28510
# Poissons Ratio (y) = 0.71295 0.28517
# Poissons Ratio (z) = 0.09056 0.09058
#
# Static dielectric constant tensor:
#      x y z
#    x 2.865870 0.000000 0.000000 
#    y 0.000000 2.865870 0.000000 
#    z 0.000000 0.000000 3.447780 
# 
# 
# High freq. dielectric constant tensor:
#      x y z
#    x 1.546230 0.000000 0.000000 
#    y 0.000000 1.546230 0.000000 
#    z 0.000000 0.000000 1.620220 
# 
# From -- ./inp_files/1017.got.cif
#   From: 2010.03.12/outbox.cif.g09.slc.cpg/sg130_1_cif.got.tgz:1017.got - 2010.04.06 17:30:23.
