data_PCOD8315326
_publ_section_title
;
Structure prediction by ZEFSAII (Michael W. Deem and Ramdas Pophale) SiO2 
 PCOD8315326
Probable space group: P 4/N M M
;
_chemical_formula_sum "Si O2"
_cell_formula_units_Z 72
_cell_length_a 13.106883
_cell_length_b 13.106883
_cell_length_c 23.041673
_cell_angle_alpha 90.000000
_cell_angle_beta 90.000000
_cell_angle_gamma 90.000000
_cell_volume 3958.337806
_symmetry_space_group_name_H-M "P 4/N M M"
_symmetry_group_IT_number 129
_symmetry_cell_setting 'tetragonal'
loop_
_space_group_symop_operation_xyz
x,y,z
1/2-y,x,z
1/2-x,1/2-y,z
y,1/2-x,z
1/2+x,-y,-z
-x,1/2+y,-z
1/2+y,1/2+x,-z
-y,-x,-z
-x,-y,-z
1/2+y,-x,-z
1/2+x,1/2+y,-z
-y,1/2+x,-z
1/2-x,y,z
x,1/2-y,z
1/2-y,1/2-x,z
y,x,z
loop_
_atom_site_type_symbol
_atom_site_label
_atom_site_fract_x
_atom_site_fract_y
_atom_site_fract_z
Si Si1 0.867082 0.132919 0.000000
Si Si2 0.035303 0.868272 0.664739
Si Si3 0.369471 0.968511 0.119520
Si Si4 0.535549 0.368066 0.555052
Si Si5 0.965219 0.132078 0.774349
O O1 0.899895 0.066724 0.944863
O O2 0.750000 0.113732 0.016364
O O3 0.007345 0.750000 0.660714
O O4 0.108919 0.899563 0.612343
O O5 0.094261 0.889691 0.724263
O O6 0.929278 0.929278 0.661439
O O7 0.250000 0.985372 0.126653
O O8 0.408214 0.883741 0.164569
O O9 0.424024 0.075977 0.132781
O O10 0.604333 0.395668 0.500000
O O11 0.505906 0.250000 0.553312
O O12 0.430012 0.430012 0.554576
O O13 0.991607 0.250000 0.766067
O O14 0.071804 0.071804 0.771748
#
# Coordination Sequence:
#
# PCOD8315326 Si02
#       5
#     8  16  16  16  16
#     4   9  17  30  50  74  97 125 164 208 253 299
#     4  10  21  36  54  78 106 136 172 211 251 298
#     4  10  20  33  50  73 101 133 169 208 249 295
#     4  10  21  36  54  78 106 136 173 214 256 305
#     4  10  21  36  54  77 103 131 166 207 251 301
#
# _framework density 18.189451999999999
#
# number of rings (size 3 to 8) (size 9 to 14) (size 15 to 20)
#    0.000    2.111    0.000    3.000    0.000    6.000 
#    0.000    0.000    0.000   12.000    0.000    3.111 
#    0.000    0.000    0.000    0.000    0.000    0.000 
#
# Total GULP energy -893082.506249 kJ/mol
# GULP energy per Si atom -12403.923698 kJ/mol
# Density = 1.814805 g / cm^3
# Si number density = 18.189452 Si / 1000 Ang^3
#
#
#
# Elastic Constant Matrix: (Units=GPa)
#
#
# Indices 1 2 3 4 5 6 
#
# 1 115.4818 61.3440 43.6466 0.0000 0.0000 0.0000
# 2 61.3440 115.4494 43.6931 0.0000 0.0000 0.0000
# 3 43.6466 43.6931 92.9022 0.0000 0.0000 0.0000
# 4 0.0000 0.0000 0.0000 11.9732 0.0000 0.0000
# 5 0.0000 0.0000 0.0000 0.0000 11.9759 0.0000
# 6 0.0000 0.0000 0.0000 0.0000 0.0000 13.5556
#
#
#
# Elastic Compliance Matrix: (Units=1/GPa)
#
#
# Indices 1 2 3 4 5 6 
#
# 1 0.012916 -0.005555 -0.003456 0.000000 0.000000 0.000000
# 2 -0.005555 0.012927 -0.003470 0.000000 0.000000 0.000000
# 3 -0.003456 -0.003470 0.014019 0.000000 0.000000 0.000000
# 4 0.000000 0.000000 0.000000 0.083520 0.000000 0.000000
# 5 0.000000 0.000000 0.000000 0.000000 0.083501 0.000000
# 6 0.000000 0.000000 0.000000 0.000000 0.000000 0.073771
#
#
# Mechanical properties :
#
#
# Convention : Reuss Voigt Hill
#
# Bulk Modulus (GPa) = 67.10788 69.02233 68.06511
# Shear Modulus (GPa) = 16.09880 19.17758 17.63819
#
# Velocity S-wave (km/s) = 2.97823 3.25056 3.11737
# Velocity P-wave (km/s) = 6.98573 7.21920 7.10342
#
# Compressibility (1/GPa) = 0.01490138
#
# Stress axis : x y z
#
# Youngs Moduli (GPa) = 77.42099 77.35888 71.33036
#
# Poissons Ratio (x) = 0.42976 0.24648
# Poissons Ratio (y) = 0.43010 0.24749
# Poissons Ratio (z) = 0.26753 0.26841
#
# Static dielectric constant tensor:
#      x y z
#    x 3.202050 0.000000 0.000000 
#    y 0.000000 3.202040 0.000000 
#    z 0.000000 0.000000 3.606600 
# 
# 
# High freq. dielectric constant tensor:
#      x y z
#    x 1.700120 0.000000 0.000000 
#    y 0.000000 1.700120 0.000000 
#    z 0.000000 0.000000 1.727500 
# 
# From -- ./inp_files/7392.got.cif
#   From: 2010.03.12/outbox.cif.g09.slc.cpg/sg129_4_cif.got.tgz:7392.got - 2010.04.06 17:19:44.
