data_PCOD8315070
_publ_section_title
;
Structure prediction by ZEFSAII (Michael W. Deem and Ramdas Pophale) SiO2 
 PCOD8315070
Probable space group: P 4/N M M
;
_chemical_formula_sum "Si O2"
_cell_formula_units_Z 96
_cell_length_a 21.088551
_cell_length_b 21.088551
_cell_length_c 13.861118
_cell_angle_alpha 90.000000
_cell_angle_beta 90.000000
_cell_angle_gamma 90.000000
_cell_volume 6164.413193
_symmetry_space_group_name_H-M "P 4/N M M"
_symmetry_group_IT_number 129
_symmetry_cell_setting 'tetragonal'
loop_
_space_group_symop_operation_xyz
x,y,z
1/2-y,x,z
1/2-x,1/2-y,z
y,1/2-x,z
1/2+x,-y,-z
-x,1/2+y,-z
1/2+y,1/2+x,-z
-y,-x,-z
-x,-y,-z
1/2+y,-x,-z
1/2+x,1/2+y,-z
-y,1/2+x,-z
1/2-x,y,z
x,1/2-y,z
1/2-y,1/2-x,z
y,x,z
loop_
_atom_site_type_symbol
_atom_site_label
_atom_site_fract_x
_atom_site_fract_y
_atom_site_fract_z
Si Si1 0.180400 0.821398 0.231414
Si Si2 0.095712 0.507145 0.312391
Si Si3 0.924021 0.098947 0.851099
Si Si4 0.401668 0.822442 0.576512
Si Si5 0.989029 0.885308 0.989826
Si Si6 0.423231 0.177602 0.170042
O O1 0.250000 0.826118 0.181543
O O2 0.165463 0.750000 0.263474
O O3 0.126068 0.844113 0.158944
O O4 0.180761 0.864732 0.324475
O O5 0.062131 0.563945 0.251100
O O6 0.134941 0.535053 0.403971
O O7 0.145268 0.472584 0.242445
O O8 0.041545 0.458456 0.349527
O O9 0.893451 0.050646 0.925376
O O10 0.988820 0.127711 0.899245
O O11 0.356973 0.856973 0.500000
O O12 0.418651 0.750000 0.542925
O O13 0.950318 0.950318 0.985227
O O14 0.947716 0.829120 0.941174
O O15 0.415856 0.250000 0.198950
O O16 0.354753 0.145248 0.180682
#
# Coordination Sequence:
#
# PCOD8315070 Si02
#       6
#    16  16  16  16  16  16
#     4   9  18  30  40  54  79 107 136 170 203 234
#     4   9  17  29  45  64  85 107 133 170 212 249
#     4   9  15  25  42  58  75 104 136 164 198 239
#     4  10  19  30  46  64  82 110 143 171 202 245
#     4   9  16  26  40  57  77 100 130 166 199 237
#     4   9  17  28  42  60  82 108 136 167 203 242
#
# _framework density 15.573259
#
# number of rings (size 3 to 8) (size 9 to 14) (size 15 to 20)
#    0.000    2.833    0.000    4.000    0.000    6.000 
#    0.000    2.500    0.000    4.000    0.000    0.000 
#    0.000    0.000    0.000    0.000    0.000    0.333 
#
# Total GULP energy -1189359.898054 kJ/mol
# GULP energy per Si atom -12389.165605 kJ/mol
# Density = 1.553781 g / cm^3
# Si number density = 15.573259 Si / 1000 Ang^3
#
#
#
# Elastic Constant Matrix: (Units=GPa)
#
#
# Indices 1 2 3 4 5 6 
#
# 1 79.0137 29.7464 16.7415 0.0000 0.0000 0.0000
# 2 29.7464 79.0137 16.7415 0.0000 0.0000 0.0000
# 3 16.7415 16.7415 32.9599 0.0000 0.0000 0.0000
# 4 0.0000 0.0000 0.0000 19.3332 0.0000 0.0000
# 5 0.0000 0.0000 0.0000 0.0000 19.3332 0.0000
# 6 0.0000 0.0000 0.0000 0.0000 0.0000 23.1561
#
#
#
# Elastic Compliance Matrix: (Units=1/GPa)
#
#
# Indices 1 2 3 4 5 6 
#
# 1 0.015598 -0.004699 -0.005536 0.000000 0.000000 0.000000
# 2 -0.004699 0.015598 -0.005536 0.000000 0.000000 0.000000
# 3 -0.005536 -0.005536 0.035964 0.000000 0.000000 0.000000
# 4 0.000000 0.000000 0.000000 0.051725 0.000000 0.000000
# 5 0.000000 0.000000 0.000000 0.000000 0.051725 0.000000
# 6 0.000000 0.000000 0.000000 0.000000 0.000000 0.043185
#
#
# Mechanical properties :
#
#
# Convention : Reuss Voigt Hill
#
# Bulk Modulus (GPa) = 28.07592 35.27177 31.67385
# Shear Modulus (GPa) = 19.43945 20.88168 20.16057
#
# Velocity S-wave (km/s) = 3.53690 3.66576 3.60191
# Velocity P-wave (km/s) = 5.89466 6.37300 6.13849
#
# Compressibility (1/GPa) = 0.03561771
#
# Stress axis : x y z
#
# Youngs Moduli (GPa) = 64.11018 64.11018 27.80591
#
# Poissons Ratio (x) = 0.30127 0.15393
# Poissons Ratio (y) = 0.30127 0.15393
# Poissons Ratio (z) = 0.35491 0.35491
#
# Static dielectric constant tensor:
#      x y z
#    x 3.072960 0.000000 0.000000 
#    y 0.000000 3.072960 0.000000 
#    z 0.000000 0.000000 2.978940 
# 
# 
# High freq. dielectric constant tensor:
#      x y z
#    x 1.589030 0.000000 0.000000 
#    y 0.000000 1.589030 0.000000 
#    z 0.000000 0.000000 1.569420 
# 
# From -- ./inp_files/4940.got.cif
#   From: 2010.03.12/outbox.cif.g09.slc.cpg/sg129_3_cif.got.tgz:4940.got - 2010.04.06 17:19:44.
