data_PCOD8315171
_publ_section_title
;
Structure prediction by ZEFSAII (Michael W. Deem and Ramdas Pophale) SiO2 
 PCOD8315171
Probable space group: P 4/N M M
;
_chemical_formula_sum "Si O2"
_cell_formula_units_Z 72
_cell_length_a 19.586495
_cell_length_b 19.586495
_cell_length_c 10.478126
_cell_angle_alpha 90.000000
_cell_angle_beta 90.000000
_cell_angle_gamma 90.000000
_cell_volume 4019.731717
_symmetry_space_group_name_H-M "P 4/N M M"
_symmetry_group_IT_number 129
_symmetry_cell_setting 'tetragonal'
loop_
_space_group_symop_operation_xyz
x,y,z
1/2-y,x,z
1/2-x,1/2-y,z
y,1/2-x,z
1/2+x,-y,-z
-x,1/2+y,-z
1/2+y,1/2+x,-z
-y,-x,-z
-x,-y,-z
1/2+y,-x,-z
1/2+x,1/2+y,-z
-y,1/2+x,-z
1/2-x,y,z
x,1/2-y,z
1/2-y,1/2-x,z
y,x,z
loop_
_atom_site_type_symbol
_atom_site_label
_atom_site_fract_x
_atom_site_fract_y
_atom_site_fract_z
Si Si1 0.941110 0.750000 0.036257
Si Si2 0.619386 0.119386 0.000000
Si Si3 0.001157 0.611504 0.465194
Si Si4 0.360252 0.250000 0.210029
Si Si5 0.250000 0.495845 0.374607
Si Si6 0.122470 0.012924 0.827686
Si Si7 0.750000 0.077387 0.871664
O O1 0.938246 0.816257 0.126411
O O2 0.877457 0.750000 0.940446
O O3 0.009332 0.750000 0.954125
O O4 0.554254 0.119121 0.910734
O O5 0.683976 0.121963 0.906222
O O6 0.933057 0.566944 0.493286
O O7 0.999309 0.681276 0.543743
O O8 0.006327 0.633643 0.318767
O O9 0.068076 0.568076 0.500000
O O10 0.317496 0.317496 0.242018
O O11 0.425860 0.250000 0.297884
O O12 0.250000 0.559791 0.278012
O O13 0.051066 0.051066 0.846168
#
# Coordination Sequence:
#
# PCOD8315171 Si02
#       7
#     8   8  16   8   8  16   8
#     4   9  18  32  48  73 102 131 168 211 258 309
#     4  10  19  35  52  78 102 126 172 215 259 318
#     4  10  21  35  53  79 109 142 183 228 270 318
#     4  10  20  33  52  79 109 141 178 221 268 323
#     4  11  20  36  56  76 106 145 181 217 268 327
#     4  10  19  32  52  75 103 138 171 212 261 307
#     4   9  20  32  52  73  97 130 163 209 262 303
#
# _framework density 17.911643999999999
#
# number of rings (size 3 to 8) (size 9 to 14) (size 15 to 20)
#    0.000    2.111    0.000    3.667    0.000    0.222 
#    0.000    6.667    0.000    1.667    0.000    9.333 
#    0.000    0.000    0.000    0.000    0.000    0.000 
#
# Total GULP energy -892834.203909 kJ/mol
# GULP energy per Si atom -12400.475054 kJ/mol
# Density = 1.787088 g / cm^3
# Si number density = 17.911644 Si / 1000 Ang^3
#
#
#
# Elastic Constant Matrix: (Units=GPa)
#
#
# Indices 1 2 3 4 5 6 
#
# 1 114.7970 48.6211 66.1028 0.0000 0.0000 0.0000
# 2 48.6211 114.7970 66.1028 0.0000 0.0000 0.0000
# 3 66.1028 66.1028 135.3419 0.0000 0.0000 0.0000
# 4 0.0000 0.0000 0.0000 32.3226 0.0000 0.0000
# 5 0.0000 0.0000 0.0000 0.0000 32.3226 0.0000
# 6 0.0000 0.0000 0.0000 0.0000 0.0000 11.0176
#
#
#
# Elastic Compliance Matrix: (Units=1/GPa)
#
#
# Indices 1 2 3 4 5 6 
#
# 1 0.012614 -0.002497 -0.004941 0.000000 0.000000 0.000000
# 2 -0.002497 0.012614 -0.004941 0.000000 0.000000 0.000000
# 3 -0.004941 -0.004941 0.012215 0.000000 0.000000 0.000000
# 4 0.000000 0.000000 0.000000 0.030938 0.000000 0.000000
# 5 0.000000 0.000000 0.000000 0.000000 0.030938 0.000000
# 6 0.000000 0.000000 0.000000 0.000000 0.000000 0.090764
#
#
# Mechanical properties :
#
#
# Convention : Reuss Voigt Hill
#
# Bulk Modulus (GPa) = 78.83851 80.73217 79.78534
# Shear Modulus (GPa) = 22.82368 27.40647 25.11507
#
# Velocity S-wave (km/s) = 3.57352 3.91588 3.74861
# Velocity P-wave (km/s) = 7.81905 8.10036 7.96095
#
# Compressibility (1/GPa) = 0.01268416
#
# Stress axis : x y z
#
# Youngs Moduli (GPa) = 79.27735 79.27735 81.86450
#
# Poissons Ratio (x) = 0.19798 0.40450
# Poissons Ratio (y) = 0.19798 0.40450
# Poissons Ratio (z) = 0.39172 0.39172
#
# Static dielectric constant tensor:
#      x y z
#    x 3.352560 0.000000 0.000000 
#    y 0.000000 3.352560 0.000000 
#    z 0.000000 0.000000 3.418710 
# 
# 
# High freq. dielectric constant tensor:
#      x y z
#    x 1.694250 0.000000 0.000000 
#    y 0.000000 1.694250 0.000000 
#    z 0.000000 0.000000 1.701810 
# 
# From -- ./inp_files/2357.got.cif
#   From: 2010.03.12/outbox.cif.g09.slc.cpg/sg129_2_cif.got.tgz:2357.got - 2010.04.06 17:19:44.
