data_PCOD8315447
_publ_section_title
;
Structure prediction by ZEFSAII (Michael W. Deem and Ramdas Pophale) SiO2 
 PCOD8315447
Probable space group: P 4/N M M
;
_chemical_formula_sum "Si O2"
_cell_formula_units_Z 128
_cell_length_a 17.340094
_cell_length_b 17.340094
_cell_length_c 26.063257
_cell_angle_alpha 90.000000
_cell_angle_beta 90.000000
_cell_angle_gamma 90.000000
_cell_volume 7836.670401
_symmetry_space_group_name_H-M "P 4/N M M"
_symmetry_group_IT_number 129
_symmetry_cell_setting 'tetragonal'
loop_
_space_group_symop_operation_xyz
x,y,z
1/2-y,x,z
1/2-x,1/2-y,z
y,1/2-x,z
1/2+x,-y,-z
-x,1/2+y,-z
1/2+y,1/2+x,-z
-y,-x,-z
-x,-y,-z
1/2+y,-x,-z
1/2+x,1/2+y,-z
-y,1/2+x,-z
1/2-x,y,z
x,1/2-y,z
1/2-y,1/2-x,z
y,x,z
loop_
_atom_site_type_symbol
_atom_site_label
_atom_site_fract_x
_atom_site_fract_y
_atom_site_fract_z
Si Si1 0.341747 0.027882 0.500000
Si Si2 0.564968 0.064968 0.942101
Si Si3 0.037640 0.162321 0.241276
Si Si4 0.537650 0.662352 0.876043
Si Si5 0.564321 0.435679 0.422364
Si Si6 0.662321 0.537640 0.241276
Si Si7 0.065067 0.565067 0.692404
Si Si8 0.662352 0.962351 0.123957
O O1 0.250000 0.047496 0.500000
O O2 0.392282 0.107719 0.500000
O O3 0.362519 0.974121 0.451058
O O4 0.362519 0.974121 0.548942
O O5 0.533534 0.139880 0.912569
O O6 0.500000 0.000001 0.940725
O O7 0.639880 0.033533 0.912570
O O8 0.587622 0.087622 0.000000
O O9 0.060290 0.250000 0.251922
O O10 0.113212 0.113212 0.254796
O O11 0.011726 0.148563 0.182613
O O12 0.966596 0.139615 0.277784
O O13 0.560434 0.750000 0.886606
O O14 0.613046 0.613046 0.889637
O O15 0.500000 0.500000 0.419730
O O16 0.589301 0.410699 0.365174
O O17 0.750000 0.560290 0.251922
O O18 0.613212 0.613212 0.254796
O O19 0.639615 0.466596 0.277784
O O20 0.648564 0.511725 0.182613
O O21 0.000000 0.500001 0.692979
O O22 0.750000 0.939566 0.113393
O O23 0.613045 0.886955 0.110363
#
# Coordination Sequence:
#
# PCOD8315447 Si02
#       8
#    16  16  16  16  16  16  16  16
#     4   9  17  30  48  70  95 121 150 184 224 267
#     4   9  17  29  45  63  83 111 148 187 223 259
#     4   9  17  28  44  67  93 120 148 180 219 263
#     4   9  17  29  45  66  92 119 146 178 218 264
#     4   8  16  30  46  64  88 122 158 187 216 257
#     4   9  17  28  44  67  93 120 148 180 219 263
#     4   9  16  28  46  65  87 119 159 191 214 251
#     4   9  17  29  45  66  92 119 146 178 218 264
#
# _framework density 16.333466999999999
#
# number of rings (size 3 to 8) (size 9 to 14) (size 15 to 20)
#    0.000    3.125    0.000    1.500    0.000    5.125 
#    0.000    2.500    0.000    3.750    0.000   18.375 
#    0.000    0.000    0.000    0.000    0.000    0.000 
#
# Total GULP energy -1586625.955442 kJ/mol
# GULP energy per Si atom -12395.515277 kJ/mol
# Density = 1.629629 g / cm^3
# Si number density = 16.333467 Si / 1000 Ang^3
#
#
#
# Elastic Constant Matrix: (Units=GPa)
#
#
# Indices 1 2 3 4 5 6 
#
# 1 72.4527 59.0210 51.9260 0.0000 0.0000 0.0000
# 2 59.0210 72.4527 51.9260 0.0000 0.0000 0.0000
# 3 51.9260 51.9260 118.2248 0.0000 0.0000 0.0000
# 4 0.0000 0.0000 0.0000 16.4568 0.0000 0.0000
# 5 0.0000 0.0000 0.0000 0.0000 16.4568 0.0000
# 6 0.0000 0.0000 0.0000 0.0000 0.0000 16.3847
#
#
#
# Elastic Compliance Matrix: (Units=1/GPa)
#
#
# Indices 1 2 3 4 5 6 
#
# 1 0.043049 -0.031402 -0.005115 0.000000 0.000000 0.000000
# 2 -0.031402 0.043049 -0.005115 0.000000 0.000000 0.000000
# 3 -0.005115 -0.005115 0.012952 0.000000 0.000000 0.000000
# 4 0.000000 0.000000 0.000000 0.060765 0.000000 0.000000
# 5 0.000000 0.000000 0.000000 0.000000 0.060765 0.000000
# 6 0.000000 0.000000 0.000000 0.000000 0.000000 0.061033
#
#
# Mechanical properties :
#
#
# Convention : Reuss Voigt Hill
#
# Bulk Modulus (GPa) = 63.35587 65.43068 64.39327
# Shear Modulus (GPa) = 13.50846 16.54351 15.02598
#
# Velocity S-wave (km/s) = 2.87895 3.18600 3.03636
# Velocity P-wave (km/s) = 7.06572 7.32669 7.19739
#
# Compressibility (1/GPa) = 0.01578386
#
# Stress axis : x y z
#
# Youngs Moduli (GPa) = 23.22957 23.22957 77.20821
#
# Poissons Ratio (x) = 0.72945 0.39495
# Poissons Ratio (y) = 0.72945 0.39495
# Poissons Ratio (z) = 0.11883 0.11883
#
# Static dielectric constant tensor:
#      x y z
#    x 2.895660 0.000000 0.000000 
#    y 0.000000 2.895660 0.000000 
#    z 0.000000 0.000000 3.470280 
# 
# 
# High freq. dielectric constant tensor:
#      x y z
#    x 1.606280 0.000000 0.000000 
#    y 0.000000 1.606280 0.000000 
#    z 0.000000 0.000000 1.635340 
# 
# From -- ./inp_files/7248.got.cif
#   From: 2010.03.12/outbox.cif.g09.slc.cpg/sg129_4_cif.got.tgz:7248.got - 2010.04.06 17:19:44.
