data_PCOD8315416
_publ_section_title
;
Structure prediction by ZEFSAII (Michael W. Deem and Ramdas Pophale) SiO2 
 PCOD8315416
Probable space group: P 4/N M M
;
_chemical_formula_sum "Si O2"
_cell_formula_units_Z 96
_cell_length_a 21.723777
_cell_length_b 21.723777
_cell_length_c 12.449783
_cell_angle_alpha 90.000000
_cell_angle_beta 90.000000
_cell_angle_gamma 90.000000
_cell_volume 5875.332558
_symmetry_space_group_name_H-M "P 4/N M M"
_symmetry_group_IT_number 129
_symmetry_cell_setting 'tetragonal'
loop_
_space_group_symop_operation_xyz
x,y,z
1/2-y,x,z
1/2-x,1/2-y,z
y,1/2-x,z
1/2+x,-y,-z
-x,1/2+y,-z
1/2+y,1/2+x,-z
-y,-x,-z
-x,-y,-z
1/2+y,-x,-z
1/2+x,1/2+y,-z
-y,1/2+x,-z
1/2-x,y,z
x,1/2-y,z
1/2-y,1/2-x,z
y,x,z
loop_
_atom_site_type_symbol
_atom_site_label
_atom_site_fract_x
_atom_site_fract_y
_atom_site_fract_z
Si Si1 0.009038 0.681247 0.324668
Si Si2 0.180290 0.949149 0.301473
Si Si3 0.102372 0.005130 0.878056
Si Si4 0.150667 0.681516 0.377683
Si Si5 0.099634 0.497285 0.485922
Si Si6 0.902517 0.499345 0.878190
O O1 0.980610 0.750000 0.331681
O O2 0.004070 0.659703 0.201293
O O3 0.077996 0.682098 0.367942
O O4 0.975631 0.632626 0.403302
O O5 0.250000 0.968887 0.305372
O O6 0.175454 0.874217 0.302988
O O7 0.150107 0.981707 0.402527
O O8 0.154128 0.981474 0.195811
O O9 0.052046 0.953393 0.856344
O O10 0.071831 0.071831 0.857866
O O11 0.124190 0.999403 0.001084
O O12 0.169914 0.669914 0.500000
O O13 0.175675 0.750000 0.342768
O O14 0.054686 0.554686 0.500000
O O15 0.061070 0.438931 0.442729
O O16 0.934342 0.565659 0.852809
#
# Coordination Sequence:
#
# PCOD8315416 Si02
#       6
#    16  16  16  16  16  16
#     4  11  19  30  48  72 101 126 159 201 241 286
#     4  12  21  32  48  71 101 129 168 208 239 282
#     4   9  17  32  53  71  93 125 162 199 243 302
#     4  11  21  33  46  64  97 137 173 207 233 269
#     4  11  20  32  50  70  95 127 162 202 254 302
#     4   9  18  33  51  71  95 126 162 200 249 300
#
# _framework density 16.339500999999998
#
# number of rings (size 3 to 8) (size 9 to 14) (size 15 to 20)
#    0.000    1.500    5.000    3.000    0.000    4.500 
#    0.000    0.000    0.000    0.000    0.000    0.000 
#    0.000   27.333    0.000   14.667    0.000    0.000 
#
# Total GULP energy -1189799.335536 kJ/mol
# GULP energy per Si atom -12393.743078 kJ/mol
# Density = 1.630231 g / cm^3
# Si number density = 16.339501 Si / 1000 Ang^3
#
#
#
# Elastic Constant Matrix: (Units=GPa)
#
#
# Indices 1 2 3 4 5 6 
#
# 1 81.7165 53.5559 46.6898 0.0000 0.0000 0.0000
# 2 53.5559 81.7165 46.6898 0.0000 0.0000 0.0000
# 3 46.6898 46.6898 92.0803 0.0000 0.0000 0.0000
# 4 0.0000 0.0000 0.0000 13.1765 0.0000 0.0000
# 5 0.0000 0.0000 0.0000 0.0000 13.1765 0.0000
# 6 0.0000 0.0000 0.0000 0.0000 0.0000 13.4127
#
#
#
# Elastic Compliance Matrix: (Units=1/GPa)
#
#
# Indices 1 2 3 4 5 6 
#
# 1 0.023442 -0.012069 -0.005767 0.000000 0.000000 0.000000
# 2 -0.012069 0.023442 -0.005767 0.000000 0.000000 0.000000
# 3 -0.005767 -0.005767 0.016708 0.000000 0.000000 0.000000
# 4 0.000000 0.000000 0.000000 0.075893 0.000000 0.000000
# 5 0.000000 0.000000 0.000000 0.000000 0.075893 0.000000
# 6 0.000000 0.000000 0.000000 0.000000 0.000000 0.074556
#
#
# Mechanical properties :
#
#
# Convention : Reuss Voigt Hill
#
# Bulk Modulus (GPa) = 61.02220 61.04269 61.03245
# Shear Modulus (GPa) = 14.59422 15.19167 14.89294
#
# Velocity S-wave (km/s) = 2.99186 3.05249 3.02233
# Velocity P-wave (km/s) = 7.02585 7.06142 7.04366
#
# Compressibility (1/GPa) = 0.01638748
#
# Stress axis : x y z
#
# Youngs Moduli (GPa) = 42.65840 42.65840 59.85003
#
# Poissons Ratio (x) = 0.51483 0.34515
# Poissons Ratio (y) = 0.51483 0.34515
# Poissons Ratio (z) = 0.24601 0.24601
#
# Static dielectric constant tensor:
#      x y z
#    x 2.953350 0.000000 0.000000 
#    y 0.000000 2.953350 0.000000 
#    z 0.000000 0.000000 2.876750 
# 
# 
# High freq. dielectric constant tensor:
#      x y z
#    x 1.610770 0.000000 0.000000 
#    y 0.000000 1.610770 0.000000 
#    z 0.000000 0.000000 1.630300 
# 
# From -- ./inp_files/3871.got.cif
#   From: 2010.03.12/outbox.cif.g09.slc.cpg/sg129_2_cif.got.tgz:3871.got - 2010.04.06 17:19:44.
