data_PCOD8315047
_publ_section_title
;
Structure prediction by ZEFSAII (Michael W. Deem and Ramdas Pophale) SiO2 
 PCOD8315047
Probable space group: P 4/N M M
;
_chemical_formula_sum "Si O2"
_cell_formula_units_Z 72
_cell_length_a 14.147630
_cell_length_b 14.147630
_cell_length_c 22.631940
_cell_angle_alpha 90.000000
_cell_angle_beta 90.000000
_cell_angle_gamma 90.000000
_cell_volume 4529.905787
_symmetry_space_group_name_H-M "P 4/N M M"
_symmetry_group_IT_number 129
_symmetry_cell_setting 'tetragonal'
loop_
_space_group_symop_operation_xyz
x,y,z
1/2-y,x,z
1/2-x,1/2-y,z
y,1/2-x,z
1/2+x,-y,-z
-x,1/2+y,-z
1/2+y,1/2+x,-z
-y,-x,-z
-x,-y,-z
1/2+y,-x,-z
1/2+x,1/2+y,-z
-y,1/2+x,-z
1/2-x,y,z
x,1/2-y,z
1/2-y,1/2-x,z
y,x,z
loop_
_atom_site_type_symbol
_atom_site_label
_atom_site_fract_x
_atom_site_fract_y
_atom_site_fract_z
Si Si1 0.991001 0.142578 0.173261
Si Si2 0.640198 0.486258 0.961386
Si Si3 0.142006 0.640239 0.278793
Si Si4 0.358368 0.858368 0.500000
Si Si5 0.639214 0.014978 0.388136
O O1 0.020659 0.250000 0.183759
O O2 0.084179 0.084179 0.187286
O O3 0.954881 0.126695 0.106564
O O4 0.909099 0.110872 0.217983
O O5 0.750000 0.503547 0.977039
O O6 0.583345 0.583345 0.974623
O O7 0.599634 0.400367 0.000000
O O8 0.250000 0.616210 0.296036
O O9 0.128709 0.750000 0.267096
O O10 0.075352 0.605749 0.331736
O O11 0.374233 0.750000 0.519392
O O12 0.424166 0.886274 0.445532
O O13 0.750000 0.991127 0.385328
O O14 0.583369 0.916632 0.389773
#
# Coordination Sequence:
#
# PCOD8315047 Si02
#       5
#    16  16  16   8  16
#     4   9  17  29  45  65  89 115 142 174 213 258
#     4   9  18  31  46  66  91 118 149 184 222 265
#     4   9  17  29  45  65  87 111 142 179 216 251
#     4   9  17  30  48  68  87 107 136 176 218 255
#     4  10  19  30  45  64  87 115 144 174 209 250
#
# _framework density 15.894371
#
# number of rings (size 3 to 8) (size 9 to 14) (size 15 to 20)
#    0.000    2.778    0.000    1.667    0.000    4.444 
#    0.000    4.444    0.000    0.000    0.000    0.000 
#    0.000   21.333    0.000    0.000    0.000    0.000 
#
# Total GULP energy -892774.656793 kJ/mol
# GULP energy per Si atom -12399.648011 kJ/mol
# Density = 1.585819 g / cm^3
# Si number density = 15.894371 Si / 1000 Ang^3
#
#
#
# Elastic Constant Matrix: (Units=GPa)
#
#
# Indices 1 2 3 4 5 6 
#
# 1 83.9597 54.2906 60.9096 0.0000 0.0000 0.0000
# 2 54.2906 83.9612 60.9099 0.0000 0.0000 0.0000
# 3 60.9096 60.9099 107.5153 0.0000 0.0000 0.0000
# 4 0.0000 0.0000 0.0000 25.3545 0.0000 0.0000
# 5 0.0000 0.0000 0.0000 0.0000 25.3545 0.0000
# 6 0.0000 0.0000 0.0000 0.0000 0.0000 27.4250
#
#
#
# Elastic Compliance Matrix: (Units=1/GPa)
#
#
# Indices 1 2 3 4 5 6 
#
# 1 0.024074 -0.009631 -0.008182 0.000000 0.000000 0.000000
# 2 -0.009631 0.024073 -0.008182 0.000000 0.000000 0.000000
# 3 -0.008182 -0.008182 0.018572 0.000000 0.000000 0.000000
# 4 0.000000 0.000000 0.000000 0.039441 0.000000 0.000000
# 5 0.000000 0.000000 0.000000 0.000000 0.039441 0.000000
# 6 0.000000 0.000000 0.000000 0.000000 0.000000 0.036463
#
#
# Mechanical properties :
#
#
# Convention : Reuss Voigt Hill
#
# Bulk Modulus (GPa) = 67.89428 69.73960 68.81694
# Shear Modulus (GPa) = 20.92368 22.24853 21.58611
#
# Velocity S-wave (km/s) = 3.63219 3.74541 3.68924
# Velocity P-wave (km/s) = 7.77168 7.91684 7.84460
#
# Compressibility (1/GPa) = 0.01472878
#
# Stress axis : x y z
#
# Youngs Moduli (GPa) = 41.53876 41.53969 53.84484
#
# Poissons Ratio (x) = 0.40005 0.44058
# Poissons Ratio (y) = 0.40004 0.44057
# Poissons Ratio (z) = 0.33989 0.33989
#
# Static dielectric constant tensor:
#      x y z
#    x 2.947730 0.000000 0.000000 
#    y 0.000000 2.947730 0.000000 
#    z 0.000000 0.000000 3.176570 
# 
# 
# High freq. dielectric constant tensor:
#      x y z
#    x 1.603480 0.000000 0.000000 
#    y 0.000000 1.603480 0.000000 
#    z 0.000000 0.000000 1.619760 
# 
# From -- ./inp_files/5494.got.cif
#   From: 2010.03.12/outbox.cif.g09.slc.cpg/sg129_3_cif.got.tgz:5494.got - 2010.04.06 17:19:44.
