data_PCOD8315000
_publ_section_title
;
Structure prediction by ZEFSAII (Michael W. Deem and Ramdas Pophale) SiO2 
 PCOD8315000
Probable space group: P 4/N M M
;
_chemical_formula_sum "Si O2"
_cell_formula_units_Z 112
_cell_length_a 14.111252
_cell_length_b 14.111252
_cell_length_c 34.872118
_cell_angle_alpha 90.000000
_cell_angle_beta 90.000000
_cell_angle_gamma 90.000000
_cell_volume 6943.995341
_symmetry_space_group_name_H-M "P 4/N M M"
_symmetry_group_IT_number 129
_symmetry_cell_setting 'tetragonal'
loop_
_space_group_symop_operation_xyz
x,y,z
1/2-y,x,z
1/2-x,1/2-y,z
y,1/2-x,z
1/2+x,-y,-z
-x,1/2+y,-z
1/2+y,1/2+x,-z
-y,-x,-z
-x,-y,-z
1/2+y,-x,-z
1/2+x,1/2+y,-z
-y,1/2+x,-z
1/2-x,y,z
x,1/2-y,z
1/2-y,1/2-x,z
y,x,z
loop_
_atom_site_type_symbol
_atom_site_label
_atom_site_fract_x
_atom_site_fract_y
_atom_site_fract_z
Si Si1 0.640168 0.014128 0.661204
Si Si2 0.011494 0.858348 0.476785
Si Si3 0.137539 0.855260 0.957633
Si Si4 0.358377 0.859661 0.182969
Si Si5 0.358531 0.988230 0.612490
Si Si6 0.485226 0.862063 0.111330
Si Si7 0.990372 0.142174 0.251641
O O1 0.750000 0.995624 0.651311
O O2 0.601087 0.099196 0.635201
O O3 0.626233 0.046964 0.705177
O O4 0.583111 0.916890 0.652896
O O5 0.994223 0.750000 0.489057
O O6 0.916162 0.916162 0.486989
O O7 0.036332 0.866881 0.432161
O O8 0.100454 0.899547 0.500000
O O9 0.250000 0.848007 0.955383
O O10 0.095129 0.750000 0.949811
O O11 0.100632 0.928397 0.925872
O O12 0.107873 0.892127 0.000000
O O13 0.250000 0.883603 0.171928
O O14 0.371610 0.750000 0.191329
O O15 0.424157 0.892526 0.148124
O O16 0.390894 0.910010 0.222068
O O17 0.250000 0.004879 0.624791
O O18 0.416281 0.083720 0.622689
O O19 0.504007 0.750000 0.109941
O O20 0.586355 0.913646 0.112845
O O21 0.018928 0.250000 0.244726
O O22 0.084963 0.084963 0.243294
#
# Coordination Sequence:
#
# PCOD8315000 Si02
#       7
#    16  16  16  16  16  16  16
#     4   9  18  31  46  66  92 121 152 184 218 259
#     4   9  18  32  49  69  93 120 150 185 224 266
#     4   8  14  26  44  64  84 104 129 167 212 250
#     4   9  17  29  45  64  84 106 136 176 218 254
#     4   9  18  32  49  69  92 118 149 186 227 268
#     4  10  19  29  42  60  83 112 142 170 202 242
#     4   9  17  29  45  65  89 115 142 173 210 254
#
# _framework density 16.129042999999999
#
# number of rings (size 3 to 8) (size 9 to 14) (size 15 to 20)
#    0.000    3.000    0.000    1.286    0.000    4.286 
#    0.000    5.714    0.000    0.000    0.000    4.000 
#    0.000    6.000    0.000    0.571    0.000    0.143 
#
# Total GULP energy -1388608.436582 kJ/mol
# GULP energy per Si atom -12398.289612 kJ/mol
# Density = 1.609233 g / cm^3
# Si number density = 16.129043 Si / 1000 Ang^3
#
#
#
# Elastic Constant Matrix: (Units=GPa)
#
#
# Indices 1 2 3 4 5 6 
#
# 1 91.6344 50.9327 53.3127 0.0000 0.0000 0.0000
# 2 50.9327 91.6359 53.3126 0.0000 0.0000 0.0000
# 3 53.3127 53.3126 79.8192 0.0000 0.0000 0.0000
# 4 0.0000 0.0000 0.0000 22.6604 0.0000 0.0000
# 5 0.0000 0.0000 0.0000 0.0000 22.6603 0.0000
# 6 0.0000 0.0000 0.0000 0.0000 0.0000 20.7866
#
#
#
# Elastic Compliance Matrix: (Units=1/GPa)
#
#
# Indices 1 2 3 4 5 6 
#
# 1 0.019292 -0.005277 -0.009361 0.000000 0.000000 0.000000
# 2 -0.005277 0.019292 -0.009361 0.000000 0.000000 0.000000
# 3 -0.009361 -0.009361 0.025033 0.000000 0.000000 0.000000
# 4 0.000000 0.000000 0.000000 0.044130 0.000000 0.000000
# 5 0.000000 0.000000 0.000000 0.000000 0.044130 0.000000
# 6 0.000000 0.000000 0.000000 0.000000 0.000000 0.048108
#
#
# Mechanical properties :
#
#
# Convention : Reuss Voigt Hill
#
# Bulk Modulus (GPa) = 64.02261 64.24504 64.13383
# Shear Modulus (GPa) = 19.74812 20.25689 20.00250
#
# Velocity S-wave (km/s) = 3.50291 3.54775 3.52540
# Velocity P-wave (km/s) = 7.49271 7.52997 7.51136
#
# Compressibility (1/GPa) = 0.01561948
#
# Stress axis : x y z
#
# Youngs Moduli (GPa) = 51.83456 51.83599 39.94705
#
# Poissons Ratio (x) = 0.27352 0.37395
# Poissons Ratio (y) = 0.27351 0.37394
# Poissons Ratio (z) = 0.48524 0.48523
#
# Static dielectric constant tensor:
#      x y z
#    x 2.971000 0.000000 0.000000 
#    y 0.000000 2.971000 0.000000 
#    z 0.000000 0.000000 3.262020 
# 
# 
# High freq. dielectric constant tensor:
#      x y z
#    x 1.607500 0.000000 0.000000 
#    y 0.000000 1.607500 0.000000 
#    z 0.000000 0.000000 1.628440 
# 
# From -- ./inp_files/7882.got.cif
#   From: 2010.03.12/outbox.cif.g09.slc.cpg/sg129_4_cif.got.tgz:7882.got - 2010.04.06 17:19:44.
