data_PCOD8315383
_publ_section_title
;
Structure prediction by ZEFSAII (Michael W. Deem and Ramdas Pophale) SiO2 
 PCOD8315383
Probable space group: P 4/N M M
;
_chemical_formula_sum "Si O2"
_cell_formula_units_Z 80
_cell_length_a 25.677460
_cell_length_b 25.677460
_cell_length_c 5.823050
_cell_angle_alpha 90.000000
_cell_angle_beta 90.000000
_cell_angle_gamma 90.000000
_cell_volume 3839.322923
_symmetry_space_group_name_H-M "P 4/N M M"
_symmetry_group_IT_number 129
_symmetry_cell_setting 'tetragonal'
loop_
_space_group_symop_operation_xyz
x,y,z
1/2-y,x,z
1/2-x,1/2-y,z
y,1/2-x,z
1/2+x,-y,-z
-x,1/2+y,-z
1/2+y,1/2+x,-z
-y,-x,-z
-x,-y,-z
1/2+y,-x,-z
1/2+x,1/2+y,-z
-y,1/2+x,-z
1/2-x,y,z
x,1/2-y,z
1/2-y,1/2-x,z
y,x,z
loop_
_atom_site_type_symbol
_atom_site_label
_atom_site_fract_x
_atom_site_fract_y
_atom_site_fract_z
Si Si1 0.348643 0.810029 0.742850
Si Si2 0.807698 0.510430 0.179912
Si Si3 0.392477 0.191006 0.134588
Si Si4 0.379859 0.462085 0.435254
Si Si5 0.128882 0.943337 0.137461
O O1 0.316466 0.816466 0.500000
O O2 0.363192 0.750000 0.760526
O O3 0.324424 0.824424 0.000000
O O4 0.399792 0.845223 0.700270
O O5 0.750000 0.499047 0.279582
O O6 0.808941 0.568600 0.079175
O O7 0.853067 0.506187 0.363642
O O8 0.821639 0.464527 0.005468
O O9 0.378002 0.250000 0.207430
O O10 0.339784 0.160216 0.066907
O O11 0.421071 0.162484 0.343395
O O12 0.431550 0.431550 0.514554
O O13 0.396996 0.506853 0.259464
O O14 0.081212 0.918789 0.000000
#
# Coordination Sequence:
#
# PCOD8315383 Si02
#       5
#    16  16  16  16  16
#     4  11  25  44  69  99 134 173 216 268 324 388
#     4  10  20  36  60  85 114 154 200 250 306 371
#     4   9  18  33  52  81 116 151 195 245 299 363
#     4  10  21  37  60  86 115 155 205 258 313 370
#     4  10  24  41  59  86 124 158 202 255 313 379
#
# _framework density 20.837008999999998
#
# number of rings (size 3 to 8) (size 9 to 14) (size 15 to 20)
#    0.000    2.000    0.000    2.400    5.600    5.000 
#    0.000    1.000    0.000    0.000    0.000    2.800 
#    0.000    0.000    0.000    0.000    0.000    0.000 
#
# Total GULP energy -991056.618541 kJ/mol
# GULP energy per Si atom -12388.207732 kJ/mol
# Density = 2.078958 g / cm^3
# Si number density = 20.837009 Si / 1000 Ang^3
#
#
#
# Elastic Constant Matrix: (Units=GPa)
#
#
# Indices 1 2 3 4 5 6 
#
# 1 84.9942 32.5204 17.7872 0.0000 0.0000 0.0000
# 2 32.5204 85.0096 17.7891 0.0000 0.0000 0.0000
# 3 17.7872 17.7891 82.8683 0.0000 0.0000 0.0000
# 4 0.0000 0.0000 0.0000 13.5077 0.0000 0.0000
# 5 0.0000 0.0000 0.0000 0.0000 13.5162 0.0000
# 6 0.0000 0.0000 0.0000 0.0000 0.0000 25.7678
#
#
#
# Elastic Compliance Matrix: (Units=1/GPa)
#
#
# Indices 1 2 3 4 5 6 
#
# 1 0.014079 -0.004977 -0.001953 0.000000 0.000000 0.000000
# 2 -0.004977 0.014076 -0.001953 0.000000 0.000000 0.000000
# 3 -0.001953 -0.001953 0.012906 0.000000 0.000000 0.000000
# 4 0.000000 0.000000 0.000000 0.074032 0.000000 0.000000
# 5 0.000000 0.000000 0.000000 0.000000 0.073985 0.000000
# 6 0.000000 0.000000 0.000000 0.000000 0.000000 0.038808
#
#
# Mechanical properties :
#
#
# Convention : Reuss Voigt Hill
#
# Bulk Modulus (GPa) = 42.93146 43.22949 43.08047
# Shear Modulus (GPa) = 19.73021 22.87667 21.30344
#
# Velocity S-wave (km/s) = 3.08048 3.31703 3.20094
# Velocity P-wave (km/s) = 5.77068 5.95498 5.86355
#
# Compressibility (1/GPa) = 0.02329294
#
# Stress axis : x y z
#
# Youngs Moduli (GPa) = 71.02971 71.04243 77.48347
#
# Poissons Ratio (x) = 0.35358 0.15136
# Poissons Ratio (y) = 0.35351 0.15136
# Poissons Ratio (z) = 0.13876 0.13877
#
# Static dielectric constant tensor:
#      x y z
#    x 3.794430 0.000000 0.000000 
#    y 0.000000 3.794430 0.000000 
#    z 0.000000 0.000000 4.139720 
# 
# 
# High freq. dielectric constant tensor:
#      x y z
#    x 1.818320 0.000000 0.000000 
#    y 0.000000 1.818320 0.000000 
#    z 0.000000 0.000000 1.804020 
# 
# From -- ./inp_files/989.got.cif
#   From: 2010.03.12/outbox.cif.g09.slc.cpg/sg129_1_cif.got.tgz:989.got - 2010.04.06 17:19:44.
