data_PCOD8315633
_publ_section_title
;
Structure prediction by ZEFSAII (Michael W. Deem and Ramdas Pophale) SiO2 
 PCOD8315633
Probable space group: P 4/N C C
;
_chemical_formula_sum "Si O2"
_cell_formula_units_Z 96
_cell_length_a 22.690117
_cell_length_b 22.690117
_cell_length_c 9.581285
_cell_angle_alpha 90.000000
_cell_angle_beta 90.000000
_cell_angle_gamma 90.000000
_cell_volume 4932.842274
_symmetry_space_group_name_H-M "P 4/N C C"
_symmetry_group_IT_number 130
_symmetry_cell_setting 'tetragonal'
loop_
_space_group_symop_operation_xyz
x,y,z
1/2-y,x,z
1/2-x,1/2-y,z
y,1/2-x,z
1/2+x,-y,1/2-z
-x,1/2+y,1/2-z
1/2+y,1/2+x,1/2-z
-y,-x,1/2-z
-x,-y,-z
1/2+y,-x,-z
1/2+x,1/2+y,-z
-y,1/2+x,-z
1/2-x,y,1/2+z
x,1/2-y,1/2+z
1/2-y,1/2-x,1/2+z
y,x,1/2+z
loop_
_atom_site_type_symbol
_atom_site_label
_atom_site_fract_x
_atom_site_fract_y
_atom_site_fract_z
Si Si1 0.946231 0.624505 0.604094
Si Si2 0.741295 0.000014 0.025544
Si Si3 0.890664 0.390664 0.750000
Si Si4 0.761281 0.420168 0.772921
Si Si5 0.854593 0.354593 0.250000
Si Si6 0.546071 0.865344 0.923841
Si Si7 0.575614 0.430590 0.541081
O O1 0.956914 0.685213 0.519238
O O2 0.929782 0.636553 0.765649
O O3 0.891293 0.594427 0.528307
O O4 0.003068 0.581591 0.597189
O O5 0.800147 0.966506 0.980772
O O6 0.731295 0.057813 0.930949
O O7 0.741435 0.023053 0.184416
O O8 0.822662 0.398459 0.709944
O O9 0.931177 0.411527 0.623051
O O10 0.714827 0.366507 0.768282
O O11 0.889374 0.376126 0.386043
O O12 0.488544 0.906120 0.925323
#
# Coordination Sequence:
#
# PCOD8315633 Si02
#       7
#    16  16   8  16   8  16  16
#     4  12  26  41  66  98 129 168 214 268 327 392
#     4  12  22  44  64  88 132 176 210 260 330 398
#     4  12  24  33  63  98 118 176 230 270 313 381
#     4  12  22  39  64  88 126 179 226 266 322 374
#     4  12  20  41  63  84 130 178 224 272 315 371
#     4  12  26  41  66  98 129 168 214 268 327 392
#     4  12  21  40  59  91 131 164 211 276 331 387
#
# _framework density 19.461396000000001
#
# number of rings (size 3 to 8) (size 9 to 14) (size 15 to 20)
#    0.000    0.000   10.000    0.500    4.667    0.333 
#    0.000    0.000    0.000    4.500    0.000    2.333 
#    0.000    0.000    0.000    0.000    0.000    0.000 
#
# Total GULP energy -1190888.478492 kJ/mol
# GULP energy per Si atom -12405.088318 kJ/mol
# Density = 1.941710 g / cm^3
# Si number density = 19.461396 Si / 1000 Ang^3
#
#
#
# Elastic Constant Matrix: (Units=GPa)
#
#
# Indices 1 2 3 4 5 6 
#
# 1 72.7360 54.6756 20.5607 0.0000 0.0000 0.0000
# 2 54.6756 72.7360 20.5607 0.0000 0.0000 0.0000
# 3 20.5607 20.5607 110.7702 0.0000 0.0000 0.0000
# 4 0.0000 0.0000 0.0000 27.3208 0.0000 0.0000
# 5 0.0000 0.0000 0.0000 0.0000 27.3208 0.0000
# 6 0.0000 0.0000 0.0000 0.0000 0.0000 33.9534
#
#
#
# Elastic Compliance Matrix: (Units=1/GPa)
#
#
# Indices 1 2 3 4 5 6 
#
# 1 0.031859 -0.023511 -0.001550 0.000000 0.000000 0.000000
# 2 -0.023511 0.031859 -0.001550 0.000000 0.000000 0.000000
# 3 -0.001550 -0.001550 0.009603 0.000000 0.000000 0.000000
# 4 0.000000 0.000000 0.000000 0.036602 0.000000 0.000000
# 5 0.000000 0.000000 0.000000 0.000000 0.036602 0.000000
# 6 0.000000 0.000000 0.000000 0.000000 0.000000 0.029452
#
#
# Mechanical properties :
#
#
# Convention : Reuss Voigt Hill
#
# Bulk Modulus (GPa) = 49.74676 49.75956 49.75316
# Shear Modulus (GPa) = 21.19556 28.41536 24.80546
#
# Velocity S-wave (km/s) = 3.30374 3.82526 3.57402
# Velocity P-wave (km/s) = 6.33800 6.71818 6.53086
#
# Compressibility (1/GPa) = 0.02010181
#
# Stress axis : x y z
#
# Youngs Moduli (GPa) = 31.38799 31.38799 104.13440
#
# Poissons Ratio (x) = 0.73795 0.16137
# Poissons Ratio (y) = 0.73795 0.16137
# Poissons Ratio (z) = 0.04864 0.04864
#
# Static dielectric constant tensor:
#      x y z
#    x 3.474880 0.000000 0.000000 
#    y 0.000000 3.474880 0.000000 
#    z 0.000000 0.000000 3.737610 
# 
# 
# High freq. dielectric constant tensor:
#      x y z
#    x 1.740600 0.000000 0.000000 
#    y 0.000000 1.740600 0.000000 
#    z 0.000000 0.000000 1.780920 
# 
# From -- ./inp_files/954.got.cif
#   From: 2010.03.12/outbox.cif.g09.slc.cpg/sg130_1_cif.got.tgz:954.got - 2010.04.06 17:30:23.
