data_PCOD8315109
_publ_section_title
;
Structure prediction by ZEFSAII (Michael W. Deem and Ramdas Pophale) SiO2 
 PCOD8315109
Probable space group: P 4/N M M
;
_chemical_formula_sum "Si O2"
_cell_formula_units_Z 112
_cell_length_a 14.400025
_cell_length_b 14.400025
_cell_length_c 29.221427
_cell_angle_alpha 90.000000
_cell_angle_beta 90.000000
_cell_angle_gamma 90.000000
_cell_volume 6059.376142
_symmetry_space_group_name_H-M "P 4/N M M"
_symmetry_group_IT_number 129
_symmetry_cell_setting 'tetragonal'
loop_
_space_group_symop_operation_xyz
x,y,z
1/2-y,x,z
1/2-x,1/2-y,z
y,1/2-x,z
1/2+x,-y,-z
-x,1/2+y,-z
1/2+y,1/2+x,-z
-y,-x,-z
-x,-y,-z
1/2+y,-x,-z
1/2+x,1/2+y,-z
-y,1/2+x,-z
1/2-x,y,z
x,1/2-y,z
1/2-y,1/2-x,z
y,x,z
loop_
_atom_site_type_symbol
_atom_site_label
_atom_site_fract_x
_atom_site_fract_y
_atom_site_fract_z
Si Si1 0.993119 0.356606 0.215612
Si Si2 0.856602 0.006625 0.369269
Si Si3 0.351946 0.928063 0.930729
Si Si4 0.358251 0.993636 0.830629
Si Si5 0.493337 0.856596 0.676548
Si Si6 0.011907 0.152862 0.027712
Si Si7 0.143408 0.993382 0.522870
O O1 0.003995 0.250000 0.198761
O O2 0.902004 0.402378 0.192863
O O3 0.977786 0.360154 0.269546
O O4 0.085693 0.414308 0.201653
O O5 0.750000 0.996056 0.352325
O O6 0.903048 0.096968 0.346404
O O7 0.860155 0.021911 0.423199
O O8 0.913570 0.913570 0.355260
O O9 0.250000 0.884108 0.929477
O O10 0.371536 0.985138 0.884983
O O11 0.420916 0.842793 0.940128
O O12 0.366230 0.995564 0.974125
O O13 0.250000 0.002707 0.816667
O O14 0.413833 0.086168 0.814559
O O15 0.503967 0.750000 0.659620
O O16 0.586413 0.913588 0.662606
O O17 0.064333 0.250000 0.032618
O O18 0.074299 0.074299 0.049804
O O19 0.096981 0.903020 0.500000
O O20 0.250000 0.003962 0.505942
O O21 0.086406 0.086406 0.508858
#
# Coordination Sequence:
#
# PCOD8315109 Si02
#       7
#    16  16  16  16  16  16  16
#     4   9  19  35  54  76 100 127 160 198 240 285
#     4   9  18  32  50  72  98 130 167 206 248 292
#     4   9  18  33  52  70  89 118 155 194 235 272
#     4  10  20  34  52  73  98 127 159 196 237 282
#     4   9  18  33  52  74 100 128 160 199 241 287
#     4  10  19  31  48  69  95 124 152 185 224 269
#     4   9  18  32  49  70  97 129 166 208 251 295
#
# _framework density 18.483751000000002
#
# number of rings (size 3 to 8) (size 9 to 14) (size 15 to 20)
#    0.000    2.714    0.000    1.714    0.000    3.571 
#    0.000    8.571    0.000    2.571    0.000   10.000 
#    0.000    0.000    0.000    0.000    0.000    0.000 
#
# Total GULP energy -1387932.163656 kJ/mol
# GULP energy per Si atom -12392.251461 kJ/mol
# Density = 1.844168 g / cm^3
# Si number density = 18.483751 Si / 1000 Ang^3
#
#
#
# Elastic Constant Matrix: (Units=GPa)
#
#
# Indices 1 2 3 4 5 6 
#
# 1 151.2124 83.0977 33.7483 0.0000 0.0000 0.0000
# 2 83.0977 151.2134 33.7482 0.0000 0.0000 0.0000
# 3 33.7483 33.7482 26.0041 0.0000 0.0000 0.0000
# 4 0.0000 0.0000 0.0000 22.8955 0.0000 0.0000
# 5 0.0000 0.0000 0.0000 0.0000 22.8954 0.0000
# 6 0.0000 0.0000 0.0000 0.0000 0.0000 14.3692
#
#
#
# Elastic Compliance Matrix: (Units=1/GPa)
#
#
# Indices 1 2 3 4 5 6 
#
# 1 0.010749 -0.003933 -0.008846 0.000000 0.000000 0.000000
# 2 -0.003933 0.010748 -0.008846 0.000000 0.000000 0.000000
# 3 -0.008846 -0.008846 0.061416 0.000000 0.000000 0.000000
# 4 0.000000 0.000000 0.000000 0.043677 0.000000 0.000000
# 5 0.000000 0.000000 0.000000 0.000000 0.043677 0.000000
# 6 0.000000 0.000000 0.000000 0.000000 0.000000 0.069593
#
#
# Mechanical properties :
#
#
# Convention : Reuss Voigt Hill
#
# Bulk Modulus (GPa) = 25.21150 69.95760 47.58455
# Shear Modulus (GPa) = 16.87311 23.88774 20.38042
#
# Velocity S-wave (km/s) = 3.02464 3.59885 3.32416
# Velocity P-wave (km/s) = 5.08599 7.42962 6.36658
#
# Compressibility (1/GPa) = 0.03966445
#
# Stress axis : x y z
#
# Youngs Moduli (GPa) = 93.03554 93.03670 16.28245
#
# Poissons Ratio (x) = 0.36587 0.14403
# Poissons Ratio (y) = 0.36586 0.14403
# Poissons Ratio (z) = 0.82299 0.82298
#
# Static dielectric constant tensor:
#      x y z
#    x 3.563600 0.000000 0.000000 
#    y 0.000000 3.563590 0.000000 
#    z 0.000000 0.000000 3.262630 
# 
# 
# High freq. dielectric constant tensor:
#      x y z
#    x 1.716590 0.000000 0.000000 
#    y 0.000000 1.716590 0.000000 
#    z 0.000000 0.000000 1.702300 
# 
# From -- ./inp_files/7563.got.cif
#   From: 2010.03.12/outbox.cif.g09.slc.cpg/sg129_4_cif.got.tgz:7563.got - 2010.04.06 17:19:44.
