data_PCOD8315287
_publ_section_title
;
Structure prediction by ZEFSAII (Michael W. Deem and Ramdas Pophale) SiO2 
 PCOD8315287
Probable space group: P 4/N M M
;
_chemical_formula_sum "Si O2"
_cell_formula_units_Z 80
_cell_length_a 13.491386
_cell_length_b 13.491386
_cell_length_c 25.457928
_cell_angle_alpha 90.000000
_cell_angle_beta 90.000000
_cell_angle_gamma 90.000000
_cell_volume 4633.788313
_symmetry_space_group_name_H-M "P 4/N M M"
_symmetry_group_IT_number 129
_symmetry_cell_setting 'tetragonal'
loop_
_space_group_symop_operation_xyz
x,y,z
1/2-y,x,z
1/2-x,1/2-y,z
y,1/2-x,z
1/2+x,-y,-z
-x,1/2+y,-z
1/2+y,1/2+x,-z
-y,-x,-z
-x,-y,-z
1/2+y,-x,-z
1/2+x,1/2+y,-z
-y,1/2+x,-z
1/2-x,y,z
x,1/2-y,z
1/2-y,1/2-x,z
y,x,z
loop_
_atom_site_type_symbol
_atom_site_label
_atom_site_fract_x
_atom_site_fract_y
_atom_site_fract_z
Si Si1 0.367339 0.860744 0.849626
Si Si2 0.637765 0.477399 0.539937
Si Si3 0.024872 0.864282 0.659390
Si Si4 0.472093 0.633139 0.045650
Si Si5 0.634275 0.473666 0.253843
O O1 0.250000 0.852410 0.848766
O O2 0.413530 0.750000 0.851717
O O3 0.401884 0.922942 0.899956
O O4 0.404751 0.915850 0.797449
O O5 0.610654 0.389347 0.500000
O O6 0.750000 0.509568 0.530860
O O7 0.573969 0.573969 0.526617
O O8 0.620304 0.440138 0.599388
O O9 0.003969 0.750000 0.672261
O O10 0.112950 0.905170 0.695720
O O11 0.923230 0.923230 0.670880
O O12 0.494094 0.750000 0.044360
O O13 0.576087 0.576087 0.038137
O O14 0.394981 0.605020 0.000000
O O15 0.750000 0.497848 0.250738
O O16 0.577963 0.577963 0.258391
#
# Coordination Sequence:
#
# PCOD8315287 Si02
#       5
#    16  16  16  16  16
#     4   9  17  30  49  71  94 122 157 197 240 284
#     4   9  18  32  49  70  96 124 156 195 237 283
#     4   9  18  32  50  72  96 123 156 195 240 288
#     4  10  20  33  50  73 100 131 168 207 247 293
#     4  10  20  33  49  70  97 129 165 203 242 285
#
# _framework density 17.264493000000002
#
# number of rings (size 3 to 8) (size 9 to 14) (size 15 to 20)
#    0.000    2.600    0.000    1.800    0.000    4.000 
#    0.000    4.000    0.000    3.600    0.000    5.600 
#    0.000   14.400    0.000    0.000    0.000    0.000 
#
# Total GULP energy -992075.105622 kJ/mol
# GULP energy per Si atom -12400.938820 kJ/mol
# Density = 1.722520 g / cm^3
# Si number density = 17.264493 Si / 1000 Ang^3
#
#
#
# Elastic Constant Matrix: (Units=GPa)
#
#
# Indices 1 2 3 4 5 6 
#
# 1 88.4821 39.0566 47.8714 0.0000 0.0000 0.0000
# 2 39.0566 88.4870 47.8715 0.0000 0.0000 0.0000
# 3 47.8714 47.8715 116.3730 0.0000 0.0000 0.0000
# 4 0.0000 0.0000 0.0000 27.5424 0.0000 0.0000
# 5 0.0000 0.0000 0.0000 0.0000 27.5423 0.0000
# 6 0.0000 0.0000 0.0000 0.0000 0.0000 13.0303
#
#
#
# Elastic Compliance Matrix: (Units=1/GPa)
#
#
# Indices 1 2 3 4 5 6 
#
# 1 0.015788 -0.004444 -0.004667 0.000000 0.000000 0.000000
# 2 -0.004444 0.015787 -0.004666 0.000000 0.000000 0.000000
# 3 -0.004667 -0.004666 0.012432 0.000000 0.000000 0.000000
# 4 0.000000 0.000000 0.000000 0.036308 0.000000 0.000000
# 5 0.000000 0.000000 0.000000 0.000000 0.036308 0.000000
# 6 0.000000 0.000000 0.000000 0.000000 0.000000 0.076744
#
#
# Mechanical properties :
#
#
# Convention : Reuss Voigt Hill
#
# Bulk Modulus (GPa) = 60.77556 62.54902 61.66229
# Shear Modulus (GPa) = 22.08436 24.19250 23.13843
#
# Velocity S-wave (km/s) = 3.58044 3.74744 3.66489
# Velocity P-wave (km/s) = 7.23684 7.41842 7.32819
#
# Compressibility (1/GPa) = 0.01645398
#
# Stress axis : x y z
#
# Youngs Moduli (GPa) = 63.33909 63.34346 80.43674
#
# Poissons Ratio (x) = 0.28150 0.37536
# Poissons Ratio (y) = 0.28148 0.37532
# Poissons Ratio (z) = 0.29557 0.29557
#
# Static dielectric constant tensor:
#      x y z
#    x 3.091370 0.000000 0.000000 
#    y 0.000000 3.091370 0.000000 
#    z 0.000000 0.000000 3.463380 
# 
# 
# High freq. dielectric constant tensor:
#      x y z
#    x 1.655950 0.000000 0.000000 
#    y 0.000000 1.655950 0.000000 
#    z 0.000000 0.000000 1.682520 
# 
# From -- ./inp_files/6301.got.cif
#   From: 2010.03.12/outbox.cif.g09.slc.cpg/sg129_4_cif.got.tgz:6301.got - 2010.04.06 17:19:44.
