data_PCOD8315424
_publ_section_title
;
Structure prediction by ZEFSAII (Michael W. Deem and Ramdas Pophale) SiO2 
 PCOD8315424
Probable space group: P 4/N M M
;
_chemical_formula_sum "Si O2"
_cell_formula_units_Z 56
_cell_length_a 15.137130
_cell_length_b 15.137130
_cell_length_c 10.532159
_cell_angle_alpha 90.000000
_cell_angle_beta 90.000000
_cell_angle_gamma 90.000000
_cell_volume 2413.262077
_symmetry_space_group_name_H-M "P 4/N M M"
_symmetry_group_IT_number 129
_symmetry_cell_setting 'tetragonal'
loop_
_space_group_symop_operation_xyz
x,y,z
1/2-y,x,z
1/2-x,1/2-y,z
y,1/2-x,z
1/2+x,-y,-z
-x,1/2+y,-z
1/2+y,1/2+x,-z
-y,-x,-z
-x,-y,-z
1/2+y,-x,-z
1/2+x,1/2+y,-z
-y,1/2+x,-z
1/2-x,y,z
x,1/2-y,z
1/2-y,1/2-x,z
y,x,z
loop_
_atom_site_type_symbol
_atom_site_label
_atom_site_fract_x
_atom_site_fract_y
_atom_site_fract_z
Si Si1 0.111935 0.250000 0.440731
Si Si2 0.103629 0.250000 0.918333
Si Si3 0.850212 0.149789 0.000000
Si Si4 0.929473 0.420888 0.767229
Si Si5 0.250000 0.987401 0.662858
Si Si6 0.750000 0.978735 0.805179
O O1 0.163423 0.163423 0.484401
O O2 0.023368 0.250000 0.520635
O O3 0.105302 0.250000 0.287330
O O4 0.161998 0.161998 0.924732
O O5 0.042214 0.250000 0.045133
O O6 0.055300 0.250000 0.781886
O O7 0.865344 0.072126 0.101339
O O8 0.750000 0.138759 0.943841
O O9 0.837587 0.470842 0.760199
O O10 0.012815 0.487185 0.758887
O O11 0.933170 0.342339 0.663891
#
# Coordination Sequence:
#
# PCOD8315424 Si02
#       6
#     8   8   8  16   8   8
#     4  11  24  46  72  99 138 182 230 291 348 407
#     4  11  22  40  66  97 134 174 226 289 344 405
#     4  11  21  40  66  98 141 187 228 284 338 411
#     4  12  24  42  68  96 137 183 228 286 344 407
#     4  12  26  44  67 102 137 181 233 280 344 416
#     4  12  26  44  67 102 137 181 233 280 344 416
#
# _framework density 23.205105
#
# number of rings (size 3 to 8) (size 9 to 14) (size 15 to 20)
#    0.000    0.429    2.857    7.286    0.000    4.000 
#    0.000    2.857    0.000    1.714    0.000    0.000 
#    0.000    0.000    0.000    0.000    0.000    0.000 
#
# Total GULP energy -693768.563797 kJ/mol
# GULP energy per Si atom -12388.724354 kJ/mol
# Density = 2.315229 g / cm^3
# Si number density = 23.205105 Si / 1000 Ang^3
#
#
#
# Elastic Constant Matrix: (Units=GPa)
#
#
# Indices 1 2 3 4 5 6 
#
# 1 104.0538 31.8394 0.0884 0.0000 0.0000 0.0000
# 2 31.8394 104.0541 0.0884 0.0000 0.0000 0.0000
# 3 0.0884 0.0884 78.6229 0.0000 0.0000 0.0000
# 4 0.0000 0.0000 0.0000 24.9980 0.0000 0.0000
# 5 0.0000 0.0000 0.0000 0.0000 24.9981 0.0000
# 6 0.0000 0.0000 0.0000 0.0000 0.0000 109.1620
#
#
#
# Elastic Compliance Matrix: (Units=1/GPa)
#
#
# Indices 1 2 3 4 5 6 
#
# 1 0.010603 -0.003244 -0.000008 0.000000 0.000000 0.000000
# 2 -0.003244 0.010603 -0.000008 0.000000 0.000000 0.000000
# 3 -0.000008 -0.000008 0.012719 0.000000 0.000000 0.000000
# 4 0.000000 0.000000 0.000000 0.040003 0.000000 0.000000
# 5 0.000000 0.000000 0.000000 0.000000 0.040003 0.000000
# 6 0.000000 0.000000 0.000000 0.000000 0.000000 0.009161
#
#
# Mechanical properties :
#
#
# Convention : Reuss Voigt Hill
#
# Bulk Modulus (GPa) = 36.49196 38.97371 37.73283
# Shear Modulus (GPa) = 36.03636 48.81257 42.42447
#
# Velocity S-wave (km/s) = 3.94502 4.59140 4.28043
# Velocity P-wave (km/s) = 6.04243 6.70371 6.38164
#
# Compressibility (1/GPa) = 0.02740330
#
# Stress axis : x y z
#
# Youngs Moduli (GPa) = 94.31125 94.31154 78.62275
#
# Poissons Ratio (x) = 0.30599 0.00065
# Poissons Ratio (y) = 0.30599 0.00065
# Poissons Ratio (z) = 0.00078 0.00078
#
# Static dielectric constant tensor:
#      x y z
#    x 4.445910 0.000000 0.000000 
#    y 0.000000 4.445890 0.000000 
#    z 0.000000 0.000000 3.973720 
# 
# 
# High freq. dielectric constant tensor:
#      x y z
#    x 1.935650 0.000000 0.000000 
#    y 0.000000 1.935650 0.000000 
#    z 0.000000 0.000000 1.897880 
# 
# From -- ./inp_files/3288.got.cif
#   From: 2010.03.12/outbox.cif.g09.slc.cpg/sg129_2_cif.got.tgz:3288.got - 2010.04.06 17:19:44.
