data_PCOD8315889
_publ_section_title
;
Structure prediction by ZEFSAII (Michael W. Deem and Ramdas Pophale) SiO2 
 PCOD8315889
Probable space group: P 42/M M C
;
_chemical_formula_sum "Si O2"
_cell_formula_units_Z 120
_cell_length_a 22.572730
_cell_length_b 22.572730
_cell_length_c 14.196356
_cell_angle_alpha 90.000000
_cell_angle_beta 90.000000
_cell_angle_gamma 90.000000
_cell_volume 7233.442863
_symmetry_space_group_name_H-M "P 42/M M C"
_symmetry_group_IT_number 131
_symmetry_cell_setting 'tetragonal'
loop_
_space_group_symop_operation_xyz
x,y,z
-x,-y,z
-y,x,1/2+z
y,-x,1/2+z
-x,y,-z
x,-y,-z
y,x,1/2-z
-y,-x,1/2-z
-x,-y,-z
x,y,-z
y,-x,1/2-z
-y,x,1/2-z
x,-y,z
-x,y,z
-y,-x,1/2+z
y,x,1/2+z
loop_
_atom_site_type_symbol
_atom_site_label
_atom_site_fract_x
_atom_site_fract_y
_atom_site_fract_z
Si Si1 0.378795 0.351469 0.105602
Si Si2 0.853943 0.934796 0.110969
Si Si3 0.322190 0.814736 0.784616
Si Si4 0.827168 0.068256 0.393814
Si Si5 0.713683 0.257816 0.389488
Si Si6 0.432254 0.771088 0.109404
Si Si7 0.431742 0.568259 0.250000
Si Si8 0.932993 0.740123 0.268946
O O1 0.312473 0.330326 0.126656
O O2 0.424178 0.298559 0.130449
O O3 0.393083 0.410568 0.162144
O O4 0.386374 0.372053 0.000000
O O5 0.897280 0.883642 0.148767
O O6 0.788831 0.925098 0.150801
O O7 0.877698 0.000000 0.142000
O O8 0.849277 0.930545 0.000000
O O9 0.312821 0.794120 0.676028
O O10 0.277274 0.778951 0.853420
O O11 0.389530 0.807620 0.820906
O O12 0.310649 0.885091 0.788897
O O13 0.812107 0.088332 0.500000
O O14 0.769471 0.081538 0.332082
O O15 0.845097 0.000000 0.388645
O O16 0.717017 0.238953 0.500000
O O17 0.500000 0.789366 0.129943
O O18 0.415017 0.783647 0.000000
O O19 0.500000 0.581058 0.230611
O O20 0.000000 0.713718 0.270027
#
# Coordination Sequence:
#
# PCOD8315889 Si02
#       8
#    16  16  16  16  16  16   8  16
#     4   9  17  32  49  65  93 126 154 193 240 276
#     4   9  18  30  44  63  88 121 160 201 241 281
#     4  10  19  31  51  73  96 129 157 190 245 288
#     4   9  18  31  46  64  88 120 160 205 244 280
#     4   9  19  32  49  77 101 118 155 204 247 295
#     4   9  17  31  54  79  97 118 153 195 237 286
#     4  11  22  30  40  64  96 134 178 206 216 246
#     4  10  21  34  45  64  95 126 160 193 233 293
#
# _framework density 16.589611000000001
#
# number of rings (size 3 to 8) (size 9 to 14) (size 15 to 20)
#    0.000    2.600    0.000    3.600    3.733    2.933 
#    0.000    2.000    0.000    4.000    0.000    0.933 
#    0.000    0.000    0.000    4.533    0.000    0.000 
#
# Total GULP energy -1487526.298271 kJ/mol
# GULP energy per Si atom -12396.052486 kJ/mol
# Density = 1.655185 g / cm^3
# Si number density = 16.589611 Si / 1000 Ang^3
#
#
#
# Elastic Constant Matrix: (Units=GPa)
#
#
# Indices 1 2 3 4 5 6 
#
# 1 59.2834 36.9979 26.0559 0.0000 0.0000 0.0000
# 2 36.9979 59.2890 26.0568 0.0000 0.0000 0.0000
# 3 26.0559 26.0568 59.6332 0.0000 0.0000 0.0000
# 4 0.0000 0.0000 0.0000 14.8210 0.0000 0.0000
# 5 0.0000 0.0000 0.0000 0.0000 14.8200 0.0000
# 6 0.0000 0.0000 0.0000 0.0000 0.0000 24.9592
#
#
#
# Elastic Compliance Matrix: (Units=1/GPa)
#
#
# Indices 1 2 3 4 5 6 
#
# 1 0.029236 -0.015632 -0.005944 0.000000 0.000000 0.000000
# 2 -0.015632 0.029233 -0.005943 0.000000 0.000000 0.000000
# 3 -0.005944 -0.005943 0.021963 0.000000 0.000000 0.000000
# 4 0.000000 0.000000 0.000000 0.067472 0.000000 0.000000
# 5 0.000000 0.000000 0.000000 0.000000 0.067476 0.000000
# 6 0.000000 0.000000 0.000000 0.000000 0.000000 0.040065
#
#
# Mechanical properties :
#
#
# Convention : Reuss Voigt Hill
#
# Bulk Modulus (GPa) = 39.37893 39.60299 39.49096
# Shear Modulus (GPa) = 15.67646 16.85971 16.26808
#
# Velocity S-wave (km/s) = 3.07735 3.19138 3.13488
# Velocity P-wave (km/s) = 6.03452 6.12404 6.07944
#
# Compressibility (1/GPa) = 0.02539429
#
# Stress axis : x y z
#
# Youngs Moduli (GPa) = 34.20410 34.20750 45.53052
#
# Poissons Ratio (x) = 0.53473 0.27063
# Poissons Ratio (y) = 0.53468 0.27061
# Poissons Ratio (z) = 0.20331 0.20331
#
# Static dielectric constant tensor:
#      x y z
#    x 2.944580 0.000000 0.000000 
#    y 0.000000 2.944600 0.000000 
#    z 0.000000 0.000000 3.366020 
# 
# 
# High freq. dielectric constant tensor:
#      x y z
#    x 1.615250 0.000000 0.000000 
#    y 0.000000 1.615250 0.000000 
#    z 0.000000 0.000000 1.652210 
# 
# From -- ./inp_files/6348.got.cif
#   From: 2010.03.12/outbox.cif.g09.slc.cpg/sg131_4_cif.got.tgz:6348.got - 2010.04.06 17:36:35.
