data_PCOD8315333
_publ_section_title
;
Structure prediction by ZEFSAII (Michael W. Deem and Ramdas Pophale) SiO2 
 PCOD8315333
Probable space group: P 4/N M M
;
_chemical_formula_sum "Si O2"
_cell_formula_units_Z 120
_cell_length_a 20.329155
_cell_length_b 20.329155
_cell_length_c 14.709066
_cell_angle_alpha 90.000000
_cell_angle_beta 90.000000
_cell_angle_gamma 90.000000
_cell_volume 6078.882529
_symmetry_space_group_name_H-M "P 4/N M M"
_symmetry_group_IT_number 129
_symmetry_cell_setting 'tetragonal'
loop_
_space_group_symop_operation_xyz
x,y,z
1/2-y,x,z
1/2-x,1/2-y,z
y,1/2-x,z
1/2+x,-y,-z
-x,1/2+y,-z
1/2+y,1/2+x,-z
-y,-x,-z
-x,-y,-z
1/2+y,-x,-z
1/2+x,1/2+y,-z
-y,1/2+x,-z
1/2-x,y,z
x,1/2-y,z
1/2-y,1/2-x,z
y,x,z
loop_
_atom_site_type_symbol
_atom_site_label
_atom_site_fract_x
_atom_site_fract_y
_atom_site_fract_z
Si Si1 0.673795 0.569111 0.894154
Si Si2 0.997628 0.101523 0.955224
Si Si3 0.641356 0.323086 0.303423
Si Si4 0.326747 0.437802 0.632601
Si Si5 0.103883 0.502722 0.477226
Si Si6 0.823434 0.504675 0.707668
Si Si7 0.823835 0.323835 0.500000
Si Si8 0.042867 0.823164 0.217462
O O1 0.750000 0.584794 0.897862
O O2 0.636321 0.636321 0.915949
O O3 0.651682 0.545739 0.793892
O O4 0.656860 0.514978 0.970298
O O5 0.959580 0.131405 0.870171
O O6 0.949465 0.050536 0.000000
O O7 0.063893 0.063893 0.923282
O O8 0.675217 0.250000 0.290585
O O9 0.570162 0.320684 0.258075
O O10 0.630206 0.336481 0.412215
O O11 0.680223 0.383288 0.258717
O O12 0.250000 0.416617 0.639467
O O13 0.372001 0.372001 0.635492
O O14 0.335409 0.481729 0.541545
O O15 0.348394 0.487479 0.712617
O O16 0.076913 0.576913 0.500000
O O17 0.124539 0.489912 0.373525
O O18 0.045330 0.454671 0.504086
O O19 0.750000 0.527597 0.677233
O O20 0.834442 0.250000 0.537604
O O21 0.024318 0.750000 0.187184
#
# Coordination Sequence:
#
# PCOD8315333 Si02
#       8
#    16  16  16  16  16  16   8  16
#     4  10  21  38  60  85 114 146 186 240 300 361
#     4  10  21  38  61  86 111 143 182 229 286 348
#     4  10  21  34  52  79 114 155 195 235 282 342
#     4  10  22  38  57  83 115 154 200 249 300 356
#     4  10  20  33  51  77 110 146 186 236 292 350
#     4  10  20  33  52  77 107 144 184 231 283 340
#     4   9  18  32  48  70 105 148 192 234 277 332
#     4  11  22  36  58  83 112 149 189 236 284 341
#
# _framework density 19.740469999999998
#
# number of rings (size 3 to 8) (size 9 to 14) (size 15 to 20)
#    0.000    1.933    0.000    3.600    2.800    1.067 
#    0.000    6.000    0.000    0.000    0.000    3.733 
#    0.000    0.000    0.000    0.000    0.000    0.000 
#
# Total GULP energy -1487362.332507 kJ/mol
# GULP energy per Si atom -12394.686104 kJ/mol
# Density = 1.969554 g / cm^3
# Si number density = 19.740470 Si / 1000 Ang^3
#
#
#
# Elastic Constant Matrix: (Units=GPa)
#
#
# Indices 1 2 3 4 5 6 
#
# 1 88.1467 36.3062 42.6740 0.0000 0.0000 0.0000
# 2 36.3062 88.1484 42.6752 0.0000 0.0000 0.0000
# 3 42.6740 42.6752 111.5115 0.0000 0.0000 0.0000
# 4 0.0000 0.0000 0.0000 29.2201 0.0000 0.0000
# 5 0.0000 0.0000 0.0000 0.0000 29.2193 0.0000
# 6 0.0000 0.0000 0.0000 0.0000 0.0000 23.5163
#
#
#
# Elastic Compliance Matrix: (Units=1/GPa)
#
#
# Indices 1 2 3 4 5 6 
#
# 1 0.015092 -0.004198 -0.004169 0.000000 0.000000 0.000000
# 2 -0.004198 0.015092 -0.004169 0.000000 0.000000 0.000000
# 3 -0.004169 -0.004169 0.012159 0.000000 0.000000 0.000000
# 4 0.000000 0.000000 0.000000 0.034223 0.000000 0.000000
# 5 0.000000 0.000000 0.000000 0.000000 0.034224 0.000000
# 6 0.000000 0.000000 0.000000 0.000000 0.000000 0.042524
#
#
# Mechanical properties :
#
#
# Convention : Reuss Voigt Hill
#
# Bulk Modulus (GPa) = 57.90177 59.01303 58.45740
# Shear Modulus (GPa) = 27.15294 27.46789 27.31042
#
# Velocity S-wave (km/s) = 3.71279 3.73426 3.72354
# Velocity P-wave (km/s) = 6.91194 6.96795 6.94000
#
# Compressibility (1/GPa) = 0.01727063
#
# Stress axis : x y z
#
# Youngs Moduli (GPa) = 66.26011 66.26080 82.24568
#
# Poissons Ratio (x) = 0.27814 0.34289
# Poissons Ratio (y) = 0.27814 0.34290
# Poissons Ratio (z) = 0.27624 0.27626
#
# Static dielectric constant tensor:
#      x y z
#    x 3.560840 0.000000 0.000000 
#    y 0.000000 3.560840 0.000000 
#    z 0.000000 0.000000 3.451370 
# 
# 
# High freq. dielectric constant tensor:
#      x y z
#    x 1.770150 0.000000 0.000000 
#    y 0.000000 1.770150 0.000000 
#    z 0.000000 0.000000 1.762070 
# 
# From -- ./inp_files/5135.got.cif
#   From: 2010.03.12/outbox.cif.g09.slc.cpg/sg129_3_cif.got.tgz:5135.got - 2010.04.06 17:19:44.
