data_PCOD8315525
_publ_section_title
;
Structure prediction by ZEFSAII (Michael W. Deem and Ramdas Pophale) SiO2 
 PCOD8315525
Probable space group: P 4/N C C
;
_chemical_formula_sum "Si O2"
_cell_formula_units_Z 128
_cell_length_a 18.985732
_cell_length_b 18.985732
_cell_length_c 19.720901
_cell_angle_alpha 90.000000
_cell_angle_beta 90.000000
_cell_angle_gamma 90.000000
_cell_volume 7108.556919
_symmetry_space_group_name_H-M "P 4/N C C"
_symmetry_group_IT_number 130
_symmetry_cell_setting 'tetragonal'
loop_
_space_group_symop_operation_xyz
x,y,z
1/2-y,x,z
1/2-x,1/2-y,z
y,1/2-x,z
1/2+x,-y,1/2-z
-x,1/2+y,1/2-z
1/2+y,1/2+x,1/2-z
-y,-x,1/2-z
-x,-y,-z
1/2+y,-x,-z
1/2+x,1/2+y,-z
-y,1/2+x,-z
1/2-x,y,1/2+z
x,1/2-y,1/2+z
1/2-y,1/2-x,1/2+z
y,x,1/2+z
loop_
_atom_site_type_symbol
_atom_site_label
_atom_site_fract_x
_atom_site_fract_y
_atom_site_fract_z
Si Si1 0.569115 0.816964 0.766671
Si Si2 0.685558 0.156376 0.573974
Si Si3 0.312422 0.590321 0.206818
Si Si4 0.649707 0.416773 0.310644
Si Si5 0.856583 0.796004 0.977889
Si Si6 0.924659 0.669890 0.340343
Si Si7 0.643057 0.704690 0.129771
Si Si8 0.178422 0.839806 0.073108
O O1 0.486956 0.835939 0.770649
O O2 0.587111 0.741715 0.799147
O O3 0.611689 0.874418 0.808599
O O4 0.587861 0.818743 0.686957
O O5 0.635098 0.123134 0.630162
O O6 0.659765 0.127801 0.500482
O O7 0.679033 0.239854 0.572767
O O8 0.767213 0.135626 0.588533
O O9 0.349252 0.650749 0.250000
O O10 0.228685 0.601289 0.213978
O O11 0.337490 0.601072 0.129137
O O12 0.595211 0.404790 0.250000
O O13 0.642842 0.496089 0.335687
O O14 0.786030 0.840715 0.968249
O O15 0.911227 0.819576 0.920408
O O16 0.887732 0.808749 0.053830
O O17 0.713322 0.659464 0.139493
#
# Coordination Sequence:
#
# PCOD8315525 Si02
#       8
#    16  16  16  16  16  16  16  16
#     4  11  21  34  56  79 110 148 180 217 267 324
#     4   8  14  28  53  78  98 129 166 224 281 314
#     4  10  21  35  52  79 107 137 181 224 267 320
#     4  10  21  35  54  79 106 137 184 224 268 322
#     4   9  17  31  55  85 109 137 177 226 274 318
#     4  11  21  34  56  80 109 144 184 216 266 326
#     4   9  17  31  55  86 112 137 177 227 273 319
#     4   8  14  28  53  78  99 125 171 221 274 322
#
# _framework density 18.006468000000002
#
# number of rings (size 3 to 8) (size 9 to 14) (size 15 to 20)
#    0.000    2.500    2.500    2.250    0.000    2.000 
#    2.250    0.000   11.000    0.750    0.000    0.000 
#    0.000    0.000    0.000    0.000    0.000    0.000 
#
# Total GULP energy -1586751.212216 kJ/mol
# GULP energy per Si atom -12396.493845 kJ/mol
# Density = 1.796548 g / cm^3
# Si number density = 18.006468 Si / 1000 Ang^3
#
#
#
# Elastic Constant Matrix: (Units=GPa)
#
#
# Indices 1 2 3 4 5 6 
#
# 1 64.9044 29.9822 50.6812 0.0000 0.0000 0.0000
# 2 29.9822 64.9024 50.6808 0.0000 0.0000 0.0000
# 3 50.6812 50.6808 171.2432 0.0000 0.0000 0.0000
# 4 0.0000 0.0000 0.0000 15.8280 0.0000 0.0000
# 5 0.0000 0.0000 0.0000 0.0000 15.8264 0.0000
# 6 0.0000 0.0000 0.0000 0.0000 0.0000 17.3706
#
#
#
# Elastic Compliance Matrix: (Units=1/GPa)
#
#
# Indices 1 2 3 4 5 6 
#
# 1 0.022023 -0.006612 -0.004561 0.000000 0.000000 0.000000
# 2 -0.006612 0.022024 -0.004561 0.000000 0.000000 0.000000
# 3 -0.004561 -0.004561 0.008539 0.000000 0.000000 0.000000
# 4 0.000000 0.000000 0.000000 0.063179 0.000000 0.000000
# 5 0.000000 0.000000 0.000000 0.000000 0.063186 0.000000
# 6 0.000000 0.000000 0.000000 0.000000 0.000000 0.057569
#
#
# Mechanical properties :
#
#
# Convention : Reuss Voigt Hill
#
# Bulk Modulus (GPa) = 47.35340 62.63761 54.99550
# Shear Modulus (GPa) = 18.17992 21.11871 19.64932
#
# Velocity S-wave (km/s) = 3.18092 3.42839 3.30697
# Velocity P-wave (km/s) = 6.31238 7.10869 6.72234
#
# Compressibility (1/GPa) = 0.02111781
#
# Stress axis : x y z
#
# Youngs Moduli (GPa) = 45.40645 45.40479 117.10294
#
# Poissons Ratio (x) = 0.30022 0.53412
# Poissons Ratio (y) = 0.30024 0.53414
# Poissons Ratio (z) = 0.20710 0.20710
#
# Static dielectric constant tensor:
#      x y z
#    x 3.078620 0.000000 0.000000 
#    y 0.000000 3.078620 0.000000 
#    z 0.000000 0.000000 3.766070 
# 
# 
# High freq. dielectric constant tensor:
#      x y z
#    x 1.667970 0.000000 0.000000 
#    y 0.000000 1.667970 0.000000 
#    z 0.000000 0.000000 1.717760 
# 
# From -- ./inp_files/3307.got.cif
#   From: 2010.03.12/outbox.cif.g09.slc.cpg/sg130_2_cif.got.tgz:3307.got - 2010.04.06 17:30:23.
