data_PCOD8315143
_publ_section_title
;
Structure prediction by ZEFSAII (Michael W. Deem and Ramdas Pophale) SiO2 
 PCOD8315143
Probable space group: P 4/N M M
;
_chemical_formula_sum "Si O2"
_cell_formula_units_Z 128
_cell_length_a 23.197874
_cell_length_b 23.197874
_cell_length_c 13.020922
_cell_angle_alpha 90.000000
_cell_angle_beta 90.000000
_cell_angle_gamma 90.000000
_cell_volume 7007.096649
_symmetry_space_group_name_H-M "P 4/N M M"
_symmetry_group_IT_number 129
_symmetry_cell_setting 'tetragonal'
loop_
_space_group_symop_operation_xyz
x,y,z
1/2-y,x,z
1/2-x,1/2-y,z
y,1/2-x,z
1/2+x,-y,-z
-x,1/2+y,-z
1/2+y,1/2+x,-z
-y,-x,-z
-x,-y,-z
1/2+y,-x,-z
1/2+x,1/2+y,-z
-y,1/2+x,-z
1/2-x,y,z
x,1/2-y,z
1/2-y,1/2-x,z
y,x,z
loop_
_atom_site_type_symbol
_atom_site_label
_atom_site_fract_x
_atom_site_fract_y
_atom_site_fract_z
Si Si1 0.528636 0.876653 0.771113
Si Si2 0.900979 0.097706 0.238763
Si Si3 0.485006 0.183386 0.438357
Si Si4 0.182576 0.617685 0.416748
Si Si5 0.090682 0.317331 0.626304
Si Si6 0.968822 0.624222 0.190627
Si Si7 0.009658 0.314241 0.015305
Si Si8 0.187115 0.617099 0.066336
O O1 0.578552 0.921449 0.793623
O O2 0.469348 0.910222 0.750425
O O3 0.541036 0.842018 0.666738
O O4 0.524738 0.835304 0.869836
O O5 0.871738 0.137304 0.325597
O O6 0.887489 0.132643 0.137901
O O7 0.875364 0.033955 0.232679
O O8 0.472189 0.250000 0.429183
O O9 0.552775 0.171763 0.456279
O O10 0.452127 0.158429 0.537747
O O11 0.165830 0.665830 0.500000
O O12 0.250000 0.625853 0.384402
O O13 0.101587 0.250000 0.616216
O O14 0.151911 0.348090 0.612547
O O15 0.064513 0.330788 0.737757
O O16 0.938887 0.561114 0.197385
O O17 0.964146 0.644801 0.072562
O O18 0.035619 0.250000 0.003353
O O19 0.940911 0.312041 0.998533
O O20 0.250000 0.624302 0.120554
O O21 0.174361 0.674361 0.000000
#
# Coordination Sequence:
#
# PCOD8315143 Si02
#       8
#    16  16  16  16  16  16  16  16
#     4  10  19  31  52  80 109 138 175 222 270 322
#     4  10  20  35  52  77 106 139 174 215 274 325
#     4   9  18  34  54  77 105 140 178 217 265 321
#     4  10  20  35  55  77 105 142 183 227 270 319
#     4  10  21  36  55  78 104 135 172 215 261 317
#     4  11  21  34  54  80 110 140 177 222 269 326
#     4  10  20  34  52  74 106 145 180 216 267 324
#     4  10  19  34  52  72  99 135 176 219 260 307
#
# _framework density 18.267195000000001
#
# number of rings (size 3 to 8) (size 9 to 14) (size 15 to 20)
#    0.000    2.000    1.250    3.000    0.000    3.375 
#    0.000    3.125    0.000    7.500    0.000    0.000 
#    0.000   10.250    0.000    0.000    0.000    0.000 
#
# Total GULP energy -1586369.003387 kJ/mol
# GULP energy per Si atom -12393.507839 kJ/mol
# Density = 1.822562 g / cm^3
# Si number density = 18.267195 Si / 1000 Ang^3
#
#
#
# Elastic Constant Matrix: (Units=GPa)
#
#
# Indices 1 2 3 4 5 6 
#
# 1 83.4250 37.5826 27.7057 0.0000 0.0000 0.0000
# 2 37.5826 83.4250 27.7057 0.0000 0.0000 0.0000
# 3 27.7057 27.7057 94.4259 0.0000 0.0000 0.0000
# 4 0.0000 0.0000 0.0000 21.0323 0.0000 0.0000
# 5 0.0000 0.0000 0.0000 0.0000 21.0323 0.0000
# 6 0.0000 0.0000 0.0000 0.0000 0.0000 22.7141
#
#
#
# Elastic Compliance Matrix: (Units=1/GPa)
#
#
# Indices 1 2 3 4 5 6 
#
# 1 0.015680 -0.006134 -0.002801 0.000000 0.000000 0.000000
# 2 -0.006134 0.015680 -0.002801 0.000000 0.000000 0.000000
# 3 -0.002801 -0.002801 0.012234 0.000000 0.000000 0.000000
# 4 0.000000 0.000000 0.000000 0.047546 0.000000 0.000000
# 5 0.000000 0.000000 0.000000 0.000000 0.047546 0.000000
# 6 0.000000 0.000000 0.000000 0.000000 0.000000 0.044025
#
#
# Mechanical properties :
#
#
# Convention : Reuss Voigt Hill
#
# Bulk Modulus (GPa) = 49.69457 49.69598 49.69528
# Shear Modulus (GPa) = 23.48621 24.17456 23.83039
#
# Velocity S-wave (km/s) = 3.58956 3.64178 3.61577
# Velocity P-wave (km/s) = 6.66658 6.70429 6.68546
#
# Compressibility (1/GPa) = 0.02012292
#
# Stress axis : x y z
#
# Youngs Moduli (GPa) = 63.77458 63.77458 81.73905
#
# Poissons Ratio (x) = 0.39117 0.22896
# Poissons Ratio (y) = 0.39117 0.22896
# Poissons Ratio (z) = 0.17864 0.17864
#
# Static dielectric constant tensor:
#      x y z
#    x 3.417020 0.000000 0.000000 
#    y 0.000000 3.417020 0.000000 
#    z 0.000000 0.000000 3.471190 
# 
# 
# High freq. dielectric constant tensor:
#      x y z
#    x 1.700280 0.000000 0.000000 
#    y 0.000000 1.700280 0.000000 
#    z 0.000000 0.000000 1.713430 
# 
# From -- ./inp_files/4179.got.cif
#   From: 2010.03.12/outbox.cif.g09.slc.cpg/sg129_3_cif.got.tgz:4179.got - 2010.04.06 17:19:44.
