data_PCOD8315973
_publ_section_title
;
Structure prediction by ZEFSAII (Michael W. Deem and Ramdas Pophale) SiO2 
 PCOD8315973
Probable space group: P 42/M M C
;
_chemical_formula_sum "Si O2"
_cell_formula_units_Z 120
_cell_length_a 27.111900
_cell_length_b 27.111900
_cell_length_c 9.224740
_cell_angle_alpha 90.000000
_cell_angle_beta 90.000000
_cell_angle_gamma 90.000000
_cell_volume 6780.692383
_symmetry_space_group_name_H-M "P 42/M M C"
_symmetry_group_IT_number 131
_symmetry_cell_setting 'tetragonal'
loop_
_space_group_symop_operation_xyz
x,y,z
-x,-y,z
-y,x,1/2+z
y,-x,1/2+z
-x,y,-z
x,-y,-z
y,x,1/2-z
-y,-x,1/2-z
-x,-y,-z
x,y,-z
y,-x,1/2-z
-y,x,1/2-z
x,-y,z
-x,y,z
-y,-x,1/2+z
y,x,1/2+z
loop_
_atom_site_type_symbol
_atom_site_label
_atom_site_fract_x
_atom_site_fract_y
_atom_site_fract_z
Si Si1 0.372941 0.811935 0.663885
Si Si2 0.783675 0.280492 0.660687
Si Si3 0.000000 0.557317 0.328425
Si Si4 0.942420 0.733628 0.833018
Si Si5 0.724498 0.443421 0.832050
Si Si6 0.132532 0.800543 0.663528
Si Si7 0.372033 0.558071 0.667342
Si Si8 0.378037 0.923131 0.665403
O O1 0.355405 0.801100 0.500000
O O2 0.326562 0.809698 0.767336
O O3 0.414136 0.773282 0.713872
O O4 0.395116 0.866556 0.675907
O O5 0.735188 0.264813 0.750000
O O6 0.766196 0.294757 0.500000
O O7 0.822264 0.236643 0.657016
O O8 0.048037 0.583847 0.265320
O O9 0.000000 0.500000 0.282281
O O10 0.000000 0.563262 0.500000
O O11 0.913573 0.774601 0.741357
O O12 0.930273 0.678164 0.778470
O O13 0.000000 0.744418 0.813027
O O14 0.925696 0.738649 0.000000
O O15 0.735588 0.500000 0.795791
O O16 0.679136 0.423356 0.737067
O O17 0.710958 0.435919 0.000000
O O18 0.150380 0.849621 0.750000
O O19 0.116952 0.815626 0.500000
O O20 0.417374 0.582627 0.750000
O O21 0.372713 0.573638 0.500000
O O22 0.378100 0.500000 0.688558
O O23 0.381360 0.942690 0.500000
#
# Coordination Sequence:
#
# PCOD8315973 Si02
#       8
#    16  16   8  16  16  16  16  16
#     4  10  20  34  55  79 103 132 173 223 269 318
#     4  10  20  32  48  72 103 138 174 211 257 310
#     4  11  25  41  55  75 105 139 177 229 290 343
#     4  10  19  33  54  80 111 145 183 227 277 329
#     4   9  19  36  55  75 100 131 167 209 258 309
#     4  10  20  33  51  76 107 145 183 222 268 318
#     4  10  21  37  58  83 109 138 170 206 253 310
#     4  10  20  36  57  80 104 136 179 228 280 336
#
# _framework density 17.697306999999999
#
# number of rings (size 3 to 8) (size 9 to 14) (size 15 to 20)
#    0.000    2.067    2.000    1.400    0.000    5.467 
#    0.000    2.000    0.000    1.600    0.000    0.000 
#    0.000    0.267    0.000    2.800    0.000    1.200 
#
# Total GULP energy -1488201.656351 kJ/mol
# GULP energy per Si atom -12401.680470 kJ/mol
# Density = 1.765703 g / cm^3
# Si number density = 17.697307 Si / 1000 Ang^3
#
#
#
# Elastic Constant Matrix: (Units=GPa)
#
#
# Indices 1 2 3 4 5 6 
#
# 1 78.6212 46.2353 48.8209 0.0000 0.0000 0.0000
# 2 46.2353 78.6271 48.8207 0.0000 0.0000 0.0000
# 3 48.8209 48.8207 105.7648 0.0000 0.0000 0.0000
# 4 0.0000 0.0000 0.0000 24.9797 0.0000 0.0000
# 5 0.0000 0.0000 0.0000 0.0000 24.9799 0.0000
# 6 0.0000 0.0000 0.0000 0.0000 0.0000 25.5611
#
#
#
# Elastic Compliance Matrix: (Units=1/GPa)
#
#
# Indices 1 2 3 4 5 6 
#
# 1 0.021705 -0.009171 -0.005786 0.000000 0.000000 0.000000
# 2 -0.009171 0.021703 -0.005785 0.000000 0.000000 0.000000
# 3 -0.005786 -0.005785 0.014796 0.000000 0.000000 0.000000
# 4 0.000000 0.000000 0.000000 0.040032 0.000000 0.000000
# 5 0.000000 0.000000 0.000000 0.000000 0.040032 0.000000
# 6 0.000000 0.000000 0.000000 0.000000 0.000000 0.039122
#
#
# Mechanical properties :
#
#
# Convention : Reuss Voigt Hill
#
# Bulk Modulus (GPa) = 59.80470 61.19631 60.50050
# Shear Modulus (GPa) = 22.27698 23.04656 22.66177
#
# Velocity S-wave (km/s) = 3.55177 3.61260 3.58232
# Velocity P-wave (km/s) = 7.11945 7.21497 7.16737
#
# Compressibility (1/GPa) = 0.01672109
#
# Stress axis : x y z
#
# Youngs Moduli (GPa) = 46.07194 46.07693 67.58634
#
# Poissons Ratio (x) = 0.42256 0.39104
# Poissons Ratio (y) = 0.42252 0.39097
# Poissons Ratio (z) = 0.26657 0.26654
#
# Static dielectric constant tensor:
#      x y z
#    x 3.207830 0.000000 0.000000 
#    y 0.000000 3.207830 0.000000 
#    z 0.000000 0.000000 3.442610 
# 
# 
# High freq. dielectric constant tensor:
#      x y z
#    x 1.672960 0.000000 0.000000 
#    y 0.000000 1.672960 0.000000 
#    z 0.000000 0.000000 1.690400 
# 
# From -- ./inp_files/2623.got.cif
#   From: 2010.03.12/outbox.cif.g09.slc.cpg/sg131_2_cif.got.tgz:2623.got - 2010.04.06 17:36:35.
