data_PCOD8315119
_publ_section_title
;
Structure prediction by ZEFSAII (Michael W. Deem and Ramdas Pophale) SiO2 
 PCOD8315119
Probable space group: P 4/N M M
;
_chemical_formula_sum "Si O2"
_cell_formula_units_Z 112
_cell_length_a 18.749039
_cell_length_b 18.749039
_cell_length_c 18.453512
_cell_angle_alpha 90.000000
_cell_angle_beta 90.000000
_cell_angle_gamma 90.000000
_cell_volume 6486.897811
_symmetry_space_group_name_H-M "P 4/N M M"
_symmetry_group_IT_number 129
_symmetry_cell_setting 'tetragonal'
loop_
_space_group_symop_operation_xyz
x,y,z
1/2-y,x,z
1/2-x,1/2-y,z
y,1/2-x,z
1/2+x,-y,-z
-x,1/2+y,-z
1/2+y,1/2+x,-z
-y,-x,-z
-x,-y,-z
1/2+y,-x,-z
1/2+x,1/2+y,-z
-y,1/2+x,-z
1/2-x,y,z
x,1/2-y,z
1/2-y,1/2-x,z
y,x,z
loop_
_atom_site_type_symbol
_atom_site_label
_atom_site_fract_x
_atom_site_fract_y
_atom_site_fract_z
Si Si1 0.949349 0.833553 0.329734
Si Si2 0.436251 0.327237 0.100439
Si Si3 0.668166 0.437487 0.206544
Si Si4 0.590569 0.333289 0.305434
Si Si5 0.546313 0.067617 0.584049
Si Si6 0.435020 0.553215 0.083626
Si Si7 0.825896 0.934478 0.735297
O O1 0.935951 0.750000 0.344278
O O2 0.873315 0.873315 0.322733
O O3 0.993022 0.846651 0.255582
O O4 0.994629 0.865839 0.396870
O O5 0.437827 0.250000 0.061184
O O6 0.379759 0.379759 0.059608
O O7 0.514305 0.361271 0.102178
O O8 0.410289 0.317743 0.182257
O O9 0.750000 0.432881 0.182613
O O10 0.650878 0.366858 0.253864
O O11 0.622894 0.442965 0.133066
O O12 0.607790 0.250000 0.321327
O O13 0.580811 0.376849 0.379726
O O14 0.517021 0.345584 0.263433
O O15 0.563194 0.063194 0.500000
O O16 0.505407 0.994594 0.609490
O O17 0.502465 0.502465 0.099136
O O18 0.427037 0.572964 0.000000
O O19 0.750000 0.922042 0.694667
O O20 0.886799 0.886799 0.696482
#
# Coordination Sequence:
#
# PCOD8315119 Si02
#       7
#    16  16  16  16  16  16  16
#     4   9  18  32  52  76 101 130 163 203 250 298
#     4   9  17  29  46  68  95 124 155 192 232 280
#     4  10  20  34  51  71  95 126 164 205 248 296
#     4  10  19  31  49  71  94 125 164 203 243 288
#     4   9  18  32  50  73 101 132 166 204 244 288
#     4  10  20  33  51  74  98 127 162 201 246 293
#     4   9  16  26  43  67  93 123 155 188 229 276
#
# _framework density 17.265571000000001
#
# number of rings (size 3 to 8) (size 9 to 14) (size 15 to 20)
#    0.000    2.571    1.429    0.857    0.000    3.000 
#    0.000    1.429    0.000    0.000    0.000    3.000 
#    0.000    6.857    0.000    0.000    0.000    0.000 
#
# Total GULP energy -1387805.660400 kJ/mol
# GULP energy per Si atom -12391.121968 kJ/mol
# Density = 1.722627 g / cm^3
# Si number density = 17.265571 Si / 1000 Ang^3
#
#
#
# Elastic Constant Matrix: (Units=GPa)
#
#
# Indices 1 2 3 4 5 6 
#
# 1 122.5866 66.0048 45.1762 0.0000 0.0000 0.0000
# 2 66.0048 122.5872 45.1764 0.0000 0.0000 0.0000
# 3 45.1762 45.1764 82.8095 0.0000 0.0000 0.0000
# 4 0.0000 0.0000 0.0000 12.3464 0.0000 0.0000
# 5 0.0000 0.0000 0.0000 0.0000 12.3467 0.0000
# 6 0.0000 0.0000 0.0000 0.0000 0.0000 20.8002
#
#
#
# Elastic Compliance Matrix: (Units=1/GPa)
#
#
# Indices 1 2 3 4 5 6 
#
# 1 0.012426 -0.005247 -0.003916 0.000000 0.000000 0.000000
# 2 -0.005247 0.012426 -0.003916 0.000000 0.000000 0.000000
# 3 -0.003916 -0.003916 0.016349 0.000000 0.000000 0.000000
# 4 0.000000 0.000000 0.000000 0.080995 0.000000 0.000000
# 5 0.000000 0.000000 0.000000 0.000000 0.080993 0.000000
# 6 0.000000 0.000000 0.000000 0.000000 0.000000 0.048077
#
#
# Mechanical properties :
#
#
# Convention : Reuss Voigt Hill
#
# Bulk Modulus (GPa) = 66.48431 71.18871 68.83651
# Shear Modulus (GPa) = 17.70290 20.54040 19.12165
#
# Velocity S-wave (km/s) = 3.20555 3.45291 3.33153
# Velocity P-wave (km/s) = 7.23127 7.56425 7.39963
#
# Compressibility (1/GPa) = 0.01504114
#
# Stress axis : x y z
#
# Youngs Moduli (GPa) = 80.47571 80.47603 61.16598
#
# Poissons Ratio (x) = 0.42229 0.23955
# Poissons Ratio (y) = 0.42228 0.23955
# Poissons Ratio (z) = 0.31517 0.31517
#
# Static dielectric constant tensor:
#      x y z
#    x 3.362720 0.000000 0.000000 
#    y 0.000000 3.362720 0.000000 
#    z 0.000000 0.000000 2.919370 
# 
# 
# High freq. dielectric constant tensor:
#      x y z
#    x 1.668260 0.000000 0.000000 
#    y 0.000000 1.668260 0.000000 
#    z 0.000000 0.000000 1.635050 
# 
# From -- ./inp_files/6707.got.cif
#   From: 2010.03.12/outbox.cif.g09.slc.cpg/sg129_4_cif.got.tgz:6707.got - 2010.04.06 17:19:44.
