data_PCOD8315215
_publ_section_title
;
Structure prediction by ZEFSAII (Michael W. Deem and Ramdas Pophale) SiO2 
 PCOD8315215
Probable space group: P 4/N M M
;
_chemical_formula_sum "Si O2"
_cell_formula_units_Z 96
_cell_length_a 19.091524
_cell_length_b 19.091524
_cell_length_c 15.596401
_cell_angle_alpha 90.000000
_cell_angle_beta 90.000000
_cell_angle_gamma 90.000000
_cell_volume 5684.674317
_symmetry_space_group_name_H-M "P 4/N M M"
_symmetry_group_IT_number 129
_symmetry_cell_setting 'tetragonal'
loop_
_space_group_symop_operation_xyz
x,y,z
1/2-y,x,z
1/2-x,1/2-y,z
y,1/2-x,z
1/2+x,-y,-z
-x,1/2+y,-z
1/2+y,1/2+x,-z
-y,-x,-z
-x,-y,-z
1/2+y,-x,-z
1/2+x,1/2+y,-z
-y,1/2+x,-z
1/2-x,y,z
x,1/2-y,z
1/2-y,1/2-x,z
y,x,z
loop_
_atom_site_type_symbol
_atom_site_label
_atom_site_fract_x
_atom_site_fract_y
_atom_site_fract_z
Si Si1 0.405191 0.831838 0.578998
Si Si2 0.830553 0.946887 0.145601
Si Si3 0.939453 0.671242 0.331946
Si Si4 0.830466 0.167740 0.249956
Si Si5 0.668832 0.946427 0.518834
Si Si6 0.905690 0.331413 0.922843
O O1 0.370758 0.870758 0.500000
O O2 0.388565 0.750000 0.567466
O O3 0.374347 0.859939 0.668638
O O4 0.488676 0.846149 0.581759
O O5 0.750000 0.920240 0.137511
O O6 0.883009 0.883009 0.123899
O O7 0.843516 0.979898 0.242100
O O8 0.843817 0.010756 0.080796
O O9 0.916781 0.750000 0.337912
O O10 0.865634 0.634367 0.325364
O O11 0.976622 0.651034 0.422189
O O12 0.750000 0.147747 0.267971
O O13 0.840632 0.250000 0.236358
O O14 0.858089 0.130085 0.164602
O O15 0.750000 0.922201 0.526459
O O16 0.618921 0.881080 0.543189
O O17 0.887314 0.250000 0.938194
O O18 0.877128 0.377128 0.000000
#
# Coordination Sequence:
#
# PCOD8315215 Si02
#       6
#    16  16  16  16  16  16
#     4  10  20  31  46  68  96 129 163 199 238 284
#     4   9  18  31  48  71  98 128 162 199 240 289
#     4   8  14  25  41  62  89 121 156 194 235 278
#     4   9  18  32  49  69  94 126 163 199 237 286
#     4   9  18  31  47  68  95 128 166 207 247 288
#     4  10  20  33  52  75  99 127 160 199 243 291
#
# _framework density 16.887511
#
# number of rings (size 3 to 8) (size 9 to 14) (size 15 to 20)
#    0.000    2.833    0.000    1.000    2.333    2.833 
#    0.000    4.167    0.000    0.000    0.000    0.000 
#    0.000    0.000    0.000    8.667    0.000    0.333 
#
# Total GULP energy -1189427.322349 kJ/mol
# GULP energy per Si atom -12389.867941 kJ/mol
# Density = 1.684907 g / cm^3
# Si number density = 16.887511 Si / 1000 Ang^3
#
#
#
# Elastic Constant Matrix: (Units=GPa)
#
#
# Indices 1 2 3 4 5 6 
#
# 1 67.5332 50.5334 56.2559 0.0000 0.0000 0.0000
# 2 50.5334 67.5332 56.2559 0.0000 0.0000 0.0000
# 3 56.2559 56.2559 103.7489 0.0000 0.0000 0.0000
# 4 0.0000 0.0000 0.0000 21.3805 0.0000 0.0000
# 5 0.0000 0.0000 0.0000 0.0000 21.3805 0.0000
# 6 0.0000 0.0000 0.0000 0.0000 0.0000 23.1357
#
#
#
# Elastic Compliance Matrix: (Units=1/GPa)
#
#
# Indices 1 2 3 4 5 6 
#
# 1 0.038175 -0.020649 -0.009503 0.000000 0.000000 0.000000
# 2 -0.020649 0.038175 -0.009503 0.000000 0.000000 0.000000
# 3 -0.009503 -0.009503 0.019944 0.000000 0.000000 0.000000
# 4 0.000000 0.000000 0.000000 0.046772 0.000000 0.000000
# 5 0.000000 0.000000 0.000000 0.000000 0.046772 0.000000
# 6 0.000000 0.000000 0.000000 0.000000 0.000000 0.043223
#
#
# Mechanical properties :
#
#
# Convention : Reuss Voigt Hill
#
# Bulk Modulus (GPa) = 58.87984 62.76729 60.82357
# Shear Modulus (GPa) = 15.72166 18.23069 16.97617
#
# Velocity S-wave (km/s) = 3.05448 3.28919 3.17401
# Velocity P-wave (km/s) = 6.88341 7.18844 7.03758
#
# Compressibility (1/GPa) = 0.01698374
#
# Stress axis : x y z
#
# Youngs Moduli (GPa) = 26.19511 26.19511 50.13975
#
# Poissons Ratio (x) = 0.54091 0.47648
# Poissons Ratio (y) = 0.54091 0.47648
# Poissons Ratio (z) = 0.24893 0.24893
#
# Static dielectric constant tensor:
#      x y z
#    x 3.052710 0.000000 0.000000 
#    y 0.000000 3.052710 0.000000 
#    z 0.000000 0.000000 3.229160 
# 
# 
# High freq. dielectric constant tensor:
#      x y z
#    x 1.641490 0.000000 0.000000 
#    y 0.000000 1.641490 0.000000 
#    z 0.000000 0.000000 1.637900 
# 
# From -- ./inp_files/4915.got.cif
#   From: 2010.03.12/outbox.cif.g09.slc.cpg/sg129_3_cif.got.tgz:4915.got - 2010.04.06 17:19:44.
