data_PCOD8315839
_publ_section_title
;
Structure prediction by ZEFSAII (Michael W. Deem and Ramdas Pophale) SiO2 
 PCOD8315839
Probable space group: P 42/M M C
;
_chemical_formula_sum "Si O2"
_cell_formula_units_Z 112
_cell_length_a 18.812995
_cell_length_b 18.812995
_cell_length_c 18.014597
_cell_angle_alpha 90.000000
_cell_angle_beta 90.000000
_cell_angle_gamma 90.000000
_cell_volume 6375.884354
_symmetry_space_group_name_H-M "P 42/M M C"
_symmetry_group_IT_number 131
_symmetry_cell_setting 'tetragonal'
loop_
_space_group_symop_operation_xyz
x,y,z
-x,-y,z
-y,x,1/2+z
y,-x,1/2+z
-x,y,-z
x,-y,-z
y,x,1/2-z
-y,-x,1/2-z
-x,-y,-z
x,y,-z
y,-x,1/2-z
-y,x,1/2-z
x,-y,z
-x,y,z
-y,-x,1/2+z
y,x,1/2+z
loop_
_atom_site_type_symbol
_atom_site_label
_atom_site_fract_x
_atom_site_fract_y
_atom_site_fract_z
Si Si1 0.212526 0.787937 0.912958
Si Si2 0.848168 0.581515 0.148691
Si Si3 0.288634 0.645875 0.087138
Si Si4 0.702031 0.919753 0.913535
Si Si5 0.919176 0.580274 0.699686
Si Si6 0.581002 0.582380 0.835895
Si Si7 0.922489 0.288351 0.913431
O O1 0.271226 0.727998 0.894435
O O2 0.238290 0.864694 0.883352
O O3 0.136165 0.765309 0.877415
O O4 0.200754 0.792304 0.000000
O O5 0.867731 0.500000 0.131557
O O6 0.765188 0.595061 0.132318
O O7 0.865270 0.600187 0.234298
O O8 0.896804 0.630715 0.096760
O O9 0.368447 0.630498 0.113363
O O10 0.280644 0.629814 0.000000
O O11 0.629384 0.903918 0.870844
O O12 0.729708 0.000000 0.899427
O O13 0.685930 0.906415 0.000000
O O14 0.906368 0.500000 0.672483
O O15 0.000000 0.590477 0.728631
O O16 0.597471 0.597471 0.750000
O O17 0.593897 0.500000 0.854625
O O18 0.500000 0.603550 0.854589
O O19 0.000000 0.275984 0.875900
O O20 0.928959 0.274007 0.000000
#
# Coordination Sequence:
#
# PCOD8315839 Si02
#       7
#    16  16  16  16  16  16  16
#     4   8  16  31  47  67  95 119 146 189 235 278
#     4  10  19  30  45  67  97 128 155 189 233 278
#     4  10  20  33  50  72  98 128 163 204 246 288
#     4   9  17  31  52  72  90 119 158 198 240 286
#     4   9  18  31  46  68  99 129 155 189 236 288
#     4   9  19  35  51  67  91 125 165 209 255 298
#     4   9  17  29  46  66  90 125 160 186 220 270
#
# _framework density 17.566189000000001
#
# number of rings (size 3 to 8) (size 9 to 14) (size 15 to 20)
#    0.000    2.857    0.000    2.571    0.000    4.571 
#    0.000    7.143    0.000    3.000    0.000    3.000 
#    0.000    0.000    0.000    8.000    0.000   11.143 
#
# Total GULP energy -1388287.062117 kJ/mol
# GULP energy per Si atom -12395.420197 kJ/mol
# Density = 1.752621 g / cm^3
# Si number density = 17.566189 Si / 1000 Ang^3
#
#
#
# Elastic Constant Matrix: (Units=GPa)
#
#
# Indices 1 2 3 4 5 6 
#
# 1 121.8431 70.9665 39.1703 0.0000 0.0000 0.0000
# 2 70.9665 121.8431 39.1703 0.0000 0.0000 0.0000
# 3 39.1703 39.1703 48.4433 0.0000 0.0000 0.0000
# 4 0.0000 0.0000 0.0000 21.9175 0.0000 0.0000
# 5 0.0000 0.0000 0.0000 0.0000 21.9175 0.0000
# 6 0.0000 0.0000 0.0000 0.0000 0.0000 22.6242
#
#
#
# Elastic Compliance Matrix: (Units=1/GPa)
#
#
# Indices 1 2 3 4 5 6 
#
# 1 0.013690 -0.005966 -0.006246 0.000000 0.000000 0.000000
# 2 -0.005966 0.013690 -0.006246 0.000000 0.000000 0.000000
# 3 -0.006246 -0.006246 0.030743 0.000000 0.000000 0.000000
# 4 0.000000 0.000000 0.000000 0.045626 0.000000 0.000000
# 5 0.000000 0.000000 0.000000 0.000000 0.045626 0.000000
# 6 0.000000 0.000000 0.000000 0.000000 0.000000 0.044200
#
#
# Mechanical properties :
#
#
# Convention : Reuss Voigt Hill
#
# Bulk Modulus (GPa) = 47.15035 65.63818 56.39426
# Shear Modulus (GPa) = 21.04760 22.81337 21.93048
#
# Velocity S-wave (km/s) = 3.46524 3.60767 3.53717
# Velocity P-wave (km/s) = 6.55060 7.40277 6.98968
#
# Compressibility (1/GPa) = 0.02120875
#
# Stress axis : x y z
#
# Youngs Moduli (GPa) = 73.04742 73.04742 32.52799
#
# Poissons Ratio (x) = 0.43578 0.20316
# Poissons Ratio (y) = 0.43578 0.20316
# Poissons Ratio (z) = 0.45622 0.45622
#
# Static dielectric constant tensor:
#      x y z
#    x 3.469190 0.000000 0.000000 
#    y 0.000000 3.469190 0.000000 
#    z 0.000000 0.000000 3.026070 
# 
# 
# High freq. dielectric constant tensor:
#      x y z
#    x 1.673330 0.000000 0.000000 
#    y 0.000000 1.673330 0.000000 
#    z 0.000000 0.000000 1.657740 
# 
# From -- ./inp_files/10082.got.cif
#   From: 2010.03.12/outbox.cif.g09.slc.cpg/sg131_6_cif.got.tgz:10082.got - 2010.04.06 17:36:35.
