data_PCOD8315660
_publ_section_title
;
Structure prediction by ZEFSAII (Michael W. Deem and Ramdas Pophale) SiO2 
 PCOD8315660
Probable space group: P 42/M M C
;
_chemical_formula_sum "Si O2"
_cell_formula_units_Z 88
_cell_length_a 26.860190
_cell_length_b 26.860190
_cell_length_c 8.926063
_cell_angle_alpha 90.000000
_cell_angle_beta 90.000000
_cell_angle_gamma 90.000000
_cell_volume 6439.884948
_symmetry_space_group_name_H-M "P 42/M M C"
_symmetry_group_IT_number 131
_symmetry_cell_setting 'tetragonal'
loop_
_space_group_symop_operation_xyz
x,y,z
-x,-y,z
-y,x,1/2+z
y,-x,1/2+z
-x,y,-z
x,-y,-z
y,x,1/2-z
-y,-x,1/2-z
-x,-y,-z
x,y,-z
y,-x,1/2-z
-y,x,1/2-z
x,-y,z
-x,y,z
-y,-x,1/2+z
y,x,1/2+z
loop_
_atom_site_type_symbol
_atom_site_label
_atom_site_fract_x
_atom_site_fract_y
_atom_site_fract_z
Si Si1 0.646382 0.134429 0.670273
Si Si2 0.802308 0.872142 0.822257
Si Si3 0.555991 0.099545 0.824007
Si Si4 0.942480 0.731127 0.175531
Si Si5 0.205954 0.729751 0.827260
Si Si6 0.000000 0.558811 0.165491
O O1 0.630355 0.123711 0.500000
O O2 0.596382 0.139726 0.769688
O O3 0.683473 0.090503 0.726523
O O4 0.672613 0.188551 0.684362
O O5 0.855791 0.855791 0.750000
O O6 0.781587 0.924991 0.760549
O O7 0.762001 0.831737 0.771474
O O8 0.807751 0.874805 0.000000
O O9 0.500000 0.113029 0.768049
O O10 0.576373 0.048338 0.754222
O O11 0.556097 0.094229 0.000000
O O12 0.000000 0.720442 0.214813
O O13 0.933982 0.740409 0.000000
O O14 0.260324 0.739677 0.750000
O O15 0.205125 0.747377 0.000000
O O16 0.000000 0.500000 0.153407
O O17 0.000000 0.583307 0.000000
#
# Coordination Sequence:
#
# PCOD8315660 Si02
#       6
#    16  16  16  16  16   8
#     4   9  18  29  42  59  76 100 129 153 185 228
#     4  10  17  26  41  58  76  98 123 146 172 212
#     4  10  20  31  41  55  74  95 124 163 199 227
#     4   9  18  31  43  57  79 101 120 149 184 218
#     4   9  16  27  42  59  77  96 119 148 182 223
#     4   9  17  29  43  53  63  87 121 155 193 233
#
# _framework density 13.66484
#
# number of rings (size 3 to 8) (size 9 to 14) (size 15 to 20)
#    0.000    2.636    0.000    5.182    1.273    6.182 
#    0.000    0.000    0.000    0.000    0.000    0.000 
#    0.000    0.364    0.000    3.818    0.000    1.818 
#
# Total GULP energy -1090366.808713 kJ/mol
# GULP energy per Si atom -12390.531917 kJ/mol
# Density = 1.363374 g / cm^3
# Si number density = 13.664840 Si / 1000 Ang^3
#
#
#
# Elastic Constant Matrix: (Units=GPa)
#
#
# Indices 1 2 3 4 5 6 
#
# 1 54.8604 39.0896 31.4024 0.0000 0.0000 0.0000
# 2 39.0896 54.8616 31.4023 0.0000 0.0000 0.0000
# 3 31.4024 31.4023 76.3053 0.0000 0.0000 0.0000
# 4 0.0000 0.0000 0.0000 20.2455 0.0000 0.0000
# 5 0.0000 0.0000 0.0000 0.0000 20.2453 0.0000
# 6 0.0000 0.0000 0.0000 0.0000 0.0000 13.5427
#
#
#
# Elastic Compliance Matrix: (Units=1/GPa)
#
#
# Indices 1 2 3 4 5 6 
#
# 1 0.039045 -0.024361 -0.006043 0.000000 0.000000 0.000000
# 2 -0.024361 0.039044 -0.006042 0.000000 0.000000 0.000000
# 3 -0.006043 -0.006042 0.018079 0.000000 0.000000 0.000000
# 4 0.000000 0.000000 0.000000 0.049394 0.000000 0.000000
# 5 0.000000 0.000000 0.000000 0.000000 0.049394 0.000000
# 6 0.000000 0.000000 0.000000 0.000000 0.000000 0.073841
#
#
# Mechanical properties :
#
#
# Convention : Reuss Voigt Hill
#
# Bulk Modulus (GPa) = 42.96515 43.31287 43.13901
# Shear Modulus (GPa) = 14.30827 16.41558 15.36192
#
# Velocity S-wave (km/s) = 3.23938 3.46974 3.35654
# Velocity P-wave (km/s) = 6.74550 6.91502 6.83079
#
# Compressibility (1/GPa) = 0.02327468
#
# Stress axis : x y z
#
# Youngs Moduli (GPa) = 25.61130 25.61204 55.31334
#
# Poissons Ratio (x) = 0.62394 0.33426
# Poissons Ratio (y) = 0.62393 0.33423
# Poissons Ratio (z) = 0.15477 0.15476
#
# Static dielectric constant tensor:
#      x y z
#    x 2.815820 0.000000 0.000000 
#    y 0.000000 2.815810 0.000000 
#    z 0.000000 0.000000 2.820490 
# 
# 
# High freq. dielectric constant tensor:
#      x y z
#    x 1.487360 0.000000 0.000000 
#    y 0.000000 1.487360 0.000000 
#    z 0.000000 0.000000 1.534030 
# 
# From -- ./inp_files/2407.got.cif
#   From: 2010.03.12/outbox.cif.g09.slc.cpg/sg131_2_cif.got.tgz:2407.got - 2010.04.06 17:36:35.
