data_PCOD8315849
_publ_section_title
;
Structure prediction by ZEFSAII (Michael W. Deem and Ramdas Pophale) SiO2 
 PCOD8315849
Probable space group: P 42/M M C
;
_chemical_formula_sum "Si O2"
_cell_formula_units_Z 112
_cell_length_a 14.283956
_cell_length_b 14.283956
_cell_length_c 25.081177
_cell_angle_alpha 90.000000
_cell_angle_beta 90.000000
_cell_angle_gamma 90.000000
_cell_volume 5117.347632
_symmetry_space_group_name_H-M "P 42/M M C"
_symmetry_group_IT_number 131
_symmetry_cell_setting 'tetragonal'
loop_
_space_group_symop_operation_xyz
x,y,z
-x,-y,z
-y,x,1/2+z
y,-x,1/2+z
-x,y,-z
x,-y,-z
y,x,1/2-z
-y,-x,1/2-z
-x,-y,-z
x,y,-z
y,-x,1/2-z
-y,x,1/2-z
x,-y,z
-x,y,z
-y,-x,1/2+z
y,x,1/2+z
loop_
_atom_site_type_symbol
_atom_site_label
_atom_site_fract_x
_atom_site_fract_y
_atom_site_fract_z
Si Si1 0.887874 0.108692 0.643250
Si Si2 0.742941 0.899721 0.776674
Si Si3 0.751327 0.398435 0.895539
Si Si4 0.650883 0.604713 0.309942
Si Si5 0.853047 0.394491 0.359957
Si Si6 0.110606 0.396219 0.193324
Si Si7 0.799370 0.753022 0.560740
O O1 0.850457 0.162987 0.697725
O O2 0.837689 0.156877 0.593012
O O3 0.000000 0.120274 0.638573
O O4 0.858560 0.000000 0.646074
O O5 0.670165 0.921356 0.825168
O O6 0.684577 0.843904 0.731213
O O7 0.775120 0.000000 0.754148
O O8 0.750734 0.500000 0.925149
O O9 0.671092 0.404301 0.850563
O O10 0.850171 0.382958 0.865758
O O11 0.742684 0.313686 0.936953
O O12 0.641406 0.641406 0.250000
O O13 0.609389 0.500000 0.314460
O O14 0.757953 0.606045 0.326856
O O15 0.891597 0.500000 0.368546
O O16 0.841585 0.344365 0.417374
O O17 0.136420 0.500000 0.215807
O O18 0.000000 0.383539 0.191166
O O19 0.830644 0.766172 0.500000
#
# Coordination Sequence:
#
# PCOD8315849 Si02
#       7
#    16  16  16  16  16  16  16
#     4   9  19  37  60  85 112 141 175 218 268 321
#     4   9  16  28  51  82 112 141 173 207 248 311
#     4  10  21  36  54  77 107 142 179 222 270 316
#     4  10  19  30  47  73 106 142 177 212 251 303
#     4   9  18  32  49  72 105 140 173 215 268 322
#     4   9  17  30  51  80 112 144 175 207 251 311
#     4  10  22  38  56  78 101 133 182 234 280 325
#
# _framework density 21.886337000000001
#
# number of rings (size 3 to 8) (size 9 to 14) (size 15 to 20)
#    0.000    2.571    0.000    1.714    0.000    5.857 
#    0.000    0.714    0.000    2.571    0.000   15.000 
#    0.000    0.000    0.000    0.000    0.000    0.000 
#
# Total GULP energy -1387595.339855 kJ/mol
# GULP energy per Si atom -12389.244106 kJ/mol
# Density = 2.183652 g / cm^3
# Si number density = 21.886337 Si / 1000 Ang^3
#
#
#
# Elastic Constant Matrix: (Units=GPa)
#
#
# Indices 1 2 3 4 5 6 
#
# 1 97.6844 8.4731 2.9627 0.0000 0.0000 0.0000
# 2 8.4731 97.6844 2.9627 0.0000 0.0000 0.0000
# 3 2.9627 2.9627 34.5994 0.0000 0.0000 0.0000
# 4 0.0000 0.0000 0.0000 16.2526 0.0000 0.0000
# 5 0.0000 0.0000 0.0000 0.0000 16.2526 0.0000
# 6 0.0000 0.0000 0.0000 0.0000 0.0000 12.3507
#
#
#
# Elastic Compliance Matrix: (Units=1/GPa)
#
#
# Indices 1 2 3 4 5 6 
#
# 1 0.010337 -0.000872 -0.000810 0.000000 0.000000 0.000000
# 2 -0.000872 0.010337 -0.000810 0.000000 0.000000 0.000000
# 3 -0.000810 -0.000810 0.029041 0.000000 0.000000 0.000000
# 4 0.000000 0.000000 0.000000 0.061529 0.000000 0.000000
# 5 0.000000 0.000000 0.000000 0.000000 0.061529 0.000000
# 6 0.000000 0.000000 0.000000 0.000000 0.000000 0.080967
#
#
# Mechanical properties :
#
#
# Convention : Reuss Voigt Hill
#
# Bulk Modulus (GPa) = 22.35661 28.75166 25.55413
# Shear Modulus (GPa) = 18.27248 23.34250 20.80749
#
# Velocity S-wave (km/s) = 2.89257 3.26932 3.08670
# Velocity P-wave (km/s) = 4.62525 5.23609 4.94012
#
# Compressibility (1/GPa) = 0.04472951
#
# Stress axis : x y z
#
# Youngs Moduli (GPa) = 96.73726 96.73726 34.43406
#
# Poissons Ratio (x) = 0.08436 0.02791
# Poissons Ratio (y) = 0.08436 0.02791
# Poissons Ratio (z) = 0.07840 0.07840
#
# Static dielectric constant tensor:
#      x y z
#    x 4.151190 0.000000 0.000000 
#    y 0.000000 4.151190 0.000000 
#    z 0.000000 0.000000 3.499000 
# 
# 
# High freq. dielectric constant tensor:
#      x y z
#    x 1.872710 0.000000 0.000000 
#    y 0.000000 1.872710 0.000000 
#    z 0.000000 0.000000 1.815160 
# 
# From -- ./inp_files/11317.got.cif
#   From: 2010.03.12/outbox.cif.g09.slc.cpg/sg131_6_cif.got.tgz:11317.got - 2010.04.06 17:36:35.
