data_PCOD8315674
_publ_section_title
;
Structure prediction by ZEFSAII (Michael W. Deem and Ramdas Pophale) SiO2 
 PCOD8315674
Probable space group: P 42/M M C
;
_chemical_formula_sum "Si O2"
_cell_formula_units_Z 128
_cell_length_a 18.597892
_cell_length_b 18.597892
_cell_length_c 22.437140
_cell_angle_alpha 90.000000
_cell_angle_beta 90.000000
_cell_angle_gamma 90.000000
_cell_volume 7760.593587
_symmetry_space_group_name_H-M "P 42/M M C"
_symmetry_group_IT_number 131
_symmetry_cell_setting 'tetragonal'
loop_
_space_group_symop_operation_xyz
x,y,z
-x,-y,z
-y,x,1/2+z
y,-x,1/2+z
-x,y,-z
x,-y,-z
y,x,1/2-z
-y,-x,1/2-z
-x,-y,-z
x,y,-z
y,-x,1/2-z
-y,x,1/2-z
x,-y,z
-x,y,z
-y,-x,1/2+z
y,x,1/2+z
loop_
_atom_site_type_symbol
_atom_site_label
_atom_site_fract_x
_atom_site_fract_y
_atom_site_fract_z
Si Si1 0.416859 0.081452 0.673132
Si Si2 0.724213 0.647907 0.367994
Si Si3 0.788249 0.417936 0.253855
Si Si4 0.844404 0.577624 0.569722
Si Si5 0.921695 0.283199 0.429584
Si Si6 0.580293 0.641710 0.309028
Si Si7 0.222707 0.216709 0.430703
Si Si8 0.310977 0.919161 0.567645
O O1 0.500000 0.093871 0.658417
O O2 0.392043 0.136760 0.724471
O O3 0.376466 0.097573 0.611460
O O4 0.401714 0.000000 0.695400
O O5 0.768992 0.636839 0.306737
O O6 0.761016 0.596513 0.416918
O O7 0.640812 0.624881 0.358987
O O8 0.729579 0.730396 0.389760
O O9 0.794141 0.500000 0.278127
O O10 0.726231 0.413652 0.204356
O O11 0.854153 0.573667 0.500000
O O12 0.864712 0.500000 0.597941
O O13 0.896140 0.639375 0.596626
O O14 0.928402 0.289866 0.500000
O O15 0.861727 0.223747 0.412956
O O16 0.000000 0.263097 0.402273
O O17 0.594886 0.594886 0.250000
O O18 0.500000 0.622686 0.332665
O O19 0.233593 0.238541 0.500000
O O20 0.245495 0.134913 0.418420
O O21 0.339064 0.908191 0.500000
O O22 0.281271 0.000000 0.576871
#
# Coordination Sequence:
#
# PCOD8315674 Si02
#       8
#    16  16  16  16  16  16  16  16
#     4   9  17  29  45  66  95 126 151 183 226 266
#     4  10  17  28  46  63  82 113 149 179 216 267
#     4   9  17  29  43  61  86 113 143 179 221 267
#     4   9  17  28  42  61  85 113 143 173 207 253
#     4   8  14  25  41  60  82 109 138 169 208 248
#     4   9  18  30  44  61  79 102 138 187 232 265
#     4   9  17  29  45  66  92 119 148 185 225 263
#     4   9  17  29  46  67  90 119 154 187 222 270
#
# _framework density 16.493583999999998
#
# number of rings (size 3 to 8) (size 9 to 14) (size 15 to 20)
#    0.000    3.000    0.000    2.250    0.000    1.125 
#    0.000    5.000    0.000    5.625    0.000    3.500 
#    0.000    0.000    0.000    0.375    0.000    0.625 
#
# Total GULP energy -1586098.981574 kJ/mol
# GULP energy per Si atom -12391.398294 kJ/mol
# Density = 1.645604 g / cm^3
# Si number density = 16.493584 Si / 1000 Ang^3
#
#
#
# Elastic Constant Matrix: (Units=GPa)
#
#
# Indices 1 2 3 4 5 6 
#
# 1 107.5862 41.0190 29.7161 0.0000 0.0000 0.0000
# 2 41.0190 107.5862 29.7161 0.0000 0.0000 0.0000
# 3 29.7161 29.7161 37.4596 0.0000 0.0000 0.0000
# 4 0.0000 0.0000 0.0000 20.5097 0.0000 0.0000
# 5 0.0000 0.0000 0.0000 0.0000 20.5097 0.0000
# 6 0.0000 0.0000 0.0000 0.0000 0.0000 17.8982
#
#
#
# Elastic Compliance Matrix: (Units=1/GPa)
#
#
# Indices 1 2 3 4 5 6 
#
# 1 0.012439 -0.002583 -0.007819 0.000000 0.000000 0.000000
# 2 -0.002583 0.012439 -0.007819 0.000000 0.000000 0.000000
# 3 -0.007819 -0.007819 0.039100 0.000000 0.000000 0.000000
# 4 0.000000 0.000000 0.000000 0.048757 0.000000 0.000000
# 5 0.000000 0.000000 0.000000 0.000000 0.048757 0.000000
# 6 0.000000 0.000000 0.000000 0.000000 0.000000 0.055871
#
#
# Mechanical properties :
#
#
# Convention : Reuss Voigt Hill
#
# Bulk Modulus (GPa) = 36.31374 50.39272 43.35323
# Shear Modulus (GPa) = 19.01243 21.92893 20.47068
#
# Velocity S-wave (km/s) = 3.39885 3.65025 3.52679
# Velocity P-wave (km/s) = 6.12108 6.95593 6.55182
#
# Compressibility (1/GPa) = 0.02753778
#
# Stress axis : x y z
#
# Youngs Moduli (GPa) = 80.39021 80.39021 25.57512
#
# Poissons Ratio (x) = 0.20766 0.19997
# Poissons Ratio (y) = 0.20766 0.19997
# Poissons Ratio (z) = 0.62855 0.62855
#
# Static dielectric constant tensor:
#      x y z
#    x 3.260830 0.000000 0.000000 
#    y 0.000000 3.260830 0.000000 
#    z 0.000000 0.000000 2.913610 
# 
# 
# High freq. dielectric constant tensor:
#      x y z
#    x 1.627710 0.000000 0.000000 
#    y 0.000000 1.627710 0.000000 
#    z 0.000000 0.000000 1.607890 
# 
# From -- ./inp_files/11510.got.cif
#   From: 2010.03.12/outbox.cif.g09.slc.cpg/sg131_6_cif.got.tgz:11510.got - 2010.04.06 17:36:35.
