data_PCOD8315782
_publ_section_title
;
Structure prediction by ZEFSAII (Michael W. Deem and Ramdas Pophale) SiO2 
 PCOD8315782
Probable space group: P 42/M M C
;
_chemical_formula_sum "Si O2"
_cell_formula_units_Z 104
_cell_length_a 18.588819
_cell_length_b 18.588819
_cell_length_c 17.375059
_cell_angle_alpha 90.000000
_cell_angle_beta 90.000000
_cell_angle_gamma 90.000000
_cell_volume 6003.850720
_symmetry_space_group_name_H-M "P 42/M M C"
_symmetry_group_IT_number 131
_symmetry_cell_setting 'tetragonal'
loop_
_space_group_symop_operation_xyz
x,y,z
-x,-y,z
-y,x,1/2+z
y,-x,1/2+z
-x,y,-z
x,-y,-z
y,x,1/2-z
-y,-x,1/2-z
-x,-y,-z
x,y,-z
y,-x,1/2-z
-y,x,1/2-z
x,-y,z
-x,y,z
-y,-x,1/2+z
y,x,1/2+z
loop_
_atom_site_type_symbol
_atom_site_label
_atom_site_fract_x
_atom_site_fract_y
_atom_site_fract_z
Si Si1 0.919304 0.314266 0.000000
Si Si2 0.213199 0.213199 0.750000
Si Si3 0.081072 0.727335 0.164517
Si Si4 0.416301 0.711963 0.652291
Si Si5 0.218944 0.363520 0.690870
Si Si6 0.582854 0.340508 0.909909
Si Si7 0.791988 0.584992 0.000000
Si Si8 0.080783 0.581656 0.248052
O O1 0.905462 0.263689 0.073768
O O2 0.871828 0.385351 0.000000
O O3 0.000000 0.344652 0.000000
O O4 0.220290 0.136238 0.708113
O O5 0.216805 0.276754 0.685946
O O6 0.092579 0.641743 0.181987
O O7 0.000000 0.750465 0.187928
O O8 0.500000 0.722235 0.664123
O O9 0.378501 0.743002 0.727338
O O10 0.397983 0.627946 0.639829
O O11 0.386553 0.752148 0.576526
O O12 0.260910 0.395795 0.618489
O O13 0.139732 0.399804 0.686615
O O14 0.500000 0.356119 0.891903
O O15 0.599492 0.347478 0.000000
O O16 0.793865 0.500000 0.000000
O O17 0.093842 0.500000 0.215883
O O18 0.000000 0.587287 0.282738
#
# Coordination Sequence:
#
# PCOD8315782 Si02
#       8
#     8   8  16  16  16  16   8  16
#     4  10  20  31  46  71 110 142 162 200 246 300
#     4  10  18  32  56  75  97 136 164 202 246 286
#     4   9  19  32  48  76 107 136 172 204 242 298
#     4  11  21  35  52  69  94 128 169 216 257 305
#     4  11  20  34  52  76  97 127 169 208 251 303
#     4  11  23  36  50  69  95 126 167 220 265 305
#     4  10  20  31  47  72 100 134 170 206 250 302
#     4   9  17  30  49  72 100 132 166 206 251 301
#
# _framework density 17.322215
#
# number of rings (size 3 to 8) (size 9 to 14) (size 15 to 20)
#    0.000    1.846    2.308    3.231    0.000    2.308 
#    0.000    2.308    0.000    2.538    0.000    2.692 
#    0.000    1.846    0.000    0.000    0.000    0.000 
#
# Total GULP energy -1289141.843067 kJ/mol
# GULP energy per Si atom -12395.594645 kJ/mol
# Density = 1.728279 g / cm^3
# Si number density = 17.322215 Si / 1000 Ang^3
#
#
#
# Elastic Constant Matrix: (Units=GPa)
#
#
# Indices 1 2 3 4 5 6 
#
# 1 91.2521 31.8655 18.0186 0.0000 0.0000 0.0000
# 2 31.8655 91.2521 18.0186 0.0000 0.0000 0.0000
# 3 18.0186 18.0186 28.3625 0.0000 0.0000 0.0000
# 4 0.0000 0.0000 0.0000 17.3523 0.0000 0.0000
# 5 0.0000 0.0000 0.0000 0.0000 17.3523 0.0000
# 6 0.0000 0.0000 0.0000 0.0000 0.0000 25.6202
#
#
#
# Elastic Compliance Matrix: (Units=1/GPa)
#
#
# Indices 1 2 3 4 5 6 
#
# 1 0.013408 -0.003431 -0.006339 0.000000 0.000000 0.000000
# 2 -0.003431 0.013408 -0.006339 0.000000 0.000000 0.000000
# 3 -0.006339 -0.006339 0.043312 0.000000 0.000000 0.000000
# 4 0.000000 0.000000 0.000000 0.057629 0.000000 0.000000
# 5 0.000000 0.000000 0.000000 0.000000 0.057629 0.000000
# 6 0.000000 0.000000 0.000000 0.000000 0.000000 0.039032
#
#
# Mechanical properties :
#
#
# Convention : Reuss Voigt Hill
#
# Bulk Modulus (GPa) = 26.37683 38.51913 32.44798
# Shear Modulus (GPa) = 18.56855 21.59587 20.08221
#
# Velocity S-wave (km/s) = 3.27762 3.53472 3.40859
# Velocity P-wave (km/s) = 5.43911 6.24052 5.85355
#
# Compressibility (1/GPa) = 0.03791205
#
# Stress axis : x y z
#
# Youngs Moduli (GPa) = 74.58077 74.58077 23.08835
#
# Poissons Ratio (x) = 0.25585 0.14635
# Poissons Ratio (y) = 0.25585 0.14635
# Poissons Ratio (z) = 0.47275 0.47275
#
# Static dielectric constant tensor:
#      x y z
#    x 3.295510 0.000000 0.000000 
#    y 0.000000 3.295510 0.000000 
#    z 0.000000 0.000000 3.136920 
# 
# 
# High freq. dielectric constant tensor:
#      x y z
#    x 1.663830 0.000000 0.000000 
#    y 0.000000 1.663830 0.000000 
#    z 0.000000 0.000000 1.646950 
# 
# From -- ./inp_files/8167.got.cif
#   From: 2010.03.12/outbox.cif.g09.slc.cpg/sg131_5_cif.got.tgz:8167.got - 2010.04.06 17:36:35.
