data_PCOD8315492
_publ_section_title
;
Structure prediction by ZEFSAII (Michael W. Deem and Ramdas Pophale) SiO2 
 PCOD8315492
Probable space group: P 4/N C C
;
_chemical_formula_sum "Si O2"
_cell_formula_units_Z 112
_cell_length_a 15.023997
_cell_length_b 15.023997
_cell_length_c 27.216657
_cell_angle_alpha 90.000000
_cell_angle_beta 90.000000
_cell_angle_gamma 90.000000
_cell_volume 6143.357041
_symmetry_space_group_name_H-M "P 4/N C C"
_symmetry_group_IT_number 130
_symmetry_cell_setting 'tetragonal'
loop_
_space_group_symop_operation_xyz
x,y,z
1/2-y,x,z
1/2-x,1/2-y,z
y,1/2-x,z
1/2+x,-y,1/2-z
-x,1/2+y,1/2-z
1/2+y,1/2+x,1/2-z
-y,-x,1/2-z
-x,-y,-z
1/2+y,-x,-z
1/2+x,1/2+y,-z
-y,1/2+x,-z
1/2-x,y,1/2+z
x,1/2-y,1/2+z
1/2-y,1/2-x,1/2+z
y,x,1/2+z
loop_
_atom_site_type_symbol
_atom_site_label
_atom_site_fract_x
_atom_site_fract_y
_atom_site_fract_z
Si Si1 0.185154 0.045733 0.563361
Si Si2 0.635330 0.015713 0.095644
Si Si3 0.130183 0.464042 0.618589
Si Si4 0.296982 0.613333 0.493282
Si Si5 0.301779 0.114092 0.712578
Si Si6 0.360306 0.161082 0.467270
Si Si7 0.609951 0.706620 0.175752
O O1 0.115862 0.060425 0.607732
O O2 0.285454 0.044946 0.582772
O O3 0.162525 0.126839 0.525938
O O4 0.166690 0.954766 0.534043
O O5 0.555524 0.078518 0.111862
O O6 0.702164 0.072992 0.061671
O O7 0.601872 0.932803 0.061831
O O8 0.684913 0.976233 0.143150
O O9 0.163959 0.460814 0.674883
O O10 0.196625 0.637667 0.505831
O O11 0.362179 0.199908 0.702356
O O12 0.309065 0.079261 0.768188
O O13 0.373907 0.264222 0.450909
O O14 0.692435 0.640537 0.165134
#
# Coordination Sequence:
#
# PCOD8315492 Si02
#       7
#    16  16  16  16  16  16  16
#     4  11  22  34  54  82 112 138 190 237 280 333
#     4  11  23  34  56  84 113 149 190 232 276 328
#     4  12  22  35  54  84 112 149 186 237 287 331
#     4  10  22  41  57  75 114 159 194 222 265 333
#     4   9  18  34  60  84 111 147 183 230 294 349
#     4  10  20  34  54  80 110 146 180 229 291 341
#     4   9  19  38  61  88 116 144 180 230 292 350
#
# _framework density 18.231074
#
# number of rings (size 3 to 8) (size 9 to 14) (size 15 to 20)
#    0.000    1.714    4.286    1.714    0.000    7.714 
#    0.000    0.000    0.000    0.000    0.000    0.000 
#    0.000    0.000    0.000    0.000    0.000    0.000 
#
# Total GULP energy -1388140.640599 kJ/mol
# GULP energy per Si atom -12394.112862 kJ/mol
# Density = 1.818958 g / cm^3
# Si number density = 18.231074 Si / 1000 Ang^3
#
#
#
# Elastic Constant Matrix: (Units=GPa)
#
#
# Indices 1 2 3 4 5 6 
#
# 1 58.5501 20.5039 34.4687 0.0000 0.0000 0.0000
# 2 20.5039 58.5501 34.4687 0.0000 0.0000 0.0000
# 3 34.4687 34.4687 118.3555 0.0000 0.0000 0.0000
# 4 0.0000 0.0000 0.0000 31.2538 0.0000 0.0000
# 5 0.0000 0.0000 0.0000 0.0000 31.2538 0.0000
# 6 0.0000 0.0000 0.0000 0.0000 0.0000 19.7612
#
#
#
# Elastic Compliance Matrix: (Units=1/GPa)
#
#
# Indices 1 2 3 4 5 6 
#
# 1 0.021620 -0.004664 -0.004938 0.000000 0.000000 0.000000
# 2 -0.004664 0.021620 -0.004938 0.000000 0.000000 0.000000
# 3 -0.004938 -0.004938 0.011325 0.000000 0.000000 0.000000
# 4 0.000000 0.000000 0.000000 0.031996 0.000000 0.000000
# 5 0.000000 0.000000 0.000000 0.000000 0.031996 0.000000
# 6 0.000000 0.000000 0.000000 0.000000 0.000000 0.050604
#
#
# Mechanical properties :
#
#
# Convention : Reuss Voigt Hill
#
# Bulk Modulus (GPa) = 39.23932 46.03757 42.63844
# Shear Modulus (GPa) = 24.18538 26.18803 25.18671
#
# Velocity S-wave (km/s) = 3.64621 3.79416 3.72092
# Velocity P-wave (km/s) = 6.26869 6.67093 6.47294
#
# Compressibility (1/GPa) = 0.02548464
#
# Stress axis : x y z
#
# Youngs Moduli (GPa) = 46.25398 46.25398 88.29778
#
# Poissons Ratio (x) = 0.21573 0.43601
# Poissons Ratio (y) = 0.21573 0.43601
# Poissons Ratio (z) = 0.22840 0.22840
#
# Static dielectric constant tensor:
#      x y z
#    x 3.224820 0.000000 0.000000 
#    y 0.000000 3.224820 0.000000 
#    z 0.000000 0.000000 3.447570 
# 
# 
# High freq. dielectric constant tensor:
#      x y z
#    x 1.692290 0.000000 0.000000 
#    y 0.000000 1.692290 0.000000 
#    z 0.000000 0.000000 1.712110 
# 
# From -- ./inp_files/4602.got.cif
#   From: 2010.03.12/outbox.cif.g09.slc.cpg/sg130_3_cif.got.tgz:4602.got - 2010.04.06 17:30:23.
