data_PCOD8315032
_publ_section_title
;
Structure prediction by ZEFSAII (Michael W. Deem and Ramdas Pophale) SiO2 
 PCOD8315032
Probable space group: P 4/N M M
;
_chemical_formula_sum "Si O2"
_cell_formula_units_Z 120
_cell_length_a 17.975975
_cell_length_b 17.975975
_cell_length_c 21.848457
_cell_angle_alpha 90.000000
_cell_angle_beta 90.000000
_cell_angle_gamma 90.000000
_cell_volume 7060.015948
_symmetry_space_group_name_H-M "P 4/N M M"
_symmetry_group_IT_number 129
_symmetry_cell_setting 'tetragonal'
loop_
_space_group_symop_operation_xyz
x,y,z
1/2-y,x,z
1/2-x,1/2-y,z
y,1/2-x,z
1/2+x,-y,-z
-x,1/2+y,-z
1/2+y,1/2+x,-z
-y,-x,-z
-x,-y,-z
1/2+y,-x,-z
1/2+x,1/2+y,-z
-y,1/2+x,-z
1/2-x,y,z
x,1/2-y,z
1/2-y,1/2-x,z
y,x,z
loop_
_atom_site_type_symbol
_atom_site_label
_atom_site_fract_x
_atom_site_fract_y
_atom_site_fract_z
Si Si1 0.410291 0.910291 0.000000
Si Si2 0.336375 0.886798 0.241703
Si Si3 0.666685 0.545793 0.806401
Si Si4 0.164040 0.452218 0.052980
Si Si5 0.042694 0.164842 0.554508
Si Si6 0.834363 0.421324 0.541790
Si Si7 0.336029 0.668346 0.890402
Si Si8 0.088167 0.665046 0.359660
O O1 0.496361 0.889636 0.988644
O O2 0.366272 0.888281 0.939634
O O3 0.250000 0.867093 0.258271
O O4 0.360430 0.850261 0.177859
O O5 0.395447 0.851385 0.288875
O O6 0.347123 0.975495 0.237479
O O7 0.750000 0.577253 0.797162
O O8 0.609970 0.609970 0.786834
O O9 0.656865 0.519966 0.876850
O O10 0.250000 0.453020 0.030886
O O11 0.131867 0.368134 0.047928
O O12 0.066304 0.250000 0.542646
O O13 0.116667 0.116667 0.558930
O O14 0.991707 0.134800 0.497703
O O15 0.997833 0.158967 0.619052
O O16 0.848191 0.348191 0.500000
O O17 0.750000 0.436022 0.555540
O O18 0.870636 0.403610 0.606768
O O19 0.250000 0.676304 0.902802
O O20 0.374399 0.750000 0.898783
O O21 0.115351 0.750000 0.375388
#
# Coordination Sequence:
#
# PCOD8315032 Si02
#       8
#     8  16  16  16  16  16  16  16
#     4  12  19  31  50  74 102 129 164 210 267 318
#     4  10  19  32  47  67  99 136 171 206 246 295
#     4   9  18  33  50  69  94 124 162 208 254 300
#     4  10  20  34  52  73  98 129 165 208 257 309
#     4   9  19  35  53  75 101 128 164 208 250 293
#     4   9  17  28  44  69  98 128 161 196 232 277
#     4  10  19  29  44  67  98 137 173 206 248 304
#     4  10  20  31  47  73 103 135 169 201 239 289
#
# _framework density 16.997129000000001
#
# number of rings (size 3 to 8) (size 9 to 14) (size 15 to 20)
#    0.000    2.267    1.333    3.400    0.000    6.133 
#    0.000    1.333    0.000    0.000    0.000    0.000 
#    0.000    4.267    0.000    3.867    0.000    0.133 
#
# Total GULP energy -1486843.441645 kJ/mol
# GULP energy per Si atom -12390.362014 kJ/mol
# Density = 1.695844 g / cm^3
# Si number density = 16.997129 Si / 1000 Ang^3
#
#
#
# Elastic Constant Matrix: (Units=GPa)
#
#
# Indices 1 2 3 4 5 6 
#
# 1 71.7051 56.6489 31.1824 0.0000 0.0000 0.0000
# 2 56.6489 71.7051 31.1824 0.0000 0.0000 0.0000
# 3 31.1824 31.1824 79.8334 0.0000 0.0000 0.0000
# 4 0.0000 0.0000 0.0000 20.0957 0.0000 0.0000
# 5 0.0000 0.0000 0.0000 0.0000 20.0957 0.0000
# 6 0.0000 0.0000 0.0000 0.0000 0.0000 28.7669
#
#
#
# Elastic Compliance Matrix: (Units=1/GPa)
#
#
# Indices 1 2 3 4 5 6 
#
# 1 0.038017 -0.028401 -0.003756 0.000000 0.000000 0.000000
# 2 -0.028401 0.038017 -0.003756 0.000000 0.000000 0.000000
# 3 -0.003756 -0.003756 0.015460 0.000000 0.000000 0.000000
# 4 0.000000 0.000000 0.000000 0.049762 0.000000 0.000000
# 5 0.000000 0.000000 0.000000 0.000000 0.049762 0.000000
# 6 0.000000 0.000000 0.000000 0.000000 0.000000 0.034762
#
#
# Mechanical properties :
#
#
# Convention : Reuss Voigt Hill
#
# Bulk Modulus (GPa) = 50.84324 51.25235 51.04780
# Shear Modulus (GPa) = 16.43863 20.74031 18.58947
#
# Velocity S-wave (km/s) = 3.11326 3.49696 3.31068
# Velocity P-wave (km/s) = 6.54989 6.82085 6.68674
#
# Compressibility (1/GPa) = 0.01966830
#
# Stress axis : x y z
#
# Youngs Moduli (GPa) = 26.30410 26.30410 64.68239
#
# Poissons Ratio (x) = 0.74706 0.24294
# Poissons Ratio (y) = 0.74706 0.24294
# Poissons Ratio (z) = 0.09880 0.09880
#
# Static dielectric constant tensor:
#      x y z
#    x 2.964350 0.000000 0.000000 
#    y 0.000000 2.964350 0.000000 
#    z 0.000000 0.000000 3.174040 
# 
# 
# High freq. dielectric constant tensor:
#      x y z
#    x 1.644640 0.000000 0.000000 
#    y 0.000000 1.644640 0.000000 
#    z 0.000000 0.000000 1.642620 
# 
# From -- ./inp_files/6835.got.cif
#   From: 2010.03.12/outbox.cif.g09.slc.cpg/sg129_4_cif.got.tgz:6835.got - 2010.04.06 17:19:44.
