data_PCOD8315433
_publ_section_title
;
Structure prediction by ZEFSAII (Michael W. Deem and Ramdas Pophale) SiO2 
 PCOD8315433
Probable space group: P 4/N M M
;
_chemical_formula_sum "Si O2"
_cell_formula_units_Z 112
_cell_length_a 21.186375
_cell_length_b 21.186375
_cell_length_c 19.529200
_cell_angle_alpha 90.000000
_cell_angle_beta 90.000000
_cell_angle_gamma 90.000000
_cell_volume 8765.925255
_symmetry_space_group_name_H-M "P 4/N M M"
_symmetry_group_IT_number 129
_symmetry_cell_setting 'tetragonal'
loop_
_space_group_symop_operation_xyz
x,y,z
1/2-y,x,z
1/2-x,1/2-y,z
y,1/2-x,z
1/2+x,-y,-z
-x,1/2+y,-z
1/2+y,1/2+x,-z
-y,-x,-z
-x,-y,-z
1/2+y,-x,-z
1/2+x,1/2+y,-z
-y,1/2+x,-z
1/2-x,y,z
x,1/2-y,z
1/2-y,1/2-x,z
y,x,z
loop_
_atom_site_type_symbol
_atom_site_label
_atom_site_fract_x
_atom_site_fract_y
_atom_site_fract_z
Si Si1 0.318355 0.818158 0.189259
Si Si2 0.675525 0.320492 0.422544
Si Si3 0.177659 0.423700 0.888334
Si Si4 0.906888 0.107521 0.106115
Si Si5 0.323360 0.971710 0.993239
Si Si6 0.098057 0.504221 0.784723
Si Si7 0.821110 0.416092 0.309922
O O1 0.250000 0.829474 0.223237
O O2 0.320088 0.750000 0.151352
O O3 0.330468 0.874468 0.136875
O O4 0.369877 0.816742 0.247006
O O5 0.659281 0.340720 0.500000
O O6 0.750000 0.316458 0.411533
O O7 0.647392 0.250000 0.406827
O O8 0.649155 0.376076 0.373272
O O9 0.250000 0.410622 0.870520
O O10 0.142897 0.357103 0.894109
O O11 0.149817 0.465390 0.827016
O O12 0.170096 0.458430 0.961619
O O13 0.966286 0.133321 0.061844
O O14 0.929306 0.059894 0.166141
O O15 0.851735 0.076708 0.061228
O O16 0.250000 0.955495 0.007435
O O17 0.039492 0.460509 0.762841
O O18 0.131106 0.528546 0.714320
O O19 0.750000 0.442018 0.326851
#
# Coordination Sequence:
#
# PCOD8315433 Si02
#       7
#    16  16  16  16  16  16  16
#     4   9  15  21  30  46  67  88 111 137 162 189
#     4   8  13  21  34  54  78  98 114 133 156 181
#     4   9  17  28  40  52  64  78  99 132 174 214
#     4   9  16  24  34  46  62  87 113 135 162 195
#     4   9  16  25  35  47  64  84 107 135 165 197
#     4   9  17  27  37  49  65  85 111 141 167 193
#     4   9  15  23  36  51  67  89 113 136 164 194
#
# _framework density 12.776745999999999
#
# number of rings (size 3 to 8) (size 9 to 14) (size 15 to 20)
#    0.000    3.143    0.000    2.143    0.000    5.857 
#    0.000    2.857    0.000    3.857    0.000    0.000 
#    0.000    0.000    0.000    0.000    0.000    0.000 
#
# Total GULP energy -1387481.897593 kJ/mol
# GULP energy per Si atom -12388.231229 kJ/mol
# Density = 1.274767 g / cm^3
# Si number density = 12.776746 Si / 1000 Ang^3
#
#
#
# Elastic Constant Matrix: (Units=GPa)
#
#
# Indices 1 2 3 4 5 6 
#
# 1 60.9836 36.6345 26.2090 0.0000 0.0000 0.0000
# 2 36.6345 60.9835 26.2090 0.0000 0.0000 0.0000
# 3 26.2090 26.2090 57.3810 0.0000 0.0000 0.0000
# 4 0.0000 0.0000 0.0000 12.6619 0.0000 0.0000
# 5 0.0000 0.0000 0.0000 0.0000 12.6620 0.0000
# 6 0.0000 0.0000 0.0000 0.0000 0.0000 19.8182
#
#
#
# Elastic Compliance Matrix: (Units=1/GPa)
#
#
# Indices 1 2 3 4 5 6 
#
# 1 0.027321 -0.013748 -0.006199 0.000000 0.000000 0.000000
# 2 -0.013748 0.027321 -0.006200 0.000000 0.000000 0.000000
# 3 -0.006199 -0.006200 0.023091 0.000000 0.000000 0.000000
# 4 0.000000 0.000000 0.000000 0.078977 0.000000 0.000000
# 5 0.000000 0.000000 0.000000 0.000000 0.078976 0.000000
# 6 0.000000 0.000000 0.000000 0.000000 0.000000 0.050459
#
#
# Mechanical properties :
#
#
# Convention : Reuss Voigt Hill
#
# Bulk Modulus (GPa) = 39.31040 39.71702 39.51371
# Shear Modulus (GPa) = 14.41258 15.04812 14.73035
#
# Velocity S-wave (km/s) = 3.36226 3.43559 3.39913
# Velocity P-wave (km/s) = 6.77547 6.84767 6.81167
#
# Compressibility (1/GPa) = 0.02543856
#
# Stress axis : x y z
#
# Youngs Moduli (GPa) = 36.60166 36.60157 43.30748
#
# Poissons Ratio (x) = 0.50321 0.26848
# Poissons Ratio (y) = 0.50321 0.26849
# Poissons Ratio (z) = 0.22691 0.22691
#
# Static dielectric constant tensor:
#      x y z
#    x 2.592380 0.000000 0.000000 
#    y 0.000000 2.592380 0.000000 
#    z 0.000000 0.000000 2.636060 
# 
# 
# High freq. dielectric constant tensor:
#      x y z
#    x 1.467230 0.000000 0.000000 
#    y 0.000000 1.467230 0.000000 
#    z 0.000000 0.000000 1.465730 
# 
# From -- ./inp_files/5977.got.cif
#   From: 2010.03.12/outbox.cif.g09.slc.cpg/sg129_3_cif.got.tgz:5977.got - 2010.04.06 17:19:44.
