data_PCOD8315666
_publ_section_title
;
Structure prediction by ZEFSAII (Michael W. Deem and Ramdas Pophale) SiO2 
 PCOD8315666
Probable space group: P 42/M M C
;
_chemical_formula_sum "Si O2"
_cell_formula_units_Z 56
_cell_length_a 13.459626
_cell_length_b 13.459626
_cell_length_c 19.485659
_cell_angle_alpha 90.000000
_cell_angle_beta 90.000000
_cell_angle_gamma 90.000000
_cell_volume 3530.051838
_symmetry_space_group_name_H-M "P 42/M M C"
_symmetry_group_IT_number 131
_symmetry_cell_setting 'tetragonal'
loop_
_space_group_symop_operation_xyz
x,y,z
-x,-y,z
-y,x,1/2+z
y,-x,1/2+z
-x,y,-z
x,-y,-z
y,x,1/2-z
-y,-x,1/2-z
-x,-y,-z
x,y,-z
y,-x,1/2-z
-y,x,1/2-z
x,-y,z
-x,y,z
-y,-x,1/2+z
y,x,1/2+z
loop_
_atom_site_type_symbol
_atom_site_label
_atom_site_fract_x
_atom_site_fract_y
_atom_site_fract_z
Si Si1 0.303444 0.773898 0.418507
Si Si2 0.613506 0.615530 0.327904
Si Si3 0.109684 0.111356 0.581368
Si Si4 0.889687 0.500000 0.081313
O O1 0.302758 0.757904 0.500000
O O2 0.312407 0.668676 0.380763
O O3 0.200626 0.822097 0.391277
O O4 0.398532 0.837727 0.393803
O O5 0.642748 0.642748 0.250000
O O6 0.627042 0.500000 0.340868
O O7 0.500000 0.647185 0.342885
O O8 0.116025 0.107748 0.500000
O O9 0.000000 0.152517 0.603689
O O10 0.123239 0.000000 0.610506
O O11 0.000000 0.500000 0.112656
O O12 0.893450 0.500000 0.000000
#
# Coordination Sequence:
#
# PCOD8315666 Si02
#       4
#    16  16  16   8
#     4  10  17  26  44  70  93 115 147 187 226 263
#     4   9  18  32  47  63  86 118 151 181 222 275
#     4   8  14  25  42  65  92 121 151 180 214 263
#     4   9  16  24  37  65 101 121 131 170 236 284
#
# _framework density 15.86379
#
# number of rings (size 3 to 8) (size 9 to 14) (size 15 to 20)
#    0.000    3.000    1.429    2.571    0.000    4.000 
#    0.000    1.429    0.000    4.286    0.000    6.000 
#    0.000    0.000    0.000    0.000    0.000    0.000 
#
# Total GULP energy -693975.383959 kJ/mol
# GULP energy per Si atom -12392.417571 kJ/mol
# Density = 1.582768 g / cm^3
# Si number density = 15.863790 Si / 1000 Ang^3
#
#
#
# Elastic Constant Matrix: (Units=GPa)
#
#
# Indices 1 2 3 4 5 6 
#
# 1 107.8432 58.4729 35.7350 0.0000 0.0000 0.0000
# 2 58.4729 107.8432 35.7350 0.0000 0.0000 0.0000
# 3 35.7350 35.7350 33.2640 0.0000 0.0000 0.0000
# 4 0.0000 0.0000 0.0000 10.8395 0.0000 0.0000
# 5 0.0000 0.0000 0.0000 0.0000 10.8395 0.0000
# 6 0.0000 0.0000 0.0000 0.0000 0.0000 29.4251
#
#
#
# Elastic Compliance Matrix: (Units=1/GPa)
#
#
# Indices 1 2 3 4 5 6 
#
# 1 0.015712 -0.004543 -0.011998 0.000000 0.000000 0.000000
# 2 -0.004543 0.015712 -0.011998 0.000000 0.000000 0.000000
# 3 -0.011998 -0.011998 0.055842 0.000000 0.000000 0.000000
# 4 0.000000 0.000000 0.000000 0.092255 0.000000 0.000000
# 5 0.000000 0.000000 0.000000 0.000000 0.092255 0.000000
# 6 0.000000 0.000000 0.000000 0.000000 0.000000 0.033985
#
#
# Mechanical properties :
#
#
# Convention : Reuss Voigt Hill
#
# Bulk Modulus (GPa) = 33.12812 56.53733 44.83273
# Shear Modulus (GPa) = 13.40835 18.15465 15.78150
#
# Velocity S-wave (km/s) = 2.91042 3.38658 3.15749
# Velocity P-wave (km/s) = 5.67646 7.14202 6.45100
#
# Compressibility (1/GPa) = 0.03018583
#
# Stress axis : x y z
#
# Youngs Moduli (GPa) = 63.64626 63.64626 17.90777
#
# Poissons Ratio (x) = 0.28916 0.21486
# Poissons Ratio (y) = 0.28916 0.21486
# Poissons Ratio (z) = 0.76364 0.76364
#
# Static dielectric constant tensor:
#      x y z
#    x 3.125160 0.000000 0.000000 
#    y 0.000000 3.125160 0.000000 
#    z 0.000000 0.000000 2.679350 
# 
# 
# High freq. dielectric constant tensor:
#      x y z
#    x 1.607490 0.000000 0.000000 
#    y 0.000000 1.607490 0.000000 
#    z 0.000000 0.000000 1.562300 
# 
# From -- ./inp_files/7204.got.cif
#   From: 2010.03.12/outbox.cif.g09.slc.cpg/sg131_4_cif.got.tgz:7204.got - 2010.04.06 17:36:35.
