data_PCOD8315549
_publ_section_title
;
Structure prediction by ZEFSAII (Michael W. Deem and Ramdas Pophale) SiO2 
 PCOD8315549
Probable space group: P 4/N C C
;
_chemical_formula_sum "Si O2"
_cell_formula_units_Z 96
_cell_length_a 14.924283
_cell_length_b 14.924283
_cell_length_c 22.673663
_cell_angle_alpha 90.000000
_cell_angle_beta 90.000000
_cell_angle_gamma 90.000000
_cell_volume 5050.200712
_symmetry_space_group_name_H-M "P 4/N C C"
_symmetry_group_IT_number 130
_symmetry_cell_setting 'tetragonal'
loop_
_space_group_symop_operation_xyz
x,y,z
1/2-y,x,z
1/2-x,1/2-y,z
y,1/2-x,z
1/2+x,-y,1/2-z
-x,1/2+y,1/2-z
1/2+y,1/2+x,1/2-z
-y,-x,1/2-z
-x,-y,-z
1/2+y,-x,-z
1/2+x,1/2+y,-z
-y,1/2+x,-z
1/2-x,y,1/2+z
x,1/2-y,1/2+z
1/2-y,1/2-x,1/2+z
y,x,1/2+z
loop_
_atom_site_type_symbol
_atom_site_label
_atom_site_fract_x
_atom_site_fract_y
_atom_site_fract_z
Si Si1 0.009209 0.221461 0.661848
Si Si2 0.182054 0.957362 0.776246
Si Si3 0.104443 0.065800 0.604582
Si Si4 0.068465 0.048057 0.871799
Si Si5 0.846596 0.862113 0.015499
Si Si6 0.363503 0.595440 0.314270
O O1 0.078333 0.138194 0.655472
O O2 0.033213 0.293704 0.612110
O O3 0.015628 0.268746 0.725641
O O4 0.908298 0.180857 0.652214
O O5 0.104619 0.895382 0.750000
O O6 0.141195 0.028237 0.821457
O O7 0.256085 0.893743 0.808255
O O8 0.089720 0.110706 0.541192
O O9 0.043995 0.977984 0.608916
O O10 0.118063 0.090705 0.926544
O O11 0.996272 0.118777 0.848527
O O12 0.740809 0.874745 0.014285
O O13 0.410428 0.589573 0.250000
#
# Coordination Sequence:
#
# PCOD8315549 Si02
#       6
#    16  16  16  16  16  16
#     4  10  22  36  62  89 118 156 202 246 296 353
#     4  11  21  37  61  90 125 161 198 240 304 373
#     4  11  21  41  62  87 117 158 206 250 294 358
#     4  11  22  38  61  90 121 162 195 246 309 363
#     4  11  23  40  62  85 118 156 204 255 300 352
#     4   9  21  37  57  88 124 155 194 248 292 361
#
# _framework density 19.009146000000001
#
# number of rings (size 3 to 8) (size 9 to 14) (size 15 to 20)
#    0.000    1.500    3.333    2.000    4.667    3.333 
#    0.000    0.000    0.000    0.000    0.000    0.000 
#    0.000    0.000    0.000    0.000    0.000    0.000 
#
# Total GULP energy -1190336.268612 kJ/mol
# GULP energy per Si atom -12399.336131 kJ/mol
# Density = 1.896588 g / cm^3
# Si number density = 19.009146 Si / 1000 Ang^3
#
#
#
# Elastic Constant Matrix: (Units=GPa)
#
#
# Indices 1 2 3 4 5 6 
#
# 1 95.5592 -13.4163 44.5031 0.0000 0.0000 0.0000
# 2 -13.4163 95.5561 44.5030 0.0000 0.0000 0.0000
# 3 44.5031 44.5030 108.3280 0.0000 0.0000 0.0000
# 4 0.0000 0.0000 0.0000 34.3593 0.0000 0.0000
# 5 0.0000 0.0000 0.0000 0.0000 34.3596 0.0000
# 6 0.0000 0.0000 0.0000 0.0000 0.0000 15.2114
#
#
#
# Elastic Compliance Matrix: (Units=1/GPa)
#
#
# Indices 1 2 3 4 5 6 
#
# 1 0.015559 0.006382 -0.009014 0.000000 0.000000 0.000000
# 2 0.006382 0.015559 -0.009014 0.000000 0.000000 0.000000
# 3 -0.009014 -0.009014 0.016637 0.000000 0.000000 0.000000
# 4 0.000000 0.000000 0.000000 0.029104 0.000000 0.000000
# 5 0.000000 0.000000 0.000000 0.000000 0.029104 0.000000
# 6 0.000000 0.000000 0.000000 0.000000 0.000000 0.065740
#
#
# Mechanical properties :
#
#
# Convention : Reuss Voigt Hill
#
# Bulk Modulus (GPa) = 40.87559 50.06922 45.47241
# Shear Modulus (GPa) = 24.61244 31.70961 28.16103
#
# Velocity S-wave (km/s) = 3.60219 4.08870 3.85313
# Velocity P-wave (km/s) = 6.23305 6.97758 6.61580
#
# Compressibility (1/GPa) = 0.02446448
#
# Stress axis : x y z
#
# Youngs Moduli (GPa) = 64.27306 64.27051 60.10568
#
# Poissons Ratio (x) = -0.41020 0.54178
# Poissons Ratio (y) = -0.41022 0.54179
# Poissons Ratio (z) = 0.57934 0.57934
#
# Static dielectric constant tensor:
#      x y z
#    x 3.545430 0.000000 0.000000 
#    y 0.000000 3.545430 0.000000 
#    z 0.000000 0.000000 3.440340 
# 
# 
# High freq. dielectric constant tensor:
#      x y z
#    x 1.740430 0.000000 0.000000 
#    y 0.000000 1.740430 0.000000 
#    z 0.000000 0.000000 1.731910 
# 
# From -- ./inp_files/3781.got.cif
#   From: 2010.03.12/outbox.cif.g09.slc.cpg/sg130_2_cif.got.tgz:3781.got - 2010.04.06 17:30:23.
