data_PCOD8315992
_publ_section_title
;
Structure prediction by ZEFSAII (Michael W. Deem and Ramdas Pophale) SiO2 
 PCOD8315992
Probable space group: P 42/M M C
;
_chemical_formula_sum "Si O2"
_cell_formula_units_Z 120
_cell_length_a 27.137356
_cell_length_b 27.137356
_cell_length_c 9.205527
_cell_angle_alpha 90.000000
_cell_angle_beta 90.000000
_cell_angle_gamma 90.000000
_cell_volume 6779.282316
_symmetry_space_group_name_H-M "P 42/M M C"
_symmetry_group_IT_number 131
_symmetry_cell_setting 'tetragonal'
loop_
_space_group_symop_operation_xyz
x,y,z
-x,-y,z
-y,x,1/2+z
y,-x,1/2+z
-x,y,-z
x,-y,-z
y,x,1/2-z
-y,-x,1/2-z
-x,-y,-z
x,y,-z
y,-x,1/2-z
-y,x,1/2-z
x,-y,z
-x,y,z
-y,-x,1/2+z
y,x,1/2+z
loop_
_atom_site_type_symbol
_atom_site_label
_atom_site_fract_x
_atom_site_fract_y
_atom_site_fract_z
Si Si1 0.375523 0.811266 0.664737
Si Si2 0.783602 0.281367 0.662141
Si Si3 0.000000 0.557301 0.672072
Si Si4 0.942499 0.733700 0.832809
Si Si5 0.739578 0.442051 0.663367
Si Si6 0.132817 0.799937 0.335974
Si Si7 0.371913 0.555656 0.669731
Si Si8 0.377587 0.923350 0.665498
O O1 0.362413 0.796821 0.500000
O O2 0.327292 0.808036 0.760924
O O3 0.417844 0.775700 0.721589
O O4 0.394586 0.866977 0.674302
O O5 0.735123 0.264878 0.750000
O O6 0.767127 0.296000 0.500000
O O7 0.822811 0.238162 0.659152
O O8 0.048021 0.583951 0.734817
O O9 0.000000 0.500000 0.718668
O O10 0.000000 0.562896 0.500000
O O11 0.913789 0.774876 0.741553
O O12 0.930615 0.678386 0.776636
O O13 0.000000 0.744788 0.814000
O O14 0.925419 0.738165 0.000000
O O15 0.752325 0.424279 0.500000
O O16 0.746183 0.500000 0.674802
O O17 0.683764 0.427073 0.702808
O O18 0.151138 0.848863 0.250000
O O19 0.117753 0.815078 0.500000
O O20 0.408915 0.591086 0.750000
O O21 0.382701 0.558320 0.500000
O O22 0.380021 0.500000 0.726118
O O23 0.380349 0.943249 0.500000
#
# Coordination Sequence:
#
# PCOD8315992 Si02
#       8
#    16  16   8  16  16  16  16  16
#     4  11  22  35  55  80 106 135 176 225 270 323
#     4  10  20  33  50  74 105 140 177 214 261 314
#     4  11  25  41  57  79 105 135 177 233 292 345
#     4  10  19  34  56  80 110 147 187 228 277 332
#     4   9  20  39  57  72  98 136 173 212 261 316
#     4  10  20  33  52  78 110 147 184 224 269 318
#     4   9  19  36  57  81 108 138 170 206 254 312
#     4  10  21  38  57  78 105 140 179 224 280 341
#
# _framework density 17.700987999999999
#
# number of rings (size 3 to 8) (size 9 to 14) (size 15 to 20)
#    0.000    2.067    2.000    2.200    0.000    5.733 
#    0.000    6.000    0.000    0.000    0.000    0.000 
#    0.000    0.267    0.000    2.800    0.000    1.200 
#
# Total GULP energy -1488112.084277 kJ/mol
# GULP energy per Si atom -12400.934036 kJ/mol
# Density = 1.766070 g / cm^3
# Si number density = 17.700988 Si / 1000 Ang^3
#
#
#
# Elastic Constant Matrix: (Units=GPa)
#
#
# Indices 1 2 3 4 5 6 
#
# 1 80.1917 50.3785 54.0736 0.0000 0.0000 0.0000
# 2 50.3785 80.1864 54.0789 0.0000 0.0000 0.0000
# 3 54.0736 54.0789 118.0835 0.0000 0.0000 0.0000
# 4 0.0000 0.0000 0.0000 28.7564 0.0000 0.0000
# 5 0.0000 0.0000 0.0000 0.0000 28.7563 0.0000
# 6 0.0000 0.0000 0.0000 0.0000 0.0000 82.7375
#
#
#
# Elastic Compliance Matrix: (Units=1/GPa)
#
#
# Indices 1 2 3 4 5 6 
#
# 1 0.022940 -0.010603 -0.005649 0.000000 0.000000 0.000000
# 2 -0.010603 0.022945 -0.005653 0.000000 0.000000 0.000000
# 3 -0.005649 -0.005653 0.013644 0.000000 0.000000 0.000000
# 4 0.000000 0.000000 0.000000 0.034775 0.000000 0.000000
# 5 0.000000 0.000000 0.000000 0.000000 0.034775 0.000000
# 6 0.000000 0.000000 0.000000 0.000000 0.000000 0.012086
#
#
# Mechanical properties :
#
#
# Convention : Reuss Voigt Hill
#
# Bulk Modulus (GPa) = 63.61378 66.16930 64.89154
# Shear Modulus (GPa) = 26.28607 36.04539 31.16573
#
# Velocity S-wave (km/s) = 3.85776 4.51749 4.20059
# Velocity P-wave (km/s) = 7.47389 8.04196 7.76312
#
# Compressibility (1/GPa) = 0.01571986
#
# Stress axis : x y z
#
# Youngs Moduli (GPa) = 43.59135 43.58329 73.29076
#
# Poissons Ratio (x) = 0.46210 0.41404
# Poissons Ratio (y) = 0.46219 0.41429
# Poissons Ratio (z) = 0.24626 0.24636
#
# Static dielectric constant tensor:
#      x y z
#    x 3.219370 0.000000 0.000000 
#    y 0.000000 3.219370 0.000000 
#    z 0.000000 0.000000 3.445230 
# 
# 
# High freq. dielectric constant tensor:
#      x y z
#    x 1.674730 0.000000 0.000000 
#    y 0.000000 1.674730 0.000000 
#    z 0.000000 0.000000 1.691720 
# 
# From -- ./inp_files/2622.got.cif
#   From: 2010.03.12/outbox.cif.g09.slc.cpg/sg131_2_cif.got.tgz:2622.got - 2010.04.06 17:36:35.
