data_PCOD8315596
_publ_section_title
;
Structure prediction by ZEFSAII (Michael W. Deem and Ramdas Pophale) SiO2 
 PCOD8315596
Probable space group: P 4/N C C
;
_chemical_formula_sum "Si O2"
_cell_formula_units_Z 112
_cell_length_a 14.786442
_cell_length_b 14.786442
_cell_length_c 24.286996
_cell_angle_alpha 90.000000
_cell_angle_beta 90.000000
_cell_angle_gamma 90.000000
_cell_volume 5310.081289
_symmetry_space_group_name_H-M "P 4/N C C"
_symmetry_group_IT_number 130
_symmetry_cell_setting 'tetragonal'
loop_
_space_group_symop_operation_xyz
x,y,z
1/2-y,x,z
1/2-x,1/2-y,z
y,1/2-x,z
1/2+x,-y,1/2-z
-x,1/2+y,1/2-z
1/2+y,1/2+x,1/2-z
-y,-x,1/2-z
-x,-y,-z
1/2+y,-x,-z
1/2+x,1/2+y,-z
-y,1/2+x,-z
1/2-x,y,1/2+z
x,1/2-y,1/2+z
1/2-y,1/2-x,1/2+z
y,x,1/2+z
loop_
_atom_site_type_symbol
_atom_site_label
_atom_site_fract_x
_atom_site_fract_y
_atom_site_fract_z
Si Si1 0.165509 0.587309 0.426432
Si Si2 0.311771 0.382239 0.530126
Si Si3 0.780695 0.465344 0.892739
Si Si4 0.382173 0.627939 0.047778
Si Si5 0.602505 0.772539 0.804738
Si Si6 0.699638 0.888496 0.181308
Si Si7 0.900678 0.566931 0.079467
O O1 0.114160 0.646062 0.378301
O O2 0.273006 0.601140 0.425586
O O3 0.127301 0.631657 0.482318
O O4 0.139057 0.482132 0.418345
O O5 0.206239 0.368743 0.544204
O O6 0.338659 0.462538 0.571190
O O7 0.326170 0.403934 0.465994
O O8 0.704896 0.419117 0.928938
O O9 0.730747 0.511155 0.840453
O O10 0.467963 0.563699 0.062014
O O11 0.649511 0.675791 0.816849
O O12 0.570850 0.797586 0.742791
O O13 0.636776 0.802152 0.170647
O O14 0.655044 0.953466 0.136130
#
# Coordination Sequence:
#
# PCOD8315596 Si02
#       7
#    16  16  16  16  16  16  16
#     4  12  25  40  63  91 132 181 219 263 321 401
#     4  11  22  35  56  92 130 163 200 266 333 383
#     4  12  24  37  63  88 131 172 221 260 318 398
#     4  12  24  42  60  89 133 177 217 259 326 399
#     4   9  20  39  66  96 128 166 209 273 343 388
#     4   9  18  37  65  93 125 163 207 264 335 398
#     4  12  23  38  63  95 126 168 221 275 325 391
#
# _framework density 21.091956
#
# number of rings (size 3 to 8) (size 9 to 14) (size 15 to 20)
#    0.000    1.000    2.857    6.000    4.000    2.286 
#    0.000    0.714    0.000    2.571    0.000    6.000 
#    0.000    0.000    0.000    0.000    0.000    0.000 
#
# Total GULP energy -1387465.461029 kJ/mol
# GULP energy per Si atom -12388.084473 kJ/mol
# Density = 2.104395 g / cm^3
# Si number density = 21.091956 Si / 1000 Ang^3
#
#
#
# Elastic Constant Matrix: (Units=GPa)
#
#
# Indices 1 2 3 4 5 6 
#
# 1 71.4935 5.8267 20.5566 0.0000 0.0000 0.0000
# 2 5.8267 71.4935 20.5566 0.0000 0.0000 0.0000
# 3 20.5566 20.5566 77.2623 0.0000 0.0000 0.0000
# 4 0.0000 0.0000 0.0000 22.3531 0.0000 0.0000
# 5 0.0000 0.0000 0.0000 0.0000 22.3531 0.0000
# 6 0.0000 0.0000 0.0000 0.0000 0.0000 30.0213
#
#
#
# Elastic Compliance Matrix: (Units=1/GPa)
#
#
# Indices 1 2 3 4 5 6 
#
# 1 0.015146 -0.000082 -0.004008 0.000000 0.000000 0.000000
# 2 -0.000082 0.015146 -0.004008 0.000000 0.000000 0.000000
# 3 -0.004008 -0.004008 0.015076 0.000000 0.000000 0.000000
# 4 0.000000 0.000000 0.000000 0.044737 0.000000 0.000000
# 5 0.000000 0.000000 0.000000 0.000000 0.044737 0.000000
# 6 0.000000 0.000000 0.000000 0.000000 0.000000 0.033310
#
#
# Mechanical properties :
#
#
# Convention : Reuss Voigt Hill
#
# Bulk Modulus (GPa) = 34.27911 34.90322 34.59116
# Shear Modulus (GPa) = 25.76366 26.49945 26.13155
#
# Velocity S-wave (km/s) = 3.49878 3.54839 3.52367
# Velocity P-wave (km/s) = 5.71047 5.77686 5.74376
#
# Compressibility (1/GPa) = 0.02917229
#
# Stress axis : x y z
#
# Youngs Moduli (GPa) = 66.02219 66.02219 66.33184
#
# Poissons Ratio (x) = 0.00541 0.26586
# Poissons Ratio (y) = 0.00541 0.26586
# Poissons Ratio (z) = 0.26462 0.26462
#
# Static dielectric constant tensor:
#      x y z
#    x 3.890840 0.000000 0.000000 
#    y 0.000000 3.890840 0.000000 
#    z 0.000000 0.000000 3.745770 
# 
# 
# High freq. dielectric constant tensor:
#      x y z
#    x 1.827180 0.000000 0.000000 
#    y 0.000000 1.827180 0.000000 
#    z 0.000000 0.000000 1.799990 
# 
# From -- ./inp_files/4295.got.cif
#   From: 2010.03.12/outbox.cif.g09.slc.cpg/sg130_3_cif.got.tgz:4295.got - 2010.04.06 17:30:23.
