data_PCOD8315252
_publ_section_title
;
Structure prediction by ZEFSAII (Michael W. Deem and Ramdas Pophale) SiO2 
 PCOD8315252
Probable space group: P 4/N M M
;
_chemical_formula_sum "Si O2"
_cell_formula_units_Z 96
_cell_length_a 13.534488
_cell_length_b 13.534488
_cell_length_c 31.116182
_cell_angle_alpha 90.000000
_cell_angle_beta 90.000000
_cell_angle_gamma 90.000000
_cell_volume 5699.935822
_symmetry_space_group_name_H-M "P 4/N M M"
_symmetry_group_IT_number 129
_symmetry_cell_setting 'tetragonal'
loop_
_space_group_symop_operation_xyz
x,y,z
1/2-y,x,z
1/2-x,1/2-y,z
y,1/2-x,z
1/2+x,-y,-z
-x,1/2+y,-z
1/2+y,1/2+x,-z
-y,-x,-z
-x,-y,-z
1/2+y,-x,-z
1/2+x,1/2+y,-z
-y,1/2+x,-z
1/2-x,y,z
x,1/2-y,z
1/2-y,1/2-x,z
y,x,z
loop_
_atom_site_type_symbol
_atom_site_label
_atom_site_fract_x
_atom_site_fract_y
_atom_site_fract_z
Si Si1 0.030545 0.867502 0.960493
Si Si2 0.367370 0.640245 0.707066
Si Si3 0.024409 0.862705 0.466432
Si Si4 0.360257 0.633227 0.198773
Si Si5 0.473863 0.867582 0.115244
Si Si6 0.517246 0.137145 0.628962
O O1 0.010076 0.750000 0.962969
O O2 0.093861 0.892342 0.918191
O O3 0.097712 0.902289 0.000000
O O4 0.925398 0.925398 0.960544
O O5 0.250000 0.642156 0.702711
O O6 0.410278 0.750000 0.703213
O O7 0.398374 0.597758 0.754095
O O8 0.413574 0.580120 0.667164
O O9 0.110214 0.889787 0.500000
O O10 0.992402 0.750000 0.473175
O O11 0.067003 0.878825 0.417979
O O12 0.927815 0.927815 0.475562
O O13 0.250000 0.588464 0.191534
O O14 0.350539 0.750000 0.196785
O O15 0.435423 0.598408 0.162059
O O16 0.488859 0.750000 0.110832
O O17 0.579262 0.920739 0.106816
O O18 0.500565 0.250000 0.639990
O O19 0.409146 0.090855 0.628329
#
# Coordination Sequence:
#
# PCOD8315252 Si02
#       6
#    16  16  16  16  16  16
#     4  10  21  36  54  77 102 128 161 199 239 284
#     4   8  14  25  41  61  84 110 143 183 223 261
#     4   9  18  31  45  63  87 114 146 184 225 270
#     4   8  14  26  44  63  83 111 148 189 230 268
#     4  10  20  32  47  69  96 127 163 200 239 284
#     4   9  17  28  42  61  86 115 144 174 211 259
#
# _framework density 16.842296000000001
#
# number of rings (size 3 to 8) (size 9 to 14) (size 15 to 20)
#    0.000    3.000    0.000    2.000    0.000    4.000 
#    0.000    3.333    0.000    3.000    0.000    4.667 
#    0.000    0.333    0.000    3.667    0.000    6.333 
#
# Total GULP energy -1189510.198281 kJ/mol
# GULP energy per Si atom -12390.731232 kJ/mol
# Density = 1.680396 g / cm^3
# Si number density = 16.842296 Si / 1000 Ang^3
#
#
#
# Elastic Constant Matrix: (Units=GPa)
#
#
# Indices 1 2 3 4 5 6 
#
# 1 75.4899 34.6224 47.4885 0.0000 0.0000 0.0000
# 2 34.6224 75.4911 47.4884 0.0000 0.0000 0.0000
# 3 47.4885 47.4884 139.1119 0.0000 0.0000 0.0000
# 4 0.0000 0.0000 0.0000 24.4320 0.0000 0.0000
# 5 0.0000 0.0000 0.0000 0.0000 24.4319 0.0000
# 6 0.0000 0.0000 0.0000 0.0000 0.0000 11.3038
#
#
#
# Elastic Compliance Matrix: (Units=1/GPa)
#
#
# Indices 1 2 3 4 5 6 
#
# 1 0.018670 -0.005799 -0.004394 0.000000 0.000000 0.000000
# 2 -0.005799 0.018670 -0.004394 0.000000 0.000000 0.000000
# 3 -0.004394 -0.004394 0.010188 0.000000 0.000000 0.000000
# 4 0.000000 0.000000 0.000000 0.040930 0.000000 0.000000
# 5 0.000000 0.000000 0.000000 0.000000 0.040930 0.000000
# 6 0.000000 0.000000 0.000000 0.000000 0.000000 0.088466
#
#
# Mechanical properties :
#
#
# Convention : Reuss Voigt Hill
#
# Bulk Modulus (GPa) = 54.47902 61.03239 57.75570
# Shear Modulus (GPa) = 19.75138 22.73310 21.24224
#
# Velocity S-wave (km/s) = 3.42822 3.67790 3.55525
# Velocity P-wave (km/s) = 6.93448 7.37239 7.15679
#
# Compressibility (1/GPa) = 0.01835569
#
# Stress axis : x y z
#
# Youngs Moduli (GPa) = 53.56061 53.56169 98.15114
#
# Poissons Ratio (x) = 0.31059 0.43128
# Poissons Ratio (y) = 0.31058 0.43126
# Poissons Ratio (z) = 0.23535 0.23534
#
# Static dielectric constant tensor:
#      x y z
#    x 2.957000 0.000000 0.000000 
#    y 0.000000 2.956990 0.000000 
#    z 0.000000 0.000000 3.678430 
# 
# 
# High freq. dielectric constant tensor:
#      x y z
#    x 1.622610 0.000000 0.000000 
#    y 0.000000 1.622610 0.000000 
#    z 0.000000 0.000000 1.674290 
# 
# From -- ./inp_files/7830.got.cif
#   From: 2010.03.12/outbox.cif.g09.slc.cpg/sg129_4_cif.got.tgz:7830.got - 2010.04.06 17:19:44.
