data_PCOD8315914
_publ_section_title
;
Structure prediction by ZEFSAII (Michael W. Deem and Ramdas Pophale) SiO2 
 PCOD8315914
Probable space group: P 42/M M C
;
_chemical_formula_sum "Si O2"
_cell_formula_units_Z 72
_cell_length_a 21.376659
_cell_length_b 21.376659
_cell_length_c 8.599839
_cell_angle_alpha 90.000000
_cell_angle_beta 90.000000
_cell_angle_gamma 90.000000
_cell_volume 3929.795759
_symmetry_space_group_name_H-M "P 42/M M C"
_symmetry_group_IT_number 131
_symmetry_cell_setting 'tetragonal'
loop_
_space_group_symop_operation_xyz
x,y,z
-x,-y,z
-y,x,1/2+z
y,-x,1/2+z
-x,y,-z
x,-y,-z
y,x,1/2-z
-y,-x,1/2-z
-x,-y,-z
x,y,-z
y,-x,1/2-z
-y,x,1/2-z
x,-y,z
-x,y,z
-y,-x,1/2+z
y,x,1/2+z
loop_
_atom_site_type_symbol
_atom_site_label
_atom_site_fract_x
_atom_site_fract_y
_atom_site_fract_z
Si Si1 0.069753 0.500000 0.185696
Si Si2 0.405917 0.500000 0.682150
Si Si3 0.261384 0.165882 0.684893
Si Si4 0.927886 0.166684 0.683529
Si Si5 0.500000 0.270065 0.316971
Si Si6 0.401719 0.832055 0.316003
O O1 0.106748 0.561403 0.245912
O O2 0.000000 0.500000 0.256640
O O3 0.067549 0.500000 0.000000
O O4 0.416217 0.500000 0.500000
O O5 0.437732 0.437732 0.750000
O O6 0.333202 0.500000 0.720578
O O7 0.226405 0.226405 0.750000
O O8 0.259707 0.167349 0.500000
O O9 0.228658 0.102608 0.743512
O O10 0.331788 0.167944 0.752398
O O11 0.895401 0.104600 0.750000
O O12 0.918245 0.168420 0.500000
O O13 0.000000 0.164970 0.732225
O O14 0.500000 0.284832 0.500000
O O15 0.561578 0.230884 0.267754
O O16 0.399082 0.835616 0.500000
#
# Coordination Sequence:
#
# PCOD8315914 Si02
#       6
#     8   8  16  16   8  16
#     4   8  13  24  43  68  98 128 160 199 242 289
#     4  11  22  37  55  77 102 131 168 207 253 303
#     4  10  19  32  50  73 100 131 167 204 244 290
#     4  10  21  36  53  74 100 130 164 203 249 298
#     4   9  17  34  54  74 105 138 169 208 251 295
#     4   8  16  29  47  72 101 133 166 203 247 291
#
# _framework density 18.321563999999999
#
# number of rings (size 3 to 8) (size 9 to 14) (size 15 to 20)
#    0.000    2.667    0.000    5.333    0.000    3.778 
#    0.000    7.778    0.000    0.000    0.000    0.000 
#    0.000    8.889    0.000    0.000    0.000    0.000 
#
# Total GULP energy -892663.290773 kJ/mol
# GULP energy per Si atom -12398.101261 kJ/mol
# Density = 1.827986 g / cm^3
# Si number density = 18.321564 Si / 1000 Ang^3
#
#
#
# Elastic Constant Matrix: (Units=GPa)
#
#
# Indices 1 2 3 4 5 6 
#
# 1 180.3463 88.9969 39.8295 0.0000 0.0000 0.0000
# 2 88.9969 180.3485 39.8274 0.0000 0.0000 0.0000
# 3 39.8295 39.8274 68.7347 0.0000 0.0000 0.0000
# 4 0.0000 0.0000 0.0000 15.8597 0.0000 0.0000
# 5 0.0000 0.0000 0.0000 0.0000 15.8598 0.0000
# 6 0.0000 0.0000 0.0000 0.0000 0.0000 13.7200
#
#
#
# Elastic Compliance Matrix: (Units=1/GPa)
#
#
# Indices 1 2 3 4 5 6 
#
# 1 0.007714 -0.003233 -0.002597 0.000000 0.000000 0.000000
# 2 -0.003233 0.007714 -0.002596 0.000000 0.000000 0.000000
# 3 -0.002597 -0.002596 0.017558 0.000000 0.000000 0.000000
# 4 0.000000 0.000000 0.000000 0.063053 0.000000 0.000000
# 5 0.000000 0.000000 0.000000 0.000000 0.063053 0.000000
# 6 0.000000 0.000000 0.000000 0.000000 0.000000 0.072887
#
#
# Mechanical properties :
#
#
# Convention : Reuss Voigt Hill
#
# Bulk Modulus (GPa) = 61.98261 85.19301 73.58781
# Shear Modulus (GPa) = 19.66907 26.47293 23.07100
#
# Velocity S-wave (km/s) = 3.28006 3.80531 3.55241
# Velocity P-wave (km/s) = 6.94614 8.11831 7.55499
#
# Compressibility (1/GPa) = 0.01613356
#
# Stress axis : x y z
#
# Youngs Moduli (GPa) = 129.63757 129.64151 56.95566
#
# Poissons Ratio (x) = 0.41915 0.14789
# Poissons Ratio (y) = 0.41914 0.14786
# Poissons Ratio (z) = 0.33660 0.33655
#
# Static dielectric constant tensor:
#      x y z
#    x 3.632060 0.000000 0.000000 
#    y 0.000000 3.632050 0.000000 
#    z 0.000000 0.000000 3.104650 
# 
# 
# High freq. dielectric constant tensor:
#      x y z
#    x 1.715770 0.000000 0.000000 
#    y 0.000000 1.715770 0.000000 
#    z 0.000000 0.000000 1.687930 
# 
# From -- ./inp_files/1902.got.cif
#   From: 2010.03.12/outbox.cif.g09.slc.cpg/sg131_1_cif.got.tgz:1902.got - 2010.04.06 17:36:35.
