data_PCOD8315496
_publ_section_title
;
Structure prediction by ZEFSAII (Michael W. Deem and Ramdas Pophale) SiO2 
 PCOD8315496
Probable space group: P 4/N C C
;
_chemical_formula_sum "Si O2"
_cell_formula_units_Z 96
_cell_length_a 14.741790
_cell_length_b 14.741790
_cell_length_c 21.872070
_cell_angle_alpha 90.000000
_cell_angle_beta 90.000000
_cell_angle_gamma 90.000000
_cell_volume 4753.246398
_symmetry_space_group_name_H-M "P 4/N C C"
_symmetry_group_IT_number 130
_symmetry_cell_setting 'tetragonal'
loop_
_space_group_symop_operation_xyz
x,y,z
1/2-y,x,z
1/2-x,1/2-y,z
y,1/2-x,z
1/2+x,-y,1/2-z
-x,1/2+y,1/2-z
1/2+y,1/2+x,1/2-z
-y,-x,1/2-z
-x,-y,-z
1/2+y,-x,-z
1/2+x,1/2+y,-z
-y,1/2+x,-z
1/2-x,y,1/2+z
x,1/2-y,1/2+z
1/2-y,1/2-x,1/2+z
y,x,1/2+z
loop_
_atom_site_type_symbol
_atom_site_label
_atom_site_fract_x
_atom_site_fract_y
_atom_site_fract_z
Si Si1 0.693784 0.384119 0.512955
Si Si2 0.956475 0.638611 0.855272
Si Si3 0.341766 0.360477 0.449892
Si Si4 0.293266 0.106232 0.773025
Si Si5 0.629322 0.020197 0.126804
Si Si6 0.684574 0.952384 0.930125
O O1 0.797128 0.367954 0.495639
O O2 0.690676 0.415212 0.583756
O O3 0.653530 0.458529 0.466849
O O4 0.931374 0.693640 0.794908
O O5 0.877509 0.566497 0.871205
O O6 0.965156 0.711559 0.909716
O O7 0.047003 0.579418 0.846822
O O8 0.237238 0.376554 0.427948
O O9 0.403571 0.436160 0.416436
O O10 0.335450 0.368803 0.523357
O O11 0.361825 0.190084 0.783734
O O12 0.314073 0.021803 0.817354
#
# Coordination Sequence:
#
# PCOD8315496 Si02
#       6
#    16  16  16  16  16  16
#     4  10  22  42  65  93 131 172 206 254 315 382
#     4  12  23  41  62  92 127 169 217 267 310 381
#     4  10  20  35  59  92 130 162 201 265 331 383
#     4  11  24  43  68  94 127 169 209 267 331 382
#     4  11  24  39  63  95 129 165 214 260 317 383
#     4  11  22  36  63  93 122 162 218 260 318 371
#
# _framework density 20.196722999999999
#
# number of rings (size 3 to 8) (size 9 to 14) (size 15 to 20)
#    0.000    1.167    5.000    1.500    0.000    8.333 
#    0.000    0.000    0.000    0.000    0.000    0.000 
#    0.000    0.000    0.000    0.000    0.000    0.000 
#
# Total GULP energy -1189833.497552 kJ/mol
# GULP energy per Si atom -12394.098933 kJ/mol
# Density = 2.015075 g / cm^3
# Si number density = 20.196723 Si / 1000 Ang^3
#
#
#
# Elastic Constant Matrix: (Units=GPa)
#
#
# Indices 1 2 3 4 5 6 
#
# 1 68.1895 19.2397 21.4102 0.0000 0.0000 0.0000
# 2 19.2397 68.1895 21.4102 0.0000 0.0000 0.0000
# 3 21.4102 21.4102 86.8413 0.0000 0.0000 0.0000
# 4 0.0000 0.0000 0.0000 32.8316 0.0000 0.0000
# 5 0.0000 0.0000 0.0000 0.0000 32.8316 0.0000
# 6 0.0000 0.0000 0.0000 0.0000 0.0000 22.3270
#
#
#
# Elastic Compliance Matrix: (Units=1/GPa)
#
#
# Indices 1 2 3 4 5 6 
#
# 1 0.016719 -0.003710 -0.003207 0.000000 0.000000 0.000000
# 2 -0.003710 0.016719 -0.003207 0.000000 0.000000 0.000000
# 3 -0.003207 -0.003207 0.013097 0.000000 0.000000 0.000000
# 4 0.000000 0.000000 0.000000 0.030458 0.000000 0.000000
# 5 0.000000 0.000000 0.000000 0.000000 0.030458 0.000000
# 6 0.000000 0.000000 0.000000 0.000000 0.000000 0.044789
#
#
# Mechanical properties :
#
#
# Convention : Reuss Voigt Hill
#
# Bulk Modulus (GPa) = 38.04430 38.59338 38.31884
# Shear Modulus (GPa) = 27.58601 28.34203 27.96402
#
# Velocity S-wave (km/s) = 3.69977 3.75013 3.72503
# Velocity P-wave (km/s) = 6.09334 6.15642 6.12496
#
# Compressibility (1/GPa) = 0.02628515
#
# Stress axis : x y z
#
# Youngs Moduli (GPa) = 59.81264 59.81264 76.35519
#
# Poissons Ratio (x) = 0.22192 0.24489
# Poissons Ratio (y) = 0.22192 0.24489
# Poissons Ratio (z) = 0.19183 0.19183
#
# Static dielectric constant tensor:
#      x y z
#    x 3.572120 0.000000 0.000000 
#    y 0.000000 3.572120 0.000000 
#    z 0.000000 0.000000 3.660840 
# 
# 
# High freq. dielectric constant tensor:
#      x y z
#    x 1.782050 0.000000 0.000000 
#    y 0.000000 1.782050 0.000000 
#    z 0.000000 0.000000 1.792930 
# 
# From -- ./inp_files/3759.got.cif
#   From: 2010.03.12/outbox.cif.g09.slc.cpg/sg130_2_cif.got.tgz:3759.got - 2010.04.06 17:30:23.
