data_PCOD8315125
_publ_section_title
;
Structure prediction by ZEFSAII (Michael W. Deem and Ramdas Pophale) SiO2 
 PCOD8315125
Probable space group: P 4/N M M
;
_chemical_formula_sum "Si O2"
_cell_formula_units_Z 112
_cell_length_a 17.944045
_cell_length_b 17.944045
_cell_length_c 21.262605
_cell_angle_alpha 90.000000
_cell_angle_beta 90.000000
_cell_angle_gamma 90.000000
_cell_volume 6846.319626
_symmetry_space_group_name_H-M "P 4/N M M"
_symmetry_group_IT_number 129
_symmetry_cell_setting 'tetragonal'
loop_
_space_group_symop_operation_xyz
x,y,z
1/2-y,x,z
1/2-x,1/2-y,z
y,1/2-x,z
1/2+x,-y,-z
-x,1/2+y,-z
1/2+y,1/2+x,-z
-y,-x,-z
-x,-y,-z
1/2+y,-x,-z
1/2+x,1/2+y,-z
-y,1/2+x,-z
1/2-x,y,z
x,1/2-y,z
1/2-y,1/2-x,z
y,x,z
loop_
_atom_site_type_symbol
_atom_site_label
_atom_site_fract_x
_atom_site_fract_y
_atom_site_fract_z
Si Si1 0.937834 0.437465 0.791011
Si Si2 0.062608 0.665285 0.538486
Si Si3 0.834769 0.546002 0.428021
Si Si4 0.959415 0.834820 0.133185
Si Si5 0.496556 0.880011 0.999223
Si Si6 0.665583 0.540840 0.866877
Si Si7 0.435811 0.558012 0.650003
O O1 0.866471 0.472586 0.825588
O O2 0.914877 0.415334 0.720091
O O3 0.002631 0.497370 0.790359
O O4 0.970539 0.365306 0.826592
O O5 0.130483 0.630483 0.500000
O O6 0.083554 0.750000 0.550373
O O7 0.050401 0.629057 0.606279
O O8 0.987751 0.655561 0.497665
O O9 0.750000 0.559790 0.409730
O O10 0.874794 0.625207 0.426681
O O11 0.867935 0.491013 0.375829
O O12 0.940968 0.750000 0.154057
O O13 0.885600 0.885600 0.142760
O O14 0.985527 0.832521 0.060960
O O15 0.549130 0.950871 0.995591
O O16 0.411580 0.911580 0.000000
O O17 0.511776 0.829855 0.938320
O O18 0.750000 0.559483 0.844902
O O19 0.615099 0.615099 0.859421
O O20 0.511763 0.511763 0.649448
#
# Coordination Sequence:
#
# PCOD8315125 Si02
#       7
#    16  16  16  16  16  16  16
#     4   9  18  32  48  68  92 124 164 198 229 275
#     4   9  17  29  46  68  92 117 148 185 228 274
#     4   9  17  29  46  69  96 124 153 186 226 273
#     4  10  19  31  49  72  97 125 157 195 239 285
#     4   9  15  28  49  70  93 121 159 197 231 276
#     4  10  19  31  49  73  99 125 156 194 236 284
#     4   9  17  30  48  67  90 119 155 196 231 262
#
# _framework density 16.359155000000001
#
# number of rings (size 3 to 8) (size 9 to 14) (size 15 to 20)
#    0.000    2.714    1.429    0.857    0.000    3.429 
#    0.000    0.000    0.000    3.000    0.000    7.000 
#    0.000    3.429    0.000    0.000    0.000    0.000 
#
# Total GULP energy -1388443.461501 kJ/mol
# GULP energy per Si atom -12396.816621 kJ/mol
# Density = 1.632192 g / cm^3
# Si number density = 16.359155 Si / 1000 Ang^3
#
#
#
# Elastic Constant Matrix: (Units=GPa)
#
#
# Indices 1 2 3 4 5 6 
#
# 1 91.8692 41.6577 39.9771 0.0000 0.0000 0.0000
# 2 41.6577 91.8692 39.9771 0.0000 0.0000 0.0000
# 3 39.9771 39.9771 126.8446 0.0000 0.0000 0.0000
# 4 0.0000 0.0000 0.0000 13.9934 0.0000 0.0000
# 5 0.0000 0.0000 0.0000 0.0000 13.9934 0.0000
# 6 0.0000 0.0000 0.0000 0.0000 0.0000 15.2313
#
#
#
# Elastic Compliance Matrix: (Units=1/GPa)
#
#
# Indices 1 2 3 4 5 6 
#
# 1 0.014573 -0.005342 -0.002909 0.000000 0.000000 0.000000
# 2 -0.005342 0.014573 -0.002909 0.000000 0.000000 0.000000
# 3 -0.002909 -0.002909 0.009718 0.000000 0.000000 0.000000
# 4 0.000000 0.000000 0.000000 0.071462 0.000000 0.000000
# 5 0.000000 0.000000 0.000000 0.000000 0.071462 0.000000
# 6 0.000000 0.000000 0.000000 0.000000 0.000000 0.065654
#
#
# Mechanical properties :
#
#
# Convention : Reuss Voigt Hill
#
# Bulk Modulus (GPa) = 60.45035 61.53409 60.99222
# Shear Modulus (GPa) = 18.16336 21.24170 19.70253
#
# Velocity S-wave (km/s) = 3.33571 3.60732 3.47417
# Velocity P-wave (km/s) = 7.20196 7.41933 7.31145
#
# Compressibility (1/GPa) = 0.01654250
#
# Stress axis : x y z
#
# Youngs Moduli (GPa) = 68.61779 68.61779 102.90678
#
# Poissons Ratio (x) = 0.36657 0.29939
# Poissons Ratio (y) = 0.36657 0.29939
# Poissons Ratio (z) = 0.19963 0.19963
#
# Static dielectric constant tensor:
#      x y z
#    x 2.925650 0.000000 0.000000 
#    y 0.000000 2.925650 0.000000 
#    z 0.000000 0.000000 3.333530 
# 
# 
# High freq. dielectric constant tensor:
#      x y z
#    x 1.612830 0.000000 0.000000 
#    y 0.000000 1.612830 0.000000 
#    z 0.000000 0.000000 1.633880 
# 
# From -- ./inp_files/6661.got.cif
#   From: 2010.03.12/outbox.cif.g09.slc.cpg/sg129_4_cif.got.tgz:6661.got - 2010.04.06 17:19:44.
