data_PCOD8315389
_publ_section_title
;
Structure prediction by ZEFSAII (Michael W. Deem and Ramdas Pophale) SiO2 
 PCOD8315389
Probable space group: P 4/N M M
;
_chemical_formula_sum "Si O2"
_cell_formula_units_Z 96
_cell_length_a 21.667839
_cell_length_b 21.667839
_cell_length_c 12.680108
_cell_angle_alpha 90.000000
_cell_angle_beta 90.000000
_cell_angle_gamma 90.000000
_cell_volume 5953.250437
_symmetry_space_group_name_H-M "P 4/N M M"
_symmetry_group_IT_number 129
_symmetry_cell_setting 'tetragonal'
loop_
_space_group_symop_operation_xyz
x,y,z
1/2-y,x,z
1/2-x,1/2-y,z
y,1/2-x,z
1/2+x,-y,-z
-x,1/2+y,-z
1/2+y,1/2+x,-z
-y,-x,-z
-x,-y,-z
1/2+y,-x,-z
1/2+x,1/2+y,-z
-y,1/2+x,-z
1/2-x,y,z
x,1/2-y,z
1/2-y,1/2-x,z
y,x,z
loop_
_atom_site_type_symbol
_atom_site_label
_atom_site_fract_x
_atom_site_fract_y
_atom_site_fract_z
Si Si1 0.908064 0.323635 0.061221
Si Si2 0.583033 0.818859 0.227424
Si Si3 0.086188 0.906637 0.752860
Si Si4 0.027874 0.681026 0.386261
Si Si5 0.907468 0.496891 0.562858
Si Si6 0.507077 0.605281 0.073554
O O1 0.915345 0.250000 0.048399
O O2 0.902046 0.342672 0.184031
O O3 0.846454 0.346454 0.000000
O O4 0.967456 0.360766 0.016338
O O5 0.605729 0.750000 0.204997
O O6 0.641619 0.858382 0.262668
O O7 0.534620 0.821942 0.321092
O O8 0.553201 0.844121 0.120224
O O9 0.142763 0.918477 0.672488
O O10 0.024309 0.900559 0.684015
O O11 0.079129 0.962803 0.834795
O O12 0.053550 0.750000 0.396945
O O13 0.010375 0.657243 0.502769
O O14 0.956377 0.456377 0.500000
O O15 0.932548 0.567453 0.563444
O O16 0.547393 0.547393 0.028627
#
# Coordination Sequence:
#
# PCOD8315389 Si02
#       6
#    16  16  16  16  16  16
#     4  10  21  34  48  67  92 122 157 194 230 271
#     4   9  16  26  41  61  86 115 145 177 214 259
#     4   9  18  29  45  67  90 114 144 183 223 265
#     4   9  17  29  44  62  85 115 147 178 216 260
#     4   9  16  27  44  66  89 111 137 173 219 270
#     4   9  17  30  48  68  90 116 146 183 230 279
#
# _framework density 16.125644999999999
#
# number of rings (size 3 to 8) (size 9 to 14) (size 15 to 20)
#    0.000    2.833    0.000    1.500    0.000   12.667 
#    0.000    0.000    0.000    0.000    0.000    0.000 
#    0.000    0.000    0.000    1.333    0.000    0.333 
#
# Total GULP energy -1189842.973457 kJ/mol
# GULP energy per Si atom -12394.197640 kJ/mol
# Density = 1.608894 g / cm^3
# Si number density = 16.125645 Si / 1000 Ang^3
#
#
#
# Elastic Constant Matrix: (Units=GPa)
#
#
# Indices 1 2 3 4 5 6 
#
# 1 77.4820 47.5280 37.0417 0.0000 0.0000 0.0000
# 2 47.5280 77.4820 37.0417 0.0000 0.0000 0.0000
# 3 37.0417 37.0417 84.7817 0.0000 0.0000 0.0000
# 4 0.0000 0.0000 0.0000 16.6956 0.0000 0.0000
# 5 0.0000 0.0000 0.0000 0.0000 16.6956 0.0000
# 6 0.0000 0.0000 0.0000 0.0000 0.0000 15.9855
#
#
#
# Elastic Compliance Matrix: (Units=1/GPa)
#
#
# Indices 1 2 3 4 5 6 
#
# 1 0.022089 -0.011295 -0.004716 0.000000 0.000000 0.000000
# 2 -0.011295 0.022089 -0.004716 0.000000 0.000000 0.000000
# 3 -0.004716 -0.004716 0.015916 0.000000 0.000000 0.000000
# 4 0.000000 0.000000 0.000000 0.059896 0.000000 0.000000
# 5 0.000000 0.000000 0.000000 0.000000 0.059896 0.000000
# 6 0.000000 0.000000 0.000000 0.000000 0.000000 0.062557
#
#
# Mechanical properties :
#
#
# Convention : Reuss Voigt Hill
#
# Bulk Modulus (GPa) = 53.64778 53.66319 53.65548
# Shear Modulus (GPa) = 17.23477 17.75096 17.49286
#
# Velocity S-wave (km/s) = 3.27277 3.32142 3.29718
# Velocity P-wave (km/s) = 6.90088 6.93249 6.91671
#
# Compressibility (1/GPa) = 0.01864010
#
# Stress axis : x y z
#
# Youngs Moduli (GPa) = 45.27068 45.27068 62.83002
#
# Poissons Ratio (x) = 0.51134 0.29631
# Poissons Ratio (y) = 0.51134 0.29631
# Poissons Ratio (z) = 0.21350 0.21350
#
# Static dielectric constant tensor:
#      x y z
#    x 3.049410 0.000000 0.000000 
#    y 0.000000 3.049410 0.000000 
#    z 0.000000 0.000000 3.093070 
# 
# 
# High freq. dielectric constant tensor:
#      x y z
#    x 1.605340 0.000000 0.000000 
#    y 0.000000 1.605340 0.000000 
#    z 0.000000 0.000000 1.614060 
# 
# From -- ./inp_files/3879.got.cif
#   From: 2010.03.12/outbox.cif.g09.slc.cpg/sg129_2_cif.got.tgz:3879.got - 2010.04.06 17:19:44.
