data_PCOD8315315
_publ_section_title
;
Structure prediction by ZEFSAII (Michael W. Deem and Ramdas Pophale) SiO2 
 PCOD8315315
Probable space group: P 4/N M M
;
_chemical_formula_sum "Si O2"
_cell_formula_units_Z 72
_cell_length_a 13.355719
_cell_length_b 13.355719
_cell_length_c 23.114132
_cell_angle_alpha 90.000000
_cell_angle_beta 90.000000
_cell_angle_gamma 90.000000
_cell_volume 4122.988612
_symmetry_space_group_name_H-M "P 4/N M M"
_symmetry_group_IT_number 129
_symmetry_cell_setting 'tetragonal'
loop_
_space_group_symop_operation_xyz
x,y,z
1/2-y,x,z
1/2-x,1/2-y,z
y,1/2-x,z
1/2+x,-y,-z
-x,1/2+y,-z
1/2+y,1/2+x,-z
-y,-x,-z
-x,-y,-z
1/2+y,-x,-z
1/2+x,1/2+y,-z
-y,1/2+x,-z
1/2-x,y,z
x,1/2-y,z
1/2-y,1/2-x,z
y,x,z
loop_
_atom_site_type_symbol
_atom_site_label
_atom_site_fract_x
_atom_site_fract_y
_atom_site_fract_z
Si Si1 0.865051 0.134950 0.000000
Si Si2 0.131363 0.861729 0.666880
Si Si3 0.366853 0.971871 0.117374
Si Si4 0.529422 0.367405 0.550839
Si Si5 0.971193 0.133060 0.782367
O O1 0.931077 0.102655 0.054529
O O2 0.750000 0.116374 0.016549
O O3 0.250000 0.853735 0.667350
O O4 0.084721 0.750000 0.665954
O O5 0.095332 0.921772 0.610636
O O6 0.093988 0.919028 0.723844
O O7 0.250000 0.994743 0.121824
O O8 0.396444 0.888913 0.164701
O O9 0.425065 0.074936 0.129377
O O10 0.607532 0.392469 0.500000
O O11 0.505665 0.250000 0.551257
O O12 0.425071 0.425071 0.541097
O O13 0.995975 0.250000 0.779843
O O14 0.075782 0.075782 0.791072
#
# Coordination Sequence:
#
# PCOD8315315 Si02
#       5
#     8  16  16  16  16
#     4   9  17  30  50  74  97 123 158 200 245 293
#     4   9  17  30  49  71  95 125 161 200 240 283
#     4  10  20  33  50  72  98 129 165 204 245 290
#     4  10  20  33  50  73 100 131 168 208 251 299
#     4  10  20  33  50  73 100 130 165 204 247 295
#
# _framework density 17.463059999999999
#
# number of rings (size 3 to 8) (size 9 to 14) (size 15 to 20)
#    0.000    2.333    0.000    3.000    0.000    4.000 
#    0.000    0.000    0.000    4.000    0.000    3.111 
#    0.000   16.000    0.000    0.000    0.000    0.000 
#
# Total GULP energy -892962.735001 kJ/mol
# GULP energy per Si atom -12402.260208 kJ/mol
# Density = 1.742331 g / cm^3
# Si number density = 17.463060 Si / 1000 Ang^3
#
#
#
# Elastic Constant Matrix: (Units=GPa)
#
#
# Indices 1 2 3 4 5 6 
#
# 1 82.7109 35.9237 39.1562 0.0000 0.0000 0.0000
# 2 35.9237 82.7116 39.1565 0.0000 0.0000 0.0000
# 3 39.1562 39.1565 126.5503 0.0000 0.0000 0.0000
# 4 0.0000 0.0000 0.0000 27.0708 0.0000 0.0000
# 5 0.0000 0.0000 0.0000 0.0000 27.0706 0.0000
# 6 0.0000 0.0000 0.0000 0.0000 0.0000 16.4036
#
#
#
# Elastic Compliance Matrix: (Units=1/GPa)
#
#
# Indices 1 2 3 4 5 6 
#
# 1 0.015983 -0.005390 -0.003278 0.000000 0.000000 0.000000
# 2 -0.005390 0.015983 -0.003278 0.000000 0.000000 0.000000
# 3 -0.003278 -0.003278 0.009930 0.000000 0.000000 0.000000
# 4 0.000000 0.000000 0.000000 0.036940 0.000000 0.000000
# 5 0.000000 0.000000 0.000000 0.000000 0.036940 0.000000
# 6 0.000000 0.000000 0.000000 0.000000 0.000000 0.060962
#
#
# Mechanical properties :
#
#
# Convention : Reuss Voigt Hill
#
# Bulk Modulus (GPa) = 55.53827 57.82727 56.68277
# Shear Modulus (GPa) = 24.19765 25.95809 25.07787
#
# Velocity S-wave (km/s) = 3.72647 3.85964 3.79364
# Velocity P-wave (km/s) = 7.09843 7.28343 7.19153
#
# Compressibility (1/GPa) = 0.01800560
#
# Stress axis : x y z
#
# Youngs Moduli (GPa) = 62.56632 62.56676 100.70264
#
# Poissons Ratio (x) = 0.33725 0.33006
# Poissons Ratio (y) = 0.33725 0.33006
# Poissons Ratio (z) = 0.20506 0.20507
#
# Static dielectric constant tensor:
#      x y z
#    x 3.057200 0.000000 0.000000 
#    y 0.000000 3.057190 0.000000 
#    z 0.000000 0.000000 3.472760 
# 
# 
# High freq. dielectric constant tensor:
#      x y z
#    x 1.663300 0.000000 0.000000 
#    y 0.000000 1.663300 0.000000 
#    z 0.000000 0.000000 1.694140 
# 
# From -- ./inp_files/7393.got.cif
#   From: 2010.03.12/outbox.cif.g09.slc.cpg/sg129_4_cif.got.tgz:7393.got - 2010.04.06 17:19:44.
