data_PCOD8315645
_publ_section_title
;
Structure prediction by ZEFSAII (Michael W. Deem and Ramdas Pophale) SiO2 
 PCOD8315645
Probable space group: P 42/M M C
;
_chemical_formula_sum "Si O2"
_cell_formula_units_Z 96
_cell_length_a 17.193008
_cell_length_b 17.193008
_cell_length_c 24.585037
_cell_angle_alpha 90.000000
_cell_angle_beta 90.000000
_cell_angle_gamma 90.000000
_cell_volume 7267.325237
_symmetry_space_group_name_H-M "P 42/M M C"
_symmetry_group_IT_number 131
_symmetry_cell_setting 'tetragonal'
loop_
_space_group_symop_operation_xyz
x,y,z
-x,-y,z
-y,x,1/2+z
y,-x,1/2+z
-x,y,-z
x,-y,-z
y,x,1/2-z
-y,-x,1/2-z
-x,-y,-z
x,y,-z
y,-x,1/2-z
-y,x,1/2-z
x,-y,z
-x,y,z
-y,-x,1/2+z
y,x,1/2+z
loop_
_atom_site_type_symbol
_atom_site_label
_atom_site_fract_x
_atom_site_fract_y
_atom_site_fract_z
Si Si1 0.208857 0.589808 0.938189
Si Si2 0.691546 0.359897 0.562963
Si Si3 0.500000 0.586707 0.935380
Si Si4 0.843945 0.592319 0.379198
Si Si5 0.407813 0.000000 0.060828
Si Si6 0.086409 0.407796 0.149041
Si Si7 0.407946 0.086674 0.231212
O O1 0.232165 0.500000 0.925417
O O2 0.280261 0.646557 0.928283
O O3 0.142627 0.622605 0.898222
O O4 0.178425 0.596149 0.000000
O O5 0.712661 0.374790 0.500000
O O6 0.633298 0.425253 0.585486
O O7 0.771056 0.360834 0.596945
O O8 0.500000 0.500000 0.909924
O O9 0.500000 0.579966 0.000000
O O10 0.830467 0.500000 0.386870
O O11 0.922132 0.620943 0.409248
O O12 0.853270 0.617535 0.315906
O O13 0.500000 0.000000 0.060351
O O14 0.373566 0.000000 0.000000
O O15 0.083159 0.500000 0.146585
O O16 0.116392 0.380907 0.209010
O O17 0.000000 0.374005 0.138739
O O18 0.500000 0.079560 0.229408
O O19 0.373871 0.000000 0.220277
#
# Coordination Sequence:
#
# PCOD8315645 Si02
#       7
#    16  16   8  16   8  16  16
#     4   9  17  28  40  55  76  99 125 161 206 241
#     4  10  18  26  36  52  75 102 134 171 202 230
#     4   9  16  26  38  49  65  97 141 180 207 228
#     4  10  16  24  36  53  75  99 131 162 193 233
#     4   9  16  22  32  50  74 100 122 154 196 234
#     4   8  14  25  42  60  75  91 115 149 192 245
#     4   8  13  23  38  55  74  95 120 152 188 230
#
# _framework density 13.209813
#
# number of rings (size 3 to 8) (size 9 to 14) (size 15 to 20)
#    0.000    3.000    1.667    2.000    0.000    3.000 
#    0.000    2.500    0.000    0.000    0.000    0.000 
#    0.000    0.000    0.000    0.750    0.000    8.333 
#
# Total GULP energy -1189646.141857 kJ/mol
# GULP energy per Si atom -12392.147311 kJ/mol
# Density = 1.317975 g / cm^3
# Si number density = 13.209813 Si / 1000 Ang^3
#
#
#
# Elastic Constant Matrix: (Units=GPa)
#
#
# Indices 1 2 3 4 5 6 
#
# 1 66.7281 26.1417 46.5206 0.0000 0.0000 0.0000
# 2 26.1417 66.7281 46.5206 0.0000 0.0000 0.0000
# 3 46.5206 46.5206 101.7660 0.0000 0.0000 0.0000
# 4 0.0000 0.0000 0.0000 15.3508 0.0000 0.0000
# 5 0.0000 0.0000 0.0000 0.0000 15.3508 0.0000
# 6 0.0000 0.0000 0.0000 0.0000 0.0000 2.2505
#
#
#
# Elastic Compliance Matrix: (Units=1/GPa)
#
#
# Indices 1 2 3 4 5 6 
#
# 1 0.022252 -0.002386 -0.009081 0.000000 0.000000 0.000000
# 2 -0.002386 0.022252 -0.009081 0.000000 0.000000 0.000000
# 3 -0.009081 -0.009081 0.018129 0.000000 0.000000 0.000000
# 4 0.000000 0.000000 0.000000 0.065143 0.000000 0.000000
# 5 0.000000 0.000000 0.000000 0.000000 0.065143 0.000000
# 6 0.000000 0.000000 0.000000 0.000000 0.000000 0.444346
#
#
# Mechanical properties :
#
#
# Convention : Reuss Voigt Hill
#
# Bulk Modulus (GPa) = 46.43479 52.62089 49.52784
# Shear Modulus (GPa) = 7.29349 14.32638 10.80993
#
# Velocity S-wave (km/s) = 2.35229 3.29679 2.86374
# Velocity P-wave (km/s) = 6.52731 7.37651 6.96486
#
# Compressibility (1/GPa) = 0.02153558
#
# Stress axis : x y z
#
# Youngs Moduli (GPa) = 44.93913 44.93913 55.15962
#
# Poissons Ratio (x) = 0.10725 0.50092
# Poissons Ratio (y) = 0.10725 0.50092
# Poissons Ratio (z) = 0.40811 0.40811
#
# Static dielectric constant tensor:
#      x y z
#    x 2.464370 0.000000 0.000000 
#    y 0.000000 2.464370 0.000000 
#    z 0.000000 0.000000 2.892640 
# 
# 
# High freq. dielectric constant tensor:
#      x y z
#    x 1.470390 0.000000 0.000000 
#    y 0.000000 1.470390 0.000000 
#    z 0.000000 0.000000 1.506130 
# 
# From -- ./inp_files/11401.got.cif
#   From: 2010.03.12/outbox.cif.g09.slc.cpg/sg131_6_cif.got.tgz:11401.got - 2010.04.06 17:36:35.
