data_PCOD8315589
_publ_section_title
;
Structure prediction by ZEFSAII (Michael W. Deem and Ramdas Pophale) SiO2 
 PCOD8315589
Probable space group: P 4/N C C
;
_chemical_formula_sum "Si O2"
_cell_formula_units_Z 112
_cell_length_a 14.834767
_cell_length_b 14.834767
_cell_length_c 24.584277
_cell_angle_alpha 90.000000
_cell_angle_beta 90.000000
_cell_angle_gamma 90.000000
_cell_volume 5410.269508
_symmetry_space_group_name_H-M "P 4/N C C"
_symmetry_group_IT_number 130
_symmetry_cell_setting 'tetragonal'
loop_
_space_group_symop_operation_xyz
x,y,z
1/2-y,x,z
1/2-x,1/2-y,z
y,1/2-x,z
1/2+x,-y,1/2-z
-x,1/2+y,1/2-z
1/2+y,1/2+x,1/2-z
-y,-x,1/2-z
-x,-y,-z
1/2+y,-x,-z
1/2+x,1/2+y,-z
-y,1/2+x,-z
1/2-x,y,1/2+z
x,1/2-y,1/2+z
1/2-y,1/2-x,1/2+z
y,x,1/2+z
loop_
_atom_site_type_symbol
_atom_site_label
_atom_site_fract_x
_atom_site_fract_y
_atom_site_fract_z
Si Si1 0.497797 0.057235 0.054763
Si Si2 0.618391 0.687578 0.776437
Si Si3 0.463191 0.337026 0.905278
Si Si4 0.226623 0.968197 0.991722
Si Si5 0.454123 0.335007 0.341613
Si Si6 0.336022 0.811477 0.427648
Si Si7 0.112398 0.969200 0.645246
O O1 0.589767 0.043949 0.089595
O O2 0.414792 0.030164 0.093054
O O3 0.487570 0.160657 0.035947
O O4 0.500000 0.000000 0.000000
O O5 0.707668 0.631441 0.791935
O O6 0.603105 0.675816 0.712656
O O7 0.532270 0.649938 0.807866
O O8 0.454739 0.290791 0.965489
O O9 0.489724 0.263662 0.859284
O O10 0.370402 0.387404 0.889792
O O11 0.182131 0.918595 0.938716
O O12 0.280622 0.885773 0.017868
O O13 0.531647 0.408541 0.330838
O O14 0.250000 0.750000 0.414764
O O15 0.402002 0.808343 0.375304
#
# Coordination Sequence:
#
# PCOD8315589 Si02
#       7
#    16  16  16  16  16  16  16
#     4  11  21  39  60  94 138 174 212 265 323 403
#     4  11  25  48  70  91 123 171 229 286 348 400
#     4  11  21  36  65  97 126 174 218 274 328 382
#     4  12  19  35  59  95 135 170 215 251 313 395
#     4  11  22  42  70  95 126 162 226 286 331 394
#     4  12  21  35  61  94 131 178 212 253 314 400
#     4  11  25  41  66  98 132 172 218 277 340 399
#
# _framework density 20.701371000000002
#
# number of rings (size 3 to 8) (size 9 to 14) (size 15 to 20)
#    0.000    0.714    7.143    1.286    2.000    0.286 
#    0.000    0.000    0.000    0.857    0.000    0.000 
#    0.000    0.000    0.000    0.000    0.000    0.000 
#
# Total GULP energy -1388422.132128 kJ/mol
# GULP energy per Si atom -12396.626180 kJ/mol
# Density = 2.065425 g / cm^3
# Si number density = 20.701371 Si / 1000 Ang^3
#
#
#
# Elastic Constant Matrix: (Units=GPa)
#
#
# Indices 1 2 3 4 5 6 
#
# 1 98.8160 50.6484 44.8607 0.0000 0.0000 0.0000
# 2 50.6484 98.8160 44.8607 0.0000 0.0000 0.0000
# 3 44.8607 44.8607 78.8868 0.0000 0.0000 0.0000
# 4 0.0000 0.0000 0.0000 37.5610 0.0000 0.0000
# 5 0.0000 0.0000 0.0000 0.0000 37.5610 0.0000
# 6 0.0000 0.0000 0.0000 0.0000 0.0000 27.1172
#
#
#
# Elastic Compliance Matrix: (Units=1/GPa)
#
#
# Indices 1 2 3 4 5 6 
#
# 1 0.015460 -0.005301 -0.005777 0.000000 0.000000 0.000000
# 2 -0.005301 0.015460 -0.005777 0.000000 0.000000 0.000000
# 3 -0.005777 -0.005777 0.019246 0.000000 0.000000 0.000000
# 4 0.000000 0.000000 0.000000 0.026623 0.000000 0.000000
# 5 0.000000 0.000000 0.000000 0.000000 0.026623 0.000000
# 6 0.000000 0.000000 0.000000 0.000000 0.000000 0.036877
#
#
# Mechanical properties :
#
#
# Convention : Reuss Voigt Hill
#
# Bulk Modulus (GPa) = 60.76755 61.91758 61.34257
# Shear Modulus (GPa) = 27.85763 29.52444 28.69104
#
# Velocity S-wave (km/s) = 3.67234 3.78061 3.72687
# Velocity P-wave (km/s) = 6.88473 7.00230 6.94377
#
# Compressibility (1/GPa) = 0.01645615
#
# Stress axis : x y z
#
# Youngs Moduli (GPa) = 64.68499 64.68499 51.95755
#
# Poissons Ratio (x) = 0.34291 0.30014
# Poissons Ratio (y) = 0.34291 0.30014
# Poissons Ratio (z) = 0.37367 0.37367
#
# Static dielectric constant tensor:
#      x y z
#    x 3.914110 0.000000 0.000000 
#    y 0.000000 3.914110 0.000000 
#    z 0.000000 0.000000 3.615640 
# 
# 
# High freq. dielectric constant tensor:
#      x y z
#    x 1.807710 0.000000 0.000000 
#    y 0.000000 1.807710 0.000000 
#    z 0.000000 0.000000 1.795770 
# 
# From -- ./inp_files/4294.got.cif
#   From: 2010.03.12/outbox.cif.g09.slc.cpg/sg130_3_cif.got.tgz:4294.got - 2010.04.06 17:30:23.
