data_PCOD8315669
_publ_section_title
;
Structure prediction by ZEFSAII (Michael W. Deem and Ramdas Pophale) SiO2 
 PCOD8315669
Probable space group: P 42/M M C
;
_chemical_formula_sum "Si O2"
_cell_formula_units_Z 96
_cell_length_a 13.642839
_cell_length_b 13.642839
_cell_length_c 33.904291
_cell_angle_alpha 90.000000
_cell_angle_beta 90.000000
_cell_angle_gamma 90.000000
_cell_volume 6310.505869
_symmetry_space_group_name_H-M "P 42/M M C"
_symmetry_group_IT_number 131
_symmetry_cell_setting 'tetragonal'
loop_
_space_group_symop_operation_xyz
x,y,z
-x,-y,z
-y,x,1/2+z
y,-x,1/2+z
-x,y,-z
x,-y,-z
y,x,1/2-z
-y,-x,1/2-z
-x,-y,-z
x,y,-z
y,-x,1/2-z
-y,x,1/2-z
x,-y,z
-x,y,z
-y,-x,1/2+z
y,x,1/2+z
loop_
_atom_site_type_symbol
_atom_site_label
_atom_site_fract_x
_atom_site_fract_y
_atom_site_fract_z
Si Si1 0.110613 0.390328 0.764010
Si Si2 0.790963 0.702659 0.164129
Si Si3 0.889976 0.386679 0.908605
Si Si4 0.385269 0.706468 0.457095
Si Si5 0.111595 0.208169 0.286716
Si Si6 0.615365 0.611813 0.622137
O O1 0.131180 0.500000 0.749144
O O2 0.186178 0.364773 0.798402
O O3 0.125894 0.320399 0.726628
O O4 0.000000 0.378477 0.780632
O O5 0.866144 0.679866 0.129094
O O6 0.806570 0.816579 0.175992
O O7 0.679811 0.678004 0.151365
O O8 0.875408 0.500000 0.896008
O O9 0.817815 0.359560 0.944431
O O10 0.000000 0.365565 0.922978
O O11 0.335564 0.684871 0.500000
O O12 0.500000 0.693632 0.462232
O O13 0.349502 0.631901 0.423006
O O14 0.137274 0.137274 0.250000
O O15 0.000000 0.186515 0.300063
O O16 0.637576 0.500000 0.633189
O O17 0.500000 0.637120 0.626269
#
# Coordination Sequence:
#
# PCOD8315669 Si02
#       6
#    16  16  16  16  16  16
#     4   9  16  27  44  62  77  95 124 162 201 240
#     4  10  17  27  42  58  79 105 133 163 196 238
#     4   9  16  25  39  60  83 105 130 161 197 236
#     4   8  14  24  37  55  81 112 141 163 186 224
#     4   9  19  32  44  60  80 104 134 169 209 249
#     4   9  17  27  39  58  84 113 141 165 191 225
#
# _framework density 15.212726
#
# number of rings (size 3 to 8) (size 9 to 14) (size 15 to 20)
#    0.000    3.000    0.000    3.000    0.000    3.500 
#    0.000    3.333    0.000    0.000    0.000    8.167 
#    0.000   10.667    0.000   12.000    0.000    1.333 
#
# Total GULP energy -1189860.215963 kJ/mol
# GULP energy per Si atom -12394.377250 kJ/mol
# Density = 1.517810 g / cm^3
# Si number density = 15.212726 Si / 1000 Ang^3
#
#
#
# Elastic Constant Matrix: (Units=GPa)
#
#
# Indices 1 2 3 4 5 6 
#
# 1 71.8720 11.8540 18.9142 0.0000 0.0000 0.0000
# 2 11.8540 71.8720 18.9142 0.0000 0.0000 0.0000
# 3 18.9142 18.9142 60.1777 0.0000 0.0000 0.0000
# 4 0.0000 0.0000 0.0000 14.0682 0.0000 0.0000
# 5 0.0000 0.0000 0.0000 0.0000 14.0682 0.0000
# 6 0.0000 0.0000 0.0000 0.0000 0.0000 14.6123
#
#
#
# Elastic Compliance Matrix: (Units=1/GPa)
#
#
# Indices 1 2 3 4 5 6 
#
# 1 0.015291 -0.001371 -0.004375 0.000000 0.000000 0.000000
# 2 -0.001371 0.015291 -0.004375 0.000000 0.000000 0.000000
# 3 -0.004375 -0.004375 0.019368 0.000000 0.000000 0.000000
# 4 0.000000 0.000000 0.000000 0.071082 0.000000 0.000000
# 5 0.000000 0.000000 0.000000 0.000000 0.071082 0.000000
# 6 0.000000 0.000000 0.000000 0.000000 0.000000 0.068435
#
#
# Mechanical properties :
#
#
# Convention : Reuss Voigt Hill
#
# Bulk Modulus (GPa) = 33.66133 33.69849 33.67991
# Shear Modulus (GPa) = 17.20015 18.83236 18.01626
#
# Velocity S-wave (km/s) = 3.36615 3.52225 3.44508
# Velocity P-wave (km/s) = 6.10599 6.22425 6.16540
#
# Compressibility (1/GPa) = 0.02970768
#
# Stress axis : x y z
#
# Youngs Moduli (GPa) = 65.39753 65.39753 51.63203
#
# Poissons Ratio (x) = 0.08963 0.22591
# Poissons Ratio (y) = 0.08963 0.22591
# Poissons Ratio (z) = 0.28613 0.28613
#
# Static dielectric constant tensor:
#      x y z
#    x 2.837940 0.000000 0.000000 
#    y 0.000000 2.837940 0.000000 
#    z 0.000000 0.000000 2.946590 
# 
# 
# High freq. dielectric constant tensor:
#      x y z
#    x 1.565620 0.000000 0.000000 
#    y 0.000000 1.565620 0.000000 
#    z 0.000000 0.000000 1.567740 
# 
# From -- ./inp_files/13735.got.cif
#   From: 2010.03.12/outbox.cif.g09.slc.cpg/sg131_7_cif.got.tgz:13735.got - 2010.04.06 17:36:35.
