data_PCOD8315899
_publ_section_title
;
Structure prediction by ZEFSAII (Michael W. Deem and Ramdas Pophale) SiO2 
 PCOD8315899
Probable space group: P 42/M M C
;
_chemical_formula_sum "Si O2"
_cell_formula_units_Z 50
_cell_length_a 7.966273
_cell_length_b 7.966273
_cell_length_c 37.137309
_cell_angle_alpha 90.000000
_cell_angle_beta 90.000000
_cell_angle_gamma 90.000000
_cell_volume 2356.789540
_symmetry_space_group_name_H-M "P 42/M M C"
_symmetry_group_IT_number 131
_symmetry_cell_setting 'tetragonal'
loop_
_space_group_symop_operation_xyz
x,y,z
-x,-y,z
-y,x,1/2+z
y,-x,1/2+z
-x,y,-z
x,-y,-z
y,x,1/2-z
-y,-x,1/2-z
-x,-y,-z
x,y,-z
y,-x,1/2-z
-y,x,1/2-z
x,-y,z
-x,y,z
-y,-x,1/2+z
y,x,1/2+z
loop_
_atom_site_type_symbol
_atom_site_label
_atom_site_fract_x
_atom_site_fract_y
_atom_site_fract_z
Si Si1 0.318544 0.306713 0.850800
Si Si2 0.303005 0.191778 0.000000
Si Si3 0.192771 0.805860 0.924372
Si Si4 0.000000 0.000000 0.750000
Si Si5 0.295571 0.000000 0.694182
O O1 0.325782 0.500000 0.841471
O O2 0.500000 0.225745 0.839752
O O3 0.297085 0.285463 0.893536
O O4 0.163144 0.233197 0.828264
O O5 0.231941 0.276544 0.963494
O O6 0.500000 0.209063 0.000000
O O7 0.240230 0.000000 0.000000
O O8 0.000000 0.780179 0.914940
O O9 0.246785 0.000000 0.924634
O O10 0.821817 0.000000 0.729129
O O11 0.500000 0.000000 0.702064
#
# Coordination Sequence:
#
# PCOD8315899 Si02
#       5
#    16   8  16   2   8
#     4  10  21  38  61  87 119 161 203 247 304 362
#     4   9  17  29  44  71 112 155 202 257 313 366
#     4  10  19  31  52  80 114 154 204 257 310 363
#     4  12  28  44  76 104 128 162 212 232 296 392
#     4  10  24  46  66  95 135 161 193 254 301 354
#
# _framework density 21.215299000000002
#
# number of rings (size 3 to 8) (size 9 to 14) (size 15 to 20)
#    0.000    2.080    1.600    1.440    2.240    5.120 
#    0.000    0.800    0.000    4.800    0.000    0.000 
#    0.000    0.000    0.000    0.000    0.000    0.000 
#
# Total GULP energy -619548.735259 kJ/mol
# GULP energy per Si atom -12390.974705 kJ/mol
# Density = 2.116701 g / cm^3
# Si number density = 21.215299 Si / 1000 Ang^3
#
#
#
# Elastic Constant Matrix: (Units=GPa)
#
#
# Indices 1 2 3 4 5 6 
#
# 1 89.6081 28.4857 49.4767 0.0000 0.0000 0.0000
# 2 28.4857 89.6081 49.4767 0.0000 0.0000 0.0000
# 3 49.4767 49.4767 132.5352 0.0000 0.0000 0.0000
# 4 0.0000 0.0000 0.0000 19.1516 0.0000 0.0000
# 5 0.0000 0.0000 0.0000 0.0000 19.1516 0.0000
# 6 0.0000 0.0000 0.0000 0.0000 0.0000 13.8673
#
#
#
# Elastic Compliance Matrix: (Units=1/GPa)
#
#
# Indices 1 2 3 4 5 6 
#
# 1 0.014341 -0.002019 -0.004600 0.000000 0.000000 0.000000
# 2 -0.002019 0.014341 -0.004600 0.000000 0.000000 0.000000
# 3 -0.004600 -0.004600 0.010980 0.000000 0.000000 0.000000
# 4 0.000000 0.000000 0.000000 0.052215 0.000000 0.000000
# 5 0.000000 0.000000 0.000000 0.000000 0.052215 0.000000
# 6 0.000000 0.000000 0.000000 0.000000 0.000000 0.072112
#
#
# Mechanical properties :
#
#
# Convention : Reuss Voigt Hill
#
# Bulk Modulus (GPa) = 58.05813 62.95883 60.50848
# Shear Modulus (GPa) = 20.45958 22.72160 21.59059
#
# Velocity S-wave (km/s) = 3.10881 3.27617 3.19359
# Velocity P-wave (km/s) = 6.34916 6.63714 6.49475
#
# Compressibility (1/GPa) = 0.01722412
#
# Stress axis : x y z
#
# Youngs Moduli (GPa) = 69.72784 69.72784 91.07767
#
# Poissons Ratio (x) = 0.14079 0.41896
# Poissons Ratio (y) = 0.14079 0.41896
# Poissons Ratio (z) = 0.32075 0.32075
#
# Static dielectric constant tensor:
#      x y z
#    x 3.952940 0.000000 0.000000 
#    y 0.000000 3.952940 0.000000 
#    z 0.000000 0.000000 3.797620 
# 
# 
# High freq. dielectric constant tensor:
#      x y z
#    x 1.823300 0.000000 0.000000 
#    y 0.000000 1.823300 0.000000 
#    z 0.000000 0.000000 1.822770 
# 
# From -- ./inp_files/12993.got.cif
#   From: 2010.03.12/outbox.cif.g09.slc.cpg/sg131_7_cif.got.tgz:12993.got - 2010.04.06 17:36:35.
