data_PCOD8315426
_publ_section_title
;
Structure prediction by ZEFSAII (Michael W. Deem and Ramdas Pophale) SiO2 
 PCOD8315426
Probable space group: P 4/N M M
;
_chemical_formula_sum "Si O2"
_cell_formula_units_Z 96
_cell_length_a 23.263579
_cell_length_b 23.263579
_cell_length_c 8.748876
_cell_angle_alpha 90.000000
_cell_angle_beta 90.000000
_cell_angle_gamma 90.000000
_cell_volume 4734.840142
_symmetry_space_group_name_H-M "P 4/N M M"
_symmetry_group_IT_number 129
_symmetry_cell_setting 'tetragonal'
loop_
_space_group_symop_operation_xyz
x,y,z
1/2-y,x,z
1/2-x,1/2-y,z
y,1/2-x,z
1/2+x,-y,-z
-x,1/2+y,-z
1/2+y,1/2+x,-z
-y,-x,-z
-x,-y,-z
1/2+y,-x,-z
1/2+x,1/2+y,-z
-y,1/2+x,-z
1/2-x,y,z
x,1/2-y,z
1/2-y,1/2-x,z
y,x,z
loop_
_atom_site_type_symbol
_atom_site_label
_atom_site_fract_x
_atom_site_fract_y
_atom_site_fract_z
Si Si1 0.816689 0.908325 0.662012
Si Si2 0.184545 0.514028 0.859007
Si Si3 0.186860 0.686291 0.681599
Si Si4 0.409358 0.896950 0.320123
Si Si5 0.989737 0.605973 0.859144
Si Si6 0.188355 0.098194 0.681398
O O1 0.750000 0.904231 0.709407
O O2 0.846405 0.846405 0.692193
O O3 0.846979 0.957697 0.758052
O O4 0.826339 0.926856 0.486065
O O5 0.250000 0.538132 0.890383
O O6 0.152377 0.544213 0.717200
O O7 0.191134 0.448647 0.811767
O O8 0.140854 0.517285 0.000731
O O9 0.186506 0.686506 0.500000
O O10 0.250000 0.663190 0.736249
O O11 0.177613 0.750000 0.747508
O O12 0.132756 0.649485 0.740180
O O13 0.409636 0.909636 0.500000
O O14 0.421156 0.956704 0.233140
O O15 0.946433 0.553568 0.905815
O O16 0.250000 0.129443 0.668130
O O17 0.143121 0.143121 0.742711
#
# Coordination Sequence:
#
# PCOD8315426 Si02
#       6
#    16  16  16  16  16  16
#     4   9  18  34  56  83 114 147 188 236 286 341
#     4  11  23  39  59  82 112 149 189 233 281 339
#     4   8  15  30  53  81 111 140 172 216 273 336
#     4  11  23  38  59  86 114 147 190 240 291 345
#     4  11  24  40  58  81 113 155 198 241 291 346
#     4   9  18  33  55  82 111 145 184 230 284 339
#
# _framework density 20.275234999999999
#
# number of rings (size 3 to 8) (size 9 to 14) (size 15 to 20)
#    0.000    2.167    0.000    3.500    0.000    4.667 
#    0.000    1.667    0.000    0.000    0.000    4.667 
#    0.000    0.000    0.000    0.000    0.000    0.000 
#
# Total GULP energy -1189572.448275 kJ/mol
# GULP energy per Si atom -12391.379670 kJ/mol
# Density = 2.022909 g / cm^3
# Si number density = 20.275235 Si / 1000 Ang^3
#
#
#
# Elastic Constant Matrix: (Units=GPa)
#
#
# Indices 1 2 3 4 5 6 
#
# 1 103.5561 43.3562 28.9989 0.0000 0.0000 0.0000
# 2 43.3562 103.5561 28.9989 0.0000 0.0000 0.0000
# 3 28.9989 28.9989 68.9027 0.0000 0.0000 0.0000
# 4 0.0000 0.0000 0.0000 25.8708 0.0000 0.0000
# 5 0.0000 0.0000 0.0000 0.0000 25.8708 0.0000
# 6 0.0000 0.0000 0.0000 0.0000 0.0000 33.8199
#
#
#
# Elastic Compliance Matrix: (Units=1/GPa)
#
#
# Indices 1 2 3 4 5 6 
#
# 1 0.012387 -0.004224 -0.003436 0.000000 0.000000 0.000000
# 2 -0.004224 0.012387 -0.003436 0.000000 0.000000 0.000000
# 3 -0.003436 -0.003436 0.017405 0.000000 0.000000 0.000000
# 4 0.000000 0.000000 0.000000 0.038654 0.000000 0.000000
# 5 0.000000 0.000000 0.000000 0.000000 0.038654 0.000000
# 6 0.000000 0.000000 0.000000 0.000000 0.000000 0.029568
#
#
# Mechanical properties :
#
#
# Convention : Reuss Voigt Hill
#
# Bulk Modulus (GPa) = 50.02773 53.19144 51.60959
# Shear Modulus (GPa) = 28.10431 28.75635 28.43033
#
# Velocity S-wave (km/s) = 3.72713 3.77012 3.74868
# Velocity P-wave (km/s) = 6.57646 6.72632 6.65181
#
# Compressibility (1/GPa) = 0.01998891
#
# Stress axis : x y z
#
# Youngs Moduli (GPa) = 80.72853 80.72853 57.45460
#
# Poissons Ratio (x) = 0.34101 0.19739
# Poissons Ratio (y) = 0.34101 0.19739
# Poissons Ratio (z) = 0.27735 0.27735
#
# Static dielectric constant tensor:
#      x y z
#    x 3.824140 0.000000 0.000000 
#    y 0.000000 3.824140 0.000000 
#    z 0.000000 0.000000 3.484660 
# 
# 
# High freq. dielectric constant tensor:
#      x y z
#    x 1.796390 0.000000 0.000000 
#    y 0.000000 1.796390 0.000000 
#    z 0.000000 0.000000 1.773960 
# 
# From -- ./inp_files/2608.got.cif
#   From: 2010.03.12/outbox.cif.g09.slc.cpg/sg129_2_cif.got.tgz:2608.got - 2010.04.06 17:19:44.
