data_PCOD8315784
_publ_section_title
;
Structure prediction by ZEFSAII (Michael W. Deem and Ramdas Pophale) SiO2 
 PCOD8315784
Probable space group: P 42/M M C
;
_chemical_formula_sum "Si O2"
_cell_formula_units_Z 80
_cell_length_a 12.651521
_cell_length_b 12.651521
_cell_length_c 27.688731
_cell_angle_alpha 90.000000
_cell_angle_beta 90.000000
_cell_angle_gamma 90.000000
_cell_volume 4431.885519
_symmetry_space_group_name_H-M "P 42/M M C"
_symmetry_group_IT_number 131
_symmetry_cell_setting 'tetragonal'
loop_
_space_group_symop_operation_xyz
x,y,z
-x,-y,z
-y,x,1/2+z
y,-x,1/2+z
-x,y,-z
x,-y,-z
y,x,1/2-z
-y,-x,1/2-z
-x,-y,-z
x,y,-z
y,-x,1/2-z
-y,x,1/2-z
x,-y,z
-x,y,z
-y,-x,1/2+z
y,x,1/2+z
loop_
_atom_site_type_symbol
_atom_site_label
_atom_site_fract_x
_atom_site_fract_y
_atom_site_fract_z
Si Si1 0.500000 0.879442 0.885139
Si Si2 0.685415 0.500000 0.444113
Si Si3 0.273716 0.874330 0.367596
Si Si4 0.621482 0.271708 0.555206
Si Si5 0.384239 0.124505 0.731177
Si Si6 0.711621 0.122371 0.172976
O O1 0.500000 0.810236 0.933653
O O2 0.603906 0.850288 0.854961
O O3 0.500000 0.000000 0.901944
O O4 0.659923 0.500000 0.500000
O O5 0.636179 0.609288 0.422809
O O6 0.317160 0.818930 0.415622
O O7 0.351721 0.850213 0.323337
O O8 0.165927 0.816108 0.353086
O O9 0.256221 0.000000 0.376111
O O10 0.663673 0.268436 0.500000
O O11 0.500000 0.240317 0.557624
O O12 0.500000 0.175195 0.739096
O O13 0.303799 0.168018 0.772348
O O14 0.391461 0.000000 0.739383
O O15 0.734092 0.000000 0.174143
#
# Coordination Sequence:
#
# PCOD8315784 Si02
#       6
#     8   8  16  16  16  16
#     4  10  18  32  57  84 106 137 178 219 266 320
#     4  10  19  35  58  83 109 136 175 228 281 326
#     4  11  22  34  52  79 110 145 185 228 269 318
#     4  10  21  37  57  80 106 140 180 225 277 332
#     4   9  17  31  51  76 105 138 179 223 265 314
#     4  10  19  34  55  78 107 144 182 219 268 327
#
# _framework density 18.051007999999999
#
# number of rings (size 3 to 8) (size 9 to 14) (size 15 to 20)
#    0.000    2.000    3.000    1.500    0.000    3.400 
#    0.000    1.000    0.000    4.200    0.000    1.400 
#    0.000    0.000    0.000    0.000    0.000    0.000 
#
# Total GULP energy -991316.701363 kJ/mol
# GULP energy per Si atom -12391.458767 kJ/mol
# Density = 1.800992 g / cm^3
# Si number density = 18.051008 Si / 1000 Ang^3
#
#
#
# Elastic Constant Matrix: (Units=GPa)
#
#
# Indices 1 2 3 4 5 6 
#
# 1 99.5620 40.9875 43.5329 0.0000 0.0000 0.0000
# 2 40.9875 99.5620 43.5329 0.0000 0.0000 0.0000
# 3 43.5329 43.5329 70.7132 0.0000 0.0000 0.0000
# 4 0.0000 0.0000 0.0000 27.6833 0.0000 0.0000
# 5 0.0000 0.0000 0.0000 0.0000 27.6833 0.0000
# 6 0.0000 0.0000 0.0000 0.0000 0.0000 21.3553
#
#
#
# Elastic Compliance Matrix: (Units=1/GPa)
#
#
# Indices 1 2 3 4 5 6 
#
# 1 0.014287 -0.002786 -0.007080 0.000000 0.000000 0.000000
# 2 -0.002786 0.014287 -0.007080 0.000000 0.000000 0.000000
# 3 -0.007080 -0.007080 0.022859 0.000000 0.000000 0.000000
# 4 0.000000 0.000000 0.000000 0.036123 0.000000 0.000000
# 5 0.000000 0.000000 0.000000 0.000000 0.036123 0.000000
# 6 0.000000 0.000000 0.000000 0.000000 0.000000 0.046827
#
#
# Mechanical properties :
#
#
# Convention : Reuss Voigt Hill
#
# Bulk Modulus (GPa) = 57.01256 58.43821 57.72538
# Shear Modulus (GPa) = 23.78188 24.79663 24.28926
#
# Velocity S-wave (km/s) = 3.63365 3.71036 3.67221
# Velocity P-wave (km/s) = 7.01835 7.12741 7.07309
#
# Compressibility (1/GPa) = 0.01754000
#
# Stress axis : x y z
#
# Youngs Moduli (GPa) = 69.99564 69.99564 43.74607
#
# Poissons Ratio (x) = 0.19499 0.30973
# Poissons Ratio (y) = 0.19499 0.30973
# Poissons Ratio (z) = 0.49559 0.49559
#
# Static dielectric constant tensor:
#      x y z
#    x 3.338360 0.000000 0.000000 
#    y 0.000000 3.338360 0.000000 
#    z 0.000000 0.000000 3.368990 
# 
# 
# High freq. dielectric constant tensor:
#      x y z
#    x 1.691910 0.000000 0.000000 
#    y 0.000000 1.691910 0.000000 
#    z 0.000000 0.000000 1.696210 
# 
# From -- ./inp_files/13444.got.cif
#   From: 2010.03.12/outbox.cif.g09.slc.cpg/sg131_7_cif.got.tgz:13444.got - 2010.04.06 17:36:35.
