data_PCOD8315521
_publ_section_title
;
Structure prediction by ZEFSAII (Michael W. Deem and Ramdas Pophale) SiO2 
 PCOD8315521
Probable space group: P 4/N C C
;
_chemical_formula_sum "Si O2"
_cell_formula_units_Z 80
_cell_length_a 27.543921
_cell_length_b 27.543921
_cell_length_c 5.272927
_cell_angle_alpha 90.000000
_cell_angle_beta 90.000000
_cell_angle_gamma 90.000000
_cell_volume 4000.398788
_symmetry_space_group_name_H-M "P 4/N C C"
_symmetry_group_IT_number 130
_symmetry_cell_setting 'tetragonal'
loop_
_space_group_symop_operation_xyz
x,y,z
1/2-y,x,z
1/2-x,1/2-y,z
y,1/2-x,z
1/2+x,-y,1/2-z
-x,1/2+y,1/2-z
1/2+y,1/2+x,1/2-z
-y,-x,1/2-z
-x,-y,-z
1/2+y,-x,-z
1/2+x,1/2+y,-z
-y,1/2+x,-z
1/2-x,y,1/2+z
x,1/2-y,1/2+z
1/2-y,1/2-x,1/2+z
y,x,1/2+z
loop_
_atom_site_type_symbol
_atom_site_label
_atom_site_fract_x
_atom_site_fract_y
_atom_site_fract_z
Si Si1 0.035346 0.219735 0.757357
Si Si2 0.379685 0.620316 0.250000
Si Si3 0.422607 0.577394 0.750000
Si Si4 0.577209 0.221338 0.265442
Si Si5 0.891637 0.866446 0.189711
Si Si6 0.471283 0.438891 0.350486
O O1 0.049785 0.247369 0.498725
O O2 0.062634 0.168416 0.774026
O O3 0.978994 0.205909 0.751463
O O4 0.392587 0.590373 0.501061
O O5 0.323407 0.611413 0.197302
O O6 0.478974 0.590475 0.693440
O O7 0.589064 0.239349 0.548561
O O8 0.854546 0.862838 0.428289
O O9 0.905110 0.923514 0.142060
O O10 0.476269 0.467482 0.615535
#
# Coordination Sequence:
#
# PCOD8315521 Si02
#       6
#    16   8   8  16  16  16
#     4  10  21  38  59  82 117 163 210 249 295 350
#     4  12  26  39  68  93 116 162 209 256 301 386
#     4  12  24  35  56  90 128 163 209 230 287 357
#     4  10  23  43  64  87 119 157 202 259 309 361
#     4  10  21  33  55  82 116 159 200 244 295 342
#     4  10  21  35  49  75 122 170 198 244 268 346
#
# _framework density 19.998007000000001
#
# number of rings (size 3 to 8) (size 9 to 14) (size 15 to 20)
#    0.000    1.600    0.000    4.200   11.200    0.000 
#    0.000    0.000    0.000    1.800    0.000    0.000 
#    0.000   28.000    0.000    0.000    0.000    0.000 
#
# Total GULP energy -991639.900621 kJ/mol
# GULP energy per Si atom -12395.498758 kJ/mol
# Density = 1.995249 g / cm^3
# Si number density = 19.998007 Si / 1000 Ang^3
#
#
#
# Elastic Constant Matrix: (Units=GPa)
#
#
# Indices 1 2 3 4 5 6 
#
# 1 72.0644 35.6568 21.6386 0.0000 0.0000 0.0000
# 2 35.6568 72.0641 21.6390 0.0000 0.0000 0.0000
# 3 21.6386 21.6390 174.6778 0.0000 0.0000 0.0000
# 4 0.0000 0.0000 0.0000 22.4298 0.0000 0.0000
# 5 0.0000 0.0000 0.0000 0.0000 22.4332 0.0000
# 6 0.0000 0.0000 0.0000 0.0000 0.0000 30.6281
#
#
#
# Elastic Compliance Matrix: (Units=1/GPa)
#
#
# Indices 1 2 3 4 5 6 
#
# 1 0.018618 -0.008849 -0.001210 0.000000 0.000000 0.000000
# 2 -0.008849 0.018618 -0.001210 0.000000 0.000000 0.000000
# 3 -0.001210 -0.001210 0.006025 0.000000 0.000000 0.000000
# 4 0.000000 0.000000 0.000000 0.044584 0.000000 0.000000
# 5 0.000000 0.000000 0.000000 0.000000 0.044577 0.000000
# 6 0.000000 0.000000 0.000000 0.000000 0.000000 0.032650
#
#
# Mechanical properties :
#
#
# Convention : Reuss Voigt Hill
#
# Bulk Modulus (GPa) = 48.25633 52.96390 50.61011
# Shear Modulus (GPa) = 25.70466 31.08966 28.39716
#
# Velocity S-wave (km/s) = 3.58908 3.94717 3.77238
# Velocity P-wave (km/s) = 6.43104 6.87863 6.65860
#
# Compressibility (1/GPa) = 0.02072267
#
# Stress axis : x y z
#
# Youngs Moduli (GPa) = 53.71112 53.71076 165.98429
#
# Poissons Ratio (x) = 0.47527 0.20087
# Poissons Ratio (y) = 0.47528 0.20088
# Poissons Ratio (z) = 0.06500 0.06500
#
# Static dielectric constant tensor:
#      x y z
#    x 3.329190 0.000000 0.000000 
#    y 0.000000 3.329190 0.000000 
#    z 0.000000 0.000000 4.777440 
# 
# 
# High freq. dielectric constant tensor:
#      x y z
#    x 1.746730 0.000000 0.000000 
#    y 0.000000 1.746730 0.000000 
#    z 0.000000 0.000000 1.826960 
# 
# From -- ./inp_files/229.got.cif
#   From: 2010.03.12/outbox.cif.g09.slc.cpg/sg130_1_cif.got.tgz:229.got - 2010.04.06 17:30:23.
