data_PCOD8315002
_publ_section_title
;
Structure prediction by ZEFSAII (Michael W. Deem and Ramdas Pophale) SiO2 
 PCOD8315002
Probable space group: P 4/N M M
;
_chemical_formula_sum "Si O2"
_cell_formula_units_Z 112
_cell_length_a 18.704333
_cell_length_b 18.704333
_cell_length_c 20.954834
_cell_angle_alpha 90.000000
_cell_angle_beta 90.000000
_cell_angle_gamma 90.000000
_cell_volume 7331.092114
_symmetry_space_group_name_H-M "P 4/N M M"
_symmetry_group_IT_number 129
_symmetry_cell_setting 'tetragonal'
loop_
_space_group_symop_operation_xyz
x,y,z
1/2-y,x,z
1/2-x,1/2-y,z
y,1/2-x,z
1/2+x,-y,-z
-x,1/2+y,-z
1/2+y,1/2+x,-z
-y,-x,-z
-x,-y,-z
1/2+y,-x,-z
1/2+x,1/2+y,-z
-y,1/2+x,-z
1/2-x,y,z
x,1/2-y,z
1/2-y,1/2-x,z
y,x,z
loop_
_atom_site_type_symbol
_atom_site_label
_atom_site_fract_x
_atom_site_fract_y
_atom_site_fract_z
Si Si1 0.332037 0.447108 0.004271
Si Si2 0.666517 0.405696 0.695103
Si Si3 0.670252 0.334897 0.430472
Si Si4 0.831792 0.097488 0.186629
Si Si5 0.456210 0.832925 0.882100
Si Si6 0.055439 0.170237 0.858609
Si Si7 0.332663 0.049603 0.239161
O O1 0.250000 0.427213 0.018691
O O2 0.377197 0.377197 0.022028
O O3 0.355728 0.513335 0.048932
O O4 0.344768 0.469758 0.931238
O O5 0.750000 0.388728 0.704522
O O6 0.639194 0.384208 0.624552
O O7 0.625101 0.356158 0.744878
O O8 0.651908 0.489648 0.706681
O O9 0.640390 0.359611 0.500000
O O10 0.750000 0.365932 0.417196
O O11 0.674891 0.250000 0.431736
O O12 0.750000 0.120453 0.172802
O O13 0.881765 0.127007 0.130061
O O14 0.839119 0.011849 0.187593
O O15 0.437828 0.750000 0.877886
O O16 0.515315 0.852666 0.828955
O O17 0.087440 0.250000 0.853790
O O18 0.116415 0.116415 0.835692
O O19 0.250000 0.074339 0.241085
O O20 0.381794 0.118206 0.252649
#
# Coordination Sequence:
#
# PCOD8315002 Si02
#       7
#    16  16  16  16  16  16  16
#     4   9  17  30  46  62  81 103 130 168 213 259
#     4   9  17  28  43  63  87 116 143 167 200 240
#     4   8  13  22  39  64  90 113 138 166 195 232
#     4  10  19  29  42  61  84 110 142 173 195 228
#     4   9  18  30  43  60  82 108 136 168 208 251
#     4   9  19  33  47  64  82 101 130 170 215 259
#     4   9  17  28  41  59  82 108 141 176 210 250
#
# _framework density 15.277397000000001
#
# number of rings (size 3 to 8) (size 9 to 14) (size 15 to 20)
#    0.000    3.000    0.000    2.571    0.000    5.571 
#    0.000    2.857    0.000    3.857    0.000    8.000 
#    0.000    0.000    0.000    0.000    0.000   18.000 
#
# Total GULP energy -1388382.720640 kJ/mol
# GULP energy per Si atom -12396.274291 kJ/mol
# Density = 1.524263 g / cm^3
# Si number density = 15.277397 Si / 1000 Ang^3
#
#
#
# Elastic Constant Matrix: (Units=GPa)
#
#
# Indices 1 2 3 4 5 6 
#
# 1 79.8967 54.9358 36.9304 0.0000 0.0000 0.0000
# 2 54.9358 79.8966 36.9304 0.0000 0.0000 0.0000
# 3 36.9304 36.9304 68.5644 0.0000 0.0000 0.0000
# 4 0.0000 0.0000 0.0000 16.3742 0.0000 0.0000
# 5 0.0000 0.0000 0.0000 0.0000 16.3743 0.0000
# 6 0.0000 0.0000 0.0000 0.0000 0.0000 26.8633
#
#
#
# Elastic Compliance Matrix: (Units=1/GPa)
#
#
# Indices 1 2 3 4 5 6 
#
# 1 0.025292 -0.014771 -0.005667 0.000000 0.000000 0.000000
# 2 -0.014771 0.025292 -0.005667 0.000000 0.000000 0.000000
# 3 -0.005667 -0.005667 0.020689 0.000000 0.000000 0.000000
# 4 0.000000 0.000000 0.000000 0.061072 0.000000 0.000000
# 5 0.000000 0.000000 0.000000 0.000000 0.061071 0.000000
# 6 0.000000 0.000000 0.000000 0.000000 0.000000 0.037225
#
#
# Mechanical properties :
#
#
# Convention : Reuss Voigt Hill
#
# Bulk Modulus (GPa) = 52.45505 53.99453 53.22479
# Shear Modulus (GPa) = 17.28877 18.55978 17.92428
#
# Velocity S-wave (km/s) = 3.36766 3.48925 3.42900
# Velocity P-wave (km/s) = 7.03784 7.18698 7.11280
#
# Compressibility (1/GPa) = 0.01906394
#
# Stress axis : x y z
#
# Youngs Moduli (GPa) = 39.53854 39.53846 48.33400
#
# Poissons Ratio (x) = 0.58402 0.27390
# Poissons Ratio (y) = 0.58402 0.27390
# Poissons Ratio (z) = 0.22406 0.22406
#
# Static dielectric constant tensor:
#      x y z
#    x 2.833130 0.000000 0.000000 
#    y 0.000000 2.833130 0.000000 
#    z 0.000000 0.000000 3.058930 
# 
# 
# High freq. dielectric constant tensor:
#      x y z
#    x 1.573410 0.000000 0.000000 
#    y 0.000000 1.573410 0.000000 
#    z 0.000000 0.000000 1.568030 
# 
# From -- ./inp_files/7228.got.cif
#   From: 2010.03.12/outbox.cif.g09.slc.cpg/sg129_4_cif.got.tgz:7228.got - 2010.04.06 17:19:44.
