data_PCOD8315353
_publ_section_title
;
Structure prediction by ZEFSAII (Michael W. Deem and Ramdas Pophale) SiO2 
 PCOD8315353
Probable space group: P 4/N M M
;
_chemical_formula_sum "Si O2"
_cell_formula_units_Z 128
_cell_length_a 17.487561
_cell_length_b 17.487561
_cell_length_c 22.527850
_cell_angle_alpha 90.000000
_cell_angle_beta 90.000000
_cell_angle_gamma 90.000000
_cell_volume 6889.349711
_symmetry_space_group_name_H-M "P 4/N M M"
_symmetry_group_IT_number 129
_symmetry_cell_setting 'tetragonal'
loop_
_space_group_symop_operation_xyz
x,y,z
1/2-y,x,z
1/2-x,1/2-y,z
y,1/2-x,z
1/2+x,-y,-z
-x,1/2+y,-z
1/2+y,1/2+x,-z
-y,-x,-z
-x,-y,-z
1/2+y,-x,-z
1/2+x,1/2+y,-z
-y,1/2+x,-z
1/2-x,y,z
x,1/2-y,z
1/2-y,1/2-x,z
y,x,z
loop_
_atom_site_type_symbol
_atom_site_label
_atom_site_fract_x
_atom_site_fract_y
_atom_site_fract_z
Si Si1 0.467046 0.159903 0.262299
Si Si2 0.165284 0.046995 0.964487
Si Si3 0.582730 0.044637 0.632085
Si Si4 0.548636 0.075282 0.160689
Si Si5 0.338502 0.036222 0.604280
Si Si6 0.913946 0.163402 0.046087
Si Si7 0.662921 0.960157 0.534609
Si Si8 0.457656 0.336672 0.824985
O O1 0.447398 0.250000 0.263768
O O2 0.388566 0.111435 0.270786
O O3 0.529076 0.139497 0.313027
O O4 0.507064 0.139062 0.200178
O O5 0.250000 0.059440 0.986657
O O6 0.125326 0.125326 0.980075
O O7 0.161035 0.028154 0.895200
O O8 0.128988 0.980963 0.004464
O O9 0.541603 0.128063 0.634350
O O10 0.513798 0.986203 0.634604
O O11 0.630226 0.032564 0.571192
O O12 0.591559 0.114525 0.105800
O O13 0.486453 0.013548 0.137608
O O14 0.613029 0.029042 0.199716
O O15 0.250000 0.048280 0.624106
O O16 0.387797 0.112204 0.621744
O O17 0.344798 0.021255 0.534365
O O18 0.925175 0.250000 0.066213
O O19 0.842236 0.157765 0.000000
O O20 0.750000 0.944296 0.553144
O O21 0.616124 0.883877 0.551843
O O22 0.457497 0.250000 0.799870
O O23 0.376716 0.376716 0.807967
#
# Coordination Sequence:
#
# PCOD8315353 Si02
#       8
#    16  16  16  16  16  16  16  16
#     4  10  21  37  57  81 106 135 171 210 253 296
#     4   9  17  28  44  67  92 118 147 181 226 280
#     4   9  17  31  50  71 100 138 179 218 254 302
#     4  10  20  34  54  75  99 132 169 205 243 297
#     4   9  17  29  48  75 105 137 174 216 264 314
#     4  11  21  32  48  69  94 124 159 201 246 293
#     4   9  16  26  44  72 104 139 176 216 263 311
#     4   9  17  30  49  73  99 126 157 195 241 292
#
# _framework density 18.579402000000002
#
# number of rings (size 3 to 8) (size 9 to 14) (size 15 to 20)
#    0.000    2.500    1.250    1.500    0.000    2.750 
#    0.000    3.125    0.000    5.625    0.000    5.250 
#    0.000    5.000    0.000    0.000    0.000    0.000 
#
# Total GULP energy -1585980.755963 kJ/mol
# GULP energy per Si atom -12390.474656 kJ/mol
# Density = 1.853711 g / cm^3
# Si number density = 18.579402 Si / 1000 Ang^3
#
#
#
# Elastic Constant Matrix: (Units=GPa)
#
#
# Indices 1 2 3 4 5 6 
#
# 1 101.6587 59.6619 22.9330 0.0000 0.0000 0.0000
# 2 59.6619 101.6577 22.9328 0.0000 0.0000 0.0000
# 3 22.9330 22.9328 39.6275 0.0000 0.0000 0.0000
# 4 0.0000 0.0000 0.0000 19.1560 0.0000 0.0000
# 5 0.0000 0.0000 0.0000 0.0000 19.1562 0.0000
# 6 0.0000 0.0000 0.0000 0.0000 0.0000 23.5398
#
#
#
# Elastic Compliance Matrix: (Units=1/GPa)
#
#
# Indices 1 2 3 4 5 6 
#
# 1 0.015616 -0.008196 -0.004294 0.000000 0.000000 0.000000
# 2 -0.008196 0.015616 -0.004294 0.000000 0.000000 0.000000
# 3 -0.004294 -0.004294 0.030205 0.000000 0.000000 0.000000
# 4 0.000000 0.000000 0.000000 0.052203 0.000000 0.000000
# 5 0.000000 0.000000 0.000000 0.000000 0.052202 0.000000
# 6 0.000000 0.000000 0.000000 0.000000 0.000000 0.042481
#
#
# Mechanical properties :
#
#
# Convention : Reuss Voigt Hill
#
# Bulk Modulus (GPa) = 35.88249 50.44437 43.16343
# Shear Modulus (GPa) = 19.90607 21.53147 20.71877
#
# Velocity S-wave (km/s) = 3.27678 3.40794 3.34300
# Velocity P-wave (km/s) = 5.80271 6.53414 6.17926
#
# Compressibility (1/GPa) = 0.02786875
#
# Stress axis : x y z
#
# Youngs Moduli (GPa) = 64.03865 64.03806 33.10730
#
# Poissons Ratio (x) = 0.52485 0.14216
# Poissons Ratio (y) = 0.52486 0.14216
# Poissons Ratio (z) = 0.27497 0.27497
#
# Static dielectric constant tensor:
#      x y z
#    x 3.511650 0.000000 0.000000 
#    y 0.000000 3.511650 0.000000 
#    z 0.000000 0.000000 3.262050 
# 
# 
# High freq. dielectric constant tensor:
#      x y z
#    x 1.712600 0.000000 0.000000 
#    y 0.000000 1.712600 0.000000 
#    z 0.000000 0.000000 1.705070 
# 
# From -- ./inp_files/7292.got.cif
#   From: 2010.03.12/outbox.cif.g09.slc.cpg/sg129_4_cif.got.tgz:7292.got - 2010.04.06 17:19:44.
