data_PCOD8315443
_publ_section_title
;
Structure prediction by ZEFSAII (Michael W. Deem and Ramdas Pophale) SiO2 
 PCOD8315443
Probable space group: P 4/N M M
;
_chemical_formula_sum "Si O2"
_cell_formula_units_Z 96
_cell_length_a 19.593659
_cell_length_b 19.593659
_cell_length_c 16.345664
_cell_angle_alpha 90.000000
_cell_angle_beta 90.000000
_cell_angle_gamma 90.000000
_cell_volume 6275.287944
_symmetry_space_group_name_H-M "P 4/N M M"
_symmetry_group_IT_number 129
_symmetry_cell_setting 'tetragonal'
loop_
_space_group_symop_operation_xyz
x,y,z
1/2-y,x,z
1/2-x,1/2-y,z
y,1/2-x,z
1/2+x,-y,-z
-x,1/2+y,-z
1/2+y,1/2+x,-z
-y,-x,-z
-x,-y,-z
1/2+y,-x,-z
1/2+x,1/2+y,-z
-y,1/2+x,-z
1/2-x,y,z
x,1/2-y,z
1/2-y,1/2-x,z
y,x,z
loop_
_atom_site_type_symbol
_atom_site_label
_atom_site_fract_x
_atom_site_fract_y
_atom_site_fract_z
Si Si1 0.438159 0.326556 0.338653
Si Si2 0.171235 0.438814 0.842911
Si Si3 0.173663 0.063595 0.028754
Si Si4 0.462532 0.925079 0.245383
Si Si5 0.463866 0.923872 0.583222
Si Si6 0.523054 0.173643 0.182567
O O1 0.420307 0.250000 0.365467
O O2 0.371810 0.371810 0.355158
O O3 0.503682 0.351084 0.391758
O O4 0.458078 0.331399 0.243078
O O5 0.250000 0.427748 0.820392
O O6 0.132632 0.367369 0.826888
O O7 0.141229 0.497869 0.785530
O O8 0.160273 0.462462 0.936586
O O9 0.250000 0.092997 0.036395
O O10 0.124257 0.124257 0.054241
O O11 0.162602 0.000423 0.089388
O O12 0.452779 0.917421 0.342960
O O13 0.388011 0.925380 0.202673
O O14 0.505392 0.994608 0.225197
O O15 0.418842 0.918842 0.500000
O O16 0.527083 0.972918 0.566571
O O17 0.556399 0.250000 0.192095
#
# Coordination Sequence:
#
# PCOD8315443 Si02
#       6
#    16  16  16  16  16  16
#     4   9  16  25  38  58  85 113 138 165 198 241
#     4   9  18  30  43  61  84 111 143 178 214 250
#     4   9  16  25  37  55  81 112 145 177 208 245
#     4   9  16  27  44  63  82 105 136 175 214 250
#     4   8  14  26  43  60  77 100 132 168 204 242
#     4   9  16  26  40  59  84 112 141 173 208 244
#
# _framework density 15.298102999999999
#
# number of rings (size 3 to 8) (size 9 to 14) (size 15 to 20)
#    0.000    3.167    0.000    2.500    0.000    1.167 
#    0.000    5.000    0.000    3.500    0.000    0.000 
#    0.000   12.333    0.000    0.167    0.000    0.167 
#
# Total GULP energy -1189782.260452 kJ/mol
# GULP energy per Si atom -12393.565213 kJ/mol
# Density = 1.526328 g / cm^3
# Si number density = 15.298103 Si / 1000 Ang^3
#
#
#
# Elastic Constant Matrix: (Units=GPa)
#
#
# Indices 1 2 3 4 5 6 
#
# 1 82.2418 45.6949 43.8027 0.0000 0.0000 0.0000
# 2 45.6949 82.2418 43.8027 0.0000 0.0000 0.0000
# 3 43.8027 43.8027 84.3673 0.0000 0.0000 0.0000
# 4 0.0000 0.0000 0.0000 15.8324 0.0000 0.0000
# 5 0.0000 0.0000 0.0000 0.0000 15.8324 0.0000
# 6 0.0000 0.0000 0.0000 0.0000 0.0000 17.6745
#
#
#
# Elastic Compliance Matrix: (Units=1/GPa)
#
#
# Indices 1 2 3 4 5 6 
#
# 1 0.019745 -0.007617 -0.006297 0.000000 0.000000 0.000000
# 2 -0.007617 0.019745 -0.006297 0.000000 0.000000 0.000000
# 3 -0.006297 -0.006297 0.018391 0.000000 0.000000 0.000000
# 4 0.000000 0.000000 0.000000 0.063162 0.000000 0.000000
# 5 0.000000 0.000000 0.000000 0.000000 0.063162 0.000000
# 6 0.000000 0.000000 0.000000 0.000000 0.000000 0.056579
#
#
# Mechanical properties :
#
#
# Convention : Reuss Voigt Hill
#
# Bulk Modulus (GPa) = 57.27229 57.27239 57.27234
# Shear Modulus (GPa) = 17.42010 17.57124 17.49567
#
# Velocity S-wave (km/s) = 3.37814 3.39276 3.38546
# Velocity P-wave (km/s) = 7.26186 7.27094 7.26640
#
# Compressibility (1/GPa) = 0.01746045
#
# Stress axis : x y z
#
# Youngs Moduli (GPa) = 50.64538 50.64538 54.37309
#
# Poissons Ratio (x) = 0.38576 0.34238
# Poissons Ratio (y) = 0.38576 0.34238
# Poissons Ratio (z) = 0.31891 0.31891
#
# Static dielectric constant tensor:
#      x y z
#    x 2.795350 0.000000 0.000000 
#    y 0.000000 2.795350 0.000000 
#    z 0.000000 0.000000 3.120230 
# 
# 
# High freq. dielectric constant tensor:
#      x y z
#    x 1.562540 0.000000 0.000000 
#    y 0.000000 1.562540 0.000000 
#    z 0.000000 0.000000 1.586340 
# 
# From -- ./inp_files/4918.got.cif
#   From: 2010.03.12/outbox.cif.g09.slc.cpg/sg129_3_cif.got.tgz:4918.got - 2010.04.06 17:19:44.
