data_PCOD8315465
_publ_section_title
;
Structure prediction by ZEFSAII (Michael W. Deem and Ramdas Pophale) SiO2 
 PCOD8315465
Probable space group: P 4/N C C
;
_chemical_formula_sum "Si O2"
_cell_formula_units_Z 116
_cell_length_a 28.870478
_cell_length_b 28.870478
_cell_length_c 10.013507
_cell_angle_alpha 90.000000
_cell_angle_beta 90.000000
_cell_angle_gamma 90.000000
_cell_volume 8346.303145
_symmetry_space_group_name_H-M "P 4/N C C"
_symmetry_group_IT_number 130
_symmetry_cell_setting 'tetragonal'
loop_
_space_group_symop_operation_xyz
x,y,z
1/2-y,x,z
1/2-x,1/2-y,z
y,1/2-x,z
1/2+x,-y,1/2-z
-x,1/2+y,1/2-z
1/2+y,1/2+x,1/2-z
-y,-x,1/2-z
-x,-y,-z
1/2+y,-x,-z
1/2+x,1/2+y,-z
-y,1/2+x,-z
1/2-x,y,1/2+z
x,1/2-y,1/2+z
1/2-y,1/2-x,1/2+z
y,x,1/2+z
loop_
_atom_site_type_symbol
_atom_site_label
_atom_site_fract_x
_atom_site_fract_y
_atom_site_fract_z
Si Si1 0.820950 0.179051 0.901239
Si Si2 0.580450 0.209446 0.405123
Si Si3 0.086410 0.508974 0.250000
Si Si4 0.963117 0.114356 0.529576
Si Si5 0.963117 0.385643 0.470424
Si Si6 0.013601 0.436504 0.250000
Si Si7 0.209446 0.919550 0.094875
Si Si8 0.750000 0.250000 0.000000
O O1 0.833125 0.166876 0.750000
O O2 0.868802 0.196713 0.966026
O O3 0.803287 0.131198 0.966025
O O4 0.781761 0.218239 0.906832
O O5 0.547410 0.165312 0.417127
O O6 0.582583 0.225713 0.249999
O O7 0.560576 0.250000 0.499999
O O8 0.043654 0.543654 0.250000
O O9 0.117898 0.518200 0.379009
O O10 0.065944 0.456576 0.250000
O O11 0.117898 0.518200 0.120990
O O12 0.917116 0.082884 0.542805
O O13 0.952590 0.165312 0.582873
O O14 0.004787 0.093730 0.617831
O O15 0.004787 0.406269 0.382169
O O16 0.979314 0.479314 0.250000
#
# Coordination Sequence:
#
# PCOD8315465 Si02
#       8
#    16  16  16  16  16  16  16   4
#     4  10  21  33  47  58  76  99 134 178 235 277
#     4  11  22  35  47  62  80 109 143 177 222 274
#     4   9  18  28  43  70  92 104 131 164 205 262
#     4  10  18  30  47  64  87 113 135 169 216 267
#     4  10  18  30  47  64  87 113 135 169 216 267
#     4   9  16  28  47  66  86 112 133 160 205 264
#     4  11  22  35  47  62  80 109 143 177 222 274
#     4  12  18  36  44  66  68  96 134 200 230 268
#
# _framework density 13.898369000000001
#
# number of rings (size 3 to 8) (size 9 to 14) (size 15 to 20)
#    0.000    1.931    4.138    1.034    1.931    3.310 
#    0.000    0.690    0.000    0.000    0.000    0.000 
#    0.000    0.000    0.000    0.000    0.000    0.000 
#
# Total GULP energy -1438232.812269 kJ/mol
# GULP energy per Si atom -12398.558726 kJ/mol
# Density = 1.386674 g / cm^3
# Si number density = 13.898369 Si / 1000 Ang^3
#
#
#
# Elastic Constant Matrix: (Units=GPa)
#
#
# Indices 1 2 3 4 5 6 
#
# 1 40.1639 25.0565 16.2540 0.0000 0.0000 0.0000
# 2 25.0565 40.1639 16.2540 0.0000 0.0000 0.0000
# 3 16.2540 16.2540 90.1263 0.0000 0.0000 0.0000
# 4 0.0000 0.0000 0.0000 3.3229 0.0000 0.0000
# 5 0.0000 0.0000 0.0000 0.0000 3.3227 0.0000
# 6 0.0000 0.0000 0.0000 0.0000 0.0000 18.5544
#
#
#
# Elastic Compliance Matrix: (Units=1/GPa)
#
#
# Indices 1 2 3 4 5 6 
#
# 1 0.041520 -0.024673 -0.003038 0.000000 0.000000 0.000000
# 2 -0.024673 0.041520 -0.003038 0.000000 0.000000 0.000000
# 3 -0.003038 -0.003038 0.012191 0.000000 0.000000 0.000000
# 4 0.000000 0.000000 0.000000 0.300941 0.000000 0.000000
# 5 0.000000 0.000000 0.000000 0.000000 0.300958 0.000000
# 6 0.000000 0.000000 0.000000 0.000000 0.000000 0.053896
#
#
# Mechanical properties :
#
#
# Convention : Reuss Voigt Hill
#
# Bulk Modulus (GPa) = 29.64524 31.73147 30.68835
# Shear Modulus (GPa) = 6.06967 12.56598 9.31782
#
# Velocity S-wave (km/s) = 2.09205 3.01014 2.59207
# Velocity P-wave (km/s) = 5.21650 5.91286 5.57556
#
# Compressibility (1/GPa) = 0.03373223
#
# Stress axis : x y z
#
# Youngs Moduli (GPa) = 24.08477 24.08480 82.02480
#
# Poissons Ratio (x) = 0.59424 0.24922
# Poissons Ratio (y) = 0.59424 0.24922
# Poissons Ratio (z) = 0.07318 0.07318
#
# Static dielectric constant tensor:
#      x y z
#    x 2.544990 0.000000 0.000000 
#    y 0.000000 2.544990 0.000000 
#    z 0.000000 0.000000 2.851610 
# 
# 
# High freq. dielectric constant tensor:
#      x y z
#    x 1.495950 0.000000 0.000000 
#    y 0.000000 1.495950 0.000000 
#    z 0.000000 0.000000 1.543050 
# 
# From -- ./inp_files/1106.got.cif
#   From: 2010.03.12/outbox.cif.g09.slc.cpg/sg130_1_cif.got.tgz:1106.got - 2010.04.06 17:30:23.
