data_PCOD8315880
_publ_section_title
;
Structure prediction by ZEFSAII (Michael W. Deem and Ramdas Pophale) SiO2 
 PCOD8315880
Probable space group: P 42/M M C
;
_chemical_formula_sum "Si O2"
_cell_formula_units_Z 96
_cell_length_a 15.082171
_cell_length_b 15.082171
_cell_length_c 24.293134
_cell_angle_alpha 90.000000
_cell_angle_beta 90.000000
_cell_angle_gamma 90.000000
_cell_volume 5526.004912
_symmetry_space_group_name_H-M "P 42/M M C"
_symmetry_group_IT_number 131
_symmetry_cell_setting 'tetragonal'
loop_
_space_group_symop_operation_xyz
x,y,z
-x,-y,z
-y,x,1/2+z
y,-x,1/2+z
-x,y,-z
x,-y,-z
y,x,1/2-z
-y,-x,1/2-z
-x,-y,-z
x,y,-z
y,-x,1/2-z
-y,x,1/2-z
x,-y,z
-x,y,z
-y,-x,1/2+z
y,x,1/2+z
loop_
_atom_site_type_symbol
_atom_site_label
_atom_site_fract_x
_atom_site_fract_y
_atom_site_fract_z
Si Si1 0.217933 0.844733 0.395861
Si Si2 0.598599 0.101516 0.564969
Si Si3 0.228875 0.901476 0.721622
Si Si4 0.595400 0.897966 0.774008
Si Si5 0.102529 0.900494 0.000000
Si Si6 0.596507 0.104287 0.000000
Si Si7 0.897880 0.682976 0.386673
O O1 0.321618 0.835918 0.413326
O O2 0.216197 0.910401 0.343916
O O3 0.155640 0.874040 0.446112
O O4 0.175300 0.755888 0.371368
O O5 0.597437 0.108618 0.500000
O O6 0.500000 0.129680 0.587318
O O7 0.618911 0.000000 0.582670
O O8 0.149988 0.850013 0.750000
O O9 0.323661 0.856292 0.738530
O O10 0.226079 0.000000 0.747222
O O11 0.500000 0.852326 0.760072
O O12 0.609169 0.889185 0.839738
O O13 0.588739 0.000000 0.757075
O O14 0.000000 0.917324 0.000000
O O15 0.148183 0.000000 0.000000
O O16 0.647900 0.134405 0.945749
O O17 0.500000 0.149899 0.000000
O O18 0.584335 0.000000 0.000000
O O19 0.000000 0.718453 0.389346
#
# Coordination Sequence:
#
# PCOD8315880 Si02
#       7
#    16  16  16  16   8   8  16
#     4  12  21  34  54  75 105 139 176 220 267 311
#     4   9  18  33  52  73  98 131 172 219 273 321
#     4  11  23  37  52  74 105 143 185 223 260 309
#     4   9  18  35  56  75 100 137 179 224 271 316
#     4  11  23  35  48  71 102 142 189 222 252 302
#     4   9  17  29  47  74 104 135 170 208 259 316
#     4  10  19  31  49  75 108 142 173 209 258 317
#
# _framework density 17.372406000000002
#
# number of rings (size 3 to 8) (size 9 to 14) (size 15 to 20)
#    0.000    1.833    2.500    3.500    0.000    4.167 
#    0.000    1.667    0.000    0.000    0.000    0.000 
#    0.000    5.000    0.000    0.000    0.000    0.000 
#
# Total GULP energy -1189335.524127 kJ/mol
# GULP energy per Si atom -12388.911710 kJ/mol
# Density = 1.733287 g / cm^3
# Si number density = 17.372406 Si / 1000 Ang^3
#
#
#
# Elastic Constant Matrix: (Units=GPa)
#
#
# Indices 1 2 3 4 5 6 
#
# 1 96.3791 41.5234 22.7346 0.0000 0.0000 0.0000
# 2 41.5234 96.3767 22.7338 0.0000 0.0000 0.0000
# 3 22.7346 22.7338 98.9519 0.0000 0.0000 0.0000
# 4 0.0000 0.0000 0.0000 12.9830 0.0000 0.0000
# 5 0.0000 0.0000 0.0000 0.0000 12.9835 0.0000
# 6 0.0000 0.0000 0.0000 0.0000 0.0000 3.5801
#
#
#
# Elastic Compliance Matrix: (Units=1/GPa)
#
#
# Indices 1 2 3 4 5 6 
#
# 1 0.013038 -0.005192 -0.001803 0.000000 0.000000 0.000000
# 2 -0.005192 0.013038 -0.001803 0.000000 0.000000 0.000000
# 3 -0.001803 -0.001803 0.010934 0.000000 0.000000 0.000000
# 4 0.000000 0.000000 0.000000 0.077024 0.000000 0.000000
# 5 0.000000 0.000000 0.000000 0.000000 0.077021 0.000000
# 6 0.000000 0.000000 0.000000 0.000000 0.000000 0.279320
#
#
# Mechanical properties :
#
#
# Convention : Reuss Voigt Hill
#
# Bulk Modulus (GPa) = 51.50487 51.74348 51.62418
# Shear Modulus (GPa) = 10.11242 19.55706 14.83474
#
# Velocity S-wave (km/s) = 2.41529 3.35887 2.92537
# Velocity P-wave (km/s) = 6.12291 6.70016 6.41803
#
# Compressibility (1/GPa) = 0.01941564
#
# Stress axis : x y z
#
# Youngs Moduli (GPa) = 76.69989 76.69814 91.45607
#
# Poissons Ratio (x) = 0.39822 0.16486
# Poissons Ratio (y) = 0.39823 0.16486
# Poissons Ratio (z) = 0.13826 0.13825
#
# Static dielectric constant tensor:
#      x y z
#    x 3.298720 0.000000 0.000000 
#    y 0.000000 3.298720 0.000000 
#    z 0.000000 0.000000 6.242720 
# 
# 
# High freq. dielectric constant tensor:
#      x y z
#    x 1.644070 0.000000 0.000000 
#    y 0.000000 1.644070 0.000000 
#    z 0.000000 0.000000 1.687470 
# 
# From -- ./inp_files/11151.got.cif
#   From: 2010.03.12/outbox.cif.g09.slc.cpg/sg131_6_cif.got.tgz:11151.got - 2010.04.06 17:36:35.
