data_PCOD8315977
_publ_section_title
;
Structure prediction by ZEFSAII (Michael W. Deem and Ramdas Pophale) SiO2 
 PCOD8315977
Probable space group: P 42/M M C
;
_chemical_formula_sum "Si O2"
_cell_formula_units_Z 96
_cell_length_a 17.768726
_cell_length_b 17.768726
_cell_length_c 17.546692
_cell_angle_alpha 90.000000
_cell_angle_beta 90.000000
_cell_angle_gamma 90.000000
_cell_volume 5539.975368
_symmetry_space_group_name_H-M "P 42/M M C"
_symmetry_group_IT_number 131
_symmetry_cell_setting 'tetragonal'
loop_
_space_group_symop_operation_xyz
x,y,z
-x,-y,z
-y,x,1/2+z
y,-x,1/2+z
-x,y,-z
x,-y,-z
y,x,1/2-z
-y,-x,1/2-z
-x,-y,-z
x,y,-z
y,-x,1/2-z
-y,x,1/2-z
x,-y,z
-x,y,z
-y,-x,1/2+z
y,x,1/2+z
loop_
_atom_site_type_symbol
_atom_site_label
_atom_site_fract_x
_atom_site_fract_y
_atom_site_fract_z
Si Si1 0.582902 0.916848 0.589863
Si Si2 0.582419 0.781932 0.084764
Si Si3 0.300268 0.585166 0.736168
Si Si4 0.693333 0.189565 0.327897
Si Si5 0.741232 0.832860 0.087797
Si Si6 0.201451 0.087782 0.225437
O O1 0.580995 0.918005 0.500000
O O2 0.500000 0.894640 0.621287
O O3 0.644045 0.857585 0.614550
O O4 0.604395 0.000000 0.620591
O O5 0.500000 0.822233 0.093867
O O6 0.588374 0.715278 0.145900
O O7 0.650357 0.841837 0.095151
O O8 0.589408 0.745866 0.000000
O O9 0.384789 0.615212 0.750000
O O10 0.293511 0.500000 0.767435
O O11 0.242947 0.639878 0.779327
O O12 0.751565 0.237400 0.377804
O O13 0.735270 0.133417 0.270869
O O14 0.782720 0.898599 0.135442
O O15 0.767678 0.839210 0.000000
O O16 0.119525 0.119525 0.250000
O O17 0.204496 0.000000 0.244831
#
# Coordination Sequence:
#
# PCOD8315977 Si02
#       6
#    16  16  16  16  16  16
#     4   9  18  31  46  67  97 130 160 195 250 315
#     4   9  17  31  52  74 100 137 175 211 257 309
#     4  11  20  33  51  74 104 138 177 224 268 313
#     4  11  18  33  50  78  99 129 170 219 258 306
#     4  10  19  33  55  78 104 135 174 218 259 304
#     4  10  21  36  55  79 107 134 169 209 256 313
#
# _framework density 17.328596000000001
#
# number of rings (size 3 to 8) (size 9 to 14) (size 15 to 20)
#    0.000    2.000    3.333    2.500    0.000    0.667 
#    0.000    0.000    0.000    7.500    0.000    9.333 
#    0.000    0.000    0.000    0.000    0.000    0.000 
#
# Total GULP energy -1189764.805150 kJ/mol
# GULP energy per Si atom -12393.383387 kJ/mol
# Density = 1.728916 g / cm^3
# Si number density = 17.328596 Si / 1000 Ang^3
#
#
#
# Elastic Constant Matrix: (Units=GPa)
#
#
# Indices 1 2 3 4 5 6 
#
# 1 95.5325 43.9521 27.7456 0.0000 0.0000 0.0000
# 2 43.9521 95.5350 27.7450 0.0000 0.0000 0.0000
# 3 27.7456 27.7450 81.6964 0.0000 0.0000 0.0000
# 4 0.0000 0.0000 0.0000 18.5141 0.0000 0.0000
# 5 0.0000 0.0000 0.0000 0.0000 18.5144 0.0000
# 6 0.0000 0.0000 0.0000 0.0000 0.0000 15.3811
#
#
#
# Elastic Compliance Matrix: (Units=1/GPa)
#
#
# Indices 1 2 3 4 5 6 
#
# 1 0.013838 -0.005549 -0.002815 0.000000 0.000000 0.000000
# 2 -0.005549 0.013838 -0.002815 0.000000 0.000000 0.000000
# 3 -0.002815 -0.002815 0.014153 0.000000 0.000000 0.000000
# 4 0.000000 0.000000 0.000000 0.054013 0.000000 0.000000
# 5 0.000000 0.000000 0.000000 0.000000 0.054012 0.000000
# 6 0.000000 0.000000 0.000000 0.000000 0.000000 0.065015
#
#
# Mechanical properties :
#
#
# Convention : Reuss Voigt Hill
#
# Bulk Modulus (GPa) = 51.36019 52.40548 51.88283
# Shear Modulus (GPa) = 20.51564 22.03666 21.27615
#
# Velocity S-wave (km/s) = 3.44454 3.56995 3.50781
# Velocity P-wave (km/s) = 6.74709 6.87754 6.81263
#
# Compressibility (1/GPa) = 0.01947033
#
# Stress axis : x y z
#
# Youngs Moduli (GPa) = 72.26396 72.26642 70.65873
#
# Poissons Ratio (x) = 0.40099 0.19892
# Poissons Ratio (y) = 0.40098 0.19890
# Poissons Ratio (z) = 0.20344 0.20343
#
# Static dielectric constant tensor:
#      x y z
#    x 3.372760 0.000000 0.000000 
#    y 0.000000 3.372750 0.000000 
#    z 0.000000 0.000000 3.349600 
# 
# 
# High freq. dielectric constant tensor:
#      x y z
#    x 1.657480 0.000000 0.000000 
#    y 0.000000 1.657480 0.000000 
#    z 0.000000 0.000000 1.677180 
# 
# From -- ./inp_files/7930.got.cif
#   From: 2010.03.12/outbox.cif.g09.slc.cpg/sg131_4_cif.got.tgz:7930.got - 2010.04.06 17:36:35.
