data_PCOD8315878
_publ_section_title
;
Structure prediction by ZEFSAII (Michael W. Deem and Ramdas Pophale) SiO2 
 PCOD8315878
Probable space group: P 42/M M C
;
_chemical_formula_sum "Si O2"
_cell_formula_units_Z 104
_cell_length_a 24.652762
_cell_length_b 24.652762
_cell_length_c 9.369933
_cell_angle_alpha 90.000000
_cell_angle_beta 90.000000
_cell_angle_gamma 90.000000
_cell_volume 5694.658058
_symmetry_space_group_name_H-M "P 42/M M C"
_symmetry_group_IT_number 131
_symmetry_cell_setting 'tetragonal'
loop_
_space_group_symop_operation_xyz
x,y,z
-x,-y,z
-y,x,1/2+z
y,-x,1/2+z
-x,y,-z
x,-y,-z
y,x,1/2-z
-y,-x,1/2-z
-x,-y,-z
x,y,-z
y,-x,1/2-z
-y,x,1/2-z
x,-y,z
-x,y,z
-y,-x,1/2+z
y,x,1/2+z
loop_
_atom_site_type_symbol
_atom_site_label
_atom_site_fract_x
_atom_site_fract_y
_atom_site_fract_z
Si Si1 0.745790 0.939283 0.659803
Si Si2 0.899850 0.436115 0.159283
Si Si3 0.000000 0.435003 0.661346
Si Si4 0.831266 0.752436 0.330490
Si Si5 0.795298 0.561064 0.336521
Si Si6 0.941888 0.873126 0.843493
Si Si7 0.738596 0.332348 0.661588
O O1 0.722287 0.927214 0.500000
O O2 0.732912 0.889872 0.768705
O O3 0.809520 0.941345 0.648580
O O4 0.725403 0.000000 0.711165
O O5 0.908024 0.500000 0.149937
O O6 0.947960 0.411357 0.255121
O O7 0.843658 0.421605 0.233326
O O8 0.901408 0.410904 0.000000
O O9 0.000000 0.500000 0.658773
O O10 0.000000 0.412450 0.500000
O O11 0.805313 0.805313 0.250000
O O12 0.836528 0.765234 0.500000
O O13 0.792572 0.701227 0.299736
O O14 0.816054 0.565164 0.500000
O O15 0.774615 0.500000 0.303257
O O16 0.747265 0.603679 0.308283
O O17 0.892135 0.892135 0.750000
O O18 0.000000 0.892830 0.780627
O O19 0.934071 0.898079 0.000000
O O20 0.686776 0.313225 0.750000
O O21 0.722601 0.321654 0.500000
#
# Coordination Sequence:
#
# PCOD8315878 Si02
#       7
#    16  16   8  16  16  16  16
#     4   9  18  32  48  66  89 115 146 189 240 291
#     4   9  16  25  39  62  91 122 159 206 254 296
#     4   9  15  23  37  57  83 119 163 207 251 299
#     4  10  19  31  49  72  96 122 156 196 240 291
#     4   9  17  31  51  73  99 132 169 205 244 296
#     4   9  18  30  41  55  76 101 130 167 211 262
#     4   9  19  34  52  76 104 133 166 203 246 292
#
# _framework density 18.262729
#
# number of rings (size 3 to 8) (size 9 to 14) (size 15 to 20)
#    0.000    2.846    0.000    2.538    0.000    6.615 
#    0.000    2.308    1.692    0.000    0.000    0.000 
#    0.000    0.308    0.000    3.846    0.000    0.000 
#
# Total GULP energy -1288665.546360 kJ/mol
# GULP energy per Si atom -12391.014869 kJ/mol
# Density = 1.822116 g / cm^3
# Si number density = 18.262729 Si / 1000 Ang^3
#
#
#
# Elastic Constant Matrix: (Units=GPa)
#
#
# Indices 1 2 3 4 5 6 
#
# 1 74.3345 32.3912 43.0656 0.0000 0.0000 0.0000
# 2 32.3912 74.3318 43.0652 0.0000 0.0000 0.0000
# 3 43.0656 43.0652 108.4652 0.0000 0.0000 0.0000
# 4 0.0000 0.0000 0.0000 6.0477 0.0000 0.0000
# 5 0.0000 0.0000 0.0000 0.0000 6.0470 0.0000
# 6 0.0000 0.0000 0.0000 0.0000 0.0000 14.4408
#
#
#
# Elastic Compliance Matrix: (Units=1/GPa)
#
#
# Indices 1 2 3 4 5 6 
#
# 1 0.018815 -0.005027 -0.005474 0.000000 0.000000 0.000000
# 2 -0.005027 0.018816 -0.005475 0.000000 0.000000 0.000000
# 3 -0.005474 -0.005475 0.013567 0.000000 0.000000 0.000000
# 4 0.000000 0.000000 0.000000 0.165352 0.000000 0.000000
# 5 0.000000 0.000000 0.000000 0.000000 0.165371 0.000000
# 6 0.000000 0.000000 0.000000 0.000000 0.000000 0.069248
#
#
# Mechanical properties :
#
#
# Convention : Reuss Voigt Hill
#
# Bulk Modulus (GPa) = 51.96152 54.90838 53.43495
# Shear Modulus (GPa) = 10.21375 14.54774 12.38075
#
# Velocity S-wave (km/s) = 2.36745 2.82544 2.60652
# Velocity P-wave (km/s) = 5.99892 6.38555 6.19525
#
# Compressibility (1/GPa) = 0.01924501
#
# Stress axis : x y z
#
# Youngs Moduli (GPa) = 53.14946 53.14730 73.70971
#
# Poissons Ratio (x) = 0.26718 0.40351
# Poissons Ratio (y) = 0.26719 0.40353
# Poissons Ratio (z) = 0.29096 0.29096
#
# Static dielectric constant tensor:
#      x y z
#    x 3.236740 0.000000 0.000000 
#    y 0.000000 3.236750 0.000000 
#    z 0.000000 0.000000 3.637390 
# 
# 
# High freq. dielectric constant tensor:
#      x y z
#    x 1.681270 0.000000 0.000000 
#    y 0.000000 1.681270 0.000000 
#    z 0.000000 0.000000 1.713830 
# 
# From -- ./inp_files/2557.got.cif
#   From: 2010.03.12/outbox.cif.g09.slc.cpg/sg131_2_cif.got.tgz:2557.got - 2010.04.06 17:36:35.
