data_PCOD8315773
_publ_section_title
;
Structure prediction by ZEFSAII (Michael W. Deem and Ramdas Pophale) SiO2 
 PCOD8315773
Probable space group: P 42/M M C
;
_chemical_formula_sum "Si O2"
_cell_formula_units_Z 120
_cell_length_a 27.475732
_cell_length_b 27.475732
_cell_length_c 8.939832
_cell_angle_alpha 90.000000
_cell_angle_beta 90.000000
_cell_angle_gamma 90.000000
_cell_volume 6748.820864
_symmetry_space_group_name_H-M "P 42/M M C"
_symmetry_group_IT_number 131
_symmetry_cell_setting 'tetragonal'
loop_
_space_group_symop_operation_xyz
x,y,z
-x,-y,z
-y,x,1/2+z
y,-x,1/2+z
-x,y,-z
x,-y,-z
y,x,1/2-z
-y,-x,1/2-z
-x,-y,-z
x,y,-z
y,-x,1/2-z
-y,x,1/2-z
x,-y,z
-x,y,z
-y,-x,1/2+z
y,x,1/2+z
loop_
_atom_site_type_symbol
_atom_site_label
_atom_site_fract_x
_atom_site_fract_y
_atom_site_fract_z
Si Si1 0.386968 0.807534 0.676521
Si Si2 0.781612 0.287659 0.673265
Si Si3 0.000000 0.555027 0.821450
Si Si4 0.943271 0.732468 0.825082
Si Si5 0.726177 0.442688 0.667033
Si Si6 0.136924 0.792344 0.327084
Si Si7 0.371119 0.557150 0.825924
Si Si8 0.374717 0.916565 0.676773
O O1 0.388685 0.801496 0.500000
O O2 0.336281 0.789520 0.737422
O O3 0.429540 0.775804 0.748385
O O4 0.393407 0.863545 0.724786
O O5 0.734373 0.265628 0.750000
O O6 0.771625 0.298173 0.500000
O O7 0.827316 0.252786 0.697335
O O8 0.953402 0.584659 0.760197
O O9 0.000000 0.500000 0.756425
O O10 0.000000 0.552874 0.000000
O O11 0.914223 0.776242 0.745065
O O12 0.927890 0.679383 0.759207
O O13 0.000000 0.741015 0.793309
O O14 0.930992 0.735060 0.000000
O O15 0.726199 0.420314 0.500000
O O16 0.723562 0.500000 0.659978
O O17 0.679052 0.422781 0.754891
O O18 0.159355 0.840646 0.250000
O O19 0.128852 0.804725 0.500000
O O20 0.416626 0.583375 0.750000
O O21 0.377667 0.500000 0.796559
O O22 0.370022 0.569702 0.000000
O O23 0.371025 0.922677 0.500000
#
# Coordination Sequence:
#
# PCOD8315773 Si02
#       8
#    16  16   8  16  16  16  16  16
#     4  11  21  33  53  77 104 135 174 223 269 319
#     4  10  20  33  49  72 102 135 172 211 259 313
#     4   9  16  28  46  70 101 135 173 221 278 331
#     4  10  18  31  53  77 108 147 188 228 275 330
#     4  10  22  40  58  75 100 135 173 215 264 318
#     4  10  20  33  51  75 107 143 181 223 270 323
#     4  10  21  38  61  88 116 144 175 212 256 311
#     4   9  17  29  46  72 103 136 174 223 275 327
#
# _framework density 17.780884
#
# number of rings (size 3 to 8) (size 9 to 14) (size 15 to 20)
#    0.000    2.067    2.000    2.000    0.000    4.133 
#    0.000    4.667    0.000    0.000    0.000    0.000 
#    0.000    4.000    0.000    2.800    0.000    1.200 
#
# Total GULP energy -1488034.215759 kJ/mol
# GULP energy per Si atom -12400.285131 kJ/mol
# Density = 1.774041 g / cm^3
# Si number density = 17.780884 Si / 1000 Ang^3
#
#
#
# Elastic Constant Matrix: (Units=GPa)
#
#
# Indices 1 2 3 4 5 6 
#
# 1 87.6186 50.6217 37.4372 0.0000 0.0000 0.0000
# 2 50.6217 87.6306 37.4374 0.0000 0.0000 0.0000
# 3 37.4372 37.4374 71.8216 0.0000 0.0000 0.0000
# 4 0.0000 0.0000 0.0000 25.8167 0.0000 0.0000
# 5 0.0000 0.0000 0.0000 0.0000 25.8170 0.0000
# 6 0.0000 0.0000 0.0000 0.0000 0.0000 -14.9358
#
#
#
# Elastic Compliance Matrix: (Units=1/GPa)
#
#
# Indices 1 2 3 4 5 6 
#
# 1 0.018553 -0.008473 -0.005254 0.000000 0.000000 0.000000
# 2 -0.008473 0.018550 -0.005253 0.000000 0.000000 0.000000
# 3 -0.005254 -0.005253 0.019400 0.000000 0.000000 0.000000
# 4 0.000000 0.000000 0.000000 0.038735 0.000000 0.000000
# 5 0.000000 0.000000 0.000000 0.000000 0.038734 0.000000
# 6 0.000000 0.000000 0.000000 0.000000 0.000000 -0.066953
#
#
# Mechanical properties :
#
#
# Convention : Reuss Voigt Hill
#
# Bulk Modulus (GPa) = 53.92728 55.34037 54.63383
# Shear Modulus (GPa) = 44.97970 15.44457 30.21213
#
# Velocity S-wave (km/s) = 5.03504 2.95041 4.12653
# Velocity P-wave (km/s) = 8.01229 6.54199 7.31418
#
# Compressibility (1/GPa) = 0.01854349
#
# Stress axis : x y z
#
# Youngs Moduli (GPa) = 53.89829 53.90760 51.54550
#
# Poissons Ratio (x) = 0.45676 0.27084
# Poissons Ratio (y) = 0.45668 0.27076
# Poissons Ratio (z) = 0.28320 0.28317
#
# Static dielectric constant tensor:
#      x y z
#    x 3.582880 0.000000 0.000000 
#    y 0.000000 3.582670 0.000000 
#    z 0.000000 0.000000 3.314020 
# 
# 
# High freq. dielectric constant tensor:
#      x y z
#    x 1.681170 0.000000 0.000000 
#    y 0.000000 1.681170 0.000000 
#    z 0.000000 0.000000 1.679920 
# 
# From -- ./inp_files/2619.got.cif
#   From: 2010.03.12/outbox.cif.g09.slc.cpg/sg131_2_cif.got.tgz:2619.got - 2010.04.06 17:36:35.
