data_PCOD8315929
_publ_section_title
;
Structure prediction by ZEFSAII (Michael W. Deem and Ramdas Pophale) SiO2 
 PCOD8315929
Probable space group: P 42/M M C
;
_chemical_formula_sum "Si O2"
_cell_formula_units_Z 120
_cell_length_a 14.244802
_cell_length_b 14.244802
_cell_length_c 30.782580
_cell_angle_alpha 90.000000
_cell_angle_beta 90.000000
_cell_angle_gamma 90.000000
_cell_volume 6246.228259
_symmetry_space_group_name_H-M "P 42/M M C"
_symmetry_group_IT_number 131
_symmetry_cell_setting 'tetragonal'
loop_
_space_group_symop_operation_xyz
x,y,z
-x,-y,z
-y,x,1/2+z
y,-x,1/2+z
-x,y,-z
x,-y,-z
y,x,1/2-z
-y,-x,1/2-z
-x,-y,-z
x,y,-z
y,-x,1/2-z
-y,x,1/2-z
x,-y,z
-x,y,z
-y,-x,1/2+z
y,x,1/2+z
loop_
_atom_site_type_symbol
_atom_site_label
_atom_site_fract_x
_atom_site_fract_y
_atom_site_fract_z
Si Si1 0.287548 0.106209 0.224876
Si Si2 0.393595 0.282811 0.213256
Si Si3 0.892984 0.891455 0.828155
Si Si4 0.605446 0.799184 0.399265
Si Si5 0.608020 0.398850 0.624987
Si Si6 0.889823 0.790366 0.916216
Si Si7 0.895408 0.395538 0.810147
Si Si8 0.895064 0.112110 0.500000
O O1 0.354758 0.179535 0.200543
O O2 0.178187 0.125351 0.212292
O O3 0.310566 0.121981 0.276239
O O4 0.315622 0.000000 0.211557
O O5 0.328962 0.328962 0.250000
O O6 0.500000 0.276769 0.230877
O O7 0.387907 0.339935 0.169777
O O8 0.856887 0.831284 0.869610
O O9 0.000000 0.863066 0.813710
O O10 0.892078 0.000000 0.842594
O O11 0.500000 0.823520 0.416035
O O12 0.630063 0.688833 0.406656
O O13 0.682473 0.859958 0.424156
O O14 0.614098 0.819764 0.347966
O O15 0.633297 0.500000 0.602817
O O16 0.500000 0.395058 0.637759
O O17 0.846369 0.847290 0.956546
O O18 0.000000 0.798514 0.918103
O O19 0.886409 0.500000 0.788538
O O20 0.000000 0.383898 0.830270
O O21 0.000000 0.150191 0.500000
O O22 0.890820 0.000000 0.500000
#
# Coordination Sequence:
#
# PCOD8315929 Si02
#       8
#    16  16  16  16  16  16  16   8
#     4  10  20  33  49  69  96 133 176 220 262 305
#     4  11  21  32  47  66  89 119 160 211 265 314
#     4   9  18  33  52  72  96 129 170 216 261 303
#     4  10  19  32  51  73 100 135 172 209 251 304
#     4   9  18  31  46  66  92 123 161 205 252 300
#     4  10  19  32  53  80 107 134 166 204 249 309
#     4   9  17  29  45  66  94 132 177 218 257 307
#     4   9  18  34  57  83 110 139 167 199 247 308
#
# _framework density 19.211593000000001
#
# number of rings (size 3 to 8) (size 9 to 14) (size 15 to 20)
#    0.000    2.333    0.000    3.200    0.000    4.933 
#    0.000    2.333    0.000    2.800    0.000    7.933 
#    0.000    2.667    0.000    0.000    0.000    1.200 
#
# Total GULP energy -1487012.234220 kJ/mol
# GULP energy per Si atom -12391.768619 kJ/mol
# Density = 1.916787 g / cm^3
# Si number density = 19.211593 Si / 1000 Ang^3
#
#
#
# Elastic Constant Matrix: (Units=GPa)
#
#
# Indices 1 2 3 4 5 6 
#
# 1 67.5017 39.4809 26.9666 0.0000 0.0000 0.0000
# 2 39.4809 67.5017 26.9666 0.0000 0.0000 0.0000
# 3 26.9666 26.9666 54.3270 0.0000 0.0000 0.0000
# 4 0.0000 0.0000 0.0000 12.4029 0.0000 0.0000
# 5 0.0000 0.0000 0.0000 0.0000 12.4029 0.0000
# 6 0.0000 0.0000 0.0000 0.0000 0.0000 25.2997
#
#
#
# Elastic Compliance Matrix: (Units=1/GPa)
#
#
# Indices 1 2 3 4 5 6 
#
# 1 0.024077 -0.011610 -0.006188 0.000000 0.000000 0.000000
# 2 -0.011610 0.024077 -0.006188 0.000000 0.000000 0.000000
# 3 -0.006188 -0.006188 0.024551 0.000000 0.000000 0.000000
# 4 0.000000 0.000000 0.000000 0.080626 0.000000 0.000000
# 5 0.000000 0.000000 0.000000 0.000000 0.080626 0.000000
# 6 0.000000 0.000000 0.000000 0.000000 0.000000 0.039526
#
#
# Mechanical properties :
#
#
# Convention : Reuss Voigt Hill
#
# Bulk Modulus (GPa) = 40.43463 41.79540 41.11501
# Shear Modulus (GPa) = 15.16523 16.41553 15.79038
#
# Velocity S-wave (km/s) = 2.81264 2.92629 2.87002
# Velocity P-wave (km/s) = 5.62500 5.76368 5.69476
#
# Compressibility (1/GPa) = 0.02473128
#
# Stress axis : x y z
#
# Youngs Moduli (GPa) = 41.53278 41.53278 40.73231
#
# Poissons Ratio (x) = 0.48221 0.25207
# Poissons Ratio (y) = 0.48221 0.25207
# Poissons Ratio (z) = 0.25702 0.25702
#
# Static dielectric constant tensor:
#      x y z
#    x 3.930300 0.000000 0.000000 
#    y 0.000000 3.930300 0.000000 
#    z 0.000000 0.000000 3.204210 
# 
# 
# High freq. dielectric constant tensor:
#      x y z
#    x 1.756990 0.000000 0.000000 
#    y 0.000000 1.756990 0.000000 
#    z 0.000000 0.000000 1.686560 
# 
# From -- ./inp_files/13961.got.cif
#   From: 2010.03.12/outbox.cif.g09.slc.cpg/sg131_7_cif.got.tgz:13961.got - 2010.04.06 17:36:35.
