data_PCOD8315164
_publ_section_title
;
Structure prediction by ZEFSAII (Michael W. Deem and Ramdas Pophale) SiO2 
 PCOD8315164
Probable space group: P 4/N M M
;
_chemical_formula_sum "Si O2"
_cell_formula_units_Z 56
_cell_length_a 21.947136
_cell_length_b 21.947136
_cell_length_c 6.376684
_cell_angle_alpha 90.000000
_cell_angle_beta 90.000000
_cell_angle_gamma 90.000000
_cell_volume 3071.500607
_symmetry_space_group_name_H-M "P 4/N M M"
_symmetry_group_IT_number 129
_symmetry_cell_setting 'tetragonal'
loop_
_space_group_symop_operation_xyz
x,y,z
1/2-y,x,z
1/2-x,1/2-y,z
y,1/2-x,z
1/2+x,-y,-z
-x,1/2+y,-z
1/2+y,1/2+x,-z
-y,-x,-z
-x,-y,-z
1/2+y,-x,-z
1/2+x,1/2+y,-z
-y,1/2+x,-z
1/2-x,y,z
x,1/2-y,z
1/2-y,1/2-x,z
y,x,z
loop_
_atom_site_type_symbol
_atom_site_label
_atom_site_fract_x
_atom_site_fract_y
_atom_site_fract_z
Si Si1 0.819288 0.030784 0.276464
Si Si2 0.085697 0.585697 0.000000
Si Si3 0.416278 0.181665 0.011337
Si Si4 0.108237 0.488104 0.337257
O O1 0.750000 0.051577 0.323054
O O2 0.858931 0.028847 0.487580
O O3 0.848906 0.079799 0.115806
O O4 0.821064 0.963785 0.178384
O O5 0.032520 0.576869 0.830510
O O6 0.393172 0.250000 0.049663
O O7 0.358925 0.141076 0.945089
O O8 0.446351 0.158846 0.226495
O O9 0.054756 0.445244 0.432343
#
# Coordination Sequence:
#
# PCOD8315164 Si02
#       4
#    16   8  16  16
#     4  10  20  34  52  73  99 131 165 203 250 301
#     4  10  21  34  50  77 104 128 162 204 250 299
#     4   9  18  31  47  70 100 135 174 210 243 283
#     4  10  19  32  51  75 104 134 165 205 251 298
#
# _framework density 18.232132
#
# number of rings (size 3 to 8) (size 9 to 14) (size 15 to 20)
#    0.000    2.286    0.000    3.000    0.000    6.000 
#    0.000    0.000    0.000    0.429    0.000    4.000 
#    0.000    0.000    0.000    0.000    0.000    0.000 
#
# Total GULP energy -694406.562117 kJ/mol
# GULP energy per Si atom -12400.117181 kJ/mol
# Density = 1.819063 g / cm^3
# Si number density = 18.232132 Si / 1000 Ang^3
#
#
#
# Elastic Constant Matrix: (Units=GPa)
#
#
# Indices 1 2 3 4 5 6 
#
# 1 95.2094 64.9139 41.8638 0.0000 0.0000 0.0000
# 2 64.9139 95.2094 41.8638 0.0000 0.0000 0.0000
# 3 41.8638 41.8638 90.0778 0.0000 0.0000 0.0000
# 4 0.0000 0.0000 0.0000 24.6000 0.0000 0.0000
# 5 0.0000 0.0000 0.0000 0.0000 24.6000 0.0000
# 6 0.0000 0.0000 0.0000 0.0000 0.0000 24.5437
#
#
#
# Elastic Compliance Matrix: (Units=1/GPa)
#
#
# Indices 1 2 3 4 5 6 
#
# 1 0.020629 -0.012379 -0.003834 0.000000 0.000000 0.000000
# 2 -0.012379 0.020629 -0.003834 0.000000 0.000000 0.000000
# 3 -0.003834 -0.003834 0.014665 0.000000 0.000000 0.000000
# 4 0.000000 0.000000 0.000000 0.040650 0.000000 0.000000
# 5 0.000000 0.000000 0.000000 0.000000 0.040650 0.000000
# 6 0.000000 0.000000 0.000000 0.000000 0.000000 0.040744
#
#
# Mechanical properties :
#
#
# Convention : Reuss Voigt Hill
#
# Bulk Modulus (GPa) = 63.17650 64.19771 63.68711
# Shear Modulus (GPa) = 22.38744 23.53909 22.96326
#
# Velocity S-wave (km/s) = 3.50796 3.59705 3.55279
# Velocity P-wave (km/s) = 7.15081 7.24841 7.19978
#
# Compressibility (1/GPa) = 0.01582867
#
# Stress axis : x y z
#
# Youngs Moduli (GPa) = 48.47507 48.47507 68.18745
#
# Poissons Ratio (x) = 0.60008 0.26145
# Poissons Ratio (y) = 0.60008 0.26145
# Poissons Ratio (z) = 0.18587 0.18587
#
# Static dielectric constant tensor:
#      x y z
#    x 3.344700 0.000000 0.000000 
#    y 0.000000 3.344700 0.000000 
#    z 0.000000 0.000000 3.342020 
# 
# 
# High freq. dielectric constant tensor:
#      x y z
#    x 1.693320 0.000000 0.000000 
#    y 0.000000 1.693320 0.000000 
#    z 0.000000 0.000000 1.710480 
# 
# From -- ./inp_files/670.got.cif
#   From: 2010.03.12/outbox.cif.g09.slc.cpg/sg129_1_cif.got.tgz:670.got - 2010.04.06 17:19:44.
