data_PCOD8315546
_publ_section_title
;
Structure prediction by ZEFSAII (Michael W. Deem and Ramdas Pophale) SiO2 
 PCOD8315546
Probable space group: P 4/N C C
;
_chemical_formula_sum "Si O2"
_cell_formula_units_Z 128
_cell_length_a 17.772262
_cell_length_b 17.772262
_cell_length_c 23.395569
_cell_angle_alpha 90.000000
_cell_angle_beta 90.000000
_cell_angle_gamma 90.000000
_cell_volume 7389.567594
_symmetry_space_group_name_H-M "P 4/N C C"
_symmetry_group_IT_number 130
_symmetry_cell_setting 'tetragonal'
loop_
_space_group_symop_operation_xyz
x,y,z
1/2-y,x,z
1/2-x,1/2-y,z
y,1/2-x,z
1/2+x,-y,1/2-z
-x,1/2+y,1/2-z
1/2+y,1/2+x,1/2-z
-y,-x,1/2-z
-x,-y,-z
1/2+y,-x,-z
1/2+x,1/2+y,-z
-y,1/2+x,-z
1/2-x,y,1/2+z
x,1/2-y,1/2+z
1/2-y,1/2-x,1/2+z
y,x,1/2+z
loop_
_atom_site_type_symbol
_atom_site_label
_atom_site_fract_x
_atom_site_fract_y
_atom_site_fract_z
Si Si1 0.181642 0.446346 0.001318
Si Si2 0.004806 0.387301 0.763094
Si Si3 0.924704 0.016329 0.664567
Si Si4 0.771548 0.629966 0.108453
Si Si5 0.560866 0.455161 0.534433
Si Si6 0.028260 0.221179 0.786467
Si Si7 0.160090 0.057217 0.054085
Si Si8 0.122546 0.056438 0.183809
O O1 0.216036 0.434530 0.938433
O O2 0.139677 0.528745 0.999322
O O3 0.250327 0.445675 0.045801
O O4 0.122268 0.380413 0.017278
O O5 0.046911 0.436086 0.811479
O O6 0.989143 0.302668 0.783891
O O7 0.059244 0.385428 0.707216
O O8 0.923665 0.423665 0.750000
O O9 0.929483 0.008939 0.596777
O O10 0.973601 0.085336 0.688039
O O11 0.839356 0.029974 0.686437
O O12 0.836187 0.690182 0.098268
O O13 0.775853 0.600548 0.172822
O O14 0.500000 0.500000 0.500000
O O15 0.527717 0.370395 0.538994
O O16 0.056059 0.196426 0.723479
O O17 0.144545 0.078224 0.119859
#
# Coordination Sequence:
#
# PCOD8315546 Si02
#       8
#    16  16  16  16  16  16  16  16
#     4  11  20  35  56  79 110 144 185 227 274 326
#     4   9  19  33  53  79 106 134 180 228 272 316
#     4   9  17  35  53  74 105 144 174 223 269 324
#     4  11  21  32  48  76 112 141 173 216 274 337
#     4   9  19  35  55  80 106 141 192 227 266 324
#     4  11  19  30  56  77 103 139 177 223 270 323
#     4  10  22  35  57  78 110 149 181 229 275 332
#     4   9  20  36  51  73 108 143 184 213 268 324
#
# _framework density 17.321718000000001
#
# number of rings (size 3 to 8) (size 9 to 14) (size 15 to 20)
#    0.000    2.125    2.500    2.625    1.750    0.250 
#    0.000    0.000    0.000    1.875    0.000    3.500 
#    0.000    0.000    0.000    0.000    0.000    0.000 
#
# Total GULP energy -1586137.566847 kJ/mol
# GULP energy per Si atom -12391.699741 kJ/mol
# Density = 1.728229 g / cm^3
# Si number density = 17.321718 Si / 1000 Ang^3
#
#
#
# Elastic Constant Matrix: (Units=GPa)
#
#
# Indices 1 2 3 4 5 6 
#
# 1 92.8511 42.3334 32.4493 0.0000 0.0000 0.0000
# 2 42.3334 92.8511 32.4493 0.0000 0.0000 0.0000
# 3 32.4493 32.4493 90.6423 0.0000 0.0000 0.0000
# 4 0.0000 0.0000 0.0000 25.4827 0.0000 0.0000
# 5 0.0000 0.0000 0.0000 0.0000 25.4827 0.0000
# 6 0.0000 0.0000 0.0000 0.0000 0.0000 34.9991
#
#
#
# Elastic Compliance Matrix: (Units=1/GPa)
#
#
# Indices 1 2 3 4 5 6 
#
# 1 0.014364 -0.005431 -0.003198 0.000000 0.000000 0.000000
# 2 -0.005431 0.014364 -0.003198 0.000000 0.000000 0.000000
# 3 -0.003198 -0.003198 0.013322 0.000000 0.000000 0.000000
# 4 0.000000 0.000000 0.000000 0.039242 0.000000 0.000000
# 5 0.000000 0.000000 0.000000 0.000000 0.039242 0.000000
# 6 0.000000 0.000000 0.000000 0.000000 0.000000 0.028572
#
#
# Mechanical properties :
#
#
# Convention : Reuss Voigt Hill
#
# Bulk Modulus (GPa) = 54.36021 54.53430 54.44725
# Shear Modulus (GPa) = 27.94984 28.46704 28.20844
#
# Velocity S-wave (km/s) = 4.02129 4.05832 4.03985
# Velocity P-wave (km/s) = 7.28092 7.31516 7.29806
#
# Compressibility (1/GPa) = 0.01839581
#
# Stress axis : x y z
#
# Youngs Moduli (GPa) = 69.61968 69.61968 75.06418
#
# Poissons Ratio (x) = 0.37812 0.24004
# Poissons Ratio (y) = 0.37812 0.24004
# Poissons Ratio (z) = 0.22263 0.22263
#
# Static dielectric constant tensor:
#      x y z
#    x 3.227060 0.000000 0.000000 
#    y 0.000000 3.227060 0.000000 
#    z 0.000000 0.000000 3.336380 
# 
# 
# High freq. dielectric constant tensor:
#      x y z
#    x 1.648420 0.000000 0.000000 
#    y 0.000000 1.648420 0.000000 
#    z 0.000000 0.000000 1.685460 
# 
# From -- ./inp_files/4398.got.cif
#   From: 2010.03.12/outbox.cif.g09.slc.cpg/sg130_3_cif.got.tgz:4398.got - 2010.04.06 17:30:23.
