data_PCOD8315117
_publ_section_title
;
Structure prediction by ZEFSAII (Michael W. Deem and Ramdas Pophale) SiO2 
 PCOD8315117
Probable space group: P 4/N M M
;
_chemical_formula_sum "Si O2"
_cell_formula_units_Z 72
_cell_length_a 26.180628
_cell_length_b 26.180628
_cell_length_c 6.050482
_cell_angle_alpha 90.000000
_cell_angle_beta 90.000000
_cell_angle_gamma 90.000000
_cell_volume 4147.153334
_symmetry_space_group_name_H-M "P 4/N M M"
_symmetry_group_IT_number 129
_symmetry_cell_setting 'tetragonal'
loop_
_space_group_symop_operation_xyz
x,y,z
1/2-y,x,z
1/2-x,1/2-y,z
y,1/2-x,z
1/2+x,-y,-z
-x,1/2+y,-z
1/2+y,1/2+x,-z
-y,-x,-z
-x,-y,-z
1/2+y,-x,-z
1/2+x,1/2+y,-z
-y,1/2+x,-z
1/2-x,y,z
x,1/2-y,z
1/2-y,1/2-x,z
y,x,z
loop_
_atom_site_type_symbol
_atom_site_label
_atom_site_fract_x
_atom_site_fract_y
_atom_site_fract_z
Si Si1 0.481760 0.481760 0.755329
Si Si2 0.625742 0.954040 0.850641
Si Si3 0.691983 0.889343 0.521871
Si Si4 0.605482 0.025745 0.467989
Si Si5 0.807278 0.514060 0.231246
O O1 0.500000 0.500000 0.500000
O O2 0.421852 0.496241 0.739886
O O3 0.500000 0.500000 0.000000
O O4 0.580398 0.919603 0.963592
O O5 0.663451 0.916008 0.723510
O O6 0.596276 0.993937 0.692428
O O7 0.661550 0.987570 0.005907
O O8 0.750000 0.875693 0.590813
O O9 0.662557 0.837444 0.453450
O O10 0.691908 0.927694 0.315080
O O11 0.582984 0.082984 0.500000
O O12 0.665513 0.024911 0.405429
O O13 0.750000 0.493887 0.195626
#
# Coordination Sequence:
#
# PCOD8315117 Si02
#       5
#     8  16  16  16  16
#     4  10  22  34  52  82 116 144 177 222 275 328
#     4  10  19  31  49  70  96 130 170 211 272 318
#     4   9  18  32  45  65  89 120 170 219 270 320
#     4  10  22  33  50  76 104 137 172 219 266 323
#     4  10  21  33  49  68  96 134 171 214 263 326
#
# _framework density 17.361305999999999
#
# number of rings (size 3 to 8) (size 9 to 14) (size 15 to 20)
#    0.000    2.222    1.111    1.333    9.333    1.111 
#    0.000    0.000    0.000    0.000    0.000    3.111 
#    0.000    0.444    0.000    0.444    0.000    0.000 
#
# Total GULP energy -891979.343394 kJ/mol
# GULP energy per Si atom -12388.601992 kJ/mol
# Density = 1.732179 g / cm^3
# Si number density = 17.361306 Si / 1000 Ang^3
#
#
#
# Elastic Constant Matrix: (Units=GPa)
#
#
# Indices 1 2 3 4 5 6 
#
# 1 92.1445 53.0590 25.1035 0.0000 0.0000 0.0000
# 2 53.0590 92.1445 25.1035 0.0000 0.0000 0.0000
# 3 25.1035 25.1035 63.8801 0.0000 0.0000 0.0000
# 4 0.0000 0.0000 0.0000 21.4967 0.0000 0.0000
# 5 0.0000 0.0000 0.0000 0.0000 21.4967 0.0000
# 6 0.0000 0.0000 0.0000 0.0000 0.0000 24.5595
#
#
#
# Elastic Compliance Matrix: (Units=1/GPa)
#
#
# Indices 1 2 3 4 5 6 
#
# 1 0.016777 -0.008808 -0.003132 0.000000 0.000000 0.000000
# 2 -0.008808 0.016777 -0.003132 0.000000 0.000000 0.000000
# 3 -0.003132 -0.003132 0.018116 0.000000 0.000000 0.000000
# 4 0.000000 0.000000 0.000000 0.046519 0.000000 0.000000
# 5 0.000000 0.000000 0.000000 0.000000 0.046519 0.000000
# 6 0.000000 0.000000 0.000000 0.000000 0.000000 0.040717
#
#
# Mechanical properties :
#
#
# Convention : Reuss Voigt Hill
#
# Bulk Modulus (GPa) = 46.45175 50.52231 48.48703
# Shear Modulus (GPa) = 22.44723 23.17078 22.80901
#
# Velocity S-wave (km/s) = 3.59966 3.65721 3.62855
# Velocity P-wave (km/s) = 6.64008 6.85546 6.74863
#
# Compressibility (1/GPa) = 0.02152771
#
# Stress axis : x y z
#
# Youngs Moduli (GPa) = 59.60406 59.60406 55.20006
#
# Poissons Ratio (x) = 0.52497 0.17288
# Poissons Ratio (y) = 0.52497 0.17288
# Poissons Ratio (z) = 0.18668 0.18668
#
# Static dielectric constant tensor:
#      x y z
#    x 3.295100 0.000000 0.000000 
#    y 0.000000 3.295100 0.000000 
#    z 0.000000 0.000000 3.296050 
# 
# 
# High freq. dielectric constant tensor:
#      x y z
#    x 1.647330 0.000000 0.000000 
#    y 0.000000 1.647330 0.000000 
#    z 0.000000 0.000000 1.681540 
# 
# From -- ./inp_files/884.got.cif
#   From: 2010.03.12/outbox.cif.g09.slc.cpg/sg129_1_cif.got.tgz:884.got - 2010.04.06 17:19:44.
