data_PCOD8315822
_publ_section_title
;
Structure prediction by ZEFSAII (Michael W. Deem and Ramdas Pophale) SiO2 
 PCOD8315822
Probable space group: P 42/M M C
;
_chemical_formula_sum "Si O2"
_cell_formula_units_Z 112
_cell_length_a 18.473236
_cell_length_b 18.473236
_cell_length_c 18.906960
_cell_angle_alpha 90.000000
_cell_angle_beta 90.000000
_cell_angle_gamma 90.000000
_cell_volume 6452.197646
_symmetry_space_group_name_H-M "P 42/M M C"
_symmetry_group_IT_number 131
_symmetry_cell_setting 'tetragonal'
loop_
_space_group_symop_operation_xyz
x,y,z
-x,-y,z
-y,x,1/2+z
y,-x,1/2+z
-x,y,-z
x,-y,-z
y,x,1/2-z
-y,-x,1/2-z
-x,-y,-z
x,y,-z
y,-x,1/2-z
-y,x,1/2-z
x,-y,z
-x,y,z
-y,-x,1/2+z
y,x,1/2+z
loop_
_atom_site_type_symbol
_atom_site_label
_atom_site_fract_x
_atom_site_fract_y
_atom_site_fract_z
Si Si1 0.417999 0.185939 0.418312
Si Si2 0.915687 0.850222 0.820763
Si Si3 0.084807 0.803232 0.581069
Si Si4 0.837004 0.292587 0.819460
Si Si5 0.296162 0.808568 0.159387
Si Si6 0.417361 0.725156 0.916905
Si Si7 0.646726 0.421965 0.083360
O O1 0.396730 0.173178 0.500000
O O2 0.500000 0.158380 0.404571
O O3 0.361561 0.143548 0.368353
O O4 0.411236 0.269686 0.397424
O O5 0.876297 0.876297 0.750000
O O6 0.880461 0.891934 0.886645
O O7 0.902687 0.764289 0.827482
O O8 0.000000 0.868444 0.818257
O O9 0.109642 0.802909 0.500000
O O10 0.121257 0.736163 0.621109
O O11 0.000000 0.792831 0.589734
O O12 0.762556 0.255481 0.845031
O O13 0.829249 0.317873 0.738862
O O14 0.369184 0.785410 0.120503
O O15 0.500000 0.743525 0.899700
O O16 0.399362 0.644977 0.885868
O O17 0.400784 0.727466 0.000000
O O18 0.620035 0.500000 0.114507
O O19 0.636845 0.424730 0.000000
#
# Coordination Sequence:
#
# PCOD8315822 Si02
#       7
#    16  16  16  16  16  16  16
#     4   9  17  30  52  80 107 140 185 235 281 321
#     4  11  22  37  57  85 117 147 175 214 267 326
#     4  10  21  37  58  82 108 144 182 215 260 319
#     4  10  19  33  54  79 103 140 185 220 262 322
#     4  10  19  33  50  74 105 136 180 230 270 316
#     4  10  19  29  45  70 100 136 174 220 279 325
#     4   8  14  25  42  66  96 130 169 213 262 317
#
# _framework density 17.358426999999999
#
# number of rings (size 3 to 8) (size 9 to 14) (size 15 to 20)
#    0.000    2.286    4.286    1.714    0.000    4.429 
#    0.000    2.143    0.000    0.857    0.000    5.000 
#    0.000    0.000    0.000    0.000    0.000    0.000 
#
# Total GULP energy -1388610.835017 kJ/mol
# GULP energy per Si atom -12398.311027 kJ/mol
# Density = 1.731892 g / cm^3
# Si number density = 17.358427 Si / 1000 Ang^3
#
#
#
# Elastic Constant Matrix: (Units=GPa)
#
#
# Indices 1 2 3 4 5 6 
#
# 1 86.6623 39.6679 47.8201 0.0000 0.0000 0.0000
# 2 39.6679 86.6623 47.8201 0.0000 0.0000 0.0000
# 3 47.8201 47.8201 89.6169 0.0000 0.0000 0.0000
# 4 0.0000 0.0000 0.0000 24.2255 0.0000 0.0000
# 5 0.0000 0.0000 0.0000 0.0000 24.2255 0.0000
# 6 0.0000 0.0000 0.0000 0.0000 0.0000 20.2891
#
#
#
# Elastic Compliance Matrix: (Units=1/GPa)
#
#
# Indices 1 2 3 4 5 6 
#
# 1 0.017280 -0.003999 -0.007087 0.000000 0.000000 0.000000
# 2 -0.003999 0.017280 -0.007087 0.000000 0.000000 0.000000
# 3 -0.007087 -0.007087 0.018722 0.000000 0.000000 0.000000
# 4 0.000000 0.000000 0.000000 0.041279 0.000000 0.000000
# 5 0.000000 0.000000 0.000000 0.000000 0.041279 0.000000
# 6 0.000000 0.000000 0.000000 0.000000 0.000000 0.049287
#
#
# Mechanical properties :
#
#
# Convention : Reuss Voigt Hill
#
# Bulk Modulus (GPa) = 59.04431 59.28418 59.16425
# Shear Modulus (GPa) = 22.01503 22.25693 22.13598
#
# Velocity S-wave (km/s) = 3.56513 3.58466 3.57491
# Velocity P-wave (km/s) = 7.14391 7.16660 7.15527
#
# Compressibility (1/GPa) = 0.01693643
#
# Stress axis : x y z
#
# Youngs Moduli (GPa) = 57.87033 57.87033 53.41390
#
# Poissons Ratio (x) = 0.23143 0.37853
# Poissons Ratio (y) = 0.23143 0.37853
# Poissons Ratio (z) = 0.41011 0.41011
#
# Static dielectric constant tensor:
#      x y z
#    x 3.062980 0.000000 0.000000 
#    y 0.000000 3.062980 0.000000 
#    z 0.000000 0.000000 3.166690 
# 
# 
# High freq. dielectric constant tensor:
#      x y z
#    x 1.657040 0.000000 0.000000 
#    y 0.000000 1.657040 0.000000 
#    z 0.000000 0.000000 1.661800 
# 
# From -- ./inp_files/10031.got.cif
#   From: 2010.03.12/outbox.cif.g09.slc.cpg/sg131_6_cif.got.tgz:10031.got - 2010.04.06 17:36:35.
