data_PCOD8315682
_publ_section_title
;
Structure prediction by ZEFSAII (Michael W. Deem and Ramdas Pophale) SiO2 
 PCOD8315682
Probable space group: P 42/M M C
;
_chemical_formula_sum "Si O2"
_cell_formula_units_Z 60
_cell_length_a 12.013798
_cell_length_b 12.013798
_cell_length_c 24.638622
_cell_angle_alpha 90.000000
_cell_angle_beta 90.000000
_cell_angle_gamma 90.000000
_cell_volume 3556.125388
_symmetry_space_group_name_H-M "P 42/M M C"
_symmetry_group_IT_number 131
_symmetry_cell_setting 'tetragonal'
loop_
_space_group_symop_operation_xyz
x,y,z
-x,-y,z
-y,x,1/2+z
y,-x,1/2+z
-x,y,-z
x,-y,-z
y,x,1/2-z
-y,-x,1/2-z
-x,-y,-z
x,y,-z
y,-x,1/2-z
-y,x,1/2-z
x,-y,z
-x,y,z
-y,-x,1/2+z
y,x,1/2+z
loop_
_atom_site_type_symbol
_atom_site_label
_atom_site_fract_x
_atom_site_fract_y
_atom_site_fract_z
Si Si1 0.241236 0.869233 0.618236
Si Si2 0.215219 0.367952 0.781713
Si Si3 0.000000 0.782153 0.617505
Si Si4 0.759497 0.878372 0.500000
Si Si5 0.000000 0.630378 0.716004
Si Si6 0.813594 0.000000 0.000000
O O1 0.314652 0.795031 0.658691
O O2 0.274188 0.821764 0.557537
O O3 0.109805 0.855200 0.629865
O O4 0.270619 0.000000 0.623484
O O5 0.323764 0.323764 0.750000
O O6 0.224456 0.500000 0.787421
O O7 0.107977 0.327686 0.748071
O O8 0.000000 0.674570 0.655112
O O9 0.000000 0.738775 0.554914
O O10 0.893104 0.892905 0.500000
O O11 0.705480 0.000000 0.500000
O O12 0.000000 0.500000 0.711287
#
# Coordination Sequence:
#
# PCOD8315682 Si02
#       6
#    16  16   8   8   8   4
#     4  10  18  30  49  76 106 136 165 198 242 297
#     4  11  22  36  53  73  99 132 170 212 255 300
#     4  10  17  30  49  73 103 133 165 199 242 296
#     4   8  15  26  43  69 104 137 164 192 233 291
#     4  10  20  33  50  71  98 125 156 207 264 302
#     4   8  15  24  43  70  98 132 166 196 230 286
#
# _framework density 16.872294
#
# number of rings (size 3 to 8) (size 9 to 14) (size 15 to 20)
#    0.000    2.133    4.000    0.600    0.000    3.467 
#    0.000    1.000    0.000    2.400    0.000    0.933 
#    0.000    2.133    0.000    0.000    0.000    0.000 
#
# Total GULP energy -743393.733599 kJ/mol
# GULP energy per Si atom -12389.895560 kJ/mol
# Density = 1.683389 g / cm^3
# Si number density = 16.872294 Si / 1000 Ang^3
#
#
#
# Elastic Constant Matrix: (Units=GPa)
#
#
# Indices 1 2 3 4 5 6 
#
# 1 59.9314 24.8591 47.4958 0.0000 0.0000 0.0000
# 2 24.8591 59.9314 47.4958 0.0000 0.0000 0.0000
# 3 47.4958 47.4958 154.7534 0.0000 0.0000 0.0000
# 4 0.0000 0.0000 0.0000 18.0341 0.0000 0.0000
# 5 0.0000 0.0000 0.0000 0.0000 18.0341 0.0000
# 6 0.0000 0.0000 0.0000 0.0000 0.0000 19.4216
#
#
#
# Elastic Compliance Matrix: (Units=1/GPa)
#
#
# Indices 1 2 3 4 5 6 
#
# 1 0.023243 -0.005269 -0.005516 0.000000 0.000000 0.000000
# 2 -0.005269 0.023243 -0.005516 0.000000 0.000000 0.000000
# 3 -0.005516 -0.005516 0.009848 0.000000 0.000000 0.000000
# 4 0.000000 0.000000 0.000000 0.055450 0.000000 0.000000
# 5 0.000000 0.000000 0.000000 0.000000 0.055450 0.000000
# 6 0.000000 0.000000 0.000000 0.000000 0.000000 0.051489
#
#
# Mechanical properties :
#
#
# Convention : Reuss Voigt Hill
#
# Bulk Modulus (GPa) = 42.14060 57.14640 49.64350
# Shear Modulus (GPa) = 19.28724 21.41566 20.35145
#
# Velocity S-wave (km/s) = 3.38469 3.56656 3.47681
# Velocity P-wave (km/s) = 6.34864 7.13470 6.75312
#
# Compressibility (1/GPa) = 0.02373008
#
# Stress axis : x y z
#
# Youngs Moduli (GPa) = 43.02334 43.02334 101.54342
#
# Poissons Ratio (x) = 0.22671 0.56015
# Poissons Ratio (y) = 0.22671 0.56015
# Poissons Ratio (z) = 0.23733 0.23733
#
# Static dielectric constant tensor:
#      x y z
#    x 2.869840 0.000000 0.000000 
#    y 0.000000 2.869840 0.000000 
#    z 0.000000 0.000000 3.573490 
# 
# 
# High freq. dielectric constant tensor:
#      x y z
#    x 1.619020 0.000000 0.000000 
#    y 0.000000 1.619020 0.000000 
#    z 0.000000 0.000000 1.674130 
# 
# From -- ./inp_files/10848.got.cif
#   From: 2010.03.12/outbox.cif.g09.slc.cpg/sg131_6_cif.got.tgz:10848.got - 2010.04.06 17:36:35.
