data_PCOD8315590
_publ_section_title
;
Structure prediction by ZEFSAII (Michael W. Deem and Ramdas Pophale) SiO2 
 PCOD8315590
Probable space group: P 4/N C C
;
_chemical_formula_sum "Si O2"
_cell_formula_units_Z 112
_cell_length_a 14.713525
_cell_length_b 14.713525
_cell_length_c 24.556694
_cell_angle_alpha 90.000000
_cell_angle_beta 90.000000
_cell_angle_gamma 90.000000
_cell_volume 5316.225100
_symmetry_space_group_name_H-M "P 4/N C C"
_symmetry_group_IT_number 130
_symmetry_cell_setting 'tetragonal'
loop_
_space_group_symop_operation_xyz
x,y,z
1/2-y,x,z
1/2-x,1/2-y,z
y,1/2-x,z
1/2+x,-y,1/2-z
-x,1/2+y,1/2-z
1/2+y,1/2+x,1/2-z
-y,-x,1/2-z
-x,-y,-z
1/2+y,-x,-z
1/2+x,1/2+y,-z
-y,1/2+x,-z
1/2-x,y,1/2+z
x,1/2-y,1/2+z
1/2-y,1/2-x,1/2+z
y,x,1/2+z
loop_
_atom_site_type_symbol
_atom_site_label
_atom_site_fract_x
_atom_site_fract_y
_atom_site_fract_z
Si Si1 0.230374 0.025435 0.370181
Si Si2 0.873553 0.385091 0.314792
Si Si3 0.050752 0.466529 0.129198
Si Si4 0.855516 0.855314 0.456334
Si Si5 0.319682 0.923106 0.202370
Si Si6 0.267382 0.394893 0.758618
Si Si7 0.437186 0.401648 0.432809
O O1 0.273765 0.084906 0.322329
O O2 0.152630 0.086369 0.396694
O O3 0.308926 0.010886 0.415164
O O4 0.194977 0.928485 0.345951
O O5 0.880123 0.380123 0.250000
O O6 0.916004 0.481478 0.331123
O O7 0.765492 0.375109 0.328933
O O8 0.117087 0.391641 0.103282
O O9 0.100844 0.548262 0.161282
O O10 0.001484 0.512730 0.077930
O O11 0.750194 0.876819 0.462208
O O12 0.912096 0.903759 0.503858
O O13 0.358866 0.858866 0.250000
O O14 0.274938 0.013708 0.225507
O O15 0.171136 0.350129 0.742937
#
# Coordination Sequence:
#
# PCOD8315590 Si02
#       7
#    16  16  16  16  16  16  16
#     4  11  21  37  64  98 127 167 217 285 332 381
#     4  11  24  42  64  92 138 176 225 277 320 398
#     4  11  25  42  66  96 134 179 216 269 337 404
#     4  11  23  42  71 100 130 163 214 282 340 395
#     4  12  25  42  64  91 135 187 229 264 325 407
#     4  11  22  36  60  92 128 166 216 274 335 389
#     4  11  22  40  66  96 130 168 218 274 336 395
#
# _framework density 21.067581000000001
#
# number of rings (size 3 to 8) (size 9 to 14) (size 15 to 20)
#    0.000    0.857    4.286    3.429    2.000    0.571 
#    0.000    1.429    0.000    0.000    0.000    0.000 
#    0.000    0.000    0.000    0.000    0.000    0.000 
#
# Total GULP energy -1388788.509393 kJ/mol
# GULP energy per Si atom -12399.897405 kJ/mol
# Density = 2.101963 g / cm^3
# Si number density = 21.067581 Si / 1000 Ang^3
#
#
#
# Elastic Constant Matrix: (Units=GPa)
#
#
# Indices 1 2 3 4 5 6 
#
# 1 180.4924 -52.2463 16.2764 0.0000 0.0000 0.0000
# 2 -52.2463 180.4924 16.2764 0.0000 0.0000 0.0000
# 3 16.2764 16.2764 55.7741 0.0000 0.0000 0.0000
# 4 0.0000 0.0000 0.0000 30.4522 0.0000 0.0000
# 5 0.0000 0.0000 0.0000 0.0000 30.4522 0.0000
# 6 0.0000 0.0000 0.0000 0.0000 0.0000 21.9624
#
#
#
# Elastic Compliance Matrix: (Units=1/GPa)
#
#
# Indices 1 2 3 4 5 6 
#
# 1 0.006359 0.002062 -0.002458 0.000000 0.000000 0.000000
# 2 0.002062 0.006359 -0.002458 0.000000 0.000000 0.000000
# 3 -0.002458 -0.002458 0.019364 0.000000 0.000000 0.000000
# 4 0.000000 0.000000 0.000000 0.032838 0.000000 0.000000
# 5 0.000000 0.000000 0.000000 0.000000 0.032838 0.000000
# 6 0.000000 0.000000 0.000000 0.000000 0.000000 0.045532
#
#
# Mechanical properties :
#
#
# Convention : Reuss Voigt Hill
#
# Bulk Modulus (GPa) = 37.91295 41.93020 39.92158
# Shear Modulus (GPa) = 31.68800 45.67021 38.67911
#
# Velocity S-wave (km/s) = 3.88250 4.66101 4.28945
# Velocity P-wave (km/s) = 6.17522 6.99376 6.59719
#
# Compressibility (1/GPa) = 0.02637621
#
# Stress axis : x y z
#
# Youngs Moduli (GPa) = 157.25777 157.25777 51.64264
#
# Poissons Ratio (x) = -0.32432 0.12692
# Poissons Ratio (y) = -0.32432 0.12692
# Poissons Ratio (z) = 0.38647 0.38647
#
# Static dielectric constant tensor:
#      x y z
#    x 4.030020 0.000000 0.000000 
#    y 0.000000 4.030020 0.000000 
#    z 0.000000 0.000000 3.646220 
# 
# 
# High freq. dielectric constant tensor:
#      x y z
#    x 1.831930 0.000000 0.000000 
#    y 0.000000 1.831930 0.000000 
#    z 0.000000 0.000000 1.812300 
# 
# From -- ./inp_files/4272.got.cif
#   From: 2010.03.12/outbox.cif.g09.slc.cpg/sg130_3_cif.got.tgz:4272.got - 2010.04.06 17:30:23.
