data_PCOD8315750
_publ_section_title
;
Structure prediction by ZEFSAII (Michael W. Deem and Ramdas Pophale) SiO2 
 PCOD8315750
Probable space group: P 42/M M C
;
_chemical_formula_sum "Si O2"
_cell_formula_units_Z 72
_cell_length_a 11.925633
_cell_length_b 11.925633
_cell_length_c 29.851041
_cell_angle_alpha 90.000000
_cell_angle_beta 90.000000
_cell_angle_gamma 90.000000
_cell_volume 4245.436617
_symmetry_space_group_name_H-M "P 42/M M C"
_symmetry_group_IT_number 131
_symmetry_cell_setting 'tetragonal'
loop_
_space_group_symop_operation_xyz
x,y,z
-x,-y,z
-y,x,1/2+z
y,-x,1/2+z
-x,y,-z
x,-y,-z
y,x,1/2-z
-y,-x,1/2-z
-x,-y,-z
x,y,-z
y,-x,1/2-z
-y,x,1/2-z
x,-y,z
-x,y,z
-y,-x,1/2+z
y,x,1/2+z
loop_
_atom_site_type_symbol
_atom_site_label
_atom_site_fract_x
_atom_site_fract_y
_atom_site_fract_z
Si Si1 0.282679 0.300916 0.137939
Si Si2 0.256906 0.874149 0.789357
Si Si3 0.162836 0.500000 0.257934
Si Si4 0.625393 0.500000 0.308243
Si Si5 0.629050 0.368181 0.549763
Si Si6 0.125484 0.500000 0.154549
O O1 0.240948 0.187673 0.162676
O O2 0.390301 0.351899 0.162545
O O3 0.313606 0.284383 0.085497
O O4 0.181666 0.387539 0.137458
O O5 0.195958 0.804043 0.750000
O O6 0.389379 0.886134 0.781068
O O7 0.205924 0.000000 0.792118
O O8 0.297998 0.500000 0.263575
O O9 0.126196 0.500000 0.207624
O O10 0.500000 0.500000 0.290868
O O11 0.655516 0.320964 0.500000
O O12 0.647360 0.500000 0.550009
O O13 0.500000 0.340228 0.563077
O O14 0.000000 0.500000 0.135942
#
# Coordination Sequence:
#
# PCOD8315750 Si02
#       6
#    16  16   8   8  16   8
#     4  11  20  33  52  75 104 137 167 217 258 308
#     4  11  23  37  53  74 101 140 184 220 257 302
#     4  10  22  36  48  71 106 141 162 205 265 325
#     4  10  18  30  49  78 103 124 172 212 253 307
#     4   9  16  28  50  80 110 135 164 207 258 314
#     4  12  22  33  48  69 102 138 168 203 262 323
#
# _framework density 16.959388000000001
#
# number of rings (size 3 to 8) (size 9 to 14) (size 15 to 20)
#    0.000    1.556    5.556    1.667    0.000    0.222 
#    2.000    0.000    0.000    2.000    0.000    1.556 
#    0.000    0.000    0.000    4.000    0.000    0.000 
#
# Total GULP energy -892439.700949 kJ/mol
# GULP energy per Si atom -12394.995847 kJ/mol
# Density = 1.692079 g / cm^3
# Si number density = 16.959388 Si / 1000 Ang^3
#
#
#
# Elastic Constant Matrix: (Units=GPa)
#
#
# Indices 1 2 3 4 5 6 
#
# 1 95.7160 25.6015 30.8073 0.0000 0.0000 0.0000
# 2 25.6015 95.7169 30.8075 0.0000 0.0000 0.0000
# 3 30.8073 30.8075 119.1416 0.0000 0.0000 0.0000
# 4 0.0000 0.0000 0.0000 13.0068 0.0000 0.0000
# 5 0.0000 0.0000 0.0000 0.0000 13.0071 0.0000
# 6 0.0000 0.0000 0.0000 0.0000 0.0000 6.8442
#
#
#
# Elastic Compliance Matrix: (Units=1/GPa)
#
#
# Indices 1 2 3 4 5 6 
#
# 1 0.011876 -0.002387 -0.002454 0.000000 0.000000 0.000000
# 2 -0.002387 0.011876 -0.002454 0.000000 0.000000 0.000000
# 3 -0.002454 -0.002454 0.009662 0.000000 0.000000 0.000000
# 4 0.000000 0.000000 0.000000 0.076883 0.000000 0.000000
# 5 0.000000 0.000000 0.000000 0.000000 0.076881 0.000000
# 6 0.000000 0.000000 0.000000 0.000000 0.000000 0.146109
#
#
# Mechanical properties :
#
#
# Convention : Reuss Voigt Hill
#
# Bulk Modulus (GPa) = 53.11903 53.88970 53.50436
# Shear Modulus (GPa) = 14.11834 21.46216 17.79025
#
# Velocity S-wave (km/s) = 2.88840 3.56125 3.24233
# Velocity P-wave (km/s) = 6.52021 6.98246 6.75529
#
# Compressibility (1/GPa) = 0.01882565
#
# Stress axis : x y z
#
# Youngs Moduli (GPa) = 84.20570 84.20647 103.49512
#
# Poissons Ratio (x) = 0.20097 0.25394
# Poissons Ratio (y) = 0.20097 0.25394
# Poissons Ratio (z) = 0.20661 0.20661
#
# Static dielectric constant tensor:
#      x y z
#    x 3.056550 0.000000 0.000000 
#    y 0.000000 3.056550 0.000000 
#    z 0.000000 0.000000 3.317450 
# 
# 
# High freq. dielectric constant tensor:
#      x y z
#    x 1.634010 0.000000 0.000000 
#    y 0.000000 1.634010 0.000000 
#    z 0.000000 0.000000 1.643640 
# 
# From -- ./inp_files/13312.got.cif
#   From: 2010.03.12/outbox.cif.g09.slc.cpg/sg131_7_cif.got.tgz:13312.got - 2010.04.06 17:36:35.
