data_PCOD8315113
_publ_section_title
;
Structure prediction by ZEFSAII (Michael W. Deem and Ramdas Pophale) SiO2 
 PCOD8315113
Probable space group: P 4/N M M
;
_chemical_formula_sum "Si O2"
_cell_formula_units_Z 88
_cell_length_a 12.581458
_cell_length_b 12.581458
_cell_length_c 31.508630
_cell_angle_alpha 90.000000
_cell_angle_beta 90.000000
_cell_angle_gamma 90.000000
_cell_volume 4987.598260
_symmetry_space_group_name_H-M "P 4/N M M"
_symmetry_group_IT_number 129
_symmetry_cell_setting 'tetragonal'
loop_
_space_group_symop_operation_xyz
x,y,z
1/2-y,x,z
1/2-x,1/2-y,z
y,1/2-x,z
1/2+x,-y,-z
-x,1/2+y,-z
1/2+y,1/2+x,-z
-y,-x,-z
-x,-y,-z
1/2+y,-x,-z
1/2+x,1/2+y,-z
-y,1/2+x,-z
1/2-x,y,z
x,1/2-y,z
1/2-y,1/2-x,z
y,x,z
loop_
_atom_site_type_symbol
_atom_site_label
_atom_site_fract_x
_atom_site_fract_y
_atom_site_fract_z
Si Si1 0.627341 0.372660 0.000000
Si Si2 0.250000 0.623727 0.776961
Si Si3 0.454852 0.626940 0.457199
Si Si4 0.123808 0.750000 0.318750
Si Si5 0.453869 0.873007 0.629391
Si Si6 0.461453 0.624926 0.089126
Si Si7 0.628181 0.045002 0.827867
O O1 0.569106 0.413680 0.957950
O O2 0.750000 0.396081 0.992743
O O3 0.250000 0.750000 0.777869
O O4 0.250000 0.579193 0.729103
O O5 0.355898 0.583034 0.800622
O O6 0.387848 0.612153 0.500000
O O7 0.477664 0.750000 0.448759
O O8 0.568374 0.568374 0.460395
O O9 0.384434 0.577758 0.419661
O O10 0.250000 0.750000 0.319628
O O11 0.083361 0.643882 0.342276
O O12 0.480313 0.750000 0.639087
O O13 0.557765 0.942236 0.640600
O O14 0.462947 0.750000 0.093681
O O15 0.578511 0.578511 0.099163
O O16 0.378171 0.575942 0.122499
O O17 0.750000 0.018205 0.816483
O O18 0.558153 0.941848 0.816842
#
# Coordination Sequence:
#
# PCOD8315113 Si02
#       7
#     8   8  16   8  16  16  16
#     4   9  17  28  46  70  95 127 170 216 261 309
#     4   9  18  34  56  79 101 135 177 216 259 311
#     4  10  20  33  51  76 105 140 181 223 268 318
#     4   9  18  34  56  77 103 137 177 220 259 307
#     4  10  20  34  53  79 109 142 179 221 269 317
#     4  10  19  31  48  71 100 135 173 216 261 310
#     4  10  20  34  54  79 107 137 173 217 265 316
#
# _framework density 17.643761999999999
#
# number of rings (size 3 to 8) (size 9 to 14) (size 15 to 20)
#    0.000    2.273    1.818    1.364    0.000    3.091 
#    0.000    0.000    0.000    3.818    0.000    8.909 
#    0.000    0.000    0.000    0.000    0.000    0.000 
#
# Total GULP energy -1091139.792363 kJ/mol
# GULP energy per Si atom -12399.315822 kJ/mol
# Density = 1.760360 g / cm^3
# Si number density = 17.643762 Si / 1000 Ang^3
#
#
#
# Elastic Constant Matrix: (Units=GPa)
#
#
# Indices 1 2 3 4 5 6 
#
# 1 95.4318 58.8238 33.1444 0.0000 0.0000 0.0000
# 2 58.8238 95.4306 33.1446 0.0000 0.0000 0.0000
# 3 33.1444 33.1446 98.2093 0.0000 0.0000 0.0000
# 4 0.0000 0.0000 0.0000 17.8588 0.0000 0.0000
# 5 0.0000 0.0000 0.0000 0.0000 17.8589 0.0000
# 6 0.0000 0.0000 0.0000 0.0000 0.0000 19.0698
#
#
#
# Elastic Compliance Matrix: (Units=1/GPa)
#
#
# Indices 1 2 3 4 5 6 
#
# 1 0.017450 -0.009867 -0.002559 0.000000 0.000000 0.000000
# 2 -0.009867 0.017450 -0.002559 0.000000 0.000000 0.000000
# 3 -0.002559 -0.002559 0.011910 0.000000 0.000000 0.000000
# 4 0.000000 0.000000 0.000000 0.055995 0.000000 0.000000
# 5 0.000000 0.000000 0.000000 0.000000 0.055995 0.000000
# 6 0.000000 0.000000 0.000000 0.000000 0.000000 0.052439
#
#
# Mechanical properties :
#
#
# Convention : Reuss Voigt Hill
#
# Bulk Modulus (GPa) = 59.38752 59.92191 59.65472
# Shear Modulus (GPa) = 20.25766 21.88811 21.07289
#
# Velocity S-wave (km/s) = 3.39211 3.52598 3.45969
# Velocity P-wave (km/s) = 7.00530 7.11425 7.05998
#
# Compressibility (1/GPa) = 0.01683855
#
# Stress axis : x y z
#
# Youngs Moduli (GPa) = 57.30809 57.30725 83.96590
#
# Poissons Ratio (x) = 0.56546 0.21486
# Poissons Ratio (y) = 0.56547 0.21487
# Poissons Ratio (z) = 0.14665 0.14665
#
# Static dielectric constant tensor:
#      x y z
#    x 3.125550 0.000000 0.000000 
#    y 0.000000 3.125560 0.000000 
#    z 0.000000 0.000000 3.464210 
# 
# 
# High freq. dielectric constant tensor:
#      x y z
#    x 1.669920 0.000000 0.000000 
#    y 0.000000 1.669920 0.000000 
#    z 0.000000 0.000000 1.691620 
# 
# From -- ./inp_files/7809.got.cif
#   From: 2010.03.12/outbox.cif.g09.slc.cpg/sg129_4_cif.got.tgz:7809.got - 2010.04.06 17:19:44.
