data_PCOD8315882
_publ_section_title
;
Structure prediction by ZEFSAII (Michael W. Deem and Ramdas Pophale) SiO2 
 PCOD8315882
Probable space group: P 42/M M C
;
_chemical_formula_sum "Si O2"
_cell_formula_units_Z 72
_cell_length_a 12.252116
_cell_length_b 12.252116
_cell_length_c 28.627466
_cell_angle_alpha 90.000000
_cell_angle_beta 90.000000
_cell_angle_gamma 90.000000
_cell_volume 4297.393350
_symmetry_space_group_name_H-M "P 42/M M C"
_symmetry_group_IT_number 131
_symmetry_cell_setting 'tetragonal'
loop_
_space_group_symop_operation_xyz
x,y,z
-x,-y,z
-y,x,1/2+z
y,-x,1/2+z
-x,y,-z
x,-y,-z
y,x,1/2-z
-y,-x,1/2-z
-x,-y,-z
x,y,-z
y,-x,1/2-z
-y,x,1/2-z
x,-y,z
-x,y,z
-y,-x,1/2+z
y,x,1/2+z
loop_
_atom_site_type_symbol
_atom_site_label
_atom_site_fract_x
_atom_site_fract_y
_atom_site_fract_z
Si Si1 0.726655 0.126476 0.583510
Si Si2 0.500000 0.628789 0.637926
Si Si3 0.708407 0.256149 0.675983
Si Si4 0.500000 0.785129 0.553516
Si Si5 0.877010 0.870258 0.500000
Si Si6 0.876028 0.371481 0.737785
O O1 0.747884 0.195528 0.629730
O O2 0.604659 0.140542 0.564077
O O3 0.813321 0.171347 0.545762
O O4 0.746047 0.000000 0.594794
O O5 0.500000 0.500000 0.632930
O O6 0.394762 0.666575 0.666761
O O7 0.500000 0.678084 0.585850
O O8 0.806870 0.331203 0.693599
O O9 0.679603 0.165485 0.714072
O O10 0.500000 0.745875 0.500000
O O11 0.000000 0.822911 0.500000
O O12 0.877697 0.000000 0.500000
O O13 0.866035 0.500000 0.741678
O O14 0.000000 0.333504 0.730187
#
# Coordination Sequence:
#
# PCOD8315882 Si02
#       6
#    16   8  16   8   8  16
#     4  10  19  31  50  75 104 133 168 214 258 309
#     4  10  20  34  51  76 108 135 171 213 263 317
#     4  10  20  34  52  77 103 136 172 216 262 314
#     4  10  19  31  50  77 105 134 171 207 261 312
#     4   9  18  31  47  69  97 131 168 206 250 302
#     4  10  20  35  53  75 103 135 174 217 263 313
#
# _framework density 16.754342000000001
#
# number of rings (size 3 to 8) (size 9 to 14) (size 15 to 20)
#    0.000    2.111    2.222    1.667    0.000    1.556 
#    0.000    0.000    0.000   10.667    0.000    0.000 
#    0.000    7.111    0.000    0.000    0.000    0.000 
#
# Total GULP energy -892986.648186 kJ/mol
# GULP energy per Si atom -12402.592336 kJ/mol
# Density = 1.671621 g / cm^3
# Si number density = 16.754342 Si / 1000 Ang^3
#
#
#
# Elastic Constant Matrix: (Units=GPa)
#
#
# Indices 1 2 3 4 5 6 
#
# 1 82.5253 17.5121 30.5399 0.0000 0.0000 0.0000
# 2 17.5121 82.5253 30.5399 0.0000 0.0000 0.0000
# 3 30.5399 30.5399 109.3133 0.0000 0.0000 0.0000
# 4 0.0000 0.0000 0.0000 24.1962 0.0000 0.0000
# 5 0.0000 0.0000 0.0000 0.0000 24.1962 0.0000
# 6 0.0000 0.0000 0.0000 0.0000 0.0000 20.3670
#
#
#
# Elastic Compliance Matrix: (Units=1/GPa)
#
#
# Indices 1 2 3 4 5 6 
#
# 1 0.013717 -0.001665 -0.003367 0.000000 0.000000 0.000000
# 2 -0.001665 0.013717 -0.003367 0.000000 0.000000 0.000000
# 3 -0.003367 -0.003367 0.011029 0.000000 0.000000 0.000000
# 4 0.000000 0.000000 0.000000 0.041329 0.000000 0.000000
# 5 0.000000 0.000000 0.000000 0.000000 0.041329 0.000000
# 6 0.000000 0.000000 0.000000 0.000000 0.000000 0.049099
#
#
# Mechanical properties :
#
#
# Convention : Reuss Voigt Hill
#
# Bulk Modulus (GPa) = 46.15699 47.94977 47.05338
# Shear Modulus (GPa) = 25.74146 26.80336 26.27241
#
# Velocity S-wave (km/s) = 3.92395 4.00407 3.96421
# Velocity P-wave (km/s) = 6.93822 7.07518 7.00704
#
# Compressibility (1/GPa) = 0.02166519
#
# Stress axis : x y z
#
# Youngs Moduli (GPa) = 72.90330 72.90330 90.66649
#
# Poissons Ratio (x) = 0.12136 0.30529
# Poissons Ratio (y) = 0.12136 0.30529
# Poissons Ratio (z) = 0.24547 0.24547
#
# Static dielectric constant tensor:
#      x y z
#    x 3.117840 0.000000 0.000000 
#    y 0.000000 3.117840 0.000000 
#    z 0.000000 0.000000 3.265540 
# 
# 
# High freq. dielectric constant tensor:
#      x y z
#    x 1.639840 0.000000 0.000000 
#    y 0.000000 1.639840 0.000000 
#    z 0.000000 0.000000 1.656170 
# 
# From -- ./inp_files/12142.got.cif
#   From: 2010.03.12/outbox.cif.g09.slc.cpg/sg131_7_cif.got.tgz:12142.got - 2010.04.06 17:36:35.
