data_PCOD8315730
_publ_section_title
;
Structure prediction by ZEFSAII (Michael W. Deem and Ramdas Pophale) SiO2 
 PCOD8315730
Probable space group: P 42/M M C
;
_chemical_formula_sum "Si O2"
_cell_formula_units_Z 96
_cell_length_a 14.049139
_cell_length_b 14.049139
_cell_length_c 31.294233
_cell_angle_alpha 90.000000
_cell_angle_beta 90.000000
_cell_angle_gamma 90.000000
_cell_volume 6176.802717
_symmetry_space_group_name_H-M "P 42/M M C"
_symmetry_group_IT_number 131
_symmetry_cell_setting 'tetragonal'
loop_
_space_group_symop_operation_xyz
x,y,z
-x,-y,z
-y,x,1/2+z
y,-x,1/2+z
-x,y,-z
x,-y,-z
y,x,1/2-z
-y,-x,1/2-z
-x,-y,-z
x,y,-z
y,-x,1/2-z
-y,x,1/2-z
x,-y,z
-x,y,z
-y,-x,1/2+z
y,x,1/2+z
loop_
_atom_site_type_symbol
_atom_site_label
_atom_site_fract_x
_atom_site_fract_y
_atom_site_fract_z
Si Si1 0.791468 0.212135 0.951317
Si Si2 0.602146 0.887653 0.674738
Si Si3 0.796277 0.886927 0.291328
Si Si4 0.894854 0.888003 0.622940
Si Si5 0.892919 0.605023 0.550493
Si Si6 0.110739 0.609195 0.076859
O O1 0.865524 0.161414 0.920152
O O2 0.684676 0.184417 0.935085
O O3 0.816210 0.324642 0.949832
O O4 0.805252 0.175861 0.000000
O O5 0.500000 0.843058 0.688857
O O6 0.686094 0.853192 0.705941
O O7 0.625413 0.860716 0.626031
O O8 0.594342 0.000000 0.676764
O O9 0.841135 0.841135 0.250000
O O10 0.846642 0.847271 0.334067
O O11 0.806303 0.000000 0.287706
O O12 0.000000 0.843675 0.619697
O O13 0.898778 0.000000 0.627288
O O14 0.893527 0.598789 0.500000
O O15 0.864414 0.500000 0.568789
O O16 0.000000 0.632178 0.566415
O O17 0.127527 0.500000 0.063013
O O18 0.000000 0.636973 0.068556
#
# Coordination Sequence:
#
# PCOD8315730 Si02
#       6
#    16  16  16  16  16  16
#     4  11  20  29  45  67  91 121 160 200 235 272
#     4   8  14  27  47  66  86 116 153 189 223 264
#     4  10  18  29  46  67  90 118 151 183 222 272
#     4  10  20  31  41  60  94 128 155 184 220 270
#     4   8  15  29  47  64  82 110 153 199 238 281
#     4   9  17  30  46  65  93 127 160 193 230 274
#
# _framework density 15.542021999999999
#
# number of rings (size 3 to 8) (size 9 to 14) (size 15 to 20)
#    0.000    2.667    1.667    3.000    0.000    3.500 
#    0.000    1.667    0.000    1.500    0.000    4.667 
#    0.000    0.333    0.000    0.000    0.000    0.000 
#
# Total GULP energy -1189419.988126 kJ/mol
# GULP energy per Si atom -12389.791543 kJ/mol
# Density = 1.550665 g / cm^3
# Si number density = 15.542022 Si / 1000 Ang^3
#
#
#
# Elastic Constant Matrix: (Units=GPa)
#
#
# Indices 1 2 3 4 5 6 
#
# 1 79.6719 47.7256 29.8025 0.0000 0.0000 0.0000
# 2 47.7256 79.6719 29.8025 0.0000 0.0000 0.0000
# 3 29.8025 29.8025 76.7323 0.0000 0.0000 0.0000
# 4 0.0000 0.0000 0.0000 19.6504 0.0000 0.0000
# 5 0.0000 0.0000 0.0000 0.0000 19.6504 0.0000
# 6 0.0000 0.0000 0.0000 0.0000 0.0000 20.3872
#
#
#
# Elastic Compliance Matrix: (Units=1/GPa)
#
#
# Indices 1 2 3 4 5 6 
#
# 1 0.020448 -0.010855 -0.003726 0.000000 0.000000 0.000000
# 2 -0.010855 0.020448 -0.003726 0.000000 0.000000 0.000000
# 3 -0.003726 -0.003726 0.015926 0.000000 0.000000 0.000000
# 4 0.000000 0.000000 0.000000 0.050890 0.000000 0.000000
# 5 0.000000 0.000000 0.000000 0.000000 0.050890 0.000000
# 6 0.000000 0.000000 0.000000 0.000000 0.000000 0.049050
#
#
# Mechanical properties :
#
#
# Convention : Reuss Voigt Hill
#
# Bulk Modulus (GPa) = 49.48360 50.08193 49.78276
# Shear Modulus (GPa) = 19.92031 20.52063 20.22047
#
# Velocity S-wave (km/s) = 3.58398 3.63758 3.61088
# Velocity P-wave (km/s) = 7.00244 7.06655 7.03457
#
# Compressibility (1/GPa) = 0.02020872
#
# Stress axis : x y z
#
# Youngs Moduli (GPa) = 48.90557 48.90557 62.78868
#
# Poissons Ratio (x) = 0.53087 0.23393
# Poissons Ratio (y) = 0.53087 0.23393
# Poissons Ratio (z) = 0.18221 0.18221
#
# Static dielectric constant tensor:
#      x y z
#    x 1.233740 0.000000 0.000000 
#    y 0.000000 1.233740 0.000000 
#    z 0.000000 0.000000 2.815140 
# 
# 
# High freq. dielectric constant tensor:
#      x y z
#    x 1.579950 0.000000 0.000000 
#    y 0.000000 1.579950 0.000000 
#    z 0.000000 0.000000 1.576040 
# 
# From -- ./inp_files/13709.got.cif
#   From: 2010.03.12/outbox.cif.g09.slc.cpg/sg131_7_cif.got.tgz:13709.got - 2010.04.06 17:36:35.
