data_PCOD8315647
_publ_section_title
;
Structure prediction by ZEFSAII (Michael W. Deem and Ramdas Pophale) SiO2 
 PCOD8315647
Probable space group: P 42/M M C
;
_chemical_formula_sum "Si O2"
_cell_formula_units_Z 72
_cell_length_a 24.271756
_cell_length_b 24.271756
_cell_length_c 10.408076
_cell_angle_alpha 90.000000
_cell_angle_beta 90.000000
_cell_angle_gamma 90.000000
_cell_volume 6131.586367
_symmetry_space_group_name_H-M "P 42/M M C"
_symmetry_group_IT_number 131
_symmetry_cell_setting 'tetragonal'
loop_
_space_group_symop_operation_xyz
x,y,z
-x,-y,z
-y,x,1/2+z
y,-x,1/2+z
-x,y,-z
x,-y,-z
y,x,1/2-z
-y,-x,1/2-z
-x,-y,-z
x,y,-z
y,-x,1/2-z
-y,x,1/2-z
x,-y,z
-x,y,z
-y,-x,1/2+z
y,x,1/2+z
loop_
_atom_site_type_symbol
_atom_site_label
_atom_site_fract_x
_atom_site_fract_y
_atom_site_fract_z
Si Si1 0.933613 0.323992 0.500000
Si Si2 0.108254 0.203590 0.500000
Si Si3 0.066001 0.500000 0.853607
Si Si4 0.936497 0.149674 0.752626
Si Si5 0.199250 0.882224 0.500000
Si Si6 0.935424 0.311483 0.000000
Si Si7 0.935870 0.385470 0.754597
O O1 0.895888 0.269330 0.500000
O O2 0.913664 0.358410 0.623803
O O3 0.000000 0.311127 0.500000
O O4 0.076059 0.182947 0.375747
O O5 0.171641 0.179461 0.500000
O O6 0.089746 0.553945 0.780308
O O7 0.000000 0.500000 0.855534
O O8 0.087639 0.500000 0.000000
O O9 0.910914 0.089087 0.750000
O O10 0.000000 0.141124 0.771036
O O11 0.913551 0.182220 0.872739
O O12 0.265101 0.887628 0.500000
O O13 0.922975 0.346825 0.125432
O O14 0.000000 0.290697 0.000000
O O15 0.000000 0.393836 0.737287
#
# Coordination Sequence:
#
# PCOD8315647 Si02
#       7
#     8   8   8  16   8   8  16
#     4  10  18  27  38  54  71  88 116 140 162 202
#     4  10  20  32  42  52  71  94 109 137 182 213
#     4   9  14  25  39  53  77  95 107 127 155 189
#     4  10  19  30  42  54  66  83 105 133 176 220
#     4  10  20  30  42  56  69  86 113 145 174 207
#     4  10  16  25  40  56  69  86 116 144 168 202
#     4   9  17  25  38  56  72  93 111 131 160 193
#
# _framework density 11.742476
#
# number of rings (size 3 to 8) (size 9 to 14) (size 15 to 20)
#    0.000    2.333    1.111    3.333    0.000    2.444 
#    0.000    2.222    0.000    4.000    0.000    0.000 
#    0.000    0.000    0.000    0.000    0.000    0.000 
#
# Total GULP energy -892199.574552 kJ/mol
# GULP energy per Si atom -12391.660758 kJ/mol
# Density = 1.171575 g / cm^3
# Si number density = 11.742476 Si / 1000 Ang^3
#
#
#
# Elastic Constant Matrix: (Units=GPa)
#
#
# Indices 1 2 3 4 5 6 
#
# 1 76.5421 23.4877 31.0561 0.0000 0.0000 0.0000
# 2 23.4877 76.5430 31.0566 0.0000 0.0000 0.0000
# 3 31.0561 31.0566 105.9110 0.0000 0.0000 0.0000
# 4 0.0000 0.0000 0.0000 -17.7998 0.0000 0.0000
# 5 0.0000 0.0000 0.0000 0.0000 -17.7601 0.0000
# 6 0.0000 0.0000 0.0000 0.0000 0.0000 5.6745
#
#
#
# Elastic Compliance Matrix: (Units=1/GPa)
#
#
# Indices 1 2 3 4 5 6 
#
# 1 0.015535 -0.003313 -0.003584 0.000000 0.000000 0.000000
# 2 -0.003313 0.015535 -0.003584 0.000000 0.000000 0.000000
# 3 -0.003584 -0.003584 0.011544 0.000000 0.000000 0.000000
# 4 0.000000 0.000000 0.000000 -0.056181 0.000000 0.000000
# 5 0.000000 0.000000 0.000000 0.000000 -0.056306 0.000000
# 6 0.000000 0.000000 0.000000 0.000000 0.000000 0.176226
#
#
# Mechanical properties :
#
#
# Convention : Reuss Voigt Hill
#
# Bulk Modulus (GPa) = 46.18374 47.79966 46.99170
# Shear Modulus (GPa) = 37.16536 5.58264 21.37400
#
# Velocity S-wave (km/s) = 5.63197 2.18278 4.27104
# Velocity P-wave (km/s) = 9.03925 6.86642 8.02670
#
# Compressibility (1/GPa) = 0.02165264
#
# Stress axis : x y z
#
# Youngs Moduli (GPa) = 64.36877 64.36929 86.62691
#
# Poissons Ratio (x) = 0.21326 0.31047
# Poissons Ratio (y) = 0.21325 0.31047
# Poissons Ratio (z) = 0.23070 0.23070
#
# Static dielectric constant tensor:
#      x y z
#    x 2.380600 0.000000 0.000000 
#    y 0.000000 2.380600 0.000000 
#    z 0.000000 0.000000 6.764370 
# 
# 
# High freq. dielectric constant tensor:
#      x y z
#    x 1.411020 0.000000 0.000000 
#    y 0.000000 1.411020 0.000000 
#    z 0.000000 0.000000 1.471270 
# 
# From -- ./inp_files/2042.got.cif
#   From: 2010.03.12/outbox.cif.g09.slc.cpg/sg131_2_cif.got.tgz:2042.got - 2010.04.06 17:36:35.
