data_PCOD8315042
_publ_section_title
;
Structure prediction by ZEFSAII (Michael W. Deem and Ramdas Pophale) SiO2 
 PCOD8315042
Probable space group: P 4/N M M
;
_chemical_formula_sum "Si O2"
_cell_formula_units_Z 112
_cell_length_a 14.833239
_cell_length_b 14.833239
_cell_length_c 31.221877
_cell_angle_alpha 90.000000
_cell_angle_beta 90.000000
_cell_angle_gamma 90.000000
_cell_volume 6869.592838
_symmetry_space_group_name_H-M "P 4/N M M"
_symmetry_group_IT_number 129
_symmetry_cell_setting 'tetragonal'
loop_
_space_group_symop_operation_xyz
x,y,z
1/2-y,x,z
1/2-x,1/2-y,z
y,1/2-x,z
1/2+x,-y,-z
-x,1/2+y,-z
1/2+y,1/2+x,-z
-y,-x,-z
-x,-y,-z
1/2+y,-x,-z
1/2+x,1/2+y,-z
-y,1/2+x,-z
1/2-x,y,z
x,1/2-y,z
1/2-y,1/2-x,z
y,x,z
loop_
_atom_site_type_symbol
_atom_site_label
_atom_site_fract_x
_atom_site_fract_y
_atom_site_fract_z
Si Si1 0.844311 0.985468 0.983201
Si Si2 0.648207 0.503001 0.619804
Si Si3 0.097599 0.851160 0.063494
Si Si4 0.005020 0.857108 0.519815
Si Si5 0.501241 0.353763 0.756552
Si Si6 0.646856 0.146897 0.686913
Si Si7 0.852288 0.502484 0.146890
O O1 0.750000 0.932412 0.978476
O O2 0.924969 0.924969 0.965559
O O3 0.833135 0.075647 0.954567
O O4 0.859002 0.009255 0.033117
O O5 0.750000 0.533860 0.629840
O O6 0.584406 0.584406 0.634386
O O7 0.636586 0.479513 0.570284
O O8 0.622019 0.413616 0.646018
O O9 0.138658 0.750000 0.060916
O O10 0.074452 0.876321 0.112488
O O11 0.092974 0.907027 0.500000
O O12 0.998175 0.750000 0.505822
O O13 0.912537 0.912537 0.507314
O O14 0.472518 0.250000 0.749226
O O15 0.414576 0.414576 0.745523
O O16 0.584429 0.381607 0.726600
O O17 0.534927 0.369631 0.805238
O O18 0.750000 0.132289 0.701466
O O19 0.629496 0.250000 0.673177
O O20 0.750000 0.533518 0.140666
O O21 0.909476 0.590525 0.137592
#
# Coordination Sequence:
#
# PCOD8315042 Si02
#       7
#    16  16  16  16  16  16  16
#     4  10  19  30  45  63  85 113 141 171 206 244
#     4   9  17  29  46  67  90 116 145 180 223 267
#     4   9  17  30  47  64  83 108 137 171 212 252
#     4   9  18  31  46  67  94 122 154 191 230 273
#     4   9  17  28  43  63  86 113 141 170 207 249
#     4   9  17  29  44  62  85 113 146 181 215 253
#     4   9  16  26  41  61  85 111 138 169 206 250
#
# _framework density 16.303732
#
# number of rings (size 3 to 8) (size 9 to 14) (size 15 to 20)
#    0.000    2.857    0.000    2.143    0.000    1.714 
#    0.000    6.429    0.000    5.143    0.000    0.000 
#    0.000    3.429    0.000    7.714    0.000    0.143 
#
# Total GULP energy -1387814.847556 kJ/mol
# GULP energy per Si atom -12391.203996 kJ/mol
# Density = 1.626662 g / cm^3
# Si number density = 16.303732 Si / 1000 Ang^3
#
#
#
# Elastic Constant Matrix: (Units=GPa)
#
#
# Indices 1 2 3 4 5 6 
#
# 1 89.0719 54.4292 43.2796 0.0000 0.0000 0.0000
# 2 54.4292 89.0725 43.2797 0.0000 0.0000 0.0000
# 3 43.2796 43.2797 71.4342 0.0000 0.0000 0.0000
# 4 0.0000 0.0000 0.0000 20.0234 0.0000 0.0000
# 5 0.0000 0.0000 0.0000 0.0000 20.0234 0.0000
# 6 0.0000 0.0000 0.0000 0.0000 0.0000 17.3337
#
#
#
# Elastic Compliance Matrix: (Units=1/GPa)
#
#
# Indices 1 2 3 4 5 6 
#
# 1 0.019924 -0.008942 -0.006654 0.000000 0.000000 0.000000
# 2 -0.008942 0.019924 -0.006654 0.000000 0.000000 0.000000
# 3 -0.006654 -0.006654 0.022061 0.000000 0.000000 0.000000
# 4 0.000000 0.000000 0.000000 0.049942 0.000000 0.000000
# 5 0.000000 0.000000 0.000000 0.000000 0.049942 0.000000
# 6 0.000000 0.000000 0.000000 0.000000 0.000000 0.057691
#
#
# Mechanical properties :
#
#
# Convention : Reuss Voigt Hill
#
# Bulk Modulus (GPa) = 57.43561 59.06172 58.24866
# Shear Modulus (GPa) = 18.53324 18.71544 18.62434
#
# Velocity S-wave (km/s) = 3.37523 3.39178 3.38351
# Velocity P-wave (km/s) = 7.10595 7.18633 7.14626
#
# Compressibility (1/GPa) = 0.01741080
#
# Stress axis : x y z
#
# Youngs Moduli (GPa) = 50.19066 50.19109 45.32813
#
# Poissons Ratio (x) = 0.44880 0.30160
# Poissons Ratio (y) = 0.44880 0.30160
# Poissons Ratio (z) = 0.33395 0.33395
#
# Static dielectric constant tensor:
#      x y z
#    x 3.092960 0.000000 0.000000 
#    y 0.000000 3.092960 0.000000 
#    z 0.000000 0.000000 3.104100 
# 
# 
# High freq. dielectric constant tensor:
#      x y z
#    x 1.621140 0.000000 0.000000 
#    y 0.000000 1.621140 0.000000 
#    z 0.000000 0.000000 1.618960 
# 
# From -- ./inp_files/7558.got.cif
#   From: 2010.03.12/outbox.cif.g09.slc.cpg/sg129_4_cif.got.tgz:7558.got - 2010.04.06 17:19:44.
