data_PCOD8315848
_publ_section_title
;
Structure prediction by ZEFSAII (Michael W. Deem and Ramdas Pophale) SiO2 
 PCOD8315848
Probable space group: P 42/M M C
;
_chemical_formula_sum "Si O2"
_cell_formula_units_Z 112
_cell_length_a 14.890122
_cell_length_b 14.890122
_cell_length_c 30.293098
_cell_angle_alpha 90.000000
_cell_angle_beta 90.000000
_cell_angle_gamma 90.000000
_cell_volume 6716.456433
_symmetry_space_group_name_H-M "P 42/M M C"
_symmetry_group_IT_number 131
_symmetry_cell_setting 'tetragonal'
loop_
_space_group_symop_operation_xyz
x,y,z
-x,-y,z
-y,x,1/2+z
y,-x,1/2+z
-x,y,-z
x,-y,-z
y,x,1/2-z
-y,-x,1/2-z
-x,-y,-z
x,y,-z
y,-x,1/2-z
-y,x,1/2-z
x,-y,z
-x,y,z
-y,-x,1/2+z
y,x,1/2+z
loop_
_atom_site_type_symbol
_atom_site_label
_atom_site_fract_x
_atom_site_fract_y
_atom_site_fract_z
Si Si1 0.598813 0.897940 0.909364
Si Si2 0.214270 0.645300 0.326080
Si Si3 0.600305 0.103276 0.741673
Si Si4 0.779776 0.105629 0.048117
Si Si5 0.898765 0.099288 0.373350
Si Si6 0.402060 0.395604 0.298663
Si Si7 0.215468 0.158456 0.297388
O O1 0.500000 0.887778 0.931237
O O2 0.602947 0.832966 0.867828
O O3 0.674577 0.871862 0.944735
O O4 0.614325 0.000000 0.892715
O O5 0.170024 0.600524 0.283106
O O6 0.321405 0.628416 0.331471
O O7 0.202320 0.750904 0.324637
O O8 0.500000 0.111642 0.720028
O O9 0.679355 0.131609 0.707525
O O10 0.617647 0.000000 0.756490
O O11 0.838183 0.145780 0.088497
O O12 0.797151 0.000000 0.047124
O O13 0.806576 0.146293 0.000000
O O14 0.838819 0.091145 0.328853
O O15 0.000000 0.132834 0.361151
O O16 0.902926 0.000000 0.393708
O O17 0.366670 0.366670 0.250000
O O18 0.419301 0.500000 0.298201
O O19 0.500000 0.350278 0.310467
O O20 0.166966 0.166966 0.250000
#
# Coordination Sequence:
#
# PCOD8315848 Si02
#       7
#    16  16  16  16  16  16  16
#     4  10  19  30  47  71  99 129 158 191 233 283
#     4  11  19  29  46  66  92 128 165 198 236 282
#     4  10  20  32  46  66  94 128 166 204 239 281
#     4   9  18  33  51  71  96 124 157 198 242 290
#     4  10  20  34  51  70  95 126 161 202 242 283
#     4   9  17  28  41  59  86 120 159 201 237 270
#     4  10  21  32  46  68  96 130 164 201 237 279
#
# _framework density 16.675460000000001
#
# number of rings (size 3 to 8) (size 9 to 14) (size 15 to 20)
#    0.000    2.143    1.429    3.857    0.000    6.286 
#    0.000    3.571    0.000    0.000    0.000    0.000 
#    0.000    2.286    0.000    6.000    0.000    0.286 
#
# Total GULP energy -1387676.842508 kJ/mol
# GULP energy per Si atom -12389.971808 kJ/mol
# Density = 1.663751 g / cm^3
# Si number density = 16.675460 Si / 1000 Ang^3
#
#
#
# Elastic Constant Matrix: (Units=GPa)
#
#
# Indices 1 2 3 4 5 6 
#
# 1 77.9079 14.8658 29.7526 0.0000 0.0000 0.0000
# 2 14.8658 77.9079 29.7526 0.0000 0.0000 0.0000
# 3 29.7526 29.7526 82.7506 0.0000 0.0000 0.0000
# 4 0.0000 0.0000 0.0000 13.0591 0.0000 0.0000
# 5 0.0000 0.0000 0.0000 0.0000 13.0591 0.0000
# 6 0.0000 0.0000 0.0000 0.0000 0.0000 20.3944
#
#
#
# Elastic Compliance Matrix: (Units=1/GPa)
#
#
# Indices 1 2 3 4 5 6 
#
# 1 0.014936 -0.000926 -0.005037 0.000000 0.000000 0.000000
# 2 -0.000926 0.014936 -0.005037 0.000000 0.000000 0.000000
# 3 -0.005037 -0.005037 0.015707 0.000000 0.000000 0.000000
# 4 0.000000 0.000000 0.000000 0.076575 0.000000 0.000000
# 5 0.000000 0.000000 0.000000 0.000000 0.076575 0.000000
# 6 0.000000 0.000000 0.000000 0.000000 0.000000 0.049033
#
#
# Mechanical properties :
#
#
# Convention : Reuss Voigt Hill
#
# Bulk Modulus (GPa) = 42.41314 43.03426 42.72370
# Shear Modulus (GPa) = 18.01009 20.24888 19.12948
#
# Velocity S-wave (km/s) = 3.28995 3.48845 3.39066
# Velocity P-wave (km/s) = 6.31834 6.48758 6.40352
#
# Compressibility (1/GPa) = 0.02357760
#
# Stress axis : x y z
#
# Youngs Moduli (GPa) = 66.95196 66.95196 63.66730
#
# Poissons Ratio (x) = 0.06202 0.32070
# Poissons Ratio (y) = 0.06202 0.32070
# Poissons Ratio (z) = 0.33725 0.33725
#
# Static dielectric constant tensor:
#      x y z
#    x 3.160110 0.000000 0.000000 
#    y 0.000000 3.160110 0.000000 
#    z 0.000000 0.000000 2.971340 
# 
# 
# High freq. dielectric constant tensor:
#      x y z
#    x 1.642060 0.000000 0.000000 
#    y 0.000000 1.642060 0.000000 
#    z 0.000000 0.000000 1.597980 
# 
# From -- ./inp_files/13873.got.cif
#   From: 2010.03.12/outbox.cif.g09.slc.cpg/sg131_7_cif.got.tgz:13873.got - 2010.04.06 17:36:35.
