data_PCOD8315712
_publ_section_title
;
Structure prediction by ZEFSAII (Michael W. Deem and Ramdas Pophale) SiO2 
 PCOD8315712
Probable space group: P 42/M M C
;
_chemical_formula_sum "Si O2"
_cell_formula_units_Z 96
_cell_length_a 28.425239
_cell_length_b 28.425239
_cell_length_c 8.935731
_cell_angle_alpha 90.000000
_cell_angle_beta 90.000000
_cell_angle_gamma 90.000000
_cell_volume 7220.018930
_symmetry_space_group_name_H-M "P 42/M M C"
_symmetry_group_IT_number 131
_symmetry_cell_setting 'tetragonal'
loop_
_space_group_symop_operation_xyz
x,y,z
-x,-y,z
-y,x,1/2+z
y,-x,1/2+z
-x,y,-z
x,-y,-z
y,x,1/2-z
-y,-x,1/2-z
-x,-y,-z
x,y,-z
y,-x,1/2-z
-y,x,1/2-z
x,-y,z
-x,y,z
-y,-x,1/2+z
y,x,1/2+z
loop_
_atom_site_type_symbol
_atom_site_label
_atom_site_fract_x
_atom_site_fract_y
_atom_site_fract_z
Si Si1 0.342867 0.868870 0.678464
Si Si2 0.599434 0.790179 0.830545
Si Si3 0.278373 0.657932 0.832612
Si Si4 0.500000 0.824770 0.164092
Si Si5 0.945893 0.402340 0.671663
Si Si6 0.263398 0.198253 0.333896
Si Si7 0.500000 0.081372 0.323769
O O1 0.343648 0.873804 0.500000
O O2 0.382601 0.832480 0.727968
O O3 0.358439 0.918101 0.752823
O O4 0.290994 0.848467 0.730400
O O5 0.614297 0.740435 0.762430
O O6 0.543676 0.790176 0.822870
O O7 0.618806 0.795704 0.000000
O O8 0.325200 0.674801 0.750000
O O9 0.239699 0.698856 0.833537
O O10 0.290682 0.641922 0.000000
O O11 0.500000 0.863129 0.294582
O O12 0.500000 0.850148 0.000000
O O13 0.928746 0.407975 0.500000
O O14 0.940114 0.452515 0.753419
O O15 0.000000 0.387357 0.679603
O O16 0.215903 0.215903 0.250000
O O17 0.246122 0.186569 0.500000
O O18 0.500000 0.070924 0.500000
#
# Coordination Sequence:
#
# PCOD8315712 Si02
#       7
#    16  16  16   8  16  16   8
#     4  10  19  30  43  60  78  97 123 156 191 230
#     4  10  18  28  42  57  76 100 123 151 187 226
#     4   9  16  26  39  56  76  96 121 149 179 218
#     4  10  20  31  43  58  78 101 126 153 191 234
#     4  11  23  36  47  58  74  97 127 164 206 250
#     4   8  15  25  38  57  78  96 116 142 176 219
#     4  12  23  33  48  61  72  92 124 166 207 245
#
# _framework density 13.296364000000001
#
# number of rings (size 3 to 8) (size 9 to 14) (size 15 to 20)
#    0.000    2.167    1.667    4.000    0.000    7.667 
#    0.000    0.000    0.000    0.000    0.000    0.000 
#    0.000    0.000    0.000    0.000    0.000    0.417 
#
# Total GULP energy -1189537.807930 kJ/mol
# GULP energy per Si atom -12391.018833 kJ/mol
# Density = 1.326610 g / cm^3
# Si number density = 13.296364 Si / 1000 Ang^3
#
#
#
# Elastic Constant Matrix: (Units=GPa)
#
#
# Indices 1 2 3 4 5 6 
#
# 1 54.6259 43.2102 34.6162 0.0000 0.0000 0.0000
# 2 43.2102 54.6263 34.6171 0.0000 0.0000 0.0000
# 3 34.6162 34.6171 88.9008 0.0000 0.0000 0.0000
# 4 0.0000 0.0000 0.0000 18.8467 0.0000 0.0000
# 5 0.0000 0.0000 0.0000 0.0000 18.8466 0.0000
# 6 0.0000 0.0000 0.0000 0.0000 0.0000 15.9877
#
#
#
# Elastic Compliance Matrix: (Units=1/GPa)
#
#
# Indices 1 2 3 4 5 6 
#
# 1 0.050853 -0.036744 -0.005493 0.000000 0.000000 0.000000
# 2 -0.036744 0.050853 -0.005494 0.000000 0.000000 0.000000
# 3 -0.005493 -0.005494 0.015527 0.000000 0.000000 0.000000
# 4 0.000000 0.000000 0.000000 0.053060 0.000000 0.000000
# 5 0.000000 0.000000 0.000000 0.000000 0.053060 0.000000
# 6 0.000000 0.000000 0.000000 0.000000 0.000000 0.062548
#
#
# Mechanical properties :
#
#
# Convention : Reuss Voigt Hill
#
# Bulk Modulus (GPa) = 45.93599 47.00445 46.47022
# Shear Modulus (GPa) = 12.86605 16.45016 14.65811
#
# Velocity S-wave (km/s) = 3.11406 3.52119 3.32387
# Velocity P-wave (km/s) = 6.89584 7.20832 7.05381
#
# Compressibility (1/GPa) = 0.02176942
#
# Stress axis : x y z
#
# Youngs Moduli (GPa) = 19.66472 19.66453 64.40451
#
# Poissons Ratio (x) = 0.72255 0.35379
# Poissons Ratio (y) = 0.72256 0.35386
# Poissons Ratio (z) = 0.10802 0.10804
#
# Static dielectric constant tensor:
#      x y z
#    x 2.635300 0.000000 0.000000 
#    y 0.000000 2.635290 0.000000 
#    z 0.000000 0.000000 2.912480 
# 
# 
# High freq. dielectric constant tensor:
#      x y z
#    x 1.472310 0.000000 0.000000 
#    y 0.000000 1.472310 0.000000 
#    z 0.000000 0.000000 1.524910 
# 
# From -- ./inp_files/2721.got.cif
#   From: 2010.03.12/outbox.cif.g09.slc.cpg/sg131_2_cif.got.tgz:2721.got - 2010.04.06 17:36:35.
