data_PCOD8315729
_publ_section_title
;
Structure prediction by ZEFSAII (Michael W. Deem and Ramdas Pophale) SiO2 
 PCOD8315729
Probable space group: P 42/M M C
;
_chemical_formula_sum "Si O2"
_cell_formula_units_Z 96
_cell_length_a 23.058660
_cell_length_b 23.058660
_cell_length_c 10.583921
_cell_angle_alpha 90.000000
_cell_angle_beta 90.000000
_cell_angle_gamma 90.000000
_cell_volume 5627.489857
_symmetry_space_group_name_H-M "P 42/M M C"
_symmetry_group_IT_number 131
_symmetry_cell_setting 'tetragonal'
loop_
_space_group_symop_operation_xyz
x,y,z
-x,-y,z
-y,x,1/2+z
y,-x,1/2+z
-x,y,-z
x,-y,-z
y,x,1/2-z
-y,-x,1/2-z
-x,-y,-z
x,y,-z
y,-x,1/2-z
-y,x,1/2-z
x,-y,z
-x,y,z
-y,-x,1/2+z
y,x,1/2+z
loop_
_atom_site_type_symbol
_atom_site_label
_atom_site_fract_x
_atom_site_fract_y
_atom_site_fract_z
Si Si1 0.284904 0.936208 0.266001
Si Si2 0.674638 0.741064 0.355490
Si Si3 0.434150 0.153664 0.000000
Si Si4 0.931239 0.330390 0.500000
Si Si5 0.831982 0.775397 0.139642
Si Si6 0.588105 0.063542 0.355914
Si Si7 0.190584 0.435523 0.766354
O O1 0.295597 0.910901 0.124500
O O2 0.239910 0.898959 0.345478
O O3 0.343152 0.936244 0.346050
O O4 0.257976 0.000000 0.254561
O O5 0.691512 0.691512 0.250000
O O6 0.678276 0.716055 0.500000
O O7 0.718038 0.794280 0.337804
O O8 0.610683 0.768998 0.338326
O O9 0.393279 0.097672 0.000000
O O10 0.422169 0.196201 0.882035
O O11 0.500000 0.130217 0.000000
O O12 0.000000 0.341093 0.500000
O O13 0.820940 0.820940 0.250000
O O14 0.820568 0.801689 0.000000
O O15 0.568823 0.068323 0.500000
O O16 0.563972 0.120825 0.288944
O O17 0.565954 0.000000 0.302119
O O18 0.213746 0.500000 0.801285
#
# Coordination Sequence:
#
# PCOD8315729 Si02
#       7
#    16  16   8   8  16  16  16
#     4  10  19  31  49  69  94 128 167 208 252 298
#     4  10  21  36  54  75  99 131 168 209 257 305
#     4  10  20  31  46  68  96 132 167 207 251 293
#     4  10  18  29  46  66  90 128 171 211 249 290
#     4  10  20  33  50  72  97 126 163 206 252 303
#     4  10  19  31  47  66  94 132 173 215 252 291
#     4  11  22  35  52  73 101 133 172 216 259 303
#
# _framework density 17.059116
#
# number of rings (size 3 to 8) (size 9 to 14) (size 15 to 20)
#    0.000    1.833    3.333    1.000    2.333    2.833 
#    0.000    2.500    0.000    0.000    0.000    0.000 
#    0.000    0.667    0.000    3.000    0.000    0.000 
#
# Total GULP energy -1189426.059586 kJ/mol
# GULP energy per Si atom -12389.854787 kJ/mol
# Density = 1.702029 g / cm^3
# Si number density = 17.059116 Si / 1000 Ang^3
#
#
#
# Elastic Constant Matrix: (Units=GPa)
#
#
# Indices 1 2 3 4 5 6 
#
# 1 56.8167 29.6199 30.6523 0.0000 0.0000 0.0000
# 2 29.6199 56.8167 30.6523 0.0000 0.0000 0.0000
# 3 30.6523 30.6523 111.4215 0.0000 0.0000 0.0000
# 4 0.0000 0.0000 0.0000 13.6001 0.0000 0.0000
# 5 0.0000 0.0000 0.0000 0.0000 13.6001 0.0000
# 6 0.0000 0.0000 0.0000 0.0000 0.0000 17.2571
#
#
#
# Elastic Compliance Matrix: (Units=1/GPa)
#
#
# Indices 1 2 3 4 5 6 
#
# 1 0.025571 -0.011198 -0.003954 0.000000 0.000000 0.000000
# 2 -0.011198 0.025571 -0.003954 0.000000 0.000000 0.000000
# 3 -0.003954 -0.003954 0.011151 0.000000 0.000000 0.000000
# 4 0.000000 0.000000 0.000000 0.073529 0.000000 0.000000
# 5 0.000000 0.000000 0.000000 0.000000 0.073529 0.000000
# 6 0.000000 0.000000 0.000000 0.000000 0.000000 0.057947
#
#
# Mechanical properties :
#
#
# Convention : Reuss Voigt Hill
#
# Bulk Modulus (GPa) = 41.52653 45.21157 43.36905
# Shear Modulus (GPa) = 15.94707 17.83349 16.89028
#
# Velocity S-wave (km/s) = 3.06079 3.23676 3.15000
# Velocity P-wave (km/s) = 6.07345 6.36626 6.22158
#
# Compressibility (1/GPa) = 0.02408099
#
# Stress axis : x y z
#
# Youngs Moduli (GPa) = 39.10624 39.10624 89.68148
#
# Poissons Ratio (x) = 0.43790 0.35462
# Poissons Ratio (y) = 0.43790 0.35462
# Poissons Ratio (z) = 0.15464 0.15464
#
# Static dielectric constant tensor:
#      x y z
#    x 2.959230 0.000000 0.000000 
#    y 0.000000 2.959230 0.000000 
#    z 0.000000 0.000000 3.601250 
# 
# 
# High freq. dielectric constant tensor:
#      x y z
#    x 1.619540 0.000000 0.000000 
#    y 0.000000 1.619540 0.000000 
#    z 0.000000 0.000000 1.683500 
# 
# From -- ./inp_files/4329.got.cif
#   From: 2010.03.12/outbox.cif.g09.slc.cpg/sg131_3_cif.got.tgz:4329.got - 2010.04.06 17:36:35.
