data_PCOD8315139
_publ_section_title
;
Structure prediction by ZEFSAII (Michael W. Deem and Ramdas Pophale) SiO2 
 PCOD8315139
Probable space group: P 4/N M M
;
_chemical_formula_sum "Si O2"
_cell_formula_units_Z 96
_cell_length_a 18.217073
_cell_length_b 18.217073
_cell_length_c 16.576068
_cell_angle_alpha 90.000000
_cell_angle_beta 90.000000
_cell_angle_gamma 90.000000
_cell_volume 5500.962913
_symmetry_space_group_name_H-M "P 4/N M M"
_symmetry_group_IT_number 129
_symmetry_cell_setting 'tetragonal'
loop_
_space_group_symop_operation_xyz
x,y,z
1/2-y,x,z
1/2-x,1/2-y,z
y,1/2-x,z
1/2+x,-y,-z
-x,1/2+y,-z
1/2+y,1/2+x,-z
-y,-x,-z
-x,-y,-z
1/2+y,-x,-z
1/2+x,1/2+y,-z
-y,1/2+x,-z
1/2-x,y,z
x,1/2-y,z
1/2-y,1/2-x,z
y,x,z
loop_
_atom_site_type_symbol
_atom_site_label
_atom_site_fract_x
_atom_site_fract_y
_atom_site_fract_z
Si Si1 0.978629 0.402689 0.822575
Si Si2 0.669112 0.948461 0.868422
Si Si3 0.665503 0.442498 0.734943
Si Si4 0.336036 0.947910 0.988977
Si Si5 0.549115 0.834716 0.322894
Si Si6 0.439744 0.561146 0.407954
O O1 0.894597 0.398246 0.789007
O O2 0.986236 0.374514 0.913148
O O3 0.014472 0.485529 0.814857
O O4 0.027836 0.346956 0.770268
O O5 0.750000 0.927689 0.897238
O O6 0.625272 0.874729 0.874713
O O7 0.668612 0.977763 0.776684
O O8 0.638249 0.009285 0.930515
O O9 0.750000 0.409411 0.736042
O O10 0.635592 0.448058 0.643364
O O11 0.250000 0.944749 0.976278
O O12 0.365077 0.865077 0.000000
O O13 0.557107 0.750000 0.344434
O O14 0.626510 0.873491 0.342846
O O15 0.485173 0.869544 0.377045
O O16 0.420624 0.579377 0.500000
O O17 0.486375 0.486375 0.398859
#
# Coordination Sequence:
#
# PCOD8315139 Si02
#       6
#    16  16  16  16  16  16
#     4  10  19  33  54  73  98 136 178 219 257 301
#     4  10  20  33  50  74 103 135 173 214 259 311
#     4  10  19  31  50  77 103 126 162 210 260 307
#     4  11  22  33  49  73  99 134 177 219 264 310
#     4   9  18  32  51  76 103 132 167 210 260 313
#     4   9  18  33  53  75  99 132 174 211 249 301
#
# _framework density 17.451488999999999
#
# number of rings (size 3 to 8) (size 9 to 14) (size 15 to 20)
#    0.000    2.167    1.667    3.500    0.000    1.833 
#    0.000    0.000    0.000   12.000    0.000    7.000 
#    0.000    4.000    0.000    0.000    0.000    0.000 
#
# Total GULP energy -1189664.582941 kJ/mol
# GULP energy per Si atom -12392.339406 kJ/mol
# Density = 1.741177 g / cm^3
# Si number density = 17.451489 Si / 1000 Ang^3
#
#
#
# Elastic Constant Matrix: (Units=GPa)
#
#
# Indices 1 2 3 4 5 6 
#
# 1 98.2062 40.8615 40.1784 0.0000 0.0000 0.0000
# 2 40.8615 98.2062 40.1784 0.0000 0.0000 0.0000
# 3 40.1784 40.1784 129.3698 0.0000 0.0000 0.0000
# 4 0.0000 0.0000 0.0000 20.0344 0.0000 0.0000
# 5 0.0000 0.0000 0.0000 0.0000 20.0343 0.0000
# 6 0.0000 0.0000 0.0000 0.0000 0.0000 18.6816
#
#
#
# Elastic Compliance Matrix: (Units=1/GPa)
#
#
# Indices 1 2 3 4 5 6 
#
# 1 0.013101 -0.004338 -0.002722 0.000000 0.000000 0.000000
# 2 -0.004338 0.013101 -0.002722 0.000000 0.000000 0.000000
# 3 -0.002722 -0.002722 0.009420 0.000000 0.000000 0.000000
# 4 0.000000 0.000000 0.000000 0.049914 0.000000 0.000000
# 5 0.000000 0.000000 0.000000 0.000000 0.049914 0.000000
# 6 0.000000 0.000000 0.000000 0.000000 0.000000 0.053528
#
#
# Mechanical properties :
#
#
# Convention : Reuss Voigt Hill
#
# Bulk Modulus (GPa) = 62.26463 63.13541 62.70002
# Shear Modulus (GPa) = 23.37604 25.38766 24.38185
#
# Velocity S-wave (km/s) = 3.66387 3.81826 3.74186
# Velocity P-wave (km/s) = 7.32494 7.46291 7.39425
#
# Compressibility (1/GPa) = 0.01606048
#
# Stress axis : x y z
#
# Youngs Moduli (GPa) = 76.33070 76.33066 106.15371
#
# Poissons Ratio (x) = 0.33109 0.28891
# Poissons Ratio (y) = 0.33109 0.28891
# Poissons Ratio (z) = 0.20774 0.20774
#
# Static dielectric constant tensor:
#      x y z
#    x 3.142370 0.000000 0.000000 
#    y 0.000000 3.142370 0.000000 
#    z 0.000000 0.000000 3.417130 
# 
# 
# High freq. dielectric constant tensor:
#      x y z
#    x 1.659530 0.000000 0.000000 
#    y 0.000000 1.659530 0.000000 
#    z 0.000000 0.000000 1.680480 
# 
# From -- ./inp_files/5697.got.cif
#   From: 2010.03.12/outbox.cif.g09.slc.cpg/sg129_3_cif.got.tgz:5697.got - 2010.04.06 17:19:44.
