data_PCOD8315762
_publ_section_title
;
Structure prediction by ZEFSAII (Michael W. Deem and Ramdas Pophale) SiO2 
 PCOD8315762
Probable space group: P 42/M M C
;
_chemical_formula_sum "Si O2"
_cell_formula_units_Z 64
_cell_length_a 23.725990
_cell_length_b 23.725990
_cell_length_c 10.171425
_cell_angle_alpha 90.000000
_cell_angle_beta 90.000000
_cell_angle_gamma 90.000000
_cell_volume 5725.725022
_symmetry_space_group_name_H-M "P 42/M M C"
_symmetry_group_IT_number 131
_symmetry_cell_setting 'tetragonal'
loop_
_space_group_symop_operation_xyz
x,y,z
-x,-y,z
-y,x,1/2+z
y,-x,1/2+z
-x,y,-z
x,-y,-z
y,x,1/2-z
-y,-x,1/2-z
-x,-y,-z
x,y,-z
y,-x,1/2-z
-y,x,1/2-z
x,-y,z
-x,y,z
-y,-x,1/2+z
y,x,1/2+z
loop_
_atom_site_type_symbol
_atom_site_label
_atom_site_fract_x
_atom_site_fract_y
_atom_site_fract_z
Si Si1 0.724867 0.566328 0.263761
Si Si2 0.936915 0.567007 0.852944
Si Si3 0.643452 0.434343 0.500000
Si Si4 0.845515 0.567335 0.351390
Si Si5 0.566954 0.331455 0.500000
O O1 0.731979 0.500000 0.253134
O O2 0.679758 0.581937 0.373676
O O3 0.785745 0.592003 0.301000
O O4 0.702687 0.590458 0.125493
O O5 0.935585 0.500000 0.847941
O O6 0.893887 0.591800 0.744856
O O7 0.000000 0.588484 0.819656
O O8 0.919401 0.587008 0.000000
O O9 0.625240 0.500000 0.500000
O O10 0.588051 0.395907 0.500000
O O11 0.857027 0.588477 0.500000
O O12 0.844631 0.500000 0.348649
O O13 0.500000 0.335694 0.500000
#
# Coordination Sequence:
#
# PCOD8315762 Si02
#       5
#    16  16   8  16   8
#     4   9  17  28  39  52  65  78  97 120 145 177
#     4   8  14  22  31  46  67  86 101 118 138 156
#     4  10  18  31  44  50  65  81  91 119 159 197
#     4   9  15  23  35  48  62  82 103 120 138 161
#     4  10  20  29  40  56  65  75  97 121 153 199
#
# _framework density 11.177624
#
# number of rings (size 3 to 8) (size 9 to 14) (size 15 to 20)
#    0.000    3.000    1.250    1.500    1.750    0.750 
#    0.000    2.500    0.000    4.500    0.000    0.000 
#    0.000    0.000    0.000    0.000    0.000    0.000 
#
# Total GULP energy -793191.953856 kJ/mol
# GULP energy per Si atom -12393.624279 kJ/mol
# Density = 1.115218 g / cm^3
# Si number density = 11.177624 Si / 1000 Ang^3
#
#
#
# Elastic Constant Matrix: (Units=GPa)
#
#
# Indices 1 2 3 4 5 6 
#
# 1 40.3641 16.9042 33.5831 0.0000 0.0000 0.0000
# 2 16.9042 40.3641 33.5831 0.0000 0.0000 0.0000
# 3 33.5831 33.5831 114.2823 0.0000 0.0000 0.0000
# 4 0.0000 0.0000 0.0000 6.0927 0.0000 0.0000
# 5 0.0000 0.0000 0.0000 0.0000 6.0927 0.0000
# 6 0.0000 0.0000 0.0000 0.0000 0.0000 0.6584
#
#
#
# Elastic Compliance Matrix: (Units=1/GPa)
#
#
# Indices 1 2 3 4 5 6 
#
# 1 0.034635 -0.007991 -0.007830 0.000000 0.000000 0.000000
# 2 -0.007991 0.034635 -0.007830 0.000000 0.000000 0.000000
# 3 -0.007830 -0.007830 0.013352 0.000000 0.000000 0.000000
# 4 0.000000 0.000000 0.000000 0.164131 0.000000 0.000000
# 5 0.000000 0.000000 0.000000 0.000000 0.164131 0.000000
# 6 0.000000 0.000000 0.000000 0.000000 0.000000 1.518744
#
#
# Mechanical properties :
#
#
# Convention : Reuss Voigt Hill
#
# Bulk Modulus (GPa) = 28.31082 40.35013 34.33047
# Shear Modulus (GPa) = 2.51420 9.96476 6.23948
#
# Velocity S-wave (km/s) = 1.50140 2.98903 2.36521
# Velocity P-wave (km/s) = 5.32810 6.93468 6.18379
#
# Compressibility (1/GPa) = 0.03532219
#
# Stress axis : x y z
#
# Youngs Moduli (GPa) = 28.87218 28.87218 74.89497
#
# Poissons Ratio (x) = 0.23071 0.58642
# Poissons Ratio (y) = 0.23071 0.58642
# Poissons Ratio (z) = 0.22606 0.22606
#
# Static dielectric constant tensor:
#      x y z
#    x 2.167860 0.000000 0.000000 
#    y 0.000000 2.167860 0.000000 
#    z 0.000000 0.000000 2.754250 
# 
# 
# High freq. dielectric constant tensor:
#      x y z
#    x 1.379110 0.000000 0.000000 
#    y 0.000000 1.379110 0.000000 
#    z 0.000000 0.000000 1.445570 
# 
# From -- ./inp_files/4064.got.cif
#   From: 2010.03.12/outbox.cif.g09.slc.cpg/sg131_3_cif.got.tgz:4064.got - 2010.04.06 17:36:35.
