data_PCOD8315467
_publ_section_title
;
Structure prediction by ZEFSAII (Michael W. Deem and Ramdas Pophale) SiO2 
 PCOD8315467
Probable space group: P 4/N C C
;
_chemical_formula_sum "Si O2"
_cell_formula_units_Z 72
_cell_length_a 20.435066
_cell_length_b 20.435066
_cell_length_c 9.064267
_cell_angle_alpha 90.000000
_cell_angle_beta 90.000000
_cell_angle_gamma 90.000000
_cell_volume 3785.164682
_symmetry_space_group_name_H-M "P 4/N C C"
_symmetry_group_IT_number 130
_symmetry_cell_setting 'tetragonal'
loop_
_space_group_symop_operation_xyz
x,y,z
1/2-y,x,z
1/2-x,1/2-y,z
y,1/2-x,z
1/2+x,-y,1/2-z
-x,1/2+y,1/2-z
1/2+y,1/2+x,1/2-z
-y,-x,1/2-z
-x,-y,-z
1/2+y,-x,-z
1/2+x,1/2+y,-z
-y,1/2+x,-z
1/2-x,y,1/2+z
x,1/2-y,1/2+z
1/2-y,1/2-x,1/2+z
y,x,1/2+z
loop_
_atom_site_type_symbol
_atom_site_label
_atom_site_fract_x
_atom_site_fract_y
_atom_site_fract_z
Si Si1 0.471928 0.700100 0.393853
Si Si2 0.257350 0.440087 0.857794
Si Si3 0.268412 0.648011 0.480363
Si Si4 0.352868 0.215820 0.602827
Si Si5 0.626837 0.373164 0.750000
O O1 0.517025 0.693703 0.539682
O O2 0.514778 0.716623 0.251803
O O3 0.415725 0.755086 0.419254
O O4 0.435942 0.629890 0.359762
O O5 0.298416 0.388620 0.758676
O O6 0.205990 0.402055 0.965102
O O7 0.199801 0.683543 0.437729
O O8 0.303366 0.623511 0.332366
O O9 0.331991 0.291935 0.593402
#
# Coordination Sequence:
#
# PCOD8315467 Si02
#       5
#    16  16  16  16   8
#     4  10  19  33  46  75 112 151 187 219 267 317
#     4  10  20  33  52  80 120 140 174 217 268 346
#     4   9  18  29  46  71 105 144 184 235 283 315
#     4  10  20  36  61  90 114 134 160 209 288 366
#     4  10  18  33  48  70 114 150 192 240 274 320
#
# _framework density 19.021629999999998
#
# number of rings (size 3 to 8) (size 9 to 14) (size 15 to 20)
#    0.000    2.222    2.222    1.333    0.000    8.889 
#    0.000    0.000    0.000    0.000    0.000   24.889 
#    0.000    0.000    0.000    0.000    0.000    0.000 
#
# Total GULP energy -892009.765987 kJ/mol
# GULP energy per Si atom -12389.024528 kJ/mol
# Density = 1.897834 g / cm^3
# Si number density = 19.021630 Si / 1000 Ang^3
#
#
#
# Elastic Constant Matrix: (Units=GPa)
#
#
# Indices 1 2 3 4 5 6 
#
# 1 89.3648 21.9305 39.9831 0.0000 0.0000 0.0000
# 2 21.9305 89.3644 39.9828 0.0000 0.0000 0.0000
# 3 39.9831 39.9828 126.6397 0.0000 0.0000 0.0000
# 4 0.0000 0.0000 0.0000 30.0802 0.0000 0.0000
# 5 0.0000 0.0000 0.0000 0.0000 30.0805 0.0000
# 6 0.0000 0.0000 0.0000 0.0000 0.0000 15.8808
#
#
#
# Elastic Compliance Matrix: (Units=1/GPa)
#
#
# Indices 1 2 3 4 5 6 
#
# 1 0.013225 -0.001604 -0.003669 0.000000 0.000000 0.000000
# 2 -0.001604 0.013225 -0.003669 0.000000 0.000000 0.000000
# 3 -0.003669 -0.003669 0.010213 0.000000 0.000000 0.000000
# 4 0.000000 0.000000 0.000000 0.033244 0.000000 0.000000
# 5 0.000000 0.000000 0.000000 0.000000 0.033244 0.000000
# 6 0.000000 0.000000 0.000000 0.000000 0.000000 0.062969
#
#
# Mechanical properties :
#
#
# Convention : Reuss Voigt Hill
#
# Bulk Modulus (GPa) = 53.24942 56.57352 54.91147
# Shear Modulus (GPa) = 26.27900 28.77313 27.52607
#
# Velocity S-wave (km/s) = 3.72093 3.89350 3.80819
# Velocity P-wave (km/s) = 6.82022 7.07239 6.94745
#
# Compressibility (1/GPa) = 0.01877955
#
# Stress axis : x y z
#
# Youngs Moduli (GPa) = 75.61248 75.61231 97.91178
#
# Poissons Ratio (x) = 0.12128 0.35925
# Poissons Ratio (y) = 0.12128 0.35925
# Poissons Ratio (z) = 0.27743 0.27743
#
# Static dielectric constant tensor:
#      x y z
#    x 3.500490 0.000000 0.000000 
#    y 0.000000 3.500500 0.000000 
#    z 0.000000 0.000000 3.725580 
# 
# 
# High freq. dielectric constant tensor:
#      x y z
#    x 1.713380 0.000000 0.000000 
#    y 0.000000 1.713380 0.000000 
#    z 0.000000 0.000000 1.758930 
# 
# From -- ./inp_files/777.got.cif
#   From: 2010.03.12/outbox.cif.g09.slc.cpg/sg130_1_cif.got.tgz:777.got - 2010.04.06 17:30:23.
