data_PCOD8315199
_publ_section_title
;
Structure prediction by ZEFSAII (Michael W. Deem and Ramdas Pophale) SiO2 
 PCOD8315199
Probable space group: P 4/N M M
;
_chemical_formula_sum "Si O2"
_cell_formula_units_Z 128
_cell_length_a 19.463346
_cell_length_b 19.463346
_cell_length_c 20.092240
_cell_angle_alpha 90.000000
_cell_angle_beta 90.000000
_cell_angle_gamma 90.000000
_cell_volume 7611.379277
_symmetry_space_group_name_H-M "P 4/N M M"
_symmetry_group_IT_number 129
_symmetry_cell_setting 'tetragonal'
loop_
_space_group_symop_operation_xyz
x,y,z
1/2-y,x,z
1/2-x,1/2-y,z
y,1/2-x,z
1/2+x,-y,-z
-x,1/2+y,-z
1/2+y,1/2+x,-z
-y,-x,-z
-x,-y,-z
1/2+y,-x,-z
1/2+x,1/2+y,-z
-y,1/2+x,-z
1/2-x,y,z
x,1/2-y,z
1/2-y,1/2-x,z
y,x,z
loop_
_atom_site_type_symbol
_atom_site_label
_atom_site_fract_x
_atom_site_fract_y
_atom_site_fract_z
Si Si1 0.397835 0.508663 0.540380
Si Si2 0.671130 0.442560 0.929412
Si Si3 0.169906 0.561978 0.672831
Si Si4 0.504798 0.888326 0.807027
Si Si5 0.389267 0.002819 0.798387
Si Si6 0.437211 0.828298 0.078711
Si Si7 0.327775 0.944752 0.316912
Si Si8 0.169573 0.058701 0.420335
O O1 0.424135 0.575866 0.500000
O O2 0.464219 0.464219 0.562431
O O3 0.354287 0.527948 0.604608
O O4 0.346672 0.463428 0.495512
O O5 0.750000 0.425483 0.916527
O O6 0.645149 0.502295 0.880336
O O7 0.631314 0.372683 0.911470
O O8 0.657927 0.468003 0.004964
O O9 0.250000 0.581612 0.668357
O O10 0.158501 0.509291 0.733952
O O11 0.126059 0.630562 0.685264
O O12 0.487025 0.831470 0.752027
O O13 0.581286 0.918715 0.796831
O O14 0.450908 0.949270 0.798665
O O15 0.420173 0.079828 0.795519
O O16 0.346156 0.994830 0.866581
O O17 0.413958 0.750000 0.087072
O O18 0.250000 0.923517 0.331319
O O19 0.355592 0.995716 0.374000
O O20 0.250000 0.074877 0.411052
O O21 0.126828 0.126828 0.400997
#
# Coordination Sequence:
#
# PCOD8315199 Si02
#       8
#    16  16  16  16  16  16  16  16
#     4  10  19  33  54  76  99 130 168 207 247 295
#     4   9  17  28  43  65  95 129 162 198 241 290
#     4  11  21  33  51  74 101 129 163 207 248 291
#     4   9  17  29  46  66  88 118 159 202 243 285
#     4   9  18  31  47  67  91 122 159 200 248 295
#     4   9  17  29  44  65  95 129 164 199 237 287
#     4  10  20  33  49  69  97 132 167 199 238 293
#     4  10  20  34  53  76 101 131 167 208 253 298
#
# _framework density 16.816925999999999
#
# number of rings (size 3 to 8) (size 9 to 14) (size 15 to 20)
#    0.000    2.375    1.250    1.875    0.000    2.125 
#    0.000    3.750    0.000    4.500    0.000    0.000 
#    0.000   13.250    0.000   11.000    0.000    1.000 
#
# Total GULP energy -1587001.229424 kJ/mol
# GULP energy per Si atom -12398.447105 kJ/mol
# Density = 1.677865 g / cm^3
# Si number density = 16.816926 Si / 1000 Ang^3
#
#
#
# Elastic Constant Matrix: (Units=GPa)
#
#
# Indices 1 2 3 4 5 6 
#
# 1 76.7617 48.9773 44.4088 0.0000 0.0000 0.0000
# 2 48.9773 76.7617 44.4088 0.0000 0.0000 0.0000
# 3 44.4088 44.4088 120.0229 0.0000 0.0000 0.0000
# 4 0.0000 0.0000 0.0000 23.3717 0.0000 0.0000
# 5 0.0000 0.0000 0.0000 0.0000 23.3717 0.0000
# 6 0.0000 0.0000 0.0000 0.0000 0.0000 19.9813
#
#
#
# Elastic Compliance Matrix: (Units=1/GPa)
#
#
# Indices 1 2 3 4 5 6 
#
# 1 0.023379 -0.012612 -0.003984 0.000000 0.000000 0.000000
# 2 -0.012612 0.023379 -0.003984 0.000000 0.000000 0.000000
# 3 -0.003984 -0.003984 0.011280 0.000000 0.000000 0.000000
# 4 0.000000 0.000000 0.000000 0.042787 0.000000 0.000000
# 5 0.000000 0.000000 0.000000 0.000000 0.042787 0.000000
# 6 0.000000 0.000000 0.000000 0.000000 0.000000 0.050047
#
#
# Mechanical properties :
#
#
# Convention : Reuss Voigt Hill
#
# Bulk Modulus (GPa) = 59.24689 61.01513 60.13101
# Shear Modulus (GPa) = 20.79481 22.39503 21.59492
#
# Velocity S-wave (km/s) = 3.52026 3.65320 3.58735
# Velocity P-wave (km/s) = 7.19931 7.35902 7.27960
#
# Compressibility (1/GPa) = 0.01687852
#
# Stress axis : x y z
#
# Youngs Moduli (GPa) = 42.77302 42.77300 88.65416
#
# Poissons Ratio (x) = 0.53946 0.35318
# Poissons Ratio (y) = 0.53946 0.35318
# Poissons Ratio (z) = 0.17040 0.17040
#
# Static dielectric constant tensor:
#      x y z
#    x 3.002330 0.000000 0.000000 
#    y 0.000000 3.002330 0.000000 
#    z 0.000000 0.000000 3.381670 
# 
# 
# High freq. dielectric constant tensor:
#      x y z
#    x 1.626780 0.000000 0.000000 
#    y 0.000000 1.626780 0.000000 
#    z 0.000000 0.000000 1.666430 
# 
# From -- ./inp_files/6129.got.cif
#   From: 2010.03.12/outbox.cif.g09.slc.cpg/sg129_4_cif.got.tgz:6129.got - 2010.04.06 17:19:44.
