data_PCOD8315293
_publ_section_title
;
Structure prediction by ZEFSAII (Michael W. Deem and Ramdas Pophale) SiO2 
 PCOD8315293
Probable space group: P 4/N M M
;
_chemical_formula_sum "Si O2"
_cell_formula_units_Z 72
_cell_length_a 14.030042
_cell_length_b 14.030042
_cell_length_c 22.980588
_cell_angle_alpha 90.000000
_cell_angle_beta 90.000000
_cell_angle_gamma 90.000000
_cell_volume 4523.546708
_symmetry_space_group_name_H-M "P 4/N M M"
_symmetry_group_IT_number 129
_symmetry_cell_setting 'tetragonal'
loop_
_space_group_symop_operation_xyz
x,y,z
1/2-y,x,z
1/2-x,1/2-y,z
y,1/2-x,z
1/2+x,-y,-z
-x,1/2+y,-z
1/2+y,1/2+x,-z
-y,-x,-z
-x,-y,-z
1/2+y,-x,-z
1/2+x,1/2+y,-z
-y,1/2+x,-z
1/2-x,y,z
x,1/2-y,z
1/2-y,1/2-x,z
y,x,z
loop_
_atom_site_type_symbol
_atom_site_label
_atom_site_fract_x
_atom_site_fract_y
_atom_site_fract_z
Si Si1 0.479246 0.636261 0.453638
Si Si2 0.360097 0.639904 0.000000
Si Si3 0.142370 0.860450 0.341484
Si Si4 0.359918 0.987315 0.105088
Si Si5 0.640736 0.012729 0.765161
O O1 0.403460 0.596541 0.500000
O O2 0.495593 0.750000 0.462920
O O3 0.580453 0.580453 0.458585
O O4 0.432473 0.613456 0.391493
O O5 0.412238 0.601703 0.942207
O O6 0.250000 0.618979 0.989402
O O7 0.250000 0.891884 0.359699
O O8 0.140496 0.750000 0.327667
O O9 0.108511 0.909977 0.282104
O O10 0.250000 0.010190 0.094662
O O11 0.413422 0.086579 0.096689
O O12 0.377822 0.945281 0.169990
O O13 0.750000 0.984416 0.756981
O O14 0.583648 0.916353 0.754392
#
# Coordination Sequence:
#
# PCOD8315293 Si02
#       5
#    16   8  16  16  16
#     4  10  20  33  50  71  94 121 152 186 224 265
#     4   9  17  28  42  60  81 105 134 170 212 255
#     4   9  17  29  46  67  89 114 145 180 216 255
#     4   9  17  28  42  60  82 109 139 171 208 250
#     4   9  17  28  42  61  85 112 141 173 209 250
#
# _framework density 15.916713
#
# number of rings (size 3 to 8) (size 9 to 14) (size 15 to 20)
#    0.000    2.778    0.000    1.667    0.000    2.667 
#    0.000    6.667    0.000    0.000    0.000    3.111 
#    0.000    0.000    0.000   41.333    0.000    1.111 
#
# Total GULP energy -892481.159205 kJ/mol
# GULP energy per Si atom -12395.571656 kJ/mol
# Density = 1.588049 g / cm^3
# Si number density = 15.916713 Si / 1000 Ang^3
#
#
#
# Elastic Constant Matrix: (Units=GPa)
#
#
# Indices 1 2 3 4 5 6 
#
# 1 70.0483 45.6808 58.6072 0.0000 0.0000 0.0000
# 2 45.6808 70.0477 58.6071 0.0000 0.0000 0.0000
# 3 58.6072 58.6071 128.5975 0.0000 0.0000 0.0000
# 4 0.0000 0.0000 0.0000 26.4526 0.0000 0.0000
# 5 0.0000 0.0000 0.0000 0.0000 26.4527 0.0000
# 6 0.0000 0.0000 0.0000 0.0000 0.0000 22.8220
#
#
#
# Elastic Compliance Matrix: (Units=1/GPa)
#
#
# Indices 1 2 3 4 5 6 
#
# 1 0.028544 -0.012495 -0.007314 0.000000 0.000000 0.000000
# 2 -0.012495 0.028544 -0.007314 0.000000 0.000000 0.000000
# 3 -0.007314 -0.007314 0.014443 0.000000 0.000000 0.000000
# 4 0.000000 0.000000 0.000000 0.037803 0.000000 0.000000
# 5 0.000000 0.000000 0.000000 0.000000 0.037803 0.000000
# 6 0.000000 0.000000 0.000000 0.000000 0.000000 0.043817
#
#
# Mechanical properties :
#
#
# Convention : Reuss Voigt Hill
#
# Bulk Modulus (GPa) = 57.85641 66.05373 61.95507
# Shear Modulus (GPa) = 19.92327 22.19868 21.06097
#
# Velocity S-wave (km/s) = 3.54180 3.73859 3.64153
# Velocity P-wave (km/s) = 7.29069 7.76053 7.52928
#
# Compressibility (1/GPa) = 0.01728417
#
# Stress axis : x y z
#
# Youngs Moduli (GPa) = 35.03399 35.03355 69.23800
#
# Poissons Ratio (x) = 0.43774 0.50641
# Poissons Ratio (y) = 0.43775 0.50642
# Poissons Ratio (z) = 0.25624 0.25624
#
# Static dielectric constant tensor:
#      x y z
#    x 2.951710 0.000000 0.000000 
#    y 0.000000 2.951690 0.000000 
#    z 0.000000 0.000000 3.298530 
# 
# 
# High freq. dielectric constant tensor:
#      x y z
#    x 1.601120 0.000000 0.000000 
#    y 0.000000 1.601120 0.000000 
#    z 0.000000 0.000000 1.626300 
# 
# From -- ./inp_files/5521.got.cif
#   From: 2010.03.12/outbox.cif.g09.slc.cpg/sg129_3_cif.got.tgz:5521.got - 2010.04.06 17:19:44.
