data_PCOD8315091
_publ_section_title
;
Structure prediction by ZEFSAII (Michael W. Deem and Ramdas Pophale) SiO2 
 PCOD8315091
Probable space group: P 4/N M M
;
_chemical_formula_sum "Si O2"
_cell_formula_units_Z 112
_cell_length_a 15.077833
_cell_length_b 15.077833
_cell_length_c 30.524867
_cell_angle_alpha 90.000000
_cell_angle_beta 90.000000
_cell_angle_gamma 90.000000
_cell_volume 6939.555253
_symmetry_space_group_name_H-M "P 4/N M M"
_symmetry_group_IT_number 129
_symmetry_cell_setting 'tetragonal'
loop_
_space_group_symop_operation_xyz
x,y,z
1/2-y,x,z
1/2-x,1/2-y,z
y,1/2-x,z
1/2+x,-y,-z
-x,1/2+y,-z
1/2+y,1/2+x,-z
-y,-x,-z
-x,-y,-z
1/2+y,-x,-z
1/2+x,1/2+y,-z
-y,1/2+x,-z
1/2-x,y,z
x,1/2-y,z
1/2-y,1/2-x,z
y,x,z
loop_
_atom_site_type_symbol
_atom_site_label
_atom_site_fract_x
_atom_site_fract_y
_atom_site_fract_z
Si Si1 0.851026 0.995258 0.288066
Si Si2 0.648977 0.507054 0.843461
Si Si3 0.348739 0.938137 0.061740
Si Si4 0.351048 0.851159 0.221620
Si Si5 0.995722 0.647541 0.389422
Si Si6 0.151772 0.645104 0.451036
Si Si7 0.487114 0.152935 0.968458
O O1 0.750000 0.964635 0.278936
O O2 0.875120 0.083873 0.261465
O O3 0.864207 0.019943 0.338666
O O4 0.914802 0.914802 0.273530
O O5 0.750000 0.536819 0.834418
O O6 0.584759 0.584759 0.826102
O O7 0.631728 0.493494 0.894781
O O8 0.627165 0.415097 0.818982
O O9 0.250000 0.896164 0.063322
O O10 0.418783 0.859012 0.055841
O O11 0.358524 0.004460 0.020730
O O12 0.250000 0.864761 0.238124
O O13 0.365667 0.750000 0.205584
O O14 0.975634 0.750000 0.401136
O O15 0.908339 0.591662 0.401784
O O16 0.079532 0.609349 0.416519
O O17 0.119751 0.619751 0.500000
O O18 0.250000 0.604535 0.441104
O O19 0.158971 0.750000 0.447175
O O20 0.450992 0.250000 0.956789
O O21 0.418094 0.081907 0.949748
#
# Coordination Sequence:
#
# PCOD8315091 Si02
#       7
#    16  16  16  16  16  16  16
#     4   9  17  29  44  62  85 111 140 174 209 249
#     4  10  19  31  48  68  91 117 142 171 208 251
#     4   9  18  32  49  67  87 113 145 180 216 249
#     4   9  18  31  46  65  87 111 140 174 212 251
#     4   9  17  27  40  60  84 111 141 171 207 251
#     4   8  14  25  40  58  81 108 139 176 214 249
#     4  10  19  31  47  66  91 119 145 176 210 248
#
# _framework density 16.139362999999999
#
# number of rings (size 3 to 8) (size 9 to 14) (size 15 to 20)
#    0.000    2.857    0.000    2.571    0.000    2.286 
#    0.000    7.143    0.000    2.571    0.000    0.000 
#    0.000    3.714    0.000    3.143    0.000    5.571 
#
# Total GULP energy -1388412.316321 kJ/mol
# GULP energy per Si atom -12396.538539 kJ/mol
# Density = 1.610263 g / cm^3
# Si number density = 16.139363 Si / 1000 Ang^3
#
#
#
# Elastic Constant Matrix: (Units=GPa)
#
#
# Indices 1 2 3 4 5 6 
#
# 1 98.9150 67.5570 45.0465 0.0000 0.0000 0.0000
# 2 67.5570 98.9150 45.0465 0.0000 0.0000 0.0000
# 3 45.0465 45.0465 56.3909 0.0000 0.0000 0.0000
# 4 0.0000 0.0000 0.0000 19.8335 0.0000 0.0000
# 5 0.0000 0.0000 0.0000 0.0000 19.8335 0.0000
# 6 0.0000 0.0000 0.0000 0.0000 0.0000 20.6566
#
#
#
# Elastic Compliance Matrix: (Units=1/GPa)
#
#
# Indices 1 2 3 4 5 6 
#
# 1 0.021236 -0.010654 -0.008453 0.000000 0.000000 0.000000
# 2 -0.010654 0.021236 -0.008453 0.000000 0.000000 0.000000
# 3 -0.008453 -0.008453 0.031238 0.000000 0.000000 0.000000
# 4 0.000000 0.000000 0.000000 0.050420 0.000000 0.000000
# 5 0.000000 0.000000 0.000000 0.000000 0.050420 0.000000
# 6 0.000000 0.000000 0.000000 0.000000 0.000000 0.048411
#
#
# Mechanical properties :
#
#
# Convention : Reuss Voigt Hill
#
# Bulk Modulus (GPa) = 53.79278 63.28010 58.53644
# Shear Modulus (GPa) = 17.58856 18.50280 18.04568
#
# Velocity S-wave (km/s) = 3.30478 3.38958 3.34745
# Velocity P-wave (km/s) = 6.92565 7.39004 7.16161
#
# Compressibility (1/GPa) = 0.01858986
#
# Stress axis : x y z
#
# Youngs Moduli (GPa) = 47.09054 47.09054 32.01222
#
# Poissons Ratio (x) = 0.50171 0.27059
# Poissons Ratio (y) = 0.50171 0.27059
# Poissons Ratio (z) = 0.39805 0.39805
#
# Static dielectric constant tensor:
#      x y z
#    x 3.071900 0.000000 0.000000 
#    y 0.000000 3.071900 0.000000 
#    z 0.000000 0.000000 3.013200 
# 
# 
# High freq. dielectric constant tensor:
#      x y z
#    x 1.611850 0.000000 0.000000 
#    y 0.000000 1.611850 0.000000 
#    z 0.000000 0.000000 1.607680 
# 
# From -- ./inp_files/7608.got.cif
#   From: 2010.03.12/outbox.cif.g09.slc.cpg/sg129_4_cif.got.tgz:7608.got - 2010.04.06 17:19:44.
