data_PCOD8315514
_publ_section_title
;
Structure prediction by ZEFSAII (Michael W. Deem and Ramdas Pophale) SiO2 
 PCOD8315514
Probable space group: P 4/N C C
;
_chemical_formula_sum "Si O2"
_cell_formula_units_Z 96
_cell_length_a 22.572675
_cell_length_b 22.572675
_cell_length_c 9.477903
_cell_angle_alpha 90.000000
_cell_angle_beta 90.000000
_cell_angle_gamma 90.000000
_cell_volume 4829.234750
_symmetry_space_group_name_H-M "P 4/N C C"
_symmetry_group_IT_number 130
_symmetry_cell_setting 'tetragonal'
loop_
_space_group_symop_operation_xyz
x,y,z
1/2-y,x,z
1/2-x,1/2-y,z
y,1/2-x,z
1/2+x,-y,1/2-z
-x,1/2+y,1/2-z
1/2+y,1/2+x,1/2-z
-y,-x,1/2-z
-x,-y,-z
1/2+y,-x,-z
1/2+x,1/2+y,-z
-y,1/2+x,-z
1/2-x,y,1/2+z
x,1/2-y,1/2+z
1/2-y,1/2-x,1/2+z
y,x,1/2+z
loop_
_atom_site_type_symbol
_atom_site_label
_atom_site_fract_x
_atom_site_fract_y
_atom_site_fract_z
Si Si1 0.007030 0.219987 0.585464
Si Si2 0.574733 0.249693 0.340568
Si Si3 0.386717 0.429501 0.217943
Si Si4 0.629768 0.425565 0.521308
Si Si5 0.144865 0.855136 0.750000
Si Si6 0.457297 0.957297 0.750000
Si Si7 0.441007 0.162610 0.518171
O O1 0.037091 0.156807 0.610196
O O2 0.058906 0.266373 0.539685
O O3 0.954915 0.214322 0.469899
O O4 0.977863 0.241668 0.730101
O O5 0.599524 0.186012 0.390257
O O6 0.630129 0.285518 0.271723
O O7 0.443584 0.472434 0.247103
O O8 0.354791 0.413873 0.365835
O O9 0.406060 0.368528 0.145609
O O10 0.617631 0.386546 0.385739
O O11 0.570785 0.425148 0.614216
O O12 0.643458 0.491309 0.471005
#
# Coordination Sequence:
#
# PCOD8315514 Si02
#       7
#    16  16  16  16   8   8  16
#     4  11  20  43  62  84 130 163 208 250 309 381
#     4  11  21  39  60  90 112 160 214 254 309 376
#     4  11  23  37  60  90 125 163 204 252 307 372
#     4  10  22  38  56  88 119 157 208 246 319 366
#     4  12  22  33  66  89 110 165 209 270 304 381
#     4  10  20  39  58  87 126 167 191 261 306 370
#     4  10  23  37  57  93 122 161 203 249 311 377
#
# _framework density 19.878926
#
# number of rings (size 3 to 8) (size 9 to 14) (size 15 to 20)
#    0.000    1.333    8.333    1.000    2.333    4.667 
#    0.000    0.000    0.000    4.500    0.000    2.333 
#    0.000    0.000    0.000    0.000    0.000    0.000 
#
# Total GULP energy -1190225.203400 kJ/mol
# GULP energy per Si atom -12398.179202 kJ/mol
# Density = 1.983368 g / cm^3
# Si number density = 19.878926 Si / 1000 Ang^3
#
#
#
# Elastic Constant Matrix: (Units=GPa)
#
#
# Indices 1 2 3 4 5 6 
#
# 1 32.1903 44.3161 11.6353 0.0000 0.0000 0.0000
# 2 44.3161 32.1898 11.6392 0.0000 0.0000 0.0000
# 3 11.6353 11.6392 83.6028 0.0000 0.0000 0.0000
# 4 0.0000 0.0000 0.0000 24.9975 0.0000 0.0000
# 5 0.0000 0.0000 0.0000 0.0000 24.9983 0.0000
# 6 0.0000 0.0000 0.0000 0.0000 0.0000 35.2091
#
#
#
# Elastic Compliance Matrix: (Units=1/GPa)
#
#
# Indices 1 2 3 4 5 6 
#
# 1 -0.034408 0.048058 -0.001902 0.000000 0.000000 0.000000
# 2 0.048058 -0.034410 -0.001898 0.000000 0.000000 0.000000
# 3 -0.001902 -0.001898 0.012490 0.000000 0.000000 0.000000
# 4 0.000000 0.000000 0.000000 0.040004 0.000000 0.000000
# 5 0.000000 0.000000 0.000000 0.000000 0.040003 0.000000
# 6 0.000000 0.000000 0.000000 0.000000 0.000000 0.028402
#
#
# Mechanical properties :
#
#
# Convention : Reuss Voigt Hill
#
# Bulk Modulus (GPa) = 31.06712 31.46269 31.26490
# Shear Modulus (GPa) = -194.50325 22.40047 -86.05139
#
# Velocity S-wave (km/s) = -9.90234 3.36049 -6.58648
# Velocity P-wave (km/s) = 10.72752 5.56046 6.48695
#
# Compressibility (1/GPa) = 0.03218837
#
# Stress axis : x y z
#
# Youngs Moduli (GPa) = -29.06283 -29.06127 80.06259
#
# Poissons Ratio (x) = 1.39662 0.15227
# Poissons Ratio (y) = 1.39670 0.15194
# Poissons Ratio (z) = -0.05528 -0.05515
#
# Static dielectric constant tensor:
#      x y z
#    x 3.632150 0.000000 0.000000 
#    y 0.000000 3.632150 0.000000 
#    z 0.000000 0.000000 3.952920 
# 
# 
# High freq. dielectric constant tensor:
#      x y z
#    x 1.749060 0.000000 0.000000 
#    y 0.000000 1.749060 0.000000 
#    z 0.000000 0.000000 1.797480 
# 
# From -- ./inp_files/951.got.cif
#   From: 2010.03.12/outbox.cif.g09.slc.cpg/sg130_1_cif.got.tgz:951.got - 2010.04.06 17:30:23.
