data_PCOD8315557
_publ_section_title
;
Structure prediction by ZEFSAII (Michael W. Deem and Ramdas Pophale) SiO2 
 PCOD8315557
Probable space group: P 4/N C C
;
_chemical_formula_sum "Si O2"
_cell_formula_units_Z 40
_cell_length_a 11.783888
_cell_length_b 11.783888
_cell_length_c 12.207501
_cell_angle_alpha 90.000000
_cell_angle_beta 90.000000
_cell_angle_gamma 90.000000
_cell_volume 1695.133789
_symmetry_space_group_name_H-M "P 4/N C C"
_symmetry_group_IT_number 130
_symmetry_cell_setting 'tetragonal'
loop_
_space_group_symop_operation_xyz
x,y,z
1/2-y,x,z
1/2-x,1/2-y,z
y,1/2-x,z
1/2+x,-y,1/2-z
-x,1/2+y,1/2-z
1/2+y,1/2+x,1/2-z
-y,-x,1/2-z
-x,-y,-z
1/2+y,-x,-z
1/2+x,1/2+y,-z
-y,1/2+x,-z
1/2-x,y,1/2+z
x,1/2-y,1/2+z
1/2-y,1/2-x,1/2+z
y,x,1/2+z
loop_
_atom_site_type_symbol
_atom_site_label
_atom_site_fract_x
_atom_site_fract_y
_atom_site_fract_z
Si Si1 0.900216 0.210543 0.440958
Si Si2 0.080633 0.172536 0.592189
Si Si3 0.619491 0.119491 0.250000
O O1 0.801532 0.117282 0.457604
O O2 0.886672 0.265900 0.322372
O O3 0.025073 0.158942 0.468934
O O4 0.194254 0.102602 0.607808
O O5 0.993234 0.118633 0.677802
#
# Coordination Sequence:
#
# PCOD8315557 Si02
#       3
#    16  16   8
#     4   9  20  37  59  87 120 159 207 261 315 376
#     4  10  23  40  59  90 128 165 210 266 323 375
#     4  10  22  39  64  91 124 172 218 257 316 390
#
# _framework density 23.596958000000001
#
# number of rings (size 3 to 8) (size 9 to 14) (size 15 to 20)
#    0.000    2.400    0.000    0.000    0.000   25.600 
#    0.000    4.000    0.000    0.000    0.000    0.000 
#    0.000    0.000    0.000    0.000    0.000    0.000 
#
# Total GULP energy -495581.626692 kJ/mol
# GULP energy per Si atom -12389.540667 kJ/mol
# Density = 2.354325 g / cm^3
# Si number density = 23.596958 Si / 1000 Ang^3
#
#
#
# Elastic Constant Matrix: (Units=GPa)
#
#
# Indices 1 2 3 4 5 6 
#
# 1 96.5132 15.9350 19.6861 0.0000 0.0000 0.0000
# 2 15.9350 96.5132 19.6861 0.0000 0.0000 0.0000
# 3 19.6861 19.6861 110.3395 0.0000 0.0000 0.0000
# 4 0.0000 0.0000 0.0000 22.2383 0.0000 0.0000
# 5 0.0000 0.0000 0.0000 0.0000 22.2383 0.0000
# 6 0.0000 0.0000 0.0000 0.0000 0.0000 15.6409
#
#
#
# Elastic Compliance Matrix: (Units=1/GPa)
#
#
# Indices 1 2 3 4 5 6 
#
# 1 0.010948 -0.001462 -0.001692 0.000000 0.000000 0.000000
# 2 -0.001462 0.010948 -0.001692 0.000000 0.000000 0.000000
# 3 -0.001692 -0.001692 0.009667 0.000000 0.000000 0.000000
# 4 0.000000 0.000000 0.000000 0.044968 0.000000 0.000000
# 5 0.000000 0.000000 0.000000 0.000000 0.044968 0.000000
# 6 0.000000 0.000000 0.000000 0.000000 0.000000 0.063935
#
#
# Mechanical properties :
#
#
# Convention : Reuss Voigt Hill
#
# Bulk Modulus (GPa) = 45.72792 45.99783 45.86288
# Shear Modulus (GPa) = 24.70157 28.56072 26.63115
#
# Velocity S-wave (km/s) = 3.23896 3.48279 3.36308
# Velocity P-wave (km/s) = 5.78002 5.97566 5.87865
#
# Compressibility (1/GPa) = 0.02186848
#
# Stress axis : x y z
#
# Youngs Moduli (GPa) = 91.34149 91.34149 103.44666
#
# Poissons Ratio (x) = 0.13358 0.17507
# Poissons Ratio (y) = 0.13358 0.17507
# Poissons Ratio (z) = 0.15458 0.15458
#
# Static dielectric constant tensor:
#      x y z
#    x 4.345170 0.000000 0.000000 
#    y 0.000000 4.345170 0.000000 
#    z 0.000000 0.000000 4.091920 
# 
# 
# High freq. dielectric constant tensor:
#      x y z
#    x 1.940180 0.000000 0.000000 
#    y 0.000000 1.940180 0.000000 
#    z 0.000000 0.000000 1.913660 
# 
# From -- ./inp_files/396.got.cif
#   From: 2010.03.12/outbox.cif.g09.slc.cpg/sg130_1_cif.got.tgz:396.got - 2010.04.06 17:30:23.
