data_PCOD8315527
_publ_section_title
;
Structure prediction by ZEFSAII (Michael W. Deem and Ramdas Pophale) SiO2 
 PCOD8315527
Probable space group: P 4/N C C
;
_chemical_formula_sum "Si O2"
_cell_formula_units_Z 128
_cell_length_a 17.166899
_cell_length_b 17.166899
_cell_length_c 25.027593
_cell_angle_alpha 90.000000
_cell_angle_beta 90.000000
_cell_angle_gamma 90.000000
_cell_volume 7375.692256
_symmetry_space_group_name_H-M "P 4/N C C"
_symmetry_group_IT_number 130
_symmetry_cell_setting 'tetragonal'
loop_
_space_group_symop_operation_xyz
x,y,z
1/2-y,x,z
1/2-x,1/2-y,z
y,1/2-x,z
1/2+x,-y,1/2-z
-x,1/2+y,1/2-z
1/2+y,1/2+x,1/2-z
-y,-x,1/2-z
-x,-y,-z
1/2+y,-x,-z
1/2+x,1/2+y,-z
-y,1/2+x,-z
1/2-x,y,1/2+z
x,1/2-y,1/2+z
1/2-y,1/2-x,1/2+z
y,x,1/2+z
loop_
_atom_site_type_symbol
_atom_site_label
_atom_site_fract_x
_atom_site_fract_y
_atom_site_fract_z
Si Si1 0.162924 0.342621 0.946077
Si Si2 0.329437 0.771347 0.691984
Si Si3 0.154318 0.327945 0.739020
Si Si4 0.096907 0.106978 0.339754
Si Si5 0.934766 0.410514 0.312252
Si Si6 0.334251 0.346799 0.566417
Si Si7 0.389523 0.924447 0.308709
Si Si8 0.944758 0.584476 0.343681
O O1 0.141806 0.253284 0.937040
O O2 0.114420 0.390348 0.902658
O O3 0.141677 0.369470 0.006014
O O4 0.250000 0.750000 0.659527
O O5 0.302274 0.802274 0.750000
O O6 0.377514 0.842312 0.664834
O O7 0.376071 0.690049 0.692433
O O8 0.142635 0.239073 0.720881
O O9 0.147949 0.334603 0.803405
O O10 0.089156 0.379081 0.710449
O O11 0.008777 0.132617 0.329878
O O12 0.119692 0.021614 0.319806
O O13 0.920275 0.420275 0.250000
O O14 0.925728 0.492044 0.343541
O O15 0.242514 0.357716 0.576995
O O16 0.380484 0.404619 0.604390
O O17 0.427212 0.927212 0.250000
O O18 0.462362 0.895498 0.345756
#
# Coordination Sequence:
#
# PCOD8315527 Si02
#       8
#    16  16  16  16  16  16  16  16
#     4   9  19  35  55  80 111 144 182 220 266 332
#     4  10  21  35  53  72 102 154 202 229 265 328
#     4  11  22  29  44  80 114 142 173 208 267 344
#     4  11  20  33  53  79 109 146 176 224 279 332
#     4  10  21  36  50  76 111 144 182 226 281 332
#     4   9  19  37  57  80 111 145 183 222 266 338
#     4  11  21  36  51  78 110 145 190 233 271 329
#     4  11  20  35  53  77 112 148 181 226 288 332
#
# _framework density 17.354303000000002
#
# number of rings (size 3 to 8) (size 9 to 14) (size 15 to 20)
#    0.000    1.750    3.750    3.000    3.500    4.000 
#    0.000    2.500    0.000    0.000    0.000    0.000 
#    0.000    0.000    0.000    0.000    0.000    0.000 
#
# Total GULP energy -1586171.768615 kJ/mol
# GULP energy per Si atom -12391.966942 kJ/mol
# Density = 1.731480 g / cm^3
# Si number density = 17.354303 Si / 1000 Ang^3
#
#
#
# Elastic Constant Matrix: (Units=GPa)
#
#
# Indices 1 2 3 4 5 6 
#
# 1 97.8498 71.2229 36.7084 0.0000 0.0000 0.0000
# 2 71.2229 97.8498 36.7084 0.0000 0.0000 0.0000
# 3 36.7084 36.7084 95.2835 0.0000 0.0000 0.0000
# 4 0.0000 0.0000 0.0000 19.6485 0.0000 0.0000
# 5 0.0000 0.0000 0.0000 0.0000 19.6485 0.0000
# 6 0.0000 0.0000 0.0000 0.0000 0.0000 33.9630
#
#
#
# Elastic Compliance Matrix: (Units=1/GPa)
#
#
# Indices 1 2 3 4 5 6 
#
# 1 0.022329 -0.015227 -0.002736 0.000000 0.000000 0.000000
# 2 -0.015227 0.022329 -0.002736 0.000000 0.000000 0.000000
# 3 -0.002736 -0.002736 0.012603 0.000000 0.000000 0.000000
# 4 0.000000 0.000000 0.000000 0.050895 0.000000 0.000000
# 5 0.000000 0.000000 0.000000 0.000000 0.050895 0.000000
# 6 0.000000 0.000000 0.000000 0.000000 0.000000 0.029444
#
#
# Mechanical properties :
#
#
# Convention : Reuss Voigt Hill
#
# Bulk Modulus (GPa) = 63.03780 64.47363 63.75572
# Shear Modulus (GPa) = 21.26015 24.40821 22.83418
#
# Velocity S-wave (km/s) = 3.50389 3.75435 3.63128
# Velocity P-wave (km/s) = 7.26447 7.48503 7.37557
#
# Compressibility (1/GPa) = 0.01586350
#
# Stress axis : x y z
#
# Youngs Moduli (GPa) = 44.78396 44.78396 79.34357
#
# Poissons Ratio (x) = 0.68191 0.21712
# Poissons Ratio (y) = 0.68191 0.21712
# Poissons Ratio (z) = 0.12255 0.12255
#
# Static dielectric constant tensor:
#      x y z
#    x 3.374150 0.000000 0.000000 
#    y 0.000000 3.374150 0.000000 
#    z 0.000000 0.000000 3.005060 
# 
# 
# High freq. dielectric constant tensor:
#      x y z
#    x 1.675790 0.000000 0.000000 
#    y 0.000000 1.675790 0.000000 
#    z 0.000000 0.000000 1.635300 
# 
# From -- ./inp_files/4407.got.cif
#   From: 2010.03.12/outbox.cif.g09.slc.cpg/sg130_3_cif.got.tgz:4407.got - 2010.04.06 17:30:23.
