data_PCOD8315477
_publ_section_title
;
Structure prediction by ZEFSAII (Michael W. Deem and Ramdas Pophale) SiO2 
 PCOD8315477
Probable space group: P 4/N C C
;
_chemical_formula_sum "Si O2"
_cell_formula_units_Z 112
_cell_length_a 15.841534
_cell_length_b 15.841534
_cell_length_c 22.315786
_cell_angle_alpha 90.000000
_cell_angle_beta 90.000000
_cell_angle_gamma 90.000000
_cell_volume 5600.240211
_symmetry_space_group_name_H-M "P 4/N C C"
_symmetry_group_IT_number 130
_symmetry_cell_setting 'tetragonal'
loop_
_space_group_symop_operation_xyz
x,y,z
1/2-y,x,z
1/2-x,1/2-y,z
y,1/2-x,z
1/2+x,-y,1/2-z
-x,1/2+y,1/2-z
1/2+y,1/2+x,1/2-z
-y,-x,1/2-z
-x,-y,-z
1/2+y,-x,-z
1/2+x,1/2+y,-z
-y,1/2+x,-z
1/2-x,y,1/2+z
x,1/2-y,1/2+z
1/2-y,1/2-x,1/2+z
y,x,1/2+z
loop_
_atom_site_type_symbol
_atom_site_label
_atom_site_fract_x
_atom_site_fract_y
_atom_site_fract_z
Si Si1 0.189973 0.122903 0.555706
Si Si2 0.390911 0.435146 0.220029
Si Si3 0.214655 0.655547 0.652676
Si Si4 0.716094 0.524587 0.327264
Si Si5 0.666092 0.167120 0.477359
Si Si6 0.592122 0.995382 0.027435
Si Si7 0.967176 0.095901 0.833631
O O1 0.289801 0.138798 0.556042
O O2 0.173410 0.059460 0.611215
O O3 0.152738 0.078709 0.496103
O O4 0.304118 0.426764 0.182922
O O5 0.443450 0.348155 0.224040
O O6 0.450271 0.499949 0.184436
O O7 0.367374 0.463877 0.287588
O O8 0.250000 0.750000 0.667840
O O9 0.272211 0.577832 0.677426
O O10 0.207664 0.631968 0.582908
O O11 0.118421 0.650729 0.676771
O O12 0.651265 0.267777 0.468573
O O13 0.582123 0.125262 0.498816
O O14 0.597786 0.995496 0.099480
O O15 0.500000 0.000000 0.000000
#
# Coordination Sequence:
#
# PCOD8315477 Si02
#       7
#    16  16  16  16  16  16  16
#     4  11  24  41  64  95 130 168 225 281 322 387
#     4  10  21  43  65  91 124 167 221 281 323 385
#     4  10  20  37  62  94 132 165 209 264 324 390
#     4  11  21  39  70  92 123 169 223 273 323 389
#     4  10  19  34  56  91 128 169 207 253 305 381
#     4  11  24  38  64  92 130 178 213 264 341 410
#     4   9  22  44  59  91 136 165 214 276 329 397
#
# _framework density 19.999141000000002
#
# number of rings (size 3 to 8) (size 9 to 14) (size 15 to 20)
#    0.000    1.714    2.857    1.714    6.000    0.286 
#    7.714    5.000    0.000    0.000    0.000    0.000 
#    0.000    0.000    0.000    0.000    0.000    0.000 
#
# Total GULP energy -1387633.023734 kJ/mol
# GULP energy per Si atom -12389.580569 kJ/mol
# Density = 1.995362 g / cm^3
# Si number density = 19.999141 Si / 1000 Ang^3
#
#
#
# Elastic Constant Matrix: (Units=GPa)
#
#
# Indices 1 2 3 4 5 6 
#
# 1 104.7965 76.6597 37.7813 0.0000 0.0000 0.0000
# 2 76.6597 104.7965 37.7813 0.0000 0.0000 0.0000
# 3 37.7813 37.7813 95.2482 0.0000 0.0000 0.0000
# 4 0.0000 0.0000 0.0000 29.8436 0.0000 0.0000
# 5 0.0000 0.0000 0.0000 0.0000 29.8436 0.0000
# 6 0.0000 0.0000 0.0000 0.0000 0.0000 17.0250
#
#
#
# Elastic Compliance Matrix: (Units=1/GPa)
#
#
# Indices 1 2 3 4 5 6 
#
# 1 0.021071 -0.014470 -0.002619 0.000000 0.000000 0.000000
# 2 -0.014470 0.021071 -0.002619 0.000000 0.000000 0.000000
# 3 -0.002619 -0.002619 0.012576 0.000000 0.000000 0.000000
# 4 0.000000 0.000000 0.000000 0.033508 0.000000 0.000000
# 5 0.000000 0.000000 0.000000 0.000000 0.033508 0.000000
# 6 0.000000 0.000000 0.000000 0.000000 0.000000 0.058737
#
#
# Mechanical properties :
#
#
# Convention : Reuss Voigt Hill
#
# Bulk Modulus (GPa) = 65.33844 67.69839 66.51842
# Shear Modulus (GPa) = 22.22359 25.51705 23.87032
#
# Velocity S-wave (km/s) = 3.33712 3.57586 3.45855
# Velocity P-wave (km/s) = 6.89856 7.13955 7.02009
#
# Compressibility (1/GPa) = 0.01530493
#
# Stress axis : x y z
#
# Youngs Moduli (GPa) = 47.45863 47.45863 79.51524
#
# Poissons Ratio (x) = 0.68671 0.20821
# Poissons Ratio (y) = 0.68671 0.20821
# Poissons Ratio (z) = 0.12427 0.12427
#
# Static dielectric constant tensor:
#      x y z
#    x 3.627530 0.000000 0.000000 
#    y 0.000000 3.627530 0.000000 
#    z 0.000000 0.000000 3.604120 
# 
# 
# High freq. dielectric constant tensor:
#      x y z
#    x 1.781080 0.000000 0.000000 
#    y 0.000000 1.781080 0.000000 
#    z 0.000000 0.000000 1.769770 
# 
# From -- ./inp_files/4275.got.cif
#   From: 2010.03.12/outbox.cif.g09.slc.cpg/sg130_3_cif.got.tgz:4275.got - 2010.04.06 17:30:23.
