data_PCOD8315512
_publ_section_title
;
Structure prediction by ZEFSAII (Michael W. Deem and Ramdas Pophale) SiO2 
 PCOD8315512
Probable space group: P 4/N C C
;
_chemical_formula_sum "Si O2"
_cell_formula_units_Z 72
_cell_length_a 16.248467
_cell_length_b 16.248467
_cell_length_c 12.547369
_cell_angle_alpha 90.000000
_cell_angle_beta 90.000000
_cell_angle_gamma 90.000000
_cell_volume 3312.664515
_symmetry_space_group_name_H-M "P 4/N C C"
_symmetry_group_IT_number 130
_symmetry_cell_setting 'tetragonal'
loop_
_space_group_symop_operation_xyz
x,y,z
1/2-y,x,z
1/2-x,1/2-y,z
y,1/2-x,z
1/2+x,-y,1/2-z
-x,1/2+y,1/2-z
1/2+y,1/2+x,1/2-z
-y,-x,1/2-z
-x,-y,-z
1/2+y,-x,-z
1/2+x,1/2+y,-z
-y,1/2+x,-z
1/2-x,y,1/2+z
x,1/2-y,1/2+z
1/2-y,1/2-x,1/2+z
y,x,1/2+z
loop_
_atom_site_type_symbol
_atom_site_label
_atom_site_fract_x
_atom_site_fract_y
_atom_site_fract_z
Si Si1 0.683828 0.012290 0.531821
Si Si2 0.626152 0.798566 0.198119
Si Si3 0.595966 0.601203 0.887547
Si Si4 0.951100 0.365635 0.463733
Si Si5 0.457628 0.957628 0.750000
O O1 0.676760 0.957416 0.638417
O O2 0.674736 0.950751 0.429901
O O3 0.613539 0.081966 0.533023
O O4 0.768475 0.063151 0.523313
O O5 0.644316 0.704149 0.166631
O O6 0.617235 0.813507 0.326430
O O7 0.548455 0.547735 0.799576
O O8 0.541813 0.614612 0.992576
O O9 0.945081 0.387827 0.339488
#
# Coordination Sequence:
#
# PCOD8315512 Si02
#       5
#    16  16  16  16   8
#     4  11  23  41  62  90 126 165 214 260 312 377
#     4  11  23  38  60  93 130 162 201 261 324 380
#     4  11  20  38  63  89 119 159 204 253 313 380
#     4  11  24  40  64  90 122 169 212 263 315 374
#     4  10  20  38  60  87 120 157 204 252 310 374
#
# _framework density 21.734769
#
# number of rings (size 3 to 8) (size 9 to 14) (size 15 to 20)
#    0.000    1.111    0.000    9.333    0.000    2.222 
#    0.000    2.222    0.000    5.333    0.000    0.000 
#    0.000    0.000    0.000    0.000    0.000    0.000 
#
# Total GULP energy -892539.276825 kJ/mol
# GULP energy per Si atom -12396.378845 kJ/mol
# Density = 2.168530 g / cm^3
# Si number density = 21.734769 Si / 1000 Ang^3
#
#
#
# Elastic Constant Matrix: (Units=GPa)
#
#
# Indices 1 2 3 4 5 6 
#
# 1 99.3109 34.8651 46.7304 0.0000 0.0000 0.0000
# 2 34.8651 99.3109 46.7304 0.0000 0.0000 0.0000
# 3 46.7304 46.7304 111.4393 0.0000 0.0000 0.0000
# 4 0.0000 0.0000 0.0000 35.4780 0.0000 0.0000
# 5 0.0000 0.0000 0.0000 0.0000 35.4780 0.0000
# 6 0.0000 0.0000 0.0000 0.0000 0.0000 29.4303
#
#
#
# Elastic Compliance Matrix: (Units=1/GPa)
#
#
# Indices 1 2 3 4 5 6 
#
# 1 0.013022 -0.002494 -0.004415 0.000000 0.000000 0.000000
# 2 -0.002494 0.013022 -0.004415 0.000000 0.000000 0.000000
# 3 -0.004415 -0.004415 0.012676 0.000000 0.000000 0.000000
# 4 0.000000 0.000000 0.000000 0.028186 0.000000 0.000000
# 5 0.000000 0.000000 0.000000 0.000000 0.028186 0.000000
# 6 0.000000 0.000000 0.000000 0.000000 0.000000 0.033979
#
#
# Mechanical properties :
#
#
# Convention : Reuss Voigt Hill
#
# Bulk Modulus (GPa) = 62.21613 62.96808 62.59211
# Shear Modulus (GPa) = 31.83130 32.19295 32.01212
#
# Velocity S-wave (km/s) = 3.83107 3.85278 3.84194
# Velocity P-wave (km/s) = 6.94671 6.98755 6.96716
#
# Compressibility (1/GPa) = 0.01607300
#
# Stress axis : x y z
#
# Youngs Moduli (GPa) = 76.79037 76.79037 78.88912
#
# Poissons Ratio (x) = 0.19155 0.34828
# Poissons Ratio (y) = 0.19155 0.34828
# Poissons Ratio (z) = 0.33901 0.33901
#
# Static dielectric constant tensor:
#      x y z
#    x 3.946770 0.000000 0.000000 
#    y 0.000000 3.946770 0.000000 
#    z 0.000000 0.000000 3.957610 
# 
# 
# High freq. dielectric constant tensor:
#      x y z
#    x 1.848110 0.000000 0.000000 
#    y 0.000000 1.848110 0.000000 
#    z 0.000000 0.000000 1.858800 
# 
# From -- ./inp_files/1599.got.cif
#   From: 2010.03.12/outbox.cif.g09.slc.cpg/sg130_1_cif.got.tgz:1599.got - 2010.04.06 17:30:23.
