data_PCOD8315068
_publ_section_title
;
Structure prediction by ZEFSAII (Michael W. Deem and Ramdas Pophale) SiO2 
 PCOD8315068
Probable space group: P 4/N M M
;
_chemical_formula_sum "Si O2"
_cell_formula_units_Z 80
_cell_length_a 13.542075
_cell_length_b 13.542075
_cell_length_c 25.654312
_cell_angle_alpha 90.000000
_cell_angle_beta 90.000000
_cell_angle_gamma 90.000000
_cell_volume 4704.687718
_symmetry_space_group_name_H-M "P 4/N M M"
_symmetry_group_IT_number 129
_symmetry_cell_setting 'tetragonal'
loop_
_space_group_symop_operation_xyz
x,y,z
1/2-y,x,z
1/2-x,1/2-y,z
y,1/2-x,z
1/2+x,-y,-z
-x,1/2+y,-z
1/2+y,1/2+x,-z
-y,-x,-z
-x,-y,-z
1/2+y,-x,-z
1/2+x,1/2+y,-z
-y,1/2+x,-z
1/2-x,y,z
x,1/2-y,z
1/2-y,1/2-x,z
y,x,z
loop_
_atom_site_type_symbol
_atom_site_label
_atom_site_fract_x
_atom_site_fract_y
_atom_site_fract_z
Si Si1 0.859906 0.133070 0.147650
Si Si2 0.023347 0.865978 0.751638
Si Si3 0.025236 0.865393 0.456426
Si Si4 0.473269 0.866473 0.955367
Si Si5 0.637413 0.364289 0.647804
O O1 0.750000 0.087030 0.142943
O O2 0.851688 0.250000 0.148293
O O3 0.908721 0.095506 0.201125
O O4 0.926274 0.099065 0.099214
O O5 0.004522 0.750000 0.755484
O O6 0.075232 0.897048 0.698006
O O7 0.917159 0.917159 0.754872
O O8 0.104755 0.895246 0.500000
O O9 0.002687 0.750000 0.460986
O O10 0.069126 0.894229 0.400412
O O11 0.922881 0.922881 0.465129
O O12 0.494645 0.750000 0.957312
O O13 0.576787 0.923214 0.963391
O O14 0.395283 0.895283 0.000000
O O15 0.750000 0.389552 0.632814
O O16 0.626288 0.250000 0.662041
#
# Coordination Sequence:
#
# PCOD8315068 Si02
#       5
#    16  16  16  16  16
#     4   9  17  30  48  68  90 118 154 196 239 280
#     4  10  19  30  45  66  94 126 158 193 234 281
#     4  10  20  33  50  72  97 125 158 196 238 285
#     4  10  20  33  50  73 100 130 164 201 243 291
#     4   9  17  30  49  71  93 119 154 196 239 280
#
# _framework density 17.004315999999999
#
# number of rings (size 3 to 8) (size 9 to 14) (size 15 to 20)
#    0.000    2.400    0.000    3.000    0.000    5.000 
#    0.000    0.000    0.000    3.600    0.000    2.800 
#    0.000   16.400    0.000    0.000    0.000    0.000 
#
# Total GULP energy -992100.347441 kJ/mol
# GULP energy per Si atom -12401.254343 kJ/mol
# Density = 1.696561 g / cm^3
# Si number density = 17.004316 Si / 1000 Ang^3
#
#
#
# Elastic Constant Matrix: (Units=GPa)
#
#
# Indices 1 2 3 4 5 6 
#
# 1 79.2429 42.6794 45.1486 0.0000 0.0000 0.0000
# 2 42.6794 79.2440 45.1485 0.0000 0.0000 0.0000
# 3 45.1486 45.1485 123.1807 0.0000 0.0000 0.0000
# 4 0.0000 0.0000 0.0000 24.0821 0.0000 0.0000
# 5 0.0000 0.0000 0.0000 0.0000 24.0821 0.0000
# 6 0.0000 0.0000 0.0000 0.0000 0.0000 20.9631
#
#
#
# Elastic Compliance Matrix: (Units=1/GPa)
#
#
# Indices 1 2 3 4 5 6 
#
# 1 0.019304 -0.008046 -0.004126 0.000000 0.000000 0.000000
# 2 -0.008046 0.019303 -0.004126 0.000000 0.000000 0.000000
# 3 -0.004126 -0.004126 0.011143 0.000000 0.000000 0.000000
# 4 0.000000 0.000000 0.000000 0.041525 0.000000 0.000000
# 5 0.000000 0.000000 0.000000 0.000000 0.041525 0.000000
# 6 0.000000 0.000000 0.000000 0.000000 0.000000 0.047703
#
#
# Mechanical properties :
#
#
# Convention : Reuss Voigt Hill
#
# Bulk Modulus (GPa) = 58.29693 60.84670 59.57181
# Shear Modulus (GPa) = 22.85020 23.73820 23.29420
#
# Velocity S-wave (km/s) = 3.66975 3.74038 3.70523
# Velocity P-wave (km/s) = 7.23285 7.38340 7.30851
#
# Compressibility (1/GPa) = 0.01715356
#
# Stress axis : x y z
#
# Youngs Moduli (GPa) = 51.80347 51.80446 89.74333
#
# Poissons Ratio (x) = 0.41680 0.37031
# Poissons Ratio (y) = 0.41679 0.37030
# Poissons Ratio (z) = 0.21376 0.21375
#
# Static dielectric constant tensor:
#      x y z
#    x 3.011490 0.000000 0.000000 
#    y 0.000000 3.011490 0.000000 
#    z 0.000000 0.000000 3.387500 
# 
# 
# High freq. dielectric constant tensor:
#      x y z
#    x 1.642560 0.000000 0.000000 
#    y 0.000000 1.642560 0.000000 
#    z 0.000000 0.000000 1.675180 
# 
# From -- ./inp_files/6307.got.cif
#   From: 2010.03.12/outbox.cif.g09.slc.cpg/sg129_4_cif.got.tgz:6307.got - 2010.04.06 17:19:44.
