data_PCOD8315354
_publ_section_title
;
Structure prediction by ZEFSAII (Michael W. Deem and Ramdas Pophale) SiO2 
 PCOD8315354
Probable space group: P 4/N M M
;
_chemical_formula_sum "Si O2"
_cell_formula_units_Z 96
_cell_length_a 23.064947
_cell_length_b 23.064947
_cell_length_c 9.994334
_cell_angle_alpha 90.000000
_cell_angle_beta 90.000000
_cell_angle_gamma 90.000000
_cell_volume 5316.903536
_symmetry_space_group_name_H-M "P 4/N M M"
_symmetry_group_IT_number 129
_symmetry_cell_setting 'tetragonal'
loop_
_space_group_symop_operation_xyz
x,y,z
1/2-y,x,z
1/2-x,1/2-y,z
y,1/2-x,z
1/2+x,-y,-z
-x,1/2+y,-z
1/2+y,1/2+x,-z
-y,-x,-z
-x,-y,-z
1/2+y,-x,-z
1/2+x,1/2+y,-z
-y,1/2+x,-z
1/2-x,y,z
x,1/2-y,z
1/2-y,1/2-x,z
y,x,z
loop_
_atom_site_type_symbol
_atom_site_label
_atom_site_fract_x
_atom_site_fract_y
_atom_site_fract_z
Si Si1 0.681199 0.006783 0.180588
Si Si2 0.985941 0.682478 0.474439
Si Si3 0.981015 0.615124 0.919931
Si Si4 0.119697 0.612982 0.144529
Si Si5 0.909479 0.817755 0.710901
Si Si6 0.182211 0.605098 0.412372
O O1 0.750000 0.010876 0.150793
O O2 0.668007 0.973138 0.319371
O O3 0.654146 0.070041 0.203037
O O4 0.647813 0.974450 0.061812
O O5 0.996215 0.750000 0.493950
O O6 0.044952 0.653857 0.532838
O O7 0.930552 0.664012 0.562224
O O8 0.943569 0.556432 0.920108
O O9 0.958618 0.661142 0.812312
O O10 0.047089 0.598171 0.885952
O O11 0.170351 0.612538 0.253702
O O12 0.139548 0.639548 0.000000
O O13 0.899338 0.750000 0.729032
O O14 0.848546 0.848546 0.740186
O O15 0.156738 0.656738 0.500000
O O16 0.250000 0.607409 0.433923
#
# Coordination Sequence:
#
# PCOD8315354 Si02
#       6
#    16  16  16  16  16  16
#     4  10  20  34  54  78 107 143 184 226 273 337
#     4   9  18  33  54  77 104 139 182 225 268 330
#     4  10  21  36  55  81 112 147 185 230 284 334
#     4  10  21  34  54  81 109 145 184 227 280 333
#     4  10  20  35  56  82 111 144 184 228 279 339
#     4  11  21  36  57  80 109 146 191 237 284 333
#
# _framework density 18.055623000000001
#
# number of rings (size 3 to 8) (size 9 to 14) (size 15 to 20)
#    0.000    2.000    3.333    0.500    0.000    6.667 
#    0.000    0.000    0.000    3.000    0.000    3.500 
#    0.000    4.000    0.000    0.000    0.000    0.000 
#
# Total GULP energy -1189893.760972 kJ/mol
# GULP energy per Si atom -12394.726677 kJ/mol
# Density = 1.801453 g / cm^3
# Si number density = 18.055623 Si / 1000 Ang^3
#
#
#
# Elastic Constant Matrix: (Units=GPa)
#
#
# Indices 1 2 3 4 5 6 
#
# 1 55.4463 19.8107 24.4823 0.0000 0.0000 0.0000
# 2 19.8107 55.4463 24.4823 0.0000 0.0000 0.0000
# 3 24.4823 24.4823 117.0666 0.0000 0.0000 0.0000
# 4 0.0000 0.0000 0.0000 27.1636 0.0000 0.0000
# 5 0.0000 0.0000 0.0000 0.0000 27.1636 0.0000
# 6 0.0000 0.0000 0.0000 0.0000 0.0000 16.2756
#
#
#
# Elastic Compliance Matrix: (Units=1/GPa)
#
#
# Indices 1 2 3 4 5 6 
#
# 1 0.021721 -0.006341 -0.003217 0.000000 0.000000 0.000000
# 2 -0.006341 0.021721 -0.003217 0.000000 0.000000 0.000000
# 3 -0.003217 -0.003217 0.009888 0.000000 0.000000 0.000000
# 4 0.000000 0.000000 0.000000 0.036814 0.000000 0.000000
# 5 0.000000 0.000000 0.000000 0.000000 0.036814 0.000000
# 6 0.000000 0.000000 0.000000 0.000000 0.000000 0.061442
#
#
# Mechanical properties :
#
#
# Convention : Reuss Voigt Hill
#
# Bulk Modulus (GPa) = 35.99394 40.61220 38.30307
# Shear Modulus (GPa) = 22.40063 24.73281 23.56672
#
# Velocity S-wave (km/s) = 3.52610 3.70511 3.61671
# Velocity P-wave (km/s) = 6.04617 6.39105 6.22100
#
# Compressibility (1/GPa) = 0.02778246
#
# Stress axis : x y z
#
# Youngs Moduli (GPa) = 46.03797 46.03797 101.13766
#
# Poissons Ratio (x) = 0.29191 0.32532
# Poissons Ratio (y) = 0.29191 0.32532
# Poissons Ratio (z) = 0.14808 0.14808
#
# Static dielectric constant tensor:
#      x y z
#    x 3.203580 0.000000 0.000000 
#    y 0.000000 3.203580 0.000000 
#    z 0.000000 0.000000 3.702930 
# 
# 
# High freq. dielectric constant tensor:
#      x y z
#    x 1.681960 0.000000 0.000000 
#    y 0.000000 1.681960 0.000000 
#    z 0.000000 0.000000 1.721750 
# 
# From -- ./inp_files/2643.got.cif
#   From: 2010.03.12/outbox.cif.g09.slc.cpg/sg129_2_cif.got.tgz:2643.got - 2010.04.06 17:19:44.
