data_PCOD8315438
_publ_section_title
;
Structure prediction by ZEFSAII (Michael W. Deem and Ramdas Pophale) SiO2 
 PCOD8315438
Probable space group: P 4/N M M
;
_chemical_formula_sum "Si O2"
_cell_formula_units_Z 96
_cell_length_a 14.524614
_cell_length_b 14.524614
_cell_length_c 29.902396
_cell_angle_alpha 90.000000
_cell_angle_beta 90.000000
_cell_angle_gamma 90.000000
_cell_volume 6308.341385
_symmetry_space_group_name_H-M "P 4/N M M"
_symmetry_group_IT_number 129
_symmetry_cell_setting 'tetragonal'
loop_
_space_group_symop_operation_xyz
x,y,z
1/2-y,x,z
1/2-x,1/2-y,z
y,1/2-x,z
1/2+x,-y,-z
-x,1/2+y,-z
1/2+y,1/2+x,-z
-y,-x,-z
-x,-y,-z
1/2+y,-x,-z
1/2+x,1/2+y,-z
-y,1/2+x,-z
1/2-x,y,z
x,1/2-y,z
1/2-y,1/2-x,z
y,x,z
loop_
_atom_site_type_symbol
_atom_site_label
_atom_site_fract_x
_atom_site_fract_y
_atom_site_fract_z
Si Si1 0.358067 0.508498 0.975322
Si Si2 0.004583 0.644570 0.722129
Si Si3 0.856070 0.496087 0.620809
Si Si4 0.645609 0.002286 0.128034
Si Si5 0.148152 0.859508 0.549306
Si Si6 0.355551 0.644327 0.202327
O O1 0.250000 0.497485 0.989116
O O2 0.413514 0.413514 0.986671
O O3 0.367336 0.531974 0.923144
O O4 0.404576 0.595425 0.000000
O O5 0.976732 0.750000 0.730596
O O6 0.039940 0.630242 0.671431
O O7 0.086168 0.612630 0.754753
O O8 0.914182 0.585819 0.732536
O O9 0.750000 0.516377 0.609995
O O10 0.897721 0.419421 0.587532
O O11 0.908579 0.591422 0.613063
O O12 0.750000 0.973321 0.137816
O O13 0.614604 0.087531 0.158674
O O14 0.585591 0.914410 0.140821
O O15 0.111553 0.888448 0.500000
O O16 0.250000 0.900913 0.558003
O O17 0.153769 0.750000 0.551524
O O18 0.250000 0.625273 0.190061
O O19 0.372648 0.750000 0.215166
#
# Coordination Sequence:
#
# PCOD8315438 Si02
#       6
#    16  16  16  16  16  16
#     4   9  18  31  46  66  90 115 145 178 212 252
#     4   9  17  28  41  57  78 104 133 164 196 231
#     4   9  17  27  39  57  79 103 131 160 192 232
#     4   9  17  29  45  64  86 111 137 167 203 242
#     4   8  14  25  40  57  77 100 126 158 195 232
#     4   9  17  28  42  61  83 106 133 164 200 241
#
# _framework density 15.217946
#
# number of rings (size 3 to 8) (size 9 to 14) (size 15 to 20)
#    0.000    3.167    0.000    1.000    0.000    2.500 
#    0.000    8.333    0.000    0.000    0.000    0.000 
#    0.000    4.333    0.000    3.667    0.000    6.333 
#
# Total GULP energy -1190053.070585 kJ/mol
# GULP energy per Si atom -12396.386152 kJ/mol
# Density = 1.518331 g / cm^3
# Si number density = 15.217946 Si / 1000 Ang^3
#
#
#
# Elastic Constant Matrix: (Units=GPa)
#
#
# Indices 1 2 3 4 5 6 
#
# 1 81.0507 51.1752 57.4811 0.0000 0.0000 0.0000
# 2 51.1752 81.0499 57.4810 0.0000 0.0000 0.0000
# 3 57.4811 57.4810 91.9356 0.0000 0.0000 0.0000
# 4 0.0000 0.0000 0.0000 23.7418 0.0000 0.0000
# 5 0.0000 0.0000 0.0000 0.0000 23.7419 0.0000
# 6 0.0000 0.0000 0.0000 0.0000 0.0000 20.4934
#
#
#
# Elastic Compliance Matrix: (Units=1/GPa)
#
#
# Indices 1 2 3 4 5 6 
#
# 1 0.025022 -0.008451 -0.010360 0.000000 0.000000 0.000000
# 2 -0.008451 0.025022 -0.010361 0.000000 0.000000 0.000000
# 3 -0.010360 -0.010361 0.023833 0.000000 0.000000 0.000000
# 4 0.000000 0.000000 0.000000 0.042120 0.000000 0.000000
# 5 0.000000 0.000000 0.000000 0.000000 0.042120 0.000000
# 6 0.000000 0.000000 0.000000 0.000000 0.000000 0.048796
#
#
# Mechanical properties :
#
#
# Convention : Reuss Voigt Hill
#
# Bulk Modulus (GPa) = 64.38352 65.14566 64.76459
# Shear Modulus (GPa) = 18.48886 19.45534 18.97210
#
# Velocity S-wave (km/s) = 3.48938 3.57942 3.53468
# Velocity P-wave (km/s) = 7.65727 7.74496 7.70124
#
# Compressibility (1/GPa) = 0.01553192
#
# Stress axis : x y z
#
# Youngs Moduli (GPa) = 39.96561 39.96499 41.95933
#
# Poissons Ratio (x) = 0.33775 0.43472
# Poissons Ratio (y) = 0.33775 0.43472
# Poissons Ratio (z) = 0.41406 0.41406
#
# Static dielectric constant tensor:
#      x y z
#    x 2.906350 0.000000 0.000000 
#    y 0.000000 2.906350 0.000000 
#    z 0.000000 0.000000 3.088820 
# 
# 
# High freq. dielectric constant tensor:
#      x y z
#    x 1.571030 0.000000 0.000000 
#    y 0.000000 1.571030 0.000000 
#    z 0.000000 0.000000 1.588030 
# 
# From -- ./inp_files/7839.got.cif
#   From: 2010.03.12/outbox.cif.g09.slc.cpg/sg129_4_cif.got.tgz:7839.got - 2010.04.06 17:19:44.
