data_PCOD8315355
_publ_section_title
;
Structure prediction by ZEFSAII (Michael W. Deem and Ramdas Pophale) SiO2 
 PCOD8315355
Probable space group: P 4/N M M
;
_chemical_formula_sum "Si O2"
_cell_formula_units_Z 96
_cell_length_a 23.298093
_cell_length_b 23.298093
_cell_length_c 9.799831
_cell_angle_alpha 90.000000
_cell_angle_beta 90.000000
_cell_angle_gamma 90.000000
_cell_volume 5319.359413
_symmetry_space_group_name_H-M "P 4/N M M"
_symmetry_group_IT_number 129
_symmetry_cell_setting 'tetragonal'
loop_
_space_group_symop_operation_xyz
x,y,z
1/2-y,x,z
1/2-x,1/2-y,z
y,1/2-x,z
1/2+x,-y,-z
-x,1/2+y,-z
1/2+y,1/2+x,-z
-y,-x,-z
-x,-y,-z
1/2+y,-x,-z
1/2+x,1/2+y,-z
-y,1/2+x,-z
1/2-x,y,z
x,1/2-y,z
1/2-y,1/2-x,z
y,x,z
loop_
_atom_site_type_symbol
_atom_site_label
_atom_site_fract_x
_atom_site_fract_y
_atom_site_fract_z
Si Si1 0.497570 0.683271 0.970078
Si Si2 0.092688 0.314412 0.809787
Si Si3 0.482704 0.183518 0.558065
Si Si4 0.815435 0.122109 0.105341
Si Si5 0.382373 0.592052 0.644861
Si Si6 0.987870 0.891403 0.703450
O O1 0.499502 0.750000 0.926604
O O2 0.513034 0.644046 0.842333
O O3 0.541392 0.668646 0.090028
O O4 0.435481 0.666194 0.026831
O O5 0.113026 0.250000 0.839145
O O6 0.146273 0.353728 0.841838
O O7 0.073249 0.320845 0.652811
O O8 0.499669 0.250000 0.532045
O O9 0.532807 0.152066 0.641728
O O10 0.469693 0.152232 0.416143
O O11 0.750000 0.120683 0.153491
O O12 0.854728 0.131800 0.238598
O O13 0.825811 0.174190 0.000000
O O14 0.375516 0.624485 0.500000
O O15 0.449702 0.581397 0.674231
O O16 0.943363 0.943363 0.712273
#
# Coordination Sequence:
#
# PCOD8315355 Si02
#       6
#    16  16  16  16  16  16
#     4  10  20  36  57  80 110 147 187 227 273 335
#     4  10  20  34  54  79 107 144 186 229 278 330
#     4  10  20  36  56  77 107 149 190 223 270 334
#     4  11  21  39  60  82 111 144 187 233 275 328
#     4  10  21  36  55  83 115 145 184 224 282 331
#     4  11  22  35  54  84 119 146 180 231 284 333
#
# _framework density 18.047286
#
# number of rings (size 3 to 8) (size 9 to 14) (size 15 to 20)
#    0.000    1.667    3.333    2.000    0.000    4.000 
#    0.000    1.667    0.000    0.000    0.000    0.000 
#    0.000   12.000    0.000    0.000    0.000    0.000 
#
# Total GULP energy -1190554.160235 kJ/mol
# GULP energy per Si atom -12401.605836 kJ/mol
# Density = 1.800621 g / cm^3
# Si number density = 18.047286 Si / 1000 Ang^3
#
#
#
# Elastic Constant Matrix: (Units=GPa)
#
#
# Indices 1 2 3 4 5 6 
#
# 1 85.3200 47.9031 46.4354 0.0000 0.0000 0.0000
# 2 47.9031 85.3177 46.4352 0.0000 0.0000 0.0000
# 3 46.4354 46.4352 119.8960 0.0000 0.0000 0.0000
# 4 0.0000 0.0000 0.0000 24.1240 0.0000 0.0000
# 5 0.0000 0.0000 0.0000 0.0000 24.1239 0.0000
# 6 0.0000 0.0000 0.0000 0.0000 0.0000 28.7142
#
#
#
# Elastic Compliance Matrix: (Units=1/GPa)
#
#
# Indices 1 2 3 4 5 6 
#
# 1 0.018504 -0.008222 -0.003982 0.000000 0.000000 0.000000
# 2 -0.008222 0.018505 -0.003982 0.000000 0.000000 0.000000
# 3 -0.003982 -0.003982 0.011425 0.000000 0.000000 0.000000
# 4 0.000000 0.000000 0.000000 0.041452 0.000000 0.000000
# 5 0.000000 0.000000 0.000000 0.000000 0.041453 0.000000
# 6 0.000000 0.000000 0.000000 0.000000 0.000000 0.034826
#
#
# Mechanical properties :
#
#
# Convention : Reuss Voigt Hill
#
# Bulk Modulus (GPa) = 62.26376 63.56457 62.91416
# Shear Modulus (GPa) = 24.52272 25.37644 24.94958
#
# Velocity S-wave (km/s) = 3.69019 3.75388 3.72217
# Velocity P-wave (km/s) = 7.26168 7.35435 7.30816
#
# Compressibility (1/GPa) = 0.01606071
#
# Stress axis : x y z
#
# Youngs Moduli (GPa) = 54.04158 54.03992 87.52537
#
# Poissons Ratio (x) = 0.44432 0.34855
# Poissons Ratio (y) = 0.44434 0.34856
# Poissons Ratio (z) = 0.21521 0.21521
#
# Static dielectric constant tensor:
#      x y z
#    x 3.243380 0.000000 0.000000 
#    y 0.000000 3.243380 0.000000 
#    z 0.000000 0.000000 3.490740 
# 
# 
# High freq. dielectric constant tensor:
#      x y z
#    x 1.690430 0.000000 0.000000 
#    y 0.000000 1.690430 0.000000 
#    z 0.000000 0.000000 1.715360 
# 
# From -- ./inp_files/2618.got.cif
#   From: 2010.03.12/outbox.cif.g09.slc.cpg/sg129_2_cif.got.tgz:2618.got - 2010.04.06 17:19:44.
