data_PCOD8315405
_publ_section_title
;
Structure prediction by ZEFSAII (Michael W. Deem and Ramdas Pophale) SiO2 
 PCOD8315405
Probable space group: P 4/N M M
;
_chemical_formula_sum "Si O2"
_cell_formula_units_Z 88
_cell_length_a 13.227586
_cell_length_b 13.227586
_cell_length_c 28.382876
_cell_angle_alpha 90.000000
_cell_angle_beta 90.000000
_cell_angle_gamma 90.000000
_cell_volume 4966.124322
_symmetry_space_group_name_H-M "P 4/N M M"
_symmetry_group_IT_number 129
_symmetry_cell_setting 'tetragonal'
loop_
_space_group_symop_operation_xyz
x,y,z
1/2-y,x,z
1/2-x,1/2-y,z
y,1/2-x,z
1/2+x,-y,-z
-x,1/2+y,-z
1/2+y,1/2+x,-z
-y,-x,-z
-x,-y,-z
1/2+y,-x,-z
1/2+x,1/2+y,-z
-y,1/2+x,-z
1/2-x,y,z
x,1/2-y,z
1/2-y,1/2-x,z
y,x,z
loop_
_atom_site_type_symbol
_atom_site_label
_atom_site_fract_x
_atom_site_fract_y
_atom_site_fract_z
Si Si1 0.132603 0.967382 0.779617
Si Si2 0.366964 0.866964 0.500000
Si Si3 0.634200 0.023783 0.590618
Si Si4 0.631734 0.466362 0.867382
Si Si5 0.367569 0.967695 0.304678
Si Si6 0.534044 0.368089 0.955653
O O1 0.250000 0.990548 0.787633
O O2 0.090879 0.891312 0.818914
O O3 0.117616 0.912417 0.729510
O O4 0.074007 0.074007 0.782010
O O5 0.390998 0.750000 0.498429
O O6 0.415007 0.911281 0.451822
O O7 0.750000 0.006803 0.579982
O O8 0.617096 0.074675 0.641978
O O9 0.586696 0.913305 0.590804
O O10 0.750000 0.490615 0.870903
O O11 0.572756 0.572756 0.870452
O O12 0.597980 0.392762 0.909242
O O13 0.250000 0.988594 0.294012
O O14 0.426875 0.073126 0.296484
O O15 0.507773 0.250000 0.957142
O O16 0.428136 0.428136 0.956145
O O17 0.602320 0.397681 0.000000
#
# Coordination Sequence:
#
# PCOD8315405 Si02
#       6
#    16   8  16  16  16  16
#     4  10  21  36  53  74  99 127 162 202 242 287
#     4   9  17  28  42  62  87 115 150 190 230 273
#     4   9  17  29  45  65  90 119 150 186 228 274
#     4  10  21  36  54  78 106 135 169 206 245 293
#     4   9  18  31  47  70  97 124 157 194 234 284
#     4  10  21  36  54  78 106 136 173 214 255 302
#
# _framework density 17.720056
#
# number of rings (size 3 to 8) (size 9 to 14) (size 15 to 20)
#    0.000    2.455    0.000    1.909    0.000    5.091 
#    0.000    3.636    0.000    9.818    0.000    0.000 
#    0.000    4.364    0.000    0.000    0.000    0.000 
#
# Total GULP energy -1090973.110015 kJ/mol
# GULP energy per Si atom -12397.421705 kJ/mol
# Density = 1.767972 g / cm^3
# Si number density = 17.720056 Si / 1000 Ang^3
#
#
#
# Elastic Constant Matrix: (Units=GPa)
#
#
# Indices 1 2 3 4 5 6 
#
# 1 106.0267 46.3849 44.7834 0.0000 0.0000 0.0000
# 2 46.3849 106.0261 44.7838 0.0000 0.0000 0.0000
# 3 44.7834 44.7838 124.8107 0.0000 0.0000 0.0000
# 4 0.0000 0.0000 0.0000 22.2225 0.0000 0.0000
# 5 0.0000 0.0000 0.0000 0.0000 22.2232 0.0000
# 6 0.0000 0.0000 0.0000 0.0000 0.0000 13.9720
#
#
#
# Elastic Compliance Matrix: (Units=1/GPa)
#
#
# Indices 1 2 3 4 5 6 
#
# 1 0.012541 -0.004226 -0.002983 0.000000 0.000000 0.000000
# 2 -0.004226 0.012541 -0.002983 0.000000 0.000000 0.000000
# 3 -0.002983 -0.002983 0.010153 0.000000 0.000000 0.000000
# 4 0.000000 0.000000 0.000000 0.044999 0.000000 0.000000
# 5 0.000000 0.000000 0.000000 0.000000 0.044998 0.000000
# 6 0.000000 0.000000 0.000000 0.000000 0.000000 0.071571
#
#
# Mechanical properties :
#
#
# Convention : Reuss Voigt Hill
#
# Bulk Modulus (GPa) = 67.34652 67.64087 67.49369
# Shear Modulus (GPa) = 22.50850 25.07765 23.79308
#
# Velocity S-wave (km/s) = 3.56789 3.76601 3.66829
# Velocity P-wave (km/s) = 7.42034 7.56077 7.49089
#
# Compressibility (1/GPa) = 0.01484858
#
# Stress axis : x y z
#
# Youngs Moduli (GPa) = 79.74129 79.74051 98.49285
#
# Poissons Ratio (x) = 0.33700 0.29383
# Poissons Ratio (y) = 0.33701 0.29384
# Poissons Ratio (z) = 0.23789 0.23789
#
# Static dielectric constant tensor:
#      x y z
#    x 3.130540 0.000000 0.000000 
#    y 0.000000 3.130530 0.000000 
#    z 0.000000 0.000000 3.728630 
# 
# 
# High freq. dielectric constant tensor:
#      x y z
#    x 1.672620 0.000000 0.000000 
#    y 0.000000 1.672620 0.000000 
#    z 0.000000 0.000000 1.711900 
# 
# From -- ./inp_files/7770.got.cif
#   From: 2010.03.12/outbox.cif.g09.slc.cpg/sg129_4_cif.got.tgz:7770.got - 2010.04.06 17:19:44.
