data_PCOD8315468
_publ_section_title
;
Structure prediction by ZEFSAII (Michael W. Deem and Ramdas Pophale) SiO2 
 PCOD8315468
Probable space group: P 4/N C C
;
_chemical_formula_sum "Si O2"
_cell_formula_units_Z 120
_cell_length_a 25.235627
_cell_length_b 25.235627
_cell_length_c 9.811492
_cell_angle_alpha 90.000000
_cell_angle_beta 90.000000
_cell_angle_gamma 90.000000
_cell_volume 6248.319856
_symmetry_space_group_name_H-M "P 4/N C C"
_symmetry_group_IT_number 130
_symmetry_cell_setting 'tetragonal'
loop_
_space_group_symop_operation_xyz
x,y,z
1/2-y,x,z
1/2-x,1/2-y,z
y,1/2-x,z
1/2+x,-y,1/2-z
-x,1/2+y,1/2-z
1/2+y,1/2+x,1/2-z
-y,-x,1/2-z
-x,-y,-z
1/2+y,-x,-z
1/2+x,1/2+y,-z
-y,1/2+x,-z
1/2-x,y,1/2+z
x,1/2-y,1/2+z
1/2-y,1/2-x,1/2+z
y,x,1/2+z
loop_
_atom_site_type_symbol
_atom_site_label
_atom_site_fract_x
_atom_site_fract_y
_atom_site_fract_z
Si Si1 0.101767 0.094016 0.838281
Si Si2 0.559283 0.793015 0.284671
Si Si3 0.950369 0.423290 0.497050
Si Si4 0.040127 0.062035 0.591055
Si Si5 0.888258 0.388258 0.750000
Si Si6 0.778984 0.062685 0.307274
Si Si7 0.705803 0.571569 0.589584
Si Si8 0.191384 0.549494 0.892641
O O1 0.148811 0.080819 0.737178
O O2 0.050040 0.083184 0.744056
O O3 0.107443 0.154654 0.884051
O O4 0.103104 0.057025 0.972519
O O5 0.496348 0.794547 0.260473
O O6 0.574669 0.774533 0.435225
O O7 0.590508 0.754198 0.182959
O O8 0.944913 0.476886 0.410502
O O9 0.909233 0.421142 0.620823
O O10 0.937073 0.371224 0.405202
O O11 0.009503 0.424355 0.561404
O O12 0.897564 0.325207 0.740574
O O13 0.775513 0.065426 0.471369
O O14 0.722391 0.077588 0.234882
O O15 0.691338 0.512540 0.633378
#
# Coordination Sequence:
#
# PCOD8315468 Si02
#       8
#    16  16  16  16   8  16  16  16
#     4  12  21  38  54  82 117 150 198 231 294 355
#     4  10  21  36  56  79 109 150 194 246 289 342
#     4  10  19  34  51  79 121 153 199 226 289 353
#     4  11  22  33  54  79 116 164 185 235 281 366
#     4  10  18  34  54  78 110 165 190 238 288 351
#     4   9  18  33  57  74 111 147 199 240 289 341
#     4  10  21  36  55  79 105 149 197 240 287 346
#     4   9  17  36  51  76 108 151 191 247 281 344
#
# _framework density 19.205162999999999
#
# number of rings (size 3 to 8) (size 9 to 14) (size 15 to 20)
#    0.000    1.867    2.667    3.200    1.867    1.600 
#    4.800    0.000    0.000    0.400    0.000    1.867 
#    0.000   25.600    0.533    0.000    0.000    0.000 
#
# Total GULP energy -1487554.658362 kJ/mol
# GULP energy per Si atom -12396.288820 kJ/mol
# Density = 1.916145 g / cm^3
# Si number density = 19.205163 Si / 1000 Ang^3
#
#
#
# Elastic Constant Matrix: (Units=GPa)
#
#
# Indices 1 2 3 4 5 6 
#
# 1 75.7846 22.9765 31.0660 0.0000 0.0000 0.0000
# 2 22.9765 75.7846 31.0660 0.0000 0.0000 0.0000
# 3 31.0660 31.0660 80.7053 0.0000 0.0000 0.0000
# 4 0.0000 0.0000 0.0000 28.4206 0.0000 0.0000
# 5 0.0000 0.0000 0.0000 0.0000 28.4206 0.0000
# 6 0.0000 0.0000 0.0000 0.0000 0.0000 14.5813
#
#
#
# Elastic Compliance Matrix: (Units=1/GPa)
#
#
# Indices 1 2 3 4 5 6 
#
# 1 0.016149 -0.002788 -0.005143 0.000000 0.000000 0.000000
# 2 -0.002788 0.016149 -0.005143 0.000000 0.000000 0.000000
# 3 -0.005143 -0.005143 0.016350 0.000000 0.000000 0.000000
# 4 0.000000 0.000000 0.000000 0.035186 0.000000 0.000000
# 5 0.000000 0.000000 0.000000 0.000000 0.035186 0.000000
# 6 0.000000 0.000000 0.000000 0.000000 0.000000 0.068581
#
#
# Mechanical properties :
#
#
# Convention : Reuss Voigt Hill
#
# Bulk Modulus (GPa) = 44.44452 44.72128 44.58290
# Shear Modulus (GPa) = 22.59907 24.09557 23.34732
#
# Velocity S-wave (km/s) = 3.43405 3.54593 3.49044
# Velocity P-wave (km/s) = 6.23826 6.33257 6.28559
#
# Compressibility (1/GPa) = 0.02249996
#
# Stress axis : x y z
#
# Youngs Moduli (GPa) = 61.92432 61.92432 61.16128
#
# Poissons Ratio (x) = 0.17263 0.31456
# Poissons Ratio (y) = 0.17263 0.31456
# Poissons Ratio (z) = 0.31848 0.31848
#
# Static dielectric constant tensor:
#      x y z
#    x 3.374950 0.000000 0.000000 
#    y 0.000000 3.374950 0.000000 
#    z 0.000000 0.000000 3.679110 
# 
# 
# High freq. dielectric constant tensor:
#      x y z
#    x 1.717900 0.000000 0.000000 
#    y 0.000000 1.717900 0.000000 
#    z 0.000000 0.000000 1.760550 
# 
# From -- ./inp_files/1091.got.cif
#   From: 2010.03.12/outbox.cif.g09.slc.cpg/sg130_1_cif.got.tgz:1091.got - 2010.04.06 17:30:23.
