data_PCOD8315970
_publ_section_title
;
Structure prediction by ZEFSAII (Michael W. Deem and Ramdas Pophale) SiO2 
 PCOD8315970
Probable space group: P 42/M M C
;
_chemical_formula_sum "Si O2"
_cell_formula_units_Z 112
_cell_length_a 14.740607
_cell_length_b 14.740607
_cell_length_c 26.842342
_cell_angle_alpha 90.000000
_cell_angle_beta 90.000000
_cell_angle_gamma 90.000000
_cell_volume 5832.451561
_symmetry_space_group_name_H-M "P 42/M M C"
_symmetry_group_IT_number 131
_symmetry_cell_setting 'tetragonal'
loop_
_space_group_symop_operation_xyz
x,y,z
-x,-y,z
-y,x,1/2+z
y,-x,1/2+z
-x,y,-z
x,-y,-z
y,x,1/2-z
-y,-x,1/2-z
-x,-y,-z
x,y,-z
y,-x,1/2-z
-y,x,1/2-z
x,-y,z
-x,y,z
-y,-x,1/2+z
y,x,1/2+z
loop_
_atom_site_type_symbol
_atom_site_label
_atom_site_fract_x
_atom_site_fract_y
_atom_site_fract_z
Si Si1 0.744103 0.602477 0.943273
Si Si2 0.751180 0.397309 0.559162
Si Si3 0.741710 0.899292 0.058615
Si Si4 0.101552 0.358099 0.135297
Si Si5 0.781835 0.101118 0.214013
Si Si6 0.148660 0.102884 0.622849
Si Si7 0.597608 0.892438 0.745503
O O1 0.708906 0.500000 0.941378
O O2 0.659645 0.662656 0.924061
O O3 0.832785 0.612077 0.909112
O O4 0.771115 0.630376 0.000000
O O5 0.755206 0.404534 0.500000
O O6 0.750054 0.500000 0.581644
O O7 0.836965 0.339890 0.580088
O O8 0.843382 0.862239 0.070855
O O9 0.726751 0.000000 0.080410
O O10 0.735638 0.899401 0.000000
O O11 0.094908 0.250973 0.139145
O O12 0.141352 0.390293 0.188357
O O13 0.000000 0.397407 0.125064
O O14 0.844996 0.155005 0.250000
O O15 0.826492 0.098827 0.159761
O O16 0.678804 0.141650 0.217854
O O17 0.778276 0.000000 0.235627
O O18 0.106380 0.000000 0.620748
O O19 0.500000 0.855005 0.765006
O O20 0.595940 0.000000 0.744659
#
# Coordination Sequence:
#
# PCOD8315970 Si02
#       7
#    16  16  16  16  16  16  16
#     4  10  20  33  52  80 111 143 181 225 276 334
#     4   9  18  34  54  75 102 136 179 234 285 325
#     4  10  21  37  56  78 107 147 193 235 275 327
#     4  10  19  33  54  78 108 147 184 222 272 330
#     4  11  21  34  53  79 109 140 176 223 274 328
#     4  11  22  36  55  80 111 148 186 226 277 334
#     4   9  18  34  55  77 102 136 177 218 263 318
#
# _framework density 19.202904
#
# number of rings (size 3 to 8) (size 9 to 14) (size 15 to 20)
#    0.000    2.000    2.857    1.286    0.000    3.857 
#    0.000    6.429    0.000    1.714    0.000    0.000 
#    0.000    0.286    0.000    0.000    0.000    0.000 
#
# Total GULP energy -1387748.443401 kJ/mol
# GULP energy per Si atom -12390.611102 kJ/mol
# Density = 1.915920 g / cm^3
# Si number density = 19.202904 Si / 1000 Ang^3
#
#
#
# Elastic Constant Matrix: (Units=GPa)
#
#
# Indices 1 2 3 4 5 6 
#
# 1 135.7196 46.6633 27.7772 0.0000 0.0000 0.0000
# 2 46.6633 135.7236 27.7761 0.0000 0.0000 0.0000
# 3 27.7772 27.7761 32.3233 0.0000 0.0000 0.0000
# 4 0.0000 0.0000 0.0000 21.8431 0.0000 0.0000
# 5 0.0000 0.0000 0.0000 0.0000 21.8438 0.0000
# 6 0.0000 0.0000 0.0000 0.0000 0.0000 11.8271
#
#
#
# Elastic Compliance Matrix: (Units=1/GPa)
#
#
# Indices 1 2 3 4 5 6 
#
# 1 0.009328 -0.001901 -0.006383 0.000000 0.000000 0.000000
# 2 -0.001901 0.009327 -0.006382 0.000000 0.000000 0.000000
# 3 -0.006383 -0.006382 0.041906 0.000000 0.000000 0.000000
# 4 0.000000 0.000000 0.000000 0.045781 0.000000 0.000000
# 5 0.000000 0.000000 0.000000 0.000000 0.045780 0.000000
# 6 0.000000 0.000000 0.000000 0.000000 0.000000 0.084552
#
#
# Mechanical properties :
#
#
# Convention : Reuss Voigt Hill
#
# Bulk Modulus (GPa) = 32.01916 56.46663 44.24290
# Shear Modulus (GPa) = 18.08872 24.53944 21.31408
#
# Velocity S-wave (km/s) = 3.07250 3.57865 3.33519
# Velocity P-wave (km/s) = 5.41270 6.82237 6.15801
#
# Compressibility (1/GPa) = 0.03123130
#
# Stress axis : x y z
#
# Youngs Moduli (GPa) = 107.20426 107.20988 23.86274
#
# Poissons Ratio (x) = 0.20379 0.15231
# Poissons Ratio (y) = 0.20378 0.15229
# Poissons Ratio (z) = 0.68424 0.68419
#
# Static dielectric constant tensor:
#      x y z
#    x 3.856690 0.000000 0.000000 
#    y 0.000000 3.856730 0.000000 
#    z 0.000000 0.000000 3.528610 
# 
# 
# High freq. dielectric constant tensor:
#      x y z
#    x 1.744700 0.000000 0.000000 
#    y 0.000000 1.744700 0.000000 
#    z 0.000000 0.000000 1.722460 
# 
# From -- ./inp_files/11283.got.cif
#   From: 2010.03.12/outbox.cif.g09.slc.cpg/sg131_6_cif.got.tgz:11283.got - 2010.04.06 17:36:35.
