data_PCOD8315497
_publ_section_title
;
Structure prediction by ZEFSAII (Michael W. Deem and Ramdas Pophale) SiO2 
 PCOD8315497
Probable space group: P 4/N C C
;
_chemical_formula_sum "Si O2"
_cell_formula_units_Z 80
_cell_length_a 11.543652
_cell_length_b 11.543652
_cell_length_c 28.931207
_cell_angle_alpha 90.000000
_cell_angle_beta 90.000000
_cell_angle_gamma 90.000000
_cell_volume 3855.254070
_symmetry_space_group_name_H-M "P 4/N C C"
_symmetry_group_IT_number 130
_symmetry_cell_setting 'tetragonal'
loop_
_space_group_symop_operation_xyz
x,y,z
1/2-y,x,z
1/2-x,1/2-y,z
y,1/2-x,z
1/2+x,-y,1/2-z
-x,1/2+y,1/2-z
1/2+y,1/2+x,1/2-z
-y,-x,1/2-z
-x,-y,-z
1/2+y,-x,-z
1/2+x,1/2+y,-z
-y,1/2+x,-z
1/2-x,y,1/2+z
x,1/2-y,1/2+z
1/2-y,1/2-x,1/2+z
y,x,1/2+z
loop_
_atom_site_type_symbol
_atom_site_label
_atom_site_fract_x
_atom_site_fract_y
_atom_site_fract_z
Si Si1 0.302234 0.068457 0.573031
Si Si2 0.583745 0.660784 0.187093
Si Si3 0.341242 0.577943 0.391172
Si Si4 0.250000 0.750000 0.824818
Si Si5 0.375626 0.624375 0.250000
Si Si6 0.263359 0.570606 0.988470
O O1 0.391627 0.171392 0.585290
O O2 0.337593 0.951808 0.600581
O O3 0.306420 0.040352 0.517802
O O4 0.702362 0.594678 0.190955
O O5 0.533615 0.619260 0.137582
O O6 0.503774 0.630171 0.230207
O O7 0.242256 0.640489 0.359537
O O8 0.284007 0.534107 0.438538
O O9 0.141285 0.721860 0.790639
O O10 0.161203 0.631642 0.018301
#
# Coordination Sequence:
#
# PCOD8315497 Si02
#       6
#    16  16  16   8   8  16
#     4  10  22  37  52  78 117 157 198 242 286 336
#     4  10  23  41  61  90 119 142 180 234 285 337
#     4  10  20  35  60  85 114 153 192 240 289 337
#     4   9  18  36  59  88 110 140 193 230 266 339
#     4   9  20  38  64  85 112 156 184 219 282 352
#     4   9  18  33  54  80 110 151 200 241 280 335
#
# _framework density 20.750903000000001
#
# number of rings (size 3 to 8) (size 9 to 14) (size 15 to 20)
#    0.000    2.400    0.000    2.400    0.000   12.800 
#    0.000    8.000    0.000    9.600    0.000    0.000 
#    0.000    0.000    0.000    0.000    0.000    0.000 
#
# Total GULP energy -991142.180139 kJ/mol
# GULP energy per Si atom -12389.277252 kJ/mol
# Density = 2.070367 g / cm^3
# Si number density = 20.750903 Si / 1000 Ang^3
#
#
#
# Elastic Constant Matrix: (Units=GPa)
#
#
# Indices 1 2 3 4 5 6 
#
# 1 47.7572 86.6758 49.0885 0.0000 0.0000 0.0000
# 2 86.6758 47.7580 49.0890 0.0000 0.0000 0.0000
# 3 49.0885 49.0890 130.8236 0.0000 0.0000 0.0000
# 4 0.0000 0.0000 0.0000 26.0356 0.0000 0.0000
# 5 0.0000 0.0000 0.0000 0.0000 26.0360 0.0000
# 6 0.0000 0.0000 0.0000 0.0000 0.0000 3.5492
#
#
#
# Elastic Compliance Matrix: (Units=1/GPa)
#
#
# Indices 1 2 3 4 5 6 
#
# 1 -0.007724 0.017971 -0.003845 0.000000 0.000000 0.000000
# 2 0.017971 -0.007724 -0.003845 0.000000 0.000000 0.000000
# 3 -0.003845 -0.003845 0.010529 0.000000 0.000000 0.000000
# 4 0.000000 0.000000 0.000000 0.038409 0.000000 0.000000
# 5 0.000000 0.000000 0.000000 0.000000 0.038408 0.000000
# 6 0.000000 0.000000 0.000000 0.000000 0.000000 0.281750
#
#
# Mechanical properties :
#
#
# Convention : Reuss Voigt Hill
#
# Bulk Modulus (GPa) = 63.92596 66.22728 65.07662
# Shear Modulus (GPa) = 14.77977 13.88987 14.33482
#
# Velocity S-wave (km/s) = 2.67169 2.59001 2.63117
# Velocity P-wave (km/s) = 6.35535 6.39757 6.37649
#
# Compressibility (1/GPa) = 0.01564310
#
# Stress axis : x y z
#
# Youngs Moduli (GPa) = -129.46184 -129.46404 94.97379
#
# Poissons Ratio (x) = 2.32656 0.36516
# Poissons Ratio (y) = 2.32652 0.36515
# Poissons Ratio (z) = -0.49776 -0.49776
#
# Static dielectric constant tensor:
#      x y z
#    x 3.706080 0.000000 0.000000 
#    y 0.000000 3.706090 0.000000 
#    z 0.000000 0.000000 3.872340 
# 
# 
# High freq. dielectric constant tensor:
#      x y z
#    x 1.801030 0.000000 0.000000 
#    y 0.000000 1.801030 0.000000 
#    z 0.000000 0.000000 1.815690 
# 
# From -- ./inp_files/4803.got.cif
#   From: 2010.03.12/outbox.cif.g09.slc.cpg/sg130_3_cif.got.tgz:4803.got - 2010.04.06 17:30:23.
