data_PCOD8315466
_publ_section_title
;
Structure prediction by ZEFSAII (Michael W. Deem and Ramdas Pophale) SiO2 
 PCOD8315466
Probable space group: P 4/N C C
;
_chemical_formula_sum "Si O2"
_cell_formula_units_Z 112
_cell_length_a 21.436539
_cell_length_b 21.436539
_cell_length_c 13.143352
_cell_angle_alpha 90.000000
_cell_angle_beta 90.000000
_cell_angle_gamma 90.000000
_cell_volume 6039.701513
_symmetry_space_group_name_H-M "P 4/N C C"
_symmetry_group_IT_number 130
_symmetry_cell_setting 'tetragonal'
loop_
_space_group_symop_operation_xyz
x,y,z
1/2-y,x,z
1/2-x,1/2-y,z
y,1/2-x,z
1/2+x,-y,1/2-z
-x,1/2+y,1/2-z
1/2+y,1/2+x,1/2-z
-y,-x,1/2-z
-x,-y,-z
1/2+y,-x,-z
1/2+x,1/2+y,-z
-y,1/2+x,-z
1/2-x,y,1/2+z
x,1/2-y,1/2+z
1/2-y,1/2-x,1/2+z
y,x,1/2+z
loop_
_atom_site_type_symbol
_atom_site_label
_atom_site_fract_x
_atom_site_fract_y
_atom_site_fract_z
Si Si1 0.103853 0.152147 0.198100
Si Si2 0.336310 0.025038 0.664599
Si Si3 0.071207 0.016866 0.811333
Si Si4 0.365137 0.502586 0.379292
Si Si5 0.151675 0.278041 0.882630
Si Si6 0.066806 0.531715 0.514920
Si Si7 0.268307 0.442888 0.526672
O O1 0.155924 0.097755 0.196504
O O2 0.035689 0.126106 0.233696
O O3 0.123031 0.208839 0.272162
O O4 0.098288 0.180996 0.086385
O O5 0.338913 0.981615 0.765999
O O6 0.270674 0.014466 0.606487
O O7 0.393868 0.009071 0.592453
O O8 0.050743 0.082176 0.864430
O O9 0.013754 0.986246 0.750000
O O10 0.096309 0.969900 0.900343
O O11 0.398426 0.560404 0.438271
O O12 0.305463 0.483214 0.444722
O O13 0.173491 0.207118 0.896329
O O14 0.099358 0.284194 0.970045
O O15 0.000000 0.500000 0.500000
#
# Coordination Sequence:
#
# PCOD8315466 Si02
#       7
#    16  16  16  16  16  16  16
#     4  11  20  35  51  69  99 135 177 227 275 321
#     4  11  22  34  52  75 102 135 178 223 270 326
#     4  10  18  31  54  82 104 130 173 224 277 339
#     4  10  19  33  50  72 100 131 166 210 266 323
#     4  11  23  36  47  62  89 132 188 237 269 304
#     4  10  18  33  55  79 102 130 168 214 273 337
#     4  12  22  34  49  70  98 136 174 217 268 316
#
# _framework density 18.543962000000001
#
# number of rings (size 3 to 8) (size 9 to 14) (size 15 to 20)
#    0.000    1.286    0.000   11.571    0.000    0.000 
#    0.000    1.429    0.000    0.000    0.000    0.000 
#    0.000    0.571    0.000    6.429    0.000    0.714 
#
# Total GULP energy -1388036.936317 kJ/mol
# GULP energy per Si atom -12393.186931 kJ/mol
# Density = 1.850176 g / cm^3
# Si number density = 18.543962 Si / 1000 Ang^3
#
#
#
# Elastic Constant Matrix: (Units=GPa)
#
#
# Indices 1 2 3 4 5 6 
#
# 1 59.2671 31.2102 36.2927 0.0000 0.0000 0.0000
# 2 31.2102 59.2668 36.2920 0.0000 0.0000 0.0000
# 3 36.2927 36.2920 126.0138 0.0000 0.0000 0.0000
# 4 0.0000 0.0000 0.0000 36.7964 0.0000 0.0000
# 5 0.0000 0.0000 0.0000 0.0000 36.7966 0.0000
# 6 0.0000 0.0000 0.0000 0.0000 0.0000 26.1077
#
#
#
# Elastic Compliance Matrix: (Units=1/GPa)
#
#
# Indices 1 2 3 4 5 6 
#
# 1 0.025008 -0.010634 -0.004140 0.000000 0.000000 0.000000
# 2 -0.010634 0.025008 -0.004140 0.000000 0.000000 0.000000
# 3 -0.004140 -0.004140 0.010320 0.000000 0.000000 0.000000
# 4 0.000000 0.000000 0.000000 0.027177 0.000000 0.000000
# 5 0.000000 0.000000 0.000000 0.000000 0.027176 0.000000
# 6 0.000000 0.000000 0.000000 0.000000 0.000000 0.038303
#
#
# Mechanical properties :
#
#
# Convention : Reuss Voigt Hill
#
# Bulk Modulus (GPa) = 44.42742 50.23751 47.33247
# Shear Modulus (GPa) = 25.21159 29.32364 27.26762
#
# Velocity S-wave (km/s) = 3.69122 3.98088 3.83878
# Velocity P-wave (km/s) = 6.49436 6.94836 6.72519
#
# Compressibility (1/GPa) = 0.02250862
#
# Stress axis : x y z
#
# Youngs Moduli (GPa) = 39.98749 39.98759 96.89849
#
# Poissons Ratio (x) = 0.42524 0.40113
# Poissons Ratio (y) = 0.42524 0.40111
# Poissons Ratio (z) = 0.16554 0.16553
#
# Static dielectric constant tensor:
#      x y z
#    x 3.272290 0.000000 0.000000 
#    y 0.000000 3.272300 0.000000 
#    z 0.000000 0.000000 4.300220 
# 
# 
# High freq. dielectric constant tensor:
#      x y z
#    x 1.677450 0.000000 0.000000 
#    y 0.000000 1.677450 0.000000 
#    z 0.000000 0.000000 1.756070 
# 
# From -- ./inp_files/1862.got.cif
#   From: 2010.03.12/outbox.cif.g09.slc.cpg/sg130_1_cif.got.tgz:1862.got - 2010.04.06 17:30:23.
