data_PCOD8315279
_publ_section_title
;
Structure prediction by ZEFSAII (Michael W. Deem and Ramdas Pophale) SiO2 
 PCOD8315279
Probable space group: P 4/N M M
;
_chemical_formula_sum "Si O2"
_cell_formula_units_Z 96
_cell_length_a 18.322540
_cell_length_b 18.322540
_cell_length_c 16.877760
_cell_angle_alpha 90.000000
_cell_angle_beta 90.000000
_cell_angle_gamma 90.000000
_cell_volume 5666.125166
_symmetry_space_group_name_H-M "P 4/N M M"
_symmetry_group_IT_number 129
_symmetry_cell_setting 'tetragonal'
loop_
_space_group_symop_operation_xyz
x,y,z
1/2-y,x,z
1/2-x,1/2-y,z
y,1/2-x,z
1/2+x,-y,-z
-x,1/2+y,-z
1/2+y,1/2+x,-z
-y,-x,-z
-x,-y,-z
1/2+y,-x,-z
1/2+x,1/2+y,-z
-y,1/2+x,-z
1/2-x,y,z
x,1/2-y,z
1/2-y,1/2-x,z
y,x,z
loop_
_atom_site_type_symbol
_atom_site_label
_atom_site_fract_x
_atom_site_fract_y
_atom_site_fract_z
Si Si1 0.043163 0.568316 0.908409
Si Si2 0.668413 0.168228 0.094534
Si Si3 0.665508 0.460905 0.659952
Si Si4 0.834276 0.948653 0.815080
Si Si5 0.451022 0.333062 0.493031
Si Si6 0.400347 0.832938 0.423161
O O1 0.117865 0.602079 0.871058
O O2 0.007994 0.492007 0.872076
O O3 0.982880 0.631765 0.895090
O O4 0.055285 0.555285 0.000000
O O5 0.750000 0.153920 0.125969
O O6 0.642356 0.250000 0.122379
O O7 0.666551 0.166551 0.000000
O O8 0.750000 0.440620 0.649689
O O9 0.648433 0.494373 0.745138
O O10 0.643000 0.519049 0.592892
O O11 0.619836 0.386225 0.649590
O O12 0.750000 0.933025 0.827554
O O13 0.871436 0.871436 0.794883
O O14 0.422732 0.250000 0.490703
O O15 0.383779 0.383779 0.517477
O O16 0.514299 0.342835 0.557906
O O17 0.352281 0.852281 0.500000
O O18 0.383195 0.750000 0.397981
#
# Coordination Sequence:
#
# PCOD8315279 Si02
#       6
#    16  16  16  16  16  16
#     4   9  17  29  45  65  88 114 145 180 219 264
#     4   8  13  22  38  59  81 105 133 166 204 247
#     4   9  18  30  43  63  91 121 154 189 224 266
#     4  10  20  33  49  69  94 124 156 189 224 264
#     4   9  17  28  42  62  87 116 153 194 234 276
#     4   9  17  28  44  66  89 116 152 191 231 277
#
# _framework density 16.942796000000001
#
# number of rings (size 3 to 8) (size 9 to 14) (size 15 to 20)
#    0.000    3.000    0.000    3.000    0.000    5.833 
#    0.000    0.833    0.000    4.000    0.000    0.000 
#    0.000    0.333    0.000    0.000    0.000   19.667 
#
# Total GULP energy -1189314.429150 kJ/mol
# GULP energy per Si atom -12388.691970 kJ/mol
# Density = 1.690423 g / cm^3
# Si number density = 16.942796 Si / 1000 Ang^3
#
#
#
# Elastic Constant Matrix: (Units=GPa)
#
#
# Indices 1 2 3 4 5 6 
#
# 1 117.3246 84.8004 25.1739 0.0000 0.0000 0.0000
# 2 84.8004 117.3246 25.1739 0.0000 0.0000 0.0000
# 3 25.1739 25.1739 41.1362 0.0000 0.0000 0.0000
# 4 0.0000 0.0000 0.0000 14.0202 0.0000 0.0000
# 5 0.0000 0.0000 0.0000 0.0000 14.0202 0.0000
# 6 0.0000 0.0000 0.0000 0.0000 0.0000 36.7855
#
#
#
# Elastic Compliance Matrix: (Units=1/GPa)
#
#
# Indices 1 2 3 4 5 6 
#
# 1 0.018292 -0.012455 -0.003572 0.000000 0.000000 0.000000
# 2 -0.012455 0.018292 -0.003572 0.000000 0.000000 0.000000
# 3 -0.003572 -0.003572 0.028682 0.000000 0.000000 0.000000
# 4 0.000000 0.000000 0.000000 0.071326 0.000000 0.000000
# 5 0.000000 0.000000 0.000000 0.000000 0.071326 0.000000
# 6 0.000000 0.000000 0.000000 0.000000 0.000000 0.027185
#
#
# Mechanical properties :
#
#
# Convention : Reuss Voigt Hill
#
# Bulk Modulus (GPa) = 38.36219 60.67574 49.51897
# Shear Modulus (GPa) = 17.66857 22.34098 20.00478
#
# Velocity S-wave (km/s) = 3.23280 3.63521 3.43990
# Velocity P-wave (km/s) = 6.05194 7.31502 6.71325
#
# Compressibility (1/GPa) = 0.02606733
#
# Stress axis : x y z
#
# Youngs Moduli (GPa) = 54.66923 54.66923 34.86559
#
# Poissons Ratio (x) = 0.68088 0.12455
# Poissons Ratio (y) = 0.68088 0.12455
# Poissons Ratio (z) = 0.19529 0.19529
#
# Static dielectric constant tensor:
#      x y z
#    x 3.374950 0.000000 0.000000 
#    y 0.000000 3.374950 0.000000 
#    z 0.000000 0.000000 2.877880 
# 
# 
# High freq. dielectric constant tensor:
#      x y z
#    x 1.652990 0.000000 0.000000 
#    y 0.000000 1.652990 0.000000 
#    z 0.000000 0.000000 1.615150 
# 
# From -- ./inp_files/5665.got.cif
#   From: 2010.03.12/outbox.cif.g09.slc.cpg/sg129_3_cif.got.tgz:5665.got - 2010.04.06 17:19:44.
