data_PCOD8315129
_publ_section_title
;
Structure prediction by ZEFSAII (Michael W. Deem and Ramdas Pophale) SiO2 
 PCOD8315129
Probable space group: P 4/N M M
;
_chemical_formula_sum "Si O2"
_cell_formula_units_Z 80
_cell_length_a 12.696145
_cell_length_b 12.696145
_cell_length_c 29.094739
_cell_angle_alpha 90.000000
_cell_angle_beta 90.000000
_cell_angle_gamma 90.000000
_cell_volume 4689.842016
_symmetry_space_group_name_H-M "P 4/N M M"
_symmetry_group_IT_number 129
_symmetry_cell_setting 'tetragonal'
loop_
_space_group_symop_operation_xyz
x,y,z
1/2-y,x,z
1/2-x,1/2-y,z
y,1/2-x,z
1/2+x,-y,-z
-x,1/2+y,-z
1/2+y,1/2+x,-z
-y,-x,-z
-x,-y,-z
1/2+y,-x,-z
1/2+x,1/2+y,-z
-y,1/2+x,-z
1/2-x,y,z
x,1/2-y,z
1/2-y,1/2-x,z
y,x,z
loop_
_atom_site_type_symbol
_atom_site_label
_atom_site_fract_x
_atom_site_fract_y
_atom_site_fract_z
Si Si1 0.366252 0.625493 0.049514
Si Si2 0.125274 0.750000 0.802156
Si Si3 0.124935 0.750000 0.698640
Si Si4 0.964885 0.366280 0.540158
Si Si5 0.125882 0.958797 0.855231
Si Si6 0.873296 0.453847 0.356455
O O1 0.250000 0.576417 0.058664
O O2 0.353865 0.750000 0.046752
O O3 0.443018 0.596295 0.091232
O O4 0.413012 0.586989 0.000000
O O5 0.250000 0.750000 0.802209
O O6 0.080370 0.750000 0.750430
O O7 0.086985 0.855434 0.827834
O O8 0.250000 0.750000 0.697618
O O9 0.084893 0.855935 0.673654
O O10 0.877735 0.377735 0.500000
O O11 0.010546 0.250000 0.540027
O O12 0.918651 0.391814 0.590635
O O13 0.063060 0.436941 0.526969
O O14 0.250000 0.980631 0.847624
O O15 0.060067 0.060067 0.837543
O O16 0.750000 0.479509 0.346600
O O17 0.942103 0.557898 0.344606
#
# Coordination Sequence:
#
# PCOD8315129 Si02
#       6
#    16   8   8  16  16  16
#     4   8  13  24  44  69  96 126 163 204 240 281
#     4   9  18  34  52  69  93 127 169 204 233 285
#     4   9  18  32  52  73  95 125 161 204 245 287
#     4   9  18  30  45  68  97 129 163 198 239 288
#     4  10  19  31  49  73 101 129 162 204 248 297
#     4   9  18  32  50  74 102 130 163 202 246 297
#
# _framework density 17.058143999999999
#
# number of rings (size 3 to 8) (size 9 to 14) (size 15 to 20)
#    0.000    3.000    1.000    0.600    1.400    2.000 
#    0.000    2.000    0.000    0.600    0.000    7.000 
#    0.000    0.000    0.000    0.000    0.000    0.000 
#
# Total GULP energy -991276.931810 kJ/mol
# GULP energy per Si atom -12390.961648 kJ/mol
# Density = 1.701932 g / cm^3
# Si number density = 17.058144 Si / 1000 Ang^3
#
#
#
# Elastic Constant Matrix: (Units=GPa)
#
#
# Indices 1 2 3 4 5 6 
#
# 1 77.8352 46.1627 44.0886 0.0000 0.0000 0.0000
# 2 46.1627 77.8353 44.0885 0.0000 0.0000 0.0000
# 3 44.0886 44.0885 117.1744 0.0000 0.0000 0.0000
# 4 0.0000 0.0000 0.0000 14.7034 0.0000 0.0000
# 5 0.0000 0.0000 0.0000 0.0000 14.7033 0.0000
# 6 0.0000 0.0000 0.0000 0.0000 0.0000 20.1432
#
#
#
# Elastic Compliance Matrix: (Units=1/GPa)
#
#
# Indices 1 2 3 4 5 6 
#
# 1 0.021292 -0.010281 -0.004143 0.000000 0.000000 0.000000
# 2 -0.010281 0.021292 -0.004143 0.000000 0.000000 0.000000
# 3 -0.004143 -0.004143 0.011652 0.000000 0.000000 0.000000
# 4 0.000000 0.000000 0.000000 0.068011 0.000000 0.000000
# 5 0.000000 0.000000 0.000000 0.000000 0.068012 0.000000
# 6 0.000000 0.000000 0.000000 0.000000 0.000000 0.049645
#
#
# Mechanical properties :
#
#
# Convention : Reuss Voigt Hill
#
# Bulk Modulus (GPa) = 58.47376 60.16941 59.32158
# Shear Modulus (GPa) = 17.68419 19.14366 18.41392
#
# Velocity S-wave (km/s) = 3.22328 3.35365 3.28911
# Velocity P-wave (km/s) = 6.94307 7.09547 7.01968
#
# Compressibility (1/GPa) = 0.01710169
#
# Stress axis : x y z
#
# Youngs Moduli (GPa) = 46.96609 46.96618 85.82232
#
# Poissons Ratio (x) = 0.48287 0.35556
# Poissons Ratio (y) = 0.48287 0.35556
# Poissons Ratio (z) = 0.19458 0.19458
#
# Static dielectric constant tensor:
#      x y z
#    x 2.955230 0.000000 0.000000 
#    y 0.000000 2.955230 0.000000 
#    z 0.000000 0.000000 3.592670 
# 
# 
# High freq. dielectric constant tensor:
#      x y z
#    x 1.630570 0.000000 0.000000 
#    y 0.000000 1.630570 0.000000 
#    z 0.000000 0.000000 1.670180 
# 
# From -- ./inp_files/7726.got.cif
#   From: 2010.03.12/outbox.cif.g09.slc.cpg/sg129_4_cif.got.tgz:7726.got - 2010.04.06 17:19:44.
