data_PCOD8315077
_publ_section_title
;
Structure prediction by ZEFSAII (Michael W. Deem and Ramdas Pophale) SiO2 
 PCOD8315077
Probable space group: P 4/N M M
;
_chemical_formula_sum "Si O2"
_cell_formula_units_Z 128
_cell_length_a 18.052150
_cell_length_b 18.052150
_cell_length_c 23.211059
_cell_angle_alpha 90.000000
_cell_angle_beta 90.000000
_cell_angle_gamma 90.000000
_cell_volume 7564.022683
_symmetry_space_group_name_H-M "P 4/N M M"
_symmetry_group_IT_number 129
_symmetry_cell_setting 'tetragonal'
loop_
_space_group_symop_operation_xyz
x,y,z
1/2-y,x,z
1/2-x,1/2-y,z
y,1/2-x,z
1/2+x,-y,-z
-x,1/2+y,-z
1/2+y,1/2+x,-z
-y,-x,-z
-x,-y,-z
1/2+y,-x,-z
1/2+x,1/2+y,-z
-y,1/2+x,-z
1/2-x,y,z
x,1/2-y,z
1/2-y,1/2-x,z
y,x,z
loop_
_atom_site_type_symbol
_atom_site_label
_atom_site_fract_x
_atom_site_fract_y
_atom_site_fract_z
Si Si1 0.977819 0.403819 0.928894
Si Si2 0.834504 0.059623 0.531968
Si Si3 0.444974 0.666205 0.869980
Si Si4 0.450371 0.332528 0.031737
Si Si5 0.441840 0.564819 0.765498
Si Si6 0.953508 0.664207 0.176799
Si Si7 0.834926 0.955452 0.428533
Si Si8 0.561180 0.061459 0.635083
O O1 0.893042 0.397004 0.907028
O O2 0.012282 0.487719 0.921409
O O3 0.027280 0.348272 0.890320
O O4 0.986726 0.377098 0.994985
O O5 0.871694 0.128307 0.500000
O O6 0.750000 0.081043 0.541091
O O7 0.869075 0.045969 0.594488
O O8 0.844280 0.985924 0.493480
O O9 0.410441 0.750000 0.870486
O O10 0.524658 0.668524 0.901603
O O11 0.452973 0.638096 0.804485
O O12 0.442200 0.250000 0.007177
O O13 0.371224 0.371224 0.025621
O O14 0.514076 0.514076 0.773000
O O15 0.369451 0.519750 0.784842
O O16 0.429793 0.590670 0.700016
O O17 0.944476 0.750000 0.191549
O O18 0.876505 0.623495 0.192557
O O19 0.750000 0.939772 0.412925
O O20 0.878708 0.878708 0.423081
O O21 0.865201 0.016401 0.383603
O O22 0.508416 0.991585 0.628870
#
# Coordination Sequence:
#
# PCOD8315077 Si02
#       8
#    16  16  16  16  16  16  16  16
#     4   9  17  31  49  67  90 122 157 189 225 273
#     4   9  17  29  46  68  93 121 152 188 229 270
#     4  10  19  30  47  70  92 115 150 195 234 269
#     4  10  19  30  48  73  98 125 154 185 226 275
#     4   9  18  32  48  65  89 122 156 189 227 271
#     4   9  17  29  46  67  90 117 148 184 227 274
#     4   9  17  29  46  70  98 124 151 182 219 267
#     4   9  17  30  48  67  88 119 157 193 227 263
#
# _framework density 16.922212999999999
#
# number of rings (size 3 to 8) (size 9 to 14) (size 15 to 20)
#    0.000    2.750    0.000    3.000    0.000    4.000 
#    0.000    0.000    0.000   11.625    0.000   17.500 
#    0.000    0.000    0.000   29.750    0.000    0.000 
#
# Total GULP energy -1586653.736082 kJ/mol
# GULP energy per Si atom -12395.732313 kJ/mol
# Density = 1.688370 g / cm^3
# Si number density = 16.922213 Si / 1000 Ang^3
#
#
#
# Elastic Constant Matrix: (Units=GPa)
#
#
# Indices 1 2 3 4 5 6 
#
# 1 102.0440 35.3341 36.1743 0.0000 0.0000 0.0000
# 2 35.3341 102.0432 36.1741 0.0000 0.0000 0.0000
# 3 36.1743 36.1741 120.3130 0.0000 0.0000 0.0000
# 4 0.0000 0.0000 0.0000 18.4559 0.0000 0.0000
# 5 0.0000 0.0000 0.0000 0.0000 18.4558 0.0000
# 6 0.0000 0.0000 0.0000 0.0000 0.0000 13.5359
#
#
#
# Elastic Compliance Matrix: (Units=1/GPa)
#
#
# Indices 1 2 3 4 5 6 
#
# 1 0.011819 -0.003171 -0.002600 0.000000 0.000000 0.000000
# 2 -0.003171 0.011820 -0.002600 0.000000 0.000000 0.000000
# 3 -0.002600 -0.002600 0.009875 0.000000 0.000000 0.000000
# 4 0.000000 0.000000 0.000000 0.054183 0.000000 0.000000
# 5 0.000000 0.000000 0.000000 0.000000 0.054183 0.000000
# 6 0.000000 0.000000 0.000000 0.000000 0.000000 0.073878
#
#
# Mechanical properties :
#
#
# Convention : Reuss Voigt Hill
#
# Bulk Modulus (GPa) = 59.62609 59.97391 59.80000
# Shear Modulus (GPa) = 21.00027 24.53737 22.76882
#
# Velocity S-wave (km/s) = 3.52659 3.81203 3.67208
# Velocity P-wave (km/s) = 7.20377 7.40900 7.30711
#
# Compressibility (1/GPa) = 0.01677118
#
# Stress axis : x y z
#
# Youngs Moduli (GPa) = 84.60611 84.60552 101.26225
#
# Poissons Ratio (x) = 0.26827 0.26332
# Poissons Ratio (y) = 0.26827 0.26332
# Poissons Ratio (z) = 0.22001 0.22001
#
# Static dielectric constant tensor:
#      x y z
#    x 3.036570 0.000000 0.000000 
#    y 0.000000 3.036570 0.000000 
#    z 0.000000 0.000000 3.319310 
# 
# 
# High freq. dielectric constant tensor:
#      x y z
#    x 1.636230 0.000000 0.000000 
#    y 0.000000 1.636230 0.000000 
#    z 0.000000 0.000000 1.655670 
# 
# From -- ./inp_files/7297.got.cif
#   From: 2010.03.12/outbox.cif.g09.slc.cpg/sg129_4_cif.got.tgz:7297.got - 2010.04.06 17:19:44.
