data_PCOD8315585
_publ_section_title
;
Structure prediction by ZEFSAII (Michael W. Deem and Ramdas Pophale) SiO2 
 PCOD8315585
Probable space group: P 4/N C C
;
_chemical_formula_sum "Si O2"
_cell_formula_units_Z 96
_cell_length_a 19.974786
_cell_length_b 19.974786
_cell_length_c 12.548278
_cell_angle_alpha 90.000000
_cell_angle_beta 90.000000
_cell_angle_gamma 90.000000
_cell_volume 5006.663486
_symmetry_space_group_name_H-M "P 4/N C C"
_symmetry_group_IT_number 130
_symmetry_cell_setting 'tetragonal'
loop_
_space_group_symop_operation_xyz
x,y,z
1/2-y,x,z
1/2-x,1/2-y,z
y,1/2-x,z
1/2+x,-y,1/2-z
-x,1/2+y,1/2-z
1/2+y,1/2+x,1/2-z
-y,-x,1/2-z
-x,-y,-z
1/2+y,-x,-z
1/2+x,1/2+y,-z
-y,1/2+x,-z
1/2-x,y,1/2+z
x,1/2-y,1/2+z
1/2-y,1/2-x,1/2+z
y,x,1/2+z
loop_
_atom_site_type_symbol
_atom_site_label
_atom_site_fract_x
_atom_site_fract_y
_atom_site_fract_z
Si Si1 0.561448 0.079069 0.627539
Si Si2 0.995043 0.838333 0.496807
Si Si3 0.300753 0.345432 0.671455
Si Si4 0.882260 0.614529 0.142632
Si Si5 0.484955 0.068366 0.189804
Si Si6 0.971163 0.686750 0.475501
O O1 0.586887 0.086887 0.750000
O O2 0.625854 0.054354 0.561327
O O3 0.498870 0.027415 0.619466
O O4 0.534664 0.145627 0.568816
O O5 0.924081 0.855268 0.547073
O O6 0.992655 0.864552 0.376226
O O7 0.003607 0.759420 0.488836
O O8 0.222800 0.339150 0.640692
O O9 0.320686 0.350784 0.797067
O O10 0.324553 0.410568 0.607846
O O11 0.927580 0.577151 0.229393
O O12 0.832219 0.559127 0.091909
O O13 0.555446 0.055446 0.250000
#
# Coordination Sequence:
#
# PCOD8315585 Si02
#       6
#    16  16  16  16  16  16
#     4  11  21  41  64  89 123 159 201 258 320 362
#     4  12  23  38  61  89 122 160 203 261 310 361
#     4  11  23  38  52  77 124 174 210 245 292 362
#     4  12  20  36  57  87 119 163 203 247 301 355
#     4  11  20  36  60  84 118 155 197 252 307 359
#     4  12  24  38  61  91 123 160 215 258 304 374
#
# _framework density 19.174446
#
# number of rings (size 3 to 8) (size 9 to 14) (size 15 to 20)
#    0.000    0.500    6.667    4.500    0.000    1.333 
#    0.000    1.667    0.000    0.500    0.000    1.167 
#    0.000    0.000    0.000    0.000    0.000    0.000 
#
# Total GULP energy -1189611.609517 kJ/mol
# GULP energy per Si atom -12391.787599 kJ/mol
# Density = 1.913080 g / cm^3
# Si number density = 19.174446 Si / 1000 Ang^3
#
#
#
# Elastic Constant Matrix: (Units=GPa)
#
#
# Indices 1 2 3 4 5 6 
#
# 1 97.0118 47.9828 35.3031 0.0000 0.0000 0.0000
# 2 47.9828 97.0118 35.3031 0.0000 0.0000 0.0000
# 3 35.3031 35.3031 81.5806 0.0000 0.0000 0.0000
# 4 0.0000 0.0000 0.0000 29.7949 0.0000 0.0000
# 5 0.0000 0.0000 0.0000 0.0000 29.7949 0.0000
# 6 0.0000 0.0000 0.0000 0.0000 0.0000 24.2663
#
#
#
# Elastic Compliance Matrix: (Units=1/GPa)
#
#
# Indices 1 2 3 4 5 6 
#
# 1 0.014567 -0.005829 -0.003781 0.000000 0.000000 0.000000
# 2 -0.005829 0.014567 -0.003781 0.000000 0.000000 0.000000
# 3 -0.003781 -0.003781 0.015530 0.000000 0.000000 0.000000
# 4 0.000000 0.000000 0.000000 0.033563 0.000000 0.000000
# 5 0.000000 0.000000 0.000000 0.000000 0.033563 0.000000
# 6 0.000000 0.000000 0.000000 0.000000 0.000000 0.041209
#
#
# Mechanical properties :
#
#
# Convention : Reuss Voigt Hill
#
# Bulk Modulus (GPa) = 55.92389 56.97578 56.44984
# Shear Modulus (GPa) = 26.91885 27.23892 27.07889
#
# Velocity S-wave (km/s) = 3.75092 3.77315 3.76205
# Velocity P-wave (km/s) = 6.92736 6.98292 6.95520
#
# Compressibility (1/GPa) = 0.01788144
#
# Stress axis : x y z
#
# Youngs Moduli (GPa) = 68.64777 68.64777 64.38952
#
# Poissons Ratio (x) = 0.40014 0.24348
# Poissons Ratio (y) = 0.40014 0.24348
# Poissons Ratio (z) = 0.25958 0.25958
#
# Static dielectric constant tensor:
#      x y z
#    x 3.459610 0.000000 0.000000 
#    y 0.000000 3.459610 0.000000 
#    z 0.000000 0.000000 3.793270 
# 
# 
# High freq. dielectric constant tensor:
#      x y z
#    x 1.727040 0.000000 0.000000 
#    y 0.000000 1.727040 0.000000 
#    z 0.000000 0.000000 1.760960 
# 
# From -- ./inp_files/1775.got.cif
#   From: 2010.03.12/outbox.cif.g09.slc.cpg/sg130_1_cif.got.tgz:1775.got - 2010.04.06 17:30:23.
