data_PCOD8315806
_publ_section_title
;
Structure prediction by ZEFSAII (Michael W. Deem and Ramdas Pophale) SiO2 
 PCOD8315806
Probable space group: P 42/M M C
;
_chemical_formula_sum "Si O2"
_cell_formula_units_Z 112
_cell_length_a 21.928854
_cell_length_b 21.928854
_cell_length_c 18.440046
_cell_angle_alpha 90.000000
_cell_angle_beta 90.000000
_cell_angle_gamma 90.000000
_cell_volume 8867.350440
_symmetry_space_group_name_H-M "P 42/M M C"
_symmetry_group_IT_number 131
_symmetry_cell_setting 'tetragonal'
loop_
_space_group_symop_operation_xyz
x,y,z
-x,-y,z
-y,x,1/2+z
y,-x,1/2+z
-x,y,-z
x,-y,-z
y,x,1/2-z
-y,-x,1/2-z
-x,-y,-z
x,y,-z
y,-x,1/2-z
-y,x,1/2-z
x,-y,z
-x,y,z
-y,-x,1/2+z
y,x,1/2+z
loop_
_atom_site_type_symbol
_atom_site_label
_atom_site_fract_x
_atom_site_fract_y
_atom_site_fract_z
Si Si1 0.618126 0.927680 0.166567
Si Si2 0.615482 0.928105 0.670269
Si Si3 0.850711 0.145653 0.415666
Si Si4 0.071656 0.066179 0.172563
Si Si5 0.740917 0.929138 0.085940
Si Si6 0.927131 0.500000 0.917657
Si Si7 0.070247 0.263526 0.085573
Si Si8 0.500000 0.072764 0.082148
O O1 0.617392 0.900753 0.248291
O O2 0.679476 0.907610 0.125506
O O3 0.559829 0.901799 0.123123
O O4 0.614432 0.000000 0.168855
O O5 0.558731 0.901271 0.625051
O O6 0.676277 0.910355 0.627840
O O7 0.607903 0.000000 0.675469
O O8 0.848931 0.153938 0.500000
O O9 0.893848 0.089615 0.395683
O O10 0.881613 0.207472 0.383778
O O11 0.784551 0.122453 0.388546
O O12 0.094351 0.094351 0.250000
O O13 0.000000 0.060573 0.177054
O O14 0.101350 0.000000 0.160393
O O15 0.757285 0.000000 0.104896
O O16 0.731650 0.922591 0.000000
O O17 0.000000 0.500000 0.919331
O O18 0.901898 0.500000 0.000000
O O19 0.000000 0.243757 0.105166
O O20 0.074271 0.275642 0.000000
O O21 0.500000 0.000000 0.081967
O O22 0.500000 0.097741 0.000000
#
# Coordination Sequence:
#
# PCOD8315806 Si02
#       8
#    16  16  16  16  16   8  16   8
#     4   9  16  25  37  53  71  89 109 132 159 196
#     4   9  16  25  37  53  71  89 109 132 159 196
#     4  10  19  29  41  54  66  84 112 144 176 211
#     4   9  18  30  40  50  64  80 100 132 176 222
#     4   9  17  28  39  51  68  88 111 141 177 214
#     4   9  15  23  37  55  73  91 107 125 155 194
#     4   9  17  28  39  51  68  88 111 141 177 214
#     4   9  15  23  37  55  73  91 107 125 155 194
#
# _framework density 12.630604
#
# number of rings (size 3 to 8) (size 9 to 14) (size 15 to 20)
#    0.000    2.857    0.000    2.571    0.000    8.000 
#    0.000    3.571    0.000    0.000    0.000    0.000 
#    0.000    0.000    0.000    0.000    0.000    0.000 
#
# Total GULP energy -1387534.059309 kJ/mol
# GULP energy per Si atom -12388.696958 kJ/mol
# Density = 1.260186 g / cm^3
# Si number density = 12.630604 Si / 1000 Ang^3
#
#
#
# Elastic Constant Matrix: (Units=GPa)
#
#
# Indices 1 2 3 4 5 6 
#
# 1 63.0427 42.4300 37.1573 0.0000 0.0000 0.0000
# 2 42.4300 63.0427 37.1573 0.0000 0.0000 0.0000
# 3 37.1573 37.1573 47.0160 0.0000 0.0000 0.0000
# 4 0.0000 0.0000 0.0000 13.9390 0.0000 0.0000
# 5 0.0000 0.0000 0.0000 0.0000 13.9390 0.0000
# 6 0.0000 0.0000 0.0000 0.0000 0.0000 5.5882
#
#
#
# Elastic Compliance Matrix: (Units=1/GPa)
#
#
# Indices 1 2 3 4 5 6 
#
# 1 0.034954 -0.013560 -0.016908 0.000000 0.000000 0.000000
# 2 -0.013560 0.034954 -0.016908 0.000000 0.000000 0.000000
# 3 -0.016908 -0.016908 0.047995 0.000000 0.000000 0.000000
# 4 0.000000 0.000000 0.000000 0.071741 0.000000 0.000000
# 5 0.000000 0.000000 0.000000 0.000000 0.071741 0.000000
# 6 0.000000 0.000000 0.000000 0.000000 0.000000 0.178948
#
#
# Mechanical properties :
#
#
# Convention : Reuss Voigt Hill
#
# Bulk Modulus (GPa) = 43.19516 45.17675 44.18596
# Shear Modulus (GPa) = 9.21143 10.45035 9.83089
#
# Velocity S-wave (km/s) = 2.70348 2.87955 2.79290
# Velocity P-wave (km/s) = 6.63461 6.84843 6.74237
#
# Compressibility (1/GPa) = 0.02315074
#
# Stress axis : x y z
#
# Youngs Moduli (GPa) = 28.60883 28.60883 20.83541
#
# Poissons Ratio (x) = 0.38793 0.35229
# Poissons Ratio (y) = 0.38793 0.35229
# Poissons Ratio (z) = 0.48373 0.48373
#
# Static dielectric constant tensor:
#      x y z
#    x 2.455740 0.000000 0.000000 
#    y 0.000000 2.455740 0.000000 
#    z 0.000000 0.000000 2.741860 
# 
# 
# High freq. dielectric constant tensor:
#      x y z
#    x 1.443710 0.000000 0.000000 
#    y 0.000000 1.443710 0.000000 
#    z 0.000000 0.000000 1.493740 
# 
# From -- ./inp_files/8414.got.cif
#   From: 2010.03.12/outbox.cif.g09.slc.cpg/sg131_5_cif.got.tgz:8414.got - 2010.04.06 17:36:35.
