data_PCOD8315370
_publ_section_title
;
Structure prediction by ZEFSAII (Michael W. Deem and Ramdas Pophale) SiO2 
 PCOD8315370
Probable space group: P 4/N M M
;
_chemical_formula_sum "Si O2"
_cell_formula_units_Z 96
_cell_length_a 20.335055
_cell_length_b 20.335055
_cell_length_c 12.293712
_cell_angle_alpha 90.000000
_cell_angle_beta 90.000000
_cell_angle_gamma 90.000000
_cell_volume 5083.627702
_symmetry_space_group_name_H-M "P 4/N M M"
_symmetry_group_IT_number 129
_symmetry_cell_setting 'tetragonal'
loop_
_space_group_symop_operation_xyz
x,y,z
1/2-y,x,z
1/2-x,1/2-y,z
y,1/2-x,z
1/2+x,-y,-z
-x,1/2+y,-z
1/2+y,1/2+x,-z
-y,-x,-z
-x,-y,-z
1/2+y,-x,-z
1/2+x,1/2+y,-z
-y,1/2+x,-z
1/2-x,y,z
x,1/2-y,z
1/2-y,1/2-x,z
y,x,z
loop_
_atom_site_type_symbol
_atom_site_label
_atom_site_fract_x
_atom_site_fract_y
_atom_site_fract_z
Si Si1 0.503068 0.101757 0.555471
Si Si2 0.823232 0.451821 0.238056
Si Si3 0.508820 0.672971 0.853051
Si Si4 0.932584 0.673070 0.627842
Si Si5 0.361166 0.826059 0.880452
Si Si6 0.068479 0.173393 0.922149
O O1 0.554299 0.054299 0.500000
O O2 0.538791 0.130164 0.659961
O O3 0.482588 0.158692 0.470760
O O4 0.438395 0.061606 0.591791
O O5 0.750000 0.469223 0.276115
O O6 0.823234 0.376047 0.198776
O O7 0.844073 0.501760 0.142124
O O8 0.503720 0.750000 0.840679
O O9 0.535904 0.644498 0.739485
O O10 0.435891 0.647477 0.879396
O O11 0.556825 0.654594 0.951979
O O12 0.917330 0.750000 0.634155
O O13 0.863745 0.636256 0.608284
O O14 0.353903 0.750000 0.840436
O O15 0.330811 0.830811 0.000000
O O16 0.087513 0.250000 0.908258
O O17 0.129220 0.129220 0.878953
#
# Coordination Sequence:
#
# PCOD8315370 Si02
#       6
#    16  16  16  16  16  16
#     4  10  21  38  59  81 108 142 187 236 283 338
#     4  11  22  37  57  82 113 147 182 225 281 339
#     4   9  18  34  54  79 114 149 184 230 282 335
#     4  10  20  35  57  83 113 152 193 237 288 339
#     4  11  21  36  57  83 114 147 186 229 280 341
#     4  10  20  35  55  81 114 150 187 229 278 333
#
# _framework density 18.884150999999999
#
# number of rings (size 3 to 8) (size 9 to 14) (size 15 to 20)
#    0.000    1.833    1.667    3.000    0.000    1.500 
#    0.000    4.167    0.000    3.000    0.000    2.333 
#    0.000    0.000    0.000    0.000    0.000    0.000 
#
# Total GULP energy -1190278.100380 kJ/mol
# GULP energy per Si atom -12398.730212 kJ/mol
# Density = 1.884117 g / cm^3
# Si number density = 18.884151 Si / 1000 Ang^3
#
#
#
# Elastic Constant Matrix: (Units=GPa)
#
#
# Indices 1 2 3 4 5 6 
#
# 1 87.6460 40.3549 35.7733 0.0000 0.0000 0.0000
# 2 40.3549 87.6460 35.7733 0.0000 0.0000 0.0000
# 3 35.7733 35.7733 110.5897 0.0000 0.0000 0.0000
# 4 0.0000 0.0000 0.0000 21.7785 0.0000 0.0000
# 5 0.0000 0.0000 0.0000 0.0000 21.7785 0.0000
# 6 0.0000 0.0000 0.0000 0.0000 0.0000 26.2076
#
#
#
# Elastic Compliance Matrix: (Units=1/GPa)
#
#
# Indices 1 2 3 4 5 6 
#
# 1 0.015341 -0.005804 -0.003085 0.000000 0.000000 0.000000
# 2 -0.005804 0.015341 -0.003085 0.000000 0.000000 0.000000
# 3 -0.003085 -0.003085 0.011038 0.000000 0.000000 0.000000
# 4 0.000000 0.000000 0.000000 0.045917 0.000000 0.000000
# 5 0.000000 0.000000 0.000000 0.000000 0.045917 0.000000
# 6 0.000000 0.000000 0.000000 0.000000 0.000000 0.038157
#
#
# Mechanical properties :
#
#
# Convention : Reuss Voigt Hill
#
# Bulk Modulus (GPa) = 56.26806 56.63163 56.44984
# Shear Modulus (GPa) = 24.80357 25.55159 25.17758
#
# Velocity S-wave (km/s) = 3.62810 3.68240 3.65535
# Velocity P-wave (km/s) = 6.88563 6.93788 6.91181
#
# Compressibility (1/GPa) = 0.01777207
#
# Stress axis : x y z
#
# Youngs Moduli (GPa) = 65.18386 65.18386 90.59406
#
# Poissons Ratio (x) = 0.37836 0.27948
# Poissons Ratio (y) = 0.37836 0.27948
# Poissons Ratio (z) = 0.20109 0.20109
#
# Static dielectric constant tensor:
#      x y z
#    x 3.435970 0.000000 0.000000 
#    y 0.000000 3.435970 0.000000 
#    z 0.000000 0.000000 3.507940 
# 
# 
# High freq. dielectric constant tensor:
#      x y z
#    x 1.731790 0.000000 0.000000 
#    y 0.000000 1.731790 0.000000 
#    z 0.000000 0.000000 1.730680 
# 
# From -- ./inp_files/3813.got.cif
#   From: 2010.03.12/outbox.cif.g09.slc.cpg/sg129_2_cif.got.tgz:3813.got - 2010.04.06 17:19:44.
