data_PCOD8315687
_publ_section_title
;
Structure prediction by ZEFSAII (Michael W. Deem and Ramdas Pophale) SiO2 
 PCOD8315687
Probable space group: P 42/M M C
;
_chemical_formula_sum "Si O2"
_cell_formula_units_Z 96
_cell_length_a 17.577107
_cell_length_b 17.577107
_cell_length_c 17.677925
_cell_angle_alpha 90.000000
_cell_angle_beta 90.000000
_cell_angle_gamma 90.000000
_cell_volume 5461.677847
_symmetry_space_group_name_H-M "P 42/M M C"
_symmetry_group_IT_number 131
_symmetry_cell_setting 'tetragonal'
loop_
_space_group_symop_operation_xyz
x,y,z
-x,-y,z
-y,x,1/2+z
y,-x,1/2+z
-x,y,-z
x,-y,-z
y,x,1/2-z
-y,-x,1/2-z
-x,-y,-z
x,y,-z
y,-x,1/2-z
-y,x,1/2-z
x,-y,z
-x,y,z
-y,-x,1/2+z
y,x,1/2+z
loop_
_atom_site_type_symbol
_atom_site_label
_atom_site_fract_x
_atom_site_fract_y
_atom_site_fract_z
Si Si1 0.414665 0.192663 0.649211
Si Si2 0.204377 0.087705 0.264913
Si Si3 0.413283 0.631250 0.333645
Si Si4 0.271650 0.585070 0.586448
Si Si5 0.797596 0.681858 0.286679
Si Si6 0.707489 0.913571 0.415388
O O1 0.500000 0.162538 0.638155
O O2 0.410031 0.282733 0.635698
O O3 0.388791 0.176866 0.734958
O O4 0.361633 0.145893 0.591797
O O5 0.119941 0.119941 0.250000
O O6 0.261346 0.130859 0.207245
O O7 0.228425 0.103873 0.352245
O O8 0.205075 0.000000 0.243735
O O9 0.377812 0.622189 0.250000
O O10 0.500000 0.600788 0.334690
O O11 0.360463 0.582962 0.389682
O O12 0.264381 0.609279 0.500000
O O13 0.239037 0.500000 0.599986
O O14 0.224588 0.648580 0.632084
O O15 0.726226 0.726226 0.250000
O O16 0.742202 0.904092 0.500000
O O17 0.677273 0.000000 0.403779
#
# Coordination Sequence:
#
# PCOD8315687 Si02
#       6
#    16  16  16  16  16  16
#     4  10  18  29  49  72  97 133 173 212 253 305
#     4   9  19  35  58  86 111 137 170 205 245 297
#     4  11  21  34  51  71  97 134 179 225 273 324
#     4  11  22  34  50  72  99 134 177 227 278 317
#     4  10  17  34  54  73  97 133 174 215 252 305
#     4   9  19  35  53  76 108 140 168 203 251 307
#
# _framework density 17.577016
#
# number of rings (size 3 to 8) (size 9 to 14) (size 15 to 20)
#    0.000    2.000    3.333    1.000    0.000    3.000 
#    0.000    3.333    0.000    3.500    0.000    3.500 
#    0.000    0.000    0.000    0.000    0.000    0.000 
#
# Total GULP energy -1189939.909292 kJ/mol
# GULP energy per Si atom -12395.207388 kJ/mol
# Density = 1.753701 g / cm^3
# Si number density = 17.577016 Si / 1000 Ang^3
#
#
#
# Elastic Constant Matrix: (Units=GPa)
#
#
# Indices 1 2 3 4 5 6 
#
# 1 89.9684 49.9692 50.9286 0.0000 0.0000 0.0000
# 2 49.9692 89.9679 50.9284 0.0000 0.0000 0.0000
# 3 50.9286 50.9284 110.8685 0.0000 0.0000 0.0000
# 4 0.0000 0.0000 0.0000 17.7503 0.0000 0.0000
# 5 0.0000 0.0000 0.0000 0.0000 17.7504 0.0000
# 6 0.0000 0.0000 0.0000 0.0000 0.0000 21.2371
#
#
#
# Elastic Compliance Matrix: (Units=1/GPa)
#
#
# Indices 1 2 3 4 5 6 
#
# 1 0.017868 -0.007133 -0.004931 0.000000 0.000000 0.000000
# 2 -0.007133 0.017868 -0.004931 0.000000 0.000000 0.000000
# 3 -0.004931 -0.004931 0.013550 0.000000 0.000000 0.000000
# 4 0.000000 0.000000 0.000000 0.056337 0.000000 0.000000
# 5 0.000000 0.000000 0.000000 0.000000 0.056337 0.000000
# 6 0.000000 0.000000 0.000000 0.000000 0.000000 0.047087
#
#
# Mechanical properties :
#
#
# Convention : Reuss Voigt Hill
#
# Bulk Modulus (GPa) = 65.37855 66.05079 65.71467
# Shear Modulus (GPa) = 20.15013 20.61280 20.38146
#
# Velocity S-wave (km/s) = 3.38951 3.42821 3.40891
# Velocity P-wave (km/s) = 7.25221 7.30271 7.27751
#
# Compressibility (1/GPa) = 0.01529554
#
# Stress axis : x y z
#
# Youngs Moduli (GPa) = 55.96574 55.96542 73.79890
#
# Poissons Ratio (x) = 0.39918 0.36394
# Poissons Ratio (y) = 0.39918 0.36394
# Poissons Ratio (z) = 0.27599 0.27599
#
# Static dielectric constant tensor:
#      x y z
#    x 3.281090 0.000000 0.000000 
#    y 0.000000 3.281090 0.000000 
#    z 0.000000 0.000000 3.146110 
# 
# 
# High freq. dielectric constant tensor:
#      x y z
#    x 1.671310 0.000000 0.000000 
#    y 0.000000 1.671310 0.000000 
#    z 0.000000 0.000000 1.664090 
# 
# From -- ./inp_files/7940.got.cif
#   From: 2010.03.12/outbox.cif.g09.slc.cpg/sg131_4_cif.got.tgz:7940.got - 2010.04.06 17:36:35.
