data_PCOD8315685
_publ_section_title
;
Structure prediction by ZEFSAII (Michael W. Deem and Ramdas Pophale) SiO2 
 PCOD8315685
Probable space group: P 42/M M C
;
_chemical_formula_sum "Si O2"
_cell_formula_units_Z 96
_cell_length_a 17.632296
_cell_length_b 17.632296
_cell_length_c 16.548825
_cell_angle_alpha 90.000000
_cell_angle_beta 90.000000
_cell_angle_gamma 90.000000
_cell_volume 5144.994315
_symmetry_space_group_name_H-M "P 42/M M C"
_symmetry_group_IT_number 131
_symmetry_cell_setting 'tetragonal'
loop_
_space_group_symop_operation_xyz
x,y,z
-x,-y,z
-y,x,1/2+z
y,-x,1/2+z
-x,y,-z
x,-y,-z
y,x,1/2-z
-y,-x,1/2-z
-x,-y,-z
x,y,-z
y,-x,1/2-z
-y,x,1/2-z
x,-y,z
-x,y,z
-y,-x,1/2+z
y,x,1/2+z
loop_
_atom_site_type_symbol
_atom_site_label
_atom_site_fract_x
_atom_site_fract_y
_atom_site_fract_z
Si Si1 0.348923 0.331603 0.592151
Si Si2 0.083432 0.000000 0.404854
Si Si3 0.416105 0.828238 0.411488
Si Si4 0.667139 0.086299 0.289454
Si Si5 0.792388 0.284191 0.674136
Si Si6 0.196446 0.129948 0.594575
Si Si7 0.500000 0.587642 0.595801
O O1 0.340329 0.358524 0.500000
O O2 0.358237 0.241069 0.600096
O O3 0.268176 0.345112 0.636844
O O4 0.422058 0.374820 0.630956
O O5 0.125757 0.922553 0.378554
O O6 0.075110 0.000000 0.500000
O O7 0.000000 0.000000 0.364113
O O8 0.402651 0.865556 0.500000
O O9 0.500000 0.793048 0.406980
O O10 0.406961 0.889562 0.340600
O O11 0.671567 0.133656 0.206113
O O12 0.734718 0.100123 0.352078
O O13 0.661166 0.000000 0.262347
O O14 0.754493 0.245508 0.750000
O O15 0.819814 0.218919 0.611586
O O16 0.215563 0.119154 0.500000
O O17 0.500000 0.500000 0.620987
O O18 0.500000 0.600220 0.500000
#
# Coordination Sequence:
#
# PCOD8315685 Si02
#       7
#    16   8  16  16  16  16   8
#     4  10  17  31  57  82 109 145 183 220 267 330
#     4   9  18  30  46  70  97 127 164 218 285 338
#     4  10  19  32  54  84 108 136 177 224 274 326
#     4  11  22  35  51  73 107 145 185 228 279 328
#     4  10  20  32  50  73 103 142 184 224 267 323
#     4  10  18  31  52  74  97 131 178 229 277 329
#     4   9  18  32  56  90 121 145 172 218 272 327
#
# _framework density 18.658912999999998
#
# number of rings (size 3 to 8) (size 9 to 14) (size 15 to 20)
#    0.000    2.000    5.000    1.000    0.000    2.000 
#    0.000    1.667    1.833    1.500    0.000    0.000 
#    0.000    0.000    0.000   10.167    0.000    0.000 
#
# Total GULP energy -1189745.435087 kJ/mol
# GULP energy per Si atom -12393.181615 kJ/mol
# Density = 1.861644 g / cm^3
# Si number density = 18.658913 Si / 1000 Ang^3
#
#
#
# Elastic Constant Matrix: (Units=GPa)
#
#
# Indices 1 2 3 4 5 6 
#
# 1 102.9533 38.6833 38.4495 0.0000 0.0000 0.0000
# 2 38.6833 102.9534 38.4495 0.0000 0.0000 0.0000
# 3 38.4495 38.4495 54.9465 0.0000 0.0000 0.0000
# 4 0.0000 0.0000 0.0000 22.3707 0.0000 0.0000
# 5 0.0000 0.0000 0.0000 0.0000 22.3704 0.0000
# 6 0.0000 0.0000 0.0000 0.0000 0.0000 24.7712
#
#
#
# Elastic Compliance Matrix: (Units=1/GPa)
#
#
# Indices 1 2 3 4 5 6 
#
# 1 0.013473 -0.002087 -0.007968 0.000000 0.000000 0.000000
# 2 -0.002087 0.013473 -0.007968 0.000000 0.000000 0.000000
# 3 -0.007968 -0.007968 0.029350 0.000000 0.000000 0.000000
# 4 0.000000 0.000000 0.000000 0.044701 0.000000 0.000000
# 5 0.000000 0.000000 0.000000 0.000000 0.044702 0.000000
# 6 0.000000 0.000000 0.000000 0.000000 0.000000 0.040369
#
#
# Mechanical properties :
#
#
# Convention : Reuss Voigt Hill
#
# Bulk Modulus (GPa) = 49.37715 54.66863 52.02289
# Shear Modulus (GPa) = 21.84714 23.58720 22.71717
#
# Velocity S-wave (km/s) = 3.42551 3.55931 3.49305
# Velocity P-wave (km/s) = 6.49353 6.80104 6.64906
#
# Compressibility (1/GPa) = 0.02025228
#
# Stress axis : x y z
#
# Youngs Moduli (GPa) = 74.22377 74.22386 34.07114
#
# Poissons Ratio (x) = 0.15487 0.27147
# Poissons Ratio (y) = 0.15487 0.27147
# Poissons Ratio (z) = 0.59139 0.59139
#
# Static dielectric constant tensor:
#      x y z
#    x 3.601310 0.000000 0.000000 
#    y 0.000000 3.601300 0.000000 
#    z 0.000000 0.000000 3.391220 
# 
# 
# High freq. dielectric constant tensor:
#      x y z
#    x 1.710880 0.000000 0.000000 
#    y 0.000000 1.710880 0.000000 
#    z 0.000000 0.000000 1.700180 
# 
# From -- ./inp_files/8014.got.cif
#   From: 2010.03.12/outbox.cif.g09.slc.cpg/sg131_5_cif.got.tgz:8014.got - 2010.04.06 17:36:35.
