data_PCOD8315988
_publ_section_title
;
Structure prediction by ZEFSAII (Michael W. Deem and Ramdas Pophale) SiO2 
 PCOD8315988
Probable space group: P 42/M M C
;
_chemical_formula_sum "Si O2"
_cell_formula_units_Z 88
_cell_length_a 17.375143
_cell_length_b 17.375143
_cell_length_c 15.186652
_cell_angle_alpha 90.000000
_cell_angle_beta 90.000000
_cell_angle_gamma 90.000000
_cell_volume 4584.783331
_symmetry_space_group_name_H-M "P 42/M M C"
_symmetry_group_IT_number 131
_symmetry_cell_setting 'tetragonal'
loop_
_space_group_symop_operation_xyz
x,y,z
-x,-y,z
-y,x,1/2+z
y,-x,1/2+z
-x,y,-z
x,-y,-z
y,x,1/2-z
-y,-x,1/2-z
-x,-y,-z
x,y,-z
y,-x,1/2-z
-y,x,1/2-z
x,-y,z
-x,y,z
-y,-x,1/2+z
y,x,1/2+z
loop_
_atom_site_type_symbol
_atom_site_label
_atom_site_fract_x
_atom_site_fract_y
_atom_site_fract_z
Si Si1 0.589865 0.000000 0.397487
Si Si2 0.590324 0.715816 0.258578
Si Si3 0.323114 0.854008 0.664023
Si Si4 0.823687 0.585252 0.597555
Si Si5 0.277761 0.912239 0.158946
Si Si6 0.088057 0.166242 0.500000
Si Si7 0.763959 0.090045 0.500000
O O1 0.617160 0.075561 0.345280
O O2 0.500000 0.000000 0.394875
O O3 0.618458 0.000000 0.500000
O O4 0.634094 0.634094 0.250000
O O5 0.500000 0.702461 0.282711
O O6 0.629923 0.773092 0.331095
O O7 0.600277 0.753715 0.163282
O O8 0.270788 0.862080 0.751996
O O9 0.266260 0.860144 0.581947
O O10 0.789982 0.598239 0.500000
O O11 0.857113 0.500000 0.610068
O O12 0.895955 0.640034 0.614781
O O13 0.271822 0.000000 0.187290
O O14 0.213222 0.891442 0.087988
O O15 0.143266 0.092172 0.500000
O O16 0.000000 0.138725 0.500000
O O17 0.739399 0.000000 0.500000
#
# Coordination Sequence:
#
# PCOD8315988 Si02
#       7
#     8  16  16  16  16   8   8
#     4  11  20  36  58  85 129 167 192 242 314 375
#     4  10  23  40  60  87 118 155 203 246 298 355
#     4  11  21  38  59  92 118 156 199 249 301 370
#     4   9  18  32  52  79 112 149 187 231 283 350
#     4  10  19  34  54  80 118 152 191 238 294 351
#     4  10  24  39  57  86 120 156 200 256 298 342
#     4  12  24  41  64  89 117 160 208 244 306 373
#
# _framework density 19.193929000000001
#
# number of rings (size 3 to 8) (size 9 to 14) (size 15 to 20)
#    0.000    1.727    3.636    0.545    5.091    1.455 
#    0.000    0.909    0.000    0.000    0.000    5.091 
#    0.000    0.000    0.000    0.000    0.000    0.000 
#
# Total GULP energy -1090574.239368 kJ/mol
# GULP energy per Si atom -12392.889084 kJ/mol
# Density = 1.915024 g / cm^3
# Si number density = 19.193929 Si / 1000 Ang^3
#
#
#
# Elastic Constant Matrix: (Units=GPa)
#
#
# Indices 1 2 3 4 5 6 
#
# 1 83.8421 63.5580 26.1732 0.0000 0.0000 0.0000
# 2 63.5580 83.8421 26.1732 0.0000 0.0000 0.0000
# 3 26.1732 26.1732 108.9946 0.0000 0.0000 0.0000
# 4 0.0000 0.0000 0.0000 -1.0808 0.0000 0.0000
# 5 0.0000 0.0000 0.0000 0.0000 -1.0808 0.0000
# 6 0.0000 0.0000 0.0000 0.0000 0.0000 33.9839
#
#
#
# Elastic Compliance Matrix: (Units=1/GPa)
#
#
# Indices 1 2 3 4 5 6 
#
# 1 0.028358 -0.020941 -0.001781 0.000000 0.000000 0.000000
# 2 -0.020941 0.028358 -0.001781 0.000000 0.000000 0.000000
# 3 -0.001781 -0.001781 0.010030 0.000000 0.000000 0.000000
# 4 0.000000 0.000000 0.000000 -0.925224 0.000000 0.000000
# 5 0.000000 0.000000 0.000000 0.000000 -0.925224 0.000000
# 6 0.000000 0.000000 0.000000 0.000000 0.000000 0.029426
#
#
# Mechanical properties :
#
#
# Convention : Reuss Voigt Hill
#
# Bulk Modulus (GPa) = 56.37109 56.49864 56.43486
# Shear Modulus (GPa) = -2.94229 17.08274 7.07023
#
# Velocity S-wave (km/s) = -1.23946 2.98654 1.92135
# Velocity P-wave (km/s) = 5.23303 6.43367 5.86416
#
# Compressibility (1/GPa) = 0.01773959
#
# Stress axis : x y z
#
# Youngs Moduli (GPa) = 35.26318 35.26318 99.69967
#
# Poissons Ratio (x) = 0.73846 0.17757
# Poissons Ratio (y) = 0.73846 0.17757
# Poissons Ratio (z) = 0.06280 0.06280
#
# Static dielectric constant tensor:
#      x y z
#    x 3.379120 0.000000 0.000000 
#    y 0.000000 3.379120 0.000000 
#    z 0.000000 0.000000 3.792560 
# 
# 
# High freq. dielectric constant tensor:
#      x y z
#    x 1.735220 0.000000 0.000000 
#    y 0.000000 1.735220 0.000000 
#    z 0.000000 0.000000 1.755480 
# 
# From -- ./inp_files/5950.got.cif
#   From: 2010.03.12/outbox.cif.g09.slc.cpg/sg131_3_cif.got.tgz:5950.got - 2010.04.06 17:36:35.
