data_PCOD8315551
_publ_section_title
;
Structure prediction by ZEFSAII (Michael W. Deem and Ramdas Pophale) SiO2 
 PCOD8315551
Probable space group: P 4/N C C
;
_chemical_formula_sum "Si O2"
_cell_formula_units_Z 88
_cell_length_a 17.451899
_cell_length_b 17.451899
_cell_length_c 13.371871
_cell_angle_alpha 90.000000
_cell_angle_beta 90.000000
_cell_angle_gamma 90.000000
_cell_volume 4072.654419
_symmetry_space_group_name_H-M "P 4/N C C"
_symmetry_group_IT_number 130
_symmetry_cell_setting 'tetragonal'
loop_
_space_group_symop_operation_xyz
x,y,z
1/2-y,x,z
1/2-x,1/2-y,z
y,1/2-x,z
1/2+x,-y,1/2-z
-x,1/2+y,1/2-z
1/2+y,1/2+x,1/2-z
-y,-x,1/2-z
-x,-y,-z
1/2+y,-x,-z
1/2+x,1/2+y,-z
-y,1/2+x,-z
1/2-x,y,1/2+z
x,1/2-y,1/2+z
1/2-y,1/2-x,1/2+z
y,x,1/2+z
loop_
_atom_site_type_symbol
_atom_site_label
_atom_site_fract_x
_atom_site_fract_y
_atom_site_fract_z
Si Si1 0.602183 0.397817 0.250000
Si Si2 0.125112 0.264088 0.291871
Si Si3 0.277885 0.504052 0.456666
Si Si4 0.432288 0.008076 0.077385
Si Si5 0.895200 0.220493 0.776363
Si Si6 0.672338 0.978797 0.364155
O O1 0.563196 0.436405 0.153698
O O2 0.692706 0.411335 0.256230
O O3 0.165946 0.183336 0.301273
O O4 0.065626 0.270393 0.381023
O O5 0.083017 0.269466 0.184699
O O6 0.351948 0.493282 0.522724
O O7 0.285336 0.583712 0.394289
O O8 0.202958 0.504943 0.527339
O O9 0.441162 0.088731 0.133168
O O10 0.500000 0.000000 0.000000
O O11 0.808702 0.191298 0.750000
O O12 0.948413 0.165828 0.708824
#
# Coordination Sequence:
#
# PCOD8315551 Si02
#       6
#     8  16  16  16  16  16
#     4  12  27  48  72 104 142 181 238 296 360 416
#     4  10  22  37  62  97 138 186 228 276 342 420
#     4  11  23  43  68 100 138 181 231 290 351 422
#     4  12  26  42  71 102 135 184 233 293 358 432
#     4  11  25  46  72  99 138 183 235 293 349 421
#     4  11  23  42  67 100 139 178 231 286 359 416
#
# _framework density 21.607529
#
# number of rings (size 3 to 8) (size 9 to 14) (size 15 to 20)
#    0.000    0.909    1.818    4.636    8.909    0.000 
#    0.000    1.818    4.000    0.000    0.000    0.000 
#    0.000    0.000    0.000    0.000    0.000    0.000 
#
# Total GULP energy -1091405.558862 kJ/mol
# GULP energy per Si atom -12402.335896 kJ/mol
# Density = 2.155835 g / cm^3
# Si number density = 21.607529 Si / 1000 Ang^3
#
#
#
# Elastic Constant Matrix: (Units=GPa)
#
#
# Indices 1 2 3 4 5 6 
#
# 1 95.1017 23.3757 43.4638 0.0000 0.0000 0.0000
# 2 23.3757 95.0968 43.4633 0.0000 0.0000 0.0000
# 3 43.4638 43.4633 128.9551 0.0000 0.0000 0.0000
# 4 0.0000 0.0000 0.0000 36.7885 0.0000 0.0000
# 5 0.0000 0.0000 0.0000 0.0000 36.7888 0.0000
# 6 0.0000 0.0000 0.0000 0.0000 0.0000 28.1036
#
#
#
# Elastic Compliance Matrix: (Units=1/GPa)
#
#
# Indices 1 2 3 4 5 6 
#
# 1 0.012578 -0.001364 -0.003779 0.000000 0.000000 0.000000
# 2 -0.001364 0.012578 -0.003780 0.000000 0.000000 0.000000
# 3 -0.003779 -0.003780 0.010302 0.000000 0.000000 0.000000
# 4 0.000000 0.000000 0.000000 0.027182 0.000000 0.000000
# 5 0.000000 0.000000 0.000000 0.000000 0.027182 0.000000
# 6 0.000000 0.000000 0.000000 0.000000 0.000000 0.035583
#
#
# Mechanical properties :
#
#
# Convention : Reuss Voigt Hill
#
# Bulk Modulus (GPa) = 56.78041 59.97324 58.37682
# Shear Modulus (GPa) = 33.52936 34.25957 33.89447
#
# Velocity S-wave (km/s) = 3.94349 3.98620 3.96490
# Velocity P-wave (km/s) = 6.86075 7.00017 6.93081
#
# Compressibility (1/GPa) = 0.01761171
#
# Stress axis : x y z
#
# Youngs Moduli (GPa) = 79.50574 79.50132 97.06518
#
# Poissons Ratio (x) = 0.10847 0.36685
# Poissons Ratio (y) = 0.10848 0.36687
# Poissons Ratio (z) = 0.30049 0.30048
#
# Static dielectric constant tensor:
#      x y z
#    x 4.048410 0.000000 0.000000 
#    y 0.000000 4.048450 0.000000 
#    z 0.000000 0.000000 4.062690 
# 
# 
# High freq. dielectric constant tensor:
#      x y z
#    x 1.856070 0.000000 0.000000 
#    y 0.000000 1.856070 0.000000 
#    z 0.000000 0.000000 1.857660 
# 
# From -- ./inp_files/2367.got.cif
#   From: 2010.03.12/outbox.cif.g09.slc.cpg/sg130_2_cif.got.tgz:2367.got - 2010.04.06 17:30:23.
