data_PCOD8315898
_publ_section_title
;
Structure prediction by ZEFSAII (Michael W. Deem and Ramdas Pophale) SiO2 
 PCOD8315898
Probable space group: P 42/M M C
;
_chemical_formula_sum "Si O2"
_cell_formula_units_Z 96
_cell_length_a 23.895798
_cell_length_b 23.895798
_cell_length_c 9.596707
_cell_angle_alpha 90.000000
_cell_angle_beta 90.000000
_cell_angle_gamma 90.000000
_cell_volume 5479.807623
_symmetry_space_group_name_H-M "P 42/M M C"
_symmetry_group_IT_number 131
_symmetry_cell_setting 'tetragonal'
loop_
_space_group_symop_operation_xyz
x,y,z
-x,-y,z
-y,x,1/2+z
y,-x,1/2+z
-x,y,-z
x,-y,-z
y,x,1/2-z
-y,-x,1/2-z
-x,-y,-z
x,y,-z
y,-x,1/2-z
-y,x,1/2-z
x,-y,z
-x,y,z
-y,-x,1/2+z
y,x,1/2+z
loop_
_atom_site_type_symbol
_atom_site_label
_atom_site_fract_x
_atom_site_fract_y
_atom_site_fract_z
Si Si1 0.062677 0.433961 0.842899
Si Si2 0.654763 0.731323 0.162262
Si Si3 0.938276 0.262371 0.665520
Si Si4 0.639774 0.435774 0.661183
Si Si5 0.859416 0.360629 0.335252
Si Si6 0.934570 0.139120 0.344372
O O1 0.066922 0.500000 0.838981
O O2 0.110495 0.412016 0.739897
O O3 0.000000 0.415363 0.794876
O O4 0.073772 0.412227 0.000000
O O5 0.706326 0.706326 0.250000
O O6 0.598375 0.696442 0.193526
O O7 0.643440 0.794793 0.210127
O O8 0.671291 0.728598 0.000000
O O9 0.941122 0.260554 0.500000
O O10 0.891161 0.305037 0.717596
O O11 0.921777 0.200633 0.718887
O O12 0.000000 0.279741 0.722588
O O13 0.588291 0.411710 0.750000
O O14 0.623016 0.430266 0.500000
O O15 0.650566 0.500000 0.703471
O O16 0.865004 0.369693 0.500000
O O17 0.907179 0.092822 0.250000
O O18 0.909987 0.134033 0.500000
O O19 0.000000 0.127721 0.345978
#
# Coordination Sequence:
#
# PCOD8315898 Si02
#       6
#    16  16  16  16  16  16
#     4   9  19  35  51  70 102 138 166 199 248 301
#     4   9  19  34  50  71 100 131 162 198 241 288
#     4   8  15  29  47  67  93 122 151 189 238 283
#     4   9  18  33  51  70  96 128 157 190 234 279
#     4  10  19  31  52  78  98 124 167 210 244 285
#     4   9  18  32  48  66  91 122 153 189 236 287
#
# _framework density 17.518863
#
# number of rings (size 3 to 8) (size 9 to 14) (size 15 to 20)
#    0.000    3.000    0.000    2.000    0.000    4.333 
#    0.000    5.000    0.000    1.000    0.000    0.000 
#    0.000    0.000    0.000    0.000    0.000    0.000 
#
# Total GULP energy -1190131.662389 kJ/mol
# GULP energy per Si atom -12397.204817 kJ/mol
# Density = 1.747899 g / cm^3
# Si number density = 17.518863 Si / 1000 Ang^3
#
#
#
# Elastic Constant Matrix: (Units=GPa)
#
#
# Indices 1 2 3 4 5 6 
#
# 1 109.4797 56.2389 45.9036 0.0000 0.0000 0.0000
# 2 56.2389 109.4871 45.9031 0.0000 0.0000 0.0000
# 3 45.9036 45.9031 53.5188 0.0000 0.0000 0.0000
# 4 0.0000 0.0000 0.0000 25.9725 0.0000 0.0000
# 5 0.0000 0.0000 0.0000 0.0000 25.9723 0.0000
# 6 0.0000 0.0000 0.0000 0.0000 0.0000 10.8968
#
#
#
# Elastic Compliance Matrix: (Units=1/GPa)
#
#
# Indices 1 2 3 4 5 6 
#
# 1 0.015140 -0.003642 -0.009862 0.000000 0.000000 0.000000
# 2 -0.003642 0.015138 -0.009860 0.000000 0.000000 0.000000
# 3 -0.009862 -0.009860 0.035601 0.000000 0.000000 0.000000
# 4 0.000000 0.000000 0.000000 0.038502 0.000000 0.000000
# 5 0.000000 0.000000 0.000000 0.000000 0.038503 0.000000
# 6 0.000000 0.000000 0.000000 0.000000 0.000000 0.091770
#
#
# Mechanical properties :
#
#
# Convention : Reuss Voigt Hill
#
# Bulk Modulus (GPa) = 52.21767 63.17521 57.69644
# Shear Modulus (GPa) = 17.37523 20.86432 19.11978
#
# Velocity S-wave (km/s) = 3.15270 3.45478 3.30719
# Velocity P-wave (km/s) = 6.56688 7.21481 6.89846
#
# Compressibility (1/GPa) = 0.01915060
#
# Stress axis : x y z
#
# Youngs Moduli (GPa) = 66.05002 66.05791 28.08931
#
# Poissons Ratio (x) = 0.24059 0.27701
# Poissons Ratio (y) = 0.24056 0.27696
# Poissons Ratio (z) = 0.65138 0.65134
#
# Static dielectric constant tensor:
#      x y z
#    x 3.298980 0.000000 0.000000 
#    y 0.000000 3.298990 0.000000 
#    z 0.000000 0.000000 3.117040 
# 
# 
# High freq. dielectric constant tensor:
#      x y z
#    x 1.677630 0.000000 0.000000 
#    y 0.000000 1.677630 0.000000 
#    z 0.000000 0.000000 1.657580 
# 
# From -- ./inp_files/2169.got.cif
#   From: 2010.03.12/outbox.cif.g09.slc.cpg/sg131_2_cif.got.tgz:2169.got - 2010.04.06 17:36:35.
