data_PCOD8315408
_publ_section_title
;
Structure prediction by ZEFSAII (Michael W. Deem and Ramdas Pophale) SiO2 
 PCOD8315408
Probable space group: P 4/N M M
;
_chemical_formula_sum "Si O2"
_cell_formula_units_Z 80
_cell_length_a 27.638987
_cell_length_b 27.638987
_cell_length_c 5.090677
_cell_angle_alpha 90.000000
_cell_angle_beta 90.000000
_cell_angle_gamma 90.000000
_cell_volume 3888.837406
_symmetry_space_group_name_H-M "P 4/N M M"
_symmetry_group_IT_number 129
_symmetry_cell_setting 'tetragonal'
loop_
_space_group_symop_operation_xyz
x,y,z
1/2-y,x,z
1/2-x,1/2-y,z
y,1/2-x,z
1/2+x,-y,-z
-x,1/2+y,-z
1/2+y,1/2+x,-z
-y,-x,-z
-x,-y,-z
1/2+y,-x,-z
1/2+x,1/2+y,-z
-y,1/2+x,-z
1/2-x,y,z
x,1/2-y,z
1/2-y,1/2-x,z
y,x,z
loop_
_atom_site_type_symbol
_atom_site_label
_atom_site_fract_x
_atom_site_fract_y
_atom_site_fract_z
Si Si1 0.641694 0.430505 0.911984
Si Si2 0.547878 0.302600 0.583421
Si Si3 0.572017 0.003863 0.662702
Si Si4 0.191842 0.114259 0.993009
Si Si5 0.446932 0.336697 0.495448
O O1 0.662046 0.424561 0.617119
O O2 0.600468 0.472171 0.906688
O O3 0.620855 0.379146 0.000000
O O4 0.682188 0.446611 0.115075
O O5 0.571191 0.250000 0.552007
O O6 0.491046 0.299169 0.517463
O O7 0.548034 0.048034 0.500000
O O8 0.530043 0.969958 0.779458
O O9 0.609356 0.970779 0.492639
O O10 0.250000 0.120054 0.994556
O O11 0.167378 0.167378 0.021343
O O12 0.172190 0.091114 0.725258
O O13 0.172960 0.079987 0.223467
#
# Coordination Sequence:
#
# PCOD8315408 Si02
#       5
#    16  16  16  16  16
#     4  11  22  38  57  84 121 155 189 238 285 328
#     4  11  22  38  61  86 116 154 196 236 282 345
#     4  10  21  37  57  84 120 162 203 236 278 341
#     4  12  25  42  63  85 111 146 194 252 314 370
#     4  11  23  40  61  85 117 152 191 240 292 346
#
# _framework density 20.571701000000001
#
# number of rings (size 3 to 8) (size 9 to 14) (size 15 to 20)
#    0.000    1.000    0.000    9.600    0.000    0.600 
#    0.000    7.000    0.000    2.400    0.000    0.000 
#    0.000   28.000    0.000    0.000    0.000    0.000 
#
# Total GULP energy -991844.811880 kJ/mol
# GULP energy per Si atom -12398.060149 kJ/mol
# Density = 2.052488 g / cm^3
# Si number density = 20.571701 Si / 1000 Ang^3
#
#
#
# Elastic Constant Matrix: (Units=GPa)
#
#
# Indices 1 2 3 4 5 6 
#
# 1 97.9913 62.8601 20.2698 0.0000 0.0000 0.0000
# 2 62.8601 97.9943 20.2708 0.0000 0.0000 0.0000
# 3 20.2698 20.2708 77.3808 0.0000 0.0000 0.0000
# 4 0.0000 0.0000 0.0000 9.0222 0.0000 0.0000
# 5 0.0000 0.0000 0.0000 0.0000 9.0206 0.0000
# 6 0.0000 0.0000 0.0000 0.0000 0.0000 25.4042
#
#
#
# Elastic Compliance Matrix: (Units=1/GPa)
#
#
# Indices 1 2 3 4 5 6 
#
# 1 0.017560 -0.010904 -0.001744 0.000000 0.000000 0.000000
# 2 -0.010904 0.017560 -0.001744 0.000000 0.000000 0.000000
# 3 -0.001744 -0.001744 0.013837 0.000000 0.000000 0.000000
# 4 0.000000 0.000000 0.000000 0.110838 0.000000 0.000000
# 5 0.000000 0.000000 0.000000 0.000000 0.110858 0.000000
# 6 0.000000 0.000000 0.000000 0.000000 0.000000 0.039364
#
#
# Mechanical properties :
#
#
# Convention : Reuss Voigt Hill
#
# Bulk Modulus (GPa) = 49.56719 53.35198 51.45959
# Shear Modulus (GPa) = 14.47083 20.02042 17.24562
#
# Velocity S-wave (km/s) = 2.65511 3.12300 2.89851
# Velocity P-wave (km/s) = 5.79194 6.24461 6.02253
#
# Compressibility (1/GPa) = 0.02017464
#
# Stress axis : x y z
#
# Youngs Moduli (GPa) = 56.94712 56.94862 72.27195
#
# Poissons Ratio (x) = 0.62094 0.12601
# Poissons Ratio (y) = 0.62093 0.12603
# Poissons Ratio (z) = 0.09929 0.09931
#
# Static dielectric constant tensor:
#      x y z
#    x 3.811520 0.000000 0.000000 
#    y 0.000000 3.811520 0.000000 
#    z 0.000000 0.000000 3.722590 
# 
# 
# High freq. dielectric constant tensor:
#      x y z
#    x 1.796740 0.000000 0.000000 
#    y 0.000000 1.796740 0.000000 
#    z 0.000000 0.000000 1.813160 
# 
# From -- ./inp_files/960.got.cif
#   From: 2010.03.12/outbox.cif.g09.slc.cpg/sg129_1_cif.got.tgz:960.got - 2010.04.06 17:19:44.
