data_PCOD8315688
_publ_section_title
;
Structure prediction by ZEFSAII (Michael W. Deem and Ramdas Pophale) SiO2 
 PCOD8315688
Probable space group: P 42/M M C
;
_chemical_formula_sum "Si O2"
_cell_formula_units_Z 80
_cell_length_a 20.544249
_cell_length_b 20.544249
_cell_length_c 15.758822
_cell_angle_alpha 90.000000
_cell_angle_beta 90.000000
_cell_angle_gamma 90.000000
_cell_volume 6651.265598
_symmetry_space_group_name_H-M "P 42/M M C"
_symmetry_group_IT_number 131
_symmetry_cell_setting 'tetragonal'
loop_
_space_group_symop_operation_xyz
x,y,z
-x,-y,z
-y,x,1/2+z
y,-x,1/2+z
-x,y,-z
x,-y,-z
y,x,1/2-z
-y,-x,1/2-z
-x,-y,-z
x,y,-z
y,-x,1/2-z
-y,x,1/2-z
x,-y,z
-x,y,z
-y,-x,1/2+z
y,x,1/2+z
loop_
_atom_site_type_symbol
_atom_site_label
_atom_site_fract_x
_atom_site_fract_y
_atom_site_fract_z
Si Si1 0.861428 0.923723 0.828866
Si Si2 0.861731 0.863238 0.500000
Si Si3 0.924848 0.273564 0.500000
Si Si4 0.500000 0.077811 0.403519
Si Si5 0.723272 0.923840 0.500000
Si Si6 0.285623 0.075561 0.183086
Si Si7 0.076830 0.363883 0.839543
O O1 0.906667 0.906667 0.750000
O O2 0.788082 0.896862 0.811994
O O3 0.860012 0.000000 0.843384
O O4 0.892765 0.892380 0.913758
O O5 0.875481 0.786401 0.500000
O O6 0.785747 0.878186 0.500000
O O7 0.912963 0.314149 0.587117
O O8 0.000000 0.247290 0.500000
O O9 0.500000 0.103690 0.500000
O O10 0.563821 0.105414 0.355184
O O11 0.500000 0.000000 0.405054
O O12 0.681933 0.904988 0.582195
O O13 0.742937 0.000000 0.500000
O O14 0.332887 0.108119 0.253447
O O15 0.282532 0.000000 0.205823
O O16 0.000000 0.370584 0.831130
#
# Coordination Sequence:
#
# PCOD8315688 Si02
#       7
#    16   8   8   8   8  16  16
#     4  10  19  30  40  49  62  80 105 137 173 210
#     4  10  18  28  41  51  61  79 104 135 167 198
#     4   8  14  26  40  49  59  78 106 136 163 191
#     4   9  14  22  34  49  69  87  97 110 136 179
#     4  10  18  25  34  49  66  81 100 129 160 197
#     4   8  14  24  37  49  59  76 101 126 152 187
#     4   9  15  23  35  50  67  83  98 116 145 186
#
# _framework density 12.027787
#
# number of rings (size 3 to 8) (size 9 to 14) (size 15 to 20)
#    0.000    2.900    1.000    3.300    0.000    2.600 
#    0.000    0.000    0.000    3.900    0.000    4.200 
#    0.000    0.000    0.000    0.000    0.000    0.000 
#
# Total GULP energy -991154.574968 kJ/mol
# GULP energy per Si atom -12389.432187 kJ/mol
# Density = 1.200041 g / cm^3
# Si number density = 12.027787 Si / 1000 Ang^3
#
#
#
# Elastic Constant Matrix: (Units=GPa)
#
#
# Indices 1 2 3 4 5 6 
#
# 1 46.8426 19.0543 31.6000 0.0000 0.0000 0.0000
# 2 19.0543 46.8426 31.6000 0.0000 0.0000 0.0000
# 3 31.6000 31.6000 115.3565 0.0000 0.0000 0.0000
# 4 0.0000 0.0000 0.0000 10.8164 0.0000 0.0000
# 5 0.0000 0.0000 0.0000 0.0000 10.8164 0.0000
# 6 0.0000 0.0000 0.0000 0.0000 0.0000 2.0343
#
#
#
# Elastic Compliance Matrix: (Units=1/GPa)
#
#
# Indices 1 2 3 4 5 6 
#
# 1 0.028285 -0.007702 -0.005638 0.000000 0.000000 0.000000
# 2 -0.007702 0.028285 -0.005638 0.000000 0.000000 0.000000
# 3 -0.005638 -0.005638 0.011758 0.000000 0.000000 0.000000
# 4 0.000000 0.000000 0.000000 0.092452 0.000000 0.000000
# 5 0.000000 0.000000 0.000000 0.000000 0.092452 0.000000
# 6 0.000000 0.000000 0.000000 0.000000 0.000000 0.491566
#
#
# Mechanical properties :
#
#
# Convention : Reuss Voigt Hill
#
# Bulk Modulus (GPa) = 32.92706 41.50556 37.21631
# Shear Modulus (GPa) = 6.30614 13.18592 9.74603
#
# Velocity S-wave (km/s) = 2.29224 3.31462 2.84965
# Velocity P-wave (km/s) = 5.86865 7.01654 6.46811
#
# Compressibility (1/GPa) = 0.03037016
#
# Stress axis : x y z
#
# Youngs Moduli (GPa) = 35.35493 35.35493 85.04977
#
# Poissons Ratio (x) = 0.27230 0.47954
# Poissons Ratio (y) = 0.27230 0.47954
# Poissons Ratio (z) = 0.19934 0.19934
#
# Static dielectric constant tensor:
#      x y z
#    x 2.265210 0.000000 0.000000 
#    y 0.000000 2.265210 0.000000 
#    z 0.000000 0.000000 2.890340 
# 
# 
# High freq. dielectric constant tensor:
#      x y z
#    x 1.409310 0.000000 0.000000 
#    y 0.000000 1.409310 0.000000 
#    z 0.000000 0.000000 1.482050 
# 
# From -- ./inp_files/6091.got.cif
#   From: 2010.03.12/outbox.cif.g09.slc.cpg/sg131_4_cif.got.tgz:6091.got - 2010.04.06 17:36:35.
