data_PCOD8315451
_publ_section_title
;
Structure prediction by ZEFSAII (Michael W. Deem and Ramdas Pophale) SiO2 
 PCOD8315451
Probable space group: P 4/N M M
;
_chemical_formula_sum "Si O2"
_cell_formula_units_Z 112
_cell_length_a 18.143792
_cell_length_b 18.143792
_cell_length_c 22.356446
_cell_angle_alpha 90.000000
_cell_angle_beta 90.000000
_cell_angle_gamma 90.000000
_cell_volume 7359.679160
_symmetry_space_group_name_H-M "P 4/N M M"
_symmetry_group_IT_number 129
_symmetry_cell_setting 'tetragonal'
loop_
_space_group_symop_operation_xyz
x,y,z
1/2-y,x,z
1/2-x,1/2-y,z
y,1/2-x,z
1/2+x,-y,-z
-x,1/2+y,-z
1/2+y,1/2+x,-z
-y,-x,-z
-x,-y,-z
1/2+y,-x,-z
1/2+x,1/2+y,-z
-y,1/2+x,-z
1/2-x,y,z
x,1/2-y,z
1/2-y,1/2-x,z
y,x,z
loop_
_atom_site_type_symbol
_atom_site_label
_atom_site_fract_x
_atom_site_fract_y
_atom_site_fract_z
Si Si1 0.548287 0.665407 0.372738
Si Si2 0.529152 0.088816 0.730639
Si Si3 0.584952 0.468379 0.131454
Si Si4 0.832789 0.413790 0.949417
Si Si5 0.903601 0.333476 0.554947
Si Si6 0.832129 0.949276 0.031957
Si Si7 0.665451 0.164820 0.678121
O O1 0.571102 0.750000 0.374253
O O2 0.619182 0.619182 0.392379
O O3 0.521982 0.645481 0.305783
O O4 0.483738 0.646744 0.419367
O O5 0.526566 0.109537 0.800100
O O6 0.613742 0.102827 0.709814
O O7 0.494920 0.005081 0.720562
O O8 0.503386 0.503386 0.122004
O O9 0.587298 0.384206 0.109038
O O10 0.643558 0.515194 0.094319
O O11 0.750000 0.396232 0.927992
O O12 0.854603 0.354603 0.000000
O O13 0.839698 0.493883 0.977976
O O14 0.887531 0.387531 0.500000
O O15 0.901206 0.250000 0.531064
O O16 0.843092 0.344182 0.606890
O O17 0.750000 0.920758 0.040350
O O18 0.879967 0.879967 0.013270
O O19 0.750000 0.148711 0.696077
O O20 0.643527 0.250000 0.695535
#
# Coordination Sequence:
#
# PCOD8315451 Si02
#       7
#    16  16  16  16  16  16  16
#     4   9  18  31  45  62  85 112 142 177 212 245
#     4   9  17  29  44  61  83 110 140 175 211 246
#     4   9  17  29  45  61  78 106 140 169 200 241
#     4   9  17  29  44  61  82 106 132 163 198 240
#     4   9  16  26  42  64  88 113 141 171 205 247
#     4   9  17  28  42  60  80 102 130 165 203 241
#     4   9  17  28  42  62  89 117 142 172 211 255
#
# _framework density 15.218055
#
# number of rings (size 3 to 8) (size 9 to 14) (size 15 to 20)
#    0.000    3.000    0.000    2.143    0.000    4.857 
#    0.000    0.000    0.000    0.000    0.000    4.000 
#    0.000    0.286    0.000    3.143    0.000    0.000 
#
# Total GULP energy -1388074.333339 kJ/mol
# GULP energy per Si atom -12393.520833 kJ/mol
# Density = 1.518342 g / cm^3
# Si number density = 15.218055 Si / 1000 Ang^3
#
#
#
# Elastic Constant Matrix: (Units=GPa)
#
#
# Indices 1 2 3 4 5 6 
#
# 1 92.4411 49.9749 29.0046 0.0000 0.0000 0.0000
# 2 49.9749 92.4411 29.0046 0.0000 0.0000 0.0000
# 3 29.0046 29.0046 71.7348 0.0000 0.0000 0.0000
# 4 0.0000 0.0000 0.0000 13.9622 0.0000 0.0000
# 5 0.0000 0.0000 0.0000 0.0000 13.9622 0.0000
# 6 0.0000 0.0000 0.0000 0.0000 0.0000 24.3851
#
#
#
# Elastic Compliance Matrix: (Units=1/GPa)
#
#
# Indices 1 2 3 4 5 6 
#
# 1 0.015977 -0.007571 -0.003399 0.000000 0.000000 0.000000
# 2 -0.007571 0.015977 -0.003399 0.000000 0.000000 0.000000
# 3 -0.003399 -0.003399 0.016689 0.000000 0.000000 0.000000
# 4 0.000000 0.000000 0.000000 0.071622 0.000000 0.000000
# 5 0.000000 0.000000 0.000000 0.000000 0.071622 0.000000
# 6 0.000000 0.000000 0.000000 0.000000 0.000000 0.041009
#
#
# Mechanical properties :
#
#
# Convention : Reuss Voigt Hill
#
# Bulk Modulus (GPa) = 50.23717 52.50946 51.37331
# Shear Modulus (GPa) = 18.63808 20.37076 19.50442
#
# Velocity S-wave (km/s) = 3.50342 3.66265 3.58392
# Velocity P-wave (km/s) = 7.03196 7.24336 7.13844
#
# Compressibility (1/GPa) = 0.01990558
#
# Stress axis : x y z
#
# Youngs Moduli (GPa) = 62.58944 62.58944 59.92058
#
# Poissons Ratio (x) = 0.47387 0.20366
# Poissons Ratio (y) = 0.47387 0.20366
# Poissons Ratio (z) = 0.21273 0.21273
#
# Static dielectric constant tensor:
#      x y z
#    x 2.943220 0.000000 0.000000 
#    y 0.000000 2.943220 0.000000 
#    z 0.000000 0.000000 2.805230 
# 
# 
# High freq. dielectric constant tensor:
#      x y z
#    x 1.575230 0.000000 0.000000 
#    y 0.000000 1.575230 0.000000 
#    z 0.000000 0.000000 1.573250 
# 
# From -- ./inp_files/6709.got.cif
#   From: 2010.03.12/outbox.cif.g09.slc.cpg/sg129_4_cif.got.tgz:6709.got - 2010.04.06 17:19:44.
