data_PCOD8315545
_publ_section_title
;
Structure prediction by ZEFSAII (Michael W. Deem and Ramdas Pophale) SiO2 
 PCOD8315545
Probable space group: P 4/N C C
;
_chemical_formula_sum "Si O2"
_cell_formula_units_Z 112
_cell_length_a 18.507473
_cell_length_b 18.507473
_cell_length_c 18.395687
_cell_angle_alpha 90.000000
_cell_angle_beta 90.000000
_cell_angle_gamma 90.000000
_cell_volume 6301.011329
_symmetry_space_group_name_H-M "P 4/N C C"
_symmetry_group_IT_number 130
_symmetry_cell_setting 'tetragonal'
loop_
_space_group_symop_operation_xyz
x,y,z
1/2-y,x,z
1/2-x,1/2-y,z
y,1/2-x,z
1/2+x,-y,1/2-z
-x,1/2+y,1/2-z
1/2+y,1/2+x,1/2-z
-y,-x,1/2-z
-x,-y,-z
1/2+y,-x,-z
1/2+x,1/2+y,-z
-y,1/2+x,-z
1/2-x,y,1/2+z
x,1/2-y,1/2+z
1/2-y,1/2-x,1/2+z
y,x,1/2+z
loop_
_atom_site_type_symbol
_atom_site_label
_atom_site_fract_x
_atom_site_fract_y
_atom_site_fract_z
Si Si1 0.379146 0.501789 0.727905
Si Si2 0.552964 0.316830 0.942005
Si Si3 0.997506 0.419145 0.190180
Si Si4 0.097688 0.822433 0.891750
Si Si5 0.473140 0.039560 0.430195
Si Si6 0.127438 0.671532 0.830318
Si Si7 0.669236 0.474712 0.121086
O O1 0.441344 0.558657 0.750000
O O2 0.419182 0.422300 0.718992
O O3 0.338178 0.524671 0.654320
O O4 0.323000 0.499906 0.794795
O O5 0.490250 0.376112 0.935283
O O6 0.618789 0.333208 0.887430
O O7 0.512364 0.244241 0.918970
O O8 0.580440 0.309108 0.024184
O O9 0.938075 0.438075 0.250000
O O10 0.999579 0.483906 0.133191
O O11 0.960919 0.344125 0.163533
O O12 0.138425 0.753395 0.857175
O O13 0.151165 0.889913 0.884711
O O14 0.500000 0.000000 0.500000
O O15 0.388470 0.025706 0.419354
O O16 0.162395 0.662395 0.750000
#
# Coordination Sequence:
#
# PCOD8315545 Si02
#       7
#    16  16  16  16  16  16  16
#     4   9  16  32  53  77 101 147 189 227 280 326
#     4  11  23  35  54  86 113 150 191 235 292 339
#     4   9  15  31  53  75 101 140 184 233 269 313
#     4  11  20  35  53  79 117 153 187 228 275 344
#     4  11  19  35  57  79 107 144 192 237 279 334
#     4  10  22  35  53  81 116 152 190 230 276 345
#     4  11  21  36  57  78 113 151 188 234 287 349
#
# _framework density 17.774923999999999
#
# number of rings (size 3 to 8) (size 9 to 14) (size 15 to 20)
#    0.000    1.714    5.714    1.714    2.000    0.571 
#    0.000    2.143    0.000    0.429    0.000    0.000 
#    0.000    0.571    0.000    0.000    0.000    0.000 
#
# Total GULP energy -1387661.773009 kJ/mol
# GULP energy per Si atom -12389.837259 kJ/mol
# Density = 1.773447 g / cm^3
# Si number density = 17.774924 Si / 1000 Ang^3
#
#
#
# Elastic Constant Matrix: (Units=GPa)
#
#
# Indices 1 2 3 4 5 6 
#
# 1 88.1700 47.4120 35.6970 0.0000 0.0000 0.0000
# 2 47.4120 88.1690 35.6961 0.0000 0.0000 0.0000
# 3 35.6970 35.6961 136.3947 0.0000 0.0000 0.0000
# 4 0.0000 0.0000 0.0000 22.9874 0.0000 0.0000
# 5 0.0000 0.0000 0.0000 0.0000 22.9870 0.0000
# 6 0.0000 0.0000 0.0000 0.0000 0.0000 16.4242
#
#
#
# Elastic Compliance Matrix: (Units=1/GPa)
#
#
# Indices 1 2 3 4 5 6 
#
# 1 0.016545 -0.007990 -0.002239 0.000000 0.000000 0.000000
# 2 -0.007990 0.016545 -0.002239 0.000000 0.000000 0.000000
# 3 -0.002239 -0.002239 0.008504 0.000000 0.000000 0.000000
# 4 0.000000 0.000000 0.000000 0.043502 0.000000 0.000000
# 5 0.000000 0.000000 0.000000 0.000000 0.043503 0.000000
# 6 0.000000 0.000000 0.000000 0.000000 0.000000 0.060886
#
#
# Mechanical properties :
#
#
# Convention : Reuss Voigt Hill
#
# Bulk Modulus (GPa) = 60.03398 61.14931 60.59164
# Shear Modulus (GPa) = 22.73010 25.40830 24.06920
#
# Velocity S-wave (km/s) = 3.57987 3.78490 3.68382
# Velocity P-wave (km/s) = 7.13689 7.31965 7.22885
#
# Compressibility (1/GPa) = 0.01665723
#
# Stress axis : x y z
#
# Youngs Moduli (GPa) = 60.44153 60.44120 117.59795
#
# Poissons Ratio (x) = 0.48295 0.26329
# Poissons Ratio (y) = 0.48295 0.26328
# Poissons Ratio (z) = 0.13532 0.13531
#
# Static dielectric constant tensor:
#      x y z
#    x 3.116070 0.000000 0.000000 
#    y 0.000000 3.116070 0.000000 
#    z 0.000000 0.000000 3.620830 
# 
# 
# High freq. dielectric constant tensor:
#      x y z
#    x 1.658300 0.000000 0.000000 
#    y 0.000000 1.658300 0.000000 
#    z 0.000000 0.000000 1.716680 
# 
# From -- ./inp_files/3949.got.cif
#   From: 2010.03.12/outbox.cif.g09.slc.cpg/sg130_2_cif.got.tgz:3949.got - 2010.04.06 17:30:23.
