data_PCOD8315053
_publ_section_title
;
Structure prediction by ZEFSAII (Michael W. Deem and Ramdas Pophale) SiO2 
 PCOD8315053
Probable space group: P 4/N M M
;
_chemical_formula_sum "Si O2"
_cell_formula_units_Z 88
_cell_length_a 13.825804
_cell_length_b 13.825804
_cell_length_c 28.067656
_cell_angle_alpha 90.000000
_cell_angle_beta 90.000000
_cell_angle_gamma 90.000000
_cell_volume 5365.212613
_symmetry_space_group_name_H-M "P 4/N M M"
_symmetry_group_IT_number 129
_symmetry_cell_setting 'tetragonal'
loop_
_space_group_symop_operation_xyz
x,y,z
1/2-y,x,z
1/2-x,1/2-y,z
y,1/2-x,z
1/2+x,-y,-z
-x,1/2+y,-z
1/2+y,1/2+x,-z
-y,-x,-z
-x,-y,-z
1/2+y,-x,-z
1/2+x,1/2+y,-z
-y,1/2+x,-z
1/2-x,y,z
x,1/2-y,z
1/2-y,1/2-x,z
y,x,z
loop_
_atom_site_type_symbol
_atom_site_label
_atom_site_fract_x
_atom_site_fract_y
_atom_site_fract_z
Si Si1 0.636886 0.481713 0.275253
Si Si2 0.518511 0.136597 0.091890
Si Si3 0.861650 0.361650 0.000000
Si Si4 0.861706 0.138227 0.816282
Si Si5 0.136116 0.522147 0.461346
Si Si6 0.860015 0.361368 0.367311
O O1 0.750000 0.502879 0.274056
O O2 0.584386 0.584386 0.275501
O O3 0.603219 0.421273 0.229405
O O4 0.606709 0.422897 0.322089
O O5 0.498284 0.250000 0.092043
O O6 0.578495 0.103802 0.138024
O O7 0.415516 0.084485 0.091935
O O8 0.578051 0.104238 0.045560
O O9 0.880376 0.250000 0.987951
O O10 0.750000 0.119331 0.804644
O O11 0.880809 0.250000 0.827869
O O12 0.098770 0.598770 0.500000
O O13 0.250000 0.502993 0.469079
O O14 0.114036 0.568260 0.410178
O O15 0.079658 0.420343 0.465958
O O16 0.750000 0.386686 0.382550
O O17 0.867540 0.250000 0.352348
#
# Coordination Sequence:
#
# PCOD8315053 Si02
#       6
#    16  16   8  16  16  16
#     4  10  19  30  45  65  91 121 150 182 220 264
#     4  10  19  30  45  65  90 118 145 175 213 260
#     4   9  17  30  48  68  87 109 142 184 224 255
#     4   9  17  30  48  68  87 109 143 187 229 262
#     4  10  20  33  50  72  97 125 157 193 233 277
#     4   9  17  30  49  71  92 116 150 191 231 269
#
# _framework density 16.401959000000002
#
# number of rings (size 3 to 8) (size 9 to 14) (size 15 to 20)
#    0.000    2.455    0.000    3.000    0.000    5.818 
#    0.000    0.000    0.000    0.000    0.000    2.545 
#    0.000   26.182    0.000    0.000    0.000    0.000 
#
# Total GULP energy -1091339.138967 kJ/mol
# GULP energy per Si atom -12401.581125 kJ/mol
# Density = 1.636463 g / cm^3
# Si number density = 16.401959 Si / 1000 Ang^3
#
#
#
# Elastic Constant Matrix: (Units=GPa)
#
#
# Indices 1 2 3 4 5 6 
#
# 1 77.3704 54.4276 59.0697 0.0000 0.0000 0.0000
# 2 54.4276 77.3704 59.0697 0.0000 0.0000 0.0000
# 3 59.0697 59.0697 132.3822 0.0000 0.0000 0.0000
# 4 0.0000 0.0000 0.0000 17.0543 0.0000 0.0000
# 5 0.0000 0.0000 0.0000 0.0000 17.0543 0.0000
# 6 0.0000 0.0000 0.0000 0.0000 0.0000 29.6897
#
#
#
# Elastic Compliance Matrix: (Units=1/GPa)
#
#
# Indices 1 2 3 4 5 6 
#
# 1 0.028116 -0.015471 -0.005642 0.000000 0.000000 0.000000
# 2 -0.015471 0.028116 -0.005642 0.000000 0.000000 0.000000
# 3 -0.005642 -0.005642 0.012589 0.000000 0.000000 0.000000
# 4 0.000000 0.000000 0.000000 0.058636 0.000000 0.000000
# 5 0.000000 0.000000 0.000000 0.000000 0.058636 0.000000
# 6 0.000000 0.000000 0.000000 0.000000 0.000000 0.033682
#
#
# Mechanical properties :
#
#
# Convention : Reuss Voigt Hill
#
# Bulk Modulus (GPa) = 65.31702 70.25077 67.78390
# Shear Modulus (GPa) = 17.96049 20.39672 19.17861
#
# Velocity S-wave (km/s) = 3.31270 3.53023 3.42319
# Velocity P-wave (km/s) = 7.38520 7.71624 7.55253
#
# Compressibility (1/GPa) = 0.01530995
#
# Stress axis : x y z
#
# Youngs Moduli (GPa) = 35.56725 35.56725 79.43408
#
# Poissons Ratio (x) = 0.55026 0.44818
# Poissons Ratio (y) = 0.55026 0.44818
# Poissons Ratio (z) = 0.20068 0.20068
#
# Static dielectric constant tensor:
#      x y z
#    x 2.948580 0.000000 0.000000 
#    y 0.000000 2.948580 0.000000 
#    z 0.000000 0.000000 3.258730 
# 
# 
# High freq. dielectric constant tensor:
#      x y z
#    x 1.622170 0.000000 0.000000 
#    y 0.000000 1.622170 0.000000 
#    z 0.000000 0.000000 1.647310 
# 
# From -- ./inp_files/6943.got.cif
#   From: 2010.03.12/outbox.cif.g09.slc.cpg/sg129_4_cif.got.tgz:6943.got - 2010.04.06 17:19:44.
