data_PCOD8315571
_publ_section_title
;
Structure prediction by ZEFSAII (Michael W. Deem and Ramdas Pophale) SiO2 
 PCOD8315571
Probable space group: P 4/N C C
;
_chemical_formula_sum "Si O2"
_cell_formula_units_Z 44
_cell_length_a 14.813581
_cell_length_b 14.813581
_cell_length_c 10.047647
_cell_angle_alpha 90.000000
_cell_angle_beta 90.000000
_cell_angle_gamma 90.000000
_cell_volume 2204.877582
_symmetry_space_group_name_H-M "P 4/N C C"
_symmetry_group_IT_number 130
_symmetry_cell_setting 'tetragonal'
loop_
_space_group_symop_operation_xyz
x,y,z
1/2-y,x,z
1/2-x,1/2-y,z
y,1/2-x,z
1/2+x,-y,1/2-z
-x,1/2+y,1/2-z
1/2+y,1/2+x,1/2-z
-y,-x,1/2-z
-x,-y,-z
1/2+y,-x,-z
1/2+x,1/2+y,-z
-y,1/2+x,-z
1/2-x,y,1/2+z
x,1/2-y,1/2+z
1/2-y,1/2-x,1/2+z
y,x,1/2+z
loop_
_atom_site_type_symbol
_atom_site_label
_atom_site_fract_x
_atom_site_fract_y
_atom_site_fract_z
Si Si1 0.023944 0.976057 0.250000
Si Si2 0.564559 0.189082 0.415224
Si Si3 0.250000 0.750000 0.000000
Si Si4 0.333152 0.529391 0.711638
O O1 0.084107 0.948198 0.376947
O O2 0.917052 0.958876 0.278982
O O3 0.671402 0.208632 0.407015
O O4 0.527844 0.206513 0.563275
O O5 0.507492 0.252803 0.314889
O O6 0.370981 0.629020 0.750000
#
# Coordination Sequence:
#
# PCOD8315571 Si02
#       4
#     8  16   4  16
#     4  10  24  39  62  91 132 178 212 260 318 394
#     4  12  22  37  63  87 139 162 207 275 304 398
#     4  12  20  34  56 106 120 166 208 246 348 378
#     4  10  24  39  56  95 127 172 214 246 326 378
#
# _framework density 19.955756000000001
#
# number of rings (size 3 to 8) (size 9 to 14) (size 15 to 20)
#    1.091    0.000    3.636    3.273    0.000    1.455 
#    0.000    0.000    0.000    1.091    0.000   10.182 
#    0.000    0.000    0.000    0.000    0.000    0.000 
#
# Total GULP energy -545361.060977 kJ/mol
# GULP energy per Si atom -12394.569568 kJ/mol
# Density = 1.991034 g / cm^3
# Si number density = 19.955756 Si / 1000 Ang^3
#
#
#
# Elastic Constant Matrix: (Units=GPa)
#
#
# Indices 1 2 3 4 5 6 
#
# 1 106.6622 47.6380 52.6486 0.0000 0.0000 0.0000
# 2 47.6380 106.6632 52.6487 0.0000 0.0000 0.0000
# 3 52.6486 52.6487 173.4915 0.0000 0.0000 0.0000
# 4 0.0000 0.0000 0.0000 30.6777 0.0000 0.0000
# 5 0.0000 0.0000 0.0000 0.0000 30.6783 0.0000
# 6 0.0000 0.0000 0.0000 0.0000 0.0000 32.0603
#
#
#
# Elastic Compliance Matrix: (Units=1/GPa)
#
#
# Indices 1 2 3 4 5 6 
#
# 1 0.012558 -0.004384 -0.002480 0.000000 0.000000 0.000000
# 2 -0.004384 0.012558 -0.002480 0.000000 0.000000 0.000000
# 3 -0.002480 -0.002480 0.007269 0.000000 0.000000 0.000000
# 4 0.000000 0.000000 0.000000 0.032597 0.000000 0.000000
# 5 0.000000 0.000000 0.000000 0.000000 0.032596 0.000000
# 6 0.000000 0.000000 0.000000 0.000000 0.000000 0.031191
#
#
# Mechanical properties :
#
#
# Convention : Reuss Voigt Hill
#
# Bulk Modulus (GPa) = 73.01993 76.96527 74.99260
# Shear Modulus (GPa) = 32.88944 34.27536 33.58240
#
# Velocity S-wave (km/s) = 4.06411 4.14885 4.10670
# Velocity P-wave (km/s) = 7.66113 7.84871 7.75549
#
# Compressibility (1/GPa) = 0.01369489
#
# Stress axis : x y z
#
# Youngs Moduli (GPa) = 79.63153 79.63236 137.56318
#
# Poissons Ratio (x) = 0.34913 0.34121
# Poissons Ratio (y) = 0.34913 0.34121
# Poissons Ratio (z) = 0.19752 0.19752
#
# Static dielectric constant tensor:
#      x y z
#    x 3.461980 0.000000 0.000000 
#    y 0.000000 3.461970 0.000000 
#    z 0.000000 0.000000 3.497660 
# 
# 
# High freq. dielectric constant tensor:
#      x y z
#    x 1.751300 0.000000 0.000000 
#    y 0.000000 1.751300 0.000000 
#    z 0.000000 0.000000 1.789730 
# 
# From -- ./inp_files/500.got.cif
#   From: 2010.03.12/outbox.cif.g09.slc.cpg/sg130_1_cif.got.tgz:500.got - 2010.04.06 17:30:23.
