data_PCOD8315145
_publ_section_title
;
Structure prediction by ZEFSAII (Michael W. Deem and Ramdas Pophale) SiO2 
 PCOD8315145
Probable space group: P 4/N M M
;
_chemical_formula_sum "Si O2"
_cell_formula_units_Z 72
_cell_length_a 13.489535
_cell_length_b 13.489535
_cell_length_c 23.712202
_cell_angle_alpha 90.000000
_cell_angle_beta 90.000000
_cell_angle_gamma 90.000000
_cell_volume 4314.851410
_symmetry_space_group_name_H-M "P 4/N M M"
_symmetry_group_IT_number 129
_symmetry_cell_setting 'tetragonal'
loop_
_space_group_symop_operation_xyz
x,y,z
1/2-y,x,z
1/2-x,1/2-y,z
y,1/2-x,z
1/2+x,-y,-z
-x,1/2+y,-z
1/2+y,1/2+x,-z
-y,-x,-z
-x,-y,-z
1/2+y,-x,-z
1/2+x,1/2+y,-z
-y,1/2+x,-z
1/2-x,y,z
x,1/2-y,z
1/2-y,1/2-x,z
y,x,z
loop_
_atom_site_type_symbol
_atom_site_label
_atom_site_fract_x
_atom_site_fract_y
_atom_site_fract_z
Si Si1 0.868020 0.140033 0.938254
Si Si2 0.636197 0.022713 0.830914
Si Si3 0.364202 0.863512 0.718006
Si Si4 0.364127 0.364127 0.563743
Si Si5 0.501084 0.998917 0.358685
Si Si6 0.635950 0.635950 0.566388
O O1 0.750000 0.146769 0.936214
O O2 0.912482 0.250000 0.928222
O O3 0.906295 0.067788 0.889181
O O4 0.900794 0.099207 0.000000
O O5 0.750000 0.989626 0.836930
O O6 0.623274 0.105238 0.782941
O O7 0.574863 0.925138 0.814939
O O8 0.250000 0.894671 0.712226
O O9 0.380426 0.750000 0.698686
O O10 0.428861 0.933957 0.679225
O O11 0.250000 0.387862 0.577508
O O12 0.432619 0.432619 0.601068
O O13 0.387029 0.387029 0.498659
O O14 0.431634 0.068366 0.395294
O O15 0.750000 0.612229 0.580153
#
# Coordination Sequence:
#
# PCOD8315145 Si02
#       6
#    16  16  16   8   8   8
#     4   8  14  26  46  70  93 119 156 202 245 286
#     4  10  19  32  47  67  95 129 163 200 246 295
#     4  10  21  35  50  71 100 131 163 203 249 294
#     4   9  19  35  53  75 103 134 166 200 241 288
#     4  12  19  32  54  80  99 128 166 208 242 286
#     4   9  19  35  53  75 105 136 164 196 237 288
#
# _framework density 16.686553
#
# number of rings (size 3 to 8) (size 9 to 14) (size 15 to 20)
#    0.000    2.444    1.111    3.667    0.000    3.333 
#    0.000    0.000    0.000    0.000    0.000    9.333 
#    0.000    0.000    0.000    0.000    0.000    0.000 
#
# Total GULP energy -892671.315309 kJ/mol
# GULP energy per Si atom -12398.212713 kJ/mol
# Density = 1.664857 g / cm^3
# Si number density = 16.686553 Si / 1000 Ang^3
#
#
#
# Elastic Constant Matrix: (Units=GPa)
#
#
# Indices 1 2 3 4 5 6 
#
# 1 94.5836 68.9023 64.0657 0.0000 0.0000 0.0000
# 2 68.9023 94.5837 64.0657 0.0000 0.0000 0.0000
# 3 64.0657 64.0657 110.5197 0.0000 0.0000 0.0000
# 4 0.0000 0.0000 0.0000 28.8241 0.0000 0.0000
# 5 0.0000 0.0000 0.0000 0.0000 28.8240 0.0000
# 6 0.0000 0.0000 0.0000 0.0000 0.0000 28.9921
#
#
#
# Elastic Compliance Matrix: (Units=1/GPa)
#
#
# Indices 1 2 3 4 5 6 
#
# 1 0.025074 -0.013865 -0.006498 0.000000 0.000000 0.000000
# 2 -0.013865 0.025074 -0.006498 0.000000 0.000000 0.000000
# 3 -0.006498 -0.006498 0.016581 0.000000 0.000000 0.000000
# 4 0.000000 0.000000 0.000000 0.034693 0.000000 0.000000
# 5 0.000000 0.000000 0.000000 0.000000 0.034693 0.000000
# 6 0.000000 0.000000 0.000000 0.000000 0.000000 0.034492
#
#
# Mechanical properties :
#
#
# Convention : Reuss Voigt Hill
#
# Bulk Modulus (GPa) = 76.87037 77.08382 76.97709
# Shear Modulus (GPa) = 21.86604 24.17160 23.01882
#
# Velocity S-wave (km/s) = 3.62387 3.81013 3.71817
# Velocity P-wave (km/s) = 7.97980 8.10257 8.04142
#
# Compressibility (1/GPa) = 0.01300891
#
# Stress axis : x y z
#
# Youngs Moduli (GPa) = 39.88181 39.88193 60.30845
#
# Poissons Ratio (x) = 0.55295 0.39187
# Poissons Ratio (y) = 0.55295 0.39187
# Poissons Ratio (z) = 0.25915 0.25914
#
# Static dielectric constant tensor:
#      x y z
#    x 3.026980 0.000000 0.000000 
#    y 0.000000 3.026980 0.000000 
#    z 0.000000 0.000000 3.288420 
# 
# 
# High freq. dielectric constant tensor:
#      x y z
#    x 1.632060 0.000000 0.000000 
#    y 0.000000 1.632060 0.000000 
#    z 0.000000 0.000000 1.655190 
# 
# From -- ./inp_files/7440.got.cif
#   From: 2010.03.12/outbox.cif.g09.slc.cpg/sg129_4_cif.got.tgz:7440.got - 2010.04.06 17:19:44.
