data_PCOD8315469
_publ_section_title
;
Structure prediction by ZEFSAII (Michael W. Deem and Ramdas Pophale) SiO2 
 PCOD8315469
Probable space group: P 4/N C C
;
_chemical_formula_sum "Si O2"
_cell_formula_units_Z 120
_cell_length_a 20.778641
_cell_length_b 20.778641
_cell_length_c 13.700758
_cell_angle_alpha 90.000000
_cell_angle_beta 90.000000
_cell_angle_gamma 90.000000
_cell_volume 5915.328597
_symmetry_space_group_name_H-M "P 4/N C C"
_symmetry_group_IT_number 130
_symmetry_cell_setting 'tetragonal'
loop_
_space_group_symop_operation_xyz
x,y,z
1/2-y,x,z
1/2-x,1/2-y,z
y,1/2-x,z
1/2+x,-y,1/2-z
-x,1/2+y,1/2-z
1/2+y,1/2+x,1/2-z
-y,-x,1/2-z
-x,-y,-z
1/2+y,-x,-z
1/2+x,1/2+y,-z
-y,1/2+x,-z
1/2-x,y,1/2+z
x,1/2-y,1/2+z
1/2-y,1/2-x,1/2+z
y,x,1/2+z
loop_
_atom_site_type_symbol
_atom_site_label
_atom_site_fract_x
_atom_site_fract_y
_atom_site_fract_z
Si Si1 0.962008 0.546042 0.643252
Si Si2 0.036185 0.279724 0.117155
Si Si3 0.119129 0.870984 0.559798
Si Si4 0.356177 0.261702 0.981318
Si Si5 0.569582 0.263315 0.972777
Si Si6 0.073381 0.926620 0.750000
Si Si7 0.497893 0.416168 0.557297
Si Si8 0.959866 0.805809 0.166138
O O1 0.916048 0.499290 0.707682
O O2 0.945114 0.547316 0.527791
O O3 0.952675 0.617761 0.683156
O O4 0.033856 0.513296 0.646302
O O5 0.042131 0.356076 0.097836
O O6 0.033492 0.268266 0.232266
O O7 0.097171 0.239982 0.075372
O O8 0.970574 0.256185 0.068191
O O9 0.104228 0.796376 0.579703
O O10 0.187623 0.875734 0.507180
O O11 0.121422 0.911480 0.660681
O O12 0.066609 0.899204 0.487103
O O13 0.306440 0.320124 0.982227
O O14 0.399299 0.271594 0.885281
O O15 0.524566 0.296770 0.893890
#
# Coordination Sequence:
#
# PCOD8315469 Si02
#       8
#    16  16  16  16  16   8  16  16
#     4  10  18  34  59  96 131 159 197 262 327 390
#     4  10  22  38  60  89 119 160 212 262 320 378
#     4  10  21  41  61  87 127 171 210 260 318 385
#     4  10  23  44  61  83 125 172 219 269 315 380
#     4  10  23  42  62  88 127 168 207 269 320 387
#     4  10  22  34  64  99 126 164 209 268 326 396
#     4   9  18  35  58  90 129 162 196 250 328 379
#     4  11  22  39  63  96 123 167 215 266 326 391
#
# _framework density 20.286277999999999
#
# number of rings (size 3 to 8) (size 9 to 14) (size 15 to 20)
#    0.000    2.000    1.333    1.600    1.867    2.400 
#    4.800    1.333    0.000    0.800    0.000    0.000 
#    0.000    0.000    0.000    0.000    0.000    0.000 
#
# Total GULP energy -1487792.656741 kJ/mol
# GULP energy per Si atom -12398.272140 kJ/mol
# Density = 2.024011 g / cm^3
# Si number density = 20.286278 Si / 1000 Ang^3
#
#
#
# Elastic Constant Matrix: (Units=GPa)
#
#
# Indices 1 2 3 4 5 6 
#
# 1 85.0788 39.5774 28.9213 0.0000 0.0000 0.0000
# 2 39.5774 85.0784 28.9217 0.0000 0.0000 0.0000
# 3 28.9213 28.9217 107.7216 0.0000 0.0000 0.0000
# 4 0.0000 0.0000 0.0000 22.4455 0.0000 0.0000
# 5 0.0000 0.0000 0.0000 0.0000 22.4453 0.0000
# 6 0.0000 0.0000 0.0000 0.0000 0.0000 30.6549
#
#
#
# Elastic Compliance Matrix: (Units=1/GPa)
#
#
# Indices 1 2 3 4 5 6 
#
# 1 0.015571 -0.006407 -0.002460 0.000000 0.000000 0.000000
# 2 -0.006407 0.015571 -0.002460 0.000000 0.000000 0.000000
# 3 -0.002460 -0.002460 0.010604 0.000000 0.000000 0.000000
# 4 0.000000 0.000000 0.000000 0.044552 0.000000 0.000000
# 5 0.000000 0.000000 0.000000 0.000000 0.044553 0.000000
# 6 0.000000 0.000000 0.000000 0.000000 0.000000 0.032621
#
#
# Mechanical properties :
#
#
# Convention : Reuss Voigt Hill
#
# Bulk Modulus (GPa) = 52.38212 52.52441 52.45326
# Shear Modulus (GPa) = 25.97534 27.13970 26.55752
#
# Velocity S-wave (km/s) = 3.58220 3.66161 3.62213
# Velocity P-wave (km/s) = 6.55645 6.61999 6.58830
#
# Compressibility (1/GPa) = 0.01909048
#
# Stress axis : x y z
#
# Youngs Moduli (GPa) = 64.22388 64.22337 94.30142
#
# Poissons Ratio (x) = 0.41147 0.23201
# Poissons Ratio (y) = 0.41147 0.23202
# Poissons Ratio (z) = 0.15801 0.15801
#
# Static dielectric constant tensor:
#      x y z
#    x 3.632940 0.000000 0.000000 
#    y 0.000000 3.632930 0.000000 
#    z 0.000000 0.000000 3.665130 
# 
# 
# High freq. dielectric constant tensor:
#      x y z
#    x 1.784980 0.000000 0.000000 
#    y 0.000000 1.784980 0.000000 
#    z 0.000000 0.000000 1.792930 
# 
# From -- ./inp_files/2580.got.cif
#   From: 2010.03.12/outbox.cif.g09.slc.cpg/sg130_2_cif.got.tgz:2580.got - 2010.04.06 17:30:23.
