data_PCOD8315330
_publ_section_title
;
Structure prediction by ZEFSAII (Michael W. Deem and Ramdas Pophale) SiO2 
 PCOD8315330
Probable space group: P 4/N M M
;
_chemical_formula_sum "Si O2"
_cell_formula_units_Z 128
_cell_length_a 18.970750
_cell_length_b 18.970750
_cell_length_c 20.034551
_cell_angle_alpha 90.000000
_cell_angle_beta 90.000000
_cell_angle_gamma 90.000000
_cell_volume 7210.221648
_symmetry_space_group_name_H-M "P 4/N M M"
_symmetry_group_IT_number 129
_symmetry_cell_setting 'tetragonal'
loop_
_space_group_symop_operation_xyz
x,y,z
1/2-y,x,z
1/2-x,1/2-y,z
y,1/2-x,z
1/2+x,-y,-z
-x,1/2+y,-z
1/2+y,1/2+x,-z
-y,-x,-z
-x,-y,-z
1/2+y,-x,-z
1/2+x,1/2+y,-z
-y,1/2+x,-z
1/2-x,y,z
x,1/2-y,z
1/2-y,1/2-x,z
y,x,z
loop_
_atom_site_type_symbol
_atom_site_label
_atom_site_fract_x
_atom_site_fract_y
_atom_site_fract_z
Si Si1 0.551744 0.831261 0.650502
Si Si2 0.946653 0.669020 0.389791
Si Si3 0.669034 0.441566 0.759577
Si Si4 0.945888 0.330405 0.722372
Si Si5 0.169455 0.540007 0.948746
Si Si6 0.889414 0.005003 0.521560
Si Si7 0.557507 0.830363 0.161792
Si Si8 0.081064 0.830467 0.909268
O O1 0.575670 0.750000 0.648066
O O2 0.621792 0.878209 0.643604
O O3 0.513192 0.849171 0.720251
O O4 0.495704 0.846074 0.590783
O O5 0.925705 0.750000 0.375476
O O6 0.878398 0.621603 0.374704
O O7 0.972244 0.660940 0.465441
O O8 0.010938 0.644667 0.342731
O O9 0.750000 0.419882 0.747186
O O10 0.622701 0.377911 0.731529
O O11 0.655005 0.456475 0.838338
O O12 0.920262 0.250000 0.714419
O O13 0.996278 0.339673 0.784970
O O14 0.250000 0.541777 0.928451
O O15 0.138187 0.473747 0.907944
O O16 0.143700 0.615157 0.921044
O O17 0.157206 0.527707 0.028073
O O18 0.958055 0.958055 0.533297
O O19 0.916653 0.083348 0.500000
O O20 0.583396 0.750000 0.156361
O O21 0.624839 0.875162 0.183416
O O22 0.110317 0.750000 0.911972
#
# Coordination Sequence:
#
# PCOD8315330 Si02
#       8
#    16  16  16  16  16  16  16  16
#     4  10  21  36  54  77 105 138 179 224 267 310
#     4  10  20  33  51  75 103 136 175 218 263 311
#     4  10  20  34  52  77 106 136 171 211 255 308
#     4  10  20  34  51  74 103 135 169 206 251 305
#     4   9  17  31  49  72 102 133 164 203 252 308
#     4   9  17  31  52  76 101 131 167 207 254 308
#     4  10  20  34  51  70  96 130 168 211 254 299
#     4   9  17  30  49  73 104 134 163 203 250 307
#
# _framework density 17.752575
#
# number of rings (size 3 to 8) (size 9 to 14) (size 15 to 20)
#    0.000    2.375    1.250    1.500    0.000    2.875 
#    0.000    4.375    0.000    4.500    0.000    0.000 
#    0.000   14.000    0.000    0.000    0.000    0.000 
#
# Total GULP energy -1586521.857474 kJ/mol
# GULP energy per Si atom -12394.702012 kJ/mol
# Density = 1.771217 g / cm^3
# Si number density = 17.752575 Si / 1000 Ang^3
#
#
#
# Elastic Constant Matrix: (Units=GPa)
#
#
# Indices 1 2 3 4 5 6 
#
# 1 69.8432 45.5630 31.5401 0.0000 0.0000 0.0000
# 2 45.5630 69.8428 31.5398 0.0000 0.0000 0.0000
# 3 31.5401 31.5398 117.2763 0.0000 0.0000 0.0000
# 4 0.0000 0.0000 0.0000 22.1288 0.0000 0.0000
# 5 0.0000 0.0000 0.0000 0.0000 22.1290 0.0000
# 6 0.0000 0.0000 0.0000 0.0000 0.0000 23.9976
#
#
#
# Elastic Compliance Matrix: (Units=1/GPa)
#
#
# Indices 1 2 3 4 5 6 
#
# 1 0.025672 -0.015514 -0.002732 0.000000 0.000000 0.000000
# 2 -0.015514 0.025672 -0.002732 0.000000 0.000000 0.000000
# 3 -0.002732 -0.002732 0.009996 0.000000 0.000000 0.000000
# 4 0.000000 0.000000 0.000000 0.045190 0.000000 0.000000
# 5 0.000000 0.000000 0.000000 0.000000 0.045190 0.000000
# 6 0.000000 0.000000 0.000000 0.000000 0.000000 0.041671
#
#
# Mechanical properties :
#
#
# Convention : Reuss Voigt Hill
#
# Bulk Modulus (GPa) = 51.58586 52.69424 52.14005
# Shear Modulus (GPa) = 20.67752 23.53904 22.10828
#
# Velocity S-wave (km/s) = 3.41656 3.64531 3.53279
# Velocity P-wave (km/s) = 6.68470 6.88947 6.78785
#
# Compressibility (1/GPa) = 0.01938516
#
# Stress axis : x y z
#
# Youngs Moduli (GPa) = 38.95268 38.95248 100.03682
#
# Poissons Ratio (x) = 0.60431 0.27330
# Poissons Ratio (y) = 0.60431 0.27329
# Poissons Ratio (z) = 0.10642 0.10642
#
# Static dielectric constant tensor:
#      x y z
#    x 3.140330 0.000000 0.000000 
#    y 0.000000 3.140330 0.000000 
#    z 0.000000 0.000000 3.655100 
# 
# 
# High freq. dielectric constant tensor:
#      x y z
#    x 1.668940 0.000000 0.000000 
#    y 0.000000 1.668940 0.000000 
#    z 0.000000 0.000000 1.707580 
# 
# From -- ./inp_files/6140.got.cif
#   From: 2010.03.12/outbox.cif.g09.slc.cpg/sg129_4_cif.got.tgz:6140.got - 2010.04.06 17:19:44.
