data_PCOD8315761
_publ_section_title
;
Structure prediction by ZEFSAII (Michael W. Deem and Ramdas Pophale) SiO2 
 PCOD8315761
Probable space group: P 42/M M C
;
_chemical_formula_sum "Si O2"
_cell_formula_units_Z 112
_cell_length_a 14.850273
_cell_length_b 14.850273
_cell_length_c 27.484708
_cell_angle_alpha 90.000000
_cell_angle_beta 90.000000
_cell_angle_gamma 90.000000
_cell_volume 6061.219371
_symmetry_space_group_name_H-M "P 42/M M C"
_symmetry_group_IT_number 131
_symmetry_cell_setting 'tetragonal'
loop_
_space_group_symop_operation_xyz
x,y,z
-x,-y,z
-y,x,1/2+z
y,-x,1/2+z
-x,y,-z
x,-y,-z
y,x,1/2-z
-y,-x,1/2-z
-x,-y,-z
x,y,-z
y,-x,1/2-z
-y,x,1/2-z
x,-y,z
-x,y,z
-y,-x,1/2+z
y,x,1/2+z
loop_
_atom_site_type_symbol
_atom_site_label
_atom_site_fract_x
_atom_site_fract_y
_atom_site_fract_z
Si Si1 0.899814 0.292301 0.944580
Si Si2 0.255731 0.393430 0.891061
Si Si3 0.901789 0.840868 0.444713
Si Si4 0.398846 0.725508 0.944951
Si Si5 0.899682 0.395051 0.714850
Si Si6 0.733997 0.395249 0.777924
Si Si7 0.899057 0.656537 0.608094
O O1 0.835847 0.347296 0.908877
O O2 0.903367 0.184405 0.934168
O O3 0.000000 0.329389 0.935908
O O4 0.868524 0.309994 0.000000
O O5 0.253130 0.500000 0.901799
O O6 0.339380 0.348401 0.917940
O O7 0.266799 0.371617 0.834495
O O8 0.897311 0.804471 0.500000
O O9 0.893513 0.758853 0.408085
O O10 0.000000 0.889436 0.436607
O O11 0.500000 0.688136 0.943703
O O12 0.399401 0.823983 0.920541
O O13 0.363124 0.735434 0.000000
O O14 0.890927 0.500000 0.702801
O O15 0.830459 0.364779 0.756506
O O16 0.876809 0.343000 0.665268
O O17 0.000000 0.371318 0.733636
O O18 0.654818 0.345183 0.750000
O O19 0.716949 0.500000 0.769014
O O20 0.000000 0.616566 0.598644
#
# Coordination Sequence:
#
# PCOD8315761 Si02
#       7
#    16  16  16  16  16  16  16
#     4  10  21  37  58  84 113 147 189 234 280 330
#     4  11  24  41  59  79 108 145 186 238 290 331
#     4   9  17  30  51  80 114 150 184 220 267 325
#     4  11  23  37  55  80 112 150 188 225 268 328
#     4   9  18  33  53  78 108 140 176 219 265 320
#     4  10  22  38  58  83 108 138 178 226 281 337
#     4  10  18  30  53  83 115 149 179 213 265 326
#
# _framework density 18.478128999999999
#
# number of rings (size 3 to 8) (size 9 to 14) (size 15 to 20)
#    0.000    2.000    1.429    2.143    0.000    6.143 
#    0.000    6.429    0.000    0.000    0.000    0.000 
#    0.000    0.286    0.000    0.000    0.000    0.000 
#
# Total GULP energy -1388457.233736 kJ/mol
# GULP energy per Si atom -12396.939587 kJ/mol
# Density = 1.843607 g / cm^3
# Si number density = 18.478129 Si / 1000 Ang^3
#
#
#
# Elastic Constant Matrix: (Units=GPa)
#
#
# Indices 1 2 3 4 5 6 
#
# 1 100.0650 47.7179 57.2879 0.0000 0.0000 0.0000
# 2 47.7179 100.0612 57.2878 0.0000 0.0000 0.0000
# 3 57.2879 57.2878 111.8624 0.0000 0.0000 0.0000
# 4 0.0000 0.0000 0.0000 50.6577 0.0000 0.0000
# 5 0.0000 0.0000 0.0000 0.0000 50.6575 0.0000
# 6 0.0000 0.0000 0.0000 0.0000 0.0000 18.6423
#
#
#
# Elastic Compliance Matrix: (Units=1/GPa)
#
#
# Indices 1 2 3 4 5 6 
#
# 1 0.015163 -0.003941 -0.005747 0.000000 0.000000 0.000000
# 2 -0.003941 0.015164 -0.005748 0.000000 0.000000 0.000000
# 3 -0.005747 -0.005748 0.014827 0.000000 0.000000 0.000000
# 4 0.000000 0.000000 0.000000 0.019740 0.000000 0.000000
# 5 0.000000 0.000000 0.000000 0.000000 0.019740 0.000000
# 6 0.000000 0.000000 0.000000 0.000000 0.000000 0.053641
#
#
# Mechanical properties :
#
#
# Convention : Reuss Voigt Hill
#
# Bulk Modulus (GPa) = 70.01779 70.73064 70.37421
# Shear Modulus (GPa) = 28.75094 33.97119 31.36107
#
# Velocity S-wave (km/s) = 3.94883 4.29237 4.12418
# Velocity P-wave (km/s) = 7.66586 7.93266 7.80040
#
# Compressibility (1/GPa) = 0.01428209
#
# Stress axis : x y z
#
# Youngs Moduli (GPa) = 65.94995 65.94648 67.44675
#
# Poissons Ratio (x) = 0.25986 0.38764
# Poissons Ratio (y) = 0.25988 0.38767
# Poissons Ratio (z) = 0.37904 0.37904
#
# Static dielectric constant tensor:
#      x y z
#    x 3.422640 0.000000 0.000000 
#    y 0.000000 3.422640 0.000000 
#    z 0.000000 0.000000 3.407660 
# 
# 
# High freq. dielectric constant tensor:
#      x y z
#    x 1.715320 0.000000 0.000000 
#    y 0.000000 1.715320 0.000000 
#    z 0.000000 0.000000 1.713330 
# 
# From -- ./inp_files/11293.got.cif
#   From: 2010.03.12/outbox.cif.g09.slc.cpg/sg131_6_cif.got.tgz:11293.got - 2010.04.06 17:36:35.
