data_PCOD8315962
_publ_section_title
;
Structure prediction by ZEFSAII (Michael W. Deem and Ramdas Pophale) SiO2 
 PCOD8315962
Probable space group: P 42/M M C
;
_chemical_formula_sum "Si O2"
_cell_formula_units_Z 48
_cell_length_a 8.141308
_cell_length_b 8.141308
_cell_length_c 33.990971
_cell_angle_alpha 90.000000
_cell_angle_beta 90.000000
_cell_angle_gamma 90.000000
_cell_volume 2252.952012
_symmetry_space_group_name_H-M "P 42/M M C"
_symmetry_group_IT_number 131
_symmetry_cell_setting 'tetragonal'
loop_
_space_group_symop_operation_xyz
x,y,z
-x,-y,z
-y,x,1/2+z
y,-x,1/2+z
-x,y,-z
x,-y,-z
y,x,1/2-z
-y,-x,1/2-z
-x,-y,-z
x,y,-z
y,-x,1/2-z
-y,x,1/2-z
x,-y,z
-x,y,z
-y,-x,1/2+z
y,x,1/2+z
loop_
_atom_site_type_symbol
_atom_site_label
_atom_site_fract_x
_atom_site_fract_y
_atom_site_fract_z
Si Si1 0.316246 0.683755 0.250000
Si Si2 0.186936 0.815694 0.327400
Si Si3 0.804230 0.000000 0.955341
Si Si4 0.195707 0.317211 0.908450
O O1 0.500000 0.713745 0.265121
O O2 0.200886 0.714066 0.287339
O O3 0.292759 0.741990 0.363502
O O4 0.000000 0.812889 0.342008
O O5 0.245288 0.000000 0.317670
O O6 0.734663 0.831689 0.935389
O O7 0.000000 0.000000 0.953066
O O8 0.741299 0.000000 0.000000
O O9 0.253534 0.500000 0.922901
O O10 0.000000 0.307076 0.908935
#
# Coordination Sequence:
#
# PCOD8315962 Si02
#       4
#     8  16   8  16
#     4  11  24  37  48  70 104 135 168 215 264 314
#     4  10  19  33  53  74  97 130 175 219 261 319
#     4   9  16  26  40  64  99 135 175 223 273 335
#     4   9  16  27  44  66  95 133 174 219 272 329
#
# _framework density 21.305378999999999
#
# number of rings (size 3 to 8) (size 9 to 14) (size 15 to 20)
#    0.000    2.333    1.667    2.000    0.000    6.000 
#    0.000    3.333    0.000    0.000    0.000    0.000 
#    0.000    2.667    0.000    7.000    0.000    6.667 
#
# Total GULP energy -594921.885948 kJ/mol
# GULP energy per Si atom -12394.205957 kJ/mol
# Density = 2.125689 g / cm^3
# Si number density = 21.305379 Si / 1000 Ang^3
#
#
#
# Elastic Constant Matrix: (Units=GPa)
#
#
# Indices 1 2 3 4 5 6 
#
# 1 84.3257 21.0731 43.9658 0.0000 0.0000 0.0000
# 2 21.0731 84.3256 43.9662 0.0000 0.0000 0.0000
# 3 43.9658 43.9662 148.4606 0.0000 0.0000 0.0000
# 4 0.0000 0.0000 0.0000 10.7552 0.0000 0.0000
# 5 0.0000 0.0000 0.0000 0.0000 10.7545 0.0000
# 6 0.0000 0.0000 0.0000 0.0000 0.0000 11.0873
#
#
#
# Elastic Compliance Matrix: (Units=1/GPa)
#
#
# Indices 1 2 3 4 5 6 
#
# 1 0.014205 -0.001604 -0.003732 0.000000 0.000000 0.000000
# 2 -0.001604 0.014205 -0.003732 0.000000 0.000000 0.000000
# 3 -0.003732 -0.003732 0.008946 0.000000 0.000000 0.000000
# 4 0.000000 0.000000 0.000000 0.092978 0.000000 0.000000
# 5 0.000000 0.000000 0.000000 0.000000 0.092985 0.000000
# 6 0.000000 0.000000 0.000000 0.000000 0.000000 0.090194
#
#
# Mechanical properties :
#
#
# Convention : Reuss Voigt Hill
#
# Bulk Modulus (GPa) = 52.02575 59.45801 55.74188
# Shear Modulus (GPa) = 14.79044 20.39317 17.59181
#
# Velocity S-wave (km/s) = 2.63765 3.09720 2.87661
# Velocity P-wave (km/s) = 5.80933 6.38422 6.10355
#
# Compressibility (1/GPa) = 0.01922125
#
# Stress axis : x y z
#
# Youngs Moduli (GPa) = 70.39603 70.39575 111.78066
#
# Poissons Ratio (x) = 0.11293 0.41714
# Poissons Ratio (y) = 0.11293 0.41714
# Poissons Ratio (z) = 0.26270 0.26270
#
# Static dielectric constant tensor:
#      x y z
#    x 3.644330 0.000000 0.000000 
#    y 0.000000 3.644340 0.000000 
#    z 0.000000 0.000000 3.725290 
# 
# 
# High freq. dielectric constant tensor:
#      x y z
#    x 1.810230 0.000000 0.000000 
#    y 0.000000 1.810230 0.000000 
#    z 0.000000 0.000000 1.831400 
# 
# From -- ./inp_files/12886.got.cif
#   From: 2010.03.12/outbox.cif.g09.slc.cpg/sg131_7_cif.got.tgz:12886.got - 2010.04.06 17:36:35.
