data_PCOD8315404
_publ_section_title
;
Structure prediction by ZEFSAII (Michael W. Deem and Ramdas Pophale) SiO2 
 PCOD8315404
Probable space group: P 4/N M M
;
_chemical_formula_sum "Si O2"
_cell_formula_units_Z 72
_cell_length_a 13.324014
_cell_length_b 13.324014
_cell_length_c 23.199465
_cell_angle_alpha 90.000000
_cell_angle_beta 90.000000
_cell_angle_gamma 90.000000
_cell_volume 4118.585920
_symmetry_space_group_name_H-M "P 4/N M M"
_symmetry_group_IT_number 129
_symmetry_cell_setting 'tetragonal'
loop_
_space_group_symop_operation_xyz
x,y,z
1/2-y,x,z
1/2-x,1/2-y,z
y,1/2-x,z
1/2+x,-y,-z
-x,1/2+y,-z
1/2+y,1/2+x,-z
-y,-x,-z
-x,-y,-z
1/2+y,-x,-z
1/2+x,1/2+y,-z
-y,1/2+x,-z
1/2-x,y,z
x,1/2-y,z
1/2-y,1/2-x,z
y,x,z
loop_
_atom_site_type_symbol
_atom_site_label
_atom_site_fract_x
_atom_site_fract_y
_atom_site_fract_z
Si Si1 0.866154 0.133847 0.000000
Si Si2 0.132889 0.968610 0.659873
Si Si3 0.364865 0.977868 0.110012
Si Si4 0.632189 0.467566 0.553377
Si Si5 0.866803 0.030390 0.761523
O O1 0.913081 0.088598 0.941211
O O2 0.750000 0.110128 0.002987
O O3 0.250000 0.991400 0.651557
O O4 0.093168 0.894012 0.610896
O O5 0.115613 0.912750 0.720564
O O6 0.074578 0.074578 0.657019
O O7 0.250000 0.995761 0.096880
O O8 0.381266 0.928322 0.173087
O O9 0.412949 0.087052 0.109272
O O10 0.602306 0.397695 0.500000
O O11 0.750000 0.491740 0.551683
O O12 0.573260 0.573260 0.550884
O O13 0.750000 0.010685 0.747702
O O14 0.925431 0.925431 0.751484
#
# Coordination Sequence:
#
# PCOD8315404 Si02
#       5
#     8  16  16  16  16
#     4   9  17  28  42  62  87 115 150 190 230 273
#     4  10  21  36  53  74  99 127 162 202 242 287
#     4   9  17  29  45  65  90 119 150 186 228 274
#     4  10  21  36  54  78 106 135 169 206 244 289
#     4   9  18  31  47  70  97 124 157 194 234 284
#
# _framework density 17.481728
#
# number of rings (size 3 to 8) (size 9 to 14) (size 15 to 20)
#    0.000    2.556    0.000    1.667    0.000    4.667 
#    0.000    4.444    0.000    8.000    0.000    0.000 
#    0.000    5.333    0.000    0.000    0.000    0.000 
#
# Total GULP energy -892526.442138 kJ/mol
# GULP energy per Si atom -12396.200585 kJ/mol
# Density = 1.744194 g / cm^3
# Si number density = 17.481728 Si / 1000 Ang^3
#
#
#
# Elastic Constant Matrix: (Units=GPa)
#
#
# Indices 1 2 3 4 5 6 
#
# 1 101.2508 46.2991 49.5910 0.0000 0.0000 0.0000
# 2 46.2991 101.2510 49.5905 0.0000 0.0000 0.0000
# 3 49.5910 49.5905 130.1433 0.0000 0.0000 0.0000
# 4 0.0000 0.0000 0.0000 24.7811 0.0000 0.0000
# 5 0.0000 0.0000 0.0000 0.0000 24.7816 0.0000
# 6 0.0000 0.0000 0.0000 0.0000 0.0000 14.9394
#
#
#
# Elastic Compliance Matrix: (Units=1/GPa)
#
#
# Indices 1 2 3 4 5 6 
#
# 1 0.013654 -0.004543 -0.003472 0.000000 0.000000 0.000000
# 2 -0.004543 0.013654 -0.003472 0.000000 0.000000 0.000000
# 3 -0.003472 -0.003472 0.010330 0.000000 0.000000 0.000000
# 4 0.000000 0.000000 0.000000 0.040353 0.000000 0.000000
# 5 0.000000 0.000000 0.000000 0.000000 0.040352 0.000000
# 6 0.000000 0.000000 0.000000 0.000000 0.000000 0.066937
#
#
# Mechanical properties :
#
#
# Convention : Reuss Voigt Hill
#
# Bulk Modulus (GPa) = 68.19072 69.28959 68.74015
# Shear Modulus (GPa) = 23.45839 25.37805 24.41822
#
# Velocity S-wave (km/s) = 3.66714 3.81424 3.74141
# Velocity P-wave (km/s) = 7.55130 7.68891 7.62042
#
# Compressibility (1/GPa) = 0.01466475
#
# Stress axis : x y z
#
# Youngs Moduli (GPa) = 73.23622 73.23672 96.80894
#
# Poissons Ratio (x) = 0.33274 0.33610
# Poissons Ratio (y) = 0.33274 0.33609
# Poissons Ratio (z) = 0.25426 0.25425
#
# Static dielectric constant tensor:
#      x y z
#    x 3.101580 0.000000 0.000000 
#    y 0.000000 3.101570 0.000000 
#    z 0.000000 0.000000 3.689380 
# 
# 
# High freq. dielectric constant tensor:
#      x y z
#    x 1.661570 0.000000 0.000000 
#    y 0.000000 1.661570 0.000000 
#    z 0.000000 0.000000 1.701240 
# 
# From -- ./inp_files/7394.got.cif
#   From: 2010.03.12/outbox.cif.g09.slc.cpg/sg129_4_cif.got.tgz:7394.got - 2010.04.06 17:19:44.
