data_PCOD8315836
_publ_section_title
;
Structure prediction by ZEFSAII (Michael W. Deem and Ramdas Pophale) SiO2 
 PCOD8315836
Probable space group: P 42/M M C
;
_chemical_formula_sum "Si O2"
_cell_formula_units_Z 96
_cell_length_a 14.114581
_cell_length_b 14.114581
_cell_length_c 31.097377
_cell_angle_alpha 90.000000
_cell_angle_beta 90.000000
_cell_angle_gamma 90.000000
_cell_volume 6195.262883
_symmetry_space_group_name_H-M "P 42/M M C"
_symmetry_group_IT_number 131
_symmetry_cell_setting 'tetragonal'
loop_
_space_group_symop_operation_xyz
x,y,z
-x,-y,z
-y,x,1/2+z
y,-x,1/2+z
-x,y,-z
x,-y,-z
y,x,1/2-z
-y,-x,1/2-z
-x,-y,-z
x,y,-z
y,-x,1/2-z
-y,x,1/2-z
x,-y,z
-x,y,z
-y,-x,1/2+z
y,x,1/2+z
loop_
_atom_site_type_symbol
_atom_site_label
_atom_site_fract_x
_atom_site_fract_y
_atom_site_fract_z
Si Si1 0.387910 0.287985 0.869343
Si Si2 0.393922 0.612433 0.547288
Si Si3 0.388684 0.292012 0.290556
Si Si4 0.893582 0.103128 0.692424
Si Si5 0.105613 0.700233 0.336003
Si Si6 0.104714 0.302906 0.764424
O O1 0.500000 0.296782 0.864369
O O2 0.351009 0.322884 0.915882
O O3 0.340393 0.353978 0.833918
O O4 0.357502 0.178773 0.864925
O O5 0.359963 0.648088 0.500000
O O6 0.395787 0.500000 0.547757
O O7 0.500000 0.650544 0.556671
O O8 0.340219 0.340219 0.250000
O O9 0.500000 0.304397 0.286455
O O10 0.360708 0.181123 0.292157
O O11 0.882049 0.186163 0.656881
O O12 0.809594 0.111663 0.727310
O O13 0.000000 0.115487 0.714167
O O14 0.888082 0.000000 0.669512
O O15 0.125924 0.680035 0.285814
O O16 0.000000 0.667010 0.348999
O O17 0.000000 0.341390 0.776449
#
# Coordination Sequence:
#
# PCOD8315836 Si02
#       6
#    16  16  16  16  16  16
#     4  11  21  33  48  67  93 126 161 195 235 279
#     4   8  15  30  52  74  91 110 146 199 251 290
#     4  12  23  34  45  63  92 127 165 198 231 272
#     4   9  16  27  46  68  88 116 158 207 251 281
#     4  10  19  30  44  64  92 124 160 194 231 281
#     4  10  19  32  47  63  90 126 162 199 238 277
#
# _framework density 15.495711
#
# number of rings (size 3 to 8) (size 9 to 14) (size 15 to 20)
#    0.000    2.000    3.333    2.000    0.000    4.500 
#    0.000    6.667    0.000    0.500    0.000    2.333 
#    0.000    2.667    0.000   13.333    0.000    1.000 
#
# Total GULP energy -1189628.205109 kJ/mol
# GULP energy per Si atom -12391.960470 kJ/mol
# Density = 1.546044 g / cm^3
# Si number density = 15.495711 Si / 1000 Ang^3
#
#
#
# Elastic Constant Matrix: (Units=GPa)
#
#
# Indices 1 2 3 4 5 6 
#
# 1 90.9415 36.4353 43.9019 0.0000 0.0000 0.0000
# 2 36.4353 90.9415 43.9019 0.0000 0.0000 0.0000
# 3 43.9019 43.9019 94.7095 0.0000 0.0000 0.0000
# 4 0.0000 0.0000 0.0000 6.7225 0.0000 0.0000
# 5 0.0000 0.0000 0.0000 0.0000 6.7225 0.0000
# 6 0.0000 0.0000 0.0000 0.0000 0.0000 21.1077
#
#
#
# Elastic Compliance Matrix: (Units=1/GPa)
#
#
# Indices 1 2 3 4 5 6 
#
# 1 0.014942 -0.003405 -0.005348 0.000000 0.000000 0.000000
# 2 -0.003405 0.014942 -0.005348 0.000000 0.000000 0.000000
# 3 -0.005348 -0.005348 0.015517 0.000000 0.000000 0.000000
# 4 0.000000 0.000000 0.000000 0.148754 0.000000 0.000000
# 5 0.000000 0.000000 0.000000 0.000000 0.148754 0.000000
# 6 0.000000 0.000000 0.000000 0.000000 0.000000 0.047376
#
#
# Mechanical properties :
#
#
# Convention : Reuss Voigt Hill
#
# Bulk Modulus (GPa) = 58.14251 58.34117 58.24184
# Shear Modulus (GPa) = 11.78639 17.06745 14.42692
#
# Velocity S-wave (km/s) = 2.76093 3.32238 3.05458
# Velocity P-wave (km/s) = 6.91135 7.24218 7.07870
#
# Compressibility (1/GPa) = 0.01719912
#
# Stress axis : x y z
#
# Youngs Moduli (GPa) = 66.92602 66.92602 64.44689
#
# Poissons Ratio (x) = 0.22786 0.34466
# Poissons Ratio (y) = 0.22786 0.34466
# Poissons Ratio (z) = 0.35792 0.35792
#
# Static dielectric constant tensor:
#      x y z
#    x 3.112200 0.000000 0.000000 
#    y 0.000000 3.112200 0.000000 
#    z 0.000000 0.000000 2.806460 
# 
# 
# High freq. dielectric constant tensor:
#      x y z
#    x 1.598420 0.000000 0.000000 
#    y 0.000000 1.598420 0.000000 
#    z 0.000000 0.000000 1.541000 
# 
# From -- ./inp_files/13690.got.cif
#   From: 2010.03.12/outbox.cif.g09.slc.cpg/sg131_7_cif.got.tgz:13690.got - 2010.04.06 17:36:35.
