data_PCOD8315061
_publ_section_title
;
Structure prediction by ZEFSAII (Michael W. Deem and Ramdas Pophale) SiO2 
 PCOD8315061
Probable space group: P 4/N M M
;
_chemical_formula_sum "Si O2"
_cell_formula_units_Z 112
_cell_length_a 13.743230
_cell_length_b 13.743230
_cell_length_c 35.269508
_cell_angle_alpha 90.000000
_cell_angle_beta 90.000000
_cell_angle_gamma 90.000000
_cell_volume 6661.576672
_symmetry_space_group_name_H-M "P 4/N M M"
_symmetry_group_IT_number 129
_symmetry_cell_setting 'tetragonal'
loop_
_space_group_symop_operation_xyz
x,y,z
1/2-y,x,z
1/2-x,1/2-y,z
y,1/2-x,z
1/2+x,-y,-z
-x,1/2+y,-z
1/2+y,1/2+x,-z
-y,-x,-z
-x,-y,-z
1/2+y,-x,-z
1/2+x,1/2+y,-z
-y,1/2+x,-z
1/2-x,y,z
x,1/2-y,z
1/2-y,1/2-x,z
y,x,z
loop_
_atom_site_type_symbol
_atom_site_label
_atom_site_fract_x
_atom_site_fract_y
_atom_site_fract_z
Si Si1 0.978073 0.136162 0.672081
Si Si2 0.860768 0.362448 0.893719
Si Si3 0.362823 0.638730 0.746658
Si Si4 0.138006 0.980596 0.386258
Si Si5 0.364417 0.976872 0.968876
Si Si6 0.639436 0.017951 0.526656
Si Si7 0.019283 0.636155 0.820152
O O1 0.000346 0.250000 0.669417
O O2 0.927951 0.106819 0.711511
O O3 0.905080 0.107422 0.638320
O O4 0.079909 0.079909 0.668302
O O5 0.750000 0.389314 0.905013
O O6 0.868377 0.250000 0.882768
O O7 0.931149 0.388878 0.928214
O O8 0.896063 0.421871 0.857304
O O9 0.250000 0.627645 0.756436
O O10 0.388374 0.750000 0.736320
O O11 0.420804 0.602841 0.783377
O O12 0.250000 0.998885 0.375526
O O13 0.080500 0.080500 0.377509
O O14 0.125853 0.949443 0.429911
O O15 0.250000 0.996773 0.974139
O O16 0.421006 0.078995 0.973247
O O17 0.399578 0.899578 0.000000
O O18 0.606556 0.106556 0.500000
O O19 0.750000 0.991376 0.517523
O O20 0.578114 0.921887 0.517046
O O21 0.999304 0.750000 0.819841
O O22 0.915371 0.584630 0.820110
#
# Coordination Sequence:
#
# PCOD8315061 Si02
#       7
#    16  16  16  16  16  16  16
#     4  10  20  33  49  69  94 124 157 193 232 275
#     4   9  17  30  49  71  92 116 151 194 235 273
#     4   9  17  30  49  71  91 113 147 191 236 278
#     4   9  18  32  50  72  96 122 153 190 233 279
#     4  10  20  33  50  72  97 125 157 193 234 280
#     4   9  18  32  49  70  96 124 155 192 232 275
#     4  10  19  30  45  65  92 124 154 186 224 268
#
# _framework density 16.812836000000001
#
# number of rings (size 3 to 8) (size 9 to 14) (size 15 to 20)
#    0.000    2.571    0.000    2.143    0.000    4.714 
#    0.000    2.857    0.000    0.000    0.000    8.000 
#    0.000   10.286    0.000    0.000    0.000    0.000 
#
# Total GULP energy -1388998.899610 kJ/mol
# GULP energy per Si atom -12401.775889 kJ/mol
# Density = 1.677457 g / cm^3
# Si number density = 16.812836 Si / 1000 Ang^3
#
#
#
# Elastic Constant Matrix: (Units=GPa)
#
#
# Indices 1 2 3 4 5 6 
#
# 1 90.1557 51.1905 57.2767 0.0000 0.0000 0.0000
# 2 51.1905 90.1557 57.2767 0.0000 0.0000 0.0000
# 3 57.2767 57.2767 105.0722 0.0000 0.0000 0.0000
# 4 0.0000 0.0000 0.0000 25.9102 0.0000 0.0000
# 5 0.0000 0.0000 0.0000 0.0000 25.9102 0.0000
# 6 0.0000 0.0000 0.0000 0.0000 0.0000 21.6067
#
#
#
# Elastic Compliance Matrix: (Units=1/GPa)
#
#
# Indices 1 2 3 4 5 6 
#
# 1 0.019169 -0.006495 -0.006909 0.000000 0.000000 0.000000
# 2 -0.006495 0.019169 -0.006909 0.000000 0.000000 0.000000
# 3 -0.006909 -0.006909 0.017050 0.000000 0.000000 0.000000
# 4 0.000000 0.000000 0.000000 0.038595 0.000000 0.000000
# 5 0.000000 0.000000 0.000000 0.000000 0.038595 0.000000
# 6 0.000000 0.000000 0.000000 0.000000 0.000000 0.046282
#
#
# Mechanical properties :
#
#
# Convention : Reuss Voigt Hill
#
# Bulk Modulus (GPa) = 67.74031 68.54128 68.14080
# Shear Modulus (GPa) = 22.28111 22.66139 22.47125
#
# Velocity S-wave (km/s) = 3.64434 3.67531 3.65986
# Velocity P-wave (km/s) = 7.62146 7.67243 7.64699
#
# Compressibility (1/GPa) = 0.01476226
#
# Stress axis : x y z
#
# Youngs Moduli (GPa) = 52.16760 52.16760 58.65253
#
# Poissons Ratio (x) = 0.33882 0.40522
# Poissons Ratio (y) = 0.33882 0.40522
# Poissons Ratio (z) = 0.36042 0.36042
#
# Static dielectric constant tensor:
#      x y z
#    x 3.048130 0.000000 0.000000 
#    y 0.000000 3.048130 0.000000 
#    z 0.000000 0.000000 3.287060 
# 
# 
# High freq. dielectric constant tensor:
#      x y z
#    x 1.641830 0.000000 0.000000 
#    y 0.000000 1.641830 0.000000 
#    z 0.000000 0.000000 1.660230 
# 
# From -- ./inp_files/7910.got.cif
#   From: 2010.03.12/outbox.cif.g09.slc.cpg/sg129_4_cif.got.tgz:7910.got - 2010.04.06 17:19:44.
