data_PCOD8315846
_publ_section_title
;
Structure prediction by ZEFSAII (Michael W. Deem and Ramdas Pophale) SiO2 
 PCOD8315846
Probable space group: P 42/M M C
;
_chemical_formula_sum "Si O2"
_cell_formula_units_Z 112
_cell_length_a 18.869844
_cell_length_b 18.869844
_cell_length_c 18.091055
_cell_angle_alpha 90.000000
_cell_angle_beta 90.000000
_cell_angle_gamma 90.000000
_cell_volume 6441.700273
_symmetry_space_group_name_H-M "P 42/M M C"
_symmetry_group_IT_number 131
_symmetry_cell_setting 'tetragonal'
loop_
_space_group_symop_operation_xyz
x,y,z
-x,-y,z
-y,x,1/2+z
y,-x,1/2+z
-x,y,-z
x,-y,-z
y,x,1/2-z
-y,-x,1/2-z
-x,-y,-z
x,y,-z
y,-x,1/2-z
-y,x,1/2-z
x,-y,z
-x,y,z
-y,-x,1/2+z
y,x,1/2+z
loop_
_atom_site_type_symbol
_atom_site_label
_atom_site_fract_x
_atom_site_fract_y
_atom_site_fract_z
Si Si1 0.420485 0.207957 0.415301
Si Si2 0.918783 0.818227 0.085743
Si Si3 0.078334 0.795908 0.586694
Si Si4 0.833215 0.291179 0.829987
Si Si5 0.295603 0.809283 0.158822
Si Si6 0.419281 0.726716 0.913966
Si Si7 0.630353 0.423426 0.087518
O O1 0.395603 0.202546 0.500000
O O2 0.500000 0.178362 0.405973
O O3 0.368951 0.161336 0.365083
O O4 0.416181 0.288591 0.387334
O O5 0.869453 0.883987 0.109960
O O6 0.900043 0.752409 0.138769
O O7 0.000000 0.840296 0.098782
O O8 0.905140 0.797456 0.000000
O O9 0.071517 0.791055 0.500000
O O10 0.122244 0.727464 0.612510
O O11 0.000000 0.794934 0.622884
O O12 0.760473 0.253474 0.855014
O O13 0.835798 0.298375 0.742488
O O14 0.371722 0.781135 0.132451
O O15 0.500000 0.750770 0.902810
O O16 0.411748 0.645639 0.883402
O O17 0.396674 0.729967 0.000000
O O18 0.600577 0.500000 0.117724
O O19 0.625254 0.426058 0.000000
#
# Coordination Sequence:
#
# PCOD8315846 Si02
#       7
#    16  16  16  16  16  16  16
#     4   9  16  27  47  72  94 122 163 206 245 289
#     4   9  18  32  52  80 109 132 155 189 235 288
#     4   9  18  33  54  77 101 133 166 196 233 279
#     4  10  19  31  49  70  97 133 167 200 243 287
#     4  10  20  32  47  70  98 129 170 210 242 287
#     4  10  19  30  47  70  97 130 167 213 263 300
#     4   8  14  25  42  66  95 125 159 201 248 297
#
# _framework density 17.386713
#
# number of rings (size 3 to 8) (size 9 to 14) (size 15 to 20)
#    0.000    2.714    1.429    1.714    0.000    2.857 
#    0.000    2.857    0.000    0.857    0.000   10.000 
#    0.000    0.000    0.000    0.000    0.000    0.000 
#
# Total GULP energy -1388369.748337 kJ/mol
# GULP energy per Si atom -12396.158467 kJ/mol
# Density = 1.734714 g / cm^3
# Si number density = 17.386713 Si / 1000 Ang^3
#
#
#
# Elastic Constant Matrix: (Units=GPa)
#
#
# Indices 1 2 3 4 5 6 
#
# 1 97.6510 53.4694 29.6534 0.0000 0.0000 0.0000
# 2 53.4694 97.6510 29.6534 0.0000 0.0000 0.0000
# 3 29.6534 29.6534 36.7987 0.0000 0.0000 0.0000
# 4 0.0000 0.0000 0.0000 14.0344 0.0000 0.0000
# 5 0.0000 0.0000 0.0000 0.0000 14.0344 0.0000
# 6 0.0000 0.0000 0.0000 0.0000 0.0000 11.2045
#
#
#
# Elastic Compliance Matrix: (Units=1/GPa)
#
#
# Indices 1 2 3 4 5 6 
#
# 1 0.016156 -0.006478 -0.007799 0.000000 0.000000 0.000000
# 2 -0.006478 0.016156 -0.007799 0.000000 0.000000 0.000000
# 3 -0.007799 -0.007799 0.039744 0.000000 0.000000 0.000000
# 4 0.000000 0.000000 0.000000 0.071253 0.000000 0.000000
# 5 0.000000 0.000000 0.000000 0.000000 0.071253 0.000000
# 6 0.000000 0.000000 0.000000 0.000000 0.000000 0.089250
#
#
# Mechanical properties :
#
#
# Convention : Reuss Voigt Hill
#
# Bulk Modulus (GPa) = 35.83631 50.85035 43.34333
# Shear Modulus (GPa) = 13.99525 15.80964 14.90244
#
# Velocity S-wave (km/s) = 2.84022 3.01872 2.93083
# Velocity P-wave (km/s) = 5.60463 6.43898 6.03624
#
# Compressibility (1/GPa) = 0.02790466
#
# Stress axis : x y z
#
# Youngs Moduli (GPa) = 61.89713 61.89713 25.16127
#
# Poissons Ratio (x) = 0.40097 0.19622
# Poissons Ratio (y) = 0.40097 0.19622
# Poissons Ratio (z) = 0.48271 0.48271
#
# Static dielectric constant tensor:
#      x y z
#    x 3.262710 0.000000 0.000000 
#    y 0.000000 3.262710 0.000000 
#    z 0.000000 0.000000 2.996870 
# 
# 
# High freq. dielectric constant tensor:
#      x y z
#    x 1.658460 0.000000 0.000000 
#    y 0.000000 1.658460 0.000000 
#    z 0.000000 0.000000 1.650700 
# 
# From -- ./inp_files/10032.got.cif
#   From: 2010.03.12/outbox.cif.g09.slc.cpg/sg131_6_cif.got.tgz:10032.got - 2010.04.06 17:36:35.
