data_PCOD8315602
_publ_section_title
;
Structure prediction by ZEFSAII (Michael W. Deem and Ramdas Pophale) SiO2 
 PCOD8315602
Probable space group: P 4/N C C
;
_chemical_formula_sum "Si O2"
_cell_formula_units_Z 96
_cell_length_a 22.071323
_cell_length_b 22.071323
_cell_length_c 9.706771
_cell_angle_alpha 90.000000
_cell_angle_beta 90.000000
_cell_angle_gamma 90.000000
_cell_volume 4728.588447
_symmetry_space_group_name_H-M "P 4/N C C"
_symmetry_group_IT_number 130
_symmetry_cell_setting 'tetragonal'
loop_
_space_group_symop_operation_xyz
x,y,z
1/2-y,x,z
1/2-x,1/2-y,z
y,1/2-x,z
1/2+x,-y,1/2-z
-x,1/2+y,1/2-z
1/2+y,1/2+x,1/2-z
-y,-x,1/2-z
-x,-y,-z
1/2+y,-x,-z
1/2+x,1/2+y,-z
-y,1/2+x,-z
1/2-x,y,1/2+z
x,1/2-y,1/2+z
1/2-y,1/2-x,1/2+z
y,x,1/2+z
loop_
_atom_site_type_symbol
_atom_site_label
_atom_site_fract_x
_atom_site_fract_y
_atom_site_fract_z
Si Si1 0.807770 0.829928 0.887887
Si Si2 0.338079 0.880837 0.891651
Si Si3 0.696925 0.124592 0.642956
Si Si4 0.377904 0.128016 0.860067
Si Si5 0.989385 0.699074 0.221841
Si Si6 0.316315 0.014585 0.962227
O O1 0.736782 0.833915 0.860780
O O2 0.842232 0.874426 0.784184
O O3 0.819769 0.849049 0.044659
O O4 0.374362 0.874362 0.750000
O O5 0.267977 0.865159 0.872570
O O6 0.346240 0.948830 0.946437
O O7 0.368048 0.833629 0.995352
O O8 0.674467 0.174467 0.750000
O O9 0.680097 0.058671 0.700502
O O10 0.448334 0.143934 0.835458
O O11 0.369766 0.062785 0.932405
O O12 0.976639 0.709319 0.383669
O O13 0.974738 0.761203 0.142851
#
# Coordination Sequence:
#
# PCOD8315602 Si02
#       6
#    16  16  16  16  16  16
#     4  11  22  36  56  88 125 165 213 282 341 384
#     4  11  25  42  70 104 135 172 209 264 328 396
#     4  11  23  44  70 100 140 169 209 263 326 395
#     4  12  24  39  63  89 128 172 228 267 324 393
#     4  11  25  43  68  95 131 180 221 277 325 387
#     4  11  25  44  67  96 132 177 227 270 331 385
#
# _framework density 20.302042
#
# number of rings (size 3 to 8) (size 9 to 14) (size 15 to 20)
#    0.000    0.833    3.333    4.000    9.333    3.333 
#    0.000    1.667    0.000    0.000    0.000    0.000 
#    0.000    0.000    0.000    0.000    0.000    0.000 
#
# Total GULP energy -1191001.096653 kJ/mol
# GULP energy per Si atom -12406.261423 kJ/mol
# Density = 2.025583 g / cm^3
# Si number density = 20.302042 Si / 1000 Ang^3
#
#
#
# Elastic Constant Matrix: (Units=GPa)
#
#
# Indices 1 2 3 4 5 6 
#
# 1 79.3799 43.9627 28.2500 0.0000 0.0000 0.0000
# 2 43.9627 79.3799 28.2500 0.0000 0.0000 0.0000
# 3 28.2500 28.2500 120.9316 0.0000 0.0000 0.0000
# 4 0.0000 0.0000 0.0000 35.7490 0.0000 0.0000
# 5 0.0000 0.0000 0.0000 0.0000 35.7490 0.0000
# 6 0.0000 0.0000 0.0000 0.0000 0.0000 7.4765
#
#
#
# Elastic Compliance Matrix: (Units=1/GPa)
#
#
# Indices 1 2 3 4 5 6 
#
# 1 0.018657 -0.009578 -0.002121 0.000000 0.000000 0.000000
# 2 -0.009578 0.018657 -0.002121 0.000000 0.000000 0.000000
# 3 -0.002121 -0.002121 0.009260 0.000000 0.000000 0.000000
# 4 0.000000 0.000000 0.000000 0.027973 0.000000 0.000000
# 5 0.000000 0.000000 0.000000 0.000000 0.027973 0.000000
# 6 0.000000 0.000000 0.000000 0.000000 0.000000 0.133752
#
#
# Mechanical properties :
#
#
# Convention : Reuss Voigt Hill
#
# Bulk Modulus (GPa) = 52.81360 53.40189 53.10774
# Shear Modulus (GPa) = 18.50330 27.74349 23.12340
#
# Velocity S-wave (km/s) = 3.02222 3.70068 3.37852
# Velocity P-wave (km/s) = 6.18456 6.67988 6.43699
#
# Compressibility (1/GPa) = 0.01893452
#
# Stress axis : x y z
#
# Youngs Moduli (GPa) = 53.59934 53.59934 107.99099
#
# Poissons Ratio (x) = 0.51337 0.22904
# Poissons Ratio (y) = 0.51337 0.22904
# Poissons Ratio (z) = 0.11368 0.11368
#
# Static dielectric constant tensor:
#      x y z
#    x 3.688470 0.000000 0.000000 
#    y 0.000000 3.688470 0.000000 
#    z 0.000000 0.000000 3.866250 
# 
# 
# High freq. dielectric constant tensor:
#      x y z
#    x 1.785510 0.000000 0.000000 
#    y 0.000000 1.785510 0.000000 
#    z 0.000000 0.000000 1.816260 
# 
# From -- ./inp_files/946.got.cif
#   From: 2010.03.12/outbox.cif.g09.slc.cpg/sg130_1_cif.got.tgz:946.got - 2010.04.06 17:30:23.
