data_PCOD8315671
_publ_section_title
;
Structure prediction by ZEFSAII (Michael W. Deem and Ramdas Pophale) SiO2 
 PCOD8315671
Probable space group: P 42/M M C
;
_chemical_formula_sum "Si O2"
_cell_formula_units_Z 96
_cell_length_a 25.556183
_cell_length_b 25.556183
_cell_length_c 9.173540
_cell_angle_alpha 90.000000
_cell_angle_beta 90.000000
_cell_angle_gamma 90.000000
_cell_volume 5991.408588
_symmetry_space_group_name_H-M "P 42/M M C"
_symmetry_group_IT_number 131
_symmetry_cell_setting 'tetragonal'
loop_
_space_group_symop_operation_xyz
x,y,z
-x,-y,z
-y,x,1/2+z
y,-x,1/2+z
-x,y,-z
x,-y,-z
y,x,1/2-z
-y,-x,1/2-z
-x,-y,-z
x,y,-z
y,-x,1/2-z
-y,x,1/2-z
x,-y,z
-x,y,z
-y,-x,1/2+z
y,x,1/2+z
loop_
_atom_site_type_symbol
_atom_site_label
_atom_site_fract_x
_atom_site_fract_y
_atom_site_fract_z
Si Si1 0.715891 0.939606 0.831493
Si Si2 0.215658 0.143441 0.664997
Si Si3 0.500000 0.204834 0.664099
Si Si4 0.202090 0.597902 0.338584
Si Si5 0.232367 0.697922 0.836343
Si Si6 0.920239 0.500000 0.836719
Si Si7 0.599206 0.919637 0.839202
O O1 0.758663 0.906520 0.743306
O O2 0.656704 0.930872 0.770324
O O3 0.731679 0.000000 0.814300
O O4 0.717515 0.921249 0.000000
O O5 0.163720 0.163720 0.750000
O O6 0.199755 0.127790 0.500000
O O7 0.257050 0.189724 0.661267
O O8 0.500000 0.227102 0.500000
O O9 0.449789 0.227520 0.749238
O O10 0.500000 0.142319 0.661341
O O11 0.227639 0.601957 0.500000
O O12 0.208449 0.650004 0.248374
O O13 0.141151 0.588044 0.355501
O O14 0.283717 0.716284 0.750000
O O15 0.248211 0.681698 0.000000
O O16 0.942887 0.552456 0.759524
O O17 0.942351 0.500000 0.000000
O O18 0.596899 0.945872 0.000000
#
# Coordination Sequence:
#
# PCOD8315671 Si02
#       7
#    16  16   8  16  16   8  16
#     4  10  20  34  51  71  95 122 152 187 229 275
#     4  10  20  33  51  71  94 121 151 183 220 267
#     4   9  17  27  39  58  82 109 144 188 231 272
#     4  10  17  27  43  61  83 111 148 189 227 272
#     4  10  19  29  43  64  88 115 145 182 226 271
#     4   9  17  27  42  60  79 108 150 195 236 272
#     4   9  17  29  44  61  83 114 150 189 232 275
#
# _framework density 16.022943999999999
#
# number of rings (size 3 to 8) (size 9 to 14) (size 15 to 20)
#    0.000    2.333    1.667    2.000    0.000    5.000 
#    0.000    0.417    0.000    2.500    0.000    0.000 
#    0.000    0.333    0.000    3.500    0.000    1.917 
#
# Total GULP energy -1190022.411604 kJ/mol
# GULP energy per Si atom -12396.066788 kJ/mol
# Density = 1.598647 g / cm^3
# Si number density = 16.022944 Si / 1000 Ang^3
#
#
#
# Elastic Constant Matrix: (Units=GPa)
#
#
# Indices 1 2 3 4 5 6 
#
# 1 49.8112 24.8353 37.6686 0.0000 0.0000 0.0000
# 2 24.8353 49.8149 37.6697 0.0000 0.0000 0.0000
# 3 37.6686 37.6697 134.5067 0.0000 0.0000 0.0000
# 4 0.0000 0.0000 0.0000 14.9112 0.0000 0.0000
# 5 0.0000 0.0000 0.0000 0.0000 14.9111 0.0000
# 6 0.0000 0.0000 0.0000 0.0000 0.0000 -11.3258
#
#
#
# Elastic Compliance Matrix: (Units=1/GPa)
#
#
# Indices 1 2 3 4 5 6 
#
# 1 0.029356 -0.010681 -0.005230 0.000000 0.000000 0.000000
# 2 -0.010681 0.029354 -0.005230 0.000000 0.000000 0.000000
# 3 -0.005230 -0.005230 0.010364 0.000000 0.000000 0.000000
# 4 0.000000 0.000000 0.000000 0.067064 0.000000 0.000000
# 5 0.000000 0.000000 0.000000 0.000000 0.067064 0.000000
# 6 0.000000 0.000000 0.000000 0.000000 0.000000 -0.088294
#
#
# Mechanical properties :
#
#
# Convention : Reuss Voigt Hill
#
# Bulk Modulus (GPa) = 37.32294 48.27557 42.79926
# Shear Modulus (GPa) = 30.09885 12.62991 21.36438
#
# Velocity S-wave (km/s) = 4.33885 2.81061 3.65548
# Velocity P-wave (km/s) = 6.96023 6.38178 6.67727
#
# Compressibility (1/GPa) = 0.02679317
#
# Stress axis : x y z
#
# Youngs Moduli (GPa) = 34.06450 34.06711 96.48938
#
# Poissons Ratio (x) = 0.36386 0.50464
# Poissons Ratio (y) = 0.36383 0.50461
# Poissons Ratio (z) = 0.17816 0.17816
#
# Static dielectric constant tensor:
#      x y z
#    x 2.869230 0.000000 0.000000 
#    y 0.000000 2.869190 0.000000 
#    z 0.000000 0.000000 3.479720 
# 
# 
# High freq. dielectric constant tensor:
#      x y z
#    x 1.582050 0.000000 0.000000 
#    y 0.000000 1.582050 0.000000 
#    z 0.000000 0.000000 1.632820 
# 
# From -- ./inp_files/2327.got.cif
#   From: 2010.03.12/outbox.cif.g09.slc.cpg/sg131_2_cif.got.tgz:2327.got - 2010.04.06 17:36:35.
