data_PCOD8315837
_publ_section_title
;
Structure prediction by ZEFSAII (Michael W. Deem and Ramdas Pophale) SiO2 
 PCOD8315837
Probable space group: P 42/M M C
;
_chemical_formula_sum "Si O2"
_cell_formula_units_Z 128
_cell_length_a 20.694047
_cell_length_b 20.694047
_cell_length_c 18.227766
_cell_angle_alpha 90.000000
_cell_angle_beta 90.000000
_cell_angle_gamma 90.000000
_cell_volume 7805.923790
_symmetry_space_group_name_H-M "P 42/M M C"
_symmetry_group_IT_number 131
_symmetry_cell_setting 'tetragonal'
loop_
_space_group_symop_operation_xyz
x,y,z
-x,-y,z
-y,x,1/2+z
y,-x,1/2+z
-x,y,-z
x,-y,-z
y,x,1/2-z
-y,-x,1/2-z
-x,-y,-z
x,y,-z
y,-x,1/2-z
-y,x,1/2-z
x,-y,z
-x,y,z
-y,-x,1/2+z
y,x,1/2+z
loop_
_atom_site_type_symbol
_atom_site_label
_atom_site_fract_x
_atom_site_fract_y
_atom_site_fract_z
Si Si1 0.573116 0.745750 0.276304
Si Si2 0.076538 0.571600 0.918467
Si Si3 0.315513 0.427026 0.372322
Si Si4 0.334698 0.426576 0.082898
Si Si5 0.296735 0.191858 0.228499
Si Si6 0.353792 0.188526 0.081221
Si Si7 0.927379 0.659048 0.212231
Si Si8 0.425902 0.071621 0.144425
O O1 0.500000 0.775705 0.271962
O O2 0.577905 0.687773 0.216536
O O3 0.588136 0.721615 0.358501
O O4 0.628964 0.795997 0.254334
O O5 0.105349 0.500000 0.901585
O O6 0.101064 0.624362 0.860523
O O7 0.000000 0.567112 0.912855
O O8 0.098086 0.593495 0.000000
O O9 0.318838 0.500000 0.399647
O O10 0.379997 0.394137 0.401649
O O11 0.252261 0.396236 0.408432
O O12 0.359269 0.500000 0.092867
O O13 0.308018 0.415516 0.000000
O O14 0.246622 0.246622 0.250000
O O15 0.295322 0.187594 0.140167
O O16 0.282047 0.121914 0.265907
O O17 0.396739 0.124287 0.089500
O O18 0.323244 0.188843 0.000000
O O19 0.927151 0.607200 0.276690
O O20 0.000000 0.686875 0.199847
O O21 0.500000 0.088960 0.157627
O O22 0.417680 0.000000 0.109378
#
# Coordination Sequence:
#
# PCOD8315837 Si02
#       8
#    16  16  16  16  16  16  16  16
#     4   9  18  33  49  63  81 107 141 176 210 252
#     4   8  13  22  38  61  90 123 156 190 226 262
#     4  10  19  30  45  61  77 102 136 173 217 270
#     4  10  20  32  45  60  79 102 130 174 228 271
#     4  10  20  34  51  68  88 117 150 181 216 262
#     4  10  20  32  46  64  87 113 142 179 218 254
#     4   9  17  29  45  65  90 119 152 187 222 264
#     4   9  17  28  43  65  93 125 156 182 213 257
#
# _framework density 16.397803
#
# number of rings (size 3 to 8) (size 9 to 14) (size 15 to 20)
#    0.000    2.625    0.000    3.375    0.000    7.250 
#    0.000    2.500    0.000    3.750    0.000    0.000 
#    0.000    0.250    0.000    0.000    0.000    0.000 
#
# Total GULP energy -1586126.486510 kJ/mol
# GULP energy per Si atom -12391.613176 kJ/mol
# Density = 1.636048 g / cm^3
# Si number density = 16.397803 Si / 1000 Ang^3
#
#
#
# Elastic Constant Matrix: (Units=GPa)
#
#
# Indices 1 2 3 4 5 6 
#
# 1 54.2159 28.6941 22.9751 0.0000 0.0000 0.0000
# 2 28.6941 54.2159 22.9751 0.0000 0.0000 0.0000
# 3 22.9751 22.9751 112.9348 0.0000 0.0000 0.0000
# 4 0.0000 0.0000 0.0000 14.3884 0.0000 0.0000
# 5 0.0000 0.0000 0.0000 0.0000 14.3884 0.0000
# 6 0.0000 0.0000 0.0000 0.0000 0.0000 13.8894
#
#
#
# Elastic Compliance Matrix: (Units=1/GPa)
#
#
# Indices 1 2 3 4 5 6 
#
# 1 0.026388 -0.012794 -0.002766 0.000000 0.000000 0.000000
# 2 -0.012794 0.026388 -0.002766 0.000000 0.000000 0.000000
# 3 -0.002766 -0.002766 0.009980 0.000000 0.000000 0.000000
# 4 0.000000 0.000000 0.000000 0.069501 0.000000 0.000000
# 5 0.000000 0.000000 0.000000 0.000000 0.069501 0.000000
# 6 0.000000 0.000000 0.000000 0.000000 0.000000 0.071997
#
#
# Mechanical properties :
#
#
# Convention : Reuss Voigt Hill
#
# Bulk Modulus (GPa) = 38.30575 41.18394 39.74484
# Shear Modulus (GPa) = 15.66873 18.31471 16.99172
#
# Velocity S-wave (km/s) = 3.09453 3.34563 3.22253
# Velocity P-wave (km/s) = 6.01491 6.33201 6.17550
#
# Compressibility (1/GPa) = 0.02610574
#
# Stress axis : x y z
#
# Youngs Moduli (GPa) = 37.89589 37.89589 100.20156
#
# Poissons Ratio (x) = 0.48484 0.27711
# Poissons Ratio (y) = 0.48484 0.27711
# Poissons Ratio (z) = 0.10480 0.10480
#
# Static dielectric constant tensor:
#      x y z
#    x 2.995220 0.000000 0.000000 
#    y 0.000000 2.995220 0.000000 
#    z 0.000000 0.000000 3.401940 
# 
# 
# High freq. dielectric constant tensor:
#      x y z
#    x 1.597540 0.000000 0.000000 
#    y 0.000000 1.597540 0.000000 
#    z 0.000000 0.000000 1.646710 
# 
# From -- ./inp_files/8444.got.cif
#   From: 2010.03.12/outbox.cif.g09.slc.cpg/sg131_5_cif.got.tgz:8444.got - 2010.04.06 17:36:35.
