data_PCOD8315854
_publ_section_title
;
Structure prediction by ZEFSAII (Michael W. Deem and Ramdas Pophale) SiO2 
 PCOD8315854
Probable space group: P 42/M M C
;
_chemical_formula_sum "Si O2"
_cell_formula_units_Z 80
_cell_length_a 17.244137
_cell_length_b 17.244137
_cell_length_c 17.869864
_cell_angle_alpha 90.000000
_cell_angle_beta 90.000000
_cell_angle_gamma 90.000000
_cell_volume 5313.787421
_symmetry_space_group_name_H-M "P 42/M M C"
_symmetry_group_IT_number 131
_symmetry_cell_setting 'tetragonal'
loop_
_space_group_symop_operation_xyz
x,y,z
-x,-y,z
-y,x,1/2+z
y,-x,1/2+z
-x,y,-z
x,-y,-z
y,x,1/2-z
-y,-x,1/2-z
-x,-y,-z
x,y,-z
y,-x,1/2-z
-y,x,1/2-z
x,-y,z
-x,y,z
-y,-x,1/2+z
y,x,1/2+z
loop_
_atom_site_type_symbol
_atom_site_label
_atom_site_fract_x
_atom_site_fract_y
_atom_site_fract_z
Si Si1 0.320686 0.588143 0.915755
Si Si2 0.413163 0.909732 0.500000
Si Si3 0.139140 0.408234 0.689664
Si Si4 0.000000 0.592598 0.585959
Si Si5 0.315858 0.590397 0.687677
Si Si6 0.409691 0.842766 0.352218
O O1 0.348634 0.500000 0.912378
O O2 0.393322 0.640182 0.890359
O O3 0.249678 0.602457 0.858113
O O4 0.294688 0.610314 0.000000
O O5 0.500000 0.871733 0.500000
O O6 0.369074 0.882560 0.424427
O O7 0.419180 0.000000 0.500000
O O8 0.130391 0.500000 0.690444
O O9 0.227216 0.384903 0.670477
O O10 0.124311 0.375141 0.774124
O O11 0.076545 0.375198 0.629886
O O12 0.000000 0.500000 0.585073
O O13 0.000000 0.623624 0.500000
O O14 0.357053 0.642948 0.750000
O O15 0.321581 0.500000 0.710652
O O16 0.500000 0.864132 0.353321
#
# Coordination Sequence:
#
# PCOD8315854 Si02
#       6
#    16   8  16   8  16  16
#     4  10  19  31  44  57  79 113 148 189 237 273
#     4   9  16  22  36  62  85 103 125 162 210 263
#     4   9  18  30  46  63  80 106 141 181 226 276
#     4   9  18  32  48  65  85 107 133 179 238 281
#     4  11  21  32  45  62  84 115 156 199 236 272
#     4   9  15  26  40  57  81 106 133 168 214 264
#
# _framework density 15.055175999999999
#
# number of rings (size 3 to 8) (size 9 to 14) (size 15 to 20)
#    0.000    2.400    3.000    0.600    1.400    2.600 
#    0.000    3.000    0.000    0.000    0.000    0.000 
#    0.000    0.000    0.000    0.000    0.000    0.500 
#
# Total GULP energy -991073.757292 kJ/mol
# GULP energy per Si atom -12388.421966 kJ/mol
# Density = 1.502091 g / cm^3
# Si number density = 15.055176 Si / 1000 Ang^3
#
#
#
# Elastic Constant Matrix: (Units=GPa)
#
#
# Indices 1 2 3 4 5 6 
#
# 1 57.0918 23.5777 39.8641 0.0000 0.0000 0.0000
# 2 23.5777 57.0916 39.8642 0.0000 0.0000 0.0000
# 3 39.8641 39.8642 131.9369 0.0000 0.0000 0.0000
# 4 0.0000 0.0000 0.0000 22.3511 0.0000 0.0000
# 5 0.0000 0.0000 0.0000 0.0000 22.3512 0.0000
# 6 0.0000 0.0000 0.0000 0.0000 0.0000 0.8793
#
#
#
# Elastic Compliance Matrix: (Units=1/GPa)
#
#
# Indices 1 2 3 4 5 6 
#
# 1 0.023756 -0.006082 -0.005340 0.000000 0.000000 0.000000
# 2 -0.006082 0.023756 -0.005340 0.000000 0.000000 0.000000
# 3 -0.005340 -0.005340 0.010806 0.000000 0.000000 0.000000
# 4 0.000000 0.000000 0.000000 0.044740 0.000000 0.000000
# 5 0.000000 0.000000 0.000000 0.000000 0.044740 0.000000
# 6 0.000000 0.000000 0.000000 0.000000 0.000000 1.137303
#
#
# Mechanical properties :
#
#
# Convention : Reuss Voigt Hill
#
# Bulk Modulus (GPa) = 40.33233 50.30358 45.31795
# Shear Modulus (GPa) = 3.76820 18.63728 11.20274
#
# Velocity S-wave (km/s) = 1.58378 3.52224 2.73080
# Velocity P-wave (km/s) = 5.49475 7.07297 6.33322
#
# Compressibility (1/GPa) = 0.02479401
#
# Stress axis : x y z
#
# Youngs Moduli (GPa) = 42.09439 42.09415 92.53794
#
# Poissons Ratio (x) = 0.25602 0.49416
# Poissons Ratio (y) = 0.25602 0.49417
# Poissons Ratio (z) = 0.22479 0.22479
#
# Static dielectric constant tensor:
#      x y z
#    x 2.682340 0.000000 0.000000 
#    y 0.000000 2.682340 0.000000 
#    z 0.000000 0.000000 3.422120 
# 
# 
# High freq. dielectric constant tensor:
#      x y z
#    x 1.528480 0.000000 0.000000 
#    y 0.000000 1.528480 0.000000 
#    z 0.000000 0.000000 1.603180 
# 
# From -- ./inp_files/7841.got.cif
#   From: 2010.03.12/outbox.cif.g09.slc.cpg/sg131_4_cif.got.tgz:7841.got - 2010.04.06 17:36:35.
