data_PCOD8315657
_publ_section_title
;
Structure prediction by ZEFSAII (Michael W. Deem and Ramdas Pophale) SiO2 
 PCOD8315657
Probable space group: P 42/M M C
;
_chemical_formula_sum "Si O2"
_cell_formula_units_Z 120
_cell_length_a 18.632854
_cell_length_b 18.632854
_cell_length_c 28.002686
_cell_angle_alpha 90.000000
_cell_angle_beta 90.000000
_cell_angle_gamma 90.000000
_cell_volume 9722.063483
_symmetry_space_group_name_H-M "P 42/M M C"
_symmetry_group_IT_number 131
_symmetry_cell_setting 'tetragonal'
loop_
_space_group_symop_operation_xyz
x,y,z
-x,-y,z
-y,x,1/2+z
y,-x,1/2+z
-x,y,-z
x,-y,-z
y,x,1/2-z
-y,-x,1/2-z
-x,-y,-z
x,y,-z
y,-x,1/2-z
-y,x,1/2-z
x,-y,z
-x,y,z
-y,-x,1/2+z
y,x,1/2+z
loop_
_atom_site_type_symbol
_atom_site_label
_atom_site_fract_x
_atom_site_fract_y
_atom_site_fract_z
Si Si1 0.919309 0.000000 0.556861
Si Si2 0.721058 0.916616 0.895708
Si Si3 0.915117 0.578294 0.946850
Si Si4 0.283884 0.916584 0.395311
Si Si5 0.914851 0.420694 0.445857
Si Si6 0.918300 0.198351 0.195950
Si Si7 0.199376 0.081799 0.803538
Si Si8 0.143435 0.154658 0.943925
O O1 0.883821 0.072414 0.577770
O O2 0.912784 0.000000 0.500000
O O3 0.000000 0.000000 0.574864
O O4 0.642809 0.885625 0.911159
O O5 0.733490 0.904072 0.839027
O O6 0.783659 0.877309 0.923932
O O7 0.725676 0.000000 0.909441
O O8 0.883048 0.500000 0.933381
O O9 0.891281 0.634960 0.906274
O O10 0.000000 0.573197 0.947807
O O11 0.888360 0.601202 0.000000
O O12 0.265019 0.904006 0.339613
O O13 0.236923 0.864889 0.428795
O O14 0.272418 0.000000 0.409902
O O15 0.889425 0.404529 0.500000
O O16 0.886085 0.500000 0.429822
O O17 0.000000 0.422220 0.443708
O O18 0.902570 0.225925 0.249658
O O19 0.867203 0.132196 0.182095
O O20 0.000000 0.170682 0.191222
O O21 0.172186 0.000000 0.808774
O O22 0.146569 0.145839 0.000000
#
# Coordination Sequence:
#
# PCOD8315657 Si02
#       8
#     8  16  16  16  16  16  16  16
#     4   9  18  28  32  38  63  99 125 143 170 212
#     4  10  18  27  38  52  69  91 119 152 187 219
#     4   8  14  24  38  54  69  87 113 144 176 213
#     4  10  17  26  38  51  68  91 118 148 183 218
#     4   8  14  25  40  55  69  87 113 145 181 222
#     4   9  17  28  39  50  65  90 125 161 193 219
#     4   9  17  28  39  50  66  89 123 163 194 219
#     4  11  19  25  33  49  70  94 121 146 177 215
#
# _framework density 12.343059
#
# number of rings (size 3 to 8) (size 9 to 14) (size 15 to 20)
#    0.000    2.733    2.000    2.000    0.000    2.133 
#    0.000    1.333    0.000    0.800    0.000    5.600 
#    0.000    0.000    0.000    0.000    0.000    0.667 
#
# Total GULP energy -1486982.909491 kJ/mol
# GULP energy per Si atom -12391.524246 kJ/mol
# Density = 1.231497 g / cm^3
# Si number density = 12.343059 Si / 1000 Ang^3
#
#
#
# Elastic Constant Matrix: (Units=GPa)
#
#
# Indices 1 2 3 4 5 6 
#
# 1 70.9303 28.2111 38.2097 0.0000 0.0000 0.0000
# 2 28.2111 70.9303 38.2097 0.0000 0.0000 0.0000
# 3 38.2097 38.2097 66.5276 0.0000 0.0000 0.0000
# 4 0.0000 0.0000 0.0000 16.5121 0.0000 0.0000
# 5 0.0000 0.0000 0.0000 0.0000 16.5121 0.0000
# 6 0.0000 0.0000 0.0000 0.0000 0.0000 3.5478
#
#
#
# Elastic Compliance Matrix: (Units=1/GPa)
#
#
# Indices 1 2 3 4 5 6 
#
# 1 0.020754 -0.002655 -0.010395 0.000000 0.000000 0.000000
# 2 -0.002655 0.020754 -0.010395 0.000000 0.000000 0.000000
# 3 -0.010395 -0.010395 0.026972 0.000000 0.000000 0.000000
# 4 0.000000 0.000000 0.000000 0.060562 0.000000 0.000000
# 5 0.000000 0.000000 0.000000 0.000000 0.060562 0.000000
# 6 0.000000 0.000000 0.000000 0.000000 0.000000 0.281863
#
#
# Mechanical properties :
#
#
# Convention : Reuss Voigt Hill
#
# Bulk Modulus (GPa) = 46.31779 46.40548 46.36163
# Shear Modulus (GPa) = 9.51377 14.23159 11.87268
#
# Velocity S-wave (km/s) = 2.77930 3.39927 3.10480
# Velocity P-wave (km/s) = 6.92143 7.28593 7.10602
#
# Compressibility (1/GPa) = 0.02158998
#
# Stress axis : x y z
#
# Youngs Moduli (GPa) = 48.18334 48.18334 37.07503
#
# Poissons Ratio (x) = 0.12791 0.38541
# Poissons Ratio (y) = 0.12791 0.38541
# Poissons Ratio (z) = 0.50088 0.50088
#
# Static dielectric constant tensor:
#      x y z
#    x 2.473700 0.000000 0.000000 
#    y 0.000000 2.473700 0.000000 
#    z 0.000000 0.000000 2.647760 
# 
# 
# High freq. dielectric constant tensor:
#      x y z
#    x 1.435460 0.000000 0.000000 
#    y 0.000000 1.435460 0.000000 
#    z 0.000000 0.000000 1.473660 
# 
# From -- ./inp_files/12552.got.cif
#   From: 2010.03.12/outbox.cif.g09.slc.cpg/sg131_7_cif.got.tgz:12552.got - 2010.04.06 17:36:35.
