data_PCOD8315004
_publ_section_title
;
Structure prediction by ZEFSAII (Michael W. Deem and Ramdas Pophale) SiO2 
 PCOD8315004
Probable space group: P 4/N M M
;
_chemical_formula_sum "Si O2"
_cell_formula_units_Z 96
_cell_length_a 14.184722
_cell_length_b 14.184722
_cell_length_c 30.875710
_cell_angle_alpha 90.000000
_cell_angle_beta 90.000000
_cell_angle_gamma 90.000000
_cell_volume 6212.388549
_symmetry_space_group_name_H-M "P 4/N M M"
_symmetry_group_IT_number 129
_symmetry_cell_setting 'tetragonal'
loop_
_space_group_symop_operation_xyz
x,y,z
1/2-y,x,z
1/2-x,1/2-y,z
y,1/2-x,z
1/2+x,-y,-z
-x,1/2+y,-z
1/2+y,1/2+x,-z
-y,-x,-z
-x,-y,-z
1/2+y,-x,-z
1/2+x,1/2+y,-z
-y,1/2+x,-z
1/2-x,y,z
x,1/2-y,z
1/2-y,1/2-x,z
y,x,z
loop_
_atom_site_type_symbol
_atom_site_label
_atom_site_fract_x
_atom_site_fract_y
_atom_site_fract_z
Si Si1 0.645768 0.362423 0.452558
Si Si2 0.141495 0.512449 0.281962
Si Si3 0.515527 0.362082 0.126077
Si Si4 0.642000 0.491694 0.620413
Si Si5 0.144886 0.638702 0.794247
Si Si6 0.861632 0.145271 0.952082
O O1 0.606758 0.393243 0.500000
O O2 0.750000 0.404495 0.445062
O O3 0.650486 0.250000 0.450949
O O4 0.580818 0.402482 0.414125
O O5 0.250000 0.485098 0.272415
O O6 0.128976 0.549497 0.331144
O O7 0.107003 0.596380 0.250711
O O8 0.081081 0.418920 0.273012
O O9 0.495497 0.250000 0.126470
O O10 0.415579 0.415579 0.128569
O O11 0.580436 0.394978 0.166031
O O12 0.570188 0.396668 0.083116
O O13 0.750000 0.511558 0.609477
O O14 0.591377 0.591377 0.615877
O O15 0.250000 0.593683 0.797102
O O16 0.154879 0.750000 0.796085
O O17 0.750000 0.153754 0.949663
O O18 0.904158 0.250000 0.942711
O O19 0.890955 0.109046 0.000000
#
# Coordination Sequence:
#
# PCOD8315004 Si02
#       6
#    16  16  16  16  16  16
#     4   8  14  25  40  57  77 101 131 169 211 250
#     4   9  17  28  41  59  84 111 137 163 191 231
#     4  10  19  29  42  61  86 115 143 169 199 240
#     4   9  17  27  39  57  81 109 138 164 192 231
#     4   9  17  29  44  60  78 101 130 166 206 240
#     4   8  14  26  44  64  85 109 139 177 217 250
#
# _framework density 15.452994
#
# number of rings (size 3 to 8) (size 9 to 14) (size 15 to 20)
#    0.000    3.167    0.000    2.000    0.000    3.833 
#    0.000    5.000    0.000    3.000    0.000    0.000 
#    0.000   16.000    0.000    7.333    0.000    2.000 
#
# Total GULP energy -1189789.628157 kJ/mol
# GULP energy per Si atom -12393.641960 kJ/mol
# Density = 1.541782 g / cm^3
# Si number density = 15.452994 Si / 1000 Ang^3
#
#
#
# Elastic Constant Matrix: (Units=GPa)
#
#
# Indices 1 2 3 4 5 6 
#
# 1 62.5860 35.2910 48.6492 0.0000 0.0000 0.0000
# 2 35.2910 62.5859 48.6492 0.0000 0.0000 0.0000
# 3 48.6492 48.6492 128.8671 0.0000 0.0000 0.0000
# 4 0.0000 0.0000 0.0000 19.1128 0.0000 0.0000
# 5 0.0000 0.0000 0.0000 0.0000 19.1128 0.0000
# 6 0.0000 0.0000 0.0000 0.0000 0.0000 12.7433
#
#
#
# Elastic Compliance Matrix: (Units=1/GPa)
#
#
# Indices 1 2 3 4 5 6 
#
# 1 0.026496 -0.010141 -0.006174 0.000000 0.000000 0.000000
# 2 -0.010141 0.026496 -0.006174 0.000000 0.000000 0.000000
# 3 -0.006174 -0.006174 0.012422 0.000000 0.000000 0.000000
# 4 0.000000 0.000000 0.000000 0.052321 0.000000 0.000000
# 5 0.000000 0.000000 0.000000 0.000000 0.052321 0.000000
# 6 0.000000 0.000000 0.000000 0.000000 0.000000 0.078473
#
#
# Mechanical properties :
#
#
# Convention : Reuss Voigt Hill
#
# Bulk Modulus (GPa) = 48.93741 57.69084 53.31413
# Shear Modulus (GPa) = 16.64906 18.29042 17.46974
#
# Velocity S-wave (km/s) = 3.28594 3.44411 3.36595
# Velocity P-wave (km/s) = 6.79219 7.29589 7.04854
#
# Compressibility (1/GPa) = 0.02043426
#
# Stress axis : x y z
#
# Youngs Moduli (GPa) = 37.74210 37.74211 80.50549
#
# Poissons Ratio (x) = 0.38275 0.49705
# Poissons Ratio (y) = 0.38275 0.49704
# Poissons Ratio (z) = 0.23302 0.23302
#
# Static dielectric constant tensor:
#      x y z
#    x 2.781190 0.000000 0.000000 
#    y 0.000000 2.781190 0.000000 
#    z 0.000000 0.000000 3.373690 
# 
# 
# High freq. dielectric constant tensor:
#      x y z
#    x 1.559560 0.000000 0.000000 
#    y 0.000000 1.559560 0.000000 
#    z 0.000000 0.000000 1.613900 
# 
# From -- ./inp_files/7855.got.cif
#   From: 2010.03.12/outbox.cif.g09.slc.cpg/sg129_4_cif.got.tgz:7855.got - 2010.04.06 17:19:44.
