data_PCOD8315019
_publ_section_title
;
Structure prediction by ZEFSAII (Michael W. Deem and Ramdas Pophale) SiO2 
 PCOD8315019
Probable space group: P 4/N M M
;
_chemical_formula_sum "Si O2"
_cell_formula_units_Z 88
_cell_length_a 13.574537
_cell_length_b 13.574537
_cell_length_c 28.297200
_cell_angle_alpha 90.000000
_cell_angle_beta 90.000000
_cell_angle_gamma 90.000000
_cell_volume 5214.269999
_symmetry_space_group_name_H-M "P 4/N M M"
_symmetry_group_IT_number 129
_symmetry_cell_setting 'tetragonal'
loop_
_space_group_symop_operation_xyz
x,y,z
1/2-y,x,z
1/2-x,1/2-y,z
y,1/2-x,z
1/2+x,-y,-z
-x,1/2+y,-z
1/2+y,1/2+x,-z
-y,-x,-z
-x,-y,-z
1/2+y,-x,-z
1/2+x,1/2+y,-z
-y,1/2+x,-z
1/2-x,y,z
x,1/2-y,z
1/2-y,1/2-x,z
y,x,z
loop_
_atom_site_type_symbol
_atom_site_label
_atom_site_fract_x
_atom_site_fract_y
_atom_site_fract_z
Si Si1 0.367198 0.640698 0.551651
Si Si2 0.137589 0.637589 0.000000
Si Si3 0.025522 0.866039 0.174330
Si Si4 0.521963 0.366155 0.641778
Si Si5 0.140380 0.866614 0.266855
Si Si6 0.474687 0.634776 0.905174
O O1 0.400219 0.599782 0.500000
O O2 0.250000 0.647236 0.552655
O O3 0.410995 0.750000 0.560359
O O4 0.404601 0.569685 0.593011
O O5 0.066847 0.610516 0.956865
O O6 0.121313 0.750000 0.016347
O O7 0.004032 0.750000 0.173745
O O8 0.074669 0.902374 0.223069
O O9 0.100332 0.893197 0.132442
O O10 0.921657 0.921657 0.167858
O O11 0.504815 0.250000 0.642458
O O12 0.415603 0.415603 0.647488
O O13 0.591900 0.401555 0.684277
O O14 0.250000 0.912686 0.263248
O O15 0.148290 0.750000 0.265875
O O16 0.495696 0.750000 0.898368
O O17 0.576878 0.576878 0.897633
#
# Coordination Sequence:
#
# PCOD8315019 Si02
#       6
#    16   8  16  16  16  16
#     4   8  14  26  44  64  85 109 140 183 232 272
#     4   9  17  30  50  74  97 123 158 200 245 293
#     4  10  20  33  50  73 100 129 160 193 232 281
#     4  10  19  29  42  62  89 120 151 182 220 269
#     4   9  17  30  48  67  87 113 147 188 229 266
#     4  10  20  33  50  72  98 129 165 204 245 288
#
# _framework density 16.876764000000001
#
# number of rings (size 3 to 8) (size 9 to 14) (size 15 to 20)
#    0.000    2.636    0.000    3.000    0.000    4.909 
#    0.000    0.000    0.000    3.273    0.000    2.545 
#    0.000   16.000    0.000    0.000    0.000    0.182 
#
# Total GULP energy -1091052.539867 kJ/mol
# GULP energy per Si atom -12398.324317 kJ/mol
# Density = 1.683835 g / cm^3
# Si number density = 16.876764 Si / 1000 Ang^3
#
#
#
# Elastic Constant Matrix: (Units=GPa)
#
#
# Indices 1 2 3 4 5 6 
#
# 1 77.5656 41.6401 42.3340 0.0000 0.0000 0.0000
# 2 41.6401 77.5658 42.3339 0.0000 0.0000 0.0000
# 3 42.3340 42.3339 118.3113 0.0000 0.0000 0.0000
# 4 0.0000 0.0000 0.0000 19.9553 0.0000 0.0000
# 5 0.0000 0.0000 0.0000 0.0000 19.9552 0.0000
# 6 0.0000 0.0000 0.0000 0.0000 0.0000 17.3076
#
#
#
# Elastic Compliance Matrix: (Units=1/GPa)
#
#
# Indices 1 2 3 4 5 6 
#
# 1 0.019541 -0.008294 -0.004025 0.000000 0.000000 0.000000
# 2 -0.008294 0.019541 -0.004024 0.000000 0.000000 0.000000
# 3 -0.004025 -0.004024 0.011332 0.000000 0.000000 0.000000
# 4 0.000000 0.000000 0.000000 0.050112 0.000000 0.000000
# 5 0.000000 0.000000 0.000000 0.000000 0.050112 0.000000
# 6 0.000000 0.000000 0.000000 0.000000 0.000000 0.057778
#
#
# Mechanical properties :
#
#
# Convention : Reuss Voigt Hill
#
# Bulk Modulus (GPa) = 56.40475 58.45097 57.42786
# Shear Modulus (GPa) = 20.24184 21.25259 20.74721
#
# Velocity S-wave (km/s) = 3.46698 3.55248 3.50999
# Velocity P-wave (km/s) = 7.03709 7.17886 7.10833
#
# Compressibility (1/GPa) = 0.01772900
#
# Stress axis : x y z
#
# Youngs Moduli (GPa) = 51.17354 51.17366 88.24290
#
# Poissons Ratio (x) = 0.42443 0.35513
# Poissons Ratio (y) = 0.42443 0.35513
# Poissons Ratio (z) = 0.20595 0.20595
#
# Static dielectric constant tensor:
#      x y z
#    x 2.946320 0.000000 0.000000 
#    y 0.000000 2.946320 0.000000 
#    z 0.000000 0.000000 3.468280 
# 
# 
# High freq. dielectric constant tensor:
#      x y z
#    x 1.629220 0.000000 0.000000 
#    y 0.000000 1.629220 0.000000 
#    z 0.000000 0.000000 1.671360 
# 
# From -- ./inp_files/7750.got.cif
#   From: 2010.03.12/outbox.cif.g09.slc.cpg/sg129_4_cif.got.tgz:7750.got - 2010.04.06 17:19:44.
