data_PCOD8315663
_publ_section_title
;
Structure prediction by ZEFSAII (Michael W. Deem and Ramdas Pophale) SiO2 
 PCOD8315663
Probable space group: P 42/M M C
;
_chemical_formula_sum "Si O2"
_cell_formula_units_Z 96
_cell_length_a 28.643619
_cell_length_b 28.643619
_cell_length_c 9.318200
_cell_angle_alpha 90.000000
_cell_angle_beta 90.000000
_cell_angle_gamma 90.000000
_cell_volume 7645.181573
_symmetry_space_group_name_H-M "P 42/M M C"
_symmetry_group_IT_number 131
_symmetry_cell_setting 'tetragonal'
loop_
_space_group_symop_operation_xyz
x,y,z
-x,-y,z
-y,x,1/2+z
y,-x,1/2+z
-x,y,-z
x,-y,-z
y,x,1/2-z
-y,-x,1/2-z
-x,-y,-z
x,y,-z
y,-x,1/2-z
-y,x,1/2-z
x,-y,z
-x,y,z
-y,-x,1/2+z
y,x,1/2+z
loop_
_atom_site_type_symbol
_atom_site_label
_atom_site_fract_x
_atom_site_fract_y
_atom_site_fract_z
Si Si1 0.819281 0.500000 0.342618
Si Si2 0.051449 0.401379 0.830612
Si Si3 0.345344 0.859599 0.669783
Si Si4 0.718408 0.657201 0.161876
Si Si5 0.500000 0.910311 0.329736
Si Si6 0.599021 0.216411 0.163806
Si Si7 0.202689 0.264012 0.841274
O O1 0.844100 0.500000 0.500000
O O2 0.856978 0.500000 0.217848
O O3 0.785129 0.456350 0.329235
O O4 0.086941 0.358945 0.790480
O O5 0.065804 0.452521 0.768792
O O6 0.000000 0.388373 0.770157
O O7 0.049834 0.406370 0.000000
O O8 0.352955 0.849385 0.500000
O O9 0.381134 0.829827 0.762379
O O10 0.291521 0.844763 0.710745
O O11 0.673263 0.673263 0.250000
O O12 0.738100 0.612876 0.246304
O O13 0.757021 0.697580 0.161452
O O14 0.704365 0.643547 0.000000
O O15 0.500000 0.911538 0.500000
O O16 0.617841 0.219665 0.000000
O O17 0.218584 0.218584 0.750000
O O18 0.194594 0.244141 0.000000
#
# Coordination Sequence:
#
# PCOD8315663 Si02
#       7
#     8  16  16  16   8  16  16
#     4  10  20  29  37  51  72  94 118 147 183 216
#     4   9  16  25  38  55  69  82 109 151 192 226
#     4   9  16  26  38  52  67  85 110 141 176 216
#     4   9  16  26  39  55  72  89 110 135 165 203
#     4  10  17  26  42  54  62  82 116 152 187 225
#     4  10  18  27  38  51  69  92 116 143 174 208
#     4   8  14  22  33  49  67  83 101 125 157 198
#
# _framework density 12.556929
#
# number of rings (size 3 to 8) (size 9 to 14) (size 15 to 20)
#    0.000    2.833    1.667    2.250    0.000    5.667 
#    0.000    0.000    0.000    2.500    0.000    0.000 
#    0.000    0.000    0.000    0.000    0.000    0.417 
#
# Total GULP energy -1189316.405666 kJ/mol
# GULP energy per Si atom -12388.712559 kJ/mol
# Density = 1.252835 g / cm^3
# Si number density = 12.556929 Si / 1000 Ang^3
#
#
#
# Elastic Constant Matrix: (Units=GPa)
#
#
# Indices 1 2 3 4 5 6 
#
# 1 63.3535 50.7511 28.1588 0.0000 0.0000 0.0000
# 2 50.7511 63.3535 28.1588 0.0000 0.0000 0.0000
# 3 28.1588 28.1588 56.6138 0.0000 0.0000 0.0000
# 4 0.0000 0.0000 0.0000 10.2260 0.0000 0.0000
# 5 0.0000 0.0000 0.0000 0.0000 10.2260 0.0000
# 6 0.0000 0.0000 0.0000 0.0000 0.0000 16.7040
#
#
#
# Elastic Compliance Matrix: (Units=1/GPa)
#
#
# Indices 1 2 3 4 5 6 
#
# 1 0.045483 -0.033867 -0.005777 0.000000 0.000000 0.000000
# 2 -0.033867 0.045483 -0.005777 0.000000 0.000000 0.000000
# 3 -0.005777 -0.005777 0.023411 0.000000 0.000000 0.000000
# 4 0.000000 0.000000 0.000000 0.097790 0.000000 0.000000
# 5 0.000000 0.000000 0.000000 0.000000 0.097790 0.000000
# 6 0.000000 0.000000 0.000000 0.000000 0.000000 0.059866
#
#
# Mechanical properties :
#
#
# Convention : Reuss Voigt Hill
#
# Bulk Modulus (GPa) = 42.49506 44.16200 43.32853
# Shear Modulus (GPa) = 10.67215 12.51468 11.59341
#
# Velocity S-wave (km/s) = 2.91847 3.16038 3.04183
# Velocity P-wave (km/s) = 6.72845 6.96872 6.84964
#
# Compressibility (1/GPa) = 0.02353215
#
# Stress axis : x y z
#
# Youngs Moduli (GPa) = 21.98644 21.98644 42.71569
#
# Poissons Ratio (x) = 0.74462 0.24678
# Poissons Ratio (y) = 0.74462 0.24678
# Poissons Ratio (z) = 0.12702 0.12702
#
# Static dielectric constant tensor:
#      x y z
#    x 2.546120 0.000000 0.000000 
#    y 0.000000 2.546120 0.000000 
#    z 0.000000 0.000000 2.633640 
# 
# 
# High freq. dielectric constant tensor:
#      x y z
#    x 1.445770 0.000000 0.000000 
#    y 0.000000 1.445770 0.000000 
#    z 0.000000 0.000000 1.477060 
# 
# From -- ./inp_files/2710.got.cif
#   From: 2010.03.12/outbox.cif.g09.slc.cpg/sg131_2_cif.got.tgz:2710.got - 2010.04.06 17:36:35.
