data_PCOD8315673
_publ_section_title
;
Structure prediction by ZEFSAII (Michael W. Deem and Ramdas Pophale) SiO2 
 PCOD8315673
Probable space group: P 42/M M C
;
_chemical_formula_sum "Si O2"
_cell_formula_units_Z 112
_cell_length_a 15.021818
_cell_length_b 15.021818
_cell_length_c 28.363542
_cell_angle_alpha 90.000000
_cell_angle_beta 90.000000
_cell_angle_gamma 90.000000
_cell_volume 6400.375525
_symmetry_space_group_name_H-M "P 42/M M C"
_symmetry_group_IT_number 131
_symmetry_cell_setting 'tetragonal'
loop_
_space_group_symop_operation_xyz
x,y,z
-x,-y,z
-y,x,1/2+z
y,-x,1/2+z
-x,y,-z
x,-y,-z
y,x,1/2-z
-y,-x,1/2-z
-x,-y,-z
x,y,-z
y,-x,1/2-z
-y,x,1/2-z
x,-y,z
-x,y,z
-y,-x,1/2+z
y,x,1/2+z
loop_
_atom_site_type_symbol
_atom_site_label
_atom_site_fract_x
_atom_site_fract_y
_atom_site_fract_z
Si Si1 0.361298 0.597946 0.300568
Si Si2 0.898766 0.102489 0.554901
Si Si3 0.242446 0.598897 0.139501
Si Si4 0.290997 0.189078 0.212272
Si Si5 0.398740 0.097931 0.717104
Si Si6 0.101747 0.602542 0.555127
Si Si7 0.751431 0.791916 0.107924
O O1 0.408346 0.591655 0.250000
O O2 0.360737 0.500000 0.323562
O O3 0.414285 0.662781 0.335477
O O4 0.261695 0.632076 0.293748
O O5 0.882381 0.119967 0.500000
O O6 0.828945 0.160468 0.583694
O O7 0.000000 0.129192 0.567999
O O8 0.881332 0.000000 0.567614
O O9 0.218719 0.500000 0.117372
O O10 0.170111 0.629886 0.178198
O O11 0.247109 0.683009 0.103603
O O12 0.216619 0.216619 0.250000
O O13 0.340082 0.104190 0.235228
O O14 0.247197 0.171428 0.161539
O O15 0.500000 0.114773 0.731863
O O16 0.385306 0.000000 0.695077
O O17 0.116246 0.619447 0.500000
O O18 0.120959 0.500000 0.567977
O O19 0.171626 0.662859 0.583055
O O20 0.000000 0.627410 0.568765
#
# Coordination Sequence:
#
# PCOD8315673 Si02
#       7
#    16  16  16  16  16  16  16
#     4  10  17  27  47  67  92 128 170 223 274 301
#     4   9  19  37  61  88 111 128 159 216 278 332
#     4  10  21  35  46  69 107 140 184 228 255 299
#     4  10  19  34  45  71 107 140 174 223 260 303
#     4  10  19  33  51  66  92 140 187 226 267 306
#     4   9  19  36  57  84 116 141 167 214 276 341
#     4  11  20  31  57  81 105 144 182 215 268 321
#
# _framework density 17.498974
#
# number of rings (size 3 to 8) (size 9 to 14) (size 15 to 20)
#    0.000    2.143    4.286    2.571    0.000    6.714 
#    0.000    1.429    0.000    1.714    0.000    3.000 
#    0.000    0.000    0.000    0.000    0.000    0.000 
#
# Total GULP energy -1388021.715584 kJ/mol
# GULP energy per Si atom -12393.051032 kJ/mol
# Density = 1.745915 g / cm^3
# Si number density = 17.498974 Si / 1000 Ang^3
#
#
#
# Elastic Constant Matrix: (Units=GPa)
#
#
# Indices 1 2 3 4 5 6 
#
# 1 106.9016 45.1180 47.3876 0.0000 0.0000 0.0000
# 2 45.1180 106.9017 47.3877 0.0000 0.0000 0.0000
# 3 47.3876 47.3877 72.6532 0.0000 0.0000 0.0000
# 4 0.0000 0.0000 0.0000 13.0423 0.0000 0.0000
# 5 0.0000 0.0000 0.0000 0.0000 13.0433 0.0000
# 6 0.0000 0.0000 0.0000 0.0000 0.0000 21.0194
#
#
#
# Elastic Compliance Matrix: (Units=1/GPa)
#
#
# Indices 1 2 3 4 5 6 
#
# 1 0.013636 -0.002550 -0.007231 0.000000 0.000000 0.000000
# 2 -0.002550 0.013636 -0.007231 0.000000 0.000000 0.000000
# 3 -0.007231 -0.007231 0.023197 0.000000 0.000000 0.000000
# 4 0.000000 0.000000 0.000000 0.076673 0.000000 0.000000
# 5 0.000000 0.000000 0.000000 0.000000 0.076668 0.000000
# 6 0.000000 0.000000 0.000000 0.000000 0.000000 0.047575
#
#
# Mechanical properties :
#
#
# Convention : Reuss Voigt Hill
#
# Bulk Modulus (GPa) = 60.80732 62.91591 61.86162
# Shear Modulus (GPa) = 17.18869 19.19190 18.19030
#
# Velocity S-wave (km/s) = 3.13752 3.31531 3.22764
# Velocity P-wave (km/s) = 6.92458 7.11949 7.02271
#
# Compressibility (1/GPa) = 0.01644539
#
# Stress axis : x y z
#
# Youngs Moduli (GPa) = 73.33631 73.33635 43.10975
#
# Poissons Ratio (x) = 0.18698 0.31172
# Poissons Ratio (y) = 0.18698 0.31172
# Poissons Ratio (z) = 0.53028 0.53029
#
# Static dielectric constant tensor:
#      x y z
#    x 3.269620 0.000000 0.000000 
#    y 0.000000 3.269620 0.000000 
#    z 0.000000 0.000000 3.060130 
# 
# 
# High freq. dielectric constant tensor:
#      x y z
#    x 1.677830 0.000000 0.000000 
#    y 0.000000 1.677830 0.000000 
#    z 0.000000 0.000000 1.640170 
# 
# From -- ./inp_files/11264.got.cif
#   From: 2010.03.12/outbox.cif.g09.slc.cpg/sg131_6_cif.got.tgz:11264.got - 2010.04.06 17:36:35.
