data_PCOD8315280
_publ_section_title
;
Structure prediction by ZEFSAII (Michael W. Deem and Ramdas Pophale) SiO2 
 PCOD8315280
Probable space group: P 4/N M M
;
_chemical_formula_sum "Si O2"
_cell_formula_units_Z 112
_cell_length_a 13.924269
_cell_length_b 13.924269
_cell_length_c 35.416741
_cell_angle_alpha 90.000000
_cell_angle_beta 90.000000
_cell_angle_gamma 90.000000
_cell_volume 6866.784292
_symmetry_space_group_name_H-M "P 4/N M M"
_symmetry_group_IT_number 129
_symmetry_cell_setting 'tetragonal'
loop_
_space_group_symop_operation_xyz
x,y,z
1/2-y,x,z
1/2-x,1/2-y,z
y,1/2-x,z
1/2+x,-y,-z
-x,1/2+y,-z
1/2+y,1/2+x,-z
-y,-x,-z
-x,-y,-z
1/2+y,-x,-z
1/2+x,1/2+y,-z
-y,1/2+x,-z
1/2-x,y,z
x,1/2-y,z
1/2-y,1/2-x,z
y,x,z
loop_
_atom_site_type_symbol
_atom_site_label
_atom_site_fract_x
_atom_site_fract_y
_atom_site_fract_z
Si Si1 0.140863 0.514326 0.524525
Si Si2 0.987854 0.359889 0.107206
Si Si3 0.860531 0.483023 0.808390
Si Si4 0.364710 0.643817 0.041169
Si Si5 0.639173 0.483792 0.387920
Si Si6 0.856570 0.136569 0.260211
Si Si7 0.479114 0.635939 0.668027
O O1 0.250000 0.492325 0.513370
O O2 0.081183 0.418818 0.514709
O O3 0.131060 0.542506 0.568200
O O4 0.103514 0.603514 0.500000
O O5 0.007037 0.250000 0.097712
O O6 0.942374 0.373545 0.148994
O O7 0.919144 0.406224 0.075507
O O8 0.090764 0.409237 0.105271
O O9 0.750000 0.510478 0.800396
O O10 0.896640 0.400873 0.779802
O O11 0.920364 0.579637 0.801772
O O12 0.250000 0.647812 0.042293
O O13 0.407274 0.750000 0.047046
O O14 0.396972 0.603029 0.000000
O O15 0.750000 0.496588 0.375508
O O16 0.583109 0.583109 0.378795
O O17 0.590349 0.395066 0.366164
O O18 0.750000 0.090613 0.264415
O O19 0.846905 0.250000 0.261583
O O20 0.926010 0.102643 0.293739
O O21 0.497947 0.750000 0.666147
O O22 0.581385 0.581385 0.665688
#
# Coordination Sequence:
#
# PCOD8315280 Si02
#       7
#    16  16  16  16  16  16  16
#     4   9  18  32  49  70  96 124 156 195 236 279
#     4   9  17  27  39  57  81 109 139 169 203 246
#     4   9  17  28  41  59  84 112 142 174 206 246
#     4   8  14  25  40  57  77 101 131 169 211 252
#     4   9  18  32  50  72  96 123 156 194 236 280
#     4   9  17  29  45  64  85 110 140 174 214 257
#     4  10  20  33  49  69  94 124 157 191 226 268
#
# _framework density 16.310400999999999
#
# number of rings (size 3 to 8) (size 9 to 14) (size 15 to 20)
#    0.000    3.000    0.000    1.286    0.000    3.143 
#    0.000    7.143    0.000    2.571    0.000    4.000 
#    0.000    2.857    0.000    6.286    0.000    1.714 
#
# Total GULP energy -1388324.966284 kJ/mol
# GULP energy per Si atom -12395.758628 kJ/mol
# Density = 1.627328 g / cm^3
# Si number density = 16.310401 Si / 1000 Ang^3
#
#
#
# Elastic Constant Matrix: (Units=GPa)
#
#
# Indices 1 2 3 4 5 6 
#
# 1 86.5084 41.7565 49.6066 0.0000 0.0000 0.0000
# 2 41.7565 86.5085 49.6066 0.0000 0.0000 0.0000
# 3 49.6066 49.6066 93.7495 0.0000 0.0000 0.0000
# 4 0.0000 0.0000 0.0000 23.7841 0.0000 0.0000
# 5 0.0000 0.0000 0.0000 0.0000 23.7841 0.0000
# 6 0.0000 0.0000 0.0000 0.0000 0.0000 12.8094
#
#
#
# Elastic Compliance Matrix: (Units=1/GPa)
#
#
# Indices 1 2 3 4 5 6 
#
# 1 0.017772 -0.004574 -0.006984 0.000000 0.000000 0.000000
# 2 -0.004574 0.017772 -0.006984 0.000000 0.000000 0.000000
# 3 -0.006984 -0.006984 0.018057 0.000000 0.000000 0.000000
# 4 0.000000 0.000000 0.000000 0.042045 0.000000 0.000000
# 5 0.000000 0.000000 0.000000 0.000000 0.042045 0.000000
# 6 0.000000 0.000000 0.000000 0.000000 0.000000 0.078068
#
#
# Mechanical properties :
#
#
# Convention : Reuss Voigt Hill
#
# Bulk Modulus (GPa) = 60.53599 60.96730 60.75164
# Shear Modulus (GPa) = 19.35380 20.46197 19.90789
#
# Velocity S-wave (km/s) = 3.44843 3.54578 3.49745
# Velocity P-wave (km/s) = 7.28362 7.36369 7.32377
#
# Compressibility (1/GPa) = 0.01651910
#
# Stress axis : x y z
#
# Youngs Moduli (GPa) = 56.26875 56.26886 55.37875
#
# Poissons Ratio (x) = 0.25735 0.38675
# Poissons Ratio (y) = 0.25735 0.38675
# Poissons Ratio (z) = 0.39297 0.39297
#
# Static dielectric constant tensor:
#      x y z
#    x 2.979080 0.000000 0.000000 
#    y 0.000000 2.979080 0.000000 
#    z 0.000000 0.000000 3.361790 
# 
# 
# High freq. dielectric constant tensor:
#      x y z
#    x 1.607440 0.000000 0.000000 
#    y 0.000000 1.607440 0.000000 
#    z 0.000000 0.000000 1.642440 
# 
# From -- ./inp_files/7915.got.cif
#   From: 2010.03.12/outbox.cif.g09.slc.cpg/sg129_4_cif.got.tgz:7915.got - 2010.04.06 17:19:44.
