data_PCOD8315532
_publ_section_title
;
Structure prediction by ZEFSAII (Michael W. Deem and Ramdas Pophale) SiO2 
 PCOD8315532
Probable space group: P 4/N C C
;
_chemical_formula_sum "Si O2"
_cell_formula_units_Z 88
_cell_length_a 13.654799
_cell_length_b 13.654799
_cell_length_c 24.930943
_cell_angle_alpha 90.000000
_cell_angle_beta 90.000000
_cell_angle_gamma 90.000000
_cell_volume 4648.462471
_symmetry_space_group_name_H-M "P 4/N C C"
_symmetry_group_IT_number 130
_symmetry_cell_setting 'tetragonal'
loop_
_space_group_symop_operation_xyz
x,y,z
1/2-y,x,z
1/2-x,1/2-y,z
y,1/2-x,z
1/2+x,-y,1/2-z
-x,1/2+y,1/2-z
1/2+y,1/2+x,1/2-z
-y,-x,1/2-z
-x,-y,-z
1/2+y,-x,-z
1/2+x,1/2+y,-z
-y,1/2+x,-z
1/2-x,y,1/2+z
x,1/2-y,1/2+z
1/2-y,1/2-x,1/2+z
y,x,1/2+z
loop_
_atom_site_type_symbol
_atom_site_label
_atom_site_fract_x
_atom_site_fract_y
_atom_site_fract_z
Si Si1 0.998769 0.634884 0.152264
Si Si2 0.500000 1.000000 0.250000
Si Si3 0.908842 0.287516 0.500000
Si Si4 0.841101 0.493090 0.889459
Si Si5 0.506910 0.341101 0.889459
Si Si6 0.501231 0.634885 0.347736
O O1 0.995511 0.596929 0.213378
O O2 0.104296 0.606527 0.127707
O O3 0.987138 0.751088 0.150958
O O4 0.914116 0.584827 0.116097
O O5 0.596929 0.995511 0.286622
O O6 0.866700 0.177998 0.500000
O O7 0.980384 0.301870 0.550456
O O8 0.980384 0.301870 0.449544
O O9 0.914116 0.584827 0.883903
O O10 0.751088 0.512862 0.849042
O O11 0.606527 0.395704 0.872293
#
# Coordination Sequence:
#
# PCOD8315532 Si02
#       6
#    16   8  16  16  16  16
#     4  10  22  37  60  83 119 149 202 239 295 339
#     4   8  20  40  60  86 112 156 188 260 296 334
#     4  11  20  33  61  86 118 159 190 233 305 350
#     4  10  21  37  56  88 114 155 191 243 278 358
#     4  10  21  37  56  88 114 155 191 243 278 358
#     4  10  22  37  60  83 119 149 202 239 295 339
#
# _framework density 18.930992
#
# number of rings (size 3 to 8) (size 9 to 14) (size 15 to 20)
#    0.000    2.364    3.636    0.000    0.000   11.636 
#    0.000    0.000    0.000   19.636    0.000    0.000 
#    0.000    0.000    0.000    0.000    0.000    0.000 
#
# Total GULP energy -1091117.180938 kJ/mol
# GULP energy per Si atom -12399.058874 kJ/mol
# Density = 1.888790 g / cm^3
# Si number density = 18.930992 Si / 1000 Ang^3
#
#
#
# Elastic Constant Matrix: (Units=GPa)
#
#
# Indices 1 2 3 4 5 6 
#
# 1 119.1081 37.4045 39.0415 0.0000 0.0000 0.0000
# 2 37.4045 119.1081 39.0415 0.0000 0.0000 0.0000
# 3 39.0415 39.0415 136.2265 0.0000 0.0000 0.0000
# 4 0.0000 0.0000 0.0000 23.3189 0.0000 0.0000
# 5 0.0000 0.0000 0.0000 0.0000 23.3189 0.0000
# 6 0.0000 0.0000 0.0000 0.0000 0.0000 8.9122
#
#
#
# Elastic Compliance Matrix: (Units=1/GPa)
#
#
# Indices 1 2 3 4 5 6 
#
# 1 0.009847 -0.002392 -0.002137 0.000000 0.000000 0.000000
# 2 -0.002392 0.009847 -0.002137 0.000000 0.000000 0.000000
# 3 -0.002137 -0.002137 0.008565 0.000000 0.000000 0.000000
# 4 0.000000 0.000000 0.000000 0.042884 0.000000 0.000000
# 5 0.000000 0.000000 0.000000 0.000000 0.042884 0.000000
# 6 0.000000 0.000000 0.000000 0.000000 0.000000 0.112206
#
#
# Mechanical properties :
#
#
# Convention : Reuss Voigt Hill
#
# Bulk Modulus (GPa) = 66.98211 67.26865 67.12538
# Shear Modulus (GPa) = 20.44656 28.37366 24.41011
#
# Velocity S-wave (km/s) = 3.28999 3.87563 3.59475
# Velocity P-wave (km/s) = 7.06336 7.45909 7.26392
#
# Compressibility (1/GPa) = 0.01492936
#
# Stress axis : x y z
#
# Youngs Moduli (GPa) = 101.55084 101.55084 116.74893
#
# Poissons Ratio (x) = 0.24292 0.24945
# Poissons Ratio (y) = 0.24292 0.24945
# Poissons Ratio (z) = 0.21697 0.21697
#
# Static dielectric constant tensor:
#      x y z
#    x 3.345820 0.000000 0.000000 
#    y 0.000000 3.345820 0.000000 
#    z 0.000000 0.000000 3.423730 
# 
# 
# High freq. dielectric constant tensor:
#      x y z
#    x 1.728070 0.000000 0.000000 
#    y 0.000000 1.728070 0.000000 
#    z 0.000000 0.000000 1.739470 
# 
# From -- ./inp_files/4171.got.cif
#   From: 2010.03.12/outbox.cif.g09.slc.cpg/sg130_3_cif.got.tgz:4171.got - 2010.04.06 17:30:23.
