data_PCOD8315533
_publ_section_title
;
Structure prediction by ZEFSAII (Michael W. Deem and Ramdas Pophale) SiO2 
 PCOD8315533
Probable space group: P 4/N C C
;
_chemical_formula_sum "Si O2"
_cell_formula_units_Z 52
_cell_length_a 15.180625
_cell_length_b 15.180625
_cell_length_c 10.441500
_cell_angle_alpha 90.000000
_cell_angle_beta 90.000000
_cell_angle_gamma 90.000000
_cell_volume 2406.258036
_symmetry_space_group_name_H-M "P 4/N C C"
_symmetry_group_IT_number 130
_symmetry_cell_setting 'tetragonal'
loop_
_space_group_symop_operation_xyz
x,y,z
1/2-y,x,z
1/2-x,1/2-y,z
y,1/2-x,z
1/2+x,-y,1/2-z
-x,1/2+y,1/2-z
1/2+y,1/2+x,1/2-z
-y,-x,1/2-z
-x,-y,-z
1/2+y,-x,-z
1/2+x,1/2+y,-z
-y,1/2+x,-z
1/2-x,y,1/2+z
x,1/2-y,1/2+z
1/2-y,1/2-x,1/2+z
y,x,1/2+z
loop_
_atom_site_type_symbol
_atom_site_label
_atom_site_fract_x
_atom_site_fract_y
_atom_site_fract_z
Si Si1 0.545908 0.592195 0.016776
Si Si2 0.632162 0.516665 0.247227
Si Si3 0.750000 0.250000 0.500000
Si Si4 0.910995 0.293129 0.337345
O O1 0.624037 0.580255 0.121775
O O2 0.474966 0.663071 0.061338
O O3 0.500000 0.500000 0.000000
O O4 0.577554 0.625382 0.875812
O O5 0.552770 0.447231 0.250000
O O6 0.724709 0.465592 0.248582
O O7 0.835721 0.239209 0.411900
O O8 0.869190 0.369190 0.250000
#
# Coordination Sequence:
#
# PCOD8315533 Si02
#       4
#    16  16   4  16
#     4  10  21  38  58  83 121 167 211 253 313 392
#     4  10  21  37  57  85 120 163 213 258 313 385
#     4  12  22  32  52  90 132 164 202 262 340 404
#     4  12  22  35  58  89 127 165 205 265 330 393
#
# _framework density 21.610317999999999
#
# number of rings (size 3 to 8) (size 9 to 14) (size 15 to 20)
#    0.000    1.231    0.000   10.615    0.000    2.462 
#    0.000    0.000    0.000    0.923    0.000    8.615 
#    0.000    0.000    0.000    0.000    0.000    0.000 
#
# Total GULP energy -644632.631599 kJ/mol
# GULP energy per Si atom -12396.781377 kJ/mol
# Density = 2.156113 g / cm^3
# Si number density = 21.610318 Si / 1000 Ang^3
#
#
#
# Elastic Constant Matrix: (Units=GPa)
#
#
# Indices 1 2 3 4 5 6 
#
# 1 58.2392 39.5040 48.0061 0.0000 0.0000 0.0000
# 2 39.5040 58.2394 48.0061 0.0000 0.0000 0.0000
# 3 48.0061 48.0061 188.7846 0.0000 0.0000 0.0000
# 4 0.0000 0.0000 0.0000 27.9268 0.0000 0.0000
# 5 0.0000 0.0000 0.0000 0.0000 27.9272 0.0000
# 6 0.0000 0.0000 0.0000 0.0000 0.0000 46.1555
#
#
#
# Elastic Compliance Matrix: (Units=1/GPa)
#
#
# Indices 1 2 3 4 5 6 
#
# 1 0.033506 -0.019869 -0.003468 0.000000 0.000000 0.000000
# 2 -0.019869 0.033506 -0.003468 0.000000 0.000000 0.000000
# 3 -0.003468 -0.003468 0.007061 0.000000 0.000000 0.000000
# 4 0.000000 0.000000 0.000000 0.035808 0.000000 0.000000
# 5 0.000000 0.000000 0.000000 0.000000 0.035807 0.000000
# 6 0.000000 0.000000 0.000000 0.000000 0.000000 0.021666
#
#
# Mechanical properties :
#
#
# Convention : Reuss Voigt Hill
#
# Bulk Modulus (GPa) = 48.86637 64.03286 56.44961
# Shear Modulus (GPa) = 21.95052 31.71836 26.83444
#
# Velocity S-wave (km/s) = 3.19053 3.83527 3.52766
# Velocity P-wave (km/s) = 6.01949 7.02192 6.53994
#
# Compressibility (1/GPa) = 0.02046397
#
# Stress axis : x y z
#
# Youngs Moduli (GPa) = 29.84510 29.84521 141.62864
#
# Poissons Ratio (x) = 0.59299 0.49115
# Poissons Ratio (y) = 0.59299 0.49114
# Poissons Ratio (z) = 0.10350 0.10350
#
# Static dielectric constant tensor:
#      x y z
#    x 3.448890 0.000000 0.000000 
#    y 0.000000 3.448900 0.000000 
#    z 0.000000 0.000000 4.972280 
# 
# 
# High freq. dielectric constant tensor:
#      x y z
#    x 1.816170 0.000000 0.000000 
#    y 0.000000 1.816170 0.000000 
#    z 0.000000 0.000000 1.879140 
# 
# From -- ./inp_files/539.got.cif
#   From: 2010.03.12/outbox.cif.g09.slc.cpg/sg130_1_cif.got.tgz:539.got - 2010.04.06 17:30:23.
