data_PCOD8315701
_publ_section_title
;
Structure prediction by ZEFSAII (Michael W. Deem and Ramdas Pophale) SiO2 
 PCOD8315701
Probable space group: P 42/M M C
;
_chemical_formula_sum "Si O2"
_cell_formula_units_Z 80
_cell_length_a 13.754319
_cell_length_b 13.754319
_cell_length_c 27.074453
_cell_angle_alpha 90.000000
_cell_angle_beta 90.000000
_cell_angle_gamma 90.000000
_cell_volume 5121.979976
_symmetry_space_group_name_H-M "P 42/M M C"
_symmetry_group_IT_number 131
_symmetry_cell_setting 'tetragonal'
loop_
_space_group_symop_operation_xyz
x,y,z
-x,-y,z
-y,x,1/2+z
y,-x,1/2+z
-x,y,-z
x,-y,-z
y,x,1/2-z
-y,-x,1/2-z
-x,-y,-z
x,y,-z
y,-x,1/2-z
-y,x,1/2-z
x,-y,z
-x,y,z
-y,-x,1/2+z
y,x,1/2+z
loop_
_atom_site_type_symbol
_atom_site_label
_atom_site_fract_x
_atom_site_fract_y
_atom_site_fract_z
Si Si1 0.775025 0.114740 0.707537
Si Si2 0.108114 0.111528 0.889780
Si Si3 0.384838 0.769585 0.751858
Si Si4 0.613713 0.109339 0.847934
Si Si5 0.707653 0.887058 0.946446
O O1 0.844198 0.155803 0.750000
O O2 0.821929 0.143571 0.655350
O O3 0.667524 0.163381 0.710585
O O4 0.765096 0.000000 0.713441
O O5 0.177934 0.129283 0.936378
O O6 0.000000 0.139797 0.906987
O O7 0.113039 0.000000 0.871730
O O8 0.339144 0.660857 0.750000
O O9 0.500000 0.764424 0.742225
O O10 0.355793 0.818347 0.804193
O O11 0.500000 0.099304 0.849078
O O12 0.647714 0.156262 0.900172
O O13 0.658810 0.000000 0.840115
O O14 0.681654 0.000000 0.949877
O O15 0.682148 0.838716 0.000000
#
# Coordination Sequence:
#
# PCOD8315701 Si02
#       5
#    16  16  16  16  16
#     4  10  18  27  42  63  87 114 144 176 208 248
#     4   9  17  27  38  56  84 115 144 172 202 237
#     4  10  20  32  46  63  84 112 143 175 214 259
#     4   9  17  29  44  62  85 110 135 166 206 251
#     4   9  16  25  38  56  80 113 148 175 199 232
#
# _framework density 15.618961000000001
#
# number of rings (size 3 to 8) (size 9 to 14) (size 15 to 20)
#    0.000    2.600    0.000    3.600    0.000    4.800 
#    0.000    4.000    0.000    0.000    0.000    0.000 
#    0.000   12.800    0.000   35.200    0.000    1.600 
#
# Total GULP energy -991316.400991 kJ/mol
# GULP energy per Si atom -12391.455012 kJ/mol
# Density = 1.558341 g / cm^3
# Si number density = 15.618961 Si / 1000 Ang^3
#
#
#
# Elastic Constant Matrix: (Units=GPa)
#
#
# Indices 1 2 3 4 5 6 
#
# 1 52.8695 19.6548 24.2341 0.0000 0.0000 0.0000
# 2 19.6548 52.8726 24.2338 0.0000 0.0000 0.0000
# 3 24.2341 24.2338 83.2023 0.0000 0.0000 0.0000
# 4 0.0000 0.0000 0.0000 13.7051 0.0000 0.0000
# 5 0.0000 0.0000 0.0000 0.0000 13.7051 0.0000
# 6 0.0000 0.0000 0.0000 0.0000 0.0000 19.5305
#
#
#
# Elastic Compliance Matrix: (Units=1/GPa)
#
#
# Indices 1 2 3 4 5 6 
#
# 1 0.023614 -0.006493 -0.004987 0.000000 0.000000 0.000000
# 2 -0.006493 0.023612 -0.004986 0.000000 0.000000 0.000000
# 3 -0.004987 -0.004986 0.014924 0.000000 0.000000 0.000000
# 4 0.000000 0.000000 0.000000 0.072965 0.000000 0.000000
# 5 0.000000 0.000000 0.000000 0.000000 0.072965 0.000000
# 6 0.000000 0.000000 0.000000 0.000000 0.000000 0.051202
#
#
# Mechanical properties :
#
#
# Convention : Reuss Voigt Hill
#
# Bulk Modulus (GPa) = 34.22487 36.13221 35.17854
# Shear Modulus (GPa) = 16.55879 17.44292 17.00086
#
# Velocity S-wave (km/s) = 3.25956 3.34545 3.30278
# Velocity P-wave (km/s) = 6.01051 6.17305 6.09232
#
# Compressibility (1/GPa) = 0.02921852
#
# Stress axis : x y z
#
# Youngs Moduli (GPa) = 42.34768 42.35064 67.00714
#
# Poissons Ratio (x) = 0.27496 0.33416
# Poissons Ratio (y) = 0.27494 0.33412
# Poissons Ratio (z) = 0.21119 0.21118
#
# Static dielectric constant tensor:
#      x y z
#    x 2.953720 0.000000 0.000000 
#    y 0.000000 2.953720 0.000000 
#    z 0.000000 0.000000 3.122370 
# 
# 
# High freq. dielectric constant tensor:
#      x y z
#    x 1.581780 0.000000 0.000000 
#    y 0.000000 1.581780 0.000000 
#    z 0.000000 0.000000 1.591350 
# 
# From -- ./inp_files/10930.got.cif
#   From: 2010.03.12/outbox.cif.g09.slc.cpg/sg131_6_cif.got.tgz:10930.got - 2010.04.06 17:36:35.
