data_PCOD8315500
_publ_section_title
;
Structure prediction by ZEFSAII (Michael W. Deem and Ramdas Pophale) SiO2 
 PCOD8315500
Probable space group: P 4/N C C
;
_chemical_formula_sum "Si O2"
_cell_formula_units_Z 72
_cell_length_a 28.136995
_cell_length_b 28.136995
_cell_length_c 5.451245
_cell_angle_alpha 90.000000
_cell_angle_beta 90.000000
_cell_angle_gamma 90.000000
_cell_volume 4315.698812
_symmetry_space_group_name_H-M "P 4/N C C"
_symmetry_group_IT_number 130
_symmetry_cell_setting 'tetragonal'
loop_
_space_group_symop_operation_xyz
x,y,z
1/2-y,x,z
1/2-x,1/2-y,z
y,1/2-x,z
1/2+x,-y,1/2-z
-x,1/2+y,1/2-z
1/2+y,1/2+x,1/2-z
-y,-x,1/2-z
-x,-y,-z
1/2+y,-x,-z
1/2+x,1/2+y,-z
-y,1/2+x,-z
1/2-x,y,1/2+z
x,1/2-y,1/2+z
1/2-y,1/2-x,1/2+z
y,x,1/2+z
loop_
_atom_site_type_symbol
_atom_site_label
_atom_site_fract_x
_atom_site_fract_y
_atom_site_fract_z
Si Si1 0.554333 0.272982 0.192710
Si Si2 0.556650 0.376127 0.091963
Si Si3 0.342077 0.763972 0.898305
Si Si4 0.948452 0.524383 0.999686
Si Si5 0.861577 0.138424 0.750000
O O1 0.532901 0.246780 0.434585
O O2 0.540375 0.328586 0.233432
O O3 0.611518 0.267088 0.179053
O O4 0.589002 0.410998 0.250000
O O5 0.512598 0.405536 0.988764
O O6 0.586660 0.356064 0.864544
O O7 0.313959 0.759247 0.631834
O O8 0.356407 0.818807 0.948125
O O9 0.943859 0.555287 0.748274
O O10 0.000000 0.500000 0.000000
#
# Coordination Sequence:
#
# PCOD8315500 Si02
#       5
#    16  16  16  16   8
#     4  10  20  36  45  68  97 107 150 207 224 284
#     4  12  22  30  56  72  88 132 152 180 265 296
#     4  10  20  36  45  65  91 103 136 205 224 281
#     4  10  20  36  45  68 106 115 146 196 215 291
#     4  12  22  30  56  69  82 116 154 180 254 300
#
# _framework density 16.683278000000001
#
# number of rings (size 3 to 8) (size 9 to 14) (size 15 to 20)
#    0.000    1.333    6.667    4.000    0.000    0.000 
#    0.000    0.000    0.000    2.000    0.000    0.000 
#    0.000    0.000    0.000    0.000    0.000    0.000 
#
# Total GULP energy -892098.568119 kJ/mol
# GULP energy per Si atom -12390.257891 kJ/mol
# Density = 1.664531 g / cm^3
# Si number density = 16.683278 Si / 1000 Ang^3
#
#
#
# Elastic Constant Matrix: (Units=GPa)
#
#
# Indices 1 2 3 4 5 6 
#
# 1 50.0986 42.4511 27.7852 0.0000 0.0000 0.0000
# 2 42.4511 50.0983 27.7867 0.0000 0.0000 0.0000
# 3 27.7852 27.7867 147.7995 0.0000 0.0000 0.0000
# 4 0.0000 0.0000 0.0000 18.4892 0.0000 0.0000
# 5 0.0000 0.0000 0.0000 0.0000 18.4901 0.0000
# 6 0.0000 0.0000 0.0000 0.0000 0.0000 -1.0334
#
#
#
# Elastic Compliance Matrix: (Units=1/GPa)
#
#
# Indices 1 2 3 4 5 6 
#
# 1 0.071472 -0.059292 -0.002289 0.000000 0.000000 0.000000
# 2 -0.059292 0.071473 -0.002291 0.000000 0.000000 0.000000
# 3 -0.002289 -0.002291 0.007627 0.000000 0.000000 0.000000
# 4 0.000000 0.000000 0.000000 0.054086 0.000000 0.000000
# 5 0.000000 0.000000 0.000000 0.000000 0.054083 0.000000
# 6 0.000000 0.000000 0.000000 0.000000 0.000000 -0.967681
#
#
# Mechanical properties :
#
#
# Convention : Reuss Voigt Hill
#
# Bulk Modulus (GPa) = 43.80670 49.33806 46.57238
# Shear Modulus (GPa) = -8.71705 17.18741 4.23518
#
# Velocity S-wave (km/s) = -2.28831 3.21318 1.59502
# Velocity P-wave (km/s) = 4.39693 6.58814 5.60074
#
# Compressibility (1/GPa) = 0.02282756
#
# Stress axis : x y z
#
# Youngs Moduli (GPa) = 13.99158 13.99131 131.11529
#
# Poissons Ratio (x) = 0.82958 0.30013
# Poissons Ratio (y) = 0.82959 0.30033
# Poissons Ratio (z) = 0.03203 0.03205
#
# Static dielectric constant tensor:
#      x y z
#    x 2.859400 0.000000 0.000000 
#    y 0.000000 2.859350 0.000000 
#    z 0.000000 0.000000 4.029170 
# 
# 
# High freq. dielectric constant tensor:
#      x y z
#    x 1.590700 0.000000 0.000000 
#    y 0.000000 1.590700 0.000000 
#    z 0.000000 0.000000 1.678780 
# 
# From -- ./inp_files/203.got.cif
#   From: 2010.03.12/outbox.cif.g09.slc.cpg/sg130_1_cif.got.tgz:203.got - 2010.04.06 17:30:23.
