data_PCOD8315538
_publ_section_title
;
Structure prediction by ZEFSAII (Michael W. Deem and Ramdas Pophale) SiO2 
 PCOD8315538
Probable space group: P 4/N C C
;
_chemical_formula_sum "Si O2"
_cell_formula_units_Z 56
_cell_length_a 14.659722
_cell_length_b 14.659722
_cell_length_c 12.572423
_cell_angle_alpha 90.000000
_cell_angle_beta 90.000000
_cell_angle_gamma 90.000000
_cell_volume 2701.907356
_symmetry_space_group_name_H-M "P 4/N C C"
_symmetry_group_IT_number 130
_symmetry_cell_setting 'tetragonal'
loop_
_space_group_symop_operation_xyz
x,y,z
1/2-y,x,z
1/2-x,1/2-y,z
y,1/2-x,z
1/2+x,-y,1/2-z
-x,1/2+y,1/2-z
1/2+y,1/2+x,1/2-z
-y,-x,1/2-z
-x,-y,-z
1/2+y,-x,-z
1/2+x,1/2+y,-z
-y,1/2+x,-z
1/2-x,y,1/2+z
x,1/2-y,1/2+z
1/2-y,1/2-x,1/2+z
y,x,1/2+z
loop_
_atom_site_type_symbol
_atom_site_label
_atom_site_fract_x
_atom_site_fract_y
_atom_site_fract_z
Si Si1 0.156264 0.656264 0.250000
Si Si2 0.017880 0.144639 0.657595
Si Si3 0.330056 0.925619 0.865603
Si Si4 0.504566 0.666320 0.909187
O O1 0.139447 0.753312 0.189673
O O2 0.140352 0.583205 0.158611
O O3 0.056891 0.245802 0.637471
O O4 0.081095 0.071963 0.598752
O O5 0.005286 0.133921 0.785050
O O6 0.916020 0.139068 0.606661
O O7 0.302533 0.977175 0.972241
#
# Coordination Sequence:
#
# PCOD8315538 Si02
#       4
#     8  16  16  16
#     4  10  22  39  62  92 120 157 212 268 334 399
#     4  10  23  37  57  88 118 158 209 248 300 384
#     4  10  21  39  61  89 121 155 204 270 331 383
#     4  11  22  39  61  85 123 166 205 260 321 377
#
# _framework density 20.726099000000001
#
# number of rings (size 3 to 8) (size 9 to 14) (size 15 to 20)
#    0.000    1.714    0.000    4.286    0.000   14.286 
#    0.000    8.571    0.000    6.857    0.000    0.000 
#    0.000    0.000    0.000    0.000    0.000    0.000 
#
# Total GULP energy -693832.462685 kJ/mol
# GULP energy per Si atom -12389.865405 kJ/mol
# Density = 2.067893 g / cm^3
# Si number density = 20.726099 Si / 1000 Ang^3
#
#
#
# Elastic Constant Matrix: (Units=GPa)
#
#
# Indices 1 2 3 4 5 6 
#
# 1 113.3586 71.0394 39.9694 0.0000 0.0000 0.0000
# 2 71.0394 113.3586 39.9694 0.0000 0.0000 0.0000
# 3 39.9694 39.9694 128.7136 0.0000 0.0000 0.0000
# 4 0.0000 0.0000 0.0000 27.5808 0.0000 0.0000
# 5 0.0000 0.0000 0.0000 0.0000 27.5808 0.0000
# 6 0.0000 0.0000 0.0000 0.0000 0.0000 37.9433
#
#
#
# Elastic Compliance Matrix: (Units=1/GPa)
#
#
# Indices 1 2 3 4 5 6 
#
# 1 0.014948 -0.008682 -0.001946 0.000000 0.000000 0.000000
# 2 -0.008682 0.014948 -0.001946 0.000000 0.000000 0.000000
# 3 -0.001946 -0.001946 0.008978 0.000000 0.000000 0.000000
# 4 0.000000 0.000000 0.000000 0.036257 0.000000 0.000000
# 5 0.000000 0.000000 0.000000 0.000000 0.036257 0.000000
# 6 0.000000 0.000000 0.000000 0.000000 0.000000 0.026355
#
#
# Mechanical properties :
#
#
# Convention : Reuss Voigt Hill
#
# Bulk Modulus (GPa) = 72.84837 73.04302 72.94570
# Shear Modulus (GPa) = 29.85671 32.25116 31.05394
#
# Velocity S-wave (km/s) = 3.79956 3.94898 3.87499
# Velocity P-wave (km/s) = 7.38060 7.49074 7.43587
#
# Compressibility (1/GPa) = 0.01372714
#
# Stress axis : x y z
#
# Youngs Moduli (GPa) = 66.89728 66.89728 111.38640
#
# Poissons Ratio (x) = 0.58078 0.21676
# Poissons Ratio (y) = 0.58078 0.21676
# Poissons Ratio (z) = 0.13018 0.13018
#
# Static dielectric constant tensor:
#      x y z
#    x 3.645540 0.000000 0.000000 
#    y 0.000000 3.645540 0.000000 
#    z 0.000000 0.000000 3.871800 
# 
# 
# High freq. dielectric constant tensor:
#      x y z
#    x 1.801810 0.000000 0.000000 
#    y 0.000000 1.801810 0.000000 
#    z 0.000000 0.000000 1.819780 
# 
# From -- ./inp_files/1403.got.cif
#   From: 2010.03.12/outbox.cif.g09.slc.cpg/sg130_1_cif.got.tgz:1403.got - 2010.04.06 17:30:23.
