data_PCOD8315709
_publ_section_title
;
Structure prediction by ZEFSAII (Michael W. Deem and Ramdas Pophale) SiO2 
 PCOD8315709
Probable space group: P 42/M M C
;
_chemical_formula_sum "Si O2"
_cell_formula_units_Z 56
_cell_length_a 13.840760
_cell_length_b 13.840760
_cell_length_c 18.506421
_cell_angle_alpha 90.000000
_cell_angle_beta 90.000000
_cell_angle_gamma 90.000000
_cell_volume 3545.212841
_symmetry_space_group_name_H-M "P 42/M M C"
_symmetry_group_IT_number 131
_symmetry_cell_setting 'tetragonal'
loop_
_space_group_symop_operation_xyz
x,y,z
-x,-y,z
-y,x,1/2+z
y,-x,1/2+z
-x,y,-z
x,-y,-z
y,x,1/2-z
-y,-x,1/2-z
-x,-y,-z
x,y,-z
y,-x,1/2-z
-y,x,1/2-z
x,-y,z
-x,y,z
-y,-x,1/2+z
y,x,1/2+z
loop_
_atom_site_type_symbol
_atom_site_label
_atom_site_fract_x
_atom_site_fract_y
_atom_site_fract_z
Si Si1 0.611668 0.751608 0.210677
Si Si2 0.109611 0.611364 0.160624
Si Si3 0.719136 0.308298 0.083831
Si Si4 0.393217 0.500000 0.084904
O O1 0.660112 0.660112 0.250000
O O2 0.500000 0.727839 0.195793
O O3 0.623821 0.847232 0.259133
O O4 0.667208 0.772194 0.134179
O O5 0.114729 0.500000 0.135638
O O6 0.168036 0.677102 0.102947
O O7 0.000000 0.649059 0.161533
O O8 0.665999 0.406556 0.108902
O O9 0.706374 0.281163 0.000000
O O10 0.500000 0.500000 0.120531
O O11 0.404241 0.500000 0.000000
#
# Coordination Sequence:
#
# PCOD8315709 Si02
#       4
#    16  16  16   8
#     4   9  18  29  41  60  86 118 154 184 215 258
#     4   9  17  30  45  59  81 116 157 196 226 256
#     4  10  18  28  41  62  89 115 149 185 221 264
#     4   9  16  24  35  55  87 123 149 170 202 248
#
# _framework density 15.795947999999999
#
# number of rings (size 3 to 8) (size 9 to 14) (size 15 to 20)
#    0.000    2.714    1.429    0.857    2.000    2.571 
#    0.000    1.429    0.000    0.857    0.000    4.000 
#    0.000   46.286    0.000   23.143    0.000    0.000 
#
# Total GULP energy -694126.593360 kJ/mol
# GULP energy per Si atom -12395.117739 kJ/mol
# Density = 1.576000 g / cm^3
# Si number density = 15.795948 Si / 1000 Ang^3
#
#
#
# Elastic Constant Matrix: (Units=GPa)
#
#
# Indices 1 2 3 4 5 6 
#
# 1 76.0711 14.0734 23.5475 0.0000 0.0000 0.0000
# 2 14.0734 76.0711 23.5475 0.0000 0.0000 0.0000
# 3 23.5475 23.5475 103.5583 0.0000 0.0000 0.0000
# 4 0.0000 0.0000 0.0000 15.4692 0.0000 0.0000
# 5 0.0000 0.0000 0.0000 0.0000 15.4692 0.0000
# 6 0.0000 0.0000 0.0000 0.0000 0.0000 9.9428
#
#
#
# Elastic Compliance Matrix: (Units=1/GPa)
#
#
# Indices 1 2 3 4 5 6 
#
# 1 0.014359 -0.001770 -0.002862 0.000000 0.000000 0.000000
# 2 -0.001770 0.014359 -0.002862 0.000000 0.000000 0.000000
# 3 -0.002862 -0.002862 0.010958 0.000000 0.000000 0.000000
# 4 0.000000 0.000000 0.000000 0.064645 0.000000 0.000000
# 5 0.000000 0.000000 0.000000 0.000000 0.064645 0.000000
# 6 0.000000 0.000000 0.000000 0.000000 0.000000 0.100575
#
#
# Mechanical properties :
#
#
# Convention : Reuss Voigt Hill
#
# Bulk Modulus (GPa) = 40.50914 42.00412 41.25663
# Shear Modulus (GPa) = 17.07880 21.14504 19.11192
#
# Velocity S-wave (km/s) = 3.29175 3.66271 3.48217
# Velocity P-wave (km/s) = 6.33628 6.67358 6.50712
#
# Compressibility (1/GPa) = 0.02468578
#
# Stress axis : x y z
#
# Youngs Moduli (GPa) = 69.64174 69.64174 91.25617
#
# Poissons Ratio (x) = 0.12330 0.26122
# Poissons Ratio (y) = 0.12330 0.26122
# Poissons Ratio (z) = 0.19935 0.19935
#
# Static dielectric constant tensor:
#      x y z
#    x 2.860740 0.000000 0.000000 
#    y 0.000000 2.860740 0.000000 
#    z 0.000000 0.000000 3.097610 
# 
# 
# High freq. dielectric constant tensor:
#      x y z
#    x 1.573040 0.000000 0.000000 
#    y 0.000000 1.573040 0.000000 
#    z 0.000000 0.000000 1.615430 
# 
# From -- ./inp_files/7190.got.cif
#   From: 2010.03.12/outbox.cif.g09.slc.cpg/sg131_4_cif.got.tgz:7190.got - 2010.04.06 17:36:35.
