data_PCOD8315227
_publ_section_title
;
Structure prediction by ZEFSAII (Michael W. Deem and Ramdas Pophale) SiO2 
 PCOD8315227
Probable space group: P 4/N M M
;
_chemical_formula_sum "Si O2"
_cell_formula_units_Z 64
_cell_length_a 13.745694
_cell_length_b 13.745694
_cell_length_c 20.110449
_cell_angle_alpha 90.000000
_cell_angle_beta 90.000000
_cell_angle_gamma 90.000000
_cell_volume 3799.750758
_symmetry_space_group_name_H-M "P 4/N M M"
_symmetry_group_IT_number 129
_symmetry_cell_setting 'tetragonal'
loop_
_space_group_symop_operation_xyz
x,y,z
1/2-y,x,z
1/2-x,1/2-y,z
y,1/2-x,z
1/2+x,-y,-z
-x,1/2+y,-z
1/2+y,1/2+x,-z
-y,-x,-z
-x,-y,-z
1/2+y,-x,-z
1/2+x,1/2+y,-z
-y,1/2+x,-z
1/2-x,y,z
x,1/2-y,z
1/2-y,1/2-x,z
y,x,z
loop_
_atom_site_type_symbol
_atom_site_label
_atom_site_fract_x
_atom_site_fract_y
_atom_site_fract_z
Si Si1 0.862066 0.480271 0.699506
Si Si2 0.134515 0.642037 0.927070
Si Si3 0.521235 0.364519 0.801436
Si Si4 0.017895 0.860547 0.546716
O O1 0.750000 0.498608 0.718264
O O2 0.904872 0.391488 0.742262
O O3 0.874107 0.449540 0.622881
O O4 0.920284 0.579717 0.715111
O O5 0.250000 0.649806 0.925508
O O6 0.090592 0.750000 0.913846
O O7 0.098504 0.568420 0.870507
O O8 0.102512 0.602512 0.000000
O O9 0.501406 0.250000 0.800390
O O10 0.418445 0.418445 0.791957
O O11 0.106478 0.893523 0.500000
O O12 0.991411 0.750000 0.530635
O O13 0.921799 0.921799 0.529878
#
# Coordination Sequence:
#
# PCOD8315227 Si02
#       4
#    16  16  16  16
#     4   9  18  32  50  72  95 119 148 184 229 278
#     4   8  14  26  45  68  91 113 141 182 230 276
#     4  10  20  32  46  65  90 122 159 195 229 266
#     4   9  18  32  49  70  96 123 152 187 225 268
#
# _framework density 16.843211
#
# number of rings (size 3 to 8) (size 9 to 14) (size 15 to 20)
#    0.000    3.000    0.000    1.500    0.000    4.000 
#    0.000    5.000    0.000    0.000    0.000    7.000 
#    0.000    6.000    0.000    0.000    0.000    0.000 
#
# Total GULP energy -793475.389051 kJ/mol
# GULP energy per Si atom -12398.052954 kJ/mol
# Density = 1.680488 g / cm^3
# Si number density = 16.843211 Si / 1000 Ang^3
#
#
#
# Elastic Constant Matrix: (Units=GPa)
#
#
# Indices 1 2 3 4 5 6 
#
# 1 89.6249 40.0020 50.2122 0.0000 0.0000 0.0000
# 2 40.0020 89.6306 50.2120 0.0000 0.0000 0.0000
# 3 50.2122 50.2120 92.5912 0.0000 0.0000 0.0000
# 4 0.0000 0.0000 0.0000 25.1409 0.0000 0.0000
# 5 0.0000 0.0000 0.0000 0.0000 25.1408 0.0000
# 6 0.0000 0.0000 0.0000 0.0000 0.0000 12.6389
#
#
#
# Elastic Compliance Matrix: (Units=1/GPa)
#
#
# Indices 1 2 3 4 5 6 
#
# 1 0.016728 -0.003424 -0.007215 0.000000 0.000000 0.000000
# 2 -0.003424 0.016726 -0.007214 0.000000 0.000000 0.000000
# 3 -0.007215 -0.007214 0.018625 0.000000 0.000000 0.000000
# 4 0.000000 0.000000 0.000000 0.039776 0.000000 0.000000
# 5 0.000000 0.000000 0.000000 0.000000 0.039776 0.000000
# 6 0.000000 0.000000 0.000000 0.000000 0.000000 0.079121
#
#
# Mechanical properties :
#
#
# Convention : Reuss Voigt Hill
#
# Bulk Modulus (GPa) = 61.07264 61.41104 61.24184
# Shear Modulus (GPa) = 19.84799 21.34547 20.59673
#
# Velocity S-wave (km/s) = 3.43650 3.56378 3.50072
# Velocity P-wave (km/s) = 7.21694 7.31257 7.26491
#
# Compressibility (1/GPa) = 0.01637394
#
# Stress axis : x y z
#
# Youngs Moduli (GPa) = 59.78067 59.78629 53.69184
#
# Poissons Ratio (x) = 0.20470 0.38737
# Poissons Ratio (y) = 0.20468 0.38733
# Poissons Ratio (z) = 0.43130 0.43129
#
# Static dielectric constant tensor:
#      x y z
#    x 3.012200 0.000000 0.000000 
#    y 0.000000 3.012200 0.000000 
#    z 0.000000 0.000000 3.457270 
# 
# 
# High freq. dielectric constant tensor:
#      x y z
#    x 1.633550 0.000000 0.000000 
#    y 0.000000 1.633550 0.000000 
#    z 0.000000 0.000000 1.661550 
# 
# From -- ./inp_files/4455.got.cif
#   From: 2010.03.12/outbox.cif.g09.slc.cpg/sg129_3_cif.got.tgz:4455.got - 2010.04.06 17:19:44.
