data_PCOD8315235
_publ_section_title
;
Structure prediction by ZEFSAII (Michael W. Deem and Ramdas Pophale) SiO2 
 PCOD8315235
Probable space group: P 4/N M M
;
_chemical_formula_sum "Si O2"
_cell_formula_units_Z 80
_cell_length_a 13.905205
_cell_length_b 13.905205
_cell_length_c 25.611699
_cell_angle_alpha 90.000000
_cell_angle_beta 90.000000
_cell_angle_gamma 90.000000
_cell_volume 4952.143045
_symmetry_space_group_name_H-M "P 4/N M M"
_symmetry_group_IT_number 129
_symmetry_cell_setting 'tetragonal'
loop_
_space_group_symop_operation_xyz
x,y,z
1/2-y,x,z
1/2-x,1/2-y,z
y,1/2-x,z
1/2+x,-y,-z
-x,1/2+y,-z
1/2+y,1/2+x,-z
-y,-x,-z
-x,-y,-z
1/2+y,-x,-z
1/2+x,1/2+y,-z
-y,1/2+x,-z
1/2-x,y,z
x,1/2-y,z
1/2-y,1/2-x,z
y,x,z
loop_
_atom_site_type_symbol
_atom_site_label
_atom_site_fract_x
_atom_site_fract_y
_atom_site_fract_z
Si Si1 0.640276 0.011716 0.845389
Si Si2 0.635976 0.356583 0.359307
Si Si3 0.521487 0.364724 0.541997
Si Si4 0.635874 0.355902 0.754844
Si Si5 0.482040 0.639406 0.963030
O O1 0.750000 0.992890 0.831433
O O2 0.592790 0.081883 0.802366
O O3 0.627100 0.055054 0.903462
O O4 0.591442 0.908559 0.841806
O O5 0.750000 0.348508 0.356134
O O6 0.594895 0.250000 0.373677
O O7 0.605541 0.435035 0.401945
O O8 0.598290 0.389739 0.301986
O O9 0.599438 0.400563 0.500000
O O10 0.505355 0.250000 0.536339
O O11 0.419513 0.419513 0.534787
O O12 0.750000 0.348575 0.760151
O O13 0.589836 0.250000 0.759993
O O14 0.506017 0.750000 0.975537
O O15 0.578796 0.578796 0.973606
O O16 0.396229 0.603772 0.000000
#
# Coordination Sequence:
#
# PCOD8315235 Si02
#       5
#    16  16  16  16  16
#     4   9  17  28  42  61  85 113 142 171 206 249
#     4   8  14  26  44  64  86 112 142 178 216 251
#     4  10  20  32  47  68  91 116 148 183 220 263
#     4   8  14  25  41  62  87 112 140 176 214 249
#     4   9  18  31  45  63  87 113 144 181 219 262
#
# _framework density 16.154620999999999
#
# number of rings (size 3 to 8) (size 9 to 14) (size 15 to 20)
#    0.000    3.200    0.000    1.800    0.000    3.400 
#    0.000    4.000    0.000    0.000    0.000    0.000 
#    0.000    5.200    0.000    0.400    0.000    0.200 
#
# Total GULP energy -991382.087070 kJ/mol
# GULP energy per Si atom -12392.276088 kJ/mol
# Density = 1.611785 g / cm^3
# Si number density = 16.154621 Si / 1000 Ang^3
#
#
#
# Elastic Constant Matrix: (Units=GPa)
#
#
# Indices 1 2 3 4 5 6 
#
# 1 69.8719 33.5497 47.4023 0.0000 0.0000 0.0000
# 2 33.5497 69.8707 47.4024 0.0000 0.0000 0.0000
# 3 47.4023 47.4024 116.9302 0.0000 0.0000 0.0000
# 4 0.0000 0.0000 0.0000 21.7342 0.0000 0.0000
# 5 0.0000 0.0000 0.0000 0.0000 21.7342 0.0000
# 6 0.0000 0.0000 0.0000 0.0000 0.0000 13.7226
#
#
#
# Elastic Compliance Matrix: (Units=1/GPa)
#
#
# Indices 1 2 3 4 5 6 
#
# 1 0.021459 -0.006072 -0.006238 0.000000 0.000000 0.000000
# 2 -0.006072 0.021460 -0.006238 0.000000 0.000000 0.000000
# 3 -0.006238 -0.006238 0.013610 0.000000 0.000000 0.000000
# 4 0.000000 0.000000 0.000000 0.046010 0.000000 0.000000
# 5 0.000000 0.000000 0.000000 0.000000 0.046010 0.000000
# 6 0.000000 0.000000 0.000000 0.000000 0.000000 0.072872
#
#
# Mechanical properties :
#
#
# Convention : Reuss Voigt Hill
#
# Bulk Modulus (GPa) = 51.45912 57.04238 54.25075
# Shear Modulus (GPa) = 18.86822 19.99277 19.43050
#
# Velocity S-wave (km/s) = 3.42128 3.52175 3.47188
# Velocity P-wave (km/s) = 6.89421 7.20582 7.05174
#
# Compressibility (1/GPa) = 0.01943290
#
# Stress axis : x y z
#
# Youngs Moduli (GPa) = 46.59972 46.59850 73.47711
#
# Poissons Ratio (x) = 0.28296 0.45833
# Poissons Ratio (y) = 0.28296 0.45835
# Poissons Ratio (z) = 0.29068 0.29068
#
# Static dielectric constant tensor:
#      x y z
#    x 2.882160 0.000000 0.000000 
#    y 0.000000 2.882160 0.000000 
#    z 0.000000 0.000000 3.469090 
# 
# 
# High freq. dielectric constant tensor:
#      x y z
#    x 1.594900 0.000000 0.000000 
#    y 0.000000 1.594900 0.000000 
#    z 0.000000 0.000000 1.639070 
# 
# From -- ./inp_files/6315.got.cif
#   From: 2010.03.12/outbox.cif.g09.slc.cpg/sg129_4_cif.got.tgz:6315.got - 2010.04.06 17:19:44.
