data_PCOD8315555
_publ_section_title
;
Structure prediction by ZEFSAII (Michael W. Deem and Ramdas Pophale) SiO2 
 PCOD8315555
Probable space group: P 4/N C C
;
_chemical_formula_sum "Si O2"
_cell_formula_units_Z 112
_cell_length_a 14.171645
_cell_length_b 14.171645
_cell_length_c 26.419435
_cell_angle_alpha 90.000000
_cell_angle_beta 90.000000
_cell_angle_gamma 90.000000
_cell_volume 5305.961019
_symmetry_space_group_name_H-M "P 4/N C C"
_symmetry_group_IT_number 130
_symmetry_cell_setting 'tetragonal'
loop_
_space_group_symop_operation_xyz
x,y,z
1/2-y,x,z
1/2-x,1/2-y,z
y,1/2-x,z
1/2+x,-y,1/2-z
-x,1/2+y,1/2-z
1/2+y,1/2+x,1/2-z
-y,-x,1/2-z
-x,-y,-z
1/2+y,-x,-z
1/2+x,1/2+y,-z
-y,1/2+x,-z
1/2-x,y,1/2+z
x,1/2-y,1/2+z
1/2-y,1/2-x,1/2+z
y,x,1/2+z
loop_
_atom_site_type_symbol
_atom_site_label
_atom_site_fract_x
_atom_site_fract_y
_atom_site_fract_z
Si Si1 0.147348 0.362661 0.954097
Si Si2 0.705735 0.603438 0.846326
Si Si3 0.619367 0.330464 0.491613
Si Si4 0.366829 0.508796 0.785056
Si Si5 0.052843 0.384421 0.056873
Si Si6 0.000399 0.655087 0.750512
Si Si7 0.919186 0.474096 0.600479
O O1 0.117546 0.255243 0.942736
O O2 0.084217 0.423015 0.915719
O O3 0.130780 0.387298 0.012875
O O4 0.811649 0.634080 0.834994
O O5 0.702386 0.570017 0.904838
O O6 0.677082 0.518832 0.809304
O O7 0.719588 0.379031 0.498883
O O8 0.549827 0.379736 0.531487
O O9 0.583095 0.346101 0.434692
O O10 0.408806 0.591195 0.750000
O O11 0.416579 0.408599 0.773145
O O12 0.253646 0.503832 0.779762
O O13 0.389364 0.539308 0.842084
O O14 0.065610 0.476400 0.091684
O O15 0.100201 0.600201 0.750000
#
# Coordination Sequence:
#
# PCOD8315555 Si02
#       7
#    16  16  16  16  16  16  16
#     4  10  22  39  60  94 133 167 212 267 328 402
#     4  11  23  41  69 100 130 172 225 286 350 408
#     4  10  24  42  63  92 131 177 222 267 325 405
#     4  11  26  47  69 102 141 178 240 292 350 419
#     4  11  23  37  66  93 131 170 218 273 338 392
#     4  11  24  45  72 100 137 182 227 292 352 413
#     4  11  26  39  67  93 131 174 219 269 338 396
#
# _framework density 21.108335
#
# number of rings (size 3 to 8) (size 9 to 14) (size 15 to 20)
#    0.000    1.286    1.429    4.286   12.000    2.857 
#    0.000    1.429    0.000    0.000    0.000    0.000 
#    0.000    0.000    0.000    0.000    0.000    0.000 
#
# Total GULP energy -1389174.076664 kJ/mol
# GULP energy per Si atom -12403.339970 kJ/mol
# Density = 2.106029 g / cm^3
# Si number density = 21.108335 Si / 1000 Ang^3
#
#
#
# Elastic Constant Matrix: (Units=GPa)
#
#
# Indices 1 2 3 4 5 6 
#
# 1 61.6026 51.5127 24.6521 0.0000 0.0000 0.0000
# 2 51.5127 61.6001 24.6509 0.0000 0.0000 0.0000
# 3 24.6521 24.6509 142.1414 0.0000 0.0000 0.0000
# 4 0.0000 0.0000 0.0000 26.7802 0.0000 0.0000
# 5 0.0000 0.0000 0.0000 0.0000 26.7803 0.0000
# 6 0.0000 0.0000 0.0000 0.0000 0.0000 32.8427
#
#
#
# Elastic Compliance Matrix: (Units=1/GPa)
#
#
# Indices 1 2 3 4 5 6 
#
# 1 0.054341 -0.044779 -0.001659 0.000000 0.000000 0.000000
# 2 -0.044779 0.054343 -0.001658 0.000000 0.000000 0.000000
# 3 -0.001659 -0.001658 0.007611 0.000000 0.000000 0.000000
# 4 0.000000 0.000000 0.000000 0.037341 0.000000 0.000000
# 5 0.000000 0.000000 0.000000 0.000000 0.037341 0.000000
# 6 0.000000 0.000000 0.000000 0.000000 0.000000 0.030448
#
#
# Mechanical properties :
#
#
# Convention : Reuss Voigt Hill
#
# Bulk Modulus (GPa) = 49.74316 51.88617 50.81467
# Shear Modulus (GPa) = 15.41693 28.24920 21.83307
#
# Velocity S-wave (km/s) = 2.70547 3.66224 3.21960
# Velocity P-wave (km/s) = 5.77722 6.52050 6.16008
#
# Compressibility (1/GPa) = 0.02010327
#
# Stress axis : x y z
#
# Youngs Moduli (GPa) = 18.40216 18.40149 131.39659
#
# Poissons Ratio (x) = 0.82400 0.21797
# Poissons Ratio (y) = 0.82403 0.21790
# Poissons Ratio (z) = 0.03053 0.03052
#
# Static dielectric constant tensor:
#      x y z
#    x 3.857020 0.000000 0.000000 
#    y 0.000000 3.857020 0.000000 
#    z 0.000000 0.000000 3.772790 
# 
# 
# High freq. dielectric constant tensor:
#      x y z
#    x 1.832240 0.000000 0.000000 
#    y 0.000000 1.832240 0.000000 
#    z 0.000000 0.000000 1.826850 
# 
# From -- ./inp_files/4285.got.cif
#   From: 2010.03.12/outbox.cif.g09.slc.cpg/sg130_3_cif.got.tgz:4285.got - 2010.04.06 17:30:23.
