data_PCOD8315081
_publ_section_title
;
Structure prediction by ZEFSAII (Michael W. Deem and Ramdas Pophale) SiO2 
 PCOD8315081
Probable space group: P 4/N M M
;
_chemical_formula_sum "Si O2"
_cell_formula_units_Z 112
_cell_length_a 23.789617
_cell_length_b 23.789617
_cell_length_c 11.913003
_cell_angle_alpha 90.000000
_cell_angle_beta 90.000000
_cell_angle_gamma 90.000000
_cell_volume 6742.114931
_symmetry_space_group_name_H-M "P 4/N M M"
_symmetry_group_IT_number 129
_symmetry_cell_setting 'tetragonal'
loop_
_space_group_symop_operation_xyz
x,y,z
1/2-y,x,z
1/2-x,1/2-y,z
y,1/2-x,z
1/2+x,-y,-z
-x,1/2+y,-z
1/2+y,1/2+x,-z
-y,-x,-z
-x,-y,-z
1/2+y,-x,-z
1/2+x,1/2+y,-z
-y,1/2+x,-z
1/2-x,y,z
x,1/2-y,z
1/2-y,1/2-x,z
y,x,z
loop_
_atom_site_type_symbol
_atom_site_label
_atom_site_fract_x
_atom_site_fract_y
_atom_site_fract_z
Si Si1 0.993384 0.686539 0.328937
Si Si2 0.610674 0.980443 0.997971
Si Si3 0.408574 0.499479 0.490197
Si Si4 0.917359 0.492887 0.756206
Si Si5 0.872009 0.074154 0.172923
Si Si6 0.688221 0.187661 0.868293
Si Si7 0.404674 0.185250 0.855620
O O1 0.996830 0.750000 0.373507
O O2 0.935194 0.675479 0.263511
O O3 0.999060 0.646815 0.435423
O O4 0.043268 0.677641 0.239277
O O5 0.550692 0.949309 0.022651
O O6 0.660813 0.941668 0.042400
O O7 0.613681 0.041909 0.056038
O O8 0.619820 0.989551 0.864446
O O9 0.441511 0.558490 0.500000
O O10 0.449266 0.449266 0.530164
O O11 0.387984 0.490062 0.361192
O O12 0.929199 0.426912 0.750723
O O13 0.978198 0.521803 0.762824
O O14 0.856165 0.139358 0.160297
O O15 0.750000 0.167207 0.822908
O O16 0.674898 0.250000 0.819151
O O17 0.692305 0.192305 0.000000
O O18 0.394332 0.250000 0.882021
O O19 0.344583 0.155418 0.849413
#
# Coordination Sequence:
#
# PCOD8315081 Si02
#       7
#    16  16  16  16  16  16  16
#     4  10  20  33  50  72  99 129 162 204 253 298
#     4   9  18  30  45  72 106 131 154 193 246 300
#     4  10  19  33  52  72  96 127 166 208 246 295
#     4  10  19  30  48  73  99 125 158 200 244 292
#     4  11  18  29  49  71  94 124 159 194 243 302
#     4   9  18  31  44  60  86 120 158 199 237 276
#     4   9  18  32  51  75 104 136 167 201 243 294
#
# _framework density 16.611999000000001
#
# number of rings (size 3 to 8) (size 9 to 14) (size 15 to 20)
#    0.000    2.286    1.429    3.000    0.000    3.000 
#    0.000    2.143    0.000    0.000    0.000    0.000 
#    0.000    0.000    0.000    9.000    0.000    0.000 
#
# Total GULP energy -1388202.736251 kJ/mol
# GULP energy per Si atom -12394.667288 kJ/mol
# Density = 1.657419 g / cm^3
# Si number density = 16.611999 Si / 1000 Ang^3
#
#
#
# Elastic Constant Matrix: (Units=GPa)
#
#
# Indices 1 2 3 4 5 6 
#
# 1 107.4334 53.6158 43.5914 0.0000 0.0000 0.0000
# 2 53.6158 107.4332 43.5914 0.0000 0.0000 0.0000
# 3 43.5914 43.5914 99.1026 0.0000 0.0000 0.0000
# 4 0.0000 0.0000 0.0000 18.9953 0.0000 0.0000
# 5 0.0000 0.0000 0.0000 0.0000 18.9952 0.0000
# 6 0.0000 0.0000 0.0000 0.0000 0.0000 19.8759
#
#
#
# Elastic Compliance Matrix: (Units=1/GPa)
#
#
# Indices 1 2 3 4 5 6 
#
# 1 0.013366 -0.005216 -0.003585 0.000000 0.000000 0.000000
# 2 -0.005216 0.013366 -0.003585 0.000000 0.000000 0.000000
# 3 -0.003585 -0.003585 0.013244 0.000000 0.000000 0.000000
# 4 0.000000 0.000000 0.000000 0.052645 0.000000 0.000000
# 5 0.000000 0.000000 0.000000 0.000000 0.052645 0.000000
# 6 0.000000 0.000000 0.000000 0.000000 0.000000 0.050312
#
#
# Mechanical properties :
#
#
# Convention : Reuss Voigt Hill
#
# Bulk Modulus (GPa) = 65.76908 66.17402 65.97155
# Shear Modulus (GPa) = 22.18120 23.11799 22.64959
#
# Velocity S-wave (km/s) = 3.65807 3.73452 3.69650
# Velocity P-wave (km/s) = 7.58415 7.64965 7.61697
#
# Compressibility (1/GPa) = 0.01520471
#
# Stress axis : x y z
#
# Youngs Moduli (GPa) = 74.81904 74.81879 75.50469
#
# Poissons Ratio (x) = 0.39023 0.27067
# Poissons Ratio (y) = 0.39023 0.27067
# Poissons Ratio (z) = 0.26821 0.26821
#
# Static dielectric constant tensor:
#      x y z
#    x 3.103350 0.000000 0.000000 
#    y 0.000000 3.103360 0.000000 
#    z 0.000000 0.000000 3.087300 
# 
# 
# High freq. dielectric constant tensor:
#      x y z
#    x 1.630460 0.000000 0.000000 
#    y 0.000000 1.630460 0.000000 
#    z 0.000000 0.000000 1.628380 
# 
# From -- ./inp_files/4059.got.cif
#   From: 2010.03.12/outbox.cif.g09.slc.cpg/sg129_3_cif.got.tgz:4059.got - 2010.04.06 17:19:44.
