data_PCOD8315165
_publ_section_title
;
Structure prediction by ZEFSAII (Michael W. Deem and Ramdas Pophale) SiO2 
 PCOD8315165
Probable space group: P 4/N M M
;
_chemical_formula_sum "Si O2"
_cell_formula_units_Z 72
_cell_length_a 12.181412
_cell_length_b 12.181412
_cell_length_c 27.904197
_cell_angle_alpha 90.000000
_cell_angle_beta 90.000000
_cell_angle_gamma 90.000000
_cell_volume 4140.614452
_symmetry_space_group_name_H-M "P 4/N M M"
_symmetry_group_IT_number 129
_symmetry_cell_setting 'tetragonal'
loop_
_space_group_symop_operation_xyz
x,y,z
1/2-y,x,z
1/2-x,1/2-y,z
y,1/2-x,z
1/2+x,-y,-z
-x,1/2+y,-z
1/2+y,1/2+x,-z
-y,-x,-z
-x,-y,-z
1/2+y,-x,-z
1/2+x,1/2+y,-z
-y,1/2+x,-z
1/2-x,y,z
x,1/2-y,z
1/2-y,1/2-x,z
y,x,z
loop_
_atom_site_type_symbol
_atom_site_label
_atom_site_fract_x
_atom_site_fract_y
_atom_site_fract_z
Si Si1 0.629072 0.454256 0.147659
Si Si2 0.551647 0.126386 0.551618
Si Si3 0.450358 0.626432 0.951536
Si Si4 0.375831 0.750000 0.623307
Si Si5 0.750000 0.123689 0.784845
Si Si6 0.250000 0.062469 0.296122
O O1 0.750000 0.500988 0.155600
O O2 0.547780 0.547780 0.164501
O O3 0.617923 0.424373 0.091935
O O4 0.605542 0.352818 0.181440
O O5 0.601164 0.101164 0.500000
O O6 0.507240 0.250000 0.552097
O O7 0.643355 0.108357 0.591273
O O8 0.450058 0.049943 0.564710
O O9 0.480306 0.750000 0.938865
O O10 0.564982 0.564982 0.959210
O O11 0.379161 0.620840 0.000000
O O12 0.250000 0.750000 0.645429
O O13 0.477973 0.750000 0.659638
O O14 0.750000 0.250000 0.763230
O O15 0.750000 0.023317 0.747675
O O16 0.358909 0.141092 0.295998
#
# Coordination Sequence:
#
# PCOD8315165 Si02
#       6
#    16  16  16   8   8   8
#     4  10  20  34  53  78 105 137 176 219 268 321
#     4  10  19  32  51  75 106 143 183 226 268 317
#     4  10  20  33  50  73 102 136 176 220 265 318
#     4  10  20  35  58  79 107 143 189 226 269 319
#     4  10  20  37  60  79 105 139 183 226 271 321
#     4  11  23  38  56  82 115 145 178 228 284 333
#
# _framework density 17.388724
#
# number of rings (size 3 to 8) (size 9 to 14) (size 15 to 20)
#    0.000    1.889    2.222    2.333    0.000    1.778 
#    0.000    0.000    0.000    4.000    0.000    0.000 
#    0.000   16.000    0.000    0.000    0.000    0.000 
#
# Total GULP energy -892377.825717 kJ/mol
# GULP energy per Si atom -12394.136468 kJ/mol
# Density = 1.734915 g / cm^3
# Si number density = 17.388724 Si / 1000 Ang^3
#
#
#
# Elastic Constant Matrix: (Units=GPa)
#
#
# Indices 1 2 3 4 5 6 
#
# 1 140.4988 86.0638 48.8675 0.0000 0.0000 0.0000
# 2 86.0638 140.4992 48.8672 0.0000 0.0000 0.0000
# 3 48.8675 48.8672 81.9501 0.0000 0.0000 0.0000
# 4 0.0000 0.0000 0.0000 26.3086 0.0000 0.0000
# 5 0.0000 0.0000 0.0000 0.0000 26.3087 0.0000
# 6 0.0000 0.0000 0.0000 0.0000 0.0000 33.7870
#
#
#
# Elastic Compliance Matrix: (Units=1/GPa)
#
#
# Indices 1 2 3 4 5 6 
#
# 1 0.012156 -0.006214 -0.003544 0.000000 0.000000 0.000000
# 2 -0.006214 0.012156 -0.003543 0.000000 0.000000 0.000000
# 3 -0.003544 -0.003543 0.016429 0.000000 0.000000 0.000000
# 4 0.000000 0.000000 0.000000 0.038010 0.000000 0.000000
# 5 0.000000 0.000000 0.000000 0.000000 0.038010 0.000000
# 6 0.000000 0.000000 0.000000 0.000000 0.000000 0.029597
#
#
# Mechanical properties :
#
#
# Convention : Reuss Voigt Hill
#
# Bulk Modulus (GPa) = 70.72444 81.17168 75.94806
# Shear Modulus (GPa) = 28.14138 29.22416 28.68277
#
# Velocity S-wave (km/s) = 4.02726 4.10401 4.06582
# Velocity P-wave (km/s) = 7.89848 8.32101 8.11249
#
# Compressibility (1/GPa) = 0.01413938
#
# Stress axis : x y z
#
# Youngs Moduli (GPa) = 82.26086 82.26136 60.86972
#
# Poissons Ratio (x) = 0.51118 0.21569
# Poissons Ratio (y) = 0.51117 0.21569
# Poissons Ratio (z) = 0.29149 0.29149
#
# Static dielectric constant tensor:
#      x y z
#    x 3.347080 0.000000 0.000000 
#    y 0.000000 3.347090 0.000000 
#    z 0.000000 0.000000 3.239920 
# 
# 
# High freq. dielectric constant tensor:
#      x y z
#    x 1.678950 0.000000 0.000000 
#    y 0.000000 1.678950 0.000000 
#    z 0.000000 0.000000 1.668930 
# 
# From -- ./inp_files/7441.got.cif
#   From: 2010.03.12/outbox.cif.g09.slc.cpg/sg129_4_cif.got.tgz:7441.got - 2010.04.06 17:19:44.
