data_PCOD8315017
_publ_section_title
;
Structure prediction by ZEFSAII (Michael W. Deem and Ramdas Pophale) SiO2 
 PCOD8315017
Probable space group: P 4/N M M
;
_chemical_formula_sum "Si O2"
_cell_formula_units_Z 104
_cell_length_a 13.893487
_cell_length_b 13.893487
_cell_length_c 33.478225
_cell_angle_alpha 90.000000
_cell_angle_beta 90.000000
_cell_angle_gamma 90.000000
_cell_volume 6462.267658
_symmetry_space_group_name_H-M "P 4/N M M"
_symmetry_group_IT_number 129
_symmetry_cell_setting 'tetragonal'
loop_
_space_group_symop_operation_xyz
x,y,z
1/2-y,x,z
1/2-x,1/2-y,z
y,1/2-x,z
1/2+x,-y,-z
-x,1/2+y,-z
1/2+y,1/2+x,-z
-y,-x,-z
-x,-y,-z
1/2+y,-x,-z
1/2+x,1/2+y,-z
-y,1/2+x,-z
1/2-x,y,z
x,1/2-y,z
1/2-y,1/2-x,z
y,x,z
loop_
_atom_site_type_symbol
_atom_site_label
_atom_site_fract_x
_atom_site_fract_y
_atom_site_fract_z
Si Si1 0.018567 0.636181 0.618049
Si Si2 0.136924 0.980993 0.230993
Si Si3 0.017636 0.862615 0.076546
Si Si4 0.360765 0.639601 0.153276
Si Si5 0.638901 0.138901 0.000000
Si Si6 0.856852 0.135752 0.456056
Si Si7 0.136107 0.857642 0.306063
O O1 0.998824 0.750000 0.618323
O O2 0.915993 0.584008 0.621962
O O3 0.069722 0.599644 0.577573
O O4 0.086844 0.603554 0.654255
O O5 0.250000 0.003006 0.234507
O O6 0.110461 0.925745 0.190557
O O7 0.099549 0.915187 0.267375
O O8 0.082701 0.082701 0.231966
O O9 0.995736 0.750000 0.076008
O O10 0.076901 0.893044 0.115591
O O11 0.078360 0.894819 0.038098
O O12 0.915982 0.915982 0.076491
O O13 0.250000 0.625300 0.141341
O O14 0.380984 0.750000 0.165119
O O15 0.620379 0.250000 0.010264
O O16 0.895269 0.104732 0.500000
O O17 0.750000 0.092605 0.447999
O O18 0.849195 0.250000 0.454471
O O19 0.250000 0.849365 0.304639
O O20 0.091314 0.750000 0.306218
#
# Coordination Sequence:
#
# PCOD8315017 Si02
#       7
#    16  16  16  16   8  16  16
#     4  10  19  29  42  62  89 119 147 174 208 256
#     4  10  19  30  45  66  93 122 148 174 207 253
#     4  10  19  30  45  65  90 118 146 178 217 264
#     4   9  17  30  48  68  88 112 146 189 230 257
#     4   9  17  30  48  68  87 109 142 184 226 263
#     4   8  14  26  44  64  85 109 140 183 230 263
#     4   9  17  30  47  64  82 106 139 181 222 251
#
# _framework density 16.093422
#
# number of rings (size 3 to 8) (size 9 to 14) (size 15 to 20)
#    0.000    2.692    0.000    3.000    0.000    6.308 
#    0.000    0.000    0.000    2.769    0.000    0.000 
#    0.000   35.385    0.000    0.000    0.000    0.000 
#
# Total GULP energy -1289486.852736 kJ/mol
# GULP energy per Si atom -12398.912046 kJ/mol
# Density = 1.605679 g / cm^3
# Si number density = 16.093422 Si / 1000 Ang^3
#
#
#
# Elastic Constant Matrix: (Units=GPa)
#
#
# Indices 1 2 3 4 5 6 
#
# 1 70.0756 48.2187 53.8747 0.0000 0.0000 0.0000
# 2 48.2187 70.0757 53.8747 0.0000 0.0000 0.0000
# 3 53.8747 53.8747 143.0534 0.0000 0.0000 0.0000
# 4 0.0000 0.0000 0.0000 13.7955 0.0000 0.0000
# 5 0.0000 0.0000 0.0000 0.0000 13.7954 0.0000
# 6 0.0000 0.0000 0.0000 0.0000 0.0000 24.2994
#
#
#
# Elastic Compliance Matrix: (Units=1/GPa)
#
#
# Indices 1 2 3 4 5 6 
#
# 1 0.029310 -0.016442 -0.004846 0.000000 0.000000 0.000000
# 2 -0.016442 0.029310 -0.004846 0.000000 0.000000 0.000000
# 3 -0.004846 -0.004846 0.010640 0.000000 0.000000 0.000000
# 4 0.000000 0.000000 0.000000 0.072487 0.000000 0.000000
# 5 0.000000 0.000000 0.000000 0.000000 0.072488 0.000000
# 6 0.000000 0.000000 0.000000 0.000000 0.000000 0.041153
#
#
# Mechanical properties :
#
#
# Convention : Reuss Voigt Hill
#
# Bulk Modulus (GPa) = 58.85286 66.12676 62.48981
# Shear Modulus (GPa) = 15.95808 18.86050 17.40929
#
# Velocity S-wave (km/s) = 3.15237 3.42707 3.29259
# Velocity P-wave (km/s) = 7.06391 7.53912 7.30538
#
# Compressibility (1/GPa) = 0.01699153
#
# Stress axis : x y z
#
# Youngs Moduli (GPa) = 34.11822 34.11830 93.98120
#
# Poissons Ratio (x) = 0.56099 0.45543
# Poissons Ratio (y) = 0.56098 0.45543
# Poissons Ratio (z) = 0.16534 0.16534
#
# Static dielectric constant tensor:
#      x y z
#    x 2.846030 0.000000 0.000000 
#    y 0.000000 2.846020 0.000000 
#    z 0.000000 0.000000 3.345140 
# 
# 
# High freq. dielectric constant tensor:
#      x y z
#    x 1.596050 0.000000 0.000000 
#    y 0.000000 1.596050 0.000000 
#    z 0.000000 0.000000 1.639490 
# 
# From -- ./inp_files/7924.got.cif
#   From: 2010.03.12/outbox.cif.g09.slc.cpg/sg129_4_cif.got.tgz:7924.got - 2010.04.06 17:19:44.
