data_PCOD8315335
_publ_section_title
;
Structure prediction by ZEFSAII (Michael W. Deem and Ramdas Pophale) SiO2 
 PCOD8315335
Probable space group: P 4/N M M
;
_chemical_formula_sum "Si O2"
_cell_formula_units_Z 112
_cell_length_a 18.200102
_cell_length_b 18.200102
_cell_length_c 18.823890
_cell_angle_alpha 90.000000
_cell_angle_beta 90.000000
_cell_angle_gamma 90.000000
_cell_volume 6235.295213
_symmetry_space_group_name_H-M "P 4/N M M"
_symmetry_group_IT_number 129
_symmetry_cell_setting 'tetragonal'
loop_
_space_group_symop_operation_xyz
x,y,z
1/2-y,x,z
1/2-x,1/2-y,z
y,1/2-x,z
1/2+x,-y,-z
-x,1/2+y,-z
1/2+y,1/2+x,-z
-y,-x,-z
-x,-y,-z
1/2+y,-x,-z
1/2+x,1/2+y,-z
-y,1/2+x,-z
1/2-x,y,z
x,1/2-y,z
1/2-y,1/2-x,z
y,x,z
loop_
_atom_site_type_symbol
_atom_site_label
_atom_site_fract_x
_atom_site_fract_y
_atom_site_fract_z
Si Si1 0.440273 0.942308 0.308034
Si Si2 0.056352 0.328683 0.504866
Si Si3 0.444497 0.167723 0.665593
Si Si4 0.932007 0.053226 0.849058
Si Si5 0.667983 0.405448 0.567832
Si Si6 0.335284 0.455560 0.898006
Si Si7 0.334048 0.046903 0.065804
O O1 0.501706 0.881613 0.287929
O O2 0.401597 0.954327 0.232141
O O3 0.384947 0.904655 0.364041
O O4 0.483078 0.016923 0.335112
O O5 0.097131 0.250000 0.504253
O O6 0.111223 0.388778 0.475278
O O7 0.028353 0.343858 0.584467
O O8 0.989778 0.328014 0.451766
O O9 0.448400 0.250000 0.693360
O O10 0.360632 0.139369 0.672339
O O11 0.966936 0.133148 0.867002
O O12 0.864135 0.028811 0.898859
O O13 0.997668 0.997668 0.863692
O O14 0.640258 0.359743 0.500000
O O15 0.750000 0.376674 0.587855
O O16 0.250000 0.445075 0.872990
O O17 0.384269 0.384269 0.873549
O O18 0.338966 0.463254 0.982174
O O19 0.250000 0.060237 0.090278
O O20 0.382756 0.117245 0.090461
#
# Coordination Sequence:
#
# PCOD8315335 Si02
#       7
#    16  16  16  16  16  16  16
#     4  10  20  33  52  73  95 127 163 203 245 286
#     4   9  17  29  47  70  94 120 149 184 229 284
#     4   9  17  29  46  69  95 123 154 189 234 287
#     4   9  18  32  49  73 102 134 172 207 244 290
#     4  11  22  35  51  70  91 118 156 201 251 300
#     4   9  17  30  50  77 107 139 172 205 244 290
#     4   9  17  30  51  77 106 138 169 206 248 292
#
# _framework density 17.962260000000001
#
# number of rings (size 3 to 8) (size 9 to 14) (size 15 to 20)
#    0.000    2.571    1.429    0.857    0.000    4.143 
#    0.000    2.857    0.000    0.429    0.000    8.000 
#    0.000    3.429    0.000    0.000    0.000    0.000 
#
# Total GULP energy -1387648.565582 kJ/mol
# GULP energy per Si atom -12389.719336 kJ/mol
# Density = 1.792138 g / cm^3
# Si number density = 17.962260 Si / 1000 Ang^3
#
#
#
# Elastic Constant Matrix: (Units=GPa)
#
#
# Indices 1 2 3 4 5 6 
#
# 1 89.8945 43.1614 26.5805 0.0000 0.0000 0.0000
# 2 43.1614 89.8940 26.5807 0.0000 0.0000 0.0000
# 3 26.5805 26.5807 49.8850 0.0000 0.0000 0.0000
# 4 0.0000 0.0000 0.0000 12.8850 0.0000 0.0000
# 5 0.0000 0.0000 0.0000 0.0000 12.8848 0.0000
# 6 0.0000 0.0000 0.0000 0.0000 0.0000 18.6371
#
#
#
# Elastic Compliance Matrix: (Units=1/GPa)
#
#
# Indices 1 2 3 4 5 6 
#
# 1 0.015473 -0.005925 -0.005088 0.000000 0.000000 0.000000
# 2 -0.005925 0.015473 -0.005088 0.000000 0.000000 0.000000
# 3 -0.005088 -0.005088 0.025468 0.000000 0.000000 0.000000
# 4 0.000000 0.000000 0.000000 0.077610 0.000000 0.000000
# 5 0.000000 0.000000 0.000000 0.000000 0.077611 0.000000
# 6 0.000000 0.000000 0.000000 0.000000 0.000000 0.053657
#
#
# Mechanical properties :
#
#
# Convention : Reuss Voigt Hill
#
# Bulk Modulus (GPa) = 41.29872 46.92428 44.11150
# Shear Modulus (GPa) = 16.36320 17.77143 17.06732
#
# Velocity S-wave (km/s) = 3.02151 3.14885 3.08584
# Velocity P-wave (km/s) = 5.93419 6.27701 6.10800
#
# Compressibility (1/GPa) = 0.02421383
#
# Stress axis : x y z
#
# Youngs Moduli (GPa) = 64.62765 64.62708 39.26495
#
# Poissons Ratio (x) = 0.38291 0.19977
# Poissons Ratio (y) = 0.38291 0.19977
# Poissons Ratio (z) = 0.32880 0.32881
#
# Static dielectric constant tensor:
#      x y z
#    x 3.396370 0.000000 0.000000 
#    y 0.000000 3.396370 0.000000 
#    z 0.000000 0.000000 3.218930 
# 
# 
# High freq. dielectric constant tensor:
#      x y z
#    x 1.682520 0.000000 0.000000 
#    y 0.000000 1.682520 0.000000 
#    z 0.000000 0.000000 1.686950 
# 
# From -- ./inp_files/6713.got.cif
#   From: 2010.03.12/outbox.cif.g09.slc.cpg/sg129_4_cif.got.tgz:6713.got - 2010.04.06 17:19:44.
