data_PCOD8315391
_publ_section_title
;
Structure prediction by ZEFSAII (Michael W. Deem and Ramdas Pophale) SiO2 
 PCOD8315391
Probable space group: P 4/N M M
;
_chemical_formula_sum "Si O2"
_cell_formula_units_Z 120
_cell_length_a 20.804478
_cell_length_b 20.804478
_cell_length_c 15.232960
_cell_angle_alpha 90.000000
_cell_angle_beta 90.000000
_cell_angle_gamma 90.000000
_cell_volume 6593.225789
_symmetry_space_group_name_H-M "P 4/N M M"
_symmetry_group_IT_number 129
_symmetry_cell_setting 'tetragonal'
loop_
_space_group_symop_operation_xyz
x,y,z
1/2-y,x,z
1/2-x,1/2-y,z
y,1/2-x,z
1/2+x,-y,-z
-x,1/2+y,-z
1/2+y,1/2+x,-z
-y,-x,-z
-x,-y,-z
1/2+y,-x,-z
1/2+x,1/2+y,-z
-y,1/2+x,-z
1/2-x,y,z
x,1/2-y,z
1/2-y,1/2-x,z
y,x,z
loop_
_atom_site_type_symbol
_atom_site_label
_atom_site_fract_x
_atom_site_fract_y
_atom_site_fract_z
Si Si1 0.553332 0.323512 0.382679
Si Si2 0.592619 0.098095 0.764249
Si Si3 0.581245 0.478485 0.075129
Si Si4 0.674252 0.569821 0.502390
Si Si5 0.823128 0.176873 0.500000
Si Si6 0.177618 0.073920 0.869624
Si Si7 0.678343 0.325762 0.900819
Si Si8 0.984027 0.822256 0.316219
O O1 0.544300 0.250000 0.357236
O O2 0.550969 0.362461 0.291590
O O3 0.493987 0.345414 0.443252
O O4 0.623457 0.334879 0.425710
O O5 0.549102 0.056675 0.831257
O O6 0.630907 0.145970 0.828346
O O7 0.547602 0.135486 0.695714
O O8 0.537663 0.537663 0.046867
O O9 0.653255 0.507696 0.084282
O O10 0.576283 0.423718 0.000000
O O11 0.750000 0.586875 0.514063
O O12 0.630753 0.630753 0.532930
O O13 0.656167 0.554820 0.402009
O O14 0.750000 0.168805 0.462051
O O15 0.250000 0.086636 0.901043
O O16 0.135346 0.135346 0.896926
O O17 0.172600 0.064746 0.765083
O O18 0.750000 0.352560 0.883033
O O19 0.677870 0.250000 0.889449
O O20 0.656379 0.343622 0.000000
O O21 0.009164 0.750000 0.329450
#
# Coordination Sequence:
#
# PCOD8315391 Si02
#       8
#    16  16  16  16   8  16  16  16
#     4  10  21  34  48  73 104 130 163 212 261 297
#     4  11  19  30  49  71  96 133 169 199 241 303
#     4   9  19  35  51  68  93 126 165 205 240 284
#     4  10  21  38  57  75 100 130 162 208 263 319
#     4   9  18  34  53  70  96 140 185 210 228 273
#     4   9  17  30  49  74 102 129 161 202 249 304
#     4   9  18  31  46  68  99 132 169 214 253 282
#     4   9  18  31  48  72 101 134 169 204 244 292
#
# _framework density 18.200500000000002
#
# number of rings (size 3 to 8) (size 9 to 14) (size 15 to 20)
#    0.000    2.467    0.000    2.800    0.000    4.000 
#    0.000    5.000    0.000    2.400    0.000    0.000 
#    0.000    0.000    0.000    4.000    0.000    0.267 
#
# Total GULP energy -1487150.528156 kJ/mol
# GULP energy per Si atom -12392.921068 kJ/mol
# Density = 1.815907 g / cm^3
# Si number density = 18.200500 Si / 1000 Ang^3
#
#
#
# Elastic Constant Matrix: (Units=GPa)
#
#
# Indices 1 2 3 4 5 6 
#
# 1 85.4737 52.2641 40.5227 0.0000 0.0000 0.0000
# 2 52.2641 85.4747 40.5222 0.0000 0.0000 0.0000
# 3 40.5227 40.5222 74.2243 0.0000 0.0000 0.0000
# 4 0.0000 0.0000 0.0000 22.6322 0.0000 0.0000
# 5 0.0000 0.0000 0.0000 0.0000 22.6318 0.0000
# 6 0.0000 0.0000 0.0000 0.0000 0.0000 27.7700
#
#
#
# Elastic Compliance Matrix: (Units=1/GPa)
#
#
# Indices 1 2 3 4 5 6 
#
# 1 0.020404 -0.009708 -0.005840 0.000000 0.000000 0.000000
# 2 -0.009708 0.020403 -0.005839 0.000000 0.000000 0.000000
# 3 -0.005840 -0.005839 0.019849 0.000000 0.000000 0.000000
# 4 0.000000 0.000000 0.000000 0.044185 0.000000 0.000000
# 5 0.000000 0.000000 0.000000 0.000000 0.044186 0.000000
# 6 0.000000 0.000000 0.000000 0.000000 0.000000 0.036010
#
#
# Mechanical properties :
#
#
# Convention : Reuss Voigt Hill
#
# Bulk Modulus (GPa) = 55.91905 56.86564 56.39235
# Shear Modulus (GPa) = 21.38847 22.06438 21.72643
#
# Velocity S-wave (km/s) = 3.43178 3.48558 3.45878
# Velocity P-wave (km/s) = 6.81861 6.89281 6.85581
#
# Compressibility (1/GPa) = 0.01788299
#
# Stress axis : x y z
#
# Youngs Moduli (GPa) = 49.01016 49.01135 50.38097
#
# Poissons Ratio (x) = 0.47578 0.29421
# Poissons Ratio (y) = 0.47577 0.29419
# Poissons Ratio (z) = 0.28621 0.28619
#
# Static dielectric constant tensor:
#      x y z
#    x 3.378490 0.000000 0.000000 
#    y 0.000000 3.378490 0.000000 
#    z 0.000000 0.000000 3.360620 
# 
# 
# High freq. dielectric constant tensor:
#      x y z
#    x 1.700110 0.000000 0.000000 
#    y 0.000000 1.700110 0.000000 
#    z 0.000000 0.000000 1.689860 
# 
# From -- ./inp_files/5098.got.cif
#   From: 2010.03.12/outbox.cif.g09.slc.cpg/sg129_3_cif.got.tgz:5098.got - 2010.04.06 17:19:44.
